# generated using pymatgen
data_ZrScNbPdRh
_symmetry_space_group_name_H-M   'P 1'
_cell_length_a   16.55931257
_cell_length_b   16.56324476
_cell_length_c   16.55948805
_cell_angle_alpha   90.01882193
_cell_angle_beta   89.96913831
_cell_angle_gamma   89.98378367
_symmetry_Int_Tables_number   1
_chemical_formula_structural   ZrScNbPdRh
_chemical_formula_sum   'Zr50 Sc50 Nb50 Pd50 Rh50'
_cell_volume   4541.86818301
_cell_formula_units_Z   50
loop_
 _symmetry_equiv_pos_site_id
 _symmetry_equiv_pos_as_xyz
  1  'x, y, z'
loop_
 _atom_site_type_symbol
 _atom_site_label
 _atom_site_symmetry_multiplicity
 _atom_site_fract_x
 _atom_site_fract_y
 _atom_site_fract_z
 _atom_site_occupancy
  Zr  Zr0  1  0.70504851  0.69937623  0.50009572  1
  Zr  Zr1  1  0.90690787  0.89687590  0.50029984  1
  Zr  Zr2  1  0.90011789  0.90376087  0.10032840  1
  Zr  Zr3  1  0.29961097  0.71526888  0.50422244  1
  Zr  Zr4  1  0.30645385  0.50558745  0.89331601  1
  Zr  Zr5  1  0.69860132  0.89544331  0.49838934  1
  Zr  Zr6  1  0.70504856  0.10096726  0.70316910  1
  Zr  Zr7  1  0.70823386  0.89665011  0.10271632  1
  Zr  Zr8  1  0.49338588  0.89565110  0.50075492  1
  Zr  Zr9  1  0.69298777  0.30374998  0.31014788  1
  Zr  Zr10  1  0.49688527  0.89245749  0.09683268  1
  Zr  Zr11  1  0.30367060  0.29308255  0.29389753  1
  Zr  Zr12  1  0.50117104  0.30224845  0.70203220  1
  Zr  Zr13  1  0.70710756  0.10954971  0.90064597  1
  Zr  Zr14  1  0.10335052  0.30460894  0.70420485  1
  Zr  Zr15  1  0.50002363  0.50175246  0.89098800  1
  Zr  Zr16  1  0.89823738  0.49828717  0.30139012  1
  Zr  Zr17  1  0.70347456  0.89712650  0.29918250  1
  Zr  Zr18  1  0.89871461  0.29382882  0.90183681  1
  Zr  Zr19  1  0.30073348  0.10043601  0.69185009  1
  Zr  Zr20  1  0.29883673  0.89201423  0.89336678  1
  Zr  Zr21  1  0.89907340  0.90289361  0.29342286  1
  Zr  Zr22  1  0.30154667  0.69934758  0.89995970  1
  Zr  Zr23  1  0.69850162  0.30007973  0.88744487  1
  Zr  Zr24  1  0.69669110  0.50569687  0.90292910  1
  Zr  Zr25  1  0.48731540  0.10440222  0.50237893  1
  Zr  Zr26  1  0.70106162  0.70138549  0.70159332  1
  Zr  Zr27  1  0.30166903  0.70535345  0.10133397  1
  Zr  Zr28  1  0.09642958  0.30592814  0.09581152  1
  Zr  Zr29  1  0.49816456  0.69969886  0.90632367  1
  Zr  Zr30  1  0.11212649  0.70614358  0.30190983  1
  Zr  Zr31  1  0.70211186  0.89966061  0.70600567  1
  Zr  Zr32  1  0.90055771  0.69862350  0.69865312  1
  Zr  Zr33  1  0.10816783  0.90362570  0.69956001  1
  Zr  Zr34  1  0.50506636  0.70454639  0.50098740  1
  Zr  Zr35  1  0.90529627  0.09779044  0.89838381  1
  Zr  Zr36  1  0.29811007  0.50452405  0.51569956  1
  Zr  Zr37  1  0.49673831  0.50863259  0.51205279  1
  Zr  Zr38  1  0.30045618  0.89386462  0.69422224  1
  Zr  Zr39  1  0.09959793  0.28895457  0.89690277  1
  Zr  Zr40  1  0.50506512  0.29919554  0.89971584  1
  Zr  Zr41  1  0.29616932  0.89667510  0.30809272  1
  Zr  Zr42  1  0.70089027  0.69549741  0.08630002  1
  Zr  Zr43  1  0.69312935  0.50519560  0.70888221  1
  Zr  Zr44  1  0.70407270  0.49416919  0.29755332  1
  Zr  Zr45  1  0.10544963  0.70030297  0.10508391  1
  Zr  Zr46  1  0.89467841  0.91037597  0.69758038  1
  Zr  Zr47  1  0.10071411  0.30147838  0.50568878  1
  Zr  Zr48  1  0.10272809  0.09932053  0.09957342  1
  Zr  Zr49  1  0.29281041  0.70086063  0.70340026  1
  Sc  Sc50  1  0.89477571  0.09362959  0.09841714  1
  Sc  Sc51  1  0.89781399  0.09794055  0.69961406  1
  Sc  Sc52  1  0.91039855  0.48621492  0.09899232  1
  Sc  Sc53  1  0.48618823  0.29767650  0.10358936  1
  Sc  Sc54  1  0.90532557  0.29625613  0.70383672  1
  Sc  Sc55  1  0.69962811  0.69675629  0.89469358  1
  Sc  Sc56  1  0.69392491  0.29384097  0.09475354  1
  Sc  Sc57  1  0.69385286  0.10566945  0.50587042  1
  Sc  Sc58  1  0.90758581  0.50466845  0.70215575  1
  Sc  Sc59  1  0.49851550  0.10083015  0.70165478  1
  Sc  Sc60  1  0.50062560  0.48731833  0.29016121  1
  Sc  Sc61  1  0.90115813  0.70647650  0.31161111  1
  Sc  Sc62  1  0.09419162  0.49383534  0.89772408  1
  Sc  Sc63  1  0.49955217  0.49546991  0.08796409  1
  Sc  Sc64  1  0.50441087  0.69425314  0.69392823  1
  Sc  Sc65  1  0.09985205  0.09686653  0.70977050  1
  Sc  Sc66  1  0.29353710  0.31151524  0.70250533  1
  Sc  Sc67  1  0.30329846  0.10726842  0.10240570  1
  Sc  Sc68  1  0.29659871  0.89388959  0.09972076  1
  Sc  Sc69  1  0.28650003  0.10540838  0.90545094  1
  Sc  Sc70  1  0.50535680  0.10052580  0.89114839  1
  Sc  Sc71  1  0.30937711  0.28693905  0.49905726  1
  Sc  Sc72  1  0.50446304  0.90498854  0.30169821  1
  Sc  Sc73  1  0.29514566  0.50614226  0.29447701  1
  Sc  Sc74  1  0.90666951  0.09545135  0.50725097  1
  Sc  Sc75  1  0.09479619  0.89837921  0.09888586  1
  Sc  Sc76  1  0.30669388  0.49299678  0.09672188  1
  Sc  Sc77  1  0.09857141  0.90271988  0.50108559  1
  Sc  Sc78  1  0.10342012  0.50890339  0.51001763  1
  Sc  Sc79  1  0.90510208  0.29947987  0.10138049  1
  Sc  Sc80  1  0.70965265  0.70619619  0.30445136  1
  Sc  Sc81  1  0.09679148  0.69925135  0.89697992  1
  Sc  Sc82  1  0.90793671  0.29541308  0.50650505  1
  Sc  Sc83  1  0.50180541  0.09604220  0.10838510  1
  Sc  Sc84  1  0.10815262  0.51090107  0.30059646  1
  Sc  Sc85  1  0.49990103  0.29456889  0.29884472  1
  Sc  Sc86  1  0.90303643  0.50339402  0.89411206  1
  Sc  Sc87  1  0.49352400  0.09974670  0.30078878  1
  Sc  Sc88  1  0.09624620  0.28997727  0.29753487  1
  Sc  Sc89  1  0.70556925  0.50197745  0.48967168  1
  Sc  Sc90  1  0.50410584  0.29140497  0.49402350  1
  Sc  Sc91  1  0.68356889  0.09364880  0.29538784  1
  Sc  Sc92  1  0.90747998  0.30327145  0.29879177  1
  Sc  Sc93  1  0.70190945  0.09534948  0.09991836  1
  Sc  Sc94  1  0.09046621  0.10186458  0.30576463  1
  Sc  Sc95  1  0.29042792  0.29888424  0.90716080  1
  Sc  Sc96  1  0.09558031  0.09575835  0.49597404  1
  Sc  Sc97  1  0.90150978  0.71109274  0.09111428  1
  Sc  Sc98  1  0.90187076  0.69436180  0.89642561  1
  Sc  Sc99  1  0.10134789  0.69860709  0.69935077  1
  Nb  Nb100  1  0.29389350  0.29521275  0.10333064  1
  Nb  Nb101  1  0.09182743  0.90301975  0.29782464  1
  Nb  Nb102  1  0.90695118  0.69198378  0.50097234  1
  Nb  Nb103  1  0.29281183  0.10149560  0.30251893  1
  Nb  Nb104  1  0.30006637  0.50511259  0.69873919  1
  Nb  Nb105  1  0.49837810  0.69962301  0.09892112  1
  Nb  Nb106  1  0.08818962  0.70473853  0.49955969  1
  Nb  Nb107  1  0.89964505  0.50901097  0.49616834  1
  Nb  Nb108  1  0.29861557  0.09399312  0.49758691  1
  Nb  Nb109  1  0.09816128  0.09486532  0.90191315  1
  Nb  Nb110  1  0.29726919  0.69880863  0.29674029  1
  Nb  Nb111  1  0.09655719  0.91776687  0.89659383  1
  Nb  Nb112  1  0.50175541  0.90107933  0.89245716  1
  Nb  Nb113  1  0.70157159  0.30117750  0.69770128  1
  Nb  Nb114  1  0.50367801  0.90498343  0.71457091  1
  Nb  Nb115  1  0.70354529  0.50121067  0.09838616  1
  Nb  Nb116  1  0.90463445  0.90571869  0.89994438  1
  Nb  Nb117  1  0.89906137  0.09927468  0.30402415  1
  Nb  Nb118  1  0.29763300  0.90810363  0.50925469  1
  Nb  Nb119  1  0.69923090  0.30074851  0.50202416  1
  Nb  Nb120  1  0.12249479  0.49369749  0.69621276  1
  Nb  Nb121  1  0.49049232  0.50193847  0.69782386  1
  Nb  Nb122  1  0.10033609  0.49913981  0.10225563  1
  Nb  Nb123  1  0.69409629  0.90049165  0.89101907  1
  Nb  Nb124  1  0.50028951  0.69940753  0.29940317  1
  Nb  Nb125  1  0.19914645  0.59728761  0.00357031  1
  Nb  Nb126  1  0.39926096  0.60366840  0.39502290  1
  Nb  Nb127  1  0.59826507  0.78977234  0.19652431  1
  Nb  Nb128  1  0.39365574  0.40650911  0.40077908  1
  Nb  Nb129  1  0.80282751  0.59755017  0.19558320  1
  Nb  Nb130  1  0.59610784  -0.00560637  0.60470127  1
  Nb  Nb131  1  0.80036369  0.00497670  0.39876767  1
  Nb  Nb132  1  0.79560658  0.39994523  -0.00376444  1
  Nb  Nb133  1  0.20006671  0.39503117  0.19835681  1
  Nb  Nb134  1  0.79609694  0.39901962  0.59992544  1
  Nb  Nb135  1  0.20262074  0.39827263  0.40060264  1
  Nb  Nb136  1  -0.00101595  0.81305285  0.80206125  1
  Nb  Nb137  1  0.60583173  0.39909675  0.60177046  1
  Nb  Nb138  1  -0.00060679  0.60151180  0.19936832  1
  Nb  Nb139  1  0.40443907  -0.00563711  -0.00723601  1
  Nb  Nb140  1  0.00603001  0.40722768  0.40526466  1
  Nb  Nb141  1  0.59429373  0.60139455  0.39152208  1
  Nb  Nb142  1  0.79814630  0.19855543  0.21068053  1
  Nb  Nb143  1  0.39545691  0.20334379  0.80032083  1
  Nb  Nb144  1  0.79919603  0.19724901  0.39743842  1
  Nb  Nb145  1  0.59907550  -0.00835949  -0.00793154  1
  Nb  Nb146  1  0.20139732  0.19605793  0.59841242  1
  Nb  Nb147  1  0.40489942  0.60702534  0.20119270  1
  Nb  Nb148  1  0.19912876  0.00137951  0.20898993  1
  Nb  Nb149  1  0.60172508  0.60162123  0.19716801  1
  Pd  Pd150  1  0.20658172  0.60107006  0.41141666  1
  Pd  Pd151  1  0.38942744  0.01080636  0.80694992  1
  Pd  Pd152  1  0.20046730  0.40582273  0.00027124  1
  Pd  Pd153  1  0.39097953  -0.00122081  0.19570337  1
  Pd  Pd154  1  0.59242360  0.19022892  0.00574898  1
  Pd  Pd155  1  0.60342306  0.80324453  -0.00224638  1
  Pd  Pd156  1  0.60076041  0.00630354  0.41108120  1
  Pd  Pd157  1  0.20790938  -0.00152799  0.00944535  1
  Pd  Pd158  1  0.40378879  0.38922136  0.59355429  1
  Pd  Pd159  1  0.39772326  0.00070557  0.39807850  1
  Pd  Pd160  1  0.59560047  0.80758474  0.60984842  1
  Pd  Pd161  1  -0.00774996  0.19151760  0.19496641  1
  Pd  Pd162  1  0.80097965  0.80430850  -0.01437514  1
  Pd  Pd163  1  0.00615194  0.80471598  -0.01051002  1
  Pd  Pd164  1  -0.00642216  0.41079013  0.59794603  1
  Pd  Pd165  1  0.00280089  0.59742270  0.00583179  1
  Pd  Pd166  1  0.40337234  0.19099074  -0.00580994  1
  Pd  Pd167  1  0.00981400  0.19127363  0.60805945  1
  Pd  Pd168  1  0.19011983  0.79921894  -0.00783589  1
  Pd  Pd169  1  0.19859320  0.20198347  0.40562051  1
  Pd  Pd170  1  0.40874221  0.79111634  0.79234326  1
  Pd  Pd171  1  0.20997176  0.00420670  0.79959301  1
  Pd  Pd172  1  0.79720722  0.39221751  0.18925692  1
  Pd  Pd173  1  0.80846861  0.79943757  0.80750908  1
  Pd  Pd174  1  0.39682594  0.39356662  -0.00504510  1
  Pd  Pd175  1  0.80564940  0.79883557  0.59632956  1
  Pd  Pd176  1  0.80560757  0.40364902  0.79822355  1
  Pd  Pd177  1  0.81381154  0.38864167  0.41119317  1
  Pd  Pd178  1  0.19251779  0.59591908  0.80736515  1
  Pd  Pd179  1  0.60319291  0.39783364  0.00157461  1
  Pd  Pd180  1  0.80417974  0.20338351  0.59652935  1
  Pd  Pd181  1  0.60117568  0.20261690  0.19875620  1
  Pd  Pd182  1  0.81591279  0.59007824  0.00568660  1
  Pd  Pd183  1  0.19312212  -0.00267616  0.39812161  1
  Pd  Pd184  1  0.58687146  0.40828269  0.41021992  1
  Pd  Pd185  1  0.00062238  0.40112043  0.79848416  1
  Pd  Pd186  1  0.59801143  0.39807834  0.18808191  1
  Pd  Pd187  1  0.40722324  -0.00522534  0.60553202  1
  Pd  Pd188  1  0.00756979  0.59420623  0.60823736  1
  Pd  Pd189  1  -0.00285060  0.79234234  0.20422946  1
  Pd  Pd190  1  0.00309562  0.80226653  0.60875128  1
  Pd  Pd191  1  0.79727851  0.59130577  0.60122416  1
  Pd  Pd192  1  -0.00169472  0.19462809  0.00537793  1
  Pd  Pd193  1  0.59696074  0.19888475  0.60427682  1
  Pd  Pd194  1  0.39400761  0.39292342  0.80400235  1
  Pd  Pd195  1  0.40244884  0.80124823  0.20826261  1
  Pd  Pd196  1  0.39987485  0.79888807  0.39519550  1
  Pd  Pd197  1  0.19399115  0.80743883  0.40813549  1
  Pd  Pd198  1  0.79397569  -0.00459533  -0.00836117  1
  Pd  Pd199  1  0.00461783  0.59797022  0.39384967  1
  Rh  Rh200  1  0.59963688  -0.01485766  0.18923769  1
  Rh  Rh201  1  -0.00719762  -0.00402880  0.39789182  1
  Rh  Rh202  1  0.39145364  0.61400019  0.60329894  1
  Rh  Rh203  1  0.59674145  0.19793879  0.79333257  1
  Rh  Rh204  1  -0.00792882  0.20634496  0.40338863  1
  Rh  Rh205  1  0.39405327  0.20508568  0.60798372  1
  Rh  Rh206  1  0.40306350  0.60586129  0.79119780  1
  Rh  Rh207  1  0.79820114  0.78688962  0.19370929  1
  Rh  Rh208  1  0.78975166  0.00131042  0.58785983  1
  Rh  Rh209  1  0.20569353  0.59243570  0.18690166  1
  Rh  Rh210  1  0.59633960  0.79073912  0.79996022  1
  Rh  Rh211  1  0.79977528  0.00294057  0.80839304  1
  Rh  Rh212  1  0.19675983  0.00716044  0.59426333  1
  Rh  Rh213  1  0.60303951  0.19409571  0.39975363  1
  Rh  Rh214  1  0.59581896  0.40358780  0.79302961  1
  Rh  Rh215  1  0.39374031  0.60040759  0.00778529  1
  Rh  Rh216  1  -0.00303605  0.00024264  0.79440931  1
  Rh  Rh217  1  0.80190182  0.60080219  0.79830123  1
  Rh  Rh218  1  0.00577150  0.00433592  0.19978322  1
  Rh  Rh219  1  0.59340086  0.59678310  0.00040134  1
  Rh  Rh220  1  0.39190621  0.40189700  0.20384204  1
  Rh  Rh221  1  0.60717634  0.00777109  0.80017081  1
  Rh  Rh222  1  0.19801150  0.61370912  0.59769584  1
  Rh  Rh223  1  0.00762903  0.60346946  0.79287245  1
  Rh  Rh224  1  0.18709268  0.80402118  0.80673501  1
  Rh  Rh225  1  0.20284648  0.19782753  0.79371100  1
  Rh  Rh226  1  0.19066180  0.79907446  0.59304522  1
  Rh  Rh227  1  0.01579125  0.41087210  0.21619862  1
  Rh  Rh228  1  0.80311322  0.20897380  0.01195950  1
  Rh  Rh229  1  0.60043270  0.79481043  0.39122291  1
  Rh  Rh230  1  0.20684333  0.39131838  0.59327637  1
  Rh  Rh231  1  0.40579502  0.80337676  0.60883895  1
  Rh  Rh232  1  0.20373312  0.40573797  0.80741790  1
  Rh  Rh233  1  0.00096271  0.19387875  0.79943915  1
  Rh  Rh234  1  0.79655388  0.01118921  0.20936164  1
  Rh  Rh235  1  0.61170078  0.59250300  0.59389451  1
  Rh  Rh236  1  -0.00610533  0.39806926  -0.01066160  1
  Rh  Rh237  1  0.00209316  0.80136089  0.39805335  1
  Rh  Rh238  1  0.79662526  0.60523182  0.39459181  1
  Rh  Rh239  1  0.59224476  0.60437713  0.79980593  1
  Rh  Rh240  1  0.40028662  0.80474517  -0.00660384  1
  Rh  Rh241  1  0.00597776  0.00162523  0.60539517  1
  Rh  Rh242  1  0.19687022  0.19737781  0.19859034  1
  Rh  Rh243  1  0.81009232  0.80415644  0.40979178  1
  Rh  Rh244  1  0.39899723  0.19784360  0.39348029  1
  Rh  Rh245  1  0.19785554  0.81403652  0.20509448  1
  Rh  Rh246  1  0.80614261  0.20024236  0.79302021  1
  Rh  Rh247  1  0.19340238  0.19995625  0.00439914  1
  Rh  Rh248  1  -0.00064769  0.00193479  0.00585550  1
  Rh  Rh249  1  0.39939659  0.19396985  0.20146645  1
