# generated using pymatgen
data_ZrScNbPdRh
_symmetry_space_group_name_H-M   'P 1'
_cell_length_a   16.56103137
_cell_length_b   16.56089632
_cell_length_c   16.56479316
_cell_angle_alpha   90.00014144
_cell_angle_beta   89.99123897
_cell_angle_gamma   90.01364193
_symmetry_Int_Tables_number   1
_chemical_formula_structural   ZrScNbPdRh
_chemical_formula_sum   'Zr50 Sc50 Nb50 Pd50 Rh50'
_cell_volume   4543.15148440
_cell_formula_units_Z   50
loop_
 _symmetry_equiv_pos_site_id
 _symmetry_equiv_pos_as_xyz
  1  'x, y, z'
loop_
 _atom_site_type_symbol
 _atom_site_label
 _atom_site_symmetry_multiplicity
 _atom_site_fract_x
 _atom_site_fract_y
 _atom_site_fract_z
 _atom_site_occupancy
  Zr  Zr0  1  0.89909563  0.90785818  0.70434999  1
  Zr  Zr1  1  0.70643718  0.70235576  0.50021939  1
  Zr  Zr2  1  0.09480932  0.90146604  0.08682645  1
  Zr  Zr3  1  0.28878366  0.89927590  0.70280497  1
  Zr  Zr4  1  0.30010710  0.09505620  0.29409302  1
  Zr  Zr5  1  0.30323557  0.29714843  0.50474190  1
  Zr  Zr6  1  0.69853148  0.70222500  0.69524313  1
  Zr  Zr7  1  0.89597539  0.10595866  0.70139207  1
  Zr  Zr8  1  0.90092337  0.09296117  0.29357869  1
  Zr  Zr9  1  0.89833158  0.10849948  0.89672890  1
  Zr  Zr10  1  0.69881315  0.10560639  0.71475571  1
  Zr  Zr11  1  0.10622547  0.30565441  0.10650547  1
  Zr  Zr12  1  0.50950669  0.09893735  0.89511673  1
  Zr  Zr13  1  0.50112637  0.30867053  0.89647935  1
  Zr  Zr14  1  0.90048154  0.91036846  0.10164961  1
  Zr  Zr15  1  0.29964179  0.09591948  0.90385097  1
  Zr  Zr16  1  0.10729126  0.28881980  0.49788437  1
  Zr  Zr17  1  0.30676052  0.69392491  0.10695984  1
  Zr  Zr18  1  0.90522998  0.30290108  0.90509497  1
  Zr  Zr19  1  0.49550085  0.29264455  0.50078533  1
  Zr  Zr20  1  0.49987103  0.90616608  0.49562357  1
  Zr  Zr21  1  0.70151879  0.30530524  0.69757094  1
  Zr  Zr22  1  0.69873573  0.29924002  0.29638300  1
  Zr  Zr23  1  0.49927959  0.49843741  0.30633913  1
  Zr  Zr24  1  0.10080237  0.49225606  0.50575695  1
  Zr  Zr25  1  0.09857846  0.69988298  0.09900194  1
  Zr  Zr26  1  0.09761099  0.10073381  0.10442819  1
  Zr  Zr27  1  0.69367773  0.10163004  0.49001948  1
  Zr  Zr28  1  0.50431819  0.09993976  0.10129445  1
  Zr  Zr29  1  0.50307622  0.49440112  0.69681042  1
  Zr  Zr30  1  0.70047003  0.49516347  0.30375748  1
  Zr  Zr31  1  0.69747030  0.70346194  0.09449147  1
  Zr  Zr32  1  0.90396802  0.10621189  0.10088041  1
  Zr  Zr33  1  0.49514751  0.90195635  0.90955776  1
  Zr  Zr34  1  0.49365697  0.90313665  0.29324853  1
  Zr  Zr35  1  0.09798813  0.70381341  0.90466746  1
  Zr  Zr36  1  0.10816527  0.69511576  0.30430358  1
  Zr  Zr37  1  0.89787017  0.29284820  0.69927367  1
  Zr  Zr38  1  0.09572607  0.48998603  0.90467209  1
  Zr  Zr39  1  0.68926872  0.90025501  0.09672513  1
  Zr  Zr40  1  0.89699820  0.10652786  0.49727684  1
  Zr  Zr41  1  0.10369837  0.29897501  0.69552427  1
  Zr  Zr42  1  0.70455677  0.50115026  0.90091160  1
  Zr  Zr43  1  0.50904310  0.89582617  0.71292682  1
  Zr  Zr44  1  0.70336708  0.49630178  0.10034346  1
  Zr  Zr45  1  0.89890594  0.50285350  0.68759042  1
  Zr  Zr46  1  0.29638164  0.90144341  0.89927981  1
  Zr  Zr47  1  0.10105502  0.90016442  0.50101266  1
  Zr  Zr48  1  0.49857652  0.69507318  0.50527652  1
  Zr  Zr49  1  0.89636784  0.68825012  0.50709965  1
  Sc  Sc50  1  0.09673246  0.10159213  0.69784751  1
  Sc  Sc51  1  0.31496915  0.49700713  0.49681390  1
  Sc  Sc52  1  0.89814770  0.88941641  0.48285015  1
  Sc  Sc53  1  0.09514377  0.90734162  0.31348269  1
  Sc  Sc54  1  0.28877449  0.10028738  0.10419672  1
  Sc  Sc55  1  0.11120869  0.69970849  0.70408427  1
  Sc  Sc56  1  0.90204607  0.71017066  0.08722749  1
  Sc  Sc57  1  0.09555158  0.10491345  0.30075305  1
  Sc  Sc58  1  0.69784404  0.29913606  0.09894178  1
  Sc  Sc59  1  0.49648737  0.70747255  0.09947297  1
  Sc  Sc60  1  0.50275879  0.10229096  0.30887317  1
  Sc  Sc61  1  0.69503048  0.50390975  0.70012839  1
  Sc  Sc62  1  0.69721574  0.91211549  0.30371467  1
  Sc  Sc63  1  0.30351988  0.50654578  0.29984171  1
  Sc  Sc64  1  0.10104471  0.49398995  0.70159077  1
  Sc  Sc65  1  0.50693600  0.30327791  0.69469298  1
  Sc  Sc66  1  0.49366793  0.49743222  0.09939829  1
  Sc  Sc67  1  0.48926075  0.70306923  0.29558145  1
  Sc  Sc68  1  0.49921639  0.70277741  0.90138530  1
  Sc  Sc69  1  0.69739802  0.69215169  0.89898002  1
  Sc  Sc70  1  0.70119529  0.10809025  0.30073092  1
  Sc  Sc71  1  0.49830969  0.29735160  0.30073688  1
  Sc  Sc72  1  0.29354918  0.90162706  0.49359735  1
  Sc  Sc73  1  0.11123400  0.49063458  0.28750671  1
  Sc  Sc74  1  0.30009627  0.69805206  0.48810137  1
  Sc  Sc75  1  0.69458259  0.11247794  0.10056105  1
  Sc  Sc76  1  0.30456087  0.90425078  0.09596643  1
  Sc  Sc77  1  0.69731867  0.29739085  0.90498500  1
  Sc  Sc78  1  0.68588810  0.90043395  0.89562105  1
  Sc  Sc79  1  0.89482852  0.48456974  0.29194455  1
  Sc  Sc80  1  0.90182672  0.48734621  0.09418696  1
  Sc  Sc81  1  0.29608481  0.10083948  0.69710648  1
  Sc  Sc82  1  0.31197609  0.49727291  0.69901332  1
  Sc  Sc83  1  0.30468800  0.49356498  0.89443663  1
  Sc  Sc84  1  0.89487113  0.70772469  0.32025234  1
  Sc  Sc85  1  0.90570800  0.90728751  0.90364284  1
  Sc  Sc86  1  0.70088053  0.69740489  0.31052857  1
  Sc  Sc87  1  0.30289257  0.69558804  0.70520989  1
  Sc  Sc88  1  0.50574949  0.69252527  0.70182561  1
  Sc  Sc89  1  0.50480930  0.50014792  0.89432104  1
  Sc  Sc90  1  0.10265117  0.70209171  0.49519586  1
  Sc  Sc91  1  0.70126352  0.30030242  0.49896480  1
  Sc  Sc92  1  0.50135087  0.49545274  0.50101526  1
  Sc  Sc93  1  0.89129913  0.69613198  0.90234056  1
  Sc  Sc94  1  0.30043730  0.49599581  0.11037843  1
  Sc  Sc95  1  0.29747150  0.10831666  0.50017532  1
  Sc  Sc96  1  0.30152863  0.70207707  0.90006547  1
  Sc  Sc97  1  0.89778053  0.29150923  0.28978826  1
  Sc  Sc98  1  0.29922881  0.29884367  0.30032491  1
  Sc  Sc99  1  0.89184237  0.29732130  0.50823027  1
  Nb  Nb100  1  0.69351019  0.89885495  0.50594737  1
  Nb  Nb101  1  0.10309567  0.90087990  0.89554934  1
  Nb  Nb102  1  0.10062608  0.10004917  0.90945298  1
  Nb  Nb103  1  0.09812792  0.30261036  0.29861421  1
  Nb  Nb104  1  0.89513217  0.29695614  0.10238805  1
  Nb  Nb105  1  0.90096365  0.49883899  0.49885188  1
  Nb  Nb106  1  0.10889723  0.30142264  0.89946469  1
  Nb  Nb107  1  0.50081945  0.10290137  0.69915917  1
  Nb  Nb108  1  0.69746245  0.89655417  0.69526832  1
  Nb  Nb109  1  0.29980599  0.70284558  0.29531948  1
  Nb  Nb110  1  0.49730460  0.10271930  0.50570663  1
  Nb  Nb111  1  0.89806292  0.69784644  0.70105135  1
  Nb  Nb112  1  0.30363653  0.29524011  0.70100766  1
  Nb  Nb113  1  0.90080845  0.90041813  0.29518053  1
  Nb  Nb114  1  0.09926666  0.89671216  0.69896470  1
  Nb  Nb115  1  0.30500420  0.29537038  0.09924215  1
  Nb  Nb116  1  0.09261291  0.09813710  0.49851562  1
  Nb  Nb117  1  0.30081442  0.30016002  0.89904327  1
  Nb  Nb118  1  0.50605555  0.89597891  0.09861389  1
  Nb  Nb119  1  0.89869513  0.49859318  0.89396990  1
  Nb  Nb120  1  0.69897880  0.10621287  0.90521612  1
  Nb  Nb121  1  0.49526855  0.29581417  0.09848109  1
  Nb  Nb122  1  0.10181997  0.50284873  0.10514991  1
  Nb  Nb123  1  0.30050829  0.89409454  0.29765546  1
  Nb  Nb124  1  0.71315491  0.50010438  0.49484388  1
  Nb  Nb125  1  0.19609423  0.59362182  0.00310999  1
  Nb  Nb126  1  0.20129167  0.20477356  0.80887814  1
  Nb  Nb127  1  -0.00487180  0.60016533  0.80017712  1
  Nb  Nb128  1  -0.00094666  0.79947937  0.20663792  1
  Nb  Nb129  1  0.80570047  0.40407573  0.80139881  1
  Nb  Nb130  1  -0.00069920  0.58549099  0.39760237  1
  Nb  Nb131  1  0.40099711  0.80684460  0.60184803  1
  Nb  Nb132  1  0.39835327  0.20522565  -0.00170868  1
  Nb  Nb133  1  -0.00090995  0.79895414  0.79707109  1
  Nb  Nb134  1  0.79347924  0.00934904  -0.00329206  1
  Nb  Nb135  1  0.40630443  0.00028561  0.60326378  1
  Nb  Nb136  1  0.60533435  0.59852075  0.20078102  1
  Nb  Nb137  1  0.39729785  0.20303035  0.80157540  1
  Nb  Nb138  1  -0.00337259  -0.00336409  0.59574556  1
  Nb  Nb139  1  -0.00011940  0.80202500  0.60783927  1
  Nb  Nb140  1  0.80357414  0.60689051  0.19881250  1
  Nb  Nb141  1  0.19963045  0.80290208  0.20403817  1
  Nb  Nb142  1  0.20428394  0.59514949  0.59741847  1
  Nb  Nb143  1  0.80138556  0.80121971  0.79335355  1
  Nb  Nb144  1  0.80254837  0.80250142  0.20248390  1
  Nb  Nb145  1  0.79406469  -0.00259478  0.59837888  1
  Nb  Nb146  1  0.00316110  0.39640045  0.39994075  1
  Nb  Nb147  1  0.59774031  0.80395347  0.40499626  1
  Nb  Nb148  1  -0.00556208  0.60312485  0.20292709  1
  Nb  Nb149  1  0.59978453  0.00254493  0.60387747  1
  Pd  Pd150  1  0.80952167  0.39118905  0.39992060  1
  Pd  Pd151  1  0.39882921  0.00548838  0.79242442  1
  Pd  Pd152  1  -0.00451460  0.40150885  0.79395197  1
  Pd  Pd153  1  -0.00722648  0.20698064  0.39683356  1
  Pd  Pd154  1  0.40070497  0.00056916  0.19275631  1
  Pd  Pd155  1  0.81005690  0.80697701  0.60136976  1
  Pd  Pd156  1  0.19941222  0.58732228  0.40517841  1
  Pd  Pd157  1  0.80806879  0.59578007  0.00889608  1
  Pd  Pd158  1  0.60275048  0.00782913  0.20404077  1
  Pd  Pd159  1  0.01440269  0.60836970  0.60214806  1
  Pd  Pd160  1  0.01153626  0.20143902  0.80362157  1
  Pd  Pd161  1  0.20516107  0.78854924  0.59711442  1
  Pd  Pd162  1  0.40147881  0.00704148  0.00862940  1
  Pd  Pd163  1  0.39216781  0.00679353  0.40530192  1
  Pd  Pd164  1  0.19130089  0.00971632  0.80025992  1
  Pd  Pd165  1  0.39433740  0.59456847  -0.00382974  1
  Pd  Pd166  1  0.20219529  0.40238651  0.39688825  1
  Pd  Pd167  1  0.39887915  0.79682652  0.79702820  1
  Pd  Pd168  1  0.59809374  0.39307195  0.40751779  1
  Pd  Pd169  1  0.21311959  0.40464589  0.60319350  1
  Pd  Pd170  1  0.59102858  0.59940580  0.00642328  1
  Pd  Pd171  1  0.00942177  0.00241378  0.79960972  1
  Pd  Pd172  1  0.40610974  0.59929661  0.80285783  1
  Pd  Pd173  1  0.19744469  0.00824620  0.59655082  1
  Pd  Pd174  1  0.59936444  0.40055356  0.00365922  1
  Pd  Pd175  1  0.40084560  0.19610940  0.19905420  1
  Pd  Pd176  1  0.60707776  0.59125277  0.59181831  1
  Pd  Pd177  1  0.21012027  0.79470516  0.00580806  1
  Pd  Pd178  1  0.59532624  0.60548352  0.39856257  1
  Pd  Pd179  1  0.79027650  -0.00624440  0.80669274  1
  Pd  Pd180  1  0.59318342  0.40053727  0.19493283  1
  Pd  Pd181  1  0.60696108  0.79244704  0.21238053  1
  Pd  Pd182  1  0.79677511  0.81442606  -0.00877344  1
  Pd  Pd183  1  0.60620015  0.19822624  0.60037572  1
  Pd  Pd184  1  0.20832041  0.40599107  0.00622386  1
  Pd  Pd185  1  0.40295028  0.79806201  0.40404221  1
  Pd  Pd186  1  0.20248244  0.20214162  0.00075819  1
  Pd  Pd187  1  0.20286577  0.00596502  0.39864454  1
  Pd  Pd188  1  -0.00135618  0.38835556  0.59401741  1
  Pd  Pd189  1  0.80111473  -0.00260897  0.40361849  1
  Pd  Pd190  1  0.20541887  0.39919192  0.79464897  1
  Pd  Pd191  1  0.19235982  -0.01079382  0.20324370  1
  Pd  Pd192  1  0.78834168  0.00140778  0.19152552  1
  Pd  Pd193  1  0.39886899  0.39824481  0.20691006  1
  Pd  Pd194  1  0.19569146  0.59264269  0.80349657  1
  Pd  Pd195  1  0.39564322  0.40172579  0.00069058  1
  Pd  Pd196  1  0.00213806  0.39424458  0.00792308  1
  Pd  Pd197  1  -0.00304104  0.59423678  0.00036611  1
  Pd  Pd198  1  0.20302226  0.19479314  0.39241761  1
  Pd  Pd199  1  0.00669469  0.20828064  0.00360547  1
  Rh  Rh200  1  0.78940518  0.18938895  0.59792824  1
  Rh  Rh201  1  0.39284344  0.80774837  0.19334572  1
  Rh  Rh202  1  -0.00317820  0.00704676  -0.00773616  1
  Rh  Rh203  1  0.59667005  0.20438921  0.20317144  1
  Rh  Rh204  1  0.58844557  0.80400906  0.59469665  1
  Rh  Rh205  1  0.80202579  0.20443597  0.39475368  1
  Rh  Rh206  1  0.79669102  0.19914092  0.19677487  1
  Rh  Rh207  1  0.59673039  0.20458106  0.40013928  1
  Rh  Rh208  1  0.39115241  0.61055837  0.59889834  1
  Rh  Rh209  1  0.19743861  0.60618863  0.19448097  1
  Rh  Rh210  1  0.79495990  0.40637186  0.60289455  1
  Rh  Rh211  1  0.40192011  0.60201292  0.39567852  1
  Rh  Rh212  1  0.19622769  -0.00103103  -0.00025617  1
  Rh  Rh213  1  0.80079019  0.39489645  -0.00485487  1
  Rh  Rh214  1  0.59801973  0.60031296  0.80136055  1
  Rh  Rh215  1  0.79213404  0.59476570  0.60137250  1
  Rh  Rh216  1  0.80084330  0.19937272  0.00163748  1
  Rh  Rh217  1  0.40019289  0.39432824  0.39853678  1
  Rh  Rh218  1  0.41020776  0.59589280  0.20378384  1
  Rh  Rh219  1  0.40325863  0.39233024  0.60162027  1
  Rh  Rh220  1  0.39845576  0.19565962  0.60802943  1
  Rh  Rh221  1  0.19809717  0.20425716  0.20473976  1
  Rh  Rh222  1  0.20969218  0.39410615  0.20012631  1
  Rh  Rh223  1  0.80354306  0.59897054  0.79488677  1
  Rh  Rh224  1  0.39878215  0.80240250  0.00252268  1
  Rh  Rh225  1  0.59488724  0.79598439  -0.00551324  1
  Rh  Rh226  1  0.60789497  0.79096980  0.80482563  1
  Rh  Rh227  1  0.00485664  0.79200244  0.40254299  1
  Rh  Rh228  1  0.19715685  0.19382134  0.60490115  1
  Rh  Rh229  1  0.00383423  0.20610129  0.19913861  1
  Rh  Rh230  1  0.60388030  0.00402339  0.00061565  1
  Rh  Rh231  1  0.61126238  0.40136789  0.79987448  1
  Rh  Rh232  1  0.39696741  0.19659407  0.39764323  1
  Rh  Rh233  1  0.00353348  0.19623459  0.59687185  1
  Rh  Rh234  1  0.59725388  0.00046189  0.40079269  1
  Rh  Rh235  1  -0.00012581  0.39874824  0.20093974  1
  Rh  Rh236  1  0.79822065  0.39572971  0.19303817  1
  Rh  Rh237  1  0.59545962  0.20776118  0.80162678  1
  Rh  Rh238  1  0.59110407  0.20494049  0.00038230  1
  Rh  Rh239  1  -0.00720082  0.00461291  0.40364484  1
  Rh  Rh240  1  0.20206562  0.80512111  0.39274880  1
  Rh  Rh241  1  0.81110540  0.58699051  0.39129671  1
  Rh  Rh242  1  0.60553860  0.40503172  0.59000532  1
  Rh  Rh243  1  0.79570200  0.21510878  0.80755046  1
  Rh  Rh244  1  0.00927630  -0.00571305  0.20392158  1
  Rh  Rh245  1  0.60372941  0.00153803  0.79957435  1
  Rh  Rh246  1  0.40267613  0.39458174  0.79292714  1
  Rh  Rh247  1  -0.00475564  0.80647620  -0.00800644  1
  Rh  Rh248  1  0.78443368  0.81150460  0.39287258  1
  Rh  Rh249  1  0.19717496  0.79935586  0.80439091  1
