# generated using pymatgen
data_ZrScNbPdRh
_symmetry_space_group_name_H-M   'P 1'
_cell_length_a   16.56606847
_cell_length_b   16.56040449
_cell_length_c   16.56154012
_cell_angle_alpha   89.97414558
_cell_angle_beta   90.02481762
_cell_angle_gamma   89.97986724
_symmetry_Int_Tables_number   1
_chemical_formula_structural   ZrScNbPdRh
_chemical_formula_sum   'Zr50 Sc50 Nb50 Pd50 Rh50'
_cell_volume   4543.50490666
_cell_formula_units_Z   50
loop_
 _symmetry_equiv_pos_site_id
 _symmetry_equiv_pos_as_xyz
  1  'x, y, z'
loop_
 _atom_site_type_symbol
 _atom_site_label
 _atom_site_symmetry_multiplicity
 _atom_site_fract_x
 _atom_site_fract_y
 _atom_site_fract_z
 _atom_site_occupancy
  Zr  Zr0  1  0.49836193  0.70085091  0.70622564  1
  Zr  Zr1  1  0.49943833  0.88749724  0.30544178  1
  Zr  Zr2  1  0.89599558  0.70132052  0.50232934  1
  Zr  Zr3  1  0.09934069  0.49801335  0.70914839  1
  Zr  Zr4  1  0.30384408  0.89721285  0.70124488  1
  Zr  Zr5  1  0.49696295  0.29950766  0.70799039  1
  Zr  Zr6  1  0.09892499  0.68156638  0.89755853  1
  Zr  Zr7  1  0.70452605  0.10341978  0.51117843  1
  Zr  Zr8  1  0.30452663  0.89624071  0.29628820  1
  Zr  Zr9  1  0.49499560  0.51436238  0.29560297  1
  Zr  Zr10  1  0.49145308  0.49795802  0.50052601  1
  Zr  Zr11  1  0.89792115  0.29784124  0.49917122  1
  Zr  Zr12  1  0.30488338  0.89968590  0.91123971  1
  Zr  Zr13  1  0.89436604  0.50551986  0.50145869  1
  Zr  Zr14  1  0.30681554  0.30730623  0.89975094  1
  Zr  Zr15  1  0.89975351  0.10025234  0.49663907  1
  Zr  Zr16  1  0.30166987  0.50423169  0.31256471  1
  Zr  Zr17  1  0.90166435  0.69437941  0.30835643  1
  Zr  Zr18  1  0.49869034  0.50297569  0.69563150  1
  Zr  Zr19  1  0.10833757  0.90556102  0.89889437  1
  Zr  Zr20  1  0.90110085  0.49955475  0.30175779  1
  Zr  Zr21  1  0.09664776  0.70792927  0.50046157  1
  Zr  Zr22  1  0.30806347  0.50422339  0.69317320  1
  Zr  Zr23  1  0.70242885  0.30103836  0.29999022  1
  Zr  Zr24  1  0.09840158  0.29661330  0.09897828  1
  Zr  Zr25  1  0.30791071  0.30115448  0.09777227  1
  Zr  Zr26  1  0.70038899  0.30261840  0.49829874  1
  Zr  Zr27  1  0.69862321  0.31192050  0.89702590  1
  Zr  Zr28  1  0.49106296  0.10390183  0.29779003  1
  Zr  Zr29  1  0.70380655  0.69836867  0.89847479  1
  Zr  Zr30  1  0.49535915  0.90096288  0.08787604  1
  Zr  Zr31  1  0.10241580  0.70089003  0.69846838  1
  Zr  Zr32  1  0.69270878  0.50542944  0.50490473  1
  Zr  Zr33  1  0.29903982  0.30638287  0.49631944  1
  Zr  Zr34  1  0.30838995  0.10288669  0.69422560  1
  Zr  Zr35  1  0.70433081  0.89752783  0.70321213  1
  Zr  Zr36  1  0.89860597  0.09512115  0.10803161  1
  Zr  Zr37  1  0.69803332  0.50779421  0.70522996  1
  Zr  Zr38  1  0.70267711  0.29315229  0.70673955  1
  Zr  Zr39  1  0.51066846  0.50076411  0.10587616  1
  Zr  Zr40  1  0.29748940  0.89834502  0.49988132  1
  Zr  Zr41  1  0.10418778  0.09640078  0.50050816  1
  Zr  Zr42  1  0.30843565  0.10003866  0.10033044  1
  Zr  Zr43  1  0.50557515  0.70745377  0.90419920  1
  Zr  Zr44  1  0.68715447  0.50196344  0.29709054  1
  Zr  Zr45  1  0.89713992  0.30343044  0.89534390  1
  Zr  Zr46  1  0.11008997  0.30232394  0.89138792  1
  Zr  Zr47  1  0.69965914  0.09507667  0.10020184  1
  Zr  Zr48  1  0.49882250  0.30787508  0.50472422  1
  Zr  Zr49  1  0.29684528  0.49758926  0.90335268  1
  Sc  Sc50  1  0.49281512  0.30919436  0.29698956  1
  Sc  Sc51  1  0.30901129  0.70307729  0.30199820  1
  Sc  Sc52  1  0.29230852  0.69394452  0.49916226  1
  Sc  Sc53  1  0.09400843  0.10166866  0.10063192  1
  Sc  Sc54  1  0.69642656  0.09646341  0.90207519  1
  Sc  Sc55  1  0.69690423  0.69755549  0.08873308  1
  Sc  Sc56  1  0.10551184  0.50311970  0.09229594  1
  Sc  Sc57  1  0.69614802  0.70197464  0.30750418  1
  Sc  Sc58  1  0.90388081  0.49563341  0.70668254  1
  Sc  Sc59  1  0.10632957  0.10153217  0.90127300  1
  Sc  Sc60  1  0.50560948  0.70990560  0.49884890  1
  Sc  Sc61  1  0.90125291  0.90119795  0.29974372  1
  Sc  Sc62  1  0.10733131  0.89554344  0.69114470  1
  Sc  Sc63  1  0.90054175  0.89378479  0.50243644  1
  Sc  Sc64  1  0.70603711  0.69654344  0.50350544  1
  Sc  Sc65  1  0.49673601  0.10285208  0.51513195  1
  Sc  Sc66  1  0.10245262  0.29823414  0.50406697  1
  Sc  Sc67  1  0.88186162  0.89891951  0.89188171  1
  Sc  Sc68  1  0.29998531  0.69998389  0.89549673  1
  Sc  Sc69  1  0.12062341  0.10684274  0.69924167  1
  Sc  Sc70  1  0.10069137  0.90121566  0.50086868  1
  Sc  Sc71  1  0.09373098  0.29696474  0.30302507  1
  Sc  Sc72  1  0.10100616  0.89977690  0.30495866  1
  Sc  Sc73  1  0.10352942  0.69295366  0.09236560  1
  Sc  Sc74  1  0.49718524  0.49758706  0.89116985  1
  Sc  Sc75  1  0.08948333  0.09649493  0.30622003  1
  Sc  Sc76  1  0.09336241  0.50064172  0.30166115  1
  Sc  Sc77  1  0.88990826  0.89673566  0.69789497  1
  Sc  Sc78  1  0.69358387  0.89297816  0.90067867  1
  Sc  Sc79  1  0.11369359  0.89807443  0.09778492  1
  Sc  Sc80  1  0.11355410  0.49523351  0.50188549  1
  Sc  Sc81  1  0.50152725  0.30453744  0.90200965  1
  Sc  Sc82  1  0.29922653  0.09683915  0.89770888  1
  Sc  Sc83  1  0.49751566  0.10043443  0.90385607  1
  Sc  Sc84  1  0.90020200  0.29468393  0.30616169  1
  Sc  Sc85  1  0.90062589  0.50564004  0.89422628  1
  Sc  Sc86  1  0.70150034  0.88808210  0.29982667  1
  Sc  Sc87  1  0.90311293  0.28941528  0.09587722  1
  Sc  Sc88  1  0.69362757  0.30992101  0.09000685  1
  Sc  Sc89  1  0.30669430  0.49903978  0.09916410  1
  Sc  Sc90  1  0.90729096  0.50319144  0.09378247  1
  Sc  Sc91  1  0.89139185  0.89752955  0.10390716  1
  Sc  Sc92  1  0.50536553  0.69794874  0.10455645  1
  Sc  Sc93  1  0.10780949  0.30696861  0.69805767  1
  Sc  Sc94  1  0.49710645  0.10173183  0.09179276  1
  Sc  Sc95  1  0.89301170  0.69983868  0.70056296  1
  Sc  Sc96  1  0.69938156  0.89498710  0.09484911  1
  Sc  Sc97  1  0.89367690  0.10519685  0.91007891  1
  Sc  Sc98  1  0.89540675  0.69504349  0.09156243  1
  Sc  Sc99  1  0.69883786  0.88901987  0.50295432  1
  Nb  Nb100  1  0.30128161  0.70360094  0.09779487  1
  Nb  Nb101  1  0.69596806  0.69927703  0.69802900  1
  Nb  Nb102  1  0.49900427  0.30384413  0.09704443  1
  Nb  Nb103  1  0.49790407  0.90302494  0.49799058  1
  Nb  Nb104  1  0.10168019  0.69537714  0.29880083  1
  Nb  Nb105  1  0.70074323  0.50068553  0.91046044  1
  Nb  Nb106  1  0.50407642  0.09690779  0.70111562  1
  Nb  Nb107  1  0.30359785  0.49536985  0.49978677  1
  Nb  Nb108  1  0.89295610  0.09748129  0.30257189  1
  Nb  Nb109  1  0.30014652  0.29176086  0.29620400  1
  Nb  Nb110  1  0.89740966  0.30027412  0.70332817  1
  Nb  Nb111  1  0.90261929  0.70205352  0.90178661  1
  Nb  Nb112  1  0.70086725  0.09434710  0.69791303  1
  Nb  Nb113  1  0.10172014  0.49574320  0.90040542  1
  Nb  Nb114  1  0.69924038  0.50367793  0.09791386  1
  Nb  Nb115  1  0.29469838  0.29804115  0.70338109  1
  Nb  Nb116  1  0.50037326  0.70055898  0.29909876  1
  Nb  Nb117  1  0.49811634  0.90141705  0.69511159  1
  Nb  Nb118  1  0.29431657  0.10187979  0.49669808  1
  Nb  Nb119  1  0.29928357  0.89971429  0.09629599  1
  Nb  Nb120  1  0.30056973  0.70081403  0.69850694  1
  Nb  Nb121  1  0.88114567  0.09687910  0.69745974  1
  Nb  Nb122  1  0.50219321  0.89846794  0.89487518  1
  Nb  Nb123  1  0.69815086  0.10241736  0.29946786  1
  Nb  Nb124  1  0.30211614  0.10865499  0.29947458  1
  Nb  Nb125  1  0.39816348  0.00414702  0.40373416  1
  Nb  Nb126  1  0.00193473  0.60044608  0.60084387  1
  Nb  Nb127  1  0.79902646  0.40661955  0.19651964  1
  Nb  Nb128  1  0.00460494  0.79232497  0.19686795  1
  Nb  Nb129  1  -0.00611992  0.19411281  0.78976139  1
  Nb  Nb130  1  0.00673422  0.39839399  -0.00925642  1
  Nb  Nb131  1  0.59848382  0.19992759  0.19999545  1
  Nb  Nb132  1  0.20401544  0.60094614  0.20371153  1
  Nb  Nb133  1  0.79863335  0.39873332  0.60450143  1
  Nb  Nb134  1  0.79576684  0.59313321  0.19941924  1
  Nb  Nb135  1  -0.00357654  0.00961269  0.61051983  1
  Nb  Nb136  1  0.79294612  0.00476374  0.39747681  1
  Nb  Nb137  1  -0.00053784  0.80310774  -0.00580495  1
  Nb  Nb138  1  0.59743107  0.00251404  0.40086955  1
  Nb  Nb139  1  0.21084914  0.00279257  0.20256423  1
  Nb  Nb140  1  0.59259236  -0.00182661  0.79042836  1
  Nb  Nb141  1  0.59951208  0.19586295  0.39804195  1
  Nb  Nb142  1  -0.00442090  0.00411396  0.79510088  1
  Nb  Nb143  1  -0.00172053  -0.00847485  -0.00589677  1
  Nb  Nb144  1  0.20406887  0.39874257  0.20439304  1
  Nb  Nb145  1  -0.00625997  0.19565238  0.60989109  1
  Nb  Nb146  1  0.59804290  0.00222389  0.20585417  1
  Nb  Nb147  1  0.00008210  0.80280474  0.80634330  1
  Nb  Nb148  1  0.20500871  0.20521185  0.00194379  1
  Nb  Nb149  1  0.40222412  0.60323126  0.00144294  1
  Pd  Pd150  1  0.19653984  0.39600755  0.39186931  1
  Pd  Pd151  1  0.19529234  0.19710173  0.19910807  1
  Pd  Pd152  1  0.40361979  0.61224485  0.59231568  1
  Pd  Pd153  1  0.20090628  0.79554121  0.39678503  1
  Pd  Pd154  1  -0.00450661  0.40032112  0.59844056  1
  Pd  Pd155  1  0.19530836  0.78968231  -0.00664791  1
  Pd  Pd156  1  0.20909690  0.59576304  0.79616101  1
  Pd  Pd157  1  0.40315282  0.61163981  0.40937882  1
  Pd  Pd158  1  0.19474211  0.20211176  0.39847159  1
  Pd  Pd159  1  0.19612359  0.79606445  0.19994496  1
  Pd  Pd160  1  0.40119274  0.19777741  0.80506966  1
  Pd  Pd161  1  0.79085836  0.20397796  0.00389572  1
  Pd  Pd162  1  0.19800978  0.79825418  0.80398540  1
  Pd  Pd163  1  -0.00119192  0.80522697  0.39390976  1
  Pd  Pd164  1  0.59882583  0.19099809  0.80518742  1
  Pd  Pd165  1  0.59810416  0.59838322  0.80697246  1
  Pd  Pd166  1  0.40417783  0.00013902  0.80418609  1
  Pd  Pd167  1  0.59975410  0.20285281  0.00212957  1
  Pd  Pd168  1  0.00948332  -0.01213975  0.19213047  1
  Pd  Pd169  1  0.39708323  0.79331280  0.59454754  1
  Pd  Pd170  1  0.01015933  0.59435624  0.41257040  1
  Pd  Pd171  1  0.60587711  0.39858383  0.61122283  1
  Pd  Pd172  1  0.59044322  0.39933121  0.39468297  1
  Pd  Pd173  1  -0.00401167  0.19747721  0.20926394  1
  Pd  Pd174  1  0.60360635  -0.00622107  0.59978789  1
  Pd  Pd175  1  0.80277279  0.60108920  0.80094622  1
  Pd  Pd176  1  0.80188354  -0.00557019  -0.00191901  1
  Pd  Pd177  1  0.19591252  0.59805294  0.59837625  1
  Pd  Pd178  1  0.80670899  0.78562061  0.19970651  1
  Pd  Pd179  1  0.39477782  -0.00021911  0.59479955  1
  Pd  Pd180  1  0.39841446  0.79965725  0.80203204  1
  Pd  Pd181  1  0.39557011  0.20723232  0.59830831  1
  Pd  Pd182  1  0.60000391  0.79812104  0.60322475  1
  Pd  Pd183  1  0.59587496  0.60671475  0.40652507  1
  Pd  Pd184  1  0.59817410  0.20412336  0.60092982  1
  Pd  Pd185  1  0.81186435  0.40505390  0.00544801  1
  Pd  Pd186  1  0.79753191  0.40806919  0.39962930  1
  Pd  Pd187  1  0.79844964  0.19231826  0.80786462  1
  Pd  Pd188  1  0.40553679  0.19994409  0.40905306  1
  Pd  Pd189  1  0.79075557  -0.00770395  0.20761102  1
  Pd  Pd190  1  0.00555522  0.40020522  0.40813887  1
  Pd  Pd191  1  0.40391917  0.79569655  0.19157611  1
  Pd  Pd192  1  0.60134373  0.80150398  0.19383535  1
  Pd  Pd193  1  0.40232509  -0.00389447  0.20226368  1
  Pd  Pd194  1  0.39470299  0.40360064  0.20405629  1
  Pd  Pd195  1  0.00142188  0.60478548  0.19257970  1
  Pd  Pd196  1  -0.00150929  0.39828728  0.19080498  1
  Pd  Pd197  1  0.20655297  0.00151056  0.39033497  1
  Pd  Pd198  1  0.79511966  0.20900792  0.19378308  1
  Pd  Pd199  1  0.20260746  -0.00071063  0.79227939  1
  Rh  Rh200  1  0.80153577  -0.00936803  0.58982806  1
  Rh  Rh201  1  0.59360201  0.60720880  0.59909458  1
  Rh  Rh202  1  0.59698296  -0.00497248  -0.00428489  1
  Rh  Rh203  1  0.39830556  0.60429090  0.80545577  1
  Rh  Rh204  1  0.59441502  0.40719639  -0.00486401  1
  Rh  Rh205  1  0.21301369  0.59972596  0.00702958  1
  Rh  Rh206  1  0.79071806  0.59567798  0.39201938  1
  Rh  Rh207  1  0.20604609  0.19947411  0.80438803  1
  Rh  Rh208  1  0.41308962  0.41053730  0.00235355  1
  Rh  Rh209  1  0.20874596  0.40029850  0.60374787  1
  Rh  Rh210  1  0.00089740  0.19730678  0.40428525  1
  Rh  Rh211  1  0.79369055  0.40898888  0.79569459  1
  Rh  Rh212  1  0.60921767  0.61357255  0.20056773  1
  Rh  Rh213  1  0.80210219  0.80514213  0.40146860  1
  Rh  Rh214  1  0.80515013  0.59444094  0.60820208  1
  Rh  Rh215  1  0.59981080  0.80234365  0.00203199  1
  Rh  Rh216  1  0.39735405  0.20229466  -0.00446610  1
  Rh  Rh217  1  0.79647698  0.79541725  0.60279709  1
  Rh  Rh218  1  0.60192909  0.80010199  0.40324870  1
  Rh  Rh219  1  0.79829826  0.79062320  0.79992731  1
  Rh  Rh220  1  0.21101565  0.40862330  0.79173533  1
  Rh  Rh221  1  -0.00345052  0.59536968  -0.00562827  1
  Rh  Rh222  1  0.79561809  0.19327825  0.39895308  1
  Rh  Rh223  1  0.40100192  0.00123878  -0.00643640  1
  Rh  Rh224  1  0.20196084  -0.00103970  0.60199110  1
  Rh  Rh225  1  -0.01040302  -0.00484820  0.40809479  1
  Rh  Rh226  1  0.19392610  0.39449238  0.00980749  1
  Rh  Rh227  1  0.40895479  0.20766713  0.19457115  1
  Rh  Rh228  1  0.59961026  0.80593742  0.79317483  1
  Rh  Rh229  1  0.39994446  0.39920997  0.39419307  1
  Rh  Rh230  1  0.40078430  0.79373609  0.00168798  1
  Rh  Rh231  1  0.60218009  0.40603818  0.79933189  1
  Rh  Rh232  1  0.80115666  0.59755380  -0.00034316  1
  Rh  Rh233  1  0.19753978  0.01320630  0.01438927  1
  Rh  Rh234  1  0.39773409  0.40126147  0.79355121  1
  Rh  Rh235  1  0.20248367  0.20505581  0.59558881  1
  Rh  Rh236  1  0.80256011  0.21001889  0.60255383  1
  Rh  Rh237  1  0.00179796  0.39164860  0.80509278  1
  Rh  Rh238  1  -0.00373137  0.60699067  0.79278175  1
  Rh  Rh239  1  0.59291855  0.59463887  -0.00664243  1
  Rh  Rh240  1  0.60522436  0.39049853  0.19662496  1
  Rh  Rh241  1  0.79149540  0.00500886  0.80474442  1
  Rh  Rh242  1  0.19778518  0.60192246  0.39698365  1
  Rh  Rh243  1  0.39871676  0.79917614  0.40712862  1
  Rh  Rh244  1  -0.00190614  0.79932427  0.61060008  1
  Rh  Rh245  1  0.39401543  0.60726908  0.19363334  1
  Rh  Rh246  1  0.80211706  0.79716508  -0.00225889  1
  Rh  Rh247  1  0.20861389  0.79955600  0.59945110  1
  Rh  Rh248  1  0.39436912  0.39267021  0.60709385  1
  Rh  Rh249  1  0.01065197  0.20324677  -0.01648004  1
