# generated using pymatgen
data_ZrScNbPdRh
_symmetry_space_group_name_H-M   'P 1'
_cell_length_a   16.55613084
_cell_length_b   16.56099106
_cell_length_c   16.56017789
_cell_angle_alpha   89.97520892
_cell_angle_beta   89.95603401
_cell_angle_gamma   90.02388295
_symmetry_Int_Tables_number   1
_chemical_formula_structural   ZrScNbPdRh
_chemical_formula_sum   'Zr50 Sc50 Nb50 Pd50 Rh50'
_cell_volume   4540.56570042
_cell_formula_units_Z   50
loop_
 _symmetry_equiv_pos_site_id
 _symmetry_equiv_pos_as_xyz
  1  'x, y, z'
loop_
 _atom_site_type_symbol
 _atom_site_label
 _atom_site_symmetry_multiplicity
 _atom_site_fract_x
 _atom_site_fract_y
 _atom_site_fract_z
 _atom_site_occupancy
  Zr  Zr0  1  0.29425875  0.30200772  0.70402312  1
  Zr  Zr1  1  0.31058927  0.89971727  0.51228962  1
  Zr  Zr2  1  0.70620927  0.89121771  0.69012032  1
  Zr  Zr3  1  0.70309338  0.10074812  0.30275756  1
  Zr  Zr4  1  0.10415147  0.89727073  0.30681879  1
  Zr  Zr5  1  0.69950917  0.70072715  0.29868355  1
  Zr  Zr6  1  0.68941644  0.90038340  0.09775757  1
  Zr  Zr7  1  0.10149872  0.50493009  0.30597219  1
  Zr  Zr8  1  0.49744893  0.29998015  0.90291021  1
  Zr  Zr9  1  0.50246653  0.29569748  0.51027883  1
  Zr  Zr10  1  0.29423212  0.89261991  0.90384074  1
  Zr  Zr11  1  0.89284122  0.09940094  0.10021661  1
  Zr  Zr12  1  0.89606791  0.29003271  0.89443298  1
  Zr  Zr13  1  0.29696707  0.69534042  0.29525925  1
  Zr  Zr14  1  0.50253428  0.69654743  0.90442636  1
  Zr  Zr15  1  0.49691735  0.49599230  0.69792732  1
  Zr  Zr16  1  0.50006625  0.69605036  0.30254047  1
  Zr  Zr17  1  0.49330093  0.50166522  0.90331024  1
  Zr  Zr18  1  0.08956913  0.69457876  0.69323270  1
  Zr  Zr19  1  0.29416065  0.29870398  0.09731134  1
  Zr  Zr20  1  0.69859944  0.51114357  0.29402290  1
  Zr  Zr21  1  0.90494873  0.70067045  0.30222333  1
  Zr  Zr22  1  0.49551902  0.89939822  0.68421169  1
  Zr  Zr23  1  0.90615112  0.10740933  0.70538439  1
  Zr  Zr24  1  0.70448861  0.70221866  0.51106760  1
  Zr  Zr25  1  0.28907796  0.49374821  0.49556816  1
  Zr  Zr26  1  0.70760161  0.90053324  0.29398467  1
  Zr  Zr27  1  0.90874045  0.50240006  0.10422603  1
  Zr  Zr28  1  0.29861650  0.30271397  0.90332125  1
  Zr  Zr29  1  0.09693204  0.29617145  0.69763451  1
  Zr  Zr30  1  0.69025323  0.29639215  0.09921015  1
  Zr  Zr31  1  0.28891583  0.09844156  0.10387163  1
  Zr  Zr32  1  0.89115239  0.10766258  0.49612018  1
  Zr  Zr33  1  0.29660356  0.49962914  0.29819580  1
  Zr  Zr34  1  0.50168290  0.50051939  0.49875643  1
  Zr  Zr35  1  0.29679051  0.70953918  0.09998050  1
  Zr  Zr36  1  0.29693799  0.49308257  0.89960883  1
  Zr  Zr37  1  0.70035893  0.91148980  0.49734809  1
  Zr  Zr38  1  0.89870504  0.09615140  0.90058672  1
  Zr  Zr39  1  0.30065987  0.11005495  0.89938809  1
  Zr  Zr40  1  0.50152394  0.09385909  0.10362415  1
  Zr  Zr41  1  0.50256463  0.29670391  0.70044338  1
  Zr  Zr42  1  0.29021789  0.10307304  0.30252062  1
  Zr  Zr43  1  0.49817892  0.50288207  0.29241736  1
  Zr  Zr44  1  0.70107557  0.29582726  0.70306604  1
  Zr  Zr45  1  0.50215371  0.11020146  0.69961501  1
  Zr  Zr46  1  0.30061872  0.09482913  0.49236123  1
  Zr  Zr47  1  0.89567163  0.89436040  0.90826131  1
  Zr  Zr48  1  0.29383610  0.49954810  0.70164914  1
  Zr  Zr49  1  0.09877828  0.09450879  0.69863276  1
  Sc  Sc50  1  0.10135686  0.89579727  0.50797412  1
  Sc  Sc51  1  0.70647762  0.51701129  0.69602953  1
  Sc  Sc52  1  0.90309408  0.70059602  0.09943648  1
  Sc  Sc53  1  0.90216507  0.50400896  0.30812589  1
  Sc  Sc54  1  0.09340243  0.69942613  0.90777541  1
  Sc  Sc55  1  0.49856074  0.70798930  0.10045918  1
  Sc  Sc56  1  0.10257628  0.10033934  0.89086320  1
  Sc  Sc57  1  0.10216289  0.29581900  0.30389145  1
  Sc  Sc58  1  0.10990570  0.30308073  0.90089283  1
  Sc  Sc59  1  0.30293380  0.69353952  0.89896347  1
  Sc  Sc60  1  0.09650885  0.49824367  0.49983895  1
  Sc  Sc61  1  0.29116062  0.10240160  0.69621631  1
  Sc  Sc62  1  0.90386750  0.69460403  0.89770644  1
  Sc  Sc63  1  0.09317031  0.69998333  0.49407114  1
  Sc  Sc64  1  0.10239093  0.30064463  0.10308131  1
  Sc  Sc65  1  0.69566056  0.29182360  0.90354559  1
  Sc  Sc66  1  0.90420342  0.90067052  0.50056802  1
  Sc  Sc67  1  0.50200220  0.11063558  0.89741807  1
  Sc  Sc68  1  0.29554071  0.90258652  0.30005795  1
  Sc  Sc69  1  0.09422846  0.50008039  0.90498890  1
  Sc  Sc70  1  0.11189867  0.10383190  0.49724427  1
  Sc  Sc71  1  0.30479395  0.49404391  0.10466497  1
  Sc  Sc72  1  0.28929816  0.29321207  0.50019557  1
  Sc  Sc73  1  0.70966517  0.30256589  0.50897443  1
  Sc  Sc74  1  0.69830134  0.69758422  0.11100122  1
  Sc  Sc75  1  0.50209377  0.90160113  0.28742699  1
  Sc  Sc76  1  0.09943010  0.50254825  0.69277341  1
  Sc  Sc77  1  0.09885600  0.69643286  0.10665544  1
  Sc  Sc78  1  0.90192439  0.30059644  0.30967486  1
  Sc  Sc79  1  0.71019973  0.50244788  0.49823544  1
  Sc  Sc80  1  0.50844110  0.70092976  0.68996037  1
  Sc  Sc81  1  0.50059815  0.30107627  0.10303220  1
  Sc  Sc82  1  0.09782867  0.49748048  0.10605209  1
  Sc  Sc83  1  0.70461990  0.10727820  0.90888895  1
  Sc  Sc84  1  0.48819384  0.10177058  0.30075220  1
  Sc  Sc85  1  0.88024947  0.89777836  0.10229477  1
  Sc  Sc86  1  0.70629434  0.69877401  0.89206310  1
  Sc  Sc87  1  0.30448096  0.70404115  0.48978579  1
  Sc  Sc88  1  0.29081696  0.69899864  0.70080048  1
  Sc  Sc89  1  0.10295237  0.69806736  0.30450741  1
  Sc  Sc90  1  0.70321522  0.10532126  0.69135434  1
  Sc  Sc91  1  0.09785880  0.30801253  0.49965755  1
  Sc  Sc92  1  0.10271985  0.89830139  0.89758148  1
  Sc  Sc93  1  0.12151296  0.89507065  0.09739044  1
  Sc  Sc94  1  0.90555931  0.30040175  0.10607242  1
  Sc  Sc95  1  0.68355318  0.50716568  0.90604167  1
  Sc  Sc96  1  0.89855853  0.29405022  0.69010832  1
  Sc  Sc97  1  0.89319873  0.10648923  0.29918051  1
  Sc  Sc98  1  0.90736837  0.90410122  0.68943136  1
  Sc  Sc99  1  0.70012981  0.10161897  0.10090404  1
  Nb  Nb100  1  0.90438369  0.51326955  0.70679426  1
  Nb  Nb101  1  0.29542045  0.89642812  0.70292278  1
  Nb  Nb102  1  0.50198171  0.89432944  0.50307991  1
  Nb  Nb103  1  0.71449226  0.70272793  0.69728098  1
  Nb  Nb104  1  0.30672567  0.29931491  0.29962018  1
  Nb  Nb105  1  0.89282601  0.69326141  0.69772355  1
  Nb  Nb106  1  0.49708592  0.89734949  0.09015065  1
  Nb  Nb107  1  0.50410613  0.89687760  0.90080143  1
  Nb  Nb108  1  0.69859907  0.49965906  0.09973964  1
  Nb  Nb109  1  0.50195265  0.29758291  0.30165981  1
  Nb  Nb110  1  0.10680032  0.89584305  0.69896167  1
  Nb  Nb111  1  0.50483278  0.09246749  0.50146999  1
  Nb  Nb112  1  0.51446601  0.50145072  0.08803182  1
  Nb  Nb113  1  0.90545464  0.49077493  0.50425705  1
  Nb  Nb114  1  0.69729387  0.09988649  0.49045643  1
  Nb  Nb115  1  0.49612938  0.70922653  0.49969440  1
  Nb  Nb116  1  0.30500842  0.89582281  0.09530851  1
  Nb  Nb117  1  0.89998024  0.90367667  0.30008358  1
  Nb  Nb118  1  0.68917979  0.29952590  0.29509297  1
  Nb  Nb119  1  0.10647466  0.09300194  0.29727859  1
  Nb  Nb120  1  0.90413811  0.31240488  0.50134652  1
  Nb  Nb121  1  0.90686933  0.70023335  0.50334938  1
  Nb  Nb122  1  0.69981373  0.90155934  0.89875231  1
  Nb  Nb123  1  0.10079628  0.10130880  0.10707920  1
  Nb  Nb124  1  0.90023380  0.50114422  0.90190112  1
  Nb  Nb125  1  -0.00001241  0.79887494  0.78944126  1
  Nb  Nb126  1  0.80017750  0.40988762  0.80574428  1
  Nb  Nb127  1  0.80073369  0.80035707  0.40088632  1
  Nb  Nb128  1  -0.01000103  0.40371690  0.79782427  1
  Nb  Nb129  1  0.00284255  0.19146791  0.00280276  1
  Nb  Nb130  1  0.40221254  -0.00650149  0.80164122  1
  Nb  Nb131  1  0.00249323  0.00344870  0.39257126  1
  Nb  Nb132  1  0.59872338  0.39515072  0.39485573  1
  Nb  Nb133  1  0.79225856  0.40352754  0.19869816  1
  Nb  Nb134  1  0.00346032  -0.00147538  0.19951347  1
  Nb  Nb135  1  -0.00060512  0.81121857  0.20399536  1
  Nb  Nb136  1  0.59991609  0.80263069  0.40646284  1
  Nb  Nb137  1  0.60221219  0.80562016  0.79727520  1
  Nb  Nb138  1  0.59936128  0.20038735  0.40266774  1
  Nb  Nb139  1  0.00370190  0.00159962  0.00993887  1
  Nb  Nb140  1  0.79515455  -0.00469372  0.80112035  1
  Nb  Nb141  1  0.40368003  0.39241409  0.39500386  1
  Nb  Nb142  1  0.40484263  0.80663787  0.79810291  1
  Nb  Nb143  1  0.40064139  -0.00739004  -0.00224437  1
  Nb  Nb144  1  0.79891811  0.40432050  0.00115586  1
  Nb  Nb145  1  0.20218127  0.59691559  0.00397733  1
  Nb  Nb146  1  0.60192220  0.40159836  0.79731398  1
  Nb  Nb147  1  0.80057618  0.59062989  0.00300690  1
  Nb  Nb148  1  0.60198685  -0.00665429  0.79989808  1
  Nb  Nb149  1  0.39966759  0.59850243  0.59430895  1
  Pd  Pd150  1  0.38947980  0.40105255  0.59226120  1
  Pd  Pd151  1  0.40253456  0.19482893  0.00963427  1
  Pd  Pd152  1  0.79958345  0.21032427  0.19968983  1
  Pd  Pd153  1  -0.00419061  0.39864900  0.21222763  1
  Pd  Pd154  1  0.00140951  0.19578175  0.20221675  1
  Pd  Pd155  1  0.79333052  0.21470297  0.40234799  1
  Pd  Pd156  1  0.39120541  -0.00406959  0.19515735  1
  Pd  Pd157  1  0.60970362  0.79130423  -0.00423909  1
  Pd  Pd158  1  -0.00517953  -0.01300978  0.80637610  1
  Pd  Pd159  1  0.20421750  0.60751548  0.58884386  1
  Pd  Pd160  1  0.20165232  0.79129553  0.59423848  1
  Pd  Pd161  1  0.60288021  0.00616995  0.60518662  1
  Pd  Pd162  1  0.40392853  0.20326636  0.40689042  1
  Pd  Pd163  1  0.59798383  0.60099189  0.59643463  1
  Pd  Pd164  1  0.39995475  0.80348751  0.20445088  1
  Pd  Pd165  1  0.61349996  0.40609111  0.60163732  1
  Pd  Pd166  1  0.00574825  0.00733852  0.58732025  1
  Pd  Pd167  1  0.80511355  0.40847309  0.61301400  1
  Pd  Pd168  1  0.00398699  0.19744443  0.58683295  1
  Pd  Pd169  1  0.79030947  0.78601592  0.00387473  1
  Pd  Pd170  1  0.20406405  0.80230772  0.40704524  1
  Pd  Pd171  1  0.79241926  0.39642208  0.39104073  1
  Pd  Pd172  1  0.60230377  0.00403153  0.20479269  1
  Pd  Pd173  1  0.80382691  0.00726544  0.60331513  1
  Pd  Pd174  1  0.20591223  0.00109789  0.79858785  1
  Pd  Pd175  1  0.40304271  0.61109567  0.78773942  1
  Pd  Pd176  1  -0.00266144  0.38818437  -0.00627978  1
  Pd  Pd177  1  0.39299442  0.59837361  0.00907076  1
  Pd  Pd178  1  0.59681066  0.00829213  -0.00813629  1
  Pd  Pd179  1  0.59869163  0.40399217  0.20035989  1
  Pd  Pd180  1  0.18779892  0.60024849  0.80936248  1
  Pd  Pd181  1  0.40386545  0.60048639  0.18729670  1
  Pd  Pd182  1  0.19847603  0.00551823  -0.00393267  1
  Pd  Pd183  1  0.60246370  0.60287317  0.40827864  1
  Pd  Pd184  1  0.40321972  0.39577090  0.80037741  1
  Pd  Pd185  1  0.39564983  0.01143482  0.60675687  1
  Pd  Pd186  1  0.39865565  0.20067888  0.19467001  1
  Pd  Pd187  1  0.39568461  0.59343558  0.40514040  1
  Pd  Pd188  1  0.80812609  0.80417868  0.79680532  1
  Pd  Pd189  1  0.40534147  0.39797152  0.19709124  1
  Pd  Pd190  1  0.00598222  0.19506834  0.40313039  1
  Pd  Pd191  1  0.00534960  0.80925885  0.00927530  1
  Pd  Pd192  1  0.19651037  0.39596431  0.20427788  1
  Pd  Pd193  1  0.19336148  0.78979796  0.80408011  1
  Pd  Pd194  1  0.80836929  0.60536601  0.40703396  1
  Pd  Pd195  1  0.58869734  -0.00099902  0.39142495  1
  Pd  Pd196  1  0.40508361  0.81036182  0.38994168  1
  Pd  Pd197  1  0.39064845  0.19476544  0.59839509  1
  Pd  Pd198  1  0.60103885  0.60390331  0.79237157  1
  Pd  Pd199  1  0.40599943  -0.00906885  0.39732241  1
  Rh  Rh200  1  0.80081998  0.19975529  0.59344886  1
  Rh  Rh201  1  0.19683374  -0.00749615  0.41005118  1
  Rh  Rh202  1  -0.00215475  0.79715138  0.60552173  1
  Rh  Rh203  1  0.19036298  0.19725721  0.00015869  1
  Rh  Rh204  1  0.80690831  0.21102222  0.01036978  1
  Rh  Rh205  1  0.40212337  0.40019354  0.00612205  1
  Rh  Rh206  1  0.81002653  -0.00365356  0.40249665  1
  Rh  Rh207  1  0.19978928  0.20691610  0.20551481  1
  Rh  Rh208  1  0.59229569  0.19521601  0.00544365  1
  Rh  Rh209  1  0.19987968  0.59914652  0.19456916  1
  Rh  Rh210  1  0.00182086  0.40028667  0.39831796  1
  Rh  Rh211  1  0.19533394  0.39789191  0.60266385  1
  Rh  Rh212  1  0.18670403  0.40554998  0.79510409  1
  Rh  Rh213  1  0.60653549  0.19937853  0.80285832  1
  Rh  Rh214  1  0.20142543  -0.00675587  0.19880380  1
  Rh  Rh215  1  0.80772711  0.59569715  0.19351781  1
  Rh  Rh216  1  0.81143504  0.59669444  0.59223862  1
  Rh  Rh217  1  0.00898509  0.20940685  0.80767395  1
  Rh  Rh218  1  0.19656974  0.20070014  0.59944109  1
  Rh  Rh219  1  0.60129922  0.39625767  -0.00747354  1
  Rh  Rh220  1  0.79771730  0.00329249  0.19728365  1
  Rh  Rh221  1  0.59037827  0.60314595  0.19131052  1
  Rh  Rh222  1  0.60737805  0.19289235  0.58953583  1
  Rh  Rh223  1  0.19789046  0.20130017  0.79777580  1
  Rh  Rh224  1  0.00267552  0.60270652  0.80240256  1
  Rh  Rh225  1  -0.00524102  0.59614795  0.59204552  1
  Rh  Rh226  1  0.79450715  0.19324951  0.79595664  1
  Rh  Rh227  1  0.60420042  0.79753567  0.59743410  1
  Rh  Rh228  1  0.19805531  0.60241180  0.40197798  1
  Rh  Rh229  1  0.60670474  0.61128181  0.00669733  1
  Rh  Rh230  1  0.19821647  0.78726587  -0.00449488  1
  Rh  Rh231  1  0.19797868  0.20506295  0.39648685  1
  Rh  Rh232  1  0.39920025  0.80120899  -0.00767317  1
  Rh  Rh233  1  0.59463200  0.80002026  0.20354373  1
  Rh  Rh234  1  0.59375908  0.18939733  0.20649072  1
  Rh  Rh235  1  0.00295912  0.60853052  0.20586452  1
  Rh  Rh236  1  0.39378507  0.19949989  0.79381253  1
  Rh  Rh237  1  -0.00758999  0.80714573  0.39733145  1
  Rh  Rh238  1  0.81208495  0.79964843  0.59187053  1
  Rh  Rh239  1  0.80654934  0.79359188  0.20538693  1
  Rh  Rh240  1  -0.00409874  0.40392497  0.60812085  1
  Rh  Rh241  1  0.79688655  -0.00257252  -0.00226793  1
  Rh  Rh242  1  0.00211031  0.59965810  0.00447636  1
  Rh  Rh243  1  0.20385740  0.39343783  0.39325270  1
  Rh  Rh244  1  -0.00081823  0.59466814  0.40569309  1
  Rh  Rh245  1  0.19746538  0.79989911  0.20416004  1
  Rh  Rh246  1  0.20079437  -0.00358957  0.59970595  1
  Rh  Rh247  1  0.19898381  0.40937559  0.00576229  1
  Rh  Rh248  1  0.39102317  0.78664929  0.60796314  1
  Rh  Rh249  1  0.79763045  0.59589756  0.80939896  1
