# generated using pymatgen
data_ZrScNbPdRh
_symmetry_space_group_name_H-M   'P 1'
_cell_length_a   16.55182798
_cell_length_b   16.55354571
_cell_length_c   16.55571829
_cell_angle_alpha   90.02469685
_cell_angle_beta   90.03464620
_cell_angle_gamma   89.99074111
_symmetry_Int_Tables_number   1
_chemical_formula_structural   ZrScNbPdRh
_chemical_formula_sum   'Zr50 Sc50 Nb50 Pd50 Rh50'
_cell_volume   4536.12380041
_cell_formula_units_Z   50
loop_
 _symmetry_equiv_pos_site_id
 _symmetry_equiv_pos_as_xyz
  1  'x, y, z'
loop_
 _atom_site_type_symbol
 _atom_site_label
 _atom_site_symmetry_multiplicity
 _atom_site_fract_x
 _atom_site_fract_y
 _atom_site_fract_z
 _atom_site_occupancy
  Zr  Zr0  1  0.30199700  0.10669372  0.30309201  1
  Zr  Zr1  1  0.69690675  0.70383395  0.10269665  1
  Zr  Zr2  1  0.69888564  0.29703941  0.49857370  1
  Zr  Zr3  1  0.08841563  0.89635485  0.30138315  1
  Zr  Zr4  1  0.89456396  0.29903822  0.30447769  1
  Zr  Zr5  1  0.50298829  0.90580718  0.09826047  1
  Zr  Zr6  1  0.50265217  0.69732892  0.09800188  1
  Zr  Zr7  1  0.49676243  0.69597593  0.90134427  1
  Zr  Zr8  1  0.90387701  0.89462373  0.70341748  1
  Zr  Zr9  1  0.90125055  0.69973255  0.89104726  1
  Zr  Zr10  1  0.89256954  0.90744903  0.10618961  1
  Zr  Zr11  1  0.71275068  0.69331938  0.69658416  1
  Zr  Zr12  1  0.30742723  0.90503573  0.70008949  1
  Zr  Zr13  1  0.30097622  0.69779417  0.29592713  1
  Zr  Zr14  1  0.09187151  0.09251162  0.31501681  1
  Zr  Zr15  1  0.89396717  0.70145011  0.50846978  1
  Zr  Zr16  1  0.70394043  0.29980522  0.10253929  1
  Zr  Zr17  1  0.10567717  0.10078751  0.90558762  1
  Zr  Zr18  1  0.28678661  0.10166172  0.50113992  1
  Zr  Zr19  1  0.09598684  0.70018598  0.70646142  1
  Zr  Zr20  1  0.50629265  0.50052190  0.68949119  1
  Zr  Zr21  1  0.09906105  0.10115122  0.10171397  1
  Zr  Zr22  1  0.11176353  0.50342012  0.69887547  1
  Zr  Zr23  1  0.09743127  0.69368924  0.10470670  1
  Zr  Zr24  1  0.69660167  0.10415119  0.69064968  1
  Zr  Zr25  1  0.69345965  0.90426766  0.48929077  1
  Zr  Zr26  1  0.69247823  0.70523234  0.30257086  1
  Zr  Zr27  1  0.29991078  0.90169647  0.90214817  1
  Zr  Zr28  1  0.90747308  0.10389048  0.89526017  1
  Zr  Zr29  1  0.09320103  0.30350378  0.29449934  1
  Zr  Zr30  1  0.10466456  0.29156714  0.50157818  1
  Zr  Zr31  1  0.30257546  0.70745325  0.10695489  1
  Zr  Zr32  1  0.30624336  0.49634692  0.50880284  1
  Zr  Zr33  1  0.69946949  0.90402649  0.09963272  1
  Zr  Zr34  1  0.30319302  0.70447895  0.89807515  1
  Zr  Zr35  1  0.10113348  0.69733475  0.29350911  1
  Zr  Zr36  1  0.30165701  0.89882189  0.29759501  1
  Zr  Zr37  1  0.50385894  0.30439342  0.10620625  1
  Zr  Zr38  1  0.30056851  0.50133918  0.89879703  1
  Zr  Zr39  1  0.50449185  0.09527073  0.69907495  1
  Zr  Zr40  1  0.10196742  0.30069326  0.09206352  1
  Zr  Zr41  1  0.29844773  0.30259507  0.90497451  1
  Zr  Zr42  1  0.49887960  0.69759021  0.69691095  1
  Zr  Zr43  1  0.89768508  0.50271583  0.69517614  1
  Zr  Zr44  1  0.69540516  0.29937170  0.69619288  1
  Zr  Zr45  1  0.29655187  0.30198102  0.10484819  1
  Zr  Zr46  1  0.70345492  0.69643815  0.90120860  1
  Zr  Zr47  1  0.30236371  0.29972921  0.49503851  1
  Zr  Zr48  1  0.69921384  0.49661802  0.69383343  1
  Zr  Zr49  1  0.29744882  0.30169130  0.69566029  1
  Sc  Sc50  1  0.89007482  0.09203747  0.69942312  1
  Sc  Sc51  1  0.50173045  0.30746899  0.49484092  1
  Sc  Sc52  1  0.09529767  0.29159322  0.90274218  1
  Sc  Sc53  1  0.49708514  0.89763160  0.50195841  1
  Sc  Sc54  1  0.70336664  0.09210006  0.10464814  1
  Sc  Sc55  1  0.29294649  0.10430496  0.10135266  1
  Sc  Sc56  1  0.31005083  0.50094639  0.28921582  1
  Sc  Sc57  1  0.88968829  0.10049365  0.49761149  1
  Sc  Sc58  1  0.89877452  0.09926653  0.29728769  1
  Sc  Sc59  1  0.70489293  0.89866121  0.29861535  1
  Sc  Sc60  1  0.70203337  0.30885888  0.90121861  1
  Sc  Sc61  1  0.09748370  0.89980213  0.10890335  1
  Sc  Sc62  1  0.10836179  0.90683695  0.88514763  1
  Sc  Sc63  1  0.89613159  0.89565985  0.49536677  1
  Sc  Sc64  1  0.68132674  0.49715187  0.10044440  1
  Sc  Sc65  1  0.50950842  0.90407065  0.30347292  1
  Sc  Sc66  1  0.09429504  0.49884199  0.90592747  1
  Sc  Sc67  1  0.90133905  0.30128489  0.91018233  1
  Sc  Sc68  1  0.09805801  0.49975074  0.10444386  1
  Sc  Sc69  1  0.29334898  0.69317140  0.70565491  1
  Sc  Sc70  1  0.11077692  0.10111418  0.70913243  1
  Sc  Sc71  1  0.49905932  0.89975605  0.89812976  1
  Sc  Sc72  1  0.69883148  0.09869422  0.30461271  1
  Sc  Sc73  1  0.10562714  0.29902941  0.70217912  1
  Sc  Sc74  1  0.90148985  0.29775567  0.10004678  1
  Sc  Sc75  1  0.50257913  0.29519229  0.88942721  1
  Sc  Sc76  1  0.89547514  0.50193458  0.90618251  1
  Sc  Sc77  1  0.90755682  0.70637737  0.30728411  1
  Sc  Sc78  1  0.30391850  0.49197556  0.09674674  1
  Sc  Sc79  1  0.70083257  0.70910719  0.49894446  1
  Sc  Sc80  1  0.10281754  0.91143776  0.48953201  1
  Sc  Sc81  1  0.50101631  0.09960461  0.88580792  1
  Sc  Sc82  1  0.89859465  0.69263592  0.09196084  1
  Sc  Sc83  1  0.49405673  0.69880008  0.29965717  1
  Sc  Sc84  1  0.89202090  0.10390799  0.10421868  1
  Sc  Sc85  1  0.70181384  0.09202971  0.89807764  1
  Sc  Sc86  1  0.30634279  0.90380509  0.50610969  1
  Sc  Sc87  1  0.09387535  0.69575268  0.50397130  1
  Sc  Sc88  1  0.89762360  0.29938295  0.49816813  1
  Sc  Sc89  1  0.70702287  0.90234921  0.90634369  1
  Sc  Sc90  1  0.09895965  0.49870654  0.50533078  1
  Sc  Sc91  1  0.89914960  0.49433948  0.50178359  1
  Sc  Sc92  1  0.70651047  0.91373283  0.69748098  1
  Sc  Sc93  1  0.90936520  0.50286869  0.09446060  1
  Sc  Sc94  1  0.91188162  0.49750339  0.30680784  1
  Sc  Sc95  1  0.29752537  0.09677051  0.89222874  1
  Sc  Sc96  1  0.50664062  0.10328442  0.29380167  1
  Sc  Sc97  1  0.50026887  0.49685216  0.29122252  1
  Sc  Sc98  1  0.49520413  0.29922906  0.30181709  1
  Sc  Sc99  1  0.69285375  0.30039456  0.30595719  1
  Nb  Nb100  1  0.90502446  0.90314610  0.30302531  1
  Nb  Nb101  1  0.50120965  0.28813543  0.70343598  1
  Nb  Nb102  1  0.49859804  0.90008599  0.69531432  1
  Nb  Nb103  1  0.31229600  0.10023131  0.69703616  1
  Nb  Nb104  1  0.09475253  0.10200133  0.50253328  1
  Nb  Nb105  1  0.10526089  0.89557963  0.69604458  1
  Nb  Nb106  1  0.50397089  0.09874272  0.09732249  1
  Nb  Nb107  1  0.49811132  0.49882555  0.10051873  1
  Nb  Nb108  1  0.30352926  0.70037056  0.49936241  1
  Nb  Nb109  1  0.49364647  0.69541632  0.50463680  1
  Nb  Nb110  1  0.30328063  0.30448055  0.30283666  1
  Nb  Nb111  1  0.90011755  0.69975133  0.69641811  1
  Nb  Nb112  1  0.69227085  0.09940055  0.50763495  1
  Nb  Nb113  1  0.29852438  0.90412266  0.10036706  1
  Nb  Nb114  1  0.50333452  0.50686537  0.50359068  1
  Nb  Nb115  1  0.90024716  0.90620313  0.89988945  1
  Nb  Nb116  1  0.10482765  0.50720620  0.30082348  1
  Nb  Nb117  1  0.69274476  0.49516522  0.49974396  1
  Nb  Nb118  1  0.10527670  0.70198585  0.89912578  1
  Nb  Nb119  1  0.29430075  0.49220608  0.70092763  1
  Nb  Nb120  1  0.50159088  0.50180526  0.90028686  1
  Nb  Nb121  1  0.50947184  0.09759023  0.50068332  1
  Nb  Nb122  1  0.69878378  0.50159403  0.30231183  1
  Nb  Nb123  1  0.89800104  0.29740055  0.69972779  1
  Nb  Nb124  1  0.69122217  0.49874402  0.89388186  1
  Nb  Nb125  1  0.80094461  0.20455410  0.79623617  1
  Nb  Nb126  1  0.79577276  0.59475341  0.20689131  1
  Nb  Nb127  1  0.19846879  0.00019678  0.20601641  1
  Nb  Nb128  1  0.40312926  0.19544187  0.60060897  1
  Nb  Nb129  1  -0.00064942  -0.00468587  -0.00254888  1
  Nb  Nb130  1  0.00494218  0.00276916  0.60061052  1
  Nb  Nb131  1  -0.00031658  0.19278640  0.60346543  1
  Nb  Nb132  1  0.20141317  0.60788127  -0.00071880  1
  Nb  Nb133  1  0.20264074  0.40361440  0.39220432  1
  Nb  Nb134  1  0.40208465  0.40413830  0.79347871  1
  Nb  Nb135  1  0.19605180  0.80034377  0.00188960  1
  Nb  Nb136  1  0.40583876  0.19654882  0.00237769  1
  Nb  Nb137  1  0.20508804  0.59859811  0.39985486  1
  Nb  Nb138  1  0.59643402  0.19560592  0.00220482  1
  Nb  Nb139  1  0.79230216  0.59494626  0.39876634  1
  Nb  Nb140  1  0.40121996  0.00786854  0.40213060  1
  Nb  Nb141  1  0.00201630  0.80505219  -0.00797021  1
  Nb  Nb142  1  0.79684028  0.40848885  0.20541109  1
  Nb  Nb143  1  0.60220931  0.79837778  0.79254914  1
  Nb  Nb144  1  0.20062347  0.79971576  0.59799112  1
  Nb  Nb145  1  0.40027375  0.00591343  0.00472397  1
  Nb  Nb146  1  0.59578620  0.79952707  0.60623533  1
  Nb  Nb147  1  0.20416853  0.79296667  0.40357611  1
  Nb  Nb148  1  0.59784112  0.59657653  0.40644552  1
  Nb  Nb149  1  -0.00486524  0.39804881  0.79465052  1
  Pd  Pd150  1  0.80137461  0.59109527  0.80179321  1
  Pd  Pd151  1  0.60171753  0.60317622  0.79796325  1
  Pd  Pd152  1  -0.00357172  0.19728039  0.20012962  1
  Pd  Pd153  1  0.39450900  0.59786557  0.00706157  1
  Pd  Pd154  1  0.40137629  0.80779498  0.40097354  1
  Pd  Pd155  1  0.40168426  0.59194997  0.39730079  1
  Pd  Pd156  1  -0.00020457  0.59117770  0.80266126  1
  Pd  Pd157  1  0.40044807  0.20132239  0.19486575  1
  Pd  Pd158  1  -0.01238095  0.79451508  0.18998163  1
  Pd  Pd159  1  0.79152762  0.81135247  0.60039629  1
  Pd  Pd160  1  0.00795000  0.39879346  0.40542926  1
  Pd  Pd161  1  0.60006462  0.80370285  -0.01005358  1
  Pd  Pd162  1  0.79999405  0.00187364  0.39818117  1
  Pd  Pd163  1  0.80810823  0.80039571  -0.00106286  1
  Pd  Pd164  1  0.41191406  0.39359484  -0.00742522  1
  Pd  Pd165  1  0.19393906  0.19630949  0.20974499  1
  Pd  Pd166  1  0.19372316  0.20723641  0.38979396  1
  Pd  Pd167  1  0.39712591  0.00499436  0.20114107  1
  Pd  Pd168  1  0.59257700  0.40443630  0.39519576  1
  Pd  Pd169  1  0.40998285  0.39049295  0.60451614  1
  Pd  Pd170  1  0.79166892  0.19412959  -0.00794849  1
  Pd  Pd171  1  0.20637920  0.19966938  0.80050283  1
  Pd  Pd172  1  0.19241178  0.39853355  0.81041200  1
  Pd  Pd173  1  0.79457474  0.19473620  0.39941862  1
  Pd  Pd174  1  -0.00050052  0.59882532  0.60023286  1
  Pd  Pd175  1  -0.00677870  0.40321486  0.19649274  1
  Pd  Pd176  1  0.40410354  0.80190209  0.79611863  1
  Pd  Pd177  1  0.60694370  0.19851376  0.19831425  1
  Pd  Pd178  1  0.80787562  0.79218252  0.20441090  1
  Pd  Pd179  1  0.20025620  0.40590987  0.20379958  1
  Pd  Pd180  1  0.41059691  0.19499936  0.40742458  1
  Pd  Pd181  1  0.60349772  -0.00906052  0.80194273  1
  Pd  Pd182  1  0.39949641  0.59083153  0.79178182  1
  Pd  Pd183  1  0.38930642  0.60079409  0.60969168  1
  Pd  Pd184  1  0.59271054  0.39312618  -0.00608078  1
  Pd  Pd185  1  0.60274705  0.59716671  -0.00145710  1
  Pd  Pd186  1  0.78742678  0.58912052  0.00919797  1
  Pd  Pd187  1  0.59352956  0.80475377  0.20157440  1
  Pd  Pd188  1  0.00493354  0.00202502  0.79482982  1
  Pd  Pd189  1  0.59319108  0.39985857  0.79749160  1
  Pd  Pd190  1  0.80672832  0.39772818  0.80337886  1
  Pd  Pd191  1  0.00526354  0.39025179  0.60537693  1
  Pd  Pd192  1  0.79725350  0.41075174  0.01044568  1
  Pd  Pd193  1  -0.00034767  0.60182668  0.40433227  1
  Pd  Pd194  1  0.41081453  0.80532449  0.19865695  1
  Pd  Pd195  1  0.19516140  -0.00213180  0.60411314  1
  Pd  Pd196  1  0.79369269  0.80590813  0.79895371  1
  Pd  Pd197  1  0.00307142  0.80284577  0.80493271  1
  Pd  Pd198  1  0.79912757  0.39744474  0.59358711  1
  Pd  Pd199  1  0.00901546  0.80926823  0.59141449  1
  Rh  Rh200  1  0.19824507  0.81053285  0.20244980  1
  Rh  Rh201  1  0.59774429  0.60146988  0.20435853  1
  Rh  Rh202  1  0.20619445  0.59171604  0.19550369  1
  Rh  Rh203  1  0.40710481  0.01052113  0.59177882  1
  Rh  Rh204  1  0.61744425  0.20104203  0.80863282  1
  Rh  Rh205  1  0.80371632  0.19980927  0.60305126  1
  Rh  Rh206  1  0.39691735  0.81069500  0.00564645  1
  Rh  Rh207  1  0.59432836  0.00528083  -0.00460869  1
  Rh  Rh208  1  0.19769941  -0.00635984  0.00988929  1
  Rh  Rh209  1  0.39724054  0.79296267  0.60315155  1
  Rh  Rh210  1  0.00029027  0.00480418  0.19589382  1
  Rh  Rh211  1  0.00401229  0.79915996  0.40758740  1
  Rh  Rh212  1  0.79904687  -0.00094681  0.20974436  1
  Rh  Rh213  1  0.40280507  0.39586518  0.20070206  1
  Rh  Rh214  1  0.19990035  0.19600431  0.60737819  1
  Rh  Rh215  1  0.79550584  0.20882101  0.20647693  1
  Rh  Rh216  1  0.60669211  -0.00039325  0.20208653  1
  Rh  Rh217  1  0.20741968  0.00129894  0.79002126  1
  Rh  Rh218  1  -0.00842898  0.20648453  0.79211590  1
  Rh  Rh219  1  0.59547567  0.39225023  0.59918487  1
  Rh  Rh220  1  -0.00717465  0.19916510  0.40709220  1
  Rh  Rh221  1  0.59969576  0.19759885  0.40252994  1
  Rh  Rh222  1  0.40490316  0.59794360  0.19060508  1
  Rh  Rh223  1  0.20409466  0.60633952  0.59465712  1
  Rh  Rh224  1  0.20852326  -0.00710332  0.39358275  1
  Rh  Rh225  1  0.80895403  0.00546556  -0.00192696  1
  Rh  Rh226  1  0.20786313  0.20064501  -0.00218405  1
  Rh  Rh227  1  -0.01042628  0.59759618  0.20549794  1
  Rh  Rh228  1  0.39807792  0.40842968  0.39774094  1
  Rh  Rh229  1  0.79936694  0.40478804  0.39724057  1
  Rh  Rh230  1  0.79721570  0.59381828  0.58963642  1
  Rh  Rh231  1  0.60145187  0.39819755  0.20481747  1
  Rh  Rh232  1  0.80483722  -0.00354300  0.59167968  1
  Rh  Rh233  1  0.59083757  0.20784946  0.59126821  1
  Rh  Rh234  1  0.58730853  0.78901675  0.41134588  1
  Rh  Rh235  1  0.19809283  0.59649703  0.80762271  1
  Rh  Rh236  1  0.39240983  0.20793860  0.79798777  1
  Rh  Rh237  1  0.61036439  0.60977601  0.59079720  1
  Rh  Rh238  1  -0.00259642  0.19288550  0.00721681  1
  Rh  Rh239  1  0.00791866  0.60851855  -0.00659485  1
  Rh  Rh240  1  0.80008846  0.00423959  0.80178357  1
  Rh  Rh241  1  0.00320631  0.39627427  -0.00494601  1
  Rh  Rh242  1  0.20263259  0.80368588  0.79528324  1
  Rh  Rh243  1  0.59780057  -0.01122734  0.59732520  1
  Rh  Rh244  1  -0.01326038  0.00097063  0.41007187  1
  Rh  Rh245  1  0.40052606  -0.00244089  0.80628672  1
  Rh  Rh246  1  0.19547601  0.39961121  0.59036454  1
  Rh  Rh247  1  0.59565359  0.00393943  0.39947543  1
  Rh  Rh248  1  0.80458523  0.79670107  0.39507353  1
  Rh  Rh249  1  0.19287152  0.40584287  -0.00038725  1
