# generated using pymatgen
data_ZrScNbPdRh
_symmetry_space_group_name_H-M   'P 1'
_cell_length_a   16.56103396
_cell_length_b   16.55940459
_cell_length_c   16.56465882
_cell_angle_alpha   90.00482441
_cell_angle_beta   90.00929943
_cell_angle_gamma   90.00185857
_symmetry_Int_Tables_number   1
_chemical_formula_structural   ZrScNbPdRh
_chemical_formula_sum   'Zr50 Sc50 Nb50 Pd50 Rh50'
_cell_volume   4542.70623020
_cell_formula_units_Z   50
loop_
 _symmetry_equiv_pos_site_id
 _symmetry_equiv_pos_as_xyz
  1  'x, y, z'
loop_
 _atom_site_type_symbol
 _atom_site_label
 _atom_site_symmetry_multiplicity
 _atom_site_fract_x
 _atom_site_fract_y
 _atom_site_fract_z
 _atom_site_occupancy
  Zr  Zr0  1  0.70255392  0.90689060  0.50270535  1
  Zr  Zr1  1  0.49312882  0.89801930  0.29246583  1
  Zr  Zr2  1  0.49818059  0.70127983  0.50081811  1
  Zr  Zr3  1  0.90050776  0.70029189  0.30195895  1
  Zr  Zr4  1  0.10345616  0.29664887  0.49255927  1
  Zr  Zr5  1  0.29585310  0.30513006  0.31312496  1
  Zr  Zr6  1  0.69594107  0.30009302  0.29715508  1
  Zr  Zr7  1  0.49368674  0.70883185  0.70299656  1
  Zr  Zr8  1  0.90445451  0.09208358  0.30672100  1
  Zr  Zr9  1  0.30232947  0.50158252  0.90987048  1
  Zr  Zr10  1  0.49321810  0.30199338  0.69113477  1
  Zr  Zr11  1  0.30275982  0.09353010  0.10143222  1
  Zr  Zr12  1  0.90750379  0.50790847  0.30775009  1
  Zr  Zr13  1  0.51142025  0.50675284  0.70022241  1
  Zr  Zr14  1  0.70048986  0.69631889  0.50235515  1
  Zr  Zr15  1  0.89460207  0.70864387  0.91087905  1
  Zr  Zr16  1  0.29675500  0.49527182  0.29380566  1
  Zr  Zr17  1  0.90168178  0.09727787  0.89829515  1
  Zr  Zr18  1  0.90666277  0.89180673  0.09249159  1
  Zr  Zr19  1  0.70009256  0.70286112  0.28949294  1
  Zr  Zr20  1  0.71258490  0.11418396  0.71247081  1
  Zr  Zr21  1  0.69981691  0.09878843  0.09459536  1
  Zr  Zr22  1  0.09593611  0.09435913  0.89751077  1
  Zr  Zr23  1  0.49739907  0.48628422  0.29411820  1
  Zr  Zr24  1  0.10412908  0.69635626  0.69635794  1
  Zr  Zr25  1  0.29300648  0.70089475  0.70379360  1
  Zr  Zr26  1  0.89794666  0.49470816  0.09427517  1
  Zr  Zr27  1  0.09387656  0.29382782  0.10096174  1
  Zr  Zr28  1  0.50638230  0.09805748  0.91117238  1
  Zr  Zr29  1  0.69945314  0.89987178  0.11138832  1
  Zr  Zr30  1  0.69809084  0.48950885  0.89445315  1
  Zr  Zr31  1  0.10168126  0.30945738  0.29935107  1
  Zr  Zr32  1  0.49827089  0.10609862  0.49263392  1
  Zr  Zr33  1  0.30407901  0.09380230  0.30427732  1
  Zr  Zr34  1  0.30019680  0.70916485  0.29284548  1
  Zr  Zr35  1  0.90093018  0.48459794  0.70250256  1
  Zr  Zr36  1  0.69668879  0.50007253  0.09889539  1
  Zr  Zr37  1  0.49856722  0.69779101  0.28696931  1
  Zr  Zr38  1  0.90055692  0.90644829  0.49790018  1
  Zr  Zr39  1  0.29740535  0.89425116  0.90378228  1
  Zr  Zr40  1  0.29642256  0.29772750  0.69486499  1
  Zr  Zr41  1  0.50392050  0.29907606  0.11095071  1
  Zr  Zr42  1  0.70587470  0.09388883  0.29586624  1
  Zr  Zr43  1  0.10990272  0.28675667  0.90337919  1
  Zr  Zr44  1  0.49473382  0.10209708  0.09987422  1
  Zr  Zr45  1  0.69666293  0.70077772  0.10153889  1
  Zr  Zr46  1  0.30307761  0.50318120  0.10009296  1
  Zr  Zr47  1  0.49681071  0.50305945  0.10278060  1
  Zr  Zr48  1  0.09429444  0.70203447  0.29952753  1
  Zr  Zr49  1  0.70127011  0.70128105  0.90745223  1
  Sc  Sc50  1  0.29472225  0.70472698  0.90254588  1
  Sc  Sc51  1  0.30133464  0.89757136  0.10255311  1
  Sc  Sc52  1  0.09740944  0.09302044  0.50253114  1
  Sc  Sc53  1  0.10401392  0.49647180  0.10667477  1
  Sc  Sc54  1  0.50599484  0.29554715  0.90976967  1
  Sc  Sc55  1  0.90542579  0.89881406  0.29686835  1
  Sc  Sc56  1  0.89006501  0.91024921  0.70401942  1
  Sc  Sc57  1  0.71284914  0.30125058  0.49403007  1
  Sc  Sc58  1  0.89995408  0.49860531  0.90660187  1
  Sc  Sc59  1  0.28903567  0.70785142  0.50198291  1
  Sc  Sc60  1  0.29159128  0.90252756  0.29397650  1
  Sc  Sc61  1  0.10135735  0.91158185  0.70477285  1
  Sc  Sc62  1  0.70868338  0.09890657  0.50071599  1
  Sc  Sc63  1  0.89484839  0.69839329  0.10124460  1
  Sc  Sc64  1  0.30178761  0.70342589  0.09394613  1
  Sc  Sc65  1  0.71018641  0.29715111  0.10003391  1
  Sc  Sc66  1  0.09950731  0.89983847  0.30065083  1
  Sc  Sc67  1  0.09917139  0.89683553  0.10625912  1
  Sc  Sc68  1  0.30930783  0.29325656  0.50555239  1
  Sc  Sc69  1  0.51720061  0.09408186  0.69931559  1
  Sc  Sc70  1  0.09893217  0.50366854  0.69525794  1
  Sc  Sc71  1  0.49484546  0.90785742  0.09134108  1
  Sc  Sc72  1  0.29320444  0.89954193  0.48689688  1
  Sc  Sc73  1  0.69453934  0.91409966  0.70026395  1
  Sc  Sc74  1  0.28289894  0.09950878  0.69698171  1
  Sc  Sc75  1  0.70663130  0.49894197  0.49564768  1
  Sc  Sc76  1  0.90378920  0.69557238  0.49525585  1
  Sc  Sc77  1  0.09672251  0.89993721  0.49281385  1
  Sc  Sc78  1  0.09539056  0.30165362  0.69309869  1
  Sc  Sc79  1  0.29647452  0.89083326  0.70122038  1
  Sc  Sc80  1  0.70036164  0.89873399  0.90212640  1
  Sc  Sc81  1  0.90099413  0.30505623  0.90449987  1
  Sc  Sc82  1  0.50255108  0.49466329  0.50086179  1
  Sc  Sc83  1  0.09619785  0.69902385  0.49928006  1
  Sc  Sc84  1  0.09275818  0.50513785  0.50393870  1
  Sc  Sc85  1  0.90329633  0.29913004  0.50453373  1
  Sc  Sc86  1  0.90625629  0.10209166  0.50474226  1
  Sc  Sc87  1  0.30122446  0.48596924  0.49712910  1
  Sc  Sc88  1  0.29375018  0.49944769  0.69112275  1
  Sc  Sc89  1  0.90670081  0.10863547  0.10182682  1
  Sc  Sc90  1  0.50462447  0.49706490  0.90784779  1
  Sc  Sc91  1  0.29923333  0.29701957  0.09071760  1
  Sc  Sc92  1  0.69123636  0.70069917  0.70290770  1
  Sc  Sc93  1  0.09931257  0.50381118  0.90564858  1
  Sc  Sc94  1  0.49693344  0.70741643  0.90491037  1
  Sc  Sc95  1  0.29263527  0.10791223  0.90278398  1
  Sc  Sc96  1  0.49737740  0.89879243  0.90156052  1
  Sc  Sc97  1  0.09996727  0.70401784  0.09935428  1
  Sc  Sc98  1  0.90239405  0.29924779  0.29863056  1
  Sc  Sc99  1  0.70629993  0.49832578  0.29734798  1
  Nb  Nb100  1  0.08898317  0.09884207  0.70044156  1
  Nb  Nb101  1  0.50162185  0.28985793  0.31145012  1
  Nb  Nb102  1  0.10717101  0.49760914  0.30048917  1
  Nb  Nb103  1  0.90611170  0.90178048  0.90498641  1
  Nb  Nb104  1  0.50361270  0.29931097  0.49877620  1
  Nb  Nb105  1  0.71434202  0.30820603  0.70246974  1
  Nb  Nb106  1  0.30241326  0.09526543  0.49879370  1
  Nb  Nb107  1  0.30054907  0.29626316  0.89392013  1
  Nb  Nb108  1  0.49484376  0.90371813  0.69781223  1
  Nb  Nb109  1  0.89265722  0.29399907  0.69754793  1
  Nb  Nb110  1  0.70038572  0.10978866  0.90607267  1
  Nb  Nb111  1  0.69926687  0.89943273  0.29873544  1
  Nb  Nb112  1  0.70230084  0.49744678  0.70178983  1
  Nb  Nb113  1  0.10512950  0.09558828  0.29504401  1
  Nb  Nb114  1  0.50206261  0.90381169  0.50097667  1
  Nb  Nb115  1  0.10107543  0.10200204  0.09715910  1
  Nb  Nb116  1  0.89808964  0.70124356  0.70300383  1
  Nb  Nb117  1  0.10232672  0.70930944  0.89469495  1
  Nb  Nb118  1  0.89830131  0.50903962  0.50360157  1
  Nb  Nb119  1  0.08965441  0.89991259  0.90493693  1
  Nb  Nb120  1  0.49903313  0.10929536  0.29900901  1
  Nb  Nb121  1  0.90791488  0.10765889  0.69942392  1
  Nb  Nb122  1  0.70263417  0.28466779  0.89390511  1
  Nb  Nb123  1  0.49801756  0.69803193  0.10248293  1
  Nb  Nb124  1  0.90471323  0.29827484  0.09673924  1
  Nb  Nb125  1  0.39787418  0.59969424  0.39839701  1
  Nb  Nb126  1  0.40034716  -0.00216447  0.59924128  1
  Nb  Nb127  1  0.19099843  -0.00121941  -0.00025616  1
  Nb  Nb128  1  -0.00625207  0.79998483  0.60946042  1
  Nb  Nb129  1  -0.00526751  0.60972417  0.80078157  1
  Nb  Nb130  1  0.59548350  0.60393712  0.39409023  1
  Nb  Nb131  1  0.39908096  0.60312471  0.59970987  1
  Nb  Nb132  1  0.79339361  0.80280347  0.39778197  1
  Nb  Nb133  1  0.60036642  0.80415869  0.39910050  1
  Nb  Nb134  1  0.59446177  0.80922140  0.59709628  1
  Nb  Nb135  1  0.80103559  0.59852045  0.79747979  1
  Nb  Nb136  1  0.20200946  0.59629170  0.39259618  1
  Nb  Nb137  1  0.59729630  -0.00142198  0.39351415  1
  Nb  Nb138  1  0.60692809  0.20953112  0.59967000  1
  Nb  Nb139  1  0.19689737  0.19529280  0.20352768  1
  Nb  Nb140  1  -0.00174028  0.19977731  0.79517071  1
  Nb  Nb141  1  -0.00241804  0.80175891  0.80173140  1
  Nb  Nb142  1  0.80351428  0.00128295  -0.00246533  1
  Nb  Nb143  1  0.40015720  0.19799298  0.79873736  1
  Nb  Nb144  1  0.39960701  0.00402496  0.79534265  1
  Nb  Nb145  1  0.39818442  0.59603983  0.79803969  1
  Nb  Nb146  1  0.60919675  0.39507886  0.60285744  1
  Nb  Nb147  1  0.20512703  0.39688973  0.80450924  1
  Nb  Nb148  1  0.39590257  0.39859564  0.80106543  1
  Nb  Nb149  1  0.80333459  0.59520455  0.60903806  1
  Pd  Pd150  1  0.00066373  -0.00089460  0.19606046  1
  Pd  Pd151  1  0.60459580  0.19673884  0.19722928  1
  Pd  Pd152  1  0.59413767  0.38741107  0.79686881  1
  Pd  Pd153  1  0.80478440  0.01246740  0.60473997  1
  Pd  Pd154  1  0.59685464  0.80639957  0.00673561  1
  Pd  Pd155  1  0.59638315  0.60117393  -0.00337642  1
  Pd  Pd156  1  0.19873501  0.59001056  0.80499691  1
  Pd  Pd157  1  0.40286903  -0.00385540  0.40059204  1
  Pd  Pd158  1  0.80798669  0.40106308  0.20285389  1
  Pd  Pd159  1  0.01079973  0.39647284  0.80602040  1
  Pd  Pd160  1  0.40506304  0.18355579  0.60765594  1
  Pd  Pd161  1  0.81327135  -0.00236022  0.19185759  1
  Pd  Pd162  1  0.80569090  0.19868367  0.20109389  1
  Pd  Pd163  1  0.19202020  0.19471067  0.59522858  1
  Pd  Pd164  1  0.39639374  0.80482064  0.59452122  1
  Pd  Pd165  1  0.60749006  0.38912521  0.00474317  1
  Pd  Pd166  1  0.20049638  0.60729903  0.19942953  1
  Pd  Pd167  1  0.00467250  0.60526317  -0.00064391  1
  Pd  Pd168  1  0.39941350  0.79908321  0.39944214  1
  Pd  Pd169  1  0.79818249  0.80116782  0.79846760  1
  Pd  Pd170  1  0.40388719  0.39268776  -0.00212114  1
  Pd  Pd171  1  0.19622890  0.39846223  0.00025029  1
  Pd  Pd172  1  0.19474817  0.60641861  0.00264163  1
  Pd  Pd173  1  0.80557018  0.19908179  0.39857944  1
  Pd  Pd174  1  0.19383444  0.40122530  0.59843277  1
  Pd  Pd175  1  0.80361570  0.59502210  0.19660313  1
  Pd  Pd176  1  0.00081152  0.59613794  0.19352415  1
  Pd  Pd177  1  0.59797697  -0.00273405  0.81003165  1
  Pd  Pd178  1  0.00009152  0.39619268  0.59409686  1
  Pd  Pd179  1  -0.00307243  0.40474826  0.40705665  1
  Pd  Pd180  1  0.39255624  0.38649193  0.19968885  1
  Pd  Pd181  1  0.80957391  0.39880002  0.39731628  1
  Pd  Pd182  1  0.38932909  0.20681914  0.20687654  1
  Pd  Pd183  1  0.00285339  0.19852522  0.20858183  1
  Pd  Pd184  1  0.79303434  0.39234675  -0.00387379  1
  Pd  Pd185  1  0.61192566  0.19460985  0.40552240  1
  Pd  Pd186  1  0.59271391  0.20826571  0.79360271  1
  Pd  Pd187  1  0.60235115  0.40404862  0.40438990  1
  Pd  Pd188  1  0.00895701  0.39738339  -0.00324821  1
  Pd  Pd189  1  0.79841844  0.79505152  0.59942895  1
  Pd  Pd190  1  0.00234314  0.19617933  0.39802046  1
  Pd  Pd191  1  -0.00545382  0.40492855  0.19944761  1
  Pd  Pd192  1  0.59028440  0.00428623  0.20249886  1
  Pd  Pd193  1  0.18669194  0.81007050  0.59896837  1
  Pd  Pd194  1  0.20317577  -0.00604510  0.59385461  1
  Pd  Pd195  1  0.79755381  0.00068054  0.80845956  1
  Pd  Pd196  1  0.20107396  0.19019423  0.40099973  1
  Pd  Pd197  1  0.20551637  -0.00321896  0.80683146  1
  Pd  Pd198  1  0.59929183  0.60688959  0.81001381  1
  Pd  Pd199  1  0.60203275  0.80801662  0.79589194  1
  Rh  Rh200  1  0.40640744  0.39634700  0.40259622  1
  Rh  Rh201  1  0.20965289  0.59451920  0.58334517  1
  Rh  Rh202  1  -0.00846166  0.80271497  0.40714264  1
  Rh  Rh203  1  0.19319553  0.40749914  0.40945063  1
  Rh  Rh204  1  0.60373021  0.59450526  0.59080570  1
  Rh  Rh205  1  0.60310951  0.39619052  0.20058378  1
  Rh  Rh206  1  -0.00911168  0.60568556  0.60673751  1
  Rh  Rh207  1  0.40336582  0.00089982  0.20288218  1
  Rh  Rh208  1  0.40264013  0.79708034  0.00383144  1
  Rh  Rh209  1  0.00637277  0.79264580  -0.00075143  1
  Rh  Rh210  1  0.19588769  0.00339193  0.19297987  1
  Rh  Rh211  1  -0.00492348  0.20025473  -0.00734778  1
  Rh  Rh212  1  0.19059553  0.80851434  0.80040961  1
  Rh  Rh213  1  0.19354882  0.20428622  0.78803651  1
  Rh  Rh214  1  0.19461169  0.80782573  0.00247870  1
  Rh  Rh215  1  0.39475947  0.60155729  0.19838583  1
  Rh  Rh216  1  0.01064642  0.59694410  0.39872622  1
  Rh  Rh217  1  0.00334881  0.20380184  0.60275521  1
  Rh  Rh218  1  0.81290161  0.20557658  0.80807609  1
  Rh  Rh219  1  0.59932004  0.59102549  0.20193488  1
  Rh  Rh220  1  -0.00351404  -0.00751965  0.60447371  1
  Rh  Rh221  1  0.59076829  0.80431893  0.19391142  1
  Rh  Rh222  1  0.80058127  0.40454090  0.59408097  1
  Rh  Rh223  1  0.79224483  0.81020575  0.00623759  1
  Rh  Rh224  1  0.00554073  0.00228922  0.39836571  1
  Rh  Rh225  1  0.79388536  0.59305265  -0.00404930  1
  Rh  Rh226  1  0.40436800  0.60571679  -0.00400442  1
  Rh  Rh227  1  0.79839356  0.19939021  0.59745411  1
  Rh  Rh228  1  -0.00552310  -0.00076539  0.79248184  1
  Rh  Rh229  1  0.79512443  0.60451252  0.40401105  1
  Rh  Rh230  1  0.19828629  0.80086956  0.19785488  1
  Rh  Rh231  1  0.80659308  0.19857216  -0.00065439  1
  Rh  Rh232  1  0.39701625  0.80241058  0.80525525  1
  Rh  Rh233  1  0.79864943  -0.00503037  0.39602021  1
  Rh  Rh234  1  0.20329282  0.38872913  0.19117142  1
  Rh  Rh235  1  0.19410613  0.79380103  0.39301491  1
  Rh  Rh236  1  0.59551754  0.00554436  0.59060640  1
  Rh  Rh237  1  0.61095402  -0.00357338  -0.00258563  1
  Rh  Rh238  1  0.20330495  0.19206591  0.01005354  1
  Rh  Rh239  1  0.40993029  0.41069752  0.60202618  1
  Rh  Rh240  1  0.80336141  0.39880551  0.80806380  1
  Rh  Rh241  1  0.80807845  0.80203631  0.20354967  1
  Rh  Rh242  1  0.39477709  0.20383039  0.39997356  1
  Rh  Rh243  1  0.60258678  0.20616778  0.00999738  1
  Rh  Rh244  1  0.38728841  0.00287319  -0.01150216  1
  Rh  Rh245  1  0.40151407  0.19993042  -0.00482829  1
  Rh  Rh246  1  0.40113875  0.80369825  0.18909871  1
  Rh  Rh247  1  0.19599833  0.00228057  0.40029254  1
  Rh  Rh248  1  0.00037998  0.00292463  0.00986644  1
  Rh  Rh249  1  -0.00061751  0.79643495  0.19992901  1
