# generated using pymatgen
data_ZrScNbPdRh
_symmetry_space_group_name_H-M   'P 1'
_cell_length_a   16.55936013
_cell_length_b   16.55898929
_cell_length_c   16.55929942
_cell_angle_alpha   89.99914086
_cell_angle_beta   90.04164150
_cell_angle_gamma   89.96035200
_symmetry_Int_Tables_number   1
_chemical_formula_structural   ZrScNbPdRh
_chemical_formula_sum   'Zr50 Sc50 Nb50 Pd50 Rh50'
_cell_volume   4540.66139335
_cell_formula_units_Z   50
loop_
 _symmetry_equiv_pos_site_id
 _symmetry_equiv_pos_as_xyz
  1  'x, y, z'
loop_
 _atom_site_type_symbol
 _atom_site_label
 _atom_site_symmetry_multiplicity
 _atom_site_fract_x
 _atom_site_fract_y
 _atom_site_fract_z
 _atom_site_occupancy
  Zr  Zr0  1  0.49903435  0.90113614  0.90257263  1
  Zr  Zr1  1  0.30509935  0.70666467  0.70019639  1
  Zr  Zr2  1  0.29671956  0.31321248  0.49604235  1
  Zr  Zr3  1  0.08978402  0.29956359  0.10481236  1
  Zr  Zr4  1  0.49842321  0.50554302  0.89745103  1
  Zr  Zr5  1  0.50605341  0.48823576  0.70478663  1
  Zr  Zr6  1  0.89711924  0.29610727  0.69251925  1
  Zr  Zr7  1  0.90921240  0.28987531  0.30722522  1
  Zr  Zr8  1  0.69370861  0.09456582  0.09868872  1
  Zr  Zr9  1  0.70289951  0.10013376  0.29968443  1
  Zr  Zr10  1  0.70079107  0.50863163  0.10785911  1
  Zr  Zr11  1  0.29469632  0.50022123  0.70189668  1
  Zr  Zr12  1  0.49462276  0.69724518  0.89755941  1
  Zr  Zr13  1  0.09929355  0.49599137  0.09982646  1
  Zr  Zr14  1  0.49605378  0.89787466  0.29863289  1
  Zr  Zr15  1  0.09454993  0.69938801  0.29959850  1
  Zr  Zr16  1  0.69102965  0.29226339  0.10821554  1
  Zr  Zr17  1  0.90461860  0.51123212  0.69705153  1
  Zr  Zr18  1  0.50394554  0.69616119  0.70487704  1
  Zr  Zr19  1  0.09673653  0.29376394  0.89837389  1
  Zr  Zr20  1  0.29021557  0.89468532  0.49740657  1
  Zr  Zr21  1  0.90271467  0.29883823  0.09603354  1
  Zr  Zr22  1  0.30884201  0.29220262  0.10774207  1
  Zr  Zr23  1  0.30222665  0.90401094  0.29678790  1
  Zr  Zr24  1  0.90625673  0.50122206  0.30860278  1
  Zr  Zr25  1  0.89892853  0.49977413  0.90192303  1
  Zr  Zr26  1  0.29695706  0.29832739  0.29822040  1
  Zr  Zr27  1  0.09384180  0.49600054  0.49458533  1
  Zr  Zr28  1  0.89791951  0.70369390  0.09617640  1
  Zr  Zr29  1  0.09577716  0.29256943  0.50298056  1
  Zr  Zr30  1  0.90250981  0.29828283  0.90618062  1
  Zr  Zr31  1  0.70443502  0.09773008  0.49717764  1
  Zr  Zr32  1  0.91043926  0.89662331  0.90445999  1
  Zr  Zr33  1  0.50121569  0.50393646  0.10719334  1
  Zr  Zr34  1  0.69911260  0.50261472  0.48474132  1
  Zr  Zr35  1  0.29590340  0.90436086  0.90055358  1
  Zr  Zr36  1  0.49509934  0.09952814  0.50460272  1
  Zr  Zr37  1  0.70530481  0.71477164  0.69198507  1
  Zr  Zr38  1  0.70290781  0.89796324  0.50552091  1
  Zr  Zr39  1  0.10482568  0.70040242  0.09911906  1
  Zr  Zr40  1  0.49649654  0.49735954  0.49984481  1
  Zr  Zr41  1  0.49750779  0.09730385  0.90708496  1
  Zr  Zr42  1  0.29693342  0.50276869  0.89521127  1
  Zr  Zr43  1  0.30383316  0.48796117  0.30403960  1
  Zr  Zr44  1  0.10026599  0.49556251  0.29128093  1
  Zr  Zr45  1  0.88934132  0.89374992  0.70188312  1
  Zr  Zr46  1  0.70173863  0.30367298  0.70075648  1
  Zr  Zr47  1  0.29442209  0.69330012  0.90211451  1
  Zr  Zr48  1  0.71349153  0.10372021  0.69916732  1
  Zr  Zr49  1  0.49838837  0.90487671  0.10465954  1
  Sc  Sc50  1  0.50075587  0.30467951  0.89731116  1
  Sc  Sc51  1  0.09858635  0.90119157  0.90311997  1
  Sc  Sc52  1  0.51279730  0.49717380  0.30305941  1
  Sc  Sc53  1  0.49787888  0.30796857  0.28716396  1
  Sc  Sc54  1  0.90264667  0.89809835  0.10016523  1
  Sc  Sc55  1  0.29740670  0.90106601  0.69396580  1
  Sc  Sc56  1  0.90634195  0.90517496  0.49976103  1
  Sc  Sc57  1  0.09870792  0.09120746  0.89696482  1
  Sc  Sc58  1  0.90354648  0.70431341  0.89080542  1
  Sc  Sc59  1  0.29819381  0.09578597  0.10180473  1
  Sc  Sc60  1  0.90064294  0.09917130  0.69700555  1
  Sc  Sc61  1  0.29032097  0.10543211  0.29300731  1
  Sc  Sc62  1  0.08690271  0.69671731  0.70610017  1
  Sc  Sc63  1  0.49334895  0.88756544  0.70937031  1
  Sc  Sc64  1  0.28704559  0.30309541  0.69798259  1
  Sc  Sc65  1  0.50326824  0.08427758  0.30211183  1
  Sc  Sc66  1  0.10107491  0.50304175  0.70036190  1
  Sc  Sc67  1  0.69872972  0.69819124  0.49840798  1
  Sc  Sc68  1  0.70563607  0.90663409  0.90537407  1
  Sc  Sc69  1  0.70150089  0.69249103  0.90047601  1
  Sc  Sc70  1  0.89986361  0.10170306  0.90179886  1
  Sc  Sc71  1  0.50325522  0.70391655  0.30630063  1
  Sc  Sc72  1  0.69407383  0.30240620  0.30569347  1
  Sc  Sc73  1  0.69942848  0.91031875  0.29760592  1
  Sc  Sc74  1  0.49686252  0.90631875  0.48704356  1
  Sc  Sc75  1  0.90016926  0.49765072  0.49968407  1
  Sc  Sc76  1  0.70961854  0.29849355  0.90022161  1
  Sc  Sc77  1  0.71040221  0.69319691  0.10512183  1
  Sc  Sc78  1  0.49810853  0.30199278  0.51634702  1
  Sc  Sc79  1  0.90863802  0.09553423  0.09988353  1
  Sc  Sc80  1  0.70329983  0.49786169  0.89689240  1
  Sc  Sc81  1  0.90154043  0.49389261  0.10009996  1
  Sc  Sc82  1  0.28885357  0.50390816  0.10878878  1
  Sc  Sc83  1  0.30022571  0.09135867  0.50455628  1
  Sc  Sc84  1  0.09399223  0.90086382  0.49988532  1
  Sc  Sc85  1  0.09809158  0.90949355  0.70017469  1
  Sc  Sc86  1  0.70719564  0.49916909  0.69484278  1
  Sc  Sc87  1  0.89932937  0.10560241  0.49578637  1
  Sc  Sc88  1  0.29581233  0.09195631  0.69633137  1
  Sc  Sc89  1  0.29577445  0.71525188  0.29955294  1
  Sc  Sc90  1  0.71280809  0.30017743  0.50329126  1
  Sc  Sc91  1  0.09519455  0.71438366  0.49175340  1
  Sc  Sc92  1  0.50994192  0.70212608  0.49988268  1
  Sc  Sc93  1  0.29888106  0.09528976  0.90048939  1
  Sc  Sc94  1  0.90514925  0.70188257  0.29224379  1
  Sc  Sc95  1  0.50430387  0.10812517  0.09919952  1
  Sc  Sc96  1  0.28951484  0.70286890  0.10575868  1
  Sc  Sc97  1  0.10298285  0.10443519  0.69475949  1
  Sc  Sc98  1  0.71151868  0.90118601  0.10355555  1
  Sc  Sc99  1  0.09729125  0.70385174  0.89989355  1
  Nb  Nb100  1  0.90208520  0.09490762  0.29918014  1
  Nb  Nb101  1  0.49956092  0.30393377  0.09975625  1
  Nb  Nb102  1  0.09848934  0.09477447  0.49563542  1
  Nb  Nb103  1  0.10174935  0.28971717  0.29858959  1
  Nb  Nb104  1  0.90072246  0.90318493  0.29585792  1
  Nb  Nb105  1  0.50690749  0.29515301  0.70389794  1
  Nb  Nb106  1  0.10277818  0.50628107  0.89554740  1
  Nb  Nb107  1  0.49939856  0.69859012  0.10213359  1
  Nb  Nb108  1  0.29417503  0.70183150  0.50074928  1
  Nb  Nb109  1  0.30063152  0.29701376  0.90309908  1
  Nb  Nb110  1  0.29355722  0.89465036  0.10037708  1
  Nb  Nb111  1  0.90329451  0.30087951  0.50000532  1
  Nb  Nb112  1  0.50008655  0.10684611  0.69704928  1
  Nb  Nb113  1  0.70102150  0.90594650  0.69793040  1
  Nb  Nb114  1  0.70404383  0.50763546  0.29772494  1
  Nb  Nb115  1  0.89897433  0.70246663  0.69634117  1
  Nb  Nb116  1  0.08979151  0.10725479  0.29723537  1
  Nb  Nb117  1  0.10276465  0.09889079  0.10084051  1
  Nb  Nb118  1  0.08783546  0.90169664  0.30608306  1
  Nb  Nb119  1  0.90267782  0.70598630  0.50185376  1
  Nb  Nb120  1  0.09467609  0.29716680  0.69962408  1
  Nb  Nb121  1  0.10831195  0.90417692  0.08979419  1
  Nb  Nb122  1  0.69503155  0.10074562  0.89989592  1
  Nb  Nb123  1  0.29715173  0.49842775  0.50174115  1
  Nb  Nb124  1  0.70639574  0.69182621  0.29563657  1
  Nb  Nb125  1  0.19822606  0.20281175  0.00171545  1
  Nb  Nb126  1  0.20245833  0.39381904  -0.00426846  1
  Nb  Nb127  1  0.59295152  0.19828843  0.40405613  1
  Nb  Nb128  1  0.60281310  0.00596577  0.79510989  1
  Nb  Nb129  1  0.60209911  0.79574742  0.19681669  1
  Nb  Nb130  1  0.80446096  0.79992732  0.39446434  1
  Nb  Nb131  1  0.00269820  0.59839399  -0.00155194  1
  Nb  Nb132  1  0.20020909  0.80123196  0.80047921  1
  Nb  Nb133  1  0.20256108  0.60376739  0.59075534  1
  Nb  Nb134  1  0.79997358  0.39674141  0.20757567  1
  Nb  Nb135  1  0.40014968  0.60380225  0.20826888  1
  Nb  Nb136  1  0.59884726  0.19527529  0.79716576  1
  Nb  Nb137  1  0.18740390  0.00213344  0.39252288  1
  Nb  Nb138  1  0.59536744  0.79565736  0.00749064  1
  Nb  Nb139  1  0.40239830  0.20261999  0.40142068  1
  Nb  Nb140  1  0.59470661  0.40139005  0.00549565  1
  Nb  Nb141  1  0.39784022  0.40009019  0.00278239  1
  Nb  Nb142  1  0.39231207  0.60002534  0.40499135  1
  Nb  Nb143  1  0.20459041  0.59959578  0.40331346  1
  Nb  Nb144  1  0.39873340  0.79962884  0.00679753  1
  Nb  Nb145  1  0.80412848  0.19817170  0.20382489  1
  Nb  Nb146  1  0.39571411  0.59880620  0.59569716  1
  Nb  Nb147  1  0.40328699  0.20182342  0.79477699  1
  Nb  Nb148  1  0.00169392  0.39711692  0.79820254  1
  Nb  Nb149  1  0.60036840  0.00015488  0.61042112  1
  Pd  Pd150  1  0.59047695  0.81084743  0.59911834  1
  Pd  Pd151  1  0.38882270  0.59982965  0.01439113  1
  Pd  Pd152  1  0.61382593  0.80018164  0.38950370  1
  Pd  Pd153  1  0.00703628  0.60708033  0.58926126  1
  Pd  Pd154  1  0.78705423  0.40174757  0.01104720  1
  Pd  Pd155  1  0.19140306  0.39584269  0.80179316  1
  Pd  Pd156  1  -0.00547454  0.19823659  0.79666355  1
  Pd  Pd157  1  0.60036652  0.59517213  0.60289574  1
  Pd  Pd158  1  0.18890788  0.39910874  0.39665690  1
  Pd  Pd159  1  -0.00293735  0.00090294  0.79608682  1
  Pd  Pd160  1  0.38668495  0.20756118  0.60250710  1
  Pd  Pd161  1  -0.00355480  0.00429705  0.60136492  1
  Pd  Pd162  1  0.59450170  0.38810432  0.40706373  1
  Pd  Pd163  1  0.18561827  0.79521048  0.61000075  1
  Pd  Pd164  1  0.39834381  0.00752397  0.19684452  1
  Pd  Pd165  1  0.00107130  0.40082616  0.60639537  1
  Pd  Pd166  1  0.61225199  0.59803896  0.79210755  1
  Pd  Pd167  1  0.19141569  -0.00397792  0.20480310  1
  Pd  Pd168  1  0.79885833  0.60610254  0.79620847  1
  Pd  Pd169  1  0.40738836  -0.01192674  0.60521547  1
  Pd  Pd170  1  0.20650822  0.19159190  0.40757282  1
  Pd  Pd171  1  0.59717779  0.20965072  -0.00963157  1
  Pd  Pd172  1  0.79463119  0.80088546  0.80812180  1
  Pd  Pd173  1  0.00403185  -0.00497520  0.19375896  1
  Pd  Pd174  1  0.39684386  0.39936388  0.61035843  1
  Pd  Pd175  1  0.60459768  0.60006369  -0.00038604  1
  Pd  Pd176  1  0.61150490  0.80689095  0.81130513  1
  Pd  Pd177  1  0.79769150  0.60146056  0.59155212  1
  Pd  Pd178  1  0.40289746  0.00549131  0.79225332  1
  Pd  Pd179  1  0.80186978  0.00098259  0.80708983  1
  Pd  Pd180  1  0.79260231  0.79602975  -0.00589409  1
  Pd  Pd181  1  0.81025569  0.61131647  0.40223802  1
  Pd  Pd182  1  0.39344879  -0.00291864  0.00988502  1
  Pd  Pd183  1  0.00180219  0.80509092  0.60665656  1
  Pd  Pd184  1  0.79978860  0.19178407  0.00787156  1
  Pd  Pd185  1  0.80653663  0.00469150  0.00088538  1
  Pd  Pd186  1  0.40955542  0.79983185  0.58944929  1
  Pd  Pd187  1  0.80318213  0.39519494  0.39538244  1
  Pd  Pd188  1  0.00614547  0.80793098  0.19177168  1
  Pd  Pd189  1  0.20674857  0.19280785  0.80321375  1
  Pd  Pd190  1  0.39758282  0.39216480  0.80055268  1
  Pd  Pd191  1  0.80621690  -0.00774378  0.40027478  1
  Pd  Pd192  1  0.20396307  0.19764474  0.59449064  1
  Pd  Pd193  1  0.18824439  0.81005807  0.20530232  1
  Pd  Pd194  1  0.39983775  0.79419563  0.40488596  1
  Pd  Pd195  1  0.60924519  0.19651628  0.59804884  1
  Pd  Pd196  1  0.41153089  0.18931382  0.20987524  1
  Pd  Pd197  1  -0.00524019  0.59877490  0.19027814  1
  Pd  Pd198  1  0.80968525  0.39999074  0.79532572  1
  Pd  Pd199  1  0.61053481  0.40222321  0.59319103  1
  Rh  Rh200  1  0.38754036  0.79951964  0.81275425  1
  Rh  Rh201  1  0.01076616  0.40997080  -0.01364704  1
  Rh  Rh202  1  0.40861807  0.39464455  0.40013862  1
  Rh  Rh203  1  0.19454300  0.80630810  0.39342758  1
  Rh  Rh204  1  -0.00543479  0.19602929  0.19684983  1
  Rh  Rh205  1  0.19741481  0.61205191  0.78954677  1
  Rh  Rh206  1  0.19386229  -0.00134975  0.59033503  1
  Rh  Rh207  1  0.79309354  0.80557877  0.21183763  1
  Rh  Rh208  1  0.19163552  0.20149634  0.19136907  1
  Rh  Rh209  1  0.80609583  0.80010132  0.59109415  1
  Rh  Rh210  1  0.60280821  0.00440492  0.40890625  1
  Rh  Rh211  1  0.60115664  -0.00521845  0.19518631  1
  Rh  Rh212  1  0.00334105  0.80682667  0.79409049  1
  Rh  Rh213  1  0.60985935  0.40345373  0.19627321  1
  Rh  Rh214  1  -0.00634058  0.39539009  0.21115627  1
  Rh  Rh215  1  0.38231636  0.00890705  0.39358963  1
  Rh  Rh216  1  0.00325540  0.60612382  0.40471235  1
  Rh  Rh217  1  0.79686066  0.20311479  0.39522828  1
  Rh  Rh218  1  0.00221003  -0.00106439  0.00177135  1
  Rh  Rh219  1  0.59812071  0.19493363  0.21183398  1
  Rh  Rh220  1  0.39706339  0.20446860  -0.00590511  1
  Rh  Rh221  1  0.19947901  0.00877593  0.00268046  1
  Rh  Rh222  1  0.00882190  0.18605701  0.00049024  1
  Rh  Rh223  1  0.00436976  0.79483671  0.00490950  1
  Rh  Rh224  1  0.19301655  0.59337003  0.00138912  1
  Rh  Rh225  1  0.80648525  0.00722303  0.19693591  1
  Rh  Rh226  1  0.00021217  0.00643958  0.39760911  1
  Rh  Rh227  1  0.80345624  0.40646804  0.59473386  1
  Rh  Rh228  1  0.81023100  0.60063269  -0.00209247  1
  Rh  Rh229  1  0.00588922  0.39021240  0.39757855  1
  Rh  Rh230  1  0.40125888  0.59633042  0.78759707  1
  Rh  Rh231  1  0.00174059  0.19468813  0.40615700  1
  Rh  Rh232  1  0.18838336  0.40328597  0.60170654  1
  Rh  Rh233  1  0.39814932  0.40958562  0.19385877  1
  Rh  Rh234  1  0.19854541  -0.00518294  0.79703959  1
  Rh  Rh235  1  0.81311334  0.59083708  0.20323278  1
  Rh  Rh236  1  0.80299541  -0.00098601  0.59576815  1
  Rh  Rh237  1  0.60707722  0.39340590  0.80894227  1
  Rh  Rh238  1  0.59331786  0.60948021  0.21047721  1
  Rh  Rh239  1  -0.01309025  0.80179626  0.39660636  1
  Rh  Rh240  1  0.19865382  0.38802785  0.19532627  1
  Rh  Rh241  1  0.80068047  0.19917065  0.80437397  1
  Rh  Rh242  1  0.20297851  0.80213509  -0.00744127  1
  Rh  Rh243  1  0.80649700  0.20123935  0.59372631  1
  Rh  Rh244  1  0.20964477  0.60356298  0.21821269  1
  Rh  Rh245  1  0.40533525  0.79406499  0.19364685  1
  Rh  Rh246  1  -0.00029260  0.19405159  0.59549153  1
  Rh  Rh247  1  0.60299871  -0.00738656  -0.00091641  1
  Rh  Rh248  1  0.59634435  0.60215249  0.39657811  1
  Rh  Rh249  1  -0.00436331  0.59593286  0.80665742  1
