# generated using pymatgen
data_ZrScNbPdRh
_symmetry_space_group_name_H-M   'P 1'
_cell_length_a   16.55728132
_cell_length_b   16.55442063
_cell_length_c   16.55996286
_cell_angle_alpha   90.01425574
_cell_angle_beta   90.00483138
_cell_angle_gamma   89.99379317
_symmetry_Int_Tables_number   1
_chemical_formula_structural   ZrScNbPdRh
_chemical_formula_sum   'Zr50 Sc50 Nb50 Pd50 Rh50'
_cell_volume   4539.02270256
_cell_formula_units_Z   50
loop_
 _symmetry_equiv_pos_site_id
 _symmetry_equiv_pos_as_xyz
  1  'x, y, z'
loop_
 _atom_site_type_symbol
 _atom_site_label
 _atom_site_symmetry_multiplicity
 _atom_site_fract_x
 _atom_site_fract_y
 _atom_site_fract_z
 _atom_site_occupancy
  Zr  Zr0  1  0.09715348  0.89669935  0.29360595  1
  Zr  Zr1  1  0.89212348  0.49230017  0.70233805  1
  Zr  Zr2  1  0.29993629  0.68902875  0.90297435  1
  Zr  Zr3  1  0.89571202  0.49291041  0.09906099  1
  Zr  Zr4  1  0.70096065  0.90169149  0.89458606  1
  Zr  Zr5  1  0.90194697  0.11026580  0.10571463  1
  Zr  Zr6  1  0.09402954  0.50010861  0.10112278  1
  Zr  Zr7  1  0.29812749  0.29707916  0.09815074  1
  Zr  Zr8  1  0.69784519  0.10355059  0.50185409  1
  Zr  Zr9  1  0.10675130  0.69747643  0.30101831  1
  Zr  Zr10  1  0.48823508  0.10157114  0.09718658  1
  Zr  Zr11  1  0.10024062  0.50196393  0.90542662  1
  Zr  Zr12  1  0.09982743  0.09965425  0.90377905  1
  Zr  Zr13  1  0.30826920  0.90541348  0.89717620  1
  Zr  Zr14  1  0.30041166  0.50148463  0.29784909  1
  Zr  Zr15  1  0.89879186  0.50889692  0.89861572  1
  Zr  Zr16  1  0.89508575  0.70491247  0.29802060  1
  Zr  Zr17  1  0.08993522  0.69536414  0.89826412  1
  Zr  Zr18  1  0.69902431  0.30396535  0.10118814  1
  Zr  Zr19  1  0.69787622  0.90129619  0.50105593  1
  Zr  Zr20  1  0.69319773  0.30100702  0.30402008  1
  Zr  Zr21  1  0.50410480  0.70307975  0.69483169  1
  Zr  Zr22  1  0.69234846  0.70269841  0.49461896  1
  Zr  Zr23  1  0.71203072  0.09490684  0.69574112  1
  Zr  Zr24  1  0.69513266  0.89928566  0.69862840  1
  Zr  Zr25  1  0.89464847  0.69590790  0.09555674  1
  Zr  Zr26  1  0.29803379  0.49046705  0.89694877  1
  Zr  Zr27  1  0.70295180  0.69662965  0.10540472  1
  Zr  Zr28  1  0.30165844  0.30916670  0.70078374  1
  Zr  Zr29  1  0.90078625  0.29702174  0.69818354  1
  Zr  Zr30  1  0.49692996  0.30169553  0.09584632  1
  Zr  Zr31  1  0.09012337  0.90490597  0.90059058  1
  Zr  Zr32  1  0.50135423  0.69336460  0.30637192  1
  Zr  Zr33  1  0.09274887  0.09873013  0.70665642  1
  Zr  Zr34  1  0.69680817  0.49855903  0.70272770  1
  Zr  Zr35  1  0.10785276  0.89882473  0.69649218  1
  Zr  Zr36  1  0.90504061  0.09599733  0.88878647  1
  Zr  Zr37  1  0.69647120  0.69926785  0.69991202  1
  Zr  Zr38  1  0.90138990  0.69912828  0.71139909  1
  Zr  Zr39  1  0.10910950  0.30702683  0.90987203  1
  Zr  Zr40  1  0.49306774  0.89900072  0.50030182  1
  Zr  Zr41  1  0.29528983  0.89369113  0.50278701  1
  Zr  Zr42  1  0.89293402  0.10193480  0.50185572  1
  Zr  Zr43  1  0.30090076  0.10016881  0.29581425  1
  Zr  Zr44  1  0.09674700  0.09947455  0.29743199  1
  Zr  Zr45  1  0.29208423  0.30045910  0.30073390  1
  Zr  Zr46  1  0.10001439  0.70361469  0.10457649  1
  Zr  Zr47  1  0.90246732  0.30097697  0.49884445  1
  Zr  Zr48  1  0.91039188  0.90376987  0.09850086  1
  Zr  Zr49  1  0.49488348  0.90598021  0.30192989  1
  Sc  Sc50  1  0.49732440  0.69570238  0.50051434  1
  Sc  Sc51  1  0.49571996  0.49232268  0.89958925  1
  Sc  Sc52  1  0.49925668  0.49602189  0.10786184  1
  Sc  Sc53  1  0.09477263  0.30539172  0.70037634  1
  Sc  Sc54  1  0.69321989  0.11170001  0.88898930  1
  Sc  Sc55  1  0.68915744  0.50420698  0.29231710  1
  Sc  Sc56  1  0.90767770  0.90035391  0.29936717  1
  Sc  Sc57  1  0.50370429  0.70203135  0.89397659  1
  Sc  Sc58  1  0.30369953  0.89117611  0.30393771  1
  Sc  Sc59  1  0.50241822  0.30580243  0.69199822  1
  Sc  Sc60  1  0.50273312  0.49991229  0.29864040  1
  Sc  Sc61  1  0.30352030  0.29863450  0.50200536  1
  Sc  Sc62  1  0.89540861  0.29786570  0.29211495  1
  Sc  Sc63  1  0.31103749  0.09609702  0.90751776  1
  Sc  Sc64  1  0.49947253  0.90270348  0.89245831  1
  Sc  Sc65  1  0.70456920  0.49793591  0.10494950  1
  Sc  Sc66  1  0.90854711  0.49202076  0.49585492  1
  Sc  Sc67  1  0.89151195  0.90437176  0.70791345  1
  Sc  Sc68  1  0.29779190  0.69489238  0.11246740  1
  Sc  Sc69  1  0.50055121  0.70100068  0.10204897  1
  Sc  Sc70  1  0.50314168  0.29649595  0.49987908  1
  Sc  Sc71  1  0.49864344  0.90176021  0.10287360  1
  Sc  Sc72  1  0.30486351  0.49816764  0.69493790  1
  Sc  Sc73  1  0.30623036  0.89716740  0.11565241  1
  Sc  Sc74  1  0.70109683  0.10157125  0.11124030  1
  Sc  Sc75  1  0.90074702  0.49573416  0.29834942  1
  Sc  Sc76  1  0.30268287  0.09059150  0.70328458  1
  Sc  Sc77  1  0.30098548  0.69746266  0.69066439  1
  Sc  Sc78  1  0.69812657  0.30301844  0.70626099  1
  Sc  Sc79  1  0.50080293  0.10240936  0.49614428  1
  Sc  Sc80  1  0.30832060  0.89890469  0.69670402  1
  Sc  Sc81  1  0.89802598  0.10218260  0.29714189  1
  Sc  Sc82  1  0.70557457  0.70537612  0.89726950  1
  Sc  Sc83  1  0.70107312  0.10155196  0.30383310  1
  Sc  Sc84  1  0.11300565  0.49959112  0.69465358  1
  Sc  Sc85  1  0.09395385  0.10338398  0.10216651  1
  Sc  Sc86  1  0.90279515  0.31157191  0.89537137  1
  Sc  Sc87  1  0.70177901  0.89939395  0.09959169  1
  Sc  Sc88  1  0.50508323  0.50325880  0.49760924  1
  Sc  Sc89  1  0.10461275  0.49210200  0.30860204  1
  Sc  Sc90  1  0.10659755  0.69858223  0.69824842  1
  Sc  Sc91  1  0.50573243  0.10039038  0.69822031  1
  Sc  Sc92  1  0.90094908  0.89316907  0.89688296  1
  Sc  Sc93  1  0.30798285  0.09734087  0.49973120  1
  Sc  Sc94  1  0.30002648  0.70077608  0.49739002  1
  Sc  Sc95  1  0.50350372  0.50014093  0.69671149  1
  Sc  Sc96  1  0.30641362  0.49874204  0.10059388  1
  Sc  Sc97  1  0.69146439  0.29317110  0.49621479  1
  Sc  Sc98  1  0.30287713  0.70106381  0.30220484  1
  Sc  Sc99  1  0.09683732  0.09818381  0.49949925  1
  Nb  Nb100  1  0.50027213  0.89382332  0.70134939  1
  Nb  Nb101  1  0.10084353  0.89980773  0.10043554  1
  Nb  Nb102  1  0.08691275  0.30090589  0.10280149  1
  Nb  Nb103  1  0.69947833  0.49183992  0.89493737  1
  Nb  Nb104  1  0.90306493  0.89809845  0.49389934  1
  Nb  Nb105  1  0.49603402  0.10119967  0.29906590  1
  Nb  Nb106  1  0.89785439  0.30100663  0.10340613  1
  Nb  Nb107  1  0.70052775  0.50233061  0.49786169  1
  Nb  Nb108  1  0.70052034  0.89617084  0.30498448  1
  Nb  Nb109  1  0.09816777  0.89818914  0.49607779  1
  Nb  Nb110  1  0.68647899  0.30379821  0.90556407  1
  Nb  Nb111  1  0.10403804  0.29854420  0.30591547  1
  Nb  Nb112  1  0.10201365  0.70019327  0.50085806  1
  Nb  Nb113  1  0.49914119  0.10442486  0.90804972  1
  Nb  Nb114  1  0.70164374  0.70171534  0.29854265  1
  Nb  Nb115  1  0.50629143  0.28945270  0.90876967  1
  Nb  Nb116  1  0.49952793  0.30474331  0.30180981  1
  Nb  Nb117  1  0.10067240  0.30723741  0.49173741  1
  Nb  Nb118  1  0.30198704  0.09447027  0.09940359  1
  Nb  Nb119  1  0.90031173  0.70034717  0.49563862  1
  Nb  Nb120  1  0.10357725  0.50121785  0.49562972  1
  Nb  Nb121  1  0.29946080  0.49720178  0.49833468  1
  Nb  Nb122  1  0.90211387  0.69819582  0.89495572  1
  Nb  Nb123  1  0.30412231  0.30379179  0.90020812  1
  Nb  Nb124  1  0.89956465  0.10207864  0.69617718  1
  Nb  Nb125  1  0.80008416  -0.00693682  0.40353936  1
  Nb  Nb126  1  0.39264478  0.79823439  -0.00146513  1
  Nb  Nb127  1  0.79752106  0.60017541  0.40204963  1
  Nb  Nb128  1  0.20240597  -0.00524085  0.00926693  1
  Nb  Nb129  1  -0.00124887  0.60121008  0.20075265  1
  Nb  Nb130  1  0.60523077  0.59708434  -0.00179472  1
  Nb  Nb131  1  0.19704548  0.20131926  0.60498358  1
  Nb  Nb132  1  0.20152356  0.80489408  -0.00070563  1
  Nb  Nb133  1  0.79927837  0.00919301  -0.00340222  1
  Nb  Nb134  1  0.00456253  0.20656183  0.39892266  1
  Nb  Nb135  1  0.20218338  0.80034270  0.80916718  1
  Nb  Nb136  1  0.80706576  0.79635578  0.59343735  1
  Nb  Nb137  1  0.00032950  0.60363801  0.59174252  1
  Nb  Nb138  1  -0.00161361  0.79973840  0.59320409  1
  Nb  Nb139  1  0.58862354  0.20074604  0.20465686  1
  Nb  Nb140  1  0.39876295  0.40074573  0.39794967  1
  Nb  Nb141  1  0.80383283  0.60162232  0.59326924  1
  Nb  Nb142  1  0.60532413  0.80033377  0.20977241  1
  Nb  Nb143  1  -0.00573410  -0.00523214  0.59745513  1
  Nb  Nb144  1  0.79214434  0.40389941  0.40127823  1
  Nb  Nb145  1  0.40327376  0.20504652  0.80802992  1
  Nb  Nb146  1  0.19507433  -0.00523123  0.40013207  1
  Nb  Nb147  1  0.60095070  0.00702327  -0.00244766  1
  Nb  Nb148  1  0.20771584  0.20461096  0.80267697  1
  Nb  Nb149  1  0.79975773  0.20383817  -0.00183040  1
  Pd  Pd150  1  0.00699490  0.58924239  0.78705485  1
  Pd  Pd151  1  0.79071688  0.59864682  -0.00871104  1
  Pd  Pd152  1  0.00239142  0.40004454  0.20853211  1
  Pd  Pd153  1  0.19411851  0.20114566  0.19103124  1
  Pd  Pd154  1  0.59297974  0.20391735  0.79107299  1
  Pd  Pd155  1  0.60214422  0.39967530  0.59362042  1
  Pd  Pd156  1  0.59172613  0.00065081  0.59960828  1
  Pd  Pd157  1  0.59147043  0.80129632  0.39740679  1
  Pd  Pd158  1  0.19657765  0.40107271  0.19429193  1
  Pd  Pd159  1  0.00700144  0.20975187  0.80738979  1
  Pd  Pd160  1  0.20601115  0.60171030  0.40231973  1
  Pd  Pd161  1  0.00758553  0.40745316  0.79904986  1
  Pd  Pd162  1  0.00564514  0.79550024  0.39874515  1
  Pd  Pd163  1  0.59896779  0.59649250  0.80824338  1
  Pd  Pd164  1  0.00691364  0.19698838  0.59410963  1
  Pd  Pd165  1  0.40228536  0.20589409  0.39979033  1
  Pd  Pd166  1  0.40201441  0.59787530  0.79446687  1
  Pd  Pd167  1  0.19953863  0.39503376  0.59345062  1
  Pd  Pd168  1  0.59197244  0.80198604  0.00499079  1
  Pd  Pd169  1  0.20134164  0.60198572  0.00939360  1
  Pd  Pd170  1  0.19636849  0.00765085  0.59220736  1
  Pd  Pd171  1  0.20339334  0.60131579  0.79425191  1
  Pd  Pd172  1  0.79292010  0.39747095  0.59231541  1
  Pd  Pd173  1  -0.00888504  0.20775255  -0.00583685  1
  Pd  Pd174  1  0.40567850  0.00086822  0.60303789  1
  Pd  Pd175  1  -0.00015072  0.79548999  0.00044116  1
  Pd  Pd176  1  0.60338905  0.00535540  0.39877408  1
  Pd  Pd177  1  0.20589387  0.19076799  0.00065754  1
  Pd  Pd178  1  0.79975367  0.81024401  0.19721099  1
  Pd  Pd179  1  0.59554880  0.00475984  0.80258850  1
  Pd  Pd180  1  0.19802788  0.19141021  0.41103422  1
  Pd  Pd181  1  0.41099385  0.60231381  0.00213537  1
  Pd  Pd182  1  0.20468743  0.00239859  0.80826963  1
  Pd  Pd183  1  0.80068344  0.39497921  -0.00624185  1
  Pd  Pd184  1  0.39423260  0.79221057  0.80072973  1
  Pd  Pd185  1  0.79972955  0.20831394  0.80619228  1
  Pd  Pd186  1  0.40420828  0.60130374  0.20072368  1
  Pd  Pd187  1  0.59893558  0.00004797  0.19718343  1
  Pd  Pd188  1  0.41195251  0.39339987  0.80055152  1
  Pd  Pd189  1  0.39553709  0.19745242  0.60984415  1
  Pd  Pd190  1  0.20215739  -0.00342360  0.20131207  1
  Pd  Pd191  1  0.59666145  0.41188055  0.00347654  1
  Pd  Pd192  1  0.40061628  0.20564510  0.20204802  1
  Pd  Pd193  1  0.80386657  -0.00534004  0.20461400  1
  Pd  Pd194  1  0.00657797  0.40858558  0.60130612  1
  Pd  Pd195  1  0.20226589  0.40421204  0.01235473  1
  Pd  Pd196  1  0.40103807  0.59619769  0.59705923  1
  Pd  Pd197  1  0.80271787  0.80664182  -0.00187173  1
  Pd  Pd198  1  0.79214222  0.21180452  0.60146168  1
  Pd  Pd199  1  -0.00353185  0.59629656  0.39688930  1
  Rh  Rh200  1  0.19747277  0.39911611  0.80024116  1
  Rh  Rh201  1  0.19802802  0.79559646  0.60327268  1
  Rh  Rh202  1  0.40227064  -0.01080823  0.00504400  1
  Rh  Rh203  1  0.59974318  0.80121588  0.79915729  1
  Rh  Rh204  1  0.40091809  0.39885642  -0.00064810  1
  Rh  Rh205  1  0.79026198  0.20655581  0.19741731  1
  Rh  Rh206  1  0.19924240  0.59687145  0.59032166  1
  Rh  Rh207  1  0.60462113  0.59832766  0.39826992  1
  Rh  Rh208  1  0.60331268  0.19892960  0.60437402  1
  Rh  Rh209  1  0.59747618  0.40499541  0.40168070  1
  Rh  Rh210  1  0.41071123  0.79488714  0.19975733  1
  Rh  Rh211  1  0.39060387  0.00184563  0.39674655  1
  Rh  Rh212  1  0.59781248  0.60758837  0.19297115  1
  Rh  Rh213  1  0.41223388  0.00938125  0.79376001  1
  Rh  Rh214  1  -0.00527876  -0.00609123  0.78993306  1
  Rh  Rh215  1  -0.00214048  0.00287205  0.19661660  1
  Rh  Rh216  1  0.40246027  0.79853588  0.59916969  1
  Rh  Rh217  1  0.80719018  0.59345395  0.21016915  1
  Rh  Rh218  1  -0.00153326  0.00612153  0.00505863  1
  Rh  Rh219  1  0.19764015  0.80337564  0.39773296  1
  Rh  Rh220  1  0.61111179  0.19096287  0.01124514  1
  Rh  Rh221  1  0.59722692  0.39424958  0.19811993  1
  Rh  Rh222  1  0.79554599  0.40018106  0.20920017  1
  Rh  Rh223  1  0.79909219  0.80234158  0.40057874  1
  Rh  Rh224  1  0.79438863  0.59954774  0.80041613  1
  Rh  Rh225  1  -0.00505299  0.60035579  0.00598145  1
  Rh  Rh226  1  0.59728006  0.80188305  0.59769975  1
  Rh  Rh227  1  0.80836650  0.20152643  0.39763194  1
  Rh  Rh228  1  0.60337115  0.59849597  0.59947658  1
  Rh  Rh229  1  0.79954998  0.00297817  0.80427162  1
  Rh  Rh230  1  0.40223103  0.79644179  0.40314374  1
  Rh  Rh231  1  0.39057257  0.20540481  -0.00339984  1
  Rh  Rh232  1  0.00752374  0.80381514  0.79288297  1
  Rh  Rh233  1  0.39711158  0.39542254  0.20722715  1
  Rh  Rh234  1  0.80754009  -0.00946991  0.59472215  1
  Rh  Rh235  1  0.40478318  0.40700271  0.58704285  1
  Rh  Rh236  1  0.79485012  0.39464258  0.80489577  1
  Rh  Rh237  1  0.59161092  0.19331679  0.39309794  1
  Rh  Rh238  1  0.20197478  0.80085492  0.20015162  1
  Rh  Rh239  1  -0.00425036  0.39830130  0.00018983  1
  Rh  Rh240  1  0.19381334  0.59237368  0.20196740  1
  Rh  Rh241  1  0.39654412  0.59080061  0.40247519  1
  Rh  Rh242  1  0.59549791  0.39697119  0.80330850  1
  Rh  Rh243  1  -0.00433341  0.39283934  0.39345238  1
  Rh  Rh244  1  -0.00249449  0.01074658  0.40455144  1
  Rh  Rh245  1  0.79755937  0.79840195  0.79626973  1
  Rh  Rh246  1  0.39743844  0.00027217  0.20456489  1
  Rh  Rh247  1  -0.00230734  0.79359757  0.19859724  1
  Rh  Rh248  1  0.20848992  0.40039376  0.40534848  1
  Rh  Rh249  1  0.00494127  0.20881986  0.20824887  1
