# generated using pymatgen
data_ZrScNbPdRh
_symmetry_space_group_name_H-M   'P 1'
_cell_length_a   16.56056050
_cell_length_b   16.55825504
_cell_length_c   16.55859202
_cell_angle_alpha   90.03615996
_cell_angle_beta   90.02575651
_cell_angle_gamma   89.94025391
_symmetry_Int_Tables_number   1
_chemical_formula_structural   ZrScNbPdRh
_chemical_formula_sum   'Zr50 Sc50 Nb50 Pd50 Rh50'
_cell_volume   4540.59366284
_cell_formula_units_Z   50
loop_
 _symmetry_equiv_pos_site_id
 _symmetry_equiv_pos_as_xyz
  1  'x, y, z'
loop_
 _atom_site_type_symbol
 _atom_site_label
 _atom_site_symmetry_multiplicity
 _atom_site_fract_x
 _atom_site_fract_y
 _atom_site_fract_z
 _atom_site_occupancy
  Zr  Zr0  1  0.89427693  0.90503091  0.29852624  1
  Zr  Zr1  1  0.29900177  0.30962840  0.10174566  1
  Zr  Zr2  1  0.30138013  0.90236075  0.10223163  1
  Zr  Zr3  1  0.10279999  0.89528825  0.10353652  1
  Zr  Zr4  1  0.90297244  0.29492014  0.50166016  1
  Zr  Zr5  1  0.49370910  0.70179544  0.70026865  1
  Zr  Zr6  1  0.29826401  0.50440587  0.11022455  1
  Zr  Zr7  1  0.90882880  0.70847047  0.50503518  1
  Zr  Zr8  1  0.29981406  0.70125097  0.69375010  1
  Zr  Zr9  1  0.71183960  0.71431016  0.90379552  1
  Zr  Zr10  1  0.90746901  0.49584900  0.50338583  1
  Zr  Zr11  1  0.50090198  0.49887219  0.29957158  1
  Zr  Zr12  1  0.49764162  0.89750725  0.49440731  1
  Zr  Zr13  1  0.89499842  0.09325353  0.50172454  1
  Zr  Zr14  1  0.69912112  0.49612953  0.90292755  1
  Zr  Zr15  1  0.09276925  0.29111438  0.30298409  1
  Zr  Zr16  1  0.30140658  0.09218434  0.30284387  1
  Zr  Zr17  1  0.69593198  0.29715085  0.29763875  1
  Zr  Zr18  1  0.69181409  0.29944016  0.49972137  1
  Zr  Zr19  1  0.69873875  0.50411644  0.30093901  1
  Zr  Zr20  1  0.10438061  0.09684329  0.29965689  1
  Zr  Zr21  1  0.69259627  0.89671984  0.09733445  1
  Zr  Zr22  1  0.89462789  0.50590396  0.30171353  1
  Zr  Zr23  1  0.89987991  0.29910765  0.30353074  1
  Zr  Zr24  1  0.50137126  0.09837272  0.50306206  1
  Zr  Zr25  1  0.09622842  0.09590233  0.09826153  1
  Zr  Zr26  1  0.90268327  0.89644325  0.09780306  1
  Zr  Zr27  1  0.50325379  0.50489713  0.90429516  1
  Zr  Zr28  1  0.50359342  0.30146414  0.50157212  1
  Zr  Zr29  1  0.88498497  0.88498034  0.89309863  1
  Zr  Zr30  1  0.90098515  0.48855205  0.89335973  1
  Zr  Zr31  1  0.68980426  0.50122927  0.49703495  1
  Zr  Zr32  1  0.49346155  0.90379501  0.69375358  1
  Zr  Zr33  1  0.49921097  0.50753037  0.09818506  1
  Zr  Zr34  1  0.29616791  0.50228744  0.29098931  1
  Zr  Zr35  1  0.91013619  0.29660346  0.89742387  1
  Zr  Zr36  1  0.29555422  0.90156969  0.69821920  1
  Zr  Zr37  1  0.90422017  0.69928120  0.70490964  1
  Zr  Zr38  1  0.09377576  0.50131783  0.69569263  1
  Zr  Zr39  1  0.50409562  0.50862170  0.69257679  1
  Zr  Zr40  1  0.69061614  0.50403299  0.09743307  1
  Zr  Zr41  1  0.90222230  0.30112424  0.70745297  1
  Zr  Zr42  1  0.69860060  0.69648279  0.30355451  1
  Zr  Zr43  1  0.71059043  0.08802701  0.28820295  1
  Zr  Zr44  1  0.10905848  0.70091701  0.50006890  1
  Zr  Zr45  1  0.29875204  0.30308158  0.70240963  1
  Zr  Zr46  1  0.89698238  0.89854562  0.50737384  1
  Zr  Zr47  1  0.49793065  0.30636670  0.69225275  1
  Zr  Zr48  1  0.29492214  0.69651518  0.30676705  1
  Zr  Zr49  1  0.70204875  0.29675479  0.90758869  1
  Sc  Sc50  1  0.50089600  0.70195358  0.50756729  1
  Sc  Sc51  1  0.49825993  0.90039158  0.29832610  1
  Sc  Sc52  1  0.28781590  0.50856008  0.51383462  1
  Sc  Sc53  1  0.90104815  0.09850413  0.09858244  1
  Sc  Sc54  1  0.29711476  0.90325673  0.90258402  1
  Sc  Sc55  1  0.69988031  0.09964248  0.51205175  1
  Sc  Sc56  1  0.09997428  0.49430850  0.89182492  1
  Sc  Sc57  1  0.10358083  0.50239238  0.10485173  1
  Sc  Sc58  1  0.09540840  0.30040555  0.50358099  1
  Sc  Sc59  1  0.10057527  0.30158445  0.69976196  1
  Sc  Sc60  1  0.90983078  0.69934585  0.09984033  1
  Sc  Sc61  1  0.91178772  0.70208650  0.90203793  1
  Sc  Sc62  1  0.50220415  0.70978087  0.31338536  1
  Sc  Sc63  1  0.90850914  0.10136088  0.89695471  1
  Sc  Sc64  1  0.49434960  0.69531101  0.89941408  1
  Sc  Sc65  1  0.10217369  0.69750801  0.70717451  1
  Sc  Sc66  1  0.30096170  0.70172982  0.88693548  1
  Sc  Sc67  1  0.49855167  0.09621795  0.09664697  1
  Sc  Sc68  1  0.30225948  0.89988281  0.50482377  1
  Sc  Sc69  1  0.09795705  0.30565725  0.09509420  1
  Sc  Sc70  1  0.90377320  0.69914486  0.29627056  1
  Sc  Sc71  1  0.50355750  0.29884563  0.29632092  1
  Sc  Sc72  1  0.90726203  0.10312479  0.29235342  1
  Sc  Sc73  1  0.50644201  0.10431096  0.69748943  1
  Sc  Sc74  1  0.70306250  0.29137550  0.70491986  1
  Sc  Sc75  1  0.70816554  0.90528887  0.69926767  1
  Sc  Sc76  1  0.50063021  0.09446086  0.29317598  1
  Sc  Sc77  1  0.09956314  0.08979203  0.70356172  1
  Sc  Sc78  1  0.10034069  0.89648868  0.90092058  1
  Sc  Sc79  1  0.30462013  0.70505208  0.10400132  1
  Sc  Sc80  1  0.50217898  0.91056923  0.90865049  1
  Sc  Sc81  1  0.49828647  0.29362287  0.90095099  1
  Sc  Sc82  1  0.30595284  0.09157737  0.10027732  1
  Sc  Sc83  1  0.29261516  0.50313228  0.70369116  1
  Sc  Sc84  1  0.69292236  0.70425130  0.49959377  1
  Sc  Sc85  1  0.10489523  0.10339249  0.49823827  1
  Sc  Sc86  1  0.69184203  0.69970005  0.69495324  1
  Sc  Sc87  1  0.30227938  0.30576664  0.29055423  1
  Sc  Sc88  1  0.50786754  0.29551245  0.10025952  1
  Sc  Sc89  1  0.90004046  0.89843940  0.69546540  1
  Sc  Sc90  1  0.10318576  0.70782337  0.29701870  1
  Sc  Sc91  1  0.29743024  0.50373000  0.89207418  1
  Sc  Sc92  1  0.29277512  0.29687646  0.51147576  1
  Sc  Sc93  1  0.29805046  0.09340965  0.50402523  1
  Sc  Sc94  1  0.09763734  0.09084423  0.89663343  1
  Sc  Sc95  1  0.90197753  0.29070787  0.08958320  1
  Sc  Sc96  1  0.30334305  0.90037661  0.30191301  1
  Sc  Sc97  1  0.49537771  0.89708035  0.10340279  1
  Sc  Sc98  1  0.30525106  0.30783652  0.89605806  1
  Sc  Sc99  1  0.90124543  0.10244031  0.70069280  1
  Nb  Nb100  1  0.11174484  0.90464128  0.69568360  1
  Nb  Nb101  1  0.30778546  0.10485361  0.90061700  1
  Nb  Nb102  1  0.69816836  0.90366044  0.89512725  1
  Nb  Nb103  1  0.30060754  0.69877055  0.50212044  1
  Nb  Nb104  1  0.09626493  0.70576658  0.09116459  1
  Nb  Nb105  1  0.69890042  0.69923408  0.09933165  1
  Nb  Nb106  1  0.90095130  0.49981049  0.70030857  1
  Nb  Nb107  1  0.09979499  0.50107827  0.50226540  1
  Nb  Nb108  1  0.70195845  0.10422711  0.09436484  1
  Nb  Nb109  1  0.29417055  0.09345831  0.70265217  1
  Nb  Nb110  1  0.70981036  0.90396592  0.49814502  1
  Nb  Nb111  1  0.49773193  0.10072576  0.90006462  1
  Nb  Nb112  1  0.10206540  0.29544283  0.89939781  1
  Nb  Nb113  1  0.69885378  0.89977475  0.29758240  1
  Nb  Nb114  1  0.09333591  0.89327902  0.49886445  1
  Nb  Nb115  1  0.09842511  0.69475810  0.90396941  1
  Nb  Nb116  1  0.10717613  0.50497435  0.29973409  1
  Nb  Nb117  1  0.69638768  0.09727764  0.71066515  1
  Nb  Nb118  1  0.70000322  0.50126939  0.70090331  1
  Nb  Nb119  1  0.49971582  0.49687751  0.50157752  1
  Nb  Nb120  1  0.89665367  0.50385490  0.10550245  1
  Nb  Nb121  1  0.09660504  0.89805265  0.30256793  1
  Nb  Nb122  1  0.68131003  0.09157925  0.89307930  1
  Nb  Nb123  1  0.50551744  0.69755724  0.09361207  1
  Nb  Nb124  1  0.70145720  0.29604089  0.09562088  1
  Nb  Nb125  1  0.40186806  0.40716083  0.00503606  1
  Nb  Nb126  1  0.39606493  0.59407370  0.40763572  1
  Nb  Nb127  1  0.78895488  -0.00044842  -0.00840684  1
  Nb  Nb128  1  0.80201971  0.59790761  0.00038141  1
  Nb  Nb129  1  0.61019263  -0.00567798  0.39959713  1
  Nb  Nb130  1  0.79694638  0.19677342  0.39886719  1
  Nb  Nb131  1  0.79308891  0.79813025  0.20061716  1
  Nb  Nb132  1  0.40077118  0.20384279  0.40201162  1
  Nb  Nb133  1  -0.00768977  0.40605116  0.20329191  1
  Nb  Nb134  1  0.60000836  0.80897605  0.80241691  1
  Nb  Nb135  1  0.20346232  0.19953078  -0.00362351  1
  Nb  Nb136  1  0.20528538  0.19533038  0.80565755  1
  Nb  Nb137  1  0.00909103  0.59696582  0.40198296  1
  Nb  Nb138  1  0.79913437  0.40058227  0.19298586  1
  Nb  Nb139  1  0.39841470  0.01028304  0.80199334  1
  Nb  Nb140  1  0.19930225  0.19648092  0.19426140  1
  Nb  Nb141  1  0.00280095  -0.00904885  0.40211346  1
  Nb  Nb142  1  0.39495541  0.40368177  0.40582699  1
  Nb  Nb143  1  0.60258008  0.40369918  0.79835321  1
  Nb  Nb144  1  0.80262739  0.59390609  0.60397693  1
  Nb  Nb145  1  0.19495737  0.60753151  -0.00088000  1
  Nb  Nb146  1  0.79942297  0.40440055  0.60444740  1
  Nb  Nb147  1  0.79712693  0.80649559  0.39697781  1
  Nb  Nb148  1  0.80145134  0.59628786  0.79949455  1
  Nb  Nb149  1  0.19914590  0.40648285  0.39887520  1
  Pd  Pd150  1  0.39582880  0.19383104  0.59811858  1
  Pd  Pd151  1  -0.00929739  -0.00872263  -0.00947801  1
  Pd  Pd152  1  0.60311537  0.39741994  0.19495729  1
  Pd  Pd153  1  0.20299670  0.00566444  -0.00356412  1
  Pd  Pd154  1  0.40968042  0.61461514  0.20962594  1
  Pd  Pd155  1  0.19383204  0.19449907  0.61091637  1
  Pd  Pd156  1  0.00044800  0.58823283  -0.00349618  1
  Pd  Pd157  1  0.59097359  0.61010922  0.20549947  1
  Pd  Pd158  1  0.20590334  0.80930710  0.40289815  1
  Pd  Pd159  1  0.79547338  0.20222070  0.60031710  1
  Pd  Pd160  1  0.60019579  0.19088021  0.19516150  1
  Pd  Pd161  1  0.59920839  0.00270388  0.00752099  1
  Pd  Pd162  1  0.00619000  0.19411988  0.60511214  1
  Pd  Pd163  1  0.21259235  0.21063843  0.39342814  1
  Pd  Pd164  1  0.00985780  0.80708299  0.79682537  1
  Pd  Pd165  1  0.80738824  0.00661226  0.80169327  1
  Pd  Pd166  1  0.79421520  0.39303311  0.40258009  1
  Pd  Pd167  1  0.80829816  0.61238010  0.41385598  1
  Pd  Pd168  1  0.20166358  0.79937859  0.20129423  1
  Pd  Pd169  1  0.19506684  0.80033392  0.80154915  1
  Pd  Pd170  1  0.20621293  0.79418296  -0.00452514  1
  Pd  Pd171  1  0.01204219  0.80021858  0.61461478  1
  Pd  Pd172  1  0.60610550  -0.00544464  0.59823534  1
  Pd  Pd173  1  0.00904290  0.40681214  0.39418549  1
  Pd  Pd174  1  0.39915065  0.19654251  0.79103913  1
  Pd  Pd175  1  -0.00455057  -0.01172517  0.79911892  1
  Pd  Pd176  1  0.00191179  0.40658931  0.00675047  1
  Pd  Pd177  1  0.38923944  0.40844133  0.59600080  1
  Pd  Pd178  1  0.79912033  0.18626508  -0.01135662  1
  Pd  Pd179  1  0.00946480  0.60119180  0.20457054  1
  Pd  Pd180  1  0.40752667  0.81382498  0.80914411  1
  Pd  Pd181  1  0.59465377  0.20828923  0.79870665  1
  Pd  Pd182  1  0.39635802  0.20783538  0.00687120  1
  Pd  Pd183  1  0.00217553  -0.00344293  0.20406720  1
  Pd  Pd184  1  0.40863007  0.40946305  0.80392549  1
  Pd  Pd185  1  0.59793248  0.79482293  0.20045221  1
  Pd  Pd186  1  0.60445586  0.80943756  0.60558774  1
  Pd  Pd187  1  0.60774851  0.60809847  0.80716054  1
  Pd  Pd188  1  0.39990451  0.79928571  -0.00470781  1
  Pd  Pd189  1  0.80421679  0.20539287  0.19983705  1
  Pd  Pd190  1  0.80493233  0.40196734  0.00920837  1
  Pd  Pd191  1  0.19547306  -0.01004694  0.40665444  1
  Pd  Pd192  1  0.20533197  0.40594550  -0.00717955  1
  Pd  Pd193  1  0.38565949  0.60089422  -0.00183989  1
  Pd  Pd194  1  0.60147512  0.18401658  0.39342645  1
  Pd  Pd195  1  0.40397093  0.79513655  0.20452056  1
  Pd  Pd196  1  0.79871268  0.19050600  0.80965178  1
  Pd  Pd197  1  0.00606658  0.00112827  0.59657298  1
  Pd  Pd198  1  0.39581649  0.19829683  0.20219804  1
  Pd  Pd199  1  0.59125168  0.79770573  -0.00767230  1
  Rh  Rh200  1  0.79541993  0.79068684  0.59649167  1
  Rh  Rh201  1  0.19481084  0.40011289  0.59765544  1
  Rh  Rh202  1  0.00197565  0.60439935  0.59517400  1
  Rh  Rh203  1  0.01156116  0.19901115  0.79826927  1
  Rh  Rh204  1  0.79208246  0.40107958  0.79251130  1
  Rh  Rh205  1  0.79518043  0.60406132  0.18911120  1
  Rh  Rh206  1  0.20007877  0.59579857  0.40327853  1
  Rh  Rh207  1  0.39936080  -0.00082151  -0.00325334  1
  Rh  Rh208  1  0.19091837  0.61517195  0.18705196  1
  Rh  Rh209  1  0.41017485  0.00761505  0.40060754  1
  Rh  Rh210  1  0.58671214  0.60035746  0.40564368  1
  Rh  Rh211  1  0.39622426  0.00532301  0.60594009  1
  Rh  Rh212  1  0.60510351  0.20041284  0.60997631  1
  Rh  Rh213  1  0.59932393  0.00195016  0.19859279  1
  Rh  Rh214  1  0.80122723  0.00271690  0.40049278  1
  Rh  Rh215  1  0.60894416  0.39688844  0.60932939  1
  Rh  Rh216  1  -0.00252951  0.79994251  0.20070755  1
  Rh  Rh217  1  0.19577585  0.39359550  0.79774074  1
  Rh  Rh218  1  0.80318419  0.79744300  0.01281292  1
  Rh  Rh219  1  0.39809534  0.59911151  0.59734193  1
  Rh  Rh220  1  0.39813592  0.59652015  0.79155324  1
  Rh  Rh221  1  -0.00305029  0.59691589  0.80550773  1
  Rh  Rh222  1  -0.00892423  0.18406671  0.40870983  1
  Rh  Rh223  1  0.79632241  -0.00699611  0.17978937  1
  Rh  Rh224  1  0.20056459  -0.00109463  0.20175922  1
  Rh  Rh225  1  0.20549017  0.00235126  0.80683362  1
  Rh  Rh226  1  0.60075200  0.19529383  -0.00074681  1
  Rh  Rh227  1  0.59058079  0.38959788  -0.00532724  1
  Rh  Rh228  1  0.00638331  0.20703203  0.18823054  1
  Rh  Rh229  1  0.79076664  0.79204736  0.78390756  1
  Rh  Rh230  1  0.59386469  0.40180696  0.39593641  1
  Rh  Rh231  1  0.00177893  0.80614702  -0.00484641  1
  Rh  Rh232  1  0.19839665  0.80121610  0.59924655  1
  Rh  Rh233  1  0.19597715  0.60175459  0.80411659  1
  Rh  Rh234  1  -0.00649646  0.80053887  0.39168624  1
  Rh  Rh235  1  0.60802189  0.61445734  -0.00717496  1
  Rh  Rh236  1  0.00786241  0.39599126  0.79590642  1
  Rh  Rh237  1  0.39317006  0.79251381  0.40452985  1
  Rh  Rh238  1  -0.00300531  0.39529019  0.60393504  1
  Rh  Rh239  1  0.58847919  -0.00522334  0.79357506  1
  Rh  Rh240  1  0.18208526  0.38742893  0.20970668  1
  Rh  Rh241  1  0.79636907  0.00792000  0.61346651  1
  Rh  Rh242  1  0.41370255  0.39814729  0.19393433  1
  Rh  Rh243  1  0.19404351  0.60468686  0.60737313  1
  Rh  Rh244  1  0.40162416  -0.00521701  0.19935044  1
  Rh  Rh245  1  0.00917952  0.19586068  -0.00243697  1
  Rh  Rh246  1  0.60272887  0.60245156  0.59457263  1
  Rh  Rh247  1  0.60725020  0.81037274  0.40416224  1
  Rh  Rh248  1  0.19487250  -0.00250164  0.59263706  1
  Rh  Rh249  1  0.39628218  0.79826168  0.59422113  1
