# generated using pymatgen
data_ZrScNbPdRh
_symmetry_space_group_name_H-M   'P 1'
_cell_length_a   16.55272492
_cell_length_b   16.55786955
_cell_length_c   16.55762580
_cell_angle_alpha   90.00762506
_cell_angle_beta   90.00646263
_cell_angle_gamma   90.00680508
_symmetry_Int_Tables_number   1
_chemical_formula_structural   ZrScNbPdRh
_chemical_formula_sum   'Zr50 Sc50 Nb50 Pd50 Rh50'
_cell_volume   4538.07854296
_cell_formula_units_Z   50
loop_
 _symmetry_equiv_pos_site_id
 _symmetry_equiv_pos_as_xyz
  1  'x, y, z'
loop_
 _atom_site_type_symbol
 _atom_site_label
 _atom_site_symmetry_multiplicity
 _atom_site_fract_x
 _atom_site_fract_y
 _atom_site_fract_z
 _atom_site_occupancy
  Zr  Zr0  1  0.09771098  0.10600055  0.30301326  1
  Zr  Zr1  1  0.50704515  0.89822095  0.70167632  1
  Zr  Zr2  1  0.90127743  0.31504756  0.89775887  1
  Zr  Zr3  1  0.10071408  0.50076119  0.29010456  1
  Zr  Zr4  1  0.90334808  0.09469127  0.49496734  1
  Zr  Zr5  1  0.10310427  0.69398580  0.29907303  1
  Zr  Zr6  1  0.09951342  0.89493110  0.70270011  1
  Zr  Zr7  1  0.09380675  0.69924909  0.90220482  1
  Zr  Zr8  1  0.69906494  0.69471948  0.49895472  1
  Zr  Zr9  1  0.29577898  0.49924072  0.30810623  1
  Zr  Zr10  1  0.10409156  0.69196633  0.10228040  1
  Zr  Zr11  1  0.10135721  0.89633185  0.89835455  1
  Zr  Zr12  1  0.29009464  0.89537132  0.70033215  1
  Zr  Zr13  1  0.29299326  0.49890841  0.89582441  1
  Zr  Zr14  1  0.29390307  0.10050772  0.70352145  1
  Zr  Zr15  1  0.90921903  0.09996300  0.69440516  1
  Zr  Zr16  1  0.49288042  0.50168595  0.91180184  1
  Zr  Zr17  1  0.50301095  0.10102365  0.49904624  1
  Zr  Zr18  1  0.30258488  0.09168836  0.30558236  1
  Zr  Zr19  1  0.49339918  0.50623133  0.69224745  1
  Zr  Zr20  1  0.70058349  0.09649773  0.90216835  1
  Zr  Zr21  1  0.69751592  0.50903127  0.30956125  1
  Zr  Zr22  1  0.70334391  0.90075206  0.29516236  1
  Zr  Zr23  1  0.50127193  0.50447544  0.09917830  1
  Zr  Zr24  1  0.89850378  0.48700655  0.70255651  1
  Zr  Zr25  1  0.29746507  0.70303091  0.10084900  1
  Zr  Zr26  1  0.70240422  0.49688917  0.49495607  1
  Zr  Zr27  1  0.30167817  0.27978176  0.09569058  1
  Zr  Zr28  1  0.90343816  0.50905292  0.89732634  1
  Zr  Zr29  1  0.70827081  0.30783689  0.70166428  1
  Zr  Zr30  1  0.09323535  0.89248497  0.49774780  1
  Zr  Zr31  1  0.09805615  0.30120141  0.68985271  1
  Zr  Zr32  1  0.89775766  0.90027736  0.09607411  1
  Zr  Zr33  1  0.50322080  0.90321199  0.50181035  1
  Zr  Zr34  1  0.49370131  0.29850840  0.70159450  1
  Zr  Zr35  1  0.49591985  0.30369269  0.10036532  1
  Zr  Zr36  1  0.91285258  0.30776992  0.50621163  1
  Zr  Zr37  1  0.49537401  0.49557878  0.29794974  1
  Zr  Zr38  1  0.30473178  0.50045424  0.09407961  1
  Zr  Zr39  1  0.90233674  0.10308251  0.10438917  1
  Zr  Zr40  1  0.89980139  0.09290564  0.91045232  1
  Zr  Zr41  1  0.70317285  0.89942214  0.50210456  1
  Zr  Zr42  1  0.29899350  0.10972133  0.90840826  1
  Zr  Zr43  1  0.70025298  0.70307766  0.90183550  1
  Zr  Zr44  1  0.49067766  0.30290415  0.50420914  1
  Zr  Zr45  1  0.70116741  0.30022488  0.49347120  1
  Zr  Zr46  1  0.69922462  0.09464366  0.49519000  1
  Zr  Zr47  1  0.70216841  0.10143492  0.09970661  1
  Zr  Zr48  1  0.89267701  0.89750370  0.49912297  1
  Zr  Zr49  1  0.50343634  0.70253016  0.69726580  1
  Sc  Sc50  1  0.69971281  0.89216779  0.69999310  1
  Sc  Sc51  1  0.09864075  0.10595195  0.49876662  1
  Sc  Sc52  1  0.69951740  0.50343019  0.10278896  1
  Sc  Sc53  1  0.10651828  0.09568599  0.89467401  1
  Sc  Sc54  1  0.49712863  0.50453449  0.49425272  1
  Sc  Sc55  1  0.89433591  0.69855112  0.30207663  1
  Sc  Sc56  1  0.29759940  0.30980231  0.69728159  1
  Sc  Sc57  1  0.09860311  0.50414951  0.90226321  1
  Sc  Sc58  1  0.09826217  0.89869286  0.29981679  1
  Sc  Sc59  1  0.70298929  0.89766435  0.89861448  1
  Sc  Sc60  1  0.69486481  0.89511078  0.09805208  1
  Sc  Sc61  1  0.09994348  0.88842167  0.09661714  1
  Sc  Sc62  1  0.88882044  0.70234498  0.09369969  1
  Sc  Sc63  1  0.10347685  0.50101471  0.48672424  1
  Sc  Sc64  1  0.49399810  0.09875770  0.10525096  1
  Sc  Sc65  1  0.89765205  0.49822350  0.30522342  1
  Sc  Sc66  1  0.69093475  0.09905522  0.69900636  1
  Sc  Sc67  1  0.10316934  0.10796207  0.10540406  1
  Sc  Sc68  1  0.69158841  0.10648906  0.29826693  1
  Sc  Sc69  1  0.49856892  0.69492157  0.51038419  1
  Sc  Sc70  1  0.51164853  0.90370804  0.90049087  1
  Sc  Sc71  1  0.70192880  0.69735721  0.29263979  1
  Sc  Sc72  1  0.29761601  0.69376010  0.29269454  1
  Sc  Sc73  1  0.90206834  0.89108517  0.90680477  1
  Sc  Sc74  1  0.29718793  0.90870954  0.49557005  1
  Sc  Sc75  1  0.69776558  0.70155227  0.70304147  1
  Sc  Sc76  1  0.29644367  0.29901566  0.29864773  1
  Sc  Sc77  1  0.50184461  0.29632223  0.29516303  1
  Sc  Sc78  1  0.90137268  0.89845737  0.30633601  1
  Sc  Sc79  1  0.70130401  0.50683831  0.90010435  1
  Sc  Sc80  1  0.90469456  0.49657427  0.10077399  1
  Sc  Sc81  1  0.10406513  0.09530091  0.69747193  1
  Sc  Sc82  1  0.50532328  0.68844595  0.29193916  1
  Sc  Sc83  1  0.50247157  0.10064864  0.89461848  1
  Sc  Sc84  1  0.89772516  0.89018617  0.69533434  1
  Sc  Sc85  1  0.10265370  0.50273311  0.70929612  1
  Sc  Sc86  1  0.69713109  0.30306669  0.29986673  1
  Sc  Sc87  1  0.49386744  0.91192553  0.28995292  1
  Sc  Sc88  1  0.70238460  0.30607833  0.90297617  1
  Sc  Sc89  1  0.90444494  0.70494378  0.50296461  1
  Sc  Sc90  1  0.28797770  0.09984920  0.49724910  1
  Sc  Sc91  1  0.70297908  0.30334137  0.10520113  1
  Sc  Sc92  1  0.50319003  0.10210891  0.29567309  1
  Sc  Sc93  1  0.10096710  0.29959791  0.11357653  1
  Sc  Sc94  1  0.89859538  0.30424540  0.10451702  1
  Sc  Sc95  1  0.50441361  0.10410543  0.70223909  1
  Sc  Sc96  1  0.90836104  0.30193357  0.29713027  1
  Sc  Sc97  1  0.10218277  0.30130588  0.30267098  1
  Sc  Sc98  1  0.30594051  0.49683273  0.49788664  1
  Sc  Sc99  1  0.09249069  0.69674381  0.49807224  1
  Nb  Nb100  1  0.10487048  0.49985299  0.09920982  1
  Nb  Nb101  1  0.09432389  0.70215592  0.69581205  1
  Nb  Nb102  1  0.69309737  0.70359629  0.10468239  1
  Nb  Nb103  1  0.30007192  0.29993702  0.90137898  1
  Nb  Nb104  1  0.29735299  0.50533839  0.70251647  1
  Nb  Nb105  1  0.49270418  0.89874096  0.10154599  1
  Nb  Nb106  1  0.69677133  0.49965206  0.69740407  1
  Nb  Nb107  1  0.29371441  0.30334713  0.49848380  1
  Nb  Nb108  1  0.89316535  0.49932941  0.50019527  1
  Nb  Nb109  1  0.50521810  0.69767512  0.09169668  1
  Nb  Nb110  1  0.10737405  0.29751578  0.90143855  1
  Nb  Nb111  1  0.29987078  0.89833910  0.90254987  1
  Nb  Nb112  1  0.90463094  0.10111779  0.29988985  1
  Nb  Nb113  1  0.30148790  0.09783561  0.10147010  1
  Nb  Nb114  1  0.29917192  0.69933715  0.90363146  1
  Nb  Nb115  1  0.49436685  0.30338494  0.90151520  1
  Nb  Nb116  1  0.30945063  0.89945771  0.10793632  1
  Nb  Nb117  1  0.30132380  0.89698518  0.29900271  1
  Nb  Nb118  1  0.11029381  0.29534094  0.49753214  1
  Nb  Nb119  1  0.90450234  0.69291998  0.70243216  1
  Nb  Nb120  1  0.30076852  0.70188630  0.50084844  1
  Nb  Nb121  1  0.89398228  0.70078901  0.89420124  1
  Nb  Nb122  1  0.90165010  0.30165249  0.69981807  1
  Nb  Nb123  1  0.49791640  0.69769735  0.90252662  1
  Nb  Nb124  1  0.30304180  0.70118532  0.69540940  1
  Nb  Nb125  1  0.59585893  0.20543957  -0.00036782  1
  Nb  Nb126  1  0.80843730  0.19885091  0.79748151  1
  Nb  Nb127  1  0.20453479  0.60691818  0.60452415  1
  Nb  Nb128  1  0.20038354  0.39231032  -0.00096717  1
  Nb  Nb129  1  0.39862727  0.00111910  0.60604082  1
  Nb  Nb130  1  0.00201657  0.20633853  -0.00680950  1
  Nb  Nb131  1  0.80563578  0.20226786  0.59933106  1
  Nb  Nb132  1  0.39247719  -0.00672807  0.79982780  1
  Nb  Nb133  1  0.80461395  0.00442066  0.20086634  1
  Nb  Nb134  1  0.59430252  0.80117305  0.39812614  1
  Nb  Nb135  1  0.39632989  0.79685242  0.80684358  1
  Nb  Nb136  1  0.59344444  0.40435616  0.79758758  1
  Nb  Nb137  1  0.59953319  0.40208913  0.60357389  1
  Nb  Nb138  1  0.21165604  -0.00424095  0.00724008  1
  Nb  Nb139  1  0.80856739  0.19750616  0.40291391  1
  Nb  Nb140  1  0.39403148  0.60710629  0.80004568  1
  Nb  Nb141  1  -0.00249393  0.20557287  0.80291374  1
  Nb  Nb142  1  0.20649864  0.79744558  0.39866410  1
  Nb  Nb143  1  0.39720182  0.20126024  0.40540000  1
  Nb  Nb144  1  0.20740889  -0.00509474  0.19694904  1
  Nb  Nb145  1  0.39966861  0.80002871  0.39754537  1
  Nb  Nb146  1  0.80434726  0.00478485  0.80039797  1
  Nb  Nb147  1  0.80480447  0.59273896  0.60284058  1
  Nb  Nb148  1  -0.00169600  0.79436394  0.19828401  1
  Nb  Nb149  1  0.40231501  0.80181201  0.00131295  1
  Pd  Pd150  1  0.00153591  0.59011130  0.60076643  1
  Pd  Pd151  1  0.79320188  0.79326888  0.39725831  1
  Pd  Pd152  1  0.19884482  0.61133615  0.79582642  1
  Pd  Pd153  1  0.40254030  -0.00284998  -0.00606670  1
  Pd  Pd154  1  0.01772669  0.00660889  0.00721366  1
  Pd  Pd155  1  0.60428750  0.40457656  0.20180661  1
  Pd  Pd156  1  0.79848860  0.60009550  0.79194097  1
  Pd  Pd157  1  0.01287588  0.39858844  0.80146404  1
  Pd  Pd158  1  0.60414701  0.39887160  -0.00355871  1
  Pd  Pd159  1  0.39768896  0.19562415  0.80198602  1
  Pd  Pd160  1  0.20034377  0.78944714  0.80155535  1
  Pd  Pd161  1  -0.00672872  0.79801075  0.79913973  1
  Pd  Pd162  1  0.79669023  0.59896980  0.00588826  1
  Pd  Pd163  1  0.00394433  -0.00294805  0.39945369  1
  Pd  Pd164  1  0.38795273  0.19243703  0.59549864  1
  Pd  Pd165  1  0.59560068  0.00595044  0.00647723  1
  Pd  Pd166  1  0.00388319  -0.00831949  0.19622281  1
  Pd  Pd167  1  0.20750076  0.39889648  0.19346020  1
  Pd  Pd168  1  0.00413643  -0.00714158  0.59860021  1
  Pd  Pd169  1  -0.00496489  -0.00050984  0.80029248  1
  Pd  Pd170  1  0.80027717  0.19875320  0.21101991  1
  Pd  Pd171  1  -0.00694364  0.59931789  0.40000103  1
  Pd  Pd172  1  0.80192390  0.20978253  -0.00394870  1
  Pd  Pd173  1  0.80212083  0.59756760  0.19702940  1
  Pd  Pd174  1  0.00475315  0.39976617  0.39723841  1
  Pd  Pd175  1  0.19520517  0.20669100  0.79186234  1
  Pd  Pd176  1  0.59010620  0.39701826  0.40211610  1
  Pd  Pd177  1  0.40097272  0.40729762  0.79985335  1
  Pd  Pd178  1  0.79598957  0.00452287  0.61124226  1
  Pd  Pd179  1  0.01411184  0.41295751  0.59498859  1
  Pd  Pd180  1  0.20445518  0.80346507  0.00287054  1
  Pd  Pd181  1  0.60701580  0.21034677  0.80838174  1
  Pd  Pd182  1  0.19679301  -0.00073502  0.59420236  1
  Pd  Pd183  1  0.60692425  0.20680900  0.59921049  1
  Pd  Pd184  1  0.59813811  -0.00521799  0.39043161  1
  Pd  Pd185  1  0.59365990  0.59630784  0.80417295  1
  Pd  Pd186  1  0.79838095  0.40570636  0.20778121  1
  Pd  Pd187  1  -0.00545452  0.60393060  0.00474652  1
  Pd  Pd188  1  0.39799110  0.80988446  0.59643411  1
  Pd  Pd189  1  0.39852343  0.60178956  0.19691272  1
  Pd  Pd190  1  0.19499573  0.79367715  0.59045937  1
  Pd  Pd191  1  0.59655955  0.80067525  -0.00163290  1
  Pd  Pd192  1  0.40226162  0.60865147  0.40016792  1
  Pd  Pd193  1  0.19797782  0.41390114  0.59560391  1
  Pd  Pd194  1  0.79684359  0.40882692  0.00123323  1
  Pd  Pd195  1  -0.01120481  0.60337988  0.19601736  1
  Pd  Pd196  1  0.39163899  0.39433151  0.19997775  1
  Pd  Pd197  1  0.40997228  0.79101070  0.20291074  1
  Pd  Pd198  1  0.59172702  0.80168076  0.20582570  1
  Pd  Pd199  1  0.01138262  0.39480782  0.00796151  1
  Rh  Rh200  1  -0.00130269  0.20559246  0.40263160  1
  Rh  Rh201  1  0.19214442  0.80645943  0.20680059  1
  Rh  Rh202  1  0.80493101  0.80158877  0.79912120  1
  Rh  Rh203  1  0.80188647  0.78459233  0.60495349  1
  Rh  Rh204  1  0.59857482  0.20383658  0.18845164  1
  Rh  Rh205  1  0.39800242  0.40500093  0.59908474  1
  Rh  Rh206  1  0.60222272  0.59686137  0.19489650  1
  Rh  Rh207  1  0.20455071  0.20401447  0.39857906  1
  Rh  Rh208  1  0.00025464  0.60221259  0.79938354  1
  Rh  Rh209  1  0.19834287  0.39830448  0.40032076  1
  Rh  Rh210  1  0.38952088  0.59601903  0.60101247  1
  Rh  Rh211  1  0.40339939  0.00272406  0.40795231  1
  Rh  Rh212  1  0.59506422  0.20338155  0.40046005  1
  Rh  Rh213  1  -0.00392998  0.80018613  0.60201111  1
  Rh  Rh214  1  0.20259871  0.19046655  0.20829885  1
  Rh  Rh215  1  0.79586013  0.40087513  0.59464292  1
  Rh  Rh216  1  0.60774391  0.60350737  0.00258114  1
  Rh  Rh217  1  0.80568327  0.80714814  0.19763437  1
  Rh  Rh218  1  0.39910407  0.39095253  0.39650000  1
  Rh  Rh219  1  0.41177035  0.19891158  -0.00484032  1
  Rh  Rh220  1  0.59697000  0.00007043  0.60581515  1
  Rh  Rh221  1  0.80699492  0.39049974  0.39466100  1
  Rh  Rh222  1  0.79287654  0.40448207  0.80725617  1
  Rh  Rh223  1  0.20704253  0.59089706  0.19639848  1
  Rh  Rh224  1  0.20099773  0.20281561  0.60088049  1
  Rh  Rh225  1  0.19944752  0.59344100  0.00021660  1
  Rh  Rh226  1  0.60578445  -0.00329726  0.79670922  1
  Rh  Rh227  1  0.59752486  0.79698389  0.80632683  1
  Rh  Rh228  1  0.59503593  0.60660166  0.39963641  1
  Rh  Rh229  1  0.38932646  0.39318824  0.00108199  1
  Rh  Rh230  1  -0.00333208  0.78864839  0.00393797  1
  Rh  Rh231  1  0.80601369  0.60429953  0.40756776  1
  Rh  Rh232  1  0.00184071  0.40423087  0.19966940  1
  Rh  Rh233  1  0.79432963  0.79728666  -0.00085158  1
  Rh  Rh234  1  0.39632655  0.00586730  0.19948227  1
  Rh  Rh235  1  0.79400670  -0.01063599  0.00171377  1
  Rh  Rh236  1  0.60780485  0.79810743  0.59164314  1
  Rh  Rh237  1  0.20349205  0.60643600  0.40884003  1
  Rh  Rh238  1  0.39800501  0.19573750  0.21119806  1
  Rh  Rh239  1  0.20490181  -0.00109683  0.81050982  1
  Rh  Rh240  1  0.39572434  0.60869781  -0.00154380  1
  Rh  Rh241  1  0.60539827  -0.00182100  0.19253598  1
  Rh  Rh242  1  0.60905922  0.59311842  0.59496491  1
  Rh  Rh243  1  -0.00162012  0.20513051  0.19671287  1
  Rh  Rh244  1  0.19876523  0.39454900  0.80412725  1
  Rh  Rh245  1  0.19125822  0.19861271  0.00324613  1
  Rh  Rh246  1  0.00354259  0.20044295  0.59986957  1
  Rh  Rh247  1  0.00493006  0.79487615  0.39114921  1
  Rh  Rh248  1  0.19139891  -0.00786229  0.39324958  1
  Rh  Rh249  1  0.79781277  0.01015103  0.38555866  1
