# generated using pymatgen
data_ZrScNbPdRh
_symmetry_space_group_name_H-M   'P 1'
_cell_length_a   16.55404123
_cell_length_b   16.55457377
_cell_length_c   16.55612035
_cell_angle_alpha   89.98689493
_cell_angle_beta   90.00821810
_cell_angle_gamma   90.03294942
_symmetry_Int_Tables_number   1
_chemical_formula_structural   ZrScNbPdRh
_chemical_formula_sum   'Zr50 Sc50 Nb50 Pd50 Rh50'
_cell_volume   4537.12268908
_cell_formula_units_Z   50
loop_
 _symmetry_equiv_pos_site_id
 _symmetry_equiv_pos_as_xyz
  1  'x, y, z'
loop_
 _atom_site_type_symbol
 _atom_site_label
 _atom_site_symmetry_multiplicity
 _atom_site_fract_x
 _atom_site_fract_y
 _atom_site_fract_z
 _atom_site_occupancy
  Zr  Zr0  1  0.88910488  0.50548873  0.49159068  1
  Zr  Zr1  1  0.69912576  0.09933544  0.49854627  1
  Zr  Zr2  1  0.49291676  0.09782390  0.50043863  1
  Zr  Zr3  1  0.29503906  0.09799235  0.09720241  1
  Zr  Zr4  1  0.09865587  0.69755617  0.90009286  1
  Zr  Zr5  1  0.29544871  0.89864042  0.70255353  1
  Zr  Zr6  1  0.49051063  0.50489425  0.30115222  1
  Zr  Zr7  1  0.70642709  0.50548945  0.69298354  1
  Zr  Zr8  1  0.09226642  0.90525076  0.90953147  1
  Zr  Zr9  1  0.49721372  0.49262840  0.89992225  1
  Zr  Zr10  1  0.89796447  0.29752099  0.30291248  1
  Zr  Zr11  1  0.29601299  0.30233853  0.10329491  1
  Zr  Zr12  1  0.10891611  0.70262789  0.09890850  1
  Zr  Zr13  1  0.08850887  0.10315889  0.29747429  1
  Zr  Zr14  1  0.30076008  0.09667381  0.69954514  1
  Zr  Zr15  1  0.29689238  0.90034353  0.50401768  1
  Zr  Zr16  1  0.90176048  0.90290133  0.70454225  1
  Zr  Zr17  1  0.90375121  0.89747147  0.50516373  1
  Zr  Zr18  1  0.09521468  0.49609913  0.90355123  1
  Zr  Zr19  1  0.10566520  0.50302763  0.10042639  1
  Zr  Zr20  1  0.49778150  0.50480134  0.50664612  1
  Zr  Zr21  1  0.69948114  0.89021975  0.70129886  1
  Zr  Zr22  1  0.09354453  0.09739457  0.49991226  1
  Zr  Zr23  1  0.69998067  0.89331812  0.50067497  1
  Zr  Zr24  1  0.50238471  0.30031528  0.70072348  1
  Zr  Zr25  1  0.10141070  0.30029553  0.29607897  1
  Zr  Zr26  1  0.70633594  0.10602841  0.70240615  1
  Zr  Zr27  1  0.10191752  0.30562805  0.09996606  1
  Zr  Zr28  1  0.49757977  0.10174436  0.70349639  1
  Zr  Zr29  1  0.70983279  0.89107466  0.10509805  1
  Zr  Zr30  1  0.30168443  0.50060291  0.90012069  1
  Zr  Zr31  1  0.50566408  0.69494495  0.10433632  1
  Zr  Zr32  1  0.70423279  0.89825528  0.89829435  1
  Zr  Zr33  1  0.90159576  0.08209619  0.90137574  1
  Zr  Zr34  1  0.69926348  0.29073828  0.09582707  1
  Zr  Zr35  1  0.49907986  0.30120927  0.29841608  1
  Zr  Zr36  1  0.51251619  0.10151002  0.08816864  1
  Zr  Zr37  1  0.70031453  0.50478535  0.50244548  1
  Zr  Zr38  1  0.30211251  0.09793112  0.50707952  1
  Zr  Zr39  1  0.10229101  0.68670585  0.29657441  1
  Zr  Zr40  1  0.09564367  0.70460517  0.70465613  1
  Zr  Zr41  1  0.70324134  0.30531447  0.89965339  1
  Zr  Zr42  1  0.70062118  0.29468172  0.70151920  1
  Zr  Zr43  1  0.89737186  0.10055613  0.70210232  1
  Zr  Zr44  1  0.90055832  0.90385462  0.09175767  1
  Zr  Zr45  1  0.29977504  0.30316665  0.89619194  1
  Zr  Zr46  1  0.89734128  0.50338917  0.09684999  1
  Zr  Zr47  1  0.50492207  0.09600687  0.30954072  1
  Zr  Zr48  1  0.50418907  0.90041548  0.09133676  1
  Zr  Zr49  1  0.69711083  0.89820951  0.30154910  1
  Sc  Sc50  1  0.89799197  0.30985053  0.90111151  1
  Sc  Sc51  1  0.09758868  0.29940272  0.50386204  1
  Sc  Sc52  1  0.10778735  0.10013290  0.69575737  1
  Sc  Sc53  1  0.30686987  0.49783824  0.49910820  1
  Sc  Sc54  1  0.10008416  0.49779703  0.71741423  1
  Sc  Sc55  1  0.70361535  0.69889916  0.50689330  1
  Sc  Sc56  1  0.89463029  0.70211564  0.89569555  1
  Sc  Sc57  1  0.69826067  0.10047152  0.90315581  1
  Sc  Sc58  1  0.89978214  0.30080176  0.49775174  1
  Sc  Sc59  1  0.30469026  0.89486867  0.30835315  1
  Sc  Sc60  1  0.70581277  0.51036115  0.30620204  1
  Sc  Sc61  1  0.29836345  0.69789429  0.08851484  1
  Sc  Sc62  1  0.88647936  0.70138170  0.09938226  1
  Sc  Sc63  1  0.89758061  0.49961596  0.89380747  1
  Sc  Sc64  1  0.50427987  0.89362311  0.70605458  1
  Sc  Sc65  1  0.50616476  0.89740930  0.30598617  1
  Sc  Sc66  1  0.29944640  0.30495030  0.50398070  1
  Sc  Sc67  1  0.29382692  0.29726124  0.70151674  1
  Sc  Sc68  1  0.89136119  0.29772141  0.70408044  1
  Sc  Sc69  1  0.49607381  0.70216152  0.69635973  1
  Sc  Sc70  1  0.89534467  0.89842369  0.28913578  1
  Sc  Sc71  1  0.49413729  0.70036185  0.89868151  1
  Sc  Sc72  1  0.70498460  0.29587323  0.30517498  1
  Sc  Sc73  1  0.49224726  0.30023076  0.50318578  1
  Sc  Sc74  1  0.10685554  0.49438045  0.49294380  1
  Sc  Sc75  1  0.89347323  0.30233186  0.09206182  1
  Sc  Sc76  1  0.30081375  0.69528337  0.30515825  1
  Sc  Sc77  1  0.50096880  0.89882621  0.49505912  1
  Sc  Sc78  1  0.09542749  0.89859237  0.50589302  1
  Sc  Sc79  1  0.10542938  0.70868656  0.50481258  1
  Sc  Sc80  1  0.09454850  0.09621012  0.10574697  1
  Sc  Sc81  1  0.50337484  0.69526619  0.29839722  1
  Sc  Sc82  1  0.69830716  0.70513540  0.28975026  1
  Sc  Sc83  1  0.30236897  0.49864520  0.09593633  1
  Sc  Sc84  1  0.90872064  0.10091546  0.50461722  1
  Sc  Sc85  1  0.70512038  0.10929322  0.29792497  1
  Sc  Sc86  1  0.10245391  0.31450685  0.89554768  1
  Sc  Sc87  1  0.70761094  0.30159765  0.50184615  1
  Sc  Sc88  1  0.30635624  0.10325321  0.30189332  1
  Sc  Sc89  1  0.50584348  0.30458734  0.89902167  1
  Sc  Sc90  1  0.29740461  0.70267765  0.89664830  1
  Sc  Sc91  1  0.29233516  0.89455666  0.08685528  1
  Sc  Sc92  1  0.30381759  0.70431245  0.50054413  1
  Sc  Sc93  1  0.50070731  0.69591301  0.50478891  1
  Sc  Sc94  1  0.09039790  0.90255848  0.30117748  1
  Sc  Sc95  1  0.30055482  0.30665149  0.29550399  1
  Sc  Sc96  1  0.50038268  0.90588032  0.89625917  1
  Sc  Sc97  1  0.89407263  0.69818345  0.70627874  1
  Sc  Sc98  1  0.49757006  0.50237372  0.09278175  1
  Sc  Sc99  1  0.29560726  0.09006253  0.88805337  1
  Nb  Nb100  1  0.29635906  0.90371644  0.89878680  1
  Nb  Nb101  1  0.69635704  0.50166276  0.90423166  1
  Nb  Nb102  1  0.90498827  0.68658978  0.29981120  1
  Nb  Nb103  1  0.10095238  0.89610770  0.10363389  1
  Nb  Nb104  1  0.09639441  0.89187968  0.68935865  1
  Nb  Nb105  1  0.90714479  0.09628917  0.29861237  1
  Nb  Nb106  1  0.29722417  0.49894827  0.30524955  1
  Nb  Nb107  1  0.69555438  0.69719289  0.09557030  1
  Nb  Nb108  1  0.10095075  0.10132691  0.90186375  1
  Nb  Nb109  1  0.29500468  0.69934629  0.69967007  1
  Nb  Nb110  1  0.90439515  0.50638116  0.30076594  1
  Nb  Nb111  1  0.89674649  0.90226193  0.90326103  1
  Nb  Nb112  1  0.70130653  0.69869440  0.89311654  1
  Nb  Nb113  1  0.69560289  0.70213677  0.70855573  1
  Nb  Nb114  1  0.50080842  0.50583378  0.69585829  1
  Nb  Nb115  1  0.90310728  0.50600303  0.69732721  1
  Nb  Nb116  1  0.69568715  0.50487714  0.09561673  1
  Nb  Nb117  1  0.49979453  0.09622136  0.90196816  1
  Nb  Nb118  1  0.90171051  0.69764352  0.49704057  1
  Nb  Nb119  1  0.70413578  0.09908166  0.09734332  1
  Nb  Nb120  1  0.30727556  0.50851100  0.69931522  1
  Nb  Nb121  1  0.09825063  0.30286629  0.70742928  1
  Nb  Nb122  1  0.09753683  0.50160079  0.29695667  1
  Nb  Nb123  1  0.89482933  0.09876110  0.10716229  1
  Nb  Nb124  1  0.50195485  0.30072956  0.09549919  1
  Nb  Nb125  1  0.60803616  0.79367190  -0.00148055  1
  Nb  Nb126  1  0.60245984  0.00341063  0.19458121  1
  Nb  Nb127  1  0.39957710  0.19855389  -0.00195209  1
  Nb  Nb128  1  0.40345028  -0.00150081  0.19612668  1
  Nb  Nb129  1  0.40160184  0.80356391  0.19455250  1
  Nb  Nb130  1  0.20278859  -0.00358897  0.20384293  1
  Nb  Nb131  1  0.19734086  0.00507206  0.39907179  1
  Nb  Nb132  1  -0.00270460  0.40786911  0.60668682  1
  Nb  Nb133  1  0.00494616  0.19855539  0.80657708  1
  Nb  Nb134  1  0.60472390  0.40306228  0.19865616  1
  Nb  Nb135  1  0.40836807  0.19691613  0.19080437  1
  Nb  Nb136  1  0.19662041  0.19577647  0.39942799  1
  Nb  Nb137  1  -0.00701010  0.79019749  0.39346350  1
  Nb  Nb138  1  0.00128424  0.60125498  0.00143183  1
  Nb  Nb139  1  0.59708936  0.40460886  0.39744699  1
  Nb  Nb140  1  0.60259949  0.59699240  0.79862852  1
  Nb  Nb141  1  0.00049585  0.79121588  0.19896864  1
  Nb  Nb142  1  0.60284796  0.00094394  0.60123562  1
  Nb  Nb143  1  0.80557711  0.00004688  0.39854133  1
  Nb  Nb144  1  0.00118052  0.59609257  0.60140683  1
  Nb  Nb145  1  0.19676853  0.19803914  -0.00573007  1
  Nb  Nb146  1  0.20090508  0.59908405  0.60896613  1
  Nb  Nb147  1  0.00296326  0.19569973  -0.00483628  1
  Nb  Nb148  1  -0.00441663  0.40968015  0.20576571  1
  Nb  Nb149  1  0.79825487  0.40669506  0.19983954  1
  Pd  Pd150  1  0.80639524  0.39681222  0.60024673  1
  Pd  Pd151  1  0.39473227  0.00331246  -0.00356493  1
  Pd  Pd152  1  0.79567390  0.00574729  0.20599231  1
  Pd  Pd153  1  0.18887377  0.80737717  0.39576026  1
  Pd  Pd154  1  0.40113375  0.80153055  0.60140258  1
  Pd  Pd155  1  0.19879121  0.20412655  0.59692871  1
  Pd  Pd156  1  0.80413859  0.59961893  -0.00801882  1
  Pd  Pd157  1  0.59940105  0.21065823  0.40911956  1
  Pd  Pd158  1  0.20429082  0.59890520  0.41140101  1
  Pd  Pd159  1  0.20312864  0.39386437  0.39643945  1
  Pd  Pd160  1  0.21414402  0.59605031  0.19933539  1
  Pd  Pd161  1  0.20105218  0.59723313  0.79996723  1
  Pd  Pd162  1  0.18862438  -0.00853237  0.79542851  1
  Pd  Pd163  1  0.40794320  0.79460227  0.39477213  1
  Pd  Pd164  1  0.60078566  0.39766496  0.59436740  1
  Pd  Pd165  1  -0.01033022  0.21063337  0.18916903  1
  Pd  Pd166  1  0.81027208  0.18975092  0.40522220  1
  Pd  Pd167  1  0.39023677  0.20805298  0.39728255  1
  Pd  Pd168  1  0.59935462  0.19802403  0.80872375  1
  Pd  Pd169  1  0.79340916  0.60012691  0.20080571  1
  Pd  Pd170  1  0.80485499  0.79178373  0.60669427  1
  Pd  Pd171  1  0.79689143  0.00025959  0.59522670  1
  Pd  Pd172  1  0.80645567  0.79747882  0.39267041  1
  Pd  Pd173  1  0.01064218  0.60234315  0.41291568  1
  Pd  Pd174  1  0.01122585  0.00284277  0.79159504  1
  Pd  Pd175  1  0.40276665  0.79839951  -0.00120430  1
  Pd  Pd176  1  -0.00579774  0.79140689  0.00510063  1
  Pd  Pd177  1  0.79941033  0.40627177  0.79710760  1
  Pd  Pd178  1  0.59444237  0.60425253  -0.01019340  1
  Pd  Pd179  1  0.40600767  0.60382510  0.79917138  1
  Pd  Pd180  1  0.19319054  0.40838701  0.60955581  1
  Pd  Pd181  1  0.60481547  0.40865315  0.79367863  1
  Pd  Pd182  1  0.39772864  0.39770772  0.60772116  1
  Pd  Pd183  1  0.60293387  0.60232863  0.39870322  1
  Pd  Pd184  1  0.19475556  0.80755649  0.80603061  1
  Pd  Pd185  1  0.59721368  0.78874436  0.40408368  1
  Pd  Pd186  1  0.80998539  0.19250352  -0.00761105  1
  Pd  Pd187  1  0.20447934  0.80611518  0.20807371  1
  Pd  Pd188  1  0.39772079  0.80319125  0.80234672  1
  Pd  Pd189  1  0.60003124  0.19986171  0.20181531  1
  Pd  Pd190  1  0.60403763  0.00270747  0.79481668  1
  Pd  Pd191  1  0.59800788  0.19799316  0.59289137  1
  Pd  Pd192  1  0.40113351  0.19875448  0.80595229  1
  Pd  Pd193  1  -0.00126613  0.20945410  0.61080933  1
  Pd  Pd194  1  0.41056901  -0.01187155  0.60670772  1
  Pd  Pd195  1  0.39785676  0.39914284  0.79038275  1
  Pd  Pd196  1  0.39236405  0.60599949  0.19684280  1
  Pd  Pd197  1  0.40491979  0.40022581  0.19407414  1
  Pd  Pd198  1  -0.00469109  0.80356593  0.80421226  1
  Pd  Pd199  1  -0.00035045  0.39915273  0.40211063  1
  Rh  Rh200  1  0.19955053  0.80426404  -0.01090344  1
  Rh  Rh201  1  0.39652565  0.60101486  0.40380666  1
  Rh  Rh202  1  -0.00724965  -0.01158683  0.39986417  1
  Rh  Rh203  1  0.79434888  0.61082338  0.39773843  1
  Rh  Rh204  1  0.60511583  0.39835230  0.00691879  1
  Rh  Rh205  1  0.59523960  0.78944334  0.80834747  1
  Rh  Rh206  1  0.79034186  0.40613971  0.00302031  1
  Rh  Rh207  1  0.19748027  0.41242038  0.20638117  1
  Rh  Rh208  1  0.79305896  0.59454834  0.80158099  1
  Rh  Rh209  1  0.00325703  0.00047041  0.60805184  1
  Rh  Rh210  1  0.79456349  -0.00293601  0.80048658  1
  Rh  Rh211  1  0.00238507  0.00529266  0.00989435  1
  Rh  Rh212  1  0.59842959  0.20425861  -0.01120644  1
  Rh  Rh213  1  0.39927241  0.59958042  -0.00440588  1
  Rh  Rh214  1  0.79277770  0.40355944  0.39232287  1
  Rh  Rh215  1  0.19864516  0.59745326  -0.00713595  1
  Rh  Rh216  1  0.19144966  0.20324534  0.80440863  1
  Rh  Rh217  1  0.39267441  0.60467918  0.59952859  1
  Rh  Rh218  1  0.79544175  0.79513840  -0.00670733  1
  Rh  Rh219  1  0.00240407  -0.00964378  0.19292334  1
  Rh  Rh220  1  0.40122668  -0.00435392  0.79960452  1
  Rh  Rh221  1  0.60273774  0.59056641  0.20065359  1
  Rh  Rh222  1  0.61212575  0.00106213  0.40097079  1
  Rh  Rh223  1  0.20367297  0.79559169  0.60289118  1
  Rh  Rh224  1  0.59401802  0.80569620  0.19241117  1
  Rh  Rh225  1  -0.00710109  0.78974867  0.59714162  1
  Rh  Rh226  1  0.60064677  0.60720723  0.60991661  1
  Rh  Rh227  1  0.40339788  0.40228478  0.40170379  1
  Rh  Rh228  1  0.80892345  0.19649579  0.81052889  1
  Rh  Rh229  1  0.80557240  0.20195740  0.19898797  1
  Rh  Rh230  1  -0.00951601  0.39207872  0.79216185  1
  Rh  Rh231  1  0.00011192  0.60064261  0.18850441  1
  Rh  Rh232  1  -0.00139689  0.40291928  0.00863960  1
  Rh  Rh233  1  0.20954445  0.40561114  0.79514051  1
  Rh  Rh234  1  0.20858292  0.19008828  0.20372777  1
  Rh  Rh235  1  0.80524374  0.61006312  0.60175351  1
  Rh  Rh236  1  0.39266270  -0.00327009  0.39810207  1
  Rh  Rh237  1  0.80590213  0.80464805  0.80115507  1
  Rh  Rh238  1  0.80684752  0.79011197  0.20412416  1
  Rh  Rh239  1  0.80455749  0.20212930  0.59621325  1
  Rh  Rh240  1  0.79510006  0.00199489  0.00184370  1
  Rh  Rh241  1  0.39896696  0.39418935  0.00217442  1
  Rh  Rh242  1  0.39622863  0.20622759  0.60714731  1
  Rh  Rh243  1  0.19333450  -0.00029499  0.00495338  1
  Rh  Rh244  1  -0.00430627  0.60050228  0.80455557  1
  Rh  Rh245  1  0.20568910  0.39787934  -0.00249349  1
  Rh  Rh246  1  0.00188381  0.20600445  0.40153421  1
  Rh  Rh247  1  0.59838959  0.80227793  0.59829917  1
  Rh  Rh248  1  0.19404820  -0.00596655  0.59687226  1
  Rh  Rh249  1  0.61312574  -0.00897488  0.00216111  1
