# generated using pymatgen
data_ZrScNbPdRh
_symmetry_space_group_name_H-M   'P 1'
_cell_length_a   16.55823439
_cell_length_b   16.55469287
_cell_length_c   16.55210284
_cell_angle_alpha   89.99013162
_cell_angle_beta   89.97090752
_cell_angle_gamma   89.95726813
_symmetry_Int_Tables_number   1
_chemical_formula_structural   ZrScNbPdRh
_chemical_formula_sum   'Zr50 Sc50 Nb50 Pd50 Rh50'
_cell_volume   4537.20233122
_cell_formula_units_Z   50
loop_
 _symmetry_equiv_pos_site_id
 _symmetry_equiv_pos_as_xyz
  1  'x, y, z'
loop_
 _atom_site_type_symbol
 _atom_site_label
 _atom_site_symmetry_multiplicity
 _atom_site_fract_x
 _atom_site_fract_y
 _atom_site_fract_z
 _atom_site_occupancy
  Zr  Zr0  1  0.89783127  0.70649757  0.08940073  1
  Zr  Zr1  1  0.48303151  0.90325946  0.70336110  1
  Zr  Zr2  1  0.29699132  0.30579050  0.50140179  1
  Zr  Zr3  1  0.09854336  0.89666981  0.69862342  1
  Zr  Zr4  1  0.69962044  0.90265960  0.90244600  1
  Zr  Zr5  1  0.09842549  0.30587276  0.51088618  1
  Zr  Zr6  1  0.70469075  0.90740180  0.30218367  1
  Zr  Zr7  1  0.09680343  0.49665465  0.90027221  1
  Zr  Zr8  1  0.69823790  0.48763354  0.10162602  1
  Zr  Zr9  1  0.08927196  0.09391395  0.70581957  1
  Zr  Zr10  1  0.50338376  0.69478948  0.49435456  1
  Zr  Zr11  1  0.50695456  0.49829200  0.69656549  1
  Zr  Zr12  1  0.70130881  0.09502556  0.49620179  1
  Zr  Zr13  1  0.31072156  0.29768085  0.89402245  1
  Zr  Zr14  1  0.90703157  0.11471869  0.89435296  1
  Zr  Zr15  1  0.49375118  0.70865438  0.10386586  1
  Zr  Zr16  1  0.30028634  0.49124246  0.30551155  1
  Zr  Zr17  1  0.30926272  0.10759478  0.49889639  1
  Zr  Zr18  1  0.69863652  0.69962362  0.09957355  1
  Zr  Zr19  1  0.70393004  0.49297679  0.89728664  1
  Zr  Zr20  1  0.50509899  0.89106720  0.28879369  1
  Zr  Zr21  1  0.10212642  0.30776160  0.10136698  1
  Zr  Zr22  1  0.90558037  0.90609984  0.69773224  1
  Zr  Zr23  1  0.50150135  0.09836961  0.50331718  1
  Zr  Zr24  1  0.50645246  0.30147061  0.09189771  1
  Zr  Zr25  1  0.29615558  0.69950902  0.69423345  1
  Zr  Zr26  1  0.69810115  0.50523277  0.51252525  1
  Zr  Zr27  1  0.90353906  0.09808698  0.10637199  1
  Zr  Zr28  1  0.90164067  0.49980051  0.89180788  1
  Zr  Zr29  1  0.70723289  0.90346996  0.50144871  1
  Zr  Zr30  1  0.50329871  0.50114728  0.30741680  1
  Zr  Zr31  1  0.69775123  0.30371821  0.29298963  1
  Zr  Zr32  1  0.29409747  0.69766567  0.50383368  1
  Zr  Zr33  1  0.90580397  0.49559172  0.50272933  1
  Zr  Zr34  1  0.31171756  0.09760249  0.70085159  1
  Zr  Zr35  1  0.90565062  0.69171656  0.50119079  1
  Zr  Zr36  1  0.09949845  0.69466735  0.30074420  1
  Zr  Zr37  1  0.49757977  0.50439823  0.50053863  1
  Zr  Zr38  1  0.70445966  0.70511022  0.49715058  1
  Zr  Zr39  1  0.70187023  0.09973779  0.30864837  1
  Zr  Zr40  1  0.89941407  0.30100903  0.29908276  1
  Zr  Zr41  1  0.10182114  0.90794076  0.88989095  1
  Zr  Zr42  1  0.29719818  0.90574858  0.88694355  1
  Zr  Zr43  1  0.10039033  0.70069169  0.69352910  1
  Zr  Zr44  1  0.09663890  0.69463890  0.10192193  1
  Zr  Zr45  1  0.70417268  0.90042011  0.69887959  1
  Zr  Zr46  1  0.48915358  0.69955861  0.69357223  1
  Zr  Zr47  1  0.09773152  0.90342802  0.10160605  1
  Zr  Zr48  1  0.30302092  0.29157783  0.11018299  1
  Zr  Zr49  1  0.50270011  0.09944632  0.31388266  1
  Sc  Sc50  1  0.29072990  0.50316529  0.49723797  1
  Sc  Sc51  1  0.90543287  0.10158732  0.30086732  1
  Sc  Sc52  1  0.49126551  0.10625255  0.90333678  1
  Sc  Sc53  1  0.70494498  0.90612742  0.10523079  1
  Sc  Sc54  1  0.90073479  0.29751451  0.09938438  1
  Sc  Sc55  1  0.49048646  0.30158126  0.70819858  1
  Sc  Sc56  1  0.70604068  0.29997644  0.90439969  1
  Sc  Sc57  1  0.30280501  0.68982738  0.89970546  1
  Sc  Sc58  1  0.49175759  0.30482116  0.30194680  1
  Sc  Sc59  1  0.89534370  0.69776004  0.30580194  1
  Sc  Sc60  1  0.71496229  0.09708005  0.69626246  1
  Sc  Sc61  1  0.90300770  0.69918418  0.89713038  1
  Sc  Sc62  1  0.29948840  0.69680276  0.10339800  1
  Sc  Sc63  1  0.71029115  0.70392154  0.69250886  1
  Sc  Sc64  1  0.90808051  0.29905395  0.50188547  1
  Sc  Sc65  1  0.50179656  0.89715562  0.49908422  1
  Sc  Sc66  1  0.70128902  0.70493212  0.30402803  1
  Sc  Sc67  1  0.90826304  0.69779500  0.70055506  1
  Sc  Sc68  1  0.50061614  0.49950656  0.08937530  1
  Sc  Sc69  1  0.89949966  0.10344787  0.70089128  1
  Sc  Sc70  1  0.49740276  0.29578948  0.49756447  1
  Sc  Sc71  1  0.50327997  0.10684322  0.09392012  1
  Sc  Sc72  1  0.08524029  0.69542281  0.89279440  1
  Sc  Sc73  1  0.70824679  0.30554693  0.70231625  1
  Sc  Sc74  1  0.09594271  0.89902334  0.30774374  1
  Sc  Sc75  1  0.09863502  0.10816841  0.10743134  1
  Sc  Sc76  1  0.49247944  0.68821662  0.90857859  1
  Sc  Sc77  1  0.70172665  0.28984068  0.50195293  1
  Sc  Sc78  1  0.29939610  0.49547700  0.89504829  1
  Sc  Sc79  1  0.90252251  0.29690918  0.69992612  1
  Sc  Sc80  1  0.90508836  0.50317128  0.30189539  1
  Sc  Sc81  1  0.30017277  0.88850881  0.49733153  1
  Sc  Sc82  1  0.90318267  0.49829668  0.10271117  1
  Sc  Sc83  1  0.90809739  0.90221583  0.49532940  1
  Sc  Sc84  1  0.10250664  0.49380009  0.70229223  1
  Sc  Sc85  1  0.29985217  0.89082488  0.30516927  1
  Sc  Sc86  1  0.10045640  0.70076916  0.49806143  1
  Sc  Sc87  1  0.70642050  0.30279762  0.09493297  1
  Sc  Sc88  1  0.30099496  0.88913593  0.10365890  1
  Sc  Sc89  1  0.70657694  0.10632344  0.90533634  1
  Sc  Sc90  1  0.09904467  0.49799016  0.49787104  1
  Sc  Sc91  1  0.29017253  0.69983572  0.30280410  1
  Sc  Sc92  1  0.29565553  0.49211349  0.10268746  1
  Sc  Sc93  1  0.09459045  0.30375944  0.29859040  1
  Sc  Sc94  1  0.89702834  0.89257963  0.90191330  1
  Sc  Sc95  1  0.70359991  0.70427242  0.90198050  1
  Sc  Sc96  1  0.29750272  0.30010302  0.69910405  1
  Sc  Sc97  1  0.49649043  0.48916795  0.90019409  1
  Sc  Sc98  1  0.70232174  0.10159427  0.09466506  1
  Sc  Sc99  1  0.09049968  0.30572706  0.89673263  1
  Nb  Nb100  1  0.90006933  0.90567545  0.10347446  1
  Nb  Nb101  1  0.09928683  0.90424331  0.50349091  1
  Nb  Nb102  1  0.89959772  0.90990891  0.28668188  1
  Nb  Nb103  1  0.49746322  0.90308447  0.90162713  1
  Nb  Nb104  1  0.09751858  0.10009232  0.49969778  1
  Nb  Nb105  1  0.70605153  0.50022263  0.70327635  1
  Nb  Nb106  1  0.10017819  0.50477196  0.10344206  1
  Nb  Nb107  1  0.49580056  0.90052756  0.09977813  1
  Nb  Nb108  1  0.70064533  0.49704552  0.29545515  1
  Nb  Nb109  1  0.88591022  0.49938880  0.69653826  1
  Nb  Nb110  1  0.10359050  0.09676831  0.89819188  1
  Nb  Nb111  1  0.30049933  0.10748582  0.29751325  1
  Nb  Nb112  1  0.49862555  0.09909813  0.69789212  1
  Nb  Nb113  1  0.29366094  0.89520487  0.69846656  1
  Nb  Nb114  1  0.30033147  0.29335819  0.30367968  1
  Nb  Nb115  1  0.30004859  0.50076242  0.69928658  1
  Nb  Nb116  1  0.29274514  0.09817110  0.90331790  1
  Nb  Nb117  1  0.50618240  0.69708812  0.29680030  1
  Nb  Nb118  1  0.10561039  0.29885133  0.69952773  1
  Nb  Nb119  1  0.29983541  0.10253281  0.10134212  1
  Nb  Nb120  1  0.89508686  0.29985954  0.89947972  1
  Nb  Nb121  1  0.89941661  0.10155945  0.50355068  1
  Nb  Nb122  1  0.50096502  0.29432658  0.90014533  1
  Nb  Nb123  1  0.10108959  0.50779239  0.29245543  1
  Nb  Nb124  1  0.10302585  0.10287669  0.29983247  1
  Nb  Nb125  1  0.20570479  0.00757840  0.20734094  1
  Nb  Nb126  1  0.19832191  0.00833188  0.40200090  1
  Nb  Nb127  1  0.60723499  0.40534746  0.40186270  1
  Nb  Nb128  1  0.20168905  0.19660209  -0.00423313  1
  Nb  Nb129  1  0.39402834  -0.00157294  0.00396993  1
  Nb  Nb130  1  0.19635427  0.19494413  0.80362154  1
  Nb  Nb131  1  0.39679266  0.00387577  0.19783709  1
  Nb  Nb132  1  0.00235636  0.00374604  -0.00141680  1
  Nb  Nb133  1  0.79951387  0.59534720  -0.00028660  1
  Nb  Nb134  1  0.79479515  0.40355865  0.39928282  1
  Nb  Nb135  1  0.59473597  0.00184379  0.79941690  1
  Nb  Nb136  1  0.60020060  0.20222414  0.20342476  1
  Nb  Nb137  1  0.59790415  0.19544966  0.79671305  1
  Nb  Nb138  1  0.19491304  0.79690990  -0.00459990  1
  Nb  Nb139  1  0.19080029  0.59752147  0.00303453  1
  Nb  Nb140  1  0.40598263  0.60021852  0.20597602  1
  Nb  Nb141  1  -0.00760512  0.80458343  0.19905405  1
  Nb  Nb142  1  0.59721394  0.19383996  0.60933546  1
  Nb  Nb143  1  0.59851735  0.59894262  0.20213128  1
  Nb  Nb144  1  0.39711717  0.40693861  0.60089803  1
  Nb  Nb145  1  0.19803254  -0.00088260  0.59549573  1
  Nb  Nb146  1  0.19812037  0.19808532  0.39832867  1
  Nb  Nb147  1  0.60430771  0.60021932  0.79616179  1
  Nb  Nb148  1  0.59183379  0.80831218  -0.00044890  1
  Nb  Nb149  1  0.59239041  0.80154244  0.80319831  1
  Pd  Pd150  1  -0.00210969  0.40205101  0.20129645  1
  Pd  Pd151  1  0.18994746  0.39512089  0.39460802  1
  Pd  Pd152  1  0.39281842  0.80431651  -0.00796769  1
  Pd  Pd153  1  0.60176926  0.80466021  0.39961585  1
  Pd  Pd154  1  0.00594427  0.59035118  0.60456027  1
  Pd  Pd155  1  0.39050168  0.60717967  0.39560428  1
  Pd  Pd156  1  0.40727998  0.59257994  0.79972311  1
  Pd  Pd157  1  0.19821263  0.19208607  0.60299354  1
  Pd  Pd158  1  0.00527125  0.20227157  0.40055028  1
  Pd  Pd159  1  0.19891619  0.39867110  0.20722002  1
  Pd  Pd160  1  0.39519747  -0.00735792  0.39424511  1
  Pd  Pd161  1  0.60579705  0.61097644  0.60852171  1
  Pd  Pd162  1  0.40587951  0.40545400  0.19718266  1
  Pd  Pd163  1  -0.00659622  0.40215801  0.00302651  1
  Pd  Pd164  1  0.80549376  0.20615627  0.40376295  1
  Pd  Pd165  1  0.41329265  0.19439174  0.20200016  1
  Pd  Pd166  1  0.19505000  0.60095709  0.80487364  1
  Pd  Pd167  1  0.19842189  0.78691583  0.80726502  1
  Pd  Pd168  1  0.81187398  0.00400816  -0.00459074  1
  Pd  Pd169  1  0.20393026  0.39679871  -0.00524829  1
  Pd  Pd170  1  0.80122535  0.79633599  0.79890253  1
  Pd  Pd171  1  -0.00200480  0.19846935  0.60424661  1
  Pd  Pd172  1  0.80235868  0.80047507  0.20111092  1
  Pd  Pd173  1  -0.00377374  0.80036863  0.39455158  1
  Pd  Pd174  1  0.00473027  0.80894301  -0.00094606  1
  Pd  Pd175  1  0.59511956  0.38559042  0.59708467  1
  Pd  Pd176  1  0.81507066  0.80098345  0.59748108  1
  Pd  Pd177  1  0.60170297  0.00076659  0.60693565  1
  Pd  Pd178  1  0.00784362  0.19860399  0.00189856  1
  Pd  Pd179  1  0.40014909  0.79169041  0.80723373  1
  Pd  Pd180  1  0.79461211  0.19640003  0.19638743  1
  Pd  Pd181  1  0.39145722  -0.01055138  0.59128131  1
  Pd  Pd182  1  0.59510710  0.80117901  0.60607848  1
  Pd  Pd183  1  0.80260272  0.39171633  0.59349742  1
  Pd  Pd184  1  0.39448940  0.39829194  0.00245660  1
  Pd  Pd185  1  -0.00014693  0.00377112  0.39759209  1
  Pd  Pd186  1  -0.01215241  0.60775205  0.20035084  1
  Pd  Pd187  1  -0.00552143  0.39848998  0.79079101  1
  Pd  Pd188  1  0.20085031  -0.00109260  0.01214144  1
  Pd  Pd189  1  0.40374222  0.79137399  0.39669314  1
  Pd  Pd190  1  0.60235602  0.39453490  0.80313757  1
  Pd  Pd191  1  0.59312444  0.00187318  -0.00266837  1
  Pd  Pd192  1  0.59551667  0.01044942  0.19602033  1
  Pd  Pd193  1  0.79804052  0.59781238  0.19473544  1
  Pd  Pd194  1  0.79595111  0.59183282  0.40233504  1
  Pd  Pd195  1  0.80036388  0.00458926  0.80683593  1
  Pd  Pd196  1  0.79658245  0.60864976  0.80256835  1
  Pd  Pd197  1  0.81075602  0.80825098  0.39840704  1
  Pd  Pd198  1  0.60495378  0.60292279  -0.00323731  1
  Pd  Pd199  1  0.19289595  0.80559176  0.20013419  1
  Rh  Rh200  1  -0.00183520  0.59205636  0.78980272  1
  Rh  Rh201  1  0.60051291  0.39385751  -0.00917090  1
  Rh  Rh202  1  0.39871826  0.80033058  0.59383887  1
  Rh  Rh203  1  0.59866013  0.21021625  0.39904317  1
  Rh  Rh204  1  0.60733918  0.79757034  0.19285932  1
  Rh  Rh205  1  0.60433361  0.20396345  -0.00286815  1
  Rh  Rh206  1  -0.00298627  0.59025088  -0.00254745  1
  Rh  Rh207  1  0.79531651  0.20521018  0.80014461  1
  Rh  Rh208  1  0.39911298  0.19452873  0.80089808  1
  Rh  Rh209  1  0.19447154  0.20255438  0.20103248  1
  Rh  Rh210  1  0.79854650  0.19794096  0.59731467  1
  Rh  Rh211  1  0.39321625  0.19748096  -0.00002508  1
  Rh  Rh212  1  0.40213401  0.00731863  0.80851122  1
  Rh  Rh213  1  0.79096607  0.79968084  0.00296875  1
  Rh  Rh214  1  0.00003462  0.40224604  0.60914357  1
  Rh  Rh215  1  0.59142705  0.39917675  0.20250647  1
  Rh  Rh216  1  0.38441306  0.59098397  0.01107065  1
  Rh  Rh217  1  0.00861126  -0.00116489  0.20002743  1
  Rh  Rh218  1  0.19120934  0.80393740  0.40446546  1
  Rh  Rh219  1  0.80943150  0.40370354  -0.00064460  1
  Rh  Rh220  1  0.81018586  -0.00001199  0.59377077  1
  Rh  Rh221  1  0.39829162  0.40608238  0.79307242  1
  Rh  Rh222  1  0.80620979  0.39367899  0.79861206  1
  Rh  Rh223  1  0.40236743  0.39640940  0.40992114  1
  Rh  Rh224  1  0.19514837  0.59673213  0.39800531  1
  Rh  Rh225  1  0.61248241  0.59764716  0.39423759  1
  Rh  Rh226  1  0.39188969  0.59371026  0.59738694  1
  Rh  Rh227  1  0.21128580  0.59183358  0.19850353  1
  Rh  Rh228  1  0.39822227  0.20638307  0.40006873  1
  Rh  Rh229  1  -0.00016279  0.79979066  0.59587936  1
  Rh  Rh230  1  -0.00093610  0.00491113  0.59465562  1
  Rh  Rh231  1  -0.00180881  0.40460683  0.39612055  1
  Rh  Rh232  1  0.81077501  0.40235926  0.20396242  1
  Rh  Rh233  1  -0.01302227  -0.00269849  0.81107540  1
  Rh  Rh234  1  0.19537712  0.59538894  0.60046973  1
  Rh  Rh235  1  0.00688870  0.20844056  0.79765346  1
  Rh  Rh236  1  0.20501837  0.00744374  0.78372512  1
  Rh  Rh237  1  0.19610198  0.80537698  0.59467092  1
  Rh  Rh238  1  0.79640890  0.00903835  0.20143655  1
  Rh  Rh239  1  0.00622310  0.59704301  0.39962049  1
  Rh  Rh240  1  0.20163987  0.39079599  0.79773081  1
  Rh  Rh241  1  0.80285948  0.60323463  0.60053180  1
  Rh  Rh242  1  0.20451594  0.40672784  0.60613829  1
  Rh  Rh243  1  0.59787447  -0.01159660  0.40197845  1
  Rh  Rh244  1  0.39555131  0.79671018  0.20866879  1
  Rh  Rh245  1  0.80576035  0.20293362  0.00293072  1
  Rh  Rh246  1  0.00222216  0.20456404  0.20173443  1
  Rh  Rh247  1  -0.00355398  0.80295305  0.79548227  1
  Rh  Rh248  1  0.40812680  0.21178615  0.60338147  1
  Rh  Rh249  1  0.81296228  0.00051373  0.40038164  1
