# generated using pymatgen
data_ZrScNbPdRh
_symmetry_space_group_name_H-M   'P 1'
_cell_length_a   16.56226596
_cell_length_b   16.56216790
_cell_length_c   16.56006865
_cell_angle_alpha   89.98840442
_cell_angle_beta   90.01189705
_cell_angle_gamma   89.98529918
_symmetry_Int_Tables_number   1
_chemical_formula_structural   ZrScNbPdRh
_chemical_formula_sum   'Zr50 Sc50 Nb50 Pd50 Rh50'
_cell_volume   4542.54289926
_cell_formula_units_Z   50
loop_
 _symmetry_equiv_pos_site_id
 _symmetry_equiv_pos_as_xyz
  1  'x, y, z'
loop_
 _atom_site_type_symbol
 _atom_site_label
 _atom_site_symmetry_multiplicity
 _atom_site_fract_x
 _atom_site_fract_y
 _atom_site_fract_z
 _atom_site_occupancy
  Zr  Zr0  1  0.51032345  0.49474583  0.10922761  1
  Zr  Zr1  1  0.69662389  0.10683012  0.30911946  1
  Zr  Zr2  1  0.50076023  0.49398570  0.69499428  1
  Zr  Zr3  1  0.10158617  0.09932155  0.30187857  1
  Zr  Zr4  1  0.89520258  0.69405700  0.69719177  1
  Zr  Zr5  1  0.49556088  0.69161005  0.49660367  1
  Zr  Zr6  1  0.30288628  0.09278695  0.30092021  1
  Zr  Zr7  1  0.29573253  0.50717945  0.90086385  1
  Zr  Zr8  1  0.29764679  0.49874707  0.09906601  1
  Zr  Zr9  1  0.30615587  0.10175833  0.10142503  1
  Zr  Zr10  1  0.28825612  0.49465028  0.30283964  1
  Zr  Zr11  1  0.70033041  0.30370024  0.70486944  1
  Zr  Zr12  1  0.90006240  0.70034129  0.91016272  1
  Zr  Zr13  1  0.50194611  0.90201826  0.70417342  1
  Zr  Zr14  1  0.29845479  0.68827068  0.50444474  1
  Zr  Zr15  1  0.89683151  0.49954150  0.50415702  1
  Zr  Zr16  1  0.49571532  0.29921013  0.09672297  1
  Zr  Zr17  1  0.09979493  0.90035119  0.30095727  1
  Zr  Zr18  1  0.08816230  0.29404765  0.10203401  1
  Zr  Zr19  1  0.70403233  0.30283447  0.10146983  1
  Zr  Zr20  1  0.30828337  0.89361570  0.11277849  1
  Zr  Zr21  1  0.90859122  0.49931989  0.30563739  1
  Zr  Zr22  1  0.69699307  0.10017123  0.49874647  1
  Zr  Zr23  1  0.69969221  0.69662299  0.70833127  1
  Zr  Zr24  1  0.29761945  0.69915156  0.89443702  1
  Zr  Zr25  1  0.89208761  0.09580193  0.50539134  1
  Zr  Zr26  1  0.10378495  0.89191554  0.09568114  1
  Zr  Zr27  1  0.88856273  0.89288336  0.10276513  1
  Zr  Zr28  1  0.10034414  0.49327734  0.89420953  1
  Zr  Zr29  1  0.50767544  0.09874929  0.69562807  1
  Zr  Zr30  1  0.89445401  0.70775551  0.29410594  1
  Zr  Zr31  1  0.30109587  0.69980429  0.08977576  1
  Zr  Zr32  1  0.89777133  0.09777740  0.30482367  1
  Zr  Zr33  1  0.09636605  0.69553497  0.30145568  1
  Zr  Zr34  1  0.69183523  0.90217191  0.90054427  1
  Zr  Zr35  1  0.10006091  0.49797448  0.70186557  1
  Zr  Zr36  1  0.09946864  0.91257528  0.49968612  1
  Zr  Zr37  1  0.49826397  0.10178782  0.50018291  1
  Zr  Zr38  1  0.09352434  0.09439987  0.70434841  1
  Zr  Zr39  1  0.10058757  0.49855980  0.10847086  1
  Zr  Zr40  1  0.68979051  0.89670611  0.09748966  1
  Zr  Zr41  1  0.09746096  0.09492174  0.89790479  1
  Zr  Zr42  1  0.69563259  0.90533453  0.70306186  1
  Zr  Zr43  1  0.89783308  0.90657334  0.49180574  1
  Zr  Zr44  1  0.29798030  0.50405907  0.69855775  1
  Zr  Zr45  1  0.70573533  0.29712502  0.49379321  1
  Zr  Zr46  1  0.89793423  0.29641445  0.90779406  1
  Zr  Zr47  1  0.30527139  0.49504114  0.49407318  1
  Zr  Zr48  1  0.69421103  0.69446305  0.90434964  1
  Zr  Zr49  1  0.89984400  0.49053615  0.69755126  1
  Sc  Sc50  1  0.90242214  0.48943712  0.90041944  1
  Sc  Sc51  1  0.32187582  0.29629905  0.90662809  1
  Sc  Sc52  1  0.10199046  0.30945517  0.70087037  1
  Sc  Sc53  1  0.49813281  0.10012166  0.30618801  1
  Sc  Sc54  1  0.11103448  0.70014141  0.69541478  1
  Sc  Sc55  1  0.49838401  0.90013243  0.28859346  1
  Sc  Sc56  1  0.89705131  0.69715130  0.49005001  1
  Sc  Sc57  1  0.90380300  0.10741950  0.89656313  1
  Sc  Sc58  1  0.70402134  0.49634200  0.70092204  1
  Sc  Sc59  1  0.09208976  0.69759269  0.09543025  1
  Sc  Sc60  1  0.70524045  0.09296148  0.09998121  1
  Sc  Sc61  1  0.50035311  0.29916223  0.70450934  1
  Sc  Sc62  1  0.68782528  0.50045880  0.29712420  1
  Sc  Sc63  1  0.10819259  0.90755127  0.70429651  1
  Sc  Sc64  1  0.50029206  0.70000452  0.90153226  1
  Sc  Sc65  1  0.10216496  0.10460017  0.10660375  1
  Sc  Sc66  1  0.89697298  0.89699192  0.90441774  1
  Sc  Sc67  1  0.70054307  0.70167424  0.48540553  1
  Sc  Sc68  1  0.30015763  0.91871613  0.50468389  1
  Sc  Sc69  1  0.70001696  0.70103616  0.29699994  1
  Sc  Sc70  1  0.30164221  0.69869732  0.29535879  1
  Sc  Sc71  1  0.31005811  0.10543544  0.50153974  1
  Sc  Sc72  1  0.29667897  0.69949748  0.70359033  1
  Sc  Sc73  1  0.10417200  0.70382541  0.90739486  1
  Sc  Sc74  1  0.09860924  0.31210906  0.29451100  1
  Sc  Sc75  1  0.50114492  0.10877330  0.89489808  1
  Sc  Sc76  1  0.50354147  0.30506908  0.29586839  1
  Sc  Sc77  1  0.50208556  0.91526286  0.49744497  1
  Sc  Sc78  1  0.89289992  0.30919502  0.49819946  1
  Sc  Sc79  1  0.50375593  0.70019726  0.30425166  1
  Sc  Sc80  1  0.50258211  0.50232647  0.89642123  1
  Sc  Sc81  1  0.50110264  0.10058662  0.11065486  1
  Sc  Sc82  1  0.70009382  0.90698754  0.49156999  1
  Sc  Sc83  1  0.48856499  0.30504140  0.50018569  1
  Sc  Sc84  1  0.28817909  0.89354690  0.90001235  1
  Sc  Sc85  1  0.70037997  0.49455398  0.49462758  1
  Sc  Sc86  1  0.10026126  0.90041650  0.89755168  1
  Sc  Sc87  1  0.10364139  0.49929665  0.49581050  1
  Sc  Sc88  1  0.69715233  0.49738820  0.89014800  1
  Sc  Sc89  1  0.70265323  0.89732539  0.29630733  1
  Sc  Sc90  1  0.30644571  0.10069362  0.69623904  1
  Sc  Sc91  1  0.49472801  0.49999550  0.49236823  1
  Sc  Sc92  1  0.69984019  0.10821899  0.69041105  1
  Sc  Sc93  1  0.49148650  0.69837104  0.70761673  1
  Sc  Sc94  1  0.30569231  0.30149769  0.68959053  1
  Sc  Sc95  1  0.30041788  0.09513785  0.90064462  1
  Sc  Sc96  1  0.70148076  0.10348474  0.89614419  1
  Sc  Sc97  1  0.30574497  0.29948789  0.10841325  1
  Sc  Sc98  1  0.50449902  0.70597412  0.09439661  1
  Sc  Sc99  1  0.10421850  0.69731535  0.50351949  1
  Nb  Nb100  1  0.71138180  0.68648582  0.10032738  1
  Nb  Nb101  1  0.88707768  0.69092526  0.09981007  1
  Nb  Nb102  1  0.70004751  0.29954636  0.90151751  1
  Nb  Nb103  1  0.10555918  0.29209707  0.50337486  1
  Nb  Nb104  1  0.49503729  0.50526175  0.30210305  1
  Nb  Nb105  1  0.29818013  0.30036262  0.49402161  1
  Nb  Nb106  1  0.71008161  0.30257088  0.30125940  1
  Nb  Nb107  1  0.90135854  0.89674811  0.30063821  1
  Nb  Nb108  1  0.30061750  0.89864186  0.30116554  1
  Nb  Nb109  1  0.90435208  0.10816083  0.09993627  1
  Nb  Nb110  1  0.89184267  0.50486598  0.10252770  1
  Nb  Nb111  1  0.89896886  0.30018606  0.30097505  1
  Nb  Nb112  1  0.29753070  0.30230363  0.31304019  1
  Nb  Nb113  1  0.89619544  0.29536461  0.69899781  1
  Nb  Nb114  1  0.90140557  0.09652928  0.69809782  1
  Nb  Nb115  1  0.51007042  0.30068555  0.90133360  1
  Nb  Nb116  1  0.90262022  0.90766470  0.69475559  1
  Nb  Nb117  1  0.50033087  0.89854447  0.09297569  1
  Nb  Nb118  1  0.09839621  0.10194842  0.49956354  1
  Nb  Nb119  1  0.10490558  0.50154016  0.29878934  1
  Nb  Nb120  1  0.89880492  0.29529546  0.10067164  1
  Nb  Nb121  1  0.30312034  0.89611106  0.70621867  1
  Nb  Nb122  1  0.50628361  0.90093916  0.90190915  1
  Nb  Nb123  1  0.09690555  0.29960719  0.90170800  1
  Nb  Nb124  1  0.70146799  0.50600608  0.10348489  1
  Nb  Nb125  1  0.40433888  -0.00881136  0.80480276  1
  Nb  Nb126  1  -0.00652074  -0.00415333  0.19814798  1
  Nb  Nb127  1  0.80472319  0.40000009  0.19861068  1
  Nb  Nb128  1  0.60223513  0.20835609  0.00007373  1
  Nb  Nb129  1  -0.00418198  0.00152275  0.01066742  1
  Nb  Nb130  1  0.40666299  -0.00783310  -0.00054367  1
  Nb  Nb131  1  0.19779144  0.20584815  -0.00501312  1
  Nb  Nb132  1  0.79909754  0.80426982  0.60163782  1
  Nb  Nb133  1  0.59928090  0.60425704  0.59904785  1
  Nb  Nb134  1  0.59887441  0.79633739  0.59846209  1
  Nb  Nb135  1  0.19751155  0.39143584  -0.00108680  1
  Nb  Nb136  1  -0.00049601  0.60343560  0.79886872  1
  Nb  Nb137  1  -0.00555136  0.80565523  0.60321699  1
  Nb  Nb138  1  0.00335710  0.20301405  0.40595904  1
  Nb  Nb139  1  -0.00130126  0.19909001  0.59888087  1
  Nb  Nb140  1  0.80474273  0.00166771  0.79291316  1
  Nb  Nb141  1  0.40051727  0.80393721  0.59695103  1
  Nb  Nb142  1  -0.00495535  0.79691358  0.79191985  1
  Nb  Nb143  1  0.40215834  0.59497466  0.19946835  1
  Nb  Nb144  1  0.39241511  0.80515781  0.40381927  1
  Nb  Nb145  1  0.80531147  0.20522353  0.20168699  1
  Nb  Nb146  1  0.19833131  0.20209330  0.40374668  1
  Nb  Nb147  1  0.60490121  0.39754784  0.00158835  1
  Nb  Nb148  1  0.19904153  0.20371420  0.80586123  1
  Nb  Nb149  1  0.20609331  0.80579055  0.40071199  1
  Pd  Pd150  1  0.19618765  -0.00166359  0.19483505  1
  Pd  Pd151  1  0.60745966  0.20070060  0.19737434  1
  Pd  Pd152  1  0.59547704  0.21309200  0.59436317  1
  Pd  Pd153  1  -0.00492364  0.60355298  0.19827286  1
  Pd  Pd154  1  0.00308982  0.59998208  0.40496554  1
  Pd  Pd155  1  0.00700263  0.79709414  0.41009599  1
  Pd  Pd156  1  0.58984438  0.21070683  0.40257960  1
  Pd  Pd157  1  0.00138713  0.39167798  0.59504517  1
  Pd  Pd158  1  0.79496325  0.40734412  0.00240794  1
  Pd  Pd159  1  0.80804657  0.59160722  0.80808470  1
  Pd  Pd160  1  0.40391205  0.40932521  -0.00351409  1
  Pd  Pd161  1  0.59473087  0.79310496  0.79963644  1
  Pd  Pd162  1  0.59480508  0.61071886  0.19979674  1
  Pd  Pd163  1  0.78698157  0.60510333  0.59072774  1
  Pd  Pd164  1  0.19861580  0.79055069  0.20404287  1
  Pd  Pd165  1  0.39557553  0.40240764  0.20937543  1
  Pd  Pd166  1  0.20263159  0.00408828  0.00749842  1
  Pd  Pd167  1  0.39728249  0.19484451  0.79710730  1
  Pd  Pd168  1  0.59843693  0.00168619  0.20416968  1
  Pd  Pd169  1  0.21588272  0.38609349  0.80913673  1
  Pd  Pd170  1  0.59040517  0.80867885  0.40412631  1
  Pd  Pd171  1  0.59567852  0.39763699  0.39893135  1
  Pd  Pd172  1  -0.00327167  0.79829385  0.19136503  1
  Pd  Pd173  1  0.79807773  0.19591110  0.79775003  1
  Pd  Pd174  1  0.59217443  0.01558354  -0.00221075  1
  Pd  Pd175  1  0.20259747  0.40371145  0.59423970  1
  Pd  Pd176  1  0.19784484  0.19472257  0.60516813  1
  Pd  Pd177  1  0.80674096  0.00837602  -0.00967458  1
  Pd  Pd178  1  0.40033736  0.20296330  0.21129446  1
  Pd  Pd179  1  0.20414675  0.20817039  0.20527278  1
  Pd  Pd180  1  0.78961404  0.79851636  0.00142590  1
  Pd  Pd181  1  0.80486795  0.80868750  0.79710487  1
  Pd  Pd182  1  0.60245413  0.79289372  0.19555573  1
  Pd  Pd183  1  0.20391416  0.60820835  0.19651834  1
  Pd  Pd184  1  0.39896624  0.40036933  0.80060507  1
  Pd  Pd185  1  0.60217440  0.40257372  0.59402470  1
  Pd  Pd186  1  0.00695060  0.39509703  0.40720652  1
  Pd  Pd187  1  0.80128800  0.00446969  0.20377629  1
  Pd  Pd188  1  0.00381008  0.20966138  0.79202335  1
  Pd  Pd189  1  0.00110783  0.40459558  0.00684347  1
  Pd  Pd190  1  0.20493793  0.00804259  0.60517650  1
  Pd  Pd191  1  0.79642992  0.58678790  -0.01182207  1
  Pd  Pd192  1  0.40225166  0.59680234  0.79910903  1
  Pd  Pd193  1  0.00480773  0.60560633  0.60179462  1
  Pd  Pd194  1  0.79368015  0.59438409  0.39152998  1
  Pd  Pd195  1  0.41193151  0.59482059  0.00627230  1
  Pd  Pd196  1  0.00182440  0.59231021  -0.00321929  1
  Pd  Pd197  1  -0.00761744  0.40315922  0.19598739  1
  Pd  Pd198  1  0.39840293  0.80575379  -0.00983153  1
  Pd  Pd199  1  0.20406588  0.80816527  0.59411469  1
  Rh  Rh200  1  0.60210278  0.59506415  0.40475965  1
  Rh  Rh201  1  0.60273547  0.59338150  0.00154615  1
  Rh  Rh202  1  0.40669315  0.79173779  0.20634730  1
  Rh  Rh203  1  0.40449323  0.20385240  0.59848122  1
  Rh  Rh204  1  -0.00786136  0.39540704  0.79801737  1
  Rh  Rh205  1  0.19125576  0.39367620  0.40294476  1
  Rh  Rh206  1  0.80337169  0.59130376  0.21048637  1
  Rh  Rh207  1  0.39345675  0.60314588  0.38688308  1
  Rh  Rh208  1  0.60495380  -0.00232833  0.59464119  1
  Rh  Rh209  1  0.79433150  0.39627041  0.60180166  1
  Rh  Rh210  1  -0.00384829  0.80508629  -0.00073453  1
  Rh  Rh211  1  0.39903918  0.80486753  0.80212109  1
  Rh  Rh212  1  0.19818711  0.60473082  0.39868041  1
  Rh  Rh213  1  0.20279661  0.79859102  0.00090945  1
  Rh  Rh214  1  0.79075195  -0.00240522  0.60530262  1
  Rh  Rh215  1  0.59945067  -0.00139017  0.39164671  1
  Rh  Rh216  1  0.60321452  0.01126338  0.80353456  1
  Rh  Rh217  1  0.60702766  0.39739025  0.20021387  1
  Rh  Rh218  1  0.40561269  0.60064176  0.60813054  1
  Rh  Rh219  1  0.19172075  0.59347865  0.00129956  1
  Rh  Rh220  1  0.40155711  -0.00471353  0.39322638  1
  Rh  Rh221  1  0.40391987  0.39984957  0.39393791  1
  Rh  Rh222  1  0.19097314  0.79778904  0.79870417  1
  Rh  Rh223  1  0.79861700  0.40893559  0.39115767  1
  Rh  Rh224  1  0.60517880  0.20164688  0.80252631  1
  Rh  Rh225  1  0.79171468  0.79757374  0.19715109  1
  Rh  Rh226  1  0.80494507  0.39291580  0.80077743  1
  Rh  Rh227  1  0.20032911  0.39307673  0.19550458  1
  Rh  Rh228  1  0.80545888  0.20432210  0.59967931  1
  Rh  Rh229  1  0.80790719  0.20121956  0.39973858  1
  Rh  Rh230  1  0.40625452  0.18865861  0.00156283  1
  Rh  Rh231  1  -0.01098191  -0.01055634  0.81258323  1
  Rh  Rh232  1  0.21428022  0.00789468  0.79386301  1
  Rh  Rh233  1  0.00238758  0.00183741  0.59834286  1
  Rh  Rh234  1  0.80088754  0.80380090  0.40047485  1
  Rh  Rh235  1  0.79398035  -0.00412824  0.39160358  1
  Rh  Rh236  1  0.39647191  0.40072980  0.59815140  1
  Rh  Rh237  1  0.39980931  -0.00435264  0.61235740  1
  Rh  Rh238  1  0.60597285  0.79162705  0.00338936  1
  Rh  Rh239  1  -0.00656046  0.19505980  0.21223058  1
  Rh  Rh240  1  0.19071894  0.60507499  0.80095016  1
  Rh  Rh241  1  0.20625964  0.00504821  0.40241031  1
  Rh  Rh242  1  0.59998597  0.39872051  0.80330544  1
  Rh  Rh243  1  0.39690904  0.20338781  0.39815407  1
  Rh  Rh244  1  0.59482645  0.59675063  0.79130339  1
  Rh  Rh245  1  0.79459878  0.19406914  0.00499061  1
  Rh  Rh246  1  -0.00162427  0.00490147  0.39366630  1
  Rh  Rh247  1  0.40522351  -0.00233260  0.19663121  1
  Rh  Rh248  1  0.00523312  0.19257960  -0.00235359  1
  Rh  Rh249  1  0.19923890  0.59007059  0.60021289  1
