# generated using pymatgen
data_ZrScNbPdRh
_symmetry_space_group_name_H-M   'P 1'
_cell_length_a   16.55546249
_cell_length_b   16.55539822
_cell_length_c   16.55578976
_cell_angle_alpha   90.05370164
_cell_angle_beta   90.04143993
_cell_angle_gamma   90.04814110
_symmetry_Int_Tables_number   1
_chemical_formula_structural   ZrScNbPdRh
_chemical_formula_sum   'Zr50 Sc50 Nb50 Pd50 Rh50'
_cell_volume   4537.64372362
_cell_formula_units_Z   50
loop_
 _symmetry_equiv_pos_site_id
 _symmetry_equiv_pos_as_xyz
  1  'x, y, z'
loop_
 _atom_site_type_symbol
 _atom_site_label
 _atom_site_symmetry_multiplicity
 _atom_site_fract_x
 _atom_site_fract_y
 _atom_site_fract_z
 _atom_site_occupancy
  Zr  Zr0  1  0.70469692  0.70033029  0.89569239  1
  Zr  Zr1  1  0.70819502  0.70391484  0.09684531  1
  Zr  Zr2  1  0.30929346  0.10593967  0.29054503  1
  Zr  Zr3  1  0.10037380  0.89765573  0.11538210  1
  Zr  Zr4  1  0.50303126  0.89853560  0.10859855  1
  Zr  Zr5  1  0.89808092  0.10299258  0.29558474  1
  Zr  Zr6  1  0.09422131  0.09899673  0.90273729  1
  Zr  Zr7  1  0.90425023  0.89788810  0.69591824  1
  Zr  Zr8  1  0.69278171  0.49721713  0.10252235  1
  Zr  Zr9  1  0.90858265  0.90378704  0.50534042  1
  Zr  Zr10  1  0.10827792  0.50817230  0.50211751  1
  Zr  Zr11  1  0.69947398  0.30496738  0.10312488  1
  Zr  Zr12  1  0.90020443  0.29188473  0.10489750  1
  Zr  Zr13  1  0.30178487  0.69731607  0.90043669  1
  Zr  Zr14  1  0.89478328  0.49479235  0.88951774  1
  Zr  Zr15  1  0.29507606  0.30015312  0.30470796  1
  Zr  Zr16  1  0.70269571  0.90005849  0.50105541  1
  Zr  Zr17  1  0.70275335  0.89458039  0.90616239  1
  Zr  Zr18  1  0.90353134  0.30348468  0.70681155  1
  Zr  Zr19  1  0.29807497  0.69847996  0.11023368  1
  Zr  Zr20  1  0.29618637  0.09191364  0.89868986  1
  Zr  Zr21  1  0.90103464  0.50013336  0.30167259  1
  Zr  Zr22  1  0.49167343  0.70628876  0.29950812  1
  Zr  Zr23  1  0.90540839  0.29761496  0.49365132  1
  Zr  Zr24  1  0.89792187  0.70004595  0.70137859  1
  Zr  Zr25  1  0.89901681  0.10044728  0.90326966  1
  Zr  Zr26  1  0.10378129  0.69980468  0.89617597  1
  Zr  Zr27  1  0.89783956  0.29612534  0.90409583  1
  Zr  Zr28  1  0.69466504  0.29616477  0.89526926  1
  Zr  Zr29  1  0.49558571  0.89773385  0.69741204  1
  Zr  Zr30  1  0.69428553  0.49356291  0.89467659  1
  Zr  Zr31  1  0.89394791  0.70260800  0.50656053  1
  Zr  Zr32  1  0.48874038  0.70273241  0.50635792  1
  Zr  Zr33  1  0.10386951  0.29706215  0.49502275  1
  Zr  Zr34  1  0.89574908  0.90552510  0.30256026  1
  Zr  Zr35  1  0.90433588  0.09753911  0.49048707  1
  Zr  Zr36  1  0.10826803  0.70341377  0.29023739  1
  Zr  Zr37  1  0.49744955  0.70025715  0.10415048  1
  Zr  Zr38  1  0.90841870  0.09795839  0.09854165  1
  Zr  Zr39  1  0.69031117  0.09693416  0.49933060  1
  Zr  Zr40  1  0.70373746  0.50377653  0.50765710  1
  Zr  Zr41  1  0.70666649  0.70399481  0.29555604  1
  Zr  Zr42  1  0.31092035  0.50030524  0.89845469  1
  Zr  Zr43  1  0.09989168  0.29856640  0.10413203  1
  Zr  Zr44  1  0.49991183  0.89343557  0.89528609  1
  Zr  Zr45  1  0.09748349  0.50258800  0.10371220  1
  Zr  Zr46  1  0.69091317  0.29996811  0.49615203  1
  Zr  Zr47  1  0.49843763  0.29243132  0.50074626  1
  Zr  Zr48  1  0.70925095  0.50024250  0.70289493  1
  Zr  Zr49  1  0.48702369  0.09868052  0.10775899  1
  Sc  Sc50  1  0.49915789  0.10146601  0.49652336  1
  Sc  Sc51  1  0.49996679  0.50076733  0.70447430  1
  Sc  Sc52  1  0.49913705  0.10166766  0.69259638  1
  Sc  Sc53  1  0.30675847  0.70125227  0.30540921  1
  Sc  Sc54  1  0.49855804  0.30156734  0.10046639  1
  Sc  Sc55  1  0.89389811  0.69934029  0.29125557  1
  Sc  Sc56  1  0.09583271  0.90330465  0.69486522  1
  Sc  Sc57  1  0.30332314  0.10282409  0.50532047  1
  Sc  Sc58  1  0.29659917  0.50824743  0.31033424  1
  Sc  Sc59  1  0.89792881  0.90256188  0.09997182  1
  Sc  Sc60  1  0.29377542  0.29636032  0.69449412  1
  Sc  Sc61  1  0.50697543  0.29261158  0.30891358  1
  Sc  Sc62  1  0.30049244  0.50733384  0.50065460  1
  Sc  Sc63  1  0.69056648  0.89093391  0.69588711  1
  Sc  Sc64  1  0.69957021  0.50042341  0.29273481  1
  Sc  Sc65  1  0.10022421  0.89968342  0.89447160  1
  Sc  Sc66  1  0.30349074  0.50362113  0.09412648  1
  Sc  Sc67  1  0.89844119  0.50139446  0.09951034  1
  Sc  Sc68  1  0.70109544  0.89422453  0.10650904  1
  Sc  Sc69  1  0.48956728  0.09929080  0.89770674  1
  Sc  Sc70  1  0.69881345  0.70086959  0.69657317  1
  Sc  Sc71  1  0.30357512  0.90869421  0.49118425  1
  Sc  Sc72  1  0.50224486  0.90913877  0.50135194  1
  Sc  Sc73  1  0.49709374  0.90454146  0.30036545  1
  Sc  Sc74  1  0.29460992  0.90475299  0.88878546  1
  Sc  Sc75  1  0.70416701  0.09114487  0.30402378  1
  Sc  Sc76  1  0.49809695  0.50006081  0.10129918  1
  Sc  Sc77  1  0.09785218  0.09387968  0.29579864  1
  Sc  Sc78  1  0.10294054  0.48932641  0.90716128  1
  Sc  Sc79  1  0.10361393  0.49255358  0.30320045  1
  Sc  Sc80  1  0.09707256  0.09425150  0.50182079  1
  Sc  Sc81  1  0.30109713  0.89814230  0.29960253  1
  Sc  Sc82  1  0.30617944  0.70916168  0.69813875  1
  Sc  Sc83  1  0.30339260  0.48836872  0.69532536  1
  Sc  Sc84  1  0.69058318  0.30257580  0.70336442  1
  Sc  Sc85  1  0.49925987  0.50156771  0.50855111  1
  Sc  Sc86  1  0.50303297  0.09393349  0.30501102  1
  Sc  Sc87  1  0.30060152  0.30755414  0.90019807  1
  Sc  Sc88  1  0.68864843  0.11267966  0.70192552  1
  Sc  Sc89  1  0.30269470  0.28619983  0.11135144  1
  Sc  Sc90  1  0.71154198  0.09352797  0.10721816  1
  Sc  Sc91  1  0.90606284  0.29503079  0.29856358  1
  Sc  Sc92  1  0.50347916  0.50978330  0.29734011  1
  Sc  Sc93  1  0.09807712  0.30316601  0.29566589  1
  Sc  Sc94  1  0.49551398  0.30069698  0.69657821  1
  Sc  Sc95  1  0.90427365  0.90068338  0.90123485  1
  Sc  Sc96  1  0.09772433  0.09371739  0.10392082  1
  Sc  Sc97  1  0.09610757  0.30151955  0.89687062  1
  Sc  Sc98  1  0.30410996  0.29811452  0.50683488  1
  Sc  Sc99  1  0.09964197  0.70722113  0.69483789  1
  Nb  Nb100  1  0.49738785  0.69448781  0.89409427  1
  Nb  Nb101  1  0.49313042  0.49989131  0.89935590  1
  Nb  Nb102  1  0.89755682  0.69588838  0.90399870  1
  Nb  Nb103  1  0.29958237  0.09641216  0.09658955  1
  Nb  Nb104  1  0.29633020  0.90819538  0.69813547  1
  Nb  Nb105  1  0.10481108  0.70220074  0.49803700  1
  Nb  Nb106  1  0.09954701  0.49951119  0.70131698  1
  Nb  Nb107  1  0.30247897  0.90427237  0.09698475  1
  Nb  Nb108  1  0.09897833  0.89841772  0.30608695  1
  Nb  Nb109  1  0.29725548  0.69741486  0.49302694  1
  Nb  Nb110  1  0.10400987  0.11471022  0.69799619  1
  Nb  Nb111  1  0.90479472  0.10033521  0.69643435  1
  Nb  Nb112  1  0.69650911  0.10049092  0.89724350  1
  Nb  Nb113  1  0.69839266  0.30096349  0.29841658  1
  Nb  Nb114  1  0.49858217  0.30441675  0.89309620  1
  Nb  Nb115  1  0.29464724  0.09823800  0.70309974  1
  Nb  Nb116  1  0.69760591  0.90068271  0.29720033  1
  Nb  Nb117  1  0.89895677  0.50237204  0.50592157  1
  Nb  Nb118  1  0.69948799  0.70387027  0.50120999  1
  Nb  Nb119  1  0.90287912  0.69635148  0.09428364  1
  Nb  Nb120  1  0.90049835  0.49971708  0.69580967  1
  Nb  Nb121  1  0.50356217  0.71067584  0.70539922  1
  Nb  Nb122  1  0.09913901  0.69940704  0.10011450  1
  Nb  Nb123  1  0.09997305  0.90108410  0.49341542  1
  Nb  Nb124  1  0.10032005  0.30259392  0.69489401  1
  Nb  Nb125  1  0.00121595  0.59447681  0.79665356  1
  Nb  Nb126  1  0.60374601  0.79693905  0.40117261  1
  Nb  Nb127  1  0.79894474  0.40066153  0.40302593  1
  Nb  Nb128  1  0.20092869  0.19791897  0.39809400  1
  Nb  Nb129  1  0.00086400  0.60629020  0.40568874  1
  Nb  Nb130  1  0.60475259  0.61081058  0.40616492  1
  Nb  Nb131  1  0.59862567  0.19406955  0.00009239  1
  Nb  Nb132  1  0.80403986  0.19716071  0.59898212  1
  Nb  Nb133  1  0.39506067  0.79901743  0.00003145  1
  Nb  Nb134  1  0.39955664  0.39888168  0.21094311  1
  Nb  Nb135  1  0.79670657  0.00581634  0.79528824  1
  Nb  Nb136  1  0.00273235  0.40565225  0.60296992  1
  Nb  Nb137  1  0.60550320  0.19950434  0.19760588  1
  Nb  Nb138  1  0.20316991  0.80454966  0.58851968  1
  Nb  Nb139  1  0.00397711  0.78965179  0.00512526  1
  Nb  Nb140  1  0.00631110  0.79753589  0.40020350  1
  Nb  Nb141  1  0.80095822  0.00846900  0.60747765  1
  Nb  Nb142  1  0.20345103  0.19227443  0.00220663  1
  Nb  Nb143  1  0.59970981  0.00486169  -0.00127563  1
  Nb  Nb144  1  0.40250691  0.39995410  0.39972193  1
  Nb  Nb145  1  0.60294308  0.00024521  0.80562509  1
  Nb  Nb146  1  0.19721373  0.59506313  0.79602203  1
  Nb  Nb147  1  0.39208325  0.19731289  0.79830393  1
  Nb  Nb148  1  0.20025937  0.79951170  0.00896613  1
  Nb  Nb149  1  0.59436601  0.60074994  -0.00931550  1
  Pd  Pd150  1  0.59842652  0.60004950  0.79945236  1
  Pd  Pd151  1  0.79982778  0.59500041  0.40032827  1
  Pd  Pd152  1  0.59917321  0.41407197  0.39508979  1
  Pd  Pd153  1  -0.00087936  0.20373142  0.59837243  1
  Pd  Pd154  1  0.79423848  0.20423911  0.40108264  1
  Pd  Pd155  1  0.20680699  0.00018096  0.20551947  1
  Pd  Pd156  1  -0.00166049  0.40972637  0.40630426  1
  Pd  Pd157  1  0.79261829  0.59068485  0.00088083  1
  Pd  Pd158  1  0.39023565  0.80957842  0.59252377  1
  Pd  Pd159  1  0.00034307  0.00494001  0.79468829  1
  Pd  Pd160  1  0.39229883  0.80297330  0.80317694  1
  Pd  Pd161  1  0.20325004  0.20653294  0.80759658  1
  Pd  Pd162  1  0.79189113  0.19673915  0.00465060  1
  Pd  Pd163  1  0.19510828  -0.00191525  0.59895809  1
  Pd  Pd164  1  0.20292523  0.80094943  0.39997755  1
  Pd  Pd165  1  0.19846799  0.39953448  0.59540471  1
  Pd  Pd166  1  0.40566240  -0.00986590  -0.00284919  1
  Pd  Pd167  1  0.80132164  0.80666092  0.79711183  1
  Pd  Pd168  1  0.80690866  0.39771171  0.20746279  1
  Pd  Pd169  1  0.39389332  0.59930827  0.78657853  1
  Pd  Pd170  1  0.80310666  0.80509715  0.40114980  1
  Pd  Pd171  1  0.20424840  0.59285631  0.20456890  1
  Pd  Pd172  1  0.19894327  0.60025012  -0.00457071  1
  Pd  Pd173  1  0.59486766  0.40081428  0.60659190  1
  Pd  Pd174  1  0.20980313  0.40648118  0.19569840  1
  Pd  Pd175  1  0.39761130  0.39283376  0.00961785  1
  Pd  Pd176  1  0.79654713  -0.00101916  -0.00194014  1
  Pd  Pd177  1  -0.00057770  0.59824247  0.20715690  1
  Pd  Pd178  1  0.20500629  0.01023772  0.39560393  1
  Pd  Pd179  1  0.80095732  0.19726904  0.79218725  1
  Pd  Pd180  1  0.20152733  0.40233159  0.79975257  1
  Pd  Pd181  1  0.80508143  0.38827375  0.59625575  1
  Pd  Pd182  1  0.20920997  0.60921864  0.60985222  1
  Pd  Pd183  1  0.59006400  0.39934488  -0.00310372  1
  Pd  Pd184  1  -0.00901581  0.79981506  0.20131174  1
  Pd  Pd185  1  0.19050785  -0.00503916  0.00185476  1
  Pd  Pd186  1  0.00122953  0.59810362  -0.00909873  1
  Pd  Pd187  1  0.59842228  0.60555549  0.60281693  1
  Pd  Pd188  1  0.39803459  0.20632349  -0.00797786  1
  Pd  Pd189  1  0.39973272  0.00454662  0.59999931  1
  Pd  Pd190  1  -0.00274285  0.79499161  0.80695779  1
  Pd  Pd191  1  0.59240904  0.79600079  -0.00080851  1
  Pd  Pd192  1  -0.00546979  0.39885043  0.00403686  1
  Pd  Pd193  1  0.60201731  0.60782795  0.19956176  1
  Pd  Pd194  1  0.18674141  0.00067550  0.79154226  1
  Pd  Pd195  1  0.20787257  0.39016552  0.00946328  1
  Pd  Pd196  1  0.00160451  0.59990895  0.60067419  1
  Pd  Pd197  1  0.80188925  0.40139391  -0.00031480  1
  Pd  Pd198  1  0.00293778  0.20049598  0.80094279  1
  Pd  Pd199  1  0.39582417  0.60131964  0.60888117  1
  Rh  Rh200  1  0.40472747  0.00538835  0.78847144  1
  Rh  Rh201  1  0.20373892  0.80133273  0.78845692  1
  Rh  Rh202  1  0.00262485  -0.00315634  0.39334113  1
  Rh  Rh203  1  0.60494351  0.00077609  0.60948970  1
  Rh  Rh204  1  0.20747195  0.80433465  0.20050924  1
  Rh  Rh205  1  0.81359191  0.80051774  0.00173609  1
  Rh  Rh206  1  0.00940720  0.20306587  0.00196420  1
  Rh  Rh207  1  0.79659648  0.39197342  0.79862674  1
  Rh  Rh208  1  0.58922206  0.39070231  0.20683491  1
  Rh  Rh209  1  0.19383584  0.19075287  0.19840225  1
  Rh  Rh210  1  0.00999086  0.79984125  0.59056149  1
  Rh  Rh211  1  0.40897573  0.59418118  0.40421806  1
  Rh  Rh212  1  0.40900662  0.60622873  0.00320123  1
  Rh  Rh213  1  0.60559170  0.19134947  0.39156795  1
  Rh  Rh214  1  0.80046009  0.59785430  0.19089639  1
  Rh  Rh215  1  0.00483029  0.19790644  0.20179408  1
  Rh  Rh216  1  0.79758977  0.80485186  0.60463561  1
  Rh  Rh217  1  0.19358093  0.60524183  0.39428154  1
  Rh  Rh218  1  -0.00263944  0.40218335  0.19527848  1
  Rh  Rh219  1  0.39439178  0.20283558  0.39912534  1
  Rh  Rh220  1  0.01302752  0.19366565  0.39176035  1
  Rh  Rh221  1  0.39857184  0.00420220  0.39831811  1
  Rh  Rh222  1  0.40253853  0.39896378  0.59287156  1
  Rh  Rh223  1  0.80111643  -0.00424798  0.20095009  1
  Rh  Rh224  1  0.60134192  0.79997894  0.80026816  1
  Rh  Rh225  1  0.19869296  0.19598477  0.59426624  1
  Rh  Rh226  1  0.60264347  0.00560863  0.19607660  1
  Rh  Rh227  1  0.00365554  0.40347986  0.79488677  1
  Rh  Rh228  1  0.39403152  0.58991439  0.20202655  1
  Rh  Rh229  1  0.79395251  0.20071628  0.20308337  1
  Rh  Rh230  1  0.39392643  0.80669360  0.19648814  1
  Rh  Rh231  1  0.40118005  0.39163976  0.79585171  1
  Rh  Rh232  1  -0.00458287  -0.00243244  0.20379575  1
  Rh  Rh233  1  0.60036541  -0.00967287  0.39612442  1
  Rh  Rh234  1  0.00518187  -0.01325657  0.00279303  1
  Rh  Rh235  1  0.20945002  0.39333902  0.40835058  1
  Rh  Rh236  1  0.59448152  0.79578489  0.59287937  1
  Rh  Rh237  1  0.41299128  0.20758210  0.20777548  1
  Rh  Rh238  1  0.58260671  0.19574981  0.80730805  1
  Rh  Rh239  1  0.79799380  -0.00338148  0.40528591  1
  Rh  Rh240  1  0.60063911  0.79944058  0.21068903  1
  Rh  Rh241  1  0.39531874  -0.00483853  0.20348435  1
  Rh  Rh242  1  0.59334428  0.40315136  0.79607263  1
  Rh  Rh243  1  0.39508583  0.19540325  0.61008555  1
  Rh  Rh244  1  0.79700585  0.60505949  0.60547295  1
  Rh  Rh245  1  0.60156545  0.20285447  0.59781339  1
  Rh  Rh246  1  0.80508792  0.60186933  0.79659090  1
  Rh  Rh247  1  0.00498405  0.00606682  0.60410538  1
  Rh  Rh248  1  0.80520506  0.80301479  0.19418329  1
  Rh  Rh249  1  0.40501666  0.80478894  0.40556656  1
