# generated using pymatgen
data_ZrScNbPdRh
_symmetry_space_group_name_H-M   'P 1'
_cell_length_a   16.55255728
_cell_length_b   16.55579371
_cell_length_c   16.55559080
_cell_angle_alpha   90.01265861
_cell_angle_beta   90.01165913
_cell_angle_gamma   89.99609226
_symmetry_Int_Tables_number   1
_chemical_formula_structural   ZrScNbPdRh
_chemical_formula_sum   'Zr50 Sc50 Nb50 Pd50 Rh50'
_cell_volume   4536.90586688
_cell_formula_units_Z   50
loop_
 _symmetry_equiv_pos_site_id
 _symmetry_equiv_pos_as_xyz
  1  'x, y, z'
loop_
 _atom_site_type_symbol
 _atom_site_label
 _atom_site_symmetry_multiplicity
 _atom_site_fract_x
 _atom_site_fract_y
 _atom_site_fract_z
 _atom_site_occupancy
  Zr  Zr0  1  0.68943939  0.69470597  0.69034945  1
  Zr  Zr1  1  0.49657251  0.10323806  0.89435818  1
  Zr  Zr2  1  0.69314933  0.89761708  0.09215364  1
  Zr  Zr3  1  0.29662699  0.29722694  0.69071692  1
  Zr  Zr4  1  0.90166532  0.50172388  0.89850919  1
  Zr  Zr5  1  0.49762376  0.30572509  0.69550494  1
  Zr  Zr6  1  0.30381641  0.50508199  0.90030432  1
  Zr  Zr7  1  0.30672015  0.68967086  0.30083351  1
  Zr  Zr8  1  0.10219199  0.08936810  0.29417474  1
  Zr  Zr9  1  0.30119767  0.50249564  0.48743272  1
  Zr  Zr10  1  0.70091557  0.30591974  0.69543665  1
  Zr  Zr11  1  0.69597684  0.50083097  0.49668914  1
  Zr  Zr12  1  0.89863026  0.90978819  0.69498678  1
  Zr  Zr13  1  0.68865134  0.49708433  0.89942332  1
  Zr  Zr14  1  0.10341449  0.50679868  0.49509836  1
  Zr  Zr15  1  0.09763756  0.49712555  0.10842690  1
  Zr  Zr16  1  0.50212501  0.09367022  0.10032071  1
  Zr  Zr17  1  0.09758009  0.10174984  0.90082607  1
  Zr  Zr18  1  0.30145761  0.89969588  0.89432967  1
  Zr  Zr19  1  0.90520691  0.90174578  0.30357314  1
  Zr  Zr20  1  0.29439766  0.69461805  0.49916251  1
  Zr  Zr21  1  0.09344158  0.70955358  0.09421845  1
  Zr  Zr22  1  0.49255702  0.29885998  0.30354003  1
  Zr  Zr23  1  0.50830644  0.50592938  0.70660226  1
  Zr  Zr24  1  0.88802533  0.70128350  0.30280355  1
  Zr  Zr25  1  0.50615560  0.90320125  0.90399822  1
  Zr  Zr26  1  0.71719220  0.09916673  0.69236618  1
  Zr  Zr27  1  0.50121481  0.89419351  0.69452325  1
  Zr  Zr28  1  0.90190690  0.09835176  0.87965085  1
  Zr  Zr29  1  0.29671774  0.90486637  0.70564212  1
  Zr  Zr30  1  0.29935226  0.10079737  0.30636447  1
  Zr  Zr31  1  0.09735963  0.09823090  0.70663308  1
  Zr  Zr32  1  0.50408243  0.69807711  0.11432265  1
  Zr  Zr33  1  0.29991276  0.90925980  0.30082179  1
  Zr  Zr34  1  0.89812647  0.09347062  0.50405907  1
  Zr  Zr35  1  0.70497471  0.09079358  0.30385989  1
  Zr  Zr36  1  0.08901543  0.69935494  0.90042654  1
  Zr  Zr37  1  0.10808705  0.30303178  0.50112112  1
  Zr  Zr38  1  0.69874722  0.70297910  0.09907523  1
  Zr  Zr39  1  0.30013507  0.30069097  0.89677230  1
  Zr  Zr40  1  0.29707044  0.09916066  0.88653682  1
  Zr  Zr41  1  0.90251338  0.89231499  0.10371449  1
  Zr  Zr42  1  0.49035371  0.09865868  0.30111617  1
  Zr  Zr43  1  0.50669445  0.31008401  0.89752022  1
  Zr  Zr44  1  0.90118220  0.50725946  0.30121433  1
  Zr  Zr45  1  0.70010683  0.29509488  0.29964170  1
  Zr  Zr46  1  0.30489866  0.70139476  0.10320934  1
  Zr  Zr47  1  0.70389853  0.30826981  0.90401223  1
  Zr  Zr48  1  0.90126984  0.29708646  0.69804005  1
  Zr  Zr49  1  0.09985119  0.49712182  0.30168165  1
  Sc  Sc50  1  0.09943028  0.89381294  0.89865004  1
  Sc  Sc51  1  0.69872871  0.89450618  0.90376651  1
  Sc  Sc52  1  0.89339838  0.70266552  0.09495862  1
  Sc  Sc53  1  0.49981756  0.69938640  0.89596718  1
  Sc  Sc54  1  0.30234965  0.10446760  0.70137298  1
  Sc  Sc55  1  0.69981575  0.30337950  0.50790390  1
  Sc  Sc56  1  0.90177443  0.10280860  0.11912876  1
  Sc  Sc57  1  0.10714779  0.29240272  0.10223477  1
  Sc  Sc58  1  0.49612588  0.50418082  0.30658890  1
  Sc  Sc59  1  0.49870138  0.29936715  0.11227872  1
  Sc  Sc60  1  0.30169145  0.10138279  0.50065280  1
  Sc  Sc61  1  0.69301212  0.69478840  0.29819928  1
  Sc  Sc62  1  0.49409566  0.09887988  0.69512013  1
  Sc  Sc63  1  0.69869964  0.89948836  0.69273400  1
  Sc  Sc64  1  0.09817576  0.49498078  0.69407654  1
  Sc  Sc65  1  0.30248927  0.49895578  0.70586113  1
  Sc  Sc66  1  0.90468087  0.30061835  0.49820020  1
  Sc  Sc67  1  0.49874612  0.89011458  0.10172327  1
  Sc  Sc68  1  0.89706703  0.50427060  0.10449448  1
  Sc  Sc69  1  0.89988446  0.50231663  0.49547469  1
  Sc  Sc70  1  0.70345016  0.10325313  0.11075887  1
  Sc  Sc71  1  0.30484372  0.89550408  0.10397452  1
  Sc  Sc72  1  0.29821730  0.50253383  0.11051798  1
  Sc  Sc73  1  0.09745887  0.30223019  0.30036062  1
  Sc  Sc74  1  0.09719732  0.09752417  0.49172288  1
  Sc  Sc75  1  0.70049381  0.70255311  0.49420770  1
  Sc  Sc76  1  0.90782664  0.29848754  0.30103302  1
  Sc  Sc77  1  0.50150436  0.09022544  0.50160913  1
  Sc  Sc78  1  0.08557442  0.69229518  0.30107811  1
  Sc  Sc79  1  0.09712022  0.89124763  0.69804910  1
  Sc  Sc80  1  0.29467481  0.90003577  0.50324943  1
  Sc  Sc81  1  0.09071866  0.89717819  0.49838238  1
  Sc  Sc82  1  0.09479622  0.70006773  0.69065557  1
  Sc  Sc83  1  0.50231322  0.89775352  0.30142619  1
  Sc  Sc84  1  0.90358570  0.29868322  0.10592884  1
  Sc  Sc85  1  0.49851228  0.30875985  0.50318513  1
  Sc  Sc86  1  0.90163681  0.89752199  0.89526252  1
  Sc  Sc87  1  0.30658483  0.30478939  0.49775930  1
  Sc  Sc88  1  0.29673130  0.70937146  0.69879389  1
  Sc  Sc89  1  0.10393434  0.29484673  0.90247099  1
  Sc  Sc90  1  0.29657570  0.10352769  0.11763125  1
  Sc  Sc91  1  0.90180902  0.70189412  0.50166237  1
  Sc  Sc92  1  0.69614718  0.50929089  0.09340674  1
  Sc  Sc93  1  0.70207292  0.89300694  0.31065135  1
  Sc  Sc94  1  0.69655299  0.90814346  0.49684983  1
  Sc  Sc95  1  0.29388136  0.69862991  0.90323741  1
  Sc  Sc96  1  0.10552019  0.50556561  0.89566249  1
  Sc  Sc97  1  0.90405750  0.30094630  0.89482046  1
  Sc  Sc98  1  0.90523071  0.49508330  0.69409740  1
  Sc  Sc99  1  0.30537493  0.30146189  0.29348024  1
  Nb  Nb100  1  0.89790777  0.69869479  0.89707286  1
  Nb  Nb101  1  0.10130674  0.90005316  0.29845100  1
  Nb  Nb102  1  0.70208089  0.30013529  0.10278657  1
  Nb  Nb103  1  0.50735831  0.89357182  0.50233311  1
  Nb  Nb104  1  0.50011229  0.49636039  0.90498236  1
  Nb  Nb105  1  0.89757498  0.89673735  0.49712207  1
  Nb  Nb106  1  0.49409659  0.49985060  0.50373029  1
  Nb  Nb107  1  0.30424104  0.30204169  0.09856254  1
  Nb  Nb108  1  0.10628854  0.70158299  0.50263120  1
  Nb  Nb109  1  0.89449050  0.70196179  0.70002856  1
  Nb  Nb110  1  0.10155460  0.09466234  0.10074261  1
  Nb  Nb111  1  0.50404665  0.49829012  0.09809964  1
  Nb  Nb112  1  0.90222865  0.10049375  0.69985674  1
  Nb  Nb113  1  0.50260989  0.70189486  0.50153230  1
  Nb  Nb114  1  0.70372183  0.50058591  0.30070506  1
  Nb  Nb115  1  0.70875329  0.70192050  0.90377187  1
  Nb  Nb116  1  0.50427897  0.70246668  0.68730302  1
  Nb  Nb117  1  0.70044168  0.09620684  0.90082102  1
  Nb  Nb118  1  0.90164905  0.10233359  0.30877301  1
  Nb  Nb119  1  0.50140419  0.70552968  0.30324172  1
  Nb  Nb120  1  0.69844158  0.09911843  0.49902872  1
  Nb  Nb121  1  0.69948454  0.50399326  0.69750783  1
  Nb  Nb122  1  0.09978126  0.30010205  0.68705728  1
  Nb  Nb123  1  0.29677066  0.49845394  0.30559432  1
  Nb  Nb124  1  0.09428696  0.90407067  0.10916952  1
  Nb  Nb125  1  0.19372942  0.80148963  0.20649901  1
  Nb  Nb126  1  0.60358878  0.20114605  -0.00093132  1
  Nb  Nb127  1  0.19754587  0.79696217  0.39474682  1
  Nb  Nb128  1  0.40718072  0.60412815  0.59886110  1
  Nb  Nb129  1  0.40129183  0.40166269  0.00388673  1
  Nb  Nb130  1  0.60697246  0.19819035  0.79972492  1
  Nb  Nb131  1  0.79981086  0.78990937  0.79628048  1
  Nb  Nb132  1  0.79689452  0.60359877  0.79779366  1
  Nb  Nb133  1  0.20073294  0.19883233  0.39667711  1
  Nb  Nb134  1  0.60465119  0.00622771  0.79922833  1
  Nb  Nb135  1  0.19769071  0.00061957  0.00486396  1
  Nb  Nb136  1  0.19631270  0.00156521  0.60319427  1
  Nb  Nb137  1  0.40155698  0.79519054  0.40453732  1
  Nb  Nb138  1  0.00146835  0.19772401  0.60366466  1
  Nb  Nb139  1  0.79843395  0.19306514  0.40203076  1
  Nb  Nb140  1  0.79293043  0.40215646  0.20345762  1
  Nb  Nb141  1  0.60137263  -0.00224949  0.20321811  1
  Nb  Nb142  1  0.60494343  0.40507349  0.20273381  1
  Nb  Nb143  1  0.39982417  0.20227883  0.00080947  1
  Nb  Nb144  1  0.80508143  0.00704126  -0.00048837  1
  Nb  Nb145  1  0.00307570  0.40232318  0.00207961  1
  Nb  Nb146  1  0.79783899  0.19584038  -0.00106977  1
  Nb  Nb147  1  0.60347905  0.19480635  0.40292967  1
  Nb  Nb148  1  0.00089831  0.00394685  0.00557947  1
  Nb  Nb149  1  0.39310520  0.00585928  -0.00278395  1
  Pd  Pd150  1  -0.00599008  0.80062375  0.79396466  1
  Pd  Pd151  1  -0.00010419  0.59409745  0.00523178  1
  Pd  Pd152  1  0.19403459  0.39625546  0.79679407  1
  Pd  Pd153  1  -0.00838564  0.60847450  0.19374877  1
  Pd  Pd154  1  0.40626873  0.59152571  0.20303974  1
  Pd  Pd155  1  -0.00103393  0.40177008  0.40304037  1
  Pd  Pd156  1  0.19433125  0.60868556  0.20220681  1
  Pd  Pd157  1  0.20794541  0.41085362  0.59718940  1
  Pd  Pd158  1  0.80425493  0.40532424  0.59530940  1
  Pd  Pd159  1  0.01011032  0.39611889  0.80556566  1
  Pd  Pd160  1  0.00618863  0.00166944  0.59783960  1
  Pd  Pd161  1  0.20776154  0.59474450  0.60928920  1
  Pd  Pd162  1  0.59581336  0.19414392  0.59932530  1
  Pd  Pd163  1  0.00246763  0.79437032  0.40122342  1
  Pd  Pd164  1  0.20007458  0.40668150  0.00166207  1
  Pd  Pd165  1  0.19372513  0.79203399  0.79958084  1
  Pd  Pd166  1  0.59723204  0.39522211  0.39814883  1
  Pd  Pd167  1  0.40486161  0.19892016  0.59266601  1
  Pd  Pd168  1  -0.01003088  0.19921663  0.00352032  1
  Pd  Pd169  1  0.80014710  0.40981105  0.79456152  1
  Pd  Pd170  1  0.79243084  0.80262475  0.20414614  1
  Pd  Pd171  1  -0.00327442  0.59829812  0.78998454  1
  Pd  Pd172  1  0.19505519  0.20744123  0.79368797  1
  Pd  Pd173  1  0.79996724  0.59621845  -0.00408678  1
  Pd  Pd174  1  0.00738271  0.19988883  0.20458454  1
  Pd  Pd175  1  0.60660165  0.80270175  0.79934955  1
  Pd  Pd176  1  0.59468851  0.60794476  -0.00492895  1
  Pd  Pd177  1  0.59679346  0.60058513  0.40065378  1
  Pd  Pd178  1  0.80446694  0.39246364  0.39614825  1
  Pd  Pd179  1  0.40052139  0.61082948  0.79259740  1
  Pd  Pd180  1  0.79501884  0.20602333  0.80327908  1
  Pd  Pd181  1  0.19590385  0.60687352  0.79203062  1
  Pd  Pd182  1  0.39367493  -0.00327538  0.59762156  1
  Pd  Pd183  1  0.20234054  0.39334374  0.20380160  1
  Pd  Pd184  1  -0.00276842  0.60127403  0.59667721  1
  Pd  Pd185  1  0.79711023  0.80443702  0.59763594  1
  Pd  Pd186  1  0.79581178  -0.01007492  0.19682773  1
  Pd  Pd187  1  0.81032359  0.39689545  0.01001604  1
  Pd  Pd188  1  0.39374382  0.79828438  0.59417593  1
  Pd  Pd189  1  0.80276070  0.59697430  0.59878074  1
  Pd  Pd190  1  0.40291904  0.79422207  0.80048539  1
  Pd  Pd191  1  0.59764889  0.19639067  0.20360882  1
  Pd  Pd192  1  0.19957416  0.80847894  0.00686413  1
  Pd  Pd193  1  0.40454766  -0.01016890  0.41109030  1
  Pd  Pd194  1  0.19801271  0.59806948  0.00539191  1
  Pd  Pd195  1  0.39870080  0.40016177  0.79993052  1
  Pd  Pd196  1  0.40372991  0.59719942  0.00389148  1
  Pd  Pd197  1  0.40457859  0.80052459  -0.00330407  1
  Pd  Pd198  1  0.21018698  0.19120745  0.00515577  1
  Pd  Pd199  1  0.60249618  0.60681134  0.80685233  1
  Rh  Rh200  1  0.59402247  0.78760756  0.00015026  1
  Rh  Rh201  1  0.59807634  0.59344881  0.20529623  1
  Rh  Rh202  1  0.80646986  0.80802080  -0.00777647  1
  Rh  Rh203  1  -0.00469409  0.39899579  0.19342949  1
  Rh  Rh204  1  0.80009872  0.80017346  0.40465865  1
  Rh  Rh205  1  -0.00089502  0.60382050  0.40757767  1
  Rh  Rh206  1  0.60064298  0.00073666  0.60682287  1
  Rh  Rh207  1  0.60261035  0.00567155  0.00254146  1
  Rh  Rh208  1  0.19918870  0.20457876  0.20681575  1
  Rh  Rh209  1  0.41036444  0.60440866  0.40516011  1
  Rh  Rh210  1  -0.00488638  0.00083442  0.20247677  1
  Rh  Rh211  1  0.79820448  0.60289456  0.40256918  1
  Rh  Rh212  1  -0.00531095  0.79828201  0.59727325  1
  Rh  Rh213  1  0.59182210  0.39299188  0.01500394  1
  Rh  Rh214  1  0.59635092  0.79880817  0.40249316  1
  Rh  Rh215  1  0.80972539  0.20196333  0.59113166  1
  Rh  Rh216  1  0.39592292  0.20104097  0.19591650  1
  Rh  Rh217  1  0.40822513  -0.00720707  0.19225814  1
  Rh  Rh218  1  0.19572392  -0.00271339  0.41009698  1
  Rh  Rh219  1  0.40050519  0.20207538  0.40671968  1
  Rh  Rh220  1  0.00120085  0.19641919  0.40450517  1
  Rh  Rh221  1  0.18985951  0.60540783  0.39037369  1
  Rh  Rh222  1  0.40535336  0.21230095  0.79708884  1
  Rh  Rh223  1  0.00521872  -0.00926981  0.80424336  1
  Rh  Rh224  1  0.60041052  0.40942726  0.60181355  1
  Rh  Rh225  1  0.41173528  -0.00834672  0.79864118  1
  Rh  Rh226  1  -0.00198337  -0.00281887  0.39829984  1
  Rh  Rh227  1  0.00010648  0.39612434  0.59268481  1
  Rh  Rh228  1  0.59326553  0.00289830  0.39491787  1
  Rh  Rh229  1  0.00074152  0.79503047  0.20438372  1
  Rh  Rh230  1  0.19448625  0.80857988  0.59316862  1
  Rh  Rh231  1  0.60332836  0.39901605  0.79137777  1
  Rh  Rh232  1  0.40436949  0.40922165  0.19817723  1
  Rh  Rh233  1  0.19252194  0.18974279  0.59155171  1
  Rh  Rh234  1  0.39397465  0.80102511  0.21244332  1
  Rh  Rh235  1  0.20366791  -0.00831988  0.19292473  1
  Rh  Rh236  1  0.39761613  0.41229517  0.60335473  1
  Rh  Rh237  1  0.79445519  0.59759259  0.19970217  1
  Rh  Rh238  1  0.59602074  0.59467321  0.58861716  1
  Rh  Rh239  1  0.60410004  0.80557291  0.20411115  1
  Rh  Rh240  1  0.20552781  0.39157007  0.39335737  1
  Rh  Rh241  1  0.39824189  0.40095048  0.39560581  1
  Rh  Rh242  1  0.00750974  0.21043479  0.79058854  1
  Rh  Rh243  1  0.80636880  -0.00131651  0.40503224  1
  Rh  Rh244  1  0.80769023  0.20836867  0.20645647  1
  Rh  Rh245  1  0.19119620  -0.00380583  0.79808172  1
  Rh  Rh246  1  0.79982923  -0.00606438  0.59242207  1
  Rh  Rh247  1  -0.00446296  0.80660054  -0.00308216  1
  Rh  Rh248  1  0.79231180  -0.01384789  0.80465309  1
  Rh  Rh249  1  0.60885173  0.80280829  0.59119142  1
