# generated using pymatgen
data_ZrScNbPdRh
_symmetry_space_group_name_H-M   'P 1'
_cell_length_a   16.55790604
_cell_length_b   16.56084676
_cell_length_c   16.56486999
_cell_angle_alpha   90.03899833
_cell_angle_beta   89.97379964
_cell_angle_gamma   89.97780473
_symmetry_Int_Tables_number   1
_chemical_formula_structural   ZrScNbPdRh
_chemical_formula_sum   'Zr50 Sc50 Nb50 Pd50 Rh50'
_cell_volume   4542.29990669
_cell_formula_units_Z   50
loop_
 _symmetry_equiv_pos_site_id
 _symmetry_equiv_pos_as_xyz
  1  'x, y, z'
loop_
 _atom_site_type_symbol
 _atom_site_label
 _atom_site_symmetry_multiplicity
 _atom_site_fract_x
 _atom_site_fract_y
 _atom_site_fract_z
 _atom_site_occupancy
  Zr  Zr0  1  0.90133137  0.30400038  0.11156524  1
  Zr  Zr1  1  0.69561506  0.50296985  0.50012184  1
  Zr  Zr2  1  0.08804300  0.50374185  0.90238771  1
  Zr  Zr3  1  0.30395975  0.69906468  0.89519570  1
  Zr  Zr4  1  0.09887975  0.09981665  0.29758581  1
  Zr  Zr5  1  0.10323254  0.69806969  0.10544261  1
  Zr  Zr6  1  0.09207768  0.29975822  0.89395173  1
  Zr  Zr7  1  0.69075605  0.89249468  0.90017274  1
  Zr  Zr8  1  0.90035406  0.50432415  0.70131238  1
  Zr  Zr9  1  0.69363593  0.50462458  0.70600438  1
  Zr  Zr10  1  0.30111204  0.49551099  0.31045041  1
  Zr  Zr11  1  0.30174529  0.69732180  0.69836037  1
  Zr  Zr12  1  0.89934010  0.49574799  0.49647895  1
  Zr  Zr13  1  0.09698301  0.49880347  0.69789798  1
  Zr  Zr14  1  0.31081762  0.29271329  0.09325714  1
  Zr  Zr15  1  0.50137141  0.69589696  0.10039547  1
  Zr  Zr16  1  0.30390525  0.89583264  0.29649021  1
  Zr  Zr17  1  0.30372802  0.49944798  0.49847558  1
  Zr  Zr18  1  0.29521724  0.91113147  0.10401552  1
  Zr  Zr19  1  0.09774808  0.70863079  0.49483654  1
  Zr  Zr20  1  0.90046208  0.09070836  0.50069536  1
  Zr  Zr21  1  0.49066330  0.29637196  0.90811982  1
  Zr  Zr22  1  0.50371101  0.89761407  0.70554751  1
  Zr  Zr23  1  0.90120150  0.10363242  0.89287513  1
  Zr  Zr24  1  0.69943384  0.70064269  0.70090588  1
  Zr  Zr25  1  0.30095426  0.89947536  0.70105937  1
  Zr  Zr26  1  0.50368874  0.49520794  0.09280551  1
  Zr  Zr27  1  0.10504228  0.08830684  0.10418230  1
  Zr  Zr28  1  0.09461572  0.69835638  0.70265601  1
  Zr  Zr29  1  0.69902952  0.29623065  0.70549303  1
  Zr  Zr30  1  0.71068458  0.50199124  0.09912729  1
  Zr  Zr31  1  0.50908096  0.09732472  0.70002644  1
  Zr  Zr32  1  0.50641622  0.51239456  0.90064092  1
  Zr  Zr33  1  0.71140231  0.91031245  0.09986048  1
  Zr  Zr34  1  0.49383124  0.29826812  0.49390054  1
  Zr  Zr35  1  0.09256153  0.10667514  0.69418781  1
  Zr  Zr36  1  0.29847702  0.90069710  0.89217871  1
  Zr  Zr37  1  0.69296670  0.69734005  0.90163991  1
  Zr  Zr38  1  0.89882790  0.90375391  0.68939074  1
  Zr  Zr39  1  0.30363558  0.50134485  0.68968620  1
  Zr  Zr40  1  0.90335384  0.69525756  0.89979310  1
  Zr  Zr41  1  0.90277944  0.70636787  0.69793161  1
  Zr  Zr42  1  0.49741485  0.70577477  0.29903660  1
  Zr  Zr43  1  0.09693448  0.30307911  0.69614392  1
  Zr  Zr44  1  0.30564105  0.29404504  0.89629310  1
  Zr  Zr45  1  0.30094013  0.50690313  0.09933688  1
  Zr  Zr46  1  0.10611656  0.09662073  0.49992760  1
  Zr  Zr47  1  0.10221487  0.70269393  0.89544892  1
  Zr  Zr48  1  0.70359723  0.50134972  0.90198558  1
  Zr  Zr49  1  0.89968823  0.08613673  0.10191819  1
  Sc  Sc50  1  0.50055601  0.29064968  0.70897529  1
  Sc  Sc51  1  0.69955778  0.49614364  0.29501652  1
  Sc  Sc52  1  0.29610418  0.69775652  0.30409024  1
  Sc  Sc53  1  0.70175269  0.90284587  0.49273422  1
  Sc  Sc54  1  0.30712162  0.29951538  0.69278046  1
  Sc  Sc55  1  0.29653953  0.10229534  0.29740312  1
  Sc  Sc56  1  0.90722518  0.29401995  0.70420583  1
  Sc  Sc57  1  0.70344253  0.29918084  0.89952053  1
  Sc  Sc58  1  0.69784868  0.89795757  0.70139234  1
  Sc  Sc59  1  0.10106735  0.49072336  0.30255781  1
  Sc  Sc60  1  0.90083590  0.10193774  0.30157841  1
  Sc  Sc61  1  0.10566899  0.49160226  0.50221853  1
  Sc  Sc62  1  0.89876000  0.29499633  0.48943088  1
  Sc  Sc63  1  0.69948470  0.10217309  0.30585905  1
  Sc  Sc64  1  0.71169538  0.10498195  0.09948090  1
  Sc  Sc65  1  0.89977879  0.30534606  0.89631864  1
  Sc  Sc66  1  0.09560801  0.29103081  0.11207340  1
  Sc  Sc67  1  0.50997101  0.90096377  0.51092189  1
  Sc  Sc68  1  0.69637667  0.30119498  0.10733642  1
  Sc  Sc69  1  0.50415600  0.29310085  0.29631966  1
  Sc  Sc70  1  0.30226014  0.29370470  0.30561495  1
  Sc  Sc71  1  0.69722735  0.29499902  0.48848704  1
  Sc  Sc72  1  0.09993463  0.29712796  0.50113449  1
  Sc  Sc73  1  0.10245964  0.90209161  0.70183331  1
  Sc  Sc74  1  0.30345451  0.09105086  0.89833265  1
  Sc  Sc75  1  0.89817929  0.90334674  0.29808380  1
  Sc  Sc76  1  0.49996061  0.10903553  0.30281307  1
  Sc  Sc77  1  0.50278992  0.90514155  0.30027710  1
  Sc  Sc78  1  0.30568510  0.50863337  0.90359141  1
  Sc  Sc79  1  0.89955915  0.71160592  0.50323501  1
  Sc  Sc80  1  0.30173767  0.70094361  0.11009592  1
  Sc  Sc81  1  0.49821613  0.69889662  0.69513229  1
  Sc  Sc82  1  0.09993362  0.89904787  0.30073087  1
  Sc  Sc83  1  0.69443979  0.70520956  0.50106787  1
  Sc  Sc84  1  0.70328796  0.29568168  0.29816533  1
  Sc  Sc85  1  0.71048240  0.09979501  0.90071882  1
  Sc  Sc86  1  0.29958348  0.30925861  0.49656838  1
  Sc  Sc87  1  0.50130246  0.50335276  0.30616904  1
  Sc  Sc88  1  0.69774553  0.70428277  0.29830274  1
  Sc  Sc89  1  0.70205640  0.69768073  0.10768068  1
  Sc  Sc90  1  0.49121192  0.50278044  0.49768799  1
  Sc  Sc91  1  0.48812659  0.89998803  0.11014000  1
  Sc  Sc92  1  0.70240143  0.89946333  0.30133867  1
  Sc  Sc93  1  0.10614962  0.91343304  0.89595852  1
  Sc  Sc94  1  0.29377528  0.90571903  0.50880773  1
  Sc  Sc95  1  0.89060334  0.71274963  0.29463999  1
  Sc  Sc96  1  0.89812061  0.90857495  0.89576217  1
  Sc  Sc97  1  0.10648659  0.71071656  0.30278259  1
  Sc  Sc98  1  0.09629461  0.29221404  0.29908212  1
  Sc  Sc99  1  0.09555599  0.89994753  0.49192989  1
  Nb  Nb100  1  0.69334778  0.10183180  0.49733922  1
  Nb  Nb101  1  0.10279987  0.10242731  0.89932591  1
  Nb  Nb102  1  0.89740363  0.50046583  0.91357094  1
  Nb  Nb103  1  0.10006051  0.49614069  0.10142989  1
  Nb  Nb104  1  0.30189475  0.69916881  0.50090663  1
  Nb  Nb105  1  0.70635494  0.10503904  0.69637181  1
  Nb  Nb106  1  0.29601594  0.09582835  0.69015707  1
  Nb  Nb107  1  0.90257687  0.89793513  0.10347163  1
  Nb  Nb108  1  0.30058551  0.09900866  0.10618901  1
  Nb  Nb109  1  0.50062935  0.90026259  0.89977541  1
  Nb  Nb110  1  0.89860923  0.49226647  0.29485328  1
  Nb  Nb111  1  0.30154392  0.09853584  0.50284597  1
  Nb  Nb112  1  0.49675638  0.09850182  0.90021931  1
  Nb  Nb113  1  0.49725640  0.49773412  0.69970074  1
  Nb  Nb114  1  0.90318648  0.89642736  0.49222049  1
  Nb  Nb115  1  0.48895318  0.10447808  0.10704307  1
  Nb  Nb116  1  0.90086352  0.50412096  0.10156076  1
  Nb  Nb117  1  0.89643374  0.70007357  0.10255981  1
  Nb  Nb118  1  0.50775385  0.09945531  0.49619641  1
  Nb  Nb119  1  0.89392400  0.10042513  0.69671282  1
  Nb  Nb120  1  0.49650595  0.29403335  0.09927373  1
  Nb  Nb121  1  0.09851836  0.89985447  0.10161572  1
  Nb  Nb122  1  0.49270258  0.70471065  0.50152571  1
  Nb  Nb123  1  0.50456302  0.70460636  0.90504298  1
  Nb  Nb124  1  0.90250905  0.30573493  0.29752687  1
  Nb  Nb125  1  -0.00607174  0.59591665  0.20080362  1
  Nb  Nb126  1  0.59921391  0.40006727  0.60319623  1
  Nb  Nb127  1  0.80593365  0.59797734  0.39672856  1
  Nb  Nb128  1  0.40004207  0.80287450  -0.00508274  1
  Nb  Nb129  1  0.20045814  0.19870429  0.79798147  1
  Nb  Nb130  1  0.59819007  0.00930285  0.19221659  1
  Nb  Nb131  1  0.20402833  0.39890531  0.80324499  1
  Nb  Nb132  1  0.58901210  0.00526639  0.00188410  1
  Nb  Nb133  1  0.40107220  0.40663497  0.79990251  1
  Nb  Nb134  1  -0.00804693  0.59959072  0.39188022  1
  Nb  Nb135  1  0.19738795  0.19569257  -0.00246689  1
  Nb  Nb136  1  0.19946308  0.80447554  0.00212981  1
  Nb  Nb137  1  0.00086403  0.80480090  0.00722225  1
  Nb  Nb138  1  0.20622183  0.39898530  0.19281761  1
  Nb  Nb139  1  0.80794589  0.79883076  0.00446815  1
  Nb  Nb140  1  0.40308883  0.18769007  0.59283932  1
  Nb  Nb141  1  0.20082515  0.79433727  0.60109523  1
  Nb  Nb142  1  0.40184995  0.00414115  0.40907436  1
  Nb  Nb143  1  0.79293836  0.39577690  0.60143782  1
  Nb  Nb144  1  0.40013739  0.39799192  0.19471595  1
  Nb  Nb145  1  0.79618641  0.19412420  0.59899602  1
  Nb  Nb146  1  0.00227001  0.19312168  0.00090409  1
  Nb  Nb147  1  0.19698648  0.39677356  0.00104018  1
  Nb  Nb148  1  0.58897630  0.19292861  0.00553124  1
  Nb  Nb149  1  0.39959079  0.80385664  0.40910153  1
  Pd  Pd150  1  -0.00000223  0.60240743  0.58761272  1
  Pd  Pd151  1  0.20759234  0.20713762  0.59880837  1
  Pd  Pd152  1  0.61108428  -0.00319893  0.60052638  1
  Pd  Pd153  1  0.79393870  0.40122447  0.39944667  1
  Pd  Pd154  1  0.79337907  0.80592637  0.59422388  1
  Pd  Pd155  1  0.00064600  0.81182563  0.80612976  1
  Pd  Pd156  1  0.59632085  0.39833989  0.40059600  1
  Pd  Pd157  1  0.59368910  0.80360366  0.40177521  1
  Pd  Pd158  1  0.80615886  0.20762007  0.00209815  1
  Pd  Pd159  1  0.20003131  0.60234477  -0.00109976  1
  Pd  Pd160  1  0.59797704  0.80881702  0.01423272  1
  Pd  Pd161  1  0.60443802  0.39035730  -0.00272964  1
  Pd  Pd162  1  -0.01072625  0.39222151  0.59544423  1
  Pd  Pd163  1  0.19008483  0.59856498  0.40057563  1
  Pd  Pd164  1  0.00142388  0.00180585  0.79444827  1
  Pd  Pd165  1  0.40629655  0.00053996  0.59809542  1
  Pd  Pd166  1  0.20100563  0.59009364  0.79975034  1
  Pd  Pd167  1  0.59994670  0.20752467  0.59496650  1
  Pd  Pd168  1  0.60891446  0.00729351  0.80630653  1
  Pd  Pd169  1  0.80288264  0.80281369  0.80593613  1
  Pd  Pd170  1  0.80680443  0.40114249  0.79608560  1
  Pd  Pd171  1  0.40823111  0.79436408  0.80192848  1
  Pd  Pd172  1  0.80205461  0.60000006  0.59189478  1
  Pd  Pd173  1  -0.00110632  0.19662262  0.40140622  1
  Pd  Pd174  1  -0.00027420  -0.00109280  -0.00405663  1
  Pd  Pd175  1  0.40022064  0.00589286  0.79429424  1
  Pd  Pd176  1  0.80256870  0.19754899  0.20584653  1
  Pd  Pd177  1  0.19208871  0.59308664  0.21148910  1
  Pd  Pd178  1  0.79985334  0.39177318  0.00414450  1
  Pd  Pd179  1  0.80450172  0.60035089  0.80303373  1
  Pd  Pd180  1  0.00601327  0.39813149  0.39892305  1
  Pd  Pd181  1  0.00104760  0.79683711  0.20292393  1
  Pd  Pd182  1  0.59105811  0.39721522  0.80273318  1
  Pd  Pd183  1  0.00273484  0.39085510  0.00854861  1
  Pd  Pd184  1  0.79919019  0.00142451  0.39549454  1
  Pd  Pd185  1  0.60131003  0.59558379  0.20204144  1
  Pd  Pd186  1  0.60334538  0.81114309  0.19475600  1
  Pd  Pd187  1  0.20191505  0.20265922  0.40309139  1
  Pd  Pd188  1  0.40203331  -0.00346716  0.00109780  1
  Pd  Pd189  1  0.60450123  0.60624991  0.39882223  1
  Pd  Pd190  1  0.60431910  0.19303215  0.81459292  1
  Pd  Pd191  1  0.40202282  0.59362367  0.20728098  1
  Pd  Pd192  1  0.00580270  -0.00509686  0.59652785  1
  Pd  Pd193  1  0.00010884  0.60703989  0.00895534  1
  Pd  Pd194  1  0.79285825  -0.00370679  0.79841641  1
  Pd  Pd195  1  0.59001494  0.59874329  0.59803847  1
  Pd  Pd196  1  0.59391900  0.39942469  0.20213230  1
  Pd  Pd197  1  0.20620714  -0.00349838  0.39613916  1
  Pd  Pd198  1  0.79153831  -0.00036958  0.59462638  1
  Pd  Pd199  1  0.19416305  0.60362543  0.59223232  1
  Rh  Rh200  1  0.39677535  0.19320370  0.40623809  1
  Rh  Rh201  1  0.39302676  0.19025220  0.78476404  1
  Rh  Rh202  1  0.60307032  0.79901304  0.60185515  1
  Rh  Rh203  1  0.40571800  0.39520803  0.38638473  1
  Rh  Rh204  1  0.39592951  0.20344329  0.20670267  1
  Rh  Rh205  1  0.20684157  0.20434756  0.19308398  1
  Rh  Rh206  1  0.19167271  -0.00578580  0.60134378  1
  Rh  Rh207  1  0.19631390  0.39172394  0.39347060  1
  Rh  Rh208  1  0.40830326  0.59936931  0.79755768  1
  Rh  Rh209  1  0.79603141  0.00215157  0.20919974  1
  Rh  Rh210  1  0.00619158  0.40519417  0.20028742  1
  Rh  Rh211  1  0.40162156  0.61114910  0.40033706  1
  Rh  Rh212  1  0.79816511  0.39868649  0.20097857  1
  Rh  Rh213  1  -0.00507750  0.41116895  0.80136404  1
  Rh  Rh214  1  0.60277092  0.20055909  0.39489243  1
  Rh  Rh215  1  0.39787938  0.79600510  0.20274088  1
  Rh  Rh216  1  0.20248726  0.00047994  0.00065202  1
  Rh  Rh217  1  0.39665554  0.18160227  -0.00065400  1
  Rh  Rh218  1  0.41316420  0.38872061  0.60753412  1
  Rh  Rh219  1  0.80495560  0.59752335  0.20903928  1
  Rh  Rh220  1  0.20266367  0.80473017  0.19528800  1
  Rh  Rh221  1  0.79973732  -0.00639996  -0.00895527  1
  Rh  Rh222  1  0.19796596  0.01200018  0.78932815  1
  Rh  Rh223  1  0.39370285  0.80092231  0.59583687  1
  Rh  Rh224  1  0.40188573  0.61097911  0.00080459  1
  Rh  Rh225  1  0.00042995  0.19448064  0.80126192  1
  Rh  Rh226  1  0.79475257  0.80500274  0.19532132  1
  Rh  Rh227  1  0.19656000  0.79991439  0.79775831  1
  Rh  Rh228  1  -0.00764826  0.59550776  0.80092915  1
  Rh  Rh229  1  0.19725258  -0.00283243  0.20911427  1
  Rh  Rh230  1  0.00039334  -0.00285284  0.20648498  1
  Rh  Rh231  1  0.80069061  0.79653411  0.40245620  1
  Rh  Rh232  1  0.21133271  0.80503856  0.40934891  1
  Rh  Rh233  1  0.80312096  0.19659952  0.40231822  1
  Rh  Rh234  1  0.20147863  0.39748054  0.60388379  1
  Rh  Rh235  1  0.40413973  0.60044781  0.59615568  1
  Rh  Rh236  1  0.40450192  0.00972672  0.21587724  1
  Rh  Rh237  1  -0.00150433  -0.00073176  0.39641392  1
  Rh  Rh238  1  0.00611473  0.80930934  0.60113494  1
  Rh  Rh239  1  -0.00742671  0.79861559  0.39293851  1
  Rh  Rh240  1  0.60826055  0.60104045  0.00670138  1
  Rh  Rh241  1  -0.00829540  0.19188889  0.19748024  1
  Rh  Rh242  1  0.79719661  0.60745505  0.00023756  1
  Rh  Rh243  1  0.80374480  0.20074441  0.79443904  1
  Rh  Rh244  1  0.60451198  0.19319043  0.19219581  1
  Rh  Rh245  1  0.59430114  0.79289109  0.79555333  1
  Rh  Rh246  1  0.59505437  0.00263422  0.39247807  1
  Rh  Rh247  1  -0.01226700  0.19869804  0.59143240  1
  Rh  Rh248  1  0.39835365  0.41133483  -0.00152716  1
  Rh  Rh249  1  0.59426514  0.60772968  0.79628427  1
