# generated using pymatgen
data_ZrScNbPdRh
_symmetry_space_group_name_H-M   'P 1'
_cell_length_a   16.55590649
_cell_length_b   16.55575421
_cell_length_c   16.55339625
_cell_angle_alpha   89.99902641
_cell_angle_beta   90.02774343
_cell_angle_gamma   89.95407901
_symmetry_Int_Tables_number   1
_chemical_formula_structural   ZrScNbPdRh
_chemical_formula_sum   'Zr50 Sc50 Nb50 Pd50 Rh50'
_cell_volume   4537.20974110
_cell_formula_units_Z   50
loop_
 _symmetry_equiv_pos_site_id
 _symmetry_equiv_pos_as_xyz
  1  'x, y, z'
loop_
 _atom_site_type_symbol
 _atom_site_label
 _atom_site_symmetry_multiplicity
 _atom_site_fract_x
 _atom_site_fract_y
 _atom_site_fract_z
 _atom_site_occupancy
  Zr  Zr0  1  0.09488031  0.28708139  0.30742280  1
  Zr  Zr1  1  0.30290389  0.29911126  0.29548417  1
  Zr  Zr2  1  0.30168166  0.70256955  0.30370406  1
  Zr  Zr3  1  0.48587656  0.10144681  0.70118168  1
  Zr  Zr4  1  0.50490500  0.90223890  0.10336253  1
  Zr  Zr5  1  0.89295078  0.70440483  0.69532325  1
  Zr  Zr6  1  0.09654178  0.91397824  0.30375818  1
  Zr  Zr7  1  0.10634120  0.49890879  0.29348215  1
  Zr  Zr8  1  0.29584253  0.09765123  0.30031088  1
  Zr  Zr9  1  0.10645418  0.30121720  0.50182513  1
  Zr  Zr10  1  0.51126423  0.69681875  0.69725383  1
  Zr  Zr11  1  0.89729658  0.29452459  0.88814348  1
  Zr  Zr12  1  0.70129322  0.10167142  0.29680736  1
  Zr  Zr13  1  0.10368631  0.29450578  0.09241856  1
  Zr  Zr14  1  0.49969339  0.70112488  0.49430054  1
  Zr  Zr15  1  0.30271080  0.49676866  0.30455646  1
  Zr  Zr16  1  0.09072247  0.09823438  0.90606541  1
  Zr  Zr17  1  0.29276151  0.70446465  0.10689692  1
  Zr  Zr18  1  0.49950803  0.29761882  0.09791321  1
  Zr  Zr19  1  0.29443630  0.30092024  0.49332201  1
  Zr  Zr20  1  0.10593475  0.50211742  0.69624473  1
  Zr  Zr21  1  0.89801261  0.90034005  0.10411182  1
  Zr  Zr22  1  0.49558422  0.10832419  0.29568050  1
  Zr  Zr23  1  0.10220282  0.90071620  0.70705519  1
  Zr  Zr24  1  0.69685068  0.49344319  0.90654063  1
  Zr  Zr25  1  0.08620062  0.51258864  0.89049587  1
  Zr  Zr26  1  0.70469025  0.69267501  0.51258977  1
  Zr  Zr27  1  0.49596801  0.09975187  0.09435652  1
  Zr  Zr28  1  0.29712174  0.70484450  0.49791909  1
  Zr  Zr29  1  0.29082884  0.49467341  0.10670928  1
  Zr  Zr30  1  0.70163465  0.89440298  0.29660758  1
  Zr  Zr31  1  0.29341890  0.90652852  0.70141531  1
  Zr  Zr32  1  0.69733049  0.50532070  0.69413508  1
  Zr  Zr33  1  0.30041936  0.10539275  0.51166109  1
  Zr  Zr34  1  0.10376790  0.70042378  0.29649127  1
  Zr  Zr35  1  0.29244853  0.29028083  0.69989038  1
  Zr  Zr36  1  0.29445611  0.89773797  0.30551490  1
  Zr  Zr37  1  0.50866029  0.29893300  0.90314645  1
  Zr  Zr38  1  0.70051050  0.10503521  0.10217738  1
  Zr  Zr39  1  0.69583811  0.70768292  0.89187500  1
  Zr  Zr40  1  0.29434441  0.49873612  0.70242409  1
  Zr  Zr41  1  0.89402288  0.49712784  0.30525434  1
  Zr  Zr42  1  0.49805139  0.50043970  0.71126151  1
  Zr  Zr43  1  0.29711701  0.70107819  0.69904147  1
  Zr  Zr44  1  0.50323400  0.69668707  0.09891394  1
  Zr  Zr45  1  0.70013742  0.30683426  0.49699946  1
  Zr  Zr46  1  0.89698384  0.70217551  0.30661350  1
  Zr  Zr47  1  0.70220546  0.10453001  0.90430575  1
  Zr  Zr48  1  0.90517227  0.90066039  0.70105626  1
  Zr  Zr49  1  0.89432825  0.50555919  0.49797211  1
  Sc  Sc50  1  0.50449429  0.49519294  0.48752412  1
  Sc  Sc51  1  0.91697593  0.69924305  0.89668291  1
  Sc  Sc52  1  0.50351315  0.50390200  0.30091438  1
  Sc  Sc53  1  0.70146396  0.10405954  0.50059291  1
  Sc  Sc54  1  0.70282754  0.88313925  0.70113185  1
  Sc  Sc55  1  0.70138460  0.29845173  0.90076981  1
  Sc  Sc56  1  0.29962000  0.69685791  0.89945623  1
  Sc  Sc57  1  0.89063872  0.29222409  0.10525856  1
  Sc  Sc58  1  0.50263190  0.89379941  0.29935872  1
  Sc  Sc59  1  0.29937384  0.30273560  0.09630335  1
  Sc  Sc60  1  0.90917978  0.89981801  0.89824602  1
  Sc  Sc61  1  0.69378306  0.90100391  0.09977257  1
  Sc  Sc62  1  0.10093290  0.30162663  0.70626489  1
  Sc  Sc63  1  0.50195198  0.70220769  0.30515966  1
  Sc  Sc64  1  0.10582051  0.09873869  0.49131311  1
  Sc  Sc65  1  0.09334944  0.09736873  0.09504213  1
  Sc  Sc66  1  0.90627664  0.10087702  0.09090404  1
  Sc  Sc67  1  0.90388512  0.31886537  0.49233682  1
  Sc  Sc68  1  0.29317645  0.89826485  0.50394848  1
  Sc  Sc69  1  0.50359546  0.30032336  0.70338475  1
  Sc  Sc70  1  0.89862781  0.08348952  0.49990177  1
  Sc  Sc71  1  0.51082648  0.50156419  0.09331108  1
  Sc  Sc72  1  0.29207672  0.30149038  0.90192144  1
  Sc  Sc73  1  0.10398205  0.90042974  0.50242778  1
  Sc  Sc74  1  0.10208885  0.70322095  0.70894851  1
  Sc  Sc75  1  0.90484596  0.09673688  0.70634558  1
  Sc  Sc76  1  0.90503473  0.89271443  0.49713973  1
  Sc  Sc77  1  0.29959931  0.91049705  0.10156540  1
  Sc  Sc78  1  0.89859844  0.49772040  0.10119038  1
  Sc  Sc79  1  0.49559567  0.89870549  0.69666301  1
  Sc  Sc80  1  0.70095316  0.30783628  0.70079667  1
  Sc  Sc81  1  0.50033033  0.30022701  0.30037362  1
  Sc  Sc82  1  0.70646692  0.49634677  0.49552113  1
  Sc  Sc83  1  0.50363673  0.29300643  0.49570233  1
  Sc  Sc84  1  0.10069890  0.90520459  0.08640880  1
  Sc  Sc85  1  0.69456923  0.70293952  0.30154901  1
  Sc  Sc86  1  0.50154252  0.88820935  0.50184314  1
  Sc  Sc87  1  0.70348869  0.90001608  0.49915472  1
  Sc  Sc88  1  0.10153943  0.29243184  0.89808075  1
  Sc  Sc89  1  0.50026548  0.49758890  0.90165051  1
  Sc  Sc90  1  0.28860232  0.90589882  0.90113550  1
  Sc  Sc91  1  0.10307770  0.09874547  0.70127724  1
  Sc  Sc92  1  0.68942315  0.70458818  0.10331768  1
  Sc  Sc93  1  0.70526292  0.10774850  0.69986770  1
  Sc  Sc94  1  0.90482780  0.49233224  0.70179901  1
  Sc  Sc95  1  0.69593842  0.49400599  0.29958662  1
  Sc  Sc96  1  0.30209896  0.50004056  0.89646745  1
  Sc  Sc97  1  0.09983005  0.50017286  0.10506221  1
  Sc  Sc98  1  0.50259534  0.68835388  0.89984404  1
  Sc  Sc99  1  0.50874946  0.89987730  0.90739944  1
  Nb  Nb100  1  0.90001718  0.29582509  0.69682623  1
  Nb  Nb101  1  0.70124840  0.69497395  0.70292538  1
  Nb  Nb102  1  0.91523726  0.09952074  0.29403119  1
  Nb  Nb103  1  0.90046325  0.29540461  0.29620887  1
  Nb  Nb104  1  0.70147891  0.50225394  0.10267561  1
  Nb  Nb105  1  0.89735010  0.50117102  0.90004512  1
  Nb  Nb106  1  0.09906541  0.69976804  0.49838632  1
  Nb  Nb107  1  0.29437037  0.49951281  0.50290576  1
  Nb  Nb108  1  0.50131015  0.10038518  0.49912428  1
  Nb  Nb109  1  0.89803575  0.90263336  0.29954520  1
  Nb  Nb110  1  0.69995955  0.30927067  0.10815668  1
  Nb  Nb111  1  0.89730007  0.70221764  0.10366094  1
  Nb  Nb112  1  0.50372399  0.10528014  0.89965446  1
  Nb  Nb113  1  0.09381088  0.09996360  0.29792995  1
  Nb  Nb114  1  0.10012393  0.70981031  0.90698529  1
  Nb  Nb115  1  0.89760002  0.10187100  0.89610688  1
  Nb  Nb116  1  0.90450927  0.69195738  0.49808766  1
  Nb  Nb117  1  0.71314523  0.29822203  0.28773266  1
  Nb  Nb118  1  0.30149954  0.09723563  0.70288733  1
  Nb  Nb119  1  0.30004364  0.10043783  0.09619191  1
  Nb  Nb120  1  0.70428802  0.89873823  0.89946412  1
  Nb  Nb121  1  0.10888523  0.49781957  0.50406328  1
  Nb  Nb122  1  0.09852298  0.89526895  0.89548684  1
  Nb  Nb123  1  0.30570198  0.10030944  0.90207960  1
  Nb  Nb124  1  0.09457976  0.70019307  0.10106520  1
  Nb  Nb125  1  0.79552861  -0.00249556  0.80676531  1
  Nb  Nb126  1  0.80088254  0.79536210  -0.00183992  1
  Nb  Nb127  1  -0.00211601  0.80001266  0.20028727  1
  Nb  Nb128  1  0.18962529  0.60720795  0.00237332  1
  Nb  Nb129  1  0.80692863  0.00126938  0.20486338  1
  Nb  Nb130  1  0.39636359  0.59358243  0.59552084  1
  Nb  Nb131  1  0.80014945  0.60042897  0.80449198  1
  Nb  Nb132  1  -0.00513612  0.20391574  0.59896894  1
  Nb  Nb133  1  0.60234705  0.00333799  0.80006683  1
  Nb  Nb134  1  0.39465484  0.40401019  0.59885235  1
  Nb  Nb135  1  0.59682368  0.00442784  0.60170297  1
  Nb  Nb136  1  0.59469884  0.00461072  0.40347987  1
  Nb  Nb137  1  0.00345819  0.60227646  0.59257437  1
  Nb  Nb138  1  0.40465922  0.00426802  0.40467578  1
  Nb  Nb139  1  0.40027186  0.79963332  -0.00035496  1
  Nb  Nb140  1  0.80147775  0.60378385  0.00024351  1
  Nb  Nb141  1  0.80776740  0.20236728  0.39419450  1
  Nb  Nb142  1  0.39927619  0.80068019  0.80372280  1
  Nb  Nb143  1  0.39749511  0.60066575  0.19921307  1
  Nb  Nb144  1  0.79712031  0.60167267  0.19467103  1
  Nb  Nb145  1  0.19877687  0.59791679  0.40628089  1
  Nb  Nb146  1  -0.00651411  0.39997074  -0.00266340  1
  Nb  Nb147  1  0.81032452  0.20709673  0.59439278  1
  Nb  Nb148  1  0.19819311  0.19109006  0.19918324  1
  Nb  Nb149  1  -0.00203373  0.39150453  0.20079654  1
  Pd  Pd150  1  0.80317855  -0.00672628  0.00070334  1
  Pd  Pd151  1  -0.00129081  0.59532419  0.00769523  1
  Pd  Pd152  1  0.39989924  0.40353901  -0.00077522  1
  Pd  Pd153  1  0.00390600  0.39509631  0.80402084  1
  Pd  Pd154  1  0.39646413  0.38959297  0.79884659  1
  Pd  Pd155  1  0.00895955  0.59242110  0.40270958  1
  Pd  Pd156  1  -0.00894526  0.59818975  0.19904853  1
  Pd  Pd157  1  0.59677981  0.20393030  0.19697562  1
  Pd  Pd158  1  0.40358168  -0.00663324  0.59205704  1
  Pd  Pd159  1  0.59104800  0.58984762  0.59069383  1
  Pd  Pd160  1  0.79812104  0.00448231  0.39342466  1
  Pd  Pd161  1  0.59537189  0.40140191  0.20189950  1
  Pd  Pd162  1  0.79246230  0.00119059  0.61095898  1
  Pd  Pd163  1  0.60523927  0.19754120  0.60500874  1
  Pd  Pd164  1  0.39462492  0.20538083  -0.00455956  1
  Pd  Pd165  1  0.00427181  0.80539609  0.39595324  1
  Pd  Pd166  1  0.40154946  -0.00180038  0.20683703  1
  Pd  Pd167  1  0.39856000  0.79606581  0.60538290  1
  Pd  Pd168  1  0.79675390  0.79395787  0.40830950  1
  Pd  Pd169  1  0.40404211  0.39660337  0.40487097  1
  Pd  Pd170  1  0.00673172  0.40646492  0.39471902  1
  Pd  Pd171  1  0.40782184  -0.00815997  0.81210055  1
  Pd  Pd172  1  0.79598647  0.40530986  0.79445777  1
  Pd  Pd173  1  0.19967143  0.60389198  0.80906554  1
  Pd  Pd174  1  0.60901101  0.20186187  0.39545885  1
  Pd  Pd175  1  0.18728715  0.81429249  0.19687526  1
  Pd  Pd176  1  0.00659621  0.79435090  0.60205099  1
  Pd  Pd177  1  0.40302760  0.21205995  0.59850777  1
  Pd  Pd178  1  -0.01046621  0.19277796  0.41511943  1
  Pd  Pd179  1  0.60827517  0.59934069  0.40085949  1
  Pd  Pd180  1  0.79863498  0.20745729  0.00189292  1
  Pd  Pd181  1  0.00217835  0.40134379  0.60021081  1
  Pd  Pd182  1  0.40435204  0.79782896  0.19654242  1
  Pd  Pd183  1  0.60278538  0.19661009  0.79387313  1
  Pd  Pd184  1  0.19877465  0.19033880  0.80455579  1
  Pd  Pd185  1  -0.00512862  0.80356815  0.00545714  1
  Pd  Pd186  1  0.39977509  -0.00655542  -0.00799700  1
  Pd  Pd187  1  0.41145102  0.40824649  0.19577712  1
  Pd  Pd188  1  0.00952878  0.00549412  0.59725062  1
  Pd  Pd189  1  0.80482460  0.39867309  0.00523066  1
  Pd  Pd190  1  0.80158034  0.80344108  0.59261335  1
  Pd  Pd191  1  0.60155497  0.00402593  -0.00379956  1
  Pd  Pd192  1  0.19395411  0.00354388  0.19210043  1
  Pd  Pd193  1  0.59078109  0.40427683  0.59762615  1
  Pd  Pd194  1  0.38816198  0.60077900  0.00747687  1
  Pd  Pd195  1  0.59007229  0.80821101  0.79825248  1
  Pd  Pd196  1  0.39718066  0.20679403  0.80849475  1
  Pd  Pd197  1  0.18647896  0.41456694  -0.01313584  1
  Pd  Pd198  1  0.20592308  0.80005782  -0.00011578  1
  Pd  Pd199  1  0.19661498  0.00938163  0.80708652  1
  Rh  Rh200  1  0.20672171  0.60289511  0.20168884  1
  Rh  Rh201  1  0.20471218  0.79954121  0.80521063  1
  Rh  Rh202  1  0.60488393  0.39142552  0.39080918  1
  Rh  Rh203  1  0.19768266  0.61006528  0.59432891  1
  Rh  Rh204  1  0.80978289  0.79845403  0.80757365  1
  Rh  Rh205  1  0.20594678  0.18964265  0.00171475  1
  Rh  Rh206  1  -0.00287303  -0.00371894  -0.00597243  1
  Rh  Rh207  1  0.60624127  -0.00029835  0.20763986  1
  Rh  Rh208  1  0.39950478  0.81093601  0.40029892  1
  Rh  Rh209  1  0.60900858  0.60086710  -0.00339079  1
  Rh  Rh210  1  0.19849098  0.00342970  0.60206712  1
  Rh  Rh211  1  0.80817501  0.18763553  0.20272301  1
  Rh  Rh212  1  -0.00241677  -0.00551213  0.19620962  1
  Rh  Rh213  1  0.19613874  0.40213790  0.80331756  1
  Rh  Rh214  1  0.19862322  0.00659851  -0.00635450  1
  Rh  Rh215  1  0.20430568  0.39186454  0.60524339  1
  Rh  Rh216  1  0.20697522  0.00373067  0.40546908  1
  Rh  Rh217  1  0.59934866  0.79697223  -0.00052005  1
  Rh  Rh218  1  0.60669483  0.80172887  0.59912404  1
  Rh  Rh219  1  0.60288181  0.39488246  0.00438071  1
  Rh  Rh220  1  0.80174103  0.19445525  0.79228223  1
  Rh  Rh221  1  0.19302380  0.79770543  0.40088270  1
  Rh  Rh222  1  0.79443566  0.39319757  0.39240579  1
  Rh  Rh223  1  -0.00917705  0.20858630  -0.00401791  1
  Rh  Rh224  1  0.59593617  0.79896323  0.20152861  1
  Rh  Rh225  1  0.40227198  0.60988102  0.79124366  1
  Rh  Rh226  1  0.19078981  0.19597570  0.60448986  1
  Rh  Rh227  1  0.60568988  0.20445407  0.00736477  1
  Rh  Rh228  1  -0.00066914  -0.00204199  0.40551296  1
  Rh  Rh229  1  0.79130428  0.60558856  0.39246496  1
  Rh  Rh230  1  0.39383427  0.59991406  0.40001375  1
  Rh  Rh231  1  0.80163359  0.80004402  0.19527683  1
  Rh  Rh232  1  0.60338766  0.39934180  0.80297534  1
  Rh  Rh233  1  0.59900610  0.60013699  0.20243759  1
  Rh  Rh234  1  0.39144468  0.19962972  0.19088090  1
  Rh  Rh235  1  0.39549734  0.19598455  0.40269455  1
  Rh  Rh236  1  0.19647997  0.40326017  0.39463388  1
  Rh  Rh237  1  0.19285543  0.80079351  0.60302862  1
  Rh  Rh238  1  0.80942549  0.59397449  0.60884476  1
  Rh  Rh239  1  0.60791841  0.59210716  0.80644486  1
  Rh  Rh240  1  -0.00319337  0.00147790  0.80515344  1
  Rh  Rh241  1  -0.00829761  0.60578184  0.78514819  1
  Rh  Rh242  1  0.80579172  0.40784337  0.19930113  1
  Rh  Rh243  1  0.00633317  0.20323635  0.19096386  1
  Rh  Rh244  1  0.60655350  0.80332636  0.40669382  1
  Rh  Rh245  1  0.20386563  0.19448289  0.39400262  1
  Rh  Rh246  1  0.00101689  0.79914223  0.79641913  1
  Rh  Rh247  1  0.80113950  0.39829070  0.60316917  1
  Rh  Rh248  1  0.18777221  0.37988737  0.20642377  1
  Rh  Rh249  1  0.00079146  0.19644379  0.79380527  1
