# generated using pymatgen
data_ZrScNbPdRh
_symmetry_space_group_name_H-M   'P 1'
_cell_length_a   16.55889792
_cell_length_b   16.56473505
_cell_length_c   16.56159739
_cell_angle_alpha   90.03063212
_cell_angle_beta   89.99482323
_cell_angle_gamma   89.99190668
_symmetry_Int_Tables_number   1
_chemical_formula_structural   ZrScNbPdRh
_chemical_formula_sum   'Zr50 Sc50 Nb50 Pd50 Rh50'
_cell_volume   4542.74205535
_cell_formula_units_Z   50
loop_
 _symmetry_equiv_pos_site_id
 _symmetry_equiv_pos_as_xyz
  1  'x, y, z'
loop_
 _atom_site_type_symbol
 _atom_site_label
 _atom_site_symmetry_multiplicity
 _atom_site_fract_x
 _atom_site_fract_y
 _atom_site_fract_z
 _atom_site_occupancy
  Zr  Zr0  1  0.30861016  0.49700781  0.69802506  1
  Zr  Zr1  1  0.89634161  0.90684112  0.30349417  1
  Zr  Zr2  1  0.29488013  0.49990376  0.30006588  1
  Zr  Zr3  1  0.29586388  0.29840665  0.69935224  1
  Zr  Zr4  1  0.10415622  0.09825710  0.69617948  1
  Zr  Zr5  1  0.50397223  0.90600638  0.50448350  1
  Zr  Zr6  1  0.69553995  0.50877065  0.29437005  1
  Zr  Zr7  1  0.89919254  0.69975885  0.09610078  1
  Zr  Zr8  1  0.70308423  0.91325986  0.90402744  1
  Zr  Zr9  1  0.50215654  0.10666801  0.50719262  1
  Zr  Zr10  1  0.09148408  0.09843071  0.30155055  1
  Zr  Zr11  1  0.70469942  0.69598345  0.10398954  1
  Zr  Zr12  1  0.90225308  0.70158777  0.50030653  1
  Zr  Zr13  1  0.09548466  0.90539578  0.30352527  1
  Zr  Zr14  1  0.69422370  0.29401503  0.49482117  1
  Zr  Zr15  1  0.89174913  0.49145340  0.10443798  1
  Zr  Zr16  1  0.50603619  0.29821817  0.30426483  1
  Zr  Zr17  1  0.50970579  0.50532247  0.69837421  1
  Zr  Zr18  1  0.29826836  0.89421721  0.50355785  1
  Zr  Zr19  1  0.90715769  0.90216877  0.69804774  1
  Zr  Zr20  1  0.70633331  0.29474963  0.09442358  1
  Zr  Zr21  1  0.50800899  0.29913212  0.10164987  1
  Zr  Zr22  1  0.10483517  0.09639683  0.09702085  1
  Zr  Zr23  1  0.89620830  0.48896613  0.69925079  1
  Zr  Zr24  1  0.09471050  0.49479875  0.10275498  1
  Zr  Zr25  1  0.09766435  0.90120918  0.10202657  1
  Zr  Zr26  1  0.49580428  0.70263161  0.50138924  1
  Zr  Zr27  1  0.50014158  0.70411763  0.10858959  1
  Zr  Zr28  1  0.69739661  0.90333637  0.29948594  1
  Zr  Zr29  1  0.30241510  0.09516255  0.90124763  1
  Zr  Zr30  1  0.30200416  0.70811871  0.30445965  1
  Zr  Zr31  1  0.29868449  0.90143263  0.88984721  1
  Zr  Zr32  1  0.89793759  0.30299573  0.09604624  1
  Zr  Zr33  1  0.10639309  0.90115490  0.70037324  1
  Zr  Zr34  1  0.30659177  0.50176065  0.90356956  1
  Zr  Zr35  1  0.29859248  0.10242365  0.09906676  1
  Zr  Zr36  1  0.50345444  0.90118586  0.11412850  1
  Zr  Zr37  1  0.29893873  0.29763729  0.30137752  1
  Zr  Zr38  1  0.70488125  0.70027651  0.90811204  1
  Zr  Zr39  1  0.10268168  0.29603186  0.49986175  1
  Zr  Zr40  1  0.09793127  0.30070289  0.30182209  1
  Zr  Zr41  1  0.70387323  0.89919927  0.49405019  1
  Zr  Zr42  1  0.50078524  0.29942990  0.69388118  1
  Zr  Zr43  1  0.09834802  0.69392859  0.09163815  1
  Zr  Zr44  1  0.70599999  0.69807811  0.49829674  1
  Zr  Zr45  1  0.50480118  0.50015851  0.90508839  1
  Zr  Zr46  1  0.10295874  0.70098100  0.89319897  1
  Zr  Zr47  1  0.89005295  0.29335883  0.90091672  1
  Zr  Zr48  1  0.30447290  0.10207619  0.69309001  1
  Zr  Zr49  1  0.50905110  0.10140030  0.88771558  1
  Sc  Sc50  1  0.70543201  0.91237383  0.69548903  1
  Sc  Sc51  1  0.30231133  0.71251435  0.68653512  1
  Sc  Sc52  1  0.89836832  0.89630595  0.09679191  1
  Sc  Sc53  1  0.89725454  0.29237082  0.29403181  1
  Sc  Sc54  1  0.90444497  0.70174693  0.69564164  1
  Sc  Sc55  1  0.10157104  0.69434230  0.30771694  1
  Sc  Sc56  1  0.50270118  0.09663979  0.10684400  1
  Sc  Sc57  1  0.88629255  0.10026211  0.89562802  1
  Sc  Sc58  1  0.50208245  0.88690893  0.30448073  1
  Sc  Sc59  1  0.09873858  0.51205387  0.49881440  1
  Sc  Sc60  1  0.48543556  0.90497136  0.69853077  1
  Sc  Sc61  1  0.10507314  0.09767826  0.49488939  1
  Sc  Sc62  1  0.70681153  0.30166092  0.70078405  1
  Sc  Sc63  1  0.10154165  0.89998084  0.88476551  1
  Sc  Sc64  1  0.89968178  0.49963839  0.29839207  1
  Sc  Sc65  1  0.69306083  0.29287184  0.30052046  1
  Sc  Sc66  1  0.29805878  0.28743308  0.49385928  1
  Sc  Sc67  1  0.50534101  0.49859448  0.51128090  1
  Sc  Sc68  1  0.09628016  0.50580194  0.90293311  1
  Sc  Sc69  1  0.88770407  0.29300754  0.50477568  1
  Sc  Sc70  1  0.29837883  0.10497854  0.30074180  1
  Sc  Sc71  1  0.10031578  0.70977328  0.69937123  1
  Sc  Sc72  1  0.09768502  0.29090625  0.89681639  1
  Sc  Sc73  1  0.10804914  0.09813966  0.89625370  1
  Sc  Sc74  1  0.29872887  0.50780943  0.09404726  1
  Sc  Sc75  1  0.30218851  0.89806813  0.30668261  1
  Sc  Sc76  1  0.89115973  0.09822162  0.49665959  1
  Sc  Sc77  1  0.10383566  0.90955113  0.50130815  1
  Sc  Sc78  1  0.09304636  0.50057985  0.70266520  1
  Sc  Sc79  1  0.70048476  0.09682372  0.50647741  1
  Sc  Sc80  1  0.88634315  0.09724357  0.69935327  1
  Sc  Sc81  1  0.89645442  0.09925750  0.30200643  1
  Sc  Sc82  1  0.10074795  0.49865443  0.30393312  1
  Sc  Sc83  1  0.49518994  0.90919668  0.89220149  1
  Sc  Sc84  1  0.89460457  0.11014523  0.10119413  1
  Sc  Sc85  1  0.69962431  0.69040694  0.69393816  1
  Sc  Sc86  1  0.50499769  0.10695028  0.30018053  1
  Sc  Sc87  1  0.10037500  0.29770675  0.70850321  1
  Sc  Sc88  1  0.30190877  0.50938155  0.50683452  1
  Sc  Sc89  1  0.89526201  0.69639474  0.30281715  1
  Sc  Sc90  1  0.90185414  0.49067865  0.90343915  1
  Sc  Sc91  1  0.90169926  0.50843385  0.50673990  1
  Sc  Sc92  1  0.69141431  0.70090228  0.30535912  1
  Sc  Sc93  1  0.30243677  0.30134338  0.89020562  1
  Sc  Sc94  1  0.30377855  0.91351182  0.10145180  1
  Sc  Sc95  1  0.50763354  0.30341092  0.89611975  1
  Sc  Sc96  1  0.09201202  0.29290826  0.10429260  1
  Sc  Sc97  1  0.90736729  0.70009512  0.90634609  1
  Sc  Sc98  1  0.50185471  0.69748009  0.90138352  1
  Sc  Sc99  1  0.69636982  0.29556522  0.89759286  1
  Nb  Nb100  1  0.90152461  0.29545700  0.70040112  1
  Nb  Nb101  1  0.69827488  0.90268066  0.10382469  1
  Nb  Nb102  1  0.69759761  0.09918091  0.89136267  1
  Nb  Nb103  1  0.30298444  0.69582029  0.90738439  1
  Nb  Nb104  1  0.70447213  0.50444364  0.50961924  1
  Nb  Nb105  1  0.70487045  0.09528095  0.29614487  1
  Nb  Nb106  1  0.29836214  0.09737735  0.49822861  1
  Nb  Nb107  1  0.89648742  0.89897386  0.89764560  1
  Nb  Nb108  1  0.30205819  0.29852700  0.10053522  1
  Nb  Nb109  1  0.89331889  0.89876942  0.49983966  1
  Nb  Nb110  1  0.70004986  0.50089879  0.09602599  1
  Nb  Nb111  1  0.49856567  0.69898272  0.30045740  1
  Nb  Nb112  1  0.29687978  0.90112259  0.69747865  1
  Nb  Nb113  1  0.50487827  0.29784484  0.48926614  1
  Nb  Nb114  1  0.69473852  0.09980704  0.71021070  1
  Nb  Nb115  1  0.30003267  0.69888275  0.09690394  1
  Nb  Nb116  1  0.50048272  0.70290606  0.69676510  1
  Nb  Nb117  1  0.50653246  0.09707920  0.69688676  1
  Nb  Nb118  1  0.50070043  0.50091667  0.29567832  1
  Nb  Nb119  1  0.50231884  0.49996430  0.10331209  1
  Nb  Nb120  1  0.69471754  0.50004894  0.89383072  1
  Nb  Nb121  1  0.10719484  0.70302294  0.49511633  1
  Nb  Nb122  1  0.69715651  0.08877743  0.10271881  1
  Nb  Nb123  1  0.70003064  0.50212128  0.69880460  1
  Nb  Nb124  1  0.29306805  0.70294465  0.49476995  1
  Nb  Nb125  1  -0.00705627  0.39646996  0.40473058  1
  Nb  Nb126  1  0.40373488  0.59892474  0.20274202  1
  Nb  Nb127  1  0.39867518  0.80073261  0.00231411  1
  Nb  Nb128  1  0.40378539  0.59937130  0.39472190  1
  Nb  Nb129  1  0.79642699  0.59501397  0.80058401  1
  Nb  Nb130  1  0.40062457  0.60500135  0.79597089  1
  Nb  Nb131  1  0.79546566  0.40377146  0.40353388  1
  Nb  Nb132  1  -0.00260544  0.80229320  0.40707969  1
  Nb  Nb133  1  0.59849546  0.80040854  0.60518290  1
  Nb  Nb134  1  0.20019023  0.39879424  0.60242254  1
  Nb  Nb135  1  0.21269233  0.60402586  0.79998164  1
  Nb  Nb136  1  0.20221344  0.39597147  0.00222557  1
  Nb  Nb137  1  -0.00179436  0.59897556  0.19543422  1
  Nb  Nb138  1  0.19951877  0.79798210  0.19406191  1
  Nb  Nb139  1  0.40711077  0.40277323  0.39682508  1
  Nb  Nb140  1  0.20683153  0.79871808  0.00096570  1
  Nb  Nb141  1  0.40162816  0.20094638  0.00200964  1
  Nb  Nb142  1  0.60407498  0.80166094  0.79751088  1
  Nb  Nb143  1  0.40313000  0.40332743  0.19997367  1
  Nb  Nb144  1  0.79748409  0.79902303  0.80335605  1
  Nb  Nb145  1  0.59966920  0.80794445  0.00061644  1
  Nb  Nb146  1  0.40049431  0.00497502  0.40909080  1
  Nb  Nb147  1  0.79689039  0.80322653  0.19977272  1
  Nb  Nb148  1  -0.00355201  -0.00171089  -0.00650203  1
  Nb  Nb149  1  -0.00408686  0.20060347  0.60496272  1
  Pd  Pd150  1  0.40371365  0.19889635  0.80255057  1
  Pd  Pd151  1  -0.00057419  0.78984794  0.21207863  1
  Pd  Pd152  1  0.60345439  0.41199733  0.40402748  1
  Pd  Pd153  1  0.79651742  0.39650962  0.59446947  1
  Pd  Pd154  1  0.20373752  0.39702778  0.19096128  1
  Pd  Pd155  1  0.40369408  0.20380420  0.19661099  1
  Pd  Pd156  1  0.60546926  0.39973799  0.19704881  1
  Pd  Pd157  1  0.59257821  0.00036042  0.00099261  1
  Pd  Pd158  1  0.40020713  0.20606922  0.59519448  1
  Pd  Pd159  1  0.19812789  0.60634544  0.20269373  1
  Pd  Pd160  1  0.60802600  0.40045243  0.00027115  1
  Pd  Pd161  1  0.59808641  0.60411331  0.00688480  1
  Pd  Pd162  1  0.19637511  0.59886060  0.60914923  1
  Pd  Pd163  1  0.39425692  0.38872949  0.58454279  1
  Pd  Pd164  1  0.00958839  0.80936357  -0.01066364  1
  Pd  Pd165  1  -0.00261405  0.18864236  -0.00547014  1
  Pd  Pd166  1  0.20736451  0.20929404  -0.00588492  1
  Pd  Pd167  1  0.20606046  -0.00415909  0.20865147  1
  Pd  Pd168  1  -0.00525627  0.00839349  0.80418589  1
  Pd  Pd169  1  0.60774333  0.20143521  0.60592705  1
  Pd  Pd170  1  0.19249728  0.40909629  0.80279730  1
  Pd  Pd171  1  0.59505408  0.00579005  0.39627006  1
  Pd  Pd172  1  0.00184161  0.39557275  0.80651543  1
  Pd  Pd173  1  0.79026568  0.39514863  0.21040152  1
  Pd  Pd174  1  0.00718349  0.39363531  -0.00652792  1
  Pd  Pd175  1  0.41185409  0.40417071  0.79969691  1
  Pd  Pd176  1  0.60066480  0.60822029  0.79953657  1
  Pd  Pd177  1  0.79544976  0.19789406  0.20152915  1
  Pd  Pd178  1  0.79544424  0.40070052  0.80497971  1
  Pd  Pd179  1  0.80775088  0.00598123  0.00700799  1
  Pd  Pd180  1  0.80554994  0.58790619  -0.00713121  1
  Pd  Pd181  1  -0.00607140  0.18965686  0.79654538  1
  Pd  Pd182  1  0.00494491  0.60375731  0.60485685  1
  Pd  Pd183  1  -0.00459248  0.00987500  0.59317035  1
  Pd  Pd184  1  0.79362495  0.79953413  0.61003020  1
  Pd  Pd185  1  0.80185161  0.59361327  0.39838981  1
  Pd  Pd186  1  0.20053272  0.40728476  0.41443860  1
  Pd  Pd187  1  0.40238687  0.00089711  0.21834659  1
  Pd  Pd188  1  -0.01203933  0.00788738  0.18921618  1
  Pd  Pd189  1  0.39782600  0.39234004  0.00532308  1
  Pd  Pd190  1  0.00578988  0.39190181  0.59461843  1
  Pd  Pd191  1  0.00865222  0.80345757  0.59132796  1
  Pd  Pd192  1  0.40267763  0.79356404  0.80466579  1
  Pd  Pd193  1  0.59847674  0.19087604  0.00105132  1
  Pd  Pd194  1  -0.00739003  0.20370153  0.40889074  1
  Pd  Pd195  1  0.41031110  0.00242494  0.00079184  1
  Pd  Pd196  1  0.59362862  0.59573359  0.40827311  1
  Pd  Pd197  1  -0.00664739  0.60183647  0.79622914  1
  Pd  Pd198  1  0.60658278  0.39517954  0.60112062  1
  Pd  Pd199  1  0.19404783  0.20010701  0.20310987  1
  Rh  Rh200  1  0.39537208  0.00236440  0.59737622  1
  Rh  Rh201  1  -0.00006559  0.60150806  0.39641228  1
  Rh  Rh202  1  0.60204057  0.60636392  0.59437171  1
  Rh  Rh203  1  0.60917362  0.19282542  0.19645475  1
  Rh  Rh204  1  0.79419042  0.20029954  0.39638483  1
  Rh  Rh205  1  0.80588143  0.59867440  0.61017297  1
  Rh  Rh206  1  -0.01118447  0.79971609  0.80137251  1
  Rh  Rh207  1  0.59754575  -0.00744333  0.79034272  1
  Rh  Rh208  1  0.20744202  0.59812826  0.40306440  1
  Rh  Rh209  1  0.40212799  0.80202242  0.59549635  1
  Rh  Rh210  1  0.40308239  0.19780355  0.40379453  1
  Rh  Rh211  1  0.19231526  0.20307634  0.60113061  1
  Rh  Rh212  1  0.20469698  0.19478105  0.80079473  1
  Rh  Rh213  1  0.80225822  -0.00519626  0.79717525  1
  Rh  Rh214  1  0.80322523  0.60501174  0.20127491  1
  Rh  Rh215  1  0.00042163  0.19586520  0.19930465  1
  Rh  Rh216  1  0.59786821  0.00259540  0.20987241  1
  Rh  Rh217  1  0.40463763  0.80193069  0.40753584  1
  Rh  Rh218  1  0.38935868  0.79787419  0.19404519  1
  Rh  Rh219  1  0.79681830  0.00497307  0.40129521  1
  Rh  Rh220  1  0.19459551  0.80221007  0.59684976  1
  Rh  Rh221  1  0.19644308  0.59655560  -0.00694417  1
  Rh  Rh222  1  0.41289459  0.60525807  0.00454305  1
  Rh  Rh223  1  0.80253331  -0.00433618  0.19416538  1
  Rh  Rh224  1  0.59785788  0.60108702  0.19495451  1
  Rh  Rh225  1  0.79453772  0.20068545  0.79765123  1
  Rh  Rh226  1  0.60180600  0.39855443  0.79406151  1
  Rh  Rh227  1  0.20691242  0.00470228  0.79228861  1
  Rh  Rh228  1  0.78988028  0.40220690  -0.00710390  1
  Rh  Rh229  1  0.20965128  0.00190097  0.39731327  1
  Rh  Rh230  1  0.79882870  0.19729681  0.60708526  1
  Rh  Rh231  1  0.39907116  0.60942307  0.59907515  1
  Rh  Rh232  1  0.20540816  0.00002383  0.60005488  1
  Rh  Rh233  1  0.21172887  0.79159910  0.80134449  1
  Rh  Rh234  1  0.59876510  0.79768736  0.40817986  1
  Rh  Rh235  1  0.18836738  0.80564409  0.39581861  1
  Rh  Rh236  1  0.18796140  -0.01154036  -0.00738642  1
  Rh  Rh237  1  0.00009194  0.40318028  0.21239827  1
  Rh  Rh238  1  -0.00859934  0.59040837  0.00726894  1
  Rh  Rh239  1  0.80601661  0.80078592  0.39191506  1
  Rh  Rh240  1  -0.00728163  -0.00577558  0.40931598  1
  Rh  Rh241  1  0.19617230  0.19106843  0.39407021  1
  Rh  Rh242  1  0.79131294  0.80914793  0.00200619  1
  Rh  Rh243  1  0.61065389  0.79651429  0.19949459  1
  Rh  Rh244  1  0.60118998  0.20633592  0.79156273  1
  Rh  Rh245  1  0.39722256  0.00886256  0.78972174  1
  Rh  Rh246  1  0.79866398  0.00285746  0.59926066  1
  Rh  Rh247  1  0.78810368  0.19055974  -0.00307440  1
  Rh  Rh248  1  0.60765617  0.18618802  0.39944726  1
  Rh  Rh249  1  0.60150510  -0.00296901  0.60635035  1
