# generated using pymatgen
data_ZrScNbPdRh
_symmetry_space_group_name_H-M   'P 1'
_cell_length_a   16.55830902
_cell_length_b   16.55717823
_cell_length_c   16.55806289
_cell_angle_alpha   90.03150230
_cell_angle_beta   90.02038233
_cell_angle_gamma   90.01203110
_symmetry_Int_Tables_number   1
_chemical_formula_structural   ZrScNbPdRh
_chemical_formula_sum   'Zr50 Sc50 Nb50 Pd50 Rh50'
_cell_volume   4539.53879722
_cell_formula_units_Z   50
loop_
 _symmetry_equiv_pos_site_id
 _symmetry_equiv_pos_as_xyz
  1  'x, y, z'
loop_
 _atom_site_type_symbol
 _atom_site_label
 _atom_site_symmetry_multiplicity
 _atom_site_fract_x
 _atom_site_fract_y
 _atom_site_fract_z
 _atom_site_occupancy
  Zr  Zr0  1  0.70346101  0.10560039  0.49739487  1
  Zr  Zr1  1  0.49997302  0.29588589  0.10360687  1
  Zr  Zr2  1  0.69800822  0.29312471  0.30749976  1
  Zr  Zr3  1  0.49756737  0.90560097  0.29555554  1
  Zr  Zr4  1  0.30270125  0.89885598  0.30579801  1
  Zr  Zr5  1  0.89189855  0.49961428  0.49434109  1
  Zr  Zr6  1  0.10295094  0.29267938  0.29345077  1
  Zr  Zr7  1  0.49976474  0.09991101  0.90345269  1
  Zr  Zr8  1  0.29433509  0.09694595  0.89894674  1
  Zr  Zr9  1  0.10458975  0.50624293  0.50030428  1
  Zr  Zr10  1  0.90883746  0.30802088  0.90174443  1
  Zr  Zr11  1  0.48972481  0.90603039  0.49484203  1
  Zr  Zr12  1  0.70140103  0.09943986  0.29785397  1
  Zr  Zr13  1  0.90700876  0.50407425  0.89976164  1
  Zr  Zr14  1  0.29703450  0.90173941  0.90239097  1
  Zr  Zr15  1  0.10021373  0.10184798  0.10759258  1
  Zr  Zr16  1  0.29414445  0.69401053  0.69946143  1
  Zr  Zr17  1  0.50136653  0.10085285  0.10606867  1
  Zr  Zr18  1  0.89301645  0.50556554  0.70236782  1
  Zr  Zr19  1  0.70570593  0.49841090  0.10551780  1
  Zr  Zr20  1  0.10295000  0.30201511  0.09885682  1
  Zr  Zr21  1  0.70703921  0.29296803  0.10037866  1
  Zr  Zr22  1  0.49456135  0.09976138  0.50403424  1
  Zr  Zr23  1  0.90173004  0.09369655  0.49375330  1
  Zr  Zr24  1  0.29952335  0.31401099  0.30143109  1
  Zr  Zr25  1  0.10506435  0.49742946  0.29983834  1
  Zr  Zr26  1  0.30002899  0.49878260  0.30004101  1
  Zr  Zr27  1  0.09886051  0.90957091  0.89426326  1
  Zr  Zr28  1  0.30027260  0.70696387  0.30116191  1
  Zr  Zr29  1  0.10215105  0.30140732  0.70966049  1
  Zr  Zr30  1  0.89422943  0.90095750  0.30711847  1
  Zr  Zr31  1  0.31056936  0.10439617  0.69526998  1
  Zr  Zr32  1  0.69925052  0.10026167  0.70309880  1
  Zr  Zr33  1  0.49952083  0.90153143  0.89986316  1
  Zr  Zr34  1  0.50355025  0.90707094  0.09760922  1
  Zr  Zr35  1  0.90161965  0.49380550  0.09714126  1
  Zr  Zr36  1  0.08580793  0.89776036  0.09466426  1
  Zr  Zr37  1  0.09750689  0.70073806  0.10039762  1
  Zr  Zr38  1  0.49981018  0.09997396  0.70672924  1
  Zr  Zr39  1  0.29437687  0.69599777  0.10199741  1
  Zr  Zr40  1  0.09427165  0.09630791  0.30050205  1
  Zr  Zr41  1  0.49743218  0.69226982  0.69239537  1
  Zr  Zr42  1  0.90035853  0.70382613  0.70511360  1
  Zr  Zr43  1  0.89588403  0.89914482  0.10494412  1
  Zr  Zr44  1  0.89728179  0.28613898  0.29740037  1
  Zr  Zr45  1  0.29854771  0.30353216  0.10699372  1
  Zr  Zr46  1  0.69848246  0.30482884  0.69755905  1
  Zr  Zr47  1  0.90597062  0.90116815  0.50494574  1
  Zr  Zr48  1  0.70696081  0.30630908  0.49831735  1
  Zr  Zr49  1  0.30415912  0.10169756  0.09694970  1
  Sc  Sc50  1  0.69937043  0.70957539  0.10771870  1
  Sc  Sc51  1  0.90049989  0.70003548  0.30237273  1
  Sc  Sc52  1  0.90339977  0.69886319  0.88985921  1
  Sc  Sc53  1  0.10043161  0.70067068  0.69581025  1
  Sc  Sc54  1  0.30282064  0.30952533  0.70367280  1
  Sc  Sc55  1  0.90876774  0.70051821  0.10487723  1
  Sc  Sc56  1  0.10864025  0.50906233  0.70214532  1
  Sc  Sc57  1  0.50282861  0.29783420  0.89799080  1
  Sc  Sc58  1  0.69124232  0.09907639  0.90092557  1
  Sc  Sc59  1  0.69840746  0.90418710  0.90050118  1
  Sc  Sc60  1  0.29957018  0.50301717  0.69640239  1
  Sc  Sc61  1  0.90948401  0.69856801  0.49715314  1
  Sc  Sc62  1  0.29754064  0.69810661  0.49773585  1
  Sc  Sc63  1  0.30113632  0.69898797  0.89680682  1
  Sc  Sc64  1  0.29674983  0.90062235  0.49232119  1
  Sc  Sc65  1  0.10374083  0.90034973  0.30678845  1
  Sc  Sc66  1  0.49914505  0.70869096  0.09605680  1
  Sc  Sc67  1  0.09521738  0.89829188  0.49852543  1
  Sc  Sc68  1  0.09501326  0.89660524  0.69918844  1
  Sc  Sc69  1  0.49844982  0.49662858  0.10063419  1
  Sc  Sc70  1  0.29179214  0.09242826  0.29457019  1
  Sc  Sc71  1  0.69360126  0.29579614  0.90514289  1
  Sc  Sc72  1  0.70610300  0.69969572  0.30019486  1
  Sc  Sc73  1  0.89684189  0.30641632  0.69970932  1
  Sc  Sc74  1  0.90585884  0.90044882  0.70343684  1
  Sc  Sc75  1  0.50109969  0.29926093  0.30016526  1
  Sc  Sc76  1  0.29233406  0.50633908  0.89558326  1
  Sc  Sc77  1  0.10089947  0.50913190  0.09601602  1
  Sc  Sc78  1  0.69558022  0.49487763  0.88780357  1
  Sc  Sc79  1  0.09604764  0.09813025  0.71301475  1
  Sc  Sc80  1  0.49468604  0.69909250  0.89866950  1
  Sc  Sc81  1  0.50476762  0.50445438  0.49983102  1
  Sc  Sc82  1  0.30739223  0.09110103  0.49992616  1
  Sc  Sc83  1  0.50299707  0.49902485  0.70319990  1
  Sc  Sc84  1  0.69944904  0.09757123  0.09814154  1
  Sc  Sc85  1  0.49720718  0.49295092  0.31235134  1
  Sc  Sc86  1  0.70966135  0.90495002  0.70657492  1
  Sc  Sc87  1  0.70321329  0.70248796  0.88955837  1
  Sc  Sc88  1  0.29445563  0.89823635  0.70754473  1
  Sc  Sc89  1  0.90652619  0.89433036  0.89587638  1
  Sc  Sc90  1  0.30720976  0.90383215  0.10545358  1
  Sc  Sc91  1  0.69901850  0.68370191  0.49272699  1
  Sc  Sc92  1  0.69606493  0.90386523  0.10603002  1
  Sc  Sc93  1  0.89890352  0.09026569  0.69192392  1
  Sc  Sc94  1  0.71103997  0.90900855  0.48933729  1
  Sc  Sc95  1  0.90339733  0.09525574  0.89723260  1
  Sc  Sc96  1  0.10349506  0.70093272  0.30165308  1
  Sc  Sc97  1  0.89650335  0.09739329  0.10649637  1
  Sc  Sc98  1  0.49226100  0.29876646  0.70049573  1
  Sc  Sc99  1  0.70474909  0.68638303  0.70248970  1
  Nb  Nb100  1  0.10080626  0.30285157  0.49981101  1
  Nb  Nb101  1  0.09955954  0.70449799  0.50305549  1
  Nb  Nb102  1  0.50096096  0.49871600  0.90778197  1
  Nb  Nb103  1  0.10108186  0.10593765  0.90252845  1
  Nb  Nb104  1  0.28534522  0.30684380  0.90370627  1
  Nb  Nb105  1  0.90187865  0.29840365  0.49820492  1
  Nb  Nb106  1  0.90388212  0.09589327  0.29503518  1
  Nb  Nb107  1  0.70353807  0.49438509  0.68760962  1
  Nb  Nb108  1  0.50260158  0.70234814  0.49667594  1
  Nb  Nb109  1  0.49940933  0.29912726  0.49767782  1
  Nb  Nb110  1  0.70499186  0.50019034  0.31067697  1
  Nb  Nb111  1  0.30385469  0.50105269  0.10830507  1
  Nb  Nb112  1  0.09979601  0.09786958  0.50054478  1
  Nb  Nb113  1  0.70060233  0.49314179  0.49040157  1
  Nb  Nb114  1  0.29987707  0.30258394  0.50279634  1
  Nb  Nb115  1  0.90088330  0.30069453  0.09454500  1
  Nb  Nb116  1  0.89666624  0.49664308  0.29765259  1
  Nb  Nb117  1  0.50210865  0.90038148  0.69541924  1
  Nb  Nb118  1  0.10653087  0.30447660  0.89869669  1
  Nb  Nb119  1  0.50522791  0.10470670  0.30414845  1
  Nb  Nb120  1  0.49861268  0.69617858  0.30982362  1
  Nb  Nb121  1  0.70121642  0.89666487  0.29609260  1
  Nb  Nb122  1  0.09335780  0.69291528  0.90211734  1
  Nb  Nb123  1  0.09499273  0.49958807  0.89943547  1
  Nb  Nb124  1  0.29511999  0.48620292  0.49356126  1
  Nb  Nb125  1  0.19221110  0.79967917  -0.00159437  1
  Nb  Nb126  1  0.80347625  0.79716297  -0.00012865  1
  Nb  Nb127  1  0.00596603  0.20401175  -0.00508490  1
  Nb  Nb128  1  0.00077044  0.39904502  0.59330510  1
  Nb  Nb129  1  0.59446851  0.80154346  0.78759767  1
  Nb  Nb130  1  0.40413879  0.60121976  0.20452172  1
  Nb  Nb131  1  0.00503707  0.20424281  0.59457688  1
  Nb  Nb132  1  0.40566362  0.79723062  0.59958544  1
  Nb  Nb133  1  0.59669398  0.80032375  0.40127194  1
  Nb  Nb134  1  0.60225885  0.80306652  0.59568832  1
  Nb  Nb135  1  -0.00617343  0.39738352  0.20121006  1
  Nb  Nb136  1  0.60829877  0.40385211  0.20455256  1
  Nb  Nb137  1  0.59798323  0.19918329  0.59755405  1
  Nb  Nb138  1  0.59662080  0.59622433  0.20486821  1
  Nb  Nb139  1  0.39374555  0.40147027  -0.00240871  1
  Nb  Nb140  1  -0.00191071  0.39593759  0.39834273  1
  Nb  Nb141  1  0.19674570  0.00732742  0.60001306  1
  Nb  Nb142  1  0.60406637  0.59734802  0.00303200  1
  Nb  Nb143  1  0.20183801  0.20151387  0.40826834  1
  Nb  Nb144  1  0.59931446  -0.00139124  0.60107070  1
  Nb  Nb145  1  0.79704770  0.60261706  0.00027087  1
  Nb  Nb146  1  0.79648451  0.79795140  0.59921135  1
  Nb  Nb147  1  0.79979218  0.20174429  0.80022552  1
  Nb  Nb148  1  0.39547132  0.20317548  0.40240393  1
  Nb  Nb149  1  0.19748540  0.20034961  0.59529496  1
  Pd  Pd150  1  0.40562710  0.79566165  0.19858292  1
  Pd  Pd151  1  0.79895898  0.60373315  0.59294723  1
  Pd  Pd152  1  0.79493394  0.79222530  0.40802813  1
  Pd  Pd153  1  0.39866624  -0.00404865  0.79922013  1
  Pd  Pd154  1  0.39684856  0.20983717  -0.00778512  1
  Pd  Pd155  1  0.80051239  0.39227617  0.20843005  1
  Pd  Pd156  1  0.19719606  -0.00932747  0.19421497  1
  Pd  Pd157  1  0.60174881  -0.00428273  0.40160767  1
  Pd  Pd158  1  0.79662662  0.39574972  0.80561433  1
  Pd  Pd159  1  -0.00586271  0.00971949  0.00083014  1
  Pd  Pd160  1  0.40134110  0.59218362  0.80147558  1
  Pd  Pd161  1  0.79946659  0.60649218  0.19739732  1
  Pd  Pd162  1  0.40461829  0.40728039  0.59672430  1
  Pd  Pd163  1  0.40441246  0.59481111  0.00585134  1
  Pd  Pd164  1  0.59541770  0.79378460  0.20982399  1
  Pd  Pd165  1  0.00368545  0.20017387  0.40384720  1
  Pd  Pd166  1  0.20255507  0.60549480  0.40138382  1
  Pd  Pd167  1  0.00013057  0.59465402  0.20463108  1
  Pd  Pd168  1  0.00482974  0.40982132  0.79033140  1
  Pd  Pd169  1  0.80516615  0.20162531  0.60582454  1
  Pd  Pd170  1  0.19723504  0.19911169  0.00163326  1
  Pd  Pd171  1  -0.00033823  0.59675163  0.60346937  1
  Pd  Pd172  1  0.59264756  0.39730979  0.59723682  1
  Pd  Pd173  1  0.20584055  0.80803448  0.59579599  1
  Pd  Pd174  1  0.19634465  0.39881883  0.60693177  1
  Pd  Pd175  1  0.79389437  0.40581036  -0.01041983  1
  Pd  Pd176  1  0.39451703  0.19646080  0.21435748  1
  Pd  Pd177  1  0.60591908  0.59685978  0.59721284  1
  Pd  Pd178  1  -0.00045692  0.80361917  0.21384221  1
  Pd  Pd179  1  0.39785904  0.40553529  0.80913575  1
  Pd  Pd180  1  -0.00024225  0.59756692  0.39391307  1
  Pd  Pd181  1  0.40341013  0.79875460  0.79203537  1
  Pd  Pd182  1  0.59853572  0.60220977  0.80473776  1
  Pd  Pd183  1  0.39056763  0.80123321  0.00177396  1
  Pd  Pd184  1  0.19182537  0.79284237  0.80712412  1
  Pd  Pd185  1  0.20788556  0.19856828  0.79417437  1
  Pd  Pd186  1  0.39392186  0.59549165  0.40357492  1
  Pd  Pd187  1  0.19799305  -0.00514970  0.00793723  1
  Pd  Pd188  1  0.39129519  0.20948377  0.81100234  1
  Pd  Pd189  1  0.59709172  0.40160416  0.00649059  1
  Pd  Pd190  1  0.60870972  0.79339333  -0.01016826  1
  Pd  Pd191  1  -0.00986229  0.19673477  0.79896542  1
  Pd  Pd192  1  0.19991740  0.60184497  -0.00388569  1
  Pd  Pd193  1  0.59525597  0.39649402  0.79671112  1
  Pd  Pd194  1  0.39309592  0.59636963  0.58896546  1
  Pd  Pd195  1  0.80314224  0.00343120  0.80684890  1
  Pd  Pd196  1  0.80917950  0.19453374  -0.00767541  1
  Pd  Pd197  1  0.80220289  -0.00660754  -0.00293987  1
  Pd  Pd198  1  0.19624419  0.80947101  0.19442903  1
  Pd  Pd199  1  0.20224940  0.41332133  0.00407211  1
  Rh  Rh200  1  -0.00682378  0.60355515  -0.00039919  1
  Rh  Rh201  1  0.00631589  0.60017307  0.79491542  1
  Rh  Rh202  1  0.19587420  0.60324573  0.80302932  1
  Rh  Rh203  1  0.59781122  0.19609956  0.00432508  1
  Rh  Rh204  1  -0.00164732  0.79399804  -0.00899700  1
  Rh  Rh205  1  0.40417675  0.39629782  0.40897854  1
  Rh  Rh206  1  0.80580913  0.40353486  0.59694710  1
  Rh  Rh207  1  0.19050103  0.40898852  0.19091806  1
  Rh  Rh208  1  0.40253941  0.79661290  0.40488621  1
  Rh  Rh209  1  0.40114186  0.00105684  -0.00055003  1
  Rh  Rh210  1  0.00732184  0.79728779  0.79965772  1
  Rh  Rh211  1  0.60189856  0.00405954  0.20376393  1
  Rh  Rh212  1  0.00092245  -0.00382541  0.39693185  1
  Rh  Rh213  1  0.41051492  0.40601572  0.19529232  1
  Rh  Rh214  1  0.20590602  0.59851848  0.20379823  1
  Rh  Rh215  1  0.79500747  0.80251323  0.79836045  1
  Rh  Rh216  1  0.79625279  -0.01080488  0.59873803  1
  Rh  Rh217  1  0.39178174  -0.01433125  0.60871175  1
  Rh  Rh218  1  0.40041735  0.20934806  0.59413124  1
  Rh  Rh219  1  0.80332938  0.80095460  0.19673464  1
  Rh  Rh220  1  0.80659511  0.39601654  0.39408318  1
  Rh  Rh221  1  0.19852850  0.00391653  0.40744124  1
  Rh  Rh222  1  0.59170804  0.20152731  0.40706375  1
  Rh  Rh223  1  0.80418399  0.60221775  0.39841482  1
  Rh  Rh224  1  0.59895015  0.00327349  0.00165558  1
  Rh  Rh225  1  0.40265272  0.00695848  0.20327165  1
  Rh  Rh226  1  0.19955522  0.40789265  0.80058172  1
  Rh  Rh227  1  0.60468927  0.20360603  0.19826542  1
  Rh  Rh228  1  0.19973261  0.00607247  0.79309349  1
  Rh  Rh229  1  0.80649570  0.19215994  0.39803871  1
  Rh  Rh230  1  -0.00635533  0.79561845  0.59967321  1
  Rh  Rh231  1  -0.00800653  0.20325948  0.18695913  1
  Rh  Rh232  1  0.00890857  0.00471777  0.60389932  1
  Rh  Rh233  1  0.20527933  0.60052607  0.59234868  1
  Rh  Rh234  1  0.80074288  0.19450136  0.19675449  1
  Rh  Rh235  1  0.00040122  0.00234028  0.79961333  1
  Rh  Rh236  1  0.39678122  0.01287161  0.38665896  1
  Rh  Rh237  1  0.59752738  -0.00769142  0.79827066  1
  Rh  Rh238  1  0.60639087  0.20679099  0.79327691  1
  Rh  Rh239  1  0.00503113  0.79731630  0.40078295  1
  Rh  Rh240  1  0.59974301  0.39880894  0.39817716  1
  Rh  Rh241  1  0.20872801  0.19826303  0.20553952  1
  Rh  Rh242  1  0.00984937  0.39709848  0.00417789  1
  Rh  Rh243  1  0.80177147  0.00597198  0.39154440  1
  Rh  Rh244  1  0.19472772  0.79675622  0.40559548  1
  Rh  Rh245  1  0.79659619  0.59184100  0.80514225  1
  Rh  Rh246  1  0.60230053  0.59999934  0.39372889  1
  Rh  Rh247  1  0.79603208  -0.00087118  0.20480891  1
  Rh  Rh248  1  0.19326930  0.39562016  0.40048576  1
  Rh  Rh249  1  -0.00210577  -0.00707783  0.20524500  1
