# generated using pymatgen
data_ZrScNbPdRh
_symmetry_space_group_name_H-M   'P 1'
_cell_length_a   16.56360101
_cell_length_b   16.56339702
_cell_length_c   16.55985871
_cell_angle_alpha   90.03953175
_cell_angle_beta   90.01234271
_cell_angle_gamma   90.01896912
_symmetry_Int_Tables_number   1
_chemical_formula_structural   ZrScNbPdRh
_chemical_formula_sum   'Zr50 Sc50 Nb50 Pd50 Rh50'
_cell_volume   4543.18751349
_cell_formula_units_Z   50
loop_
 _symmetry_equiv_pos_site_id
 _symmetry_equiv_pos_as_xyz
  1  'x, y, z'
loop_
 _atom_site_type_symbol
 _atom_site_label
 _atom_site_symmetry_multiplicity
 _atom_site_fract_x
 _atom_site_fract_y
 _atom_site_fract_z
 _atom_site_occupancy
  Zr  Zr0  1  0.50414548  0.30114772  0.30513532  1
  Zr  Zr1  1  0.89950343  0.10062008  0.70065590  1
  Zr  Zr2  1  0.10878714  0.10412922  0.89931847  1
  Zr  Zr3  1  0.10196417  0.30705018  0.90374036  1
  Zr  Zr4  1  0.90077926  0.70265306  0.09532483  1
  Zr  Zr5  1  0.89479422  0.30281375  0.29707289  1
  Zr  Zr6  1  0.50442409  0.29126061  0.50188737  1
  Zr  Zr7  1  0.30638354  0.50749566  0.70463401  1
  Zr  Zr8  1  0.68935000  0.09450548  0.50448413  1
  Zr  Zr9  1  0.50972951  0.89809173  0.49655624  1
  Zr  Zr10  1  0.30801189  0.89330111  0.90846369  1
  Zr  Zr11  1  0.90306980  0.90655002  0.69808194  1
  Zr  Zr12  1  0.09292050  0.49270555  0.50227917  1
  Zr  Zr13  1  0.69255495  0.89854556  0.69617148  1
  Zr  Zr14  1  0.69453048  0.69349715  0.69706364  1
  Zr  Zr15  1  0.30752609  0.89503311  0.29614230  1
  Zr  Zr16  1  0.69320759  0.49972896  0.30152406  1
  Zr  Zr17  1  0.30328723  0.50510590  0.29856279  1
  Zr  Zr18  1  0.90542977  0.89845453  0.49682987  1
  Zr  Zr19  1  0.09818092  0.89890304  0.29048869  1
  Zr  Zr20  1  0.69680316  0.50282754  0.89353263  1
  Zr  Zr21  1  0.70677386  0.30108458  0.10087277  1
  Zr  Zr22  1  0.50307112  0.10009173  0.90725435  1
  Zr  Zr23  1  0.30404386  0.69912949  0.30243802  1
  Zr  Zr24  1  0.30488135  0.10411663  0.09112253  1
  Zr  Zr25  1  0.09781502  0.30573069  0.09374300  1
  Zr  Zr26  1  0.69425608  0.10105646  0.90996509  1
  Zr  Zr27  1  0.89750775  0.49715407  0.10201939  1
  Zr  Zr28  1  0.70286746  0.09898210  0.29156577  1
  Zr  Zr29  1  0.49094431  0.10978945  0.70300555  1
  Zr  Zr30  1  0.30152283  0.10573323  0.89725489  1
  Zr  Zr31  1  0.49793200  0.49365996  0.29598701  1
  Zr  Zr32  1  0.90346321  0.09751758  0.49749777  1
  Zr  Zr33  1  0.30148284  0.30180528  0.09393844  1
  Zr  Zr34  1  0.50805703  0.69790836  0.09700922  1
  Zr  Zr35  1  0.69174898  0.90767005  0.89972970  1
  Zr  Zr36  1  0.30771772  0.90383130  0.49346354  1
  Zr  Zr37  1  0.10084685  0.50142571  0.89740145  1
  Zr  Zr38  1  0.90235519  0.89876648  0.30446614  1
  Zr  Zr39  1  0.89311994  0.49605076  0.69791695  1
  Zr  Zr40  1  0.70214417  0.49926979  0.70053774  1
  Zr  Zr41  1  0.30245280  0.29192783  0.49501411  1
  Zr  Zr42  1  0.10176122  0.69449380  0.70646066  1
  Zr  Zr43  1  0.49438386  0.29903362  0.10729727  1
  Zr  Zr44  1  0.09970875  0.29593783  0.49157044  1
  Zr  Zr45  1  0.30086835  0.09911898  0.50507836  1
  Zr  Zr46  1  0.69909920  0.29671507  0.89666206  1
  Zr  Zr47  1  0.69962729  0.10185000  0.09737287  1
  Zr  Zr48  1  0.89579758  0.49843661  0.30151508  1
  Zr  Zr49  1  0.09280389  0.50559989  0.29747308  1
  Sc  Sc50  1  0.10162575  0.90881843  0.69399638  1
  Sc  Sc51  1  0.69833943  0.30386433  0.29964652  1
  Sc  Sc52  1  0.50056145  0.10069105  0.49544054  1
  Sc  Sc53  1  0.89262098  0.30476362  0.09861356  1
  Sc  Sc54  1  0.91094725  0.30841093  0.50096655  1
  Sc  Sc55  1  0.09043558  0.70016486  0.49284413  1
  Sc  Sc56  1  0.30027423  0.09385567  0.31046526  1
  Sc  Sc57  1  0.88336848  0.09607795  0.89936378  1
  Sc  Sc58  1  0.50365574  0.87805147  0.70752215  1
  Sc  Sc59  1  0.10677424  0.90111461  0.90267688  1
  Sc  Sc60  1  0.10286377  0.09771928  0.69874438  1
  Sc  Sc61  1  0.29967977  0.70455392  0.10312899  1
  Sc  Sc62  1  0.69237774  0.69616013  0.49580845  1
  Sc  Sc63  1  0.50513446  0.70602057  0.30141872  1
  Sc  Sc64  1  0.09790604  0.09431218  0.30556199  1
  Sc  Sc65  1  0.49871394  0.69713875  0.50074649  1
  Sc  Sc66  1  0.10511791  0.08784644  0.10530054  1
  Sc  Sc67  1  0.90068441  0.50382852  0.89634739  1
  Sc  Sc68  1  0.90984759  0.89255228  0.10318722  1
  Sc  Sc69  1  0.50244603  0.50543850  0.49493535  1
  Sc  Sc70  1  0.31350283  0.30297927  0.30060691  1
  Sc  Sc71  1  0.10722700  0.10157160  0.49753998  1
  Sc  Sc72  1  0.88850606  0.30397427  0.90483989  1
  Sc  Sc73  1  0.50829185  0.30164051  0.70224899  1
  Sc  Sc74  1  0.30314896  0.69248868  0.90396200  1
  Sc  Sc75  1  0.09168665  0.50740954  0.09747814  1
  Sc  Sc76  1  0.09916921  0.49801055  0.71212880  1
  Sc  Sc77  1  0.50063559  0.89424489  0.29983998  1
  Sc  Sc78  1  0.89889715  0.69939397  0.90525076  1
  Sc  Sc79  1  0.89551457  0.69272273  0.70240086  1
  Sc  Sc80  1  0.69494595  0.89863117  0.30626872  1
  Sc  Sc81  1  0.49961024  0.29739950  0.89655252  1
  Sc  Sc82  1  0.89563050  0.50174838  0.49480241  1
  Sc  Sc83  1  0.50699240  0.50336055  0.70370808  1
  Sc  Sc84  1  0.10116818  0.69288791  0.90516808  1
  Sc  Sc85  1  0.69985787  0.69727875  0.90675684  1
  Sc  Sc86  1  0.09150449  0.30783119  0.69472786  1
  Sc  Sc87  1  0.69943783  0.50643922  0.50591693  1
  Sc  Sc88  1  0.31217132  0.51017840  0.48975505  1
  Sc  Sc89  1  0.89958414  0.70144254  0.49587849  1
  Sc  Sc90  1  0.89989359  0.08820613  0.29703152  1
  Sc  Sc91  1  0.09949541  0.69707551  0.29220117  1
  Sc  Sc92  1  0.90731189  0.69615952  0.30587734  1
  Sc  Sc93  1  0.29762233  0.29906521  0.90038626  1
  Sc  Sc94  1  0.29274368  0.10554480  0.70076308  1
  Sc  Sc95  1  0.69107170  0.89991026  0.09934486  1
  Sc  Sc96  1  0.49562435  0.50889196  0.90094358  1
  Sc  Sc97  1  0.29877046  0.50092569  0.90131037  1
  Sc  Sc98  1  0.31699516  0.50760647  0.09811979  1
  Sc  Sc99  1  0.69846456  0.09913473  0.70784097  1
  Nb  Nb100  1  0.68708186  0.50923402  0.09997382  1
  Nb  Nb101  1  0.69162675  0.28779195  0.50538945  1
  Nb  Nb102  1  0.49606729  0.71694872  0.89634635  1
  Nb  Nb103  1  0.30872411  0.70355989  0.69310894  1
  Nb  Nb104  1  0.10321286  0.89045502  0.10390248  1
  Nb  Nb105  1  0.69333660  0.70211744  0.29396863  1
  Nb  Nb106  1  0.49997163  0.89325971  0.90317128  1
  Nb  Nb107  1  0.50755170  0.50051751  0.10051538  1
  Nb  Nb108  1  0.90125880  0.89624354  0.90095180  1
  Nb  Nb109  1  0.49585557  0.69803927  0.69983463  1
  Nb  Nb110  1  0.89075935  0.29886250  0.70201802  1
  Nb  Nb111  1  0.69934790  0.89615898  0.50567885  1
  Nb  Nb112  1  0.10171043  0.29962643  0.29925953  1
  Nb  Nb113  1  0.89871948  0.10104031  0.10215544  1
  Nb  Nb114  1  0.29810082  0.89797048  0.10428319  1
  Nb  Nb115  1  0.69784305  0.69498456  0.10472637  1
  Nb  Nb116  1  0.49244542  0.89499428  0.09268133  1
  Nb  Nb117  1  0.30295902  0.69814463  0.49965391  1
  Nb  Nb118  1  0.70485122  0.30706341  0.69867476  1
  Nb  Nb119  1  0.09242530  0.71475739  0.10295077  1
  Nb  Nb120  1  0.31043180  0.30003398  0.69512883  1
  Nb  Nb121  1  0.10140637  0.89415004  0.49899493  1
  Nb  Nb122  1  0.50271157  0.10280355  0.10197085  1
  Nb  Nb123  1  0.30287390  0.89740903  0.69733660  1
  Nb  Nb124  1  0.50431289  0.09880242  0.29083389  1
  Nb  Nb125  1  0.20234792  0.60249856  0.59862604  1
  Nb  Nb126  1  0.79400833  0.79119064  0.20121353  1
  Nb  Nb127  1  0.20505894  0.79678116  0.59650102  1
  Nb  Nb128  1  0.39778114  0.39818763  0.59946896  1
  Nb  Nb129  1  0.40012395  -0.00550769  0.60820489  1
  Nb  Nb130  1  -0.00498453  0.20127651  0.80471680  1
  Nb  Nb131  1  0.20026772  0.40119236  0.39650293  1
  Nb  Nb132  1  0.79584882  0.19941120  0.40767647  1
  Nb  Nb133  1  -0.00165665  -0.00044886  0.00073266  1
  Nb  Nb134  1  0.20243114  0.79928194  0.40352417  1
  Nb  Nb135  1  0.21076480  0.40384674  0.59585892  1
  Nb  Nb136  1  0.00247727  0.59610928  0.60354780  1
  Nb  Nb137  1  0.20579208  0.79797339  0.79164342  1
  Nb  Nb138  1  0.40037833  -0.00857456  0.80032570  1
  Nb  Nb139  1  0.79677599  0.80423625  0.60037489  1
  Nb  Nb140  1  0.40461333  0.00008899  0.18999968  1
  Nb  Nb141  1  0.79231574  0.60338957  0.19795998  1
  Nb  Nb142  1  0.20132185  0.40059668  0.20336190  1
  Nb  Nb143  1  -0.00041387  0.80473671  0.80163455  1
  Nb  Nb144  1  0.80100887  0.80657831  0.79918981  1
  Nb  Nb145  1  0.79759154  0.20468644  0.59896057  1
  Nb  Nb146  1  0.19721712  0.20633258  0.20230275  1
  Nb  Nb147  1  -0.00307363  0.19196792  0.00062461  1
  Nb  Nb148  1  0.00176714  0.19948515  0.19546390  1
  Nb  Nb149  1  0.59928072  0.40473851  0.00440219  1
  Pd  Pd150  1  0.40379919  0.39841413  0.79871176  1
  Pd  Pd151  1  0.79429349  0.60688950  0.39534185  1
  Pd  Pd152  1  0.00227934  0.00252941  0.81045112  1
  Pd  Pd153  1  0.19322425  0.21370294  0.78876943  1
  Pd  Pd154  1  0.40499275  0.19129634  0.39407392  1
  Pd  Pd155  1  -0.00172817  0.20007794  0.60616216  1
  Pd  Pd156  1  0.79277560  0.80627507  0.00134279  1
  Pd  Pd157  1  0.40384487  -0.00002517  -0.00024140  1
  Pd  Pd158  1  0.79887234  0.39475860  0.58855053  1
  Pd  Pd159  1  0.60521938  0.79776030  -0.00104907  1
  Pd  Pd160  1  0.40806562  0.40046799  -0.00612805  1
  Pd  Pd161  1  0.80185241  -0.01513323  0.19322476  1
  Pd  Pd162  1  0.39104911  0.19146301  0.20783689  1
  Pd  Pd163  1  0.79900514  0.59434339  0.00283073  1
  Pd  Pd164  1  -0.00925998  0.19645273  0.38851451  1
  Pd  Pd165  1  0.60515659  0.40166414  0.41189710  1
  Pd  Pd166  1  0.79540933  -0.00392407  0.80048587  1
  Pd  Pd167  1  0.79056722  0.39097507  0.41081008  1
  Pd  Pd168  1  0.79284147  0.79466980  0.40050089  1
  Pd  Pd169  1  0.59315674  0.40502416  0.59725808  1
  Pd  Pd170  1  0.58653794  -0.00235933  0.79462074  1
  Pd  Pd171  1  0.79123012  0.41067211  -0.00271559  1
  Pd  Pd172  1  0.19808644  0.59860166  0.18878068  1
  Pd  Pd173  1  0.19748029  -0.00420354  0.00321720  1
  Pd  Pd174  1  0.20473588  0.41694494  0.01005605  1
  Pd  Pd175  1  -0.00069004  0.60081254  -0.00002787  1
  Pd  Pd176  1  0.80670406  -0.01008130  0.01037541  1
  Pd  Pd177  1  0.59320667  0.60862242  0.80505199  1
  Pd  Pd178  1  0.79381809  0.00269564  0.40333800  1
  Pd  Pd179  1  0.00233081  0.39587724  0.20087797  1
  Pd  Pd180  1  0.19360024  0.60130379  0.40627939  1
  Pd  Pd181  1  0.19461063  -0.00775754  0.40000929  1
  Pd  Pd182  1  0.20914808  -0.00846939  0.79897835  1
  Pd  Pd183  1  -0.00205419  0.79079886  0.60825055  1
  Pd  Pd184  1  0.60382293  0.20194356  0.79685927  1
  Pd  Pd185  1  0.00971227  0.00595539  0.59229925  1
  Pd  Pd186  1  0.20654787  0.39510310  0.79218731  1
  Pd  Pd187  1  0.40449833  0.80379404  0.59199333  1
  Pd  Pd188  1  0.20022173  0.60025489  0.01047265  1
  Pd  Pd189  1  0.60465851  0.20684739  0.19972369  1
  Pd  Pd190  1  0.21027214  0.00592035  0.20059701  1
  Pd  Pd191  1  0.59262104  -0.00914667  0.19577644  1
  Pd  Pd192  1  0.58566130  0.00038600  0.61182495  1
  Pd  Pd193  1  -0.01058434  0.39282734  0.80510429  1
  Pd  Pd194  1  0.79847990  0.00113606  0.59708012  1
  Pd  Pd195  1  0.41008136  0.60794832  0.20137589  1
  Pd  Pd196  1  0.59901843  0.00136922  0.39415666  1
  Pd  Pd197  1  0.19983559  0.79406094  -0.00502317  1
  Pd  Pd198  1  0.19480740  0.20815558  0.60741564  1
  Pd  Pd199  1  0.40257143  0.60612757  0.80447887  1
  Rh  Rh200  1  -0.00684099  0.60505628  0.79984626  1
  Rh  Rh201  1  0.60212864  0.79008062  0.59557773  1
  Rh  Rh202  1  0.60936345  0.79218158  0.80624623  1
  Rh  Rh203  1  0.60467611  0.19711734  0.61215918  1
  Rh  Rh204  1  0.60105904  0.39929447  0.80651231  1
  Rh  Rh205  1  0.59151512  -0.00082155  0.00689617  1
  Rh  Rh206  1  0.60078168  0.80443786  0.19700242  1
  Rh  Rh207  1  0.00757325  -0.00338745  0.40430141  1
  Rh  Rh208  1  -0.00335870  0.40609517  0.60617596  1
  Rh  Rh209  1  0.59235513  0.60179442  -0.00895143  1
  Rh  Rh210  1  0.41092004  0.60600010  0.39242308  1
  Rh  Rh211  1  0.40722211  0.60736864  0.00074800  1
  Rh  Rh212  1  0.41326033  0.00249314  0.39364609  1
  Rh  Rh213  1  0.00046195  0.59632415  0.40635640  1
  Rh  Rh214  1  -0.00888292  0.60735565  0.19428696  1
  Rh  Rh215  1  0.80029405  0.60594596  0.80304600  1
  Rh  Rh216  1  0.39677432  0.40307662  0.19787649  1
  Rh  Rh217  1  0.79847136  0.20053304  0.79492179  1
  Rh  Rh218  1  0.60323786  0.79811105  0.40287699  1
  Rh  Rh219  1  0.39710024  0.20036559  0.80446600  1
  Rh  Rh220  1  0.20294787  0.20421066  0.39004240  1
  Rh  Rh221  1  -0.00823516  0.79548245  0.20625457  1
  Rh  Rh222  1  0.79877724  0.40211052  0.80384474  1
  Rh  Rh223  1  0.19232493  0.19758945  0.00892662  1
  Rh  Rh224  1  0.59662722  0.21086704  0.00720982  1
  Rh  Rh225  1  0.00191159  0.40240067  0.39218323  1
  Rh  Rh226  1  0.20464592  -0.00511558  0.59580252  1
  Rh  Rh227  1  0.00974117  0.80175410  0.39296550  1
  Rh  Rh228  1  0.80374755  0.19771007  0.00246103  1
  Rh  Rh229  1  0.39408067  0.79932494  0.80136041  1
  Rh  Rh230  1  0.21035135  0.60612088  0.79739532  1
  Rh  Rh231  1  0.60266991  0.39563531  0.19290225  1
  Rh  Rh232  1  0.60536453  0.19285012  0.38792875  1
  Rh  Rh233  1  0.40275571  0.59345240  0.60054130  1
  Rh  Rh234  1  0.59665023  0.59992667  0.20794802  1
  Rh  Rh235  1  0.01069019  0.80633710  -0.00924022  1
  Rh  Rh236  1  0.20201464  0.79565454  0.20572347  1
  Rh  Rh237  1  0.59323191  0.59967802  0.60187799  1
  Rh  Rh238  1  0.40473810  0.80148006  0.19350272  1
  Rh  Rh239  1  0.79033065  0.41299510  0.19752572  1
  Rh  Rh240  1  0.40629788  0.20506579  -0.00523385  1
  Rh  Rh241  1  0.40249302  0.19979753  0.59961862  1
  Rh  Rh242  1  -0.00070083  0.00185221  0.19142347  1
  Rh  Rh243  1  0.59717170  0.60006325  0.39539209  1
  Rh  Rh244  1  0.39785210  0.79199362  0.00763852  1
  Rh  Rh245  1  0.39964878  0.39875576  0.40912617  1
  Rh  Rh246  1  0.80767643  0.19625568  0.20784555  1
  Rh  Rh247  1  -0.00514655  0.39975364  -0.00662058  1
  Rh  Rh248  1  0.80658628  0.60821331  0.59421156  1
  Rh  Rh249  1  0.40033708  0.79566966  0.40399326  1
