# generated using pymatgen
data_ZrScNbPdRh
_symmetry_space_group_name_H-M   'P 1'
_cell_length_a   16.56104898
_cell_length_b   16.55933787
_cell_length_c   16.56672604
_cell_angle_alpha   90.02264404
_cell_angle_beta   90.01499751
_cell_angle_gamma   90.01074835
_symmetry_Int_Tables_number   1
_chemical_formula_structural   ZrScNbPdRh
_chemical_formula_sum   'Zr50 Sc50 Nb50 Pd50 Rh50'
_cell_volume   4543.25844942
_cell_formula_units_Z   50
loop_
 _symmetry_equiv_pos_site_id
 _symmetry_equiv_pos_as_xyz
  1  'x, y, z'
loop_
 _atom_site_type_symbol
 _atom_site_label
 _atom_site_symmetry_multiplicity
 _atom_site_fract_x
 _atom_site_fract_y
 _atom_site_fract_z
 _atom_site_occupancy
  Zr  Zr0  1  0.29637021  0.70745676  0.10097935  1
  Zr  Zr1  1  0.90269923  0.69708074  0.70055142  1
  Zr  Zr2  1  0.49886659  0.30082647  0.09798097  1
  Zr  Zr3  1  0.49713593  0.29609379  0.29819516  1
  Zr  Zr4  1  0.30632220  0.29606540  0.09890423  1
  Zr  Zr5  1  0.90151496  0.50148941  0.51146755  1
  Zr  Zr6  1  0.49403991  0.90143484  0.09658145  1
  Zr  Zr7  1  0.90069764  0.69834214  0.09409345  1
  Zr  Zr8  1  0.29534584  0.49621211  0.29376050  1
  Zr  Zr9  1  0.49842557  0.50818849  0.29632768  1
  Zr  Zr10  1  0.90581424  0.10711025  0.30108993  1
  Zr  Zr11  1  0.09753432  0.89304965  0.29754324  1
  Zr  Zr12  1  0.50173413  0.09992866  0.69580717  1
  Zr  Zr13  1  0.29453040  0.09906233  0.48884495  1
  Zr  Zr14  1  0.29037142  0.30349547  0.90608206  1
  Zr  Zr15  1  0.90621391  0.30778235  0.69071220  1
  Zr  Zr16  1  0.10097727  0.70288293  0.11073075  1
  Zr  Zr17  1  0.69506122  0.70600222  0.50509022  1
  Zr  Zr18  1  0.90373327  0.89433707  0.10418406  1
  Zr  Zr19  1  0.10299903  0.49004884  0.90269389  1
  Zr  Zr20  1  0.30031872  0.49374959  0.89564793  1
  Zr  Zr21  1  0.30079960  0.50460221  0.50287069  1
  Zr  Zr22  1  0.90468046  0.29998129  0.49608835  1
  Zr  Zr23  1  0.50110398  0.49434285  0.90464667  1
  Zr  Zr24  1  0.69652001  0.30571764  0.90337563  1
  Zr  Zr25  1  0.10802845  0.49632437  0.50501473  1
  Zr  Zr26  1  0.69489580  0.70399861  0.29901645  1
  Zr  Zr27  1  0.69156128  0.50191410  0.30071466  1
  Zr  Zr28  1  0.09119918  0.10291249  0.09126631  1
  Zr  Zr29  1  0.30287661  0.89867122  0.10043385  1
  Zr  Zr30  1  0.31055595  0.10006366  0.30212562  1
  Zr  Zr31  1  0.70131714  0.30337844  0.30599040  1
  Zr  Zr32  1  0.70381686  0.50216342  0.50034326  1
  Zr  Zr33  1  0.50738244  0.69539532  0.89213658  1
  Zr  Zr34  1  0.09769985  0.09607434  0.30607618  1
  Zr  Zr35  1  0.69919666  0.89871340  0.10303635  1
  Zr  Zr36  1  0.90479638  0.29777303  0.29330833  1
  Zr  Zr37  1  0.28422481  0.29891403  0.50119961  1
  Zr  Zr38  1  0.28895316  0.70297432  0.89744861  1
  Zr  Zr39  1  0.69876826  0.50895432  0.90481666  1
  Zr  Zr40  1  0.09869099  0.70334267  0.50105612  1
  Zr  Zr41  1  0.09737237  0.90014797  0.49076144  1
  Zr  Zr42  1  0.69857885  0.10435009  0.09968411  1
  Zr  Zr43  1  0.70566649  0.89566216  0.31225597  1
  Zr  Zr44  1  0.70333633  0.69754763  0.09519547  1
  Zr  Zr45  1  0.90161387  0.70778781  0.51150772  1
  Zr  Zr46  1  0.69663787  0.09293435  0.30456008  1
  Zr  Zr47  1  0.49415040  0.70244725  0.11046165  1
  Zr  Zr48  1  0.90273508  0.49182885  0.09656456  1
  Zr  Zr49  1  0.89852080  0.90487672  0.30815690  1
  Sc  Sc50  1  0.50328173  0.49885820  0.10458084  1
  Sc  Sc51  1  0.49667165  0.90443013  0.89443198  1
  Sc  Sc52  1  0.30542085  0.70259566  0.29211451  1
  Sc  Sc53  1  0.09803812  0.09922408  0.69806046  1
  Sc  Sc54  1  0.09861828  0.50094418  0.70430311  1
  Sc  Sc55  1  0.49728208  0.09696010  0.89198679  1
  Sc  Sc56  1  0.50349056  0.70333911  0.69623886  1
  Sc  Sc57  1  0.51076326  0.28924117  0.49566529  1
  Sc  Sc58  1  0.49358440  0.49804892  0.70808873  1
  Sc  Sc59  1  0.29166745  0.10132512  0.90038028  1
  Sc  Sc60  1  0.30323571  0.90106845  0.30872710  1
  Sc  Sc61  1  0.50161797  0.10203599  0.30012700  1
  Sc  Sc62  1  0.90400686  0.50812491  0.69946268  1
  Sc  Sc63  1  0.89941201  0.71114501  0.29283400  1
  Sc  Sc64  1  0.29809890  0.90041964  0.71148445  1
  Sc  Sc65  1  0.09680621  0.70100215  0.89597319  1
  Sc  Sc66  1  0.10442253  0.30261488  0.69231510  1
  Sc  Sc67  1  0.29971399  0.69659070  0.70243118  1
  Sc  Sc68  1  0.10054222  0.30098052  0.29536429  1
  Sc  Sc69  1  0.90078434  0.89850543  0.69061272  1
  Sc  Sc70  1  0.69846838  0.09779260  0.69838684  1
  Sc  Sc71  1  0.49162392  0.30537793  0.89816771  1
  Sc  Sc72  1  0.89428133  0.69480931  0.89703612  1
  Sc  Sc73  1  0.49671632  0.88019164  0.50045415  1
  Sc  Sc74  1  0.50376107  0.10393431  0.48957243  1
  Sc  Sc75  1  0.90200007  0.09043232  0.69439221  1
  Sc  Sc76  1  0.49211242  0.89488429  0.70226962  1
  Sc  Sc77  1  0.29611078  0.09793935  0.70836076  1
  Sc  Sc78  1  0.50438860  0.51075500  0.49514515  1
  Sc  Sc79  1  0.90471681  0.50393193  0.89941711  1
  Sc  Sc80  1  0.10135757  0.89501752  0.09423599  1
  Sc  Sc81  1  0.29632174  0.30231361  0.70576687  1
  Sc  Sc82  1  0.69756846  0.09381016  0.89490860  1
  Sc  Sc83  1  0.49368207  0.09626182  0.10612048  1
  Sc  Sc84  1  0.50555490  0.29427051  0.70623930  1
  Sc  Sc85  1  0.29292736  0.49927840  0.70270145  1
  Sc  Sc86  1  0.90092980  0.89596817  0.89400066  1
  Sc  Sc87  1  0.69794411  0.10051026  0.49603530  1
  Sc  Sc88  1  0.09583295  0.90313910  0.70528258  1
  Sc  Sc89  1  0.09840182  0.69988005  0.70317843  1
  Sc  Sc90  1  0.90223926  0.10527810  0.91222563  1
  Sc  Sc91  1  0.10423642  0.90431888  0.89671796  1
  Sc  Sc92  1  0.29498278  0.90131765  0.90072953  1
  Sc  Sc93  1  0.49570584  0.69840810  0.50041395  1
  Sc  Sc94  1  0.09789506  0.30174658  0.09355276  1
  Sc  Sc95  1  0.30206418  0.49146846  0.10433990  1
  Sc  Sc96  1  0.50105049  0.89311190  0.30006742  1
  Sc  Sc97  1  0.89754852  0.30644595  0.91452497  1
  Sc  Sc98  1  0.71285068  0.90195361  0.70066760  1
  Sc  Sc99  1  0.90267147  0.49240998  0.29206847  1
  Nb  Nb100  1  0.71057120  0.30397523  0.09243778  1
  Nb  Nb101  1  0.71037981  0.90025139  0.50090793  1
  Nb  Nb102  1  0.09677522  0.29467549  0.50664403  1
  Nb  Nb103  1  0.50161570  0.69680214  0.30200711  1
  Nb  Nb104  1  0.70015572  0.49695146  0.09840047  1
  Nb  Nb105  1  0.10038154  0.50435666  0.10933654  1
  Nb  Nb106  1  0.89079980  0.28861985  0.10079636  1
  Nb  Nb107  1  0.09784293  0.10966298  0.90130926  1
  Nb  Nb108  1  0.09870176  0.50307413  0.29198745  1
  Nb  Nb109  1  0.30501096  0.29904346  0.29754876  1
  Nb  Nb110  1  0.89628648  0.10616391  0.10171852  1
  Nb  Nb111  1  0.10376819  0.69647961  0.29826706  1
  Nb  Nb112  1  0.70029381  0.29695566  0.69724281  1
  Nb  Nb113  1  0.70939693  0.49899836  0.69526128  1
  Nb  Nb114  1  0.70355270  0.30288778  0.50494263  1
  Nb  Nb115  1  0.09981332  0.11198724  0.50250066  1
  Nb  Nb116  1  0.30143852  0.89713960  0.49929241  1
  Nb  Nb117  1  0.30318447  0.70561015  0.50176226  1
  Nb  Nb118  1  0.70738998  0.69002187  0.70861647  1
  Nb  Nb119  1  0.90586757  0.10416640  0.50189716  1
  Nb  Nb120  1  0.69938451  0.70021145  0.89677085  1
  Nb  Nb121  1  0.29915731  0.09721678  0.10416203  1
  Nb  Nb122  1  0.10255913  0.29266991  0.90279703  1
  Nb  Nb123  1  0.88541835  0.90354853  0.50477410  1
  Nb  Nb124  1  0.70027159  0.89907528  0.90243640  1
  Nb  Nb125  1  0.60145696  0.20315032  0.00188767  1
  Nb  Nb126  1  -0.00021854  0.20456880  0.80521568  1
  Nb  Nb127  1  0.20115338  0.00466954  0.19913126  1
  Nb  Nb128  1  0.39520103  0.60216512  -0.00143861  1
  Nb  Nb129  1  0.20403780  0.80601207  0.59484270  1
  Nb  Nb130  1  0.80394672  0.00403318  0.19784855  1
  Nb  Nb131  1  0.79559063  0.39906046  0.79503584  1
  Nb  Nb132  1  0.80104392  0.20357180  0.59920178  1
  Nb  Nb133  1  0.39659095  0.19808199  0.59728106  1
  Nb  Nb134  1  0.20300788  -0.00200523  0.59031465  1
  Nb  Nb135  1  0.39612538  0.39751971  0.40184651  1
  Nb  Nb136  1  0.00286913  0.59791353  0.39547189  1
  Nb  Nb137  1  0.20522985  0.19367516  0.19766212  1
  Nb  Nb138  1  0.80566045  0.60213319  0.39719048  1
  Nb  Nb139  1  0.39723400  0.00117273  0.59511425  1
  Nb  Nb140  1  0.60449552  0.79853340  -0.00794437  1
  Nb  Nb141  1  0.80472011  0.20781405  0.79538423  1
  Nb  Nb142  1  0.59730098  -0.00656293  0.59506657  1
  Nb  Nb143  1  0.19599192  0.60259436  0.39443109  1
  Nb  Nb144  1  0.00842510  0.40436857  0.40168923  1
  Nb  Nb145  1  0.40478913  0.39313373  0.59356840  1
  Nb  Nb146  1  0.79558913  0.59648248  0.19779127  1
  Nb  Nb147  1  0.19915692  0.59591304  0.00621810  1
  Nb  Nb148  1  0.60460605  0.39823400  0.60226075  1
  Nb  Nb149  1  0.80001971  -0.00194689  0.00619082  1
  Pd  Pd150  1  0.60129725  0.59212395  0.79034829  1
  Pd  Pd151  1  0.41282291  -0.00782788  0.40527079  1
  Pd  Pd152  1  0.60121464  0.39481447  0.19563290  1
  Pd  Pd153  1  0.19492640  0.20512376  0.38949096  1
  Pd  Pd154  1  0.60428814  0.19888663  0.80819495  1
  Pd  Pd155  1  0.60048651  -0.00508427  0.20391398  1
  Pd  Pd156  1  0.59971507  -0.00976063  0.78900467  1
  Pd  Pd157  1  -0.00647353  -0.00500864  -0.00502379  1
  Pd  Pd158  1  0.40345986  0.59574603  0.60632442  1
  Pd  Pd159  1  -0.00886688  0.79563570  0.40008842  1
  Pd  Pd160  1  0.79226166  0.19692810  0.20680342  1
  Pd  Pd161  1  0.60325811  0.20580442  0.19649841  1
  Pd  Pd162  1  -0.00364467  0.00944988  0.80758790  1
  Pd  Pd163  1  0.59235706  -0.01281991  0.40943468  1
  Pd  Pd164  1  -0.01130351  0.60340891  0.20403035  1
  Pd  Pd165  1  0.79771603  0.40281478  0.19945202  1
  Pd  Pd166  1  0.39506580  0.00620035  -0.00818140  1
  Pd  Pd167  1  0.81000487  0.40704443  0.39884282  1
  Pd  Pd168  1  0.19832955  0.60929122  0.60103803  1
  Pd  Pd169  1  0.60061559  0.00189683  -0.00290060  1
  Pd  Pd170  1  0.00126463  -0.00025098  0.19570656  1
  Pd  Pd171  1  0.80109854  0.79865940  0.79648561  1
  Pd  Pd172  1  -0.00496874  0.00228431  0.40988233  1
  Pd  Pd173  1  -0.00339601  0.39461232  0.80289559  1
  Pd  Pd174  1  0.79933242  0.80312681  -0.00675280  1
  Pd  Pd175  1  0.19541550  0.38938257  0.19358600  1
  Pd  Pd176  1  0.39541887  0.20281063  0.79744716  1
  Pd  Pd177  1  0.00764564  -0.00285956  0.59198801  1
  Pd  Pd178  1  0.20002055  0.00119609  0.00197947  1
  Pd  Pd179  1  0.00158016  0.39585159  0.00539427  1
  Pd  Pd180  1  0.19706445  0.40191506  0.39538665  1
  Pd  Pd181  1  0.20840211  0.79331994  0.39723468  1
  Pd  Pd182  1  0.80920301  0.00754988  0.80784647  1
  Pd  Pd183  1  0.40851989  0.79439498  -0.01193258  1
  Pd  Pd184  1  0.59824275  0.80276065  0.19694239  1
  Pd  Pd185  1  0.60689699  0.80755508  0.79662872  1
  Pd  Pd186  1  -0.00096995  0.79985019  0.79930571  1
  Pd  Pd187  1  0.39665625  0.79642105  0.80243609  1
  Pd  Pd188  1  0.00916646  0.60141593  -0.00276645  1
  Pd  Pd189  1  0.59131643  0.40030019  0.40735749  1
  Pd  Pd190  1  0.79781096  0.19646736  0.40635885  1
  Pd  Pd191  1  0.39777947  0.60185685  0.80134312  1
  Pd  Pd192  1  0.60854441  0.80686436  0.61085450  1
  Pd  Pd193  1  0.19233819  0.20061075  0.79329704  1
  Pd  Pd194  1  0.59657767  0.59342115  0.60845091  1
  Pd  Pd195  1  0.00401667  0.79862547  -0.00794635  1
  Pd  Pd196  1  0.60464014  0.40618732  0.79237068  1
  Pd  Pd197  1  0.59112788  0.60547455  0.00778891  1
  Pd  Pd198  1  0.40547329  0.19097118  -0.00509049  1
  Pd  Pd199  1  0.39119514  0.60117034  0.39506233  1
  Rh  Rh200  1  0.39775594  0.21040989  0.40628119  1
  Rh  Rh201  1  0.80183330  0.59520645  0.00336375  1
  Rh  Rh202  1  0.80664659  0.00921957  0.40171295  1
  Rh  Rh203  1  0.00282838  0.39266261  0.19630459  1
  Rh  Rh204  1  0.80427249  0.79167300  0.40633633  1
  Rh  Rh205  1  0.19404013  0.00435830  0.79947954  1
  Rh  Rh206  1  0.19532278  -0.00091011  0.39852518  1
  Rh  Rh207  1  0.80081578  0.41004361  -0.00503433  1
  Rh  Rh208  1  0.39639854  0.39544087  0.79431597  1
  Rh  Rh209  1  0.60144030  0.19684709  0.59724545  1
  Rh  Rh210  1  0.60938757  0.20267679  0.39521472  1
  Rh  Rh211  1  0.00900820  0.40462917  0.59627662  1
  Rh  Rh212  1  0.39534508  0.00168444  0.79767056  1
  Rh  Rh213  1  0.19617544  0.80200316  0.79179557  1
  Rh  Rh214  1  0.59977105  0.39515349  0.00566780  1
  Rh  Rh215  1  0.79753392  0.60975786  0.59674783  1
  Rh  Rh216  1  0.20526275  0.19029361  0.60519521  1
  Rh  Rh217  1  -0.00479437  0.19487593  0.60852029  1
  Rh  Rh218  1  0.40100362  0.79092378  0.39568549  1
  Rh  Rh219  1  0.00611707  0.80919554  0.60282349  1
  Rh  Rh220  1  0.79517094  0.79444730  0.60864235  1
  Rh  Rh221  1  0.00165035  0.59967243  0.80204758  1
  Rh  Rh222  1  0.19709885  0.40375351  0.00712772  1
  Rh  Rh223  1  0.79009652  0.19198117  -0.00907849  1
  Rh  Rh224  1  0.79351063  0.01076695  0.59090053  1
  Rh  Rh225  1  0.00742630  0.59969198  0.60066963  1
  Rh  Rh226  1  0.19227240  0.79540748  -0.00285133  1
  Rh  Rh227  1  0.00689754  0.20421244  0.19196950  1
  Rh  Rh228  1  0.20384834  0.39955116  0.60693842  1
  Rh  Rh229  1  0.80096937  0.59318913  0.80221725  1
  Rh  Rh230  1  0.79571920  0.39552790  0.60414574  1
  Rh  Rh231  1  0.20622810  0.60037310  0.19806914  1
  Rh  Rh232  1  0.60463687  0.60860874  0.40196058  1
  Rh  Rh233  1  0.39974594  0.80565260  0.20829502  1
  Rh  Rh234  1  0.19449535  0.59699581  0.80803945  1
  Rh  Rh235  1  0.60513975  0.60102669  0.19578093  1
  Rh  Rh236  1  0.00718628  0.20811741  0.40072819  1
  Rh  Rh237  1  0.39748353  -0.00505773  0.20486850  1
  Rh  Rh238  1  0.80186976  0.80310061  0.20199688  1
  Rh  Rh239  1  0.39819254  0.19710504  0.19869263  1
  Rh  Rh240  1  0.59714880  0.79783109  0.40272609  1
  Rh  Rh241  1  0.20297686  0.19759899  0.00721325  1
  Rh  Rh242  1  0.20398772  0.81072143  0.20537842  1
  Rh  Rh243  1  0.00001076  0.79992389  0.20190973  1
  Rh  Rh244  1  -0.00459943  0.20796644  -0.00022591  1
  Rh  Rh245  1  0.19509320  0.39635524  0.79898914  1
  Rh  Rh246  1  0.39569988  0.59896710  0.19486231  1
  Rh  Rh247  1  0.40620057  0.40071500  0.20571518  1
  Rh  Rh248  1  0.40003303  0.40771946  0.00219213  1
  Rh  Rh249  1  0.38886899  0.80164160  0.60593625  1
