# generated using pymatgen
data_ZrScNbPdRh
_symmetry_space_group_name_H-M   'P 1'
_cell_length_a   16.55226312
_cell_length_b   16.55130249
_cell_length_c   16.55163940
_cell_angle_alpha   89.99692084
_cell_angle_beta   89.99059690
_cell_angle_gamma   90.02749867
_symmetry_Int_Tables_number   1
_chemical_formula_structural   ZrScNbPdRh
_chemical_formula_sum   'Zr50 Sc50 Nb50 Pd50 Rh50'
_cell_volume   4534.51159472
_cell_formula_units_Z   50
loop_
 _symmetry_equiv_pos_site_id
 _symmetry_equiv_pos_as_xyz
  1  'x, y, z'
loop_
 _atom_site_type_symbol
 _atom_site_label
 _atom_site_symmetry_multiplicity
 _atom_site_fract_x
 _atom_site_fract_y
 _atom_site_fract_z
 _atom_site_occupancy
  Zr  Zr0  1  0.70292008  0.29717784  0.69935883  1
  Zr  Zr1  1  0.50693632  0.10586922  0.29745852  1
  Zr  Zr2  1  0.09253300  0.90610100  0.30085170  1
  Zr  Zr3  1  0.30733591  0.10425745  0.09569591  1
  Zr  Zr4  1  0.70276199  0.70276393  0.30230254  1
  Zr  Zr5  1  0.69987611  0.90146409  0.69742224  1
  Zr  Zr6  1  0.51269089  0.90840816  0.09198381  1
  Zr  Zr7  1  0.49941524  0.09176762  0.91095101  1
  Zr  Zr8  1  0.89484179  0.89569482  0.70662706  1
  Zr  Zr9  1  0.30446210  0.10204466  0.30516972  1
  Zr  Zr10  1  0.09515830  0.89623028  0.89234515  1
  Zr  Zr11  1  0.30787239  0.70807279  0.30363024  1
  Zr  Zr12  1  0.10144413  0.30578466  0.89866767  1
  Zr  Zr13  1  0.10474307  0.49630087  0.70204689  1
  Zr  Zr14  1  0.69914486  0.50283797  0.29409148  1
  Zr  Zr15  1  0.30233996  0.90124283  0.10059219  1
  Zr  Zr16  1  0.89755440  0.10650290  0.49981200  1
  Zr  Zr17  1  0.28978301  0.29389761  0.50401102  1
  Zr  Zr18  1  0.29775517  0.90477567  0.30526359  1
  Zr  Zr19  1  0.50201426  0.29060482  0.90121106  1
  Zr  Zr20  1  0.50136254  0.70045866  0.50129076  1
  Zr  Zr21  1  0.50084523  0.70665455  0.10651614  1
  Zr  Zr22  1  0.30107087  0.89238803  0.50067753  1
  Zr  Zr23  1  0.50507673  0.49261134  0.30301858  1
  Zr  Zr24  1  0.29551587  0.69699501  0.10204419  1
  Zr  Zr25  1  0.30775682  0.10275446  0.90116662  1
  Zr  Zr26  1  0.29479063  0.70147253  0.89813719  1
  Zr  Zr27  1  0.10367008  0.31084309  0.09181436  1
  Zr  Zr28  1  0.90079011  0.29664149  0.90448013  1
  Zr  Zr29  1  0.10788483  0.29808135  0.69432412  1
  Zr  Zr30  1  0.50583088  0.30031443  0.69619855  1
  Zr  Zr31  1  0.70436497  0.49548488  0.70886024  1
  Zr  Zr32  1  0.09424796  0.09909079  0.50784300  1
  Zr  Zr33  1  0.50037927  0.08869908  0.70432672  1
  Zr  Zr34  1  0.70398117  0.29050476  0.50334183  1
  Zr  Zr35  1  0.09509937  0.10508950  0.89316878  1
  Zr  Zr36  1  0.09773735  0.09976007  0.10543088  1
  Zr  Zr37  1  0.69728222  0.50450600  0.09891976  1
  Zr  Zr38  1  0.10757809  0.30527985  0.30306623  1
  Zr  Zr39  1  0.08754355  0.89605944  0.10525441  1
  Zr  Zr40  1  0.10089710  0.50184426  0.91105303  1
  Zr  Zr41  1  0.29793044  0.69564279  0.69540123  1
  Zr  Zr42  1  0.88688004  0.50379025  0.30080294  1
  Zr  Zr43  1  0.90093457  0.50425086  0.69081768  1
  Zr  Zr44  1  0.49996947  0.49608915  0.50509533  1
  Zr  Zr45  1  0.70746950  0.70501191  0.68796599  1
  Zr  Zr46  1  0.89633039  0.30070237  0.30224957  1
  Zr  Zr47  1  0.50985319  0.30012606  0.49789488  1
  Zr  Zr48  1  0.89444324  0.70316812  0.30218824  1
  Zr  Zr49  1  0.30241482  0.49932671  0.89727851  1
  Sc  Sc50  1  0.69777207  0.09782644  0.10160670  1
  Sc  Sc51  1  0.70504626  0.90082292  0.90573318  1
  Sc  Sc52  1  0.50465477  0.29899704  0.10486046  1
  Sc  Sc53  1  0.29724031  0.09653077  0.69640880  1
  Sc  Sc54  1  0.50773585  0.69235764  0.89937878  1
  Sc  Sc55  1  0.30160908  0.30301782  0.90977269  1
  Sc  Sc56  1  0.70300510  0.10255350  0.70111187  1
  Sc  Sc57  1  0.09130251  0.71079979  0.29866022  1
  Sc  Sc58  1  0.30306045  0.08757649  0.49796588  1
  Sc  Sc59  1  0.09844601  0.09328804  0.30564080  1
  Sc  Sc60  1  0.50374391  0.68680141  0.69568693  1
  Sc  Sc61  1  0.30009557  0.49947538  0.29784486  1
  Sc  Sc62  1  0.49962701  0.69693181  0.29868230  1
  Sc  Sc63  1  0.69842258  0.88544887  0.50219369  1
  Sc  Sc64  1  0.29541078  0.49770853  0.10628625  1
  Sc  Sc65  1  0.90670519  0.90076213  0.30009269  1
  Sc  Sc66  1  0.89174063  0.89826642  0.89535979  1
  Sc  Sc67  1  0.89822753  0.70233908  0.69629020  1
  Sc  Sc68  1  0.50600372  0.29816175  0.29787812  1
  Sc  Sc69  1  0.90078025  0.09546399  0.30304196  1
  Sc  Sc70  1  0.50049277  0.09559862  0.50010557  1
  Sc  Sc71  1  0.30054224  0.50196791  0.51216817  1
  Sc  Sc72  1  0.09926285  0.89877597  0.49956250  1
  Sc  Sc73  1  0.09217260  0.90125741  0.69669214  1
  Sc  Sc74  1  0.69400673  0.69570755  0.09531744  1
  Sc  Sc75  1  0.30963776  0.30821171  0.10159090  1
  Sc  Sc76  1  0.69260768  0.30064514  0.30123757  1
  Sc  Sc77  1  0.50117570  0.49803044  0.10921133  1
  Sc  Sc78  1  0.70625092  0.10351448  0.29458403  1
  Sc  Sc79  1  0.90227286  0.09857494  0.70600009  1
  Sc  Sc80  1  0.09026649  0.70195118  0.69716638  1
  Sc  Sc81  1  0.88381522  0.49871135  0.09652575  1
  Sc  Sc82  1  0.29448908  0.90271109  0.89370414  1
  Sc  Sc83  1  0.89202759  0.29434417  0.70408963  1
  Sc  Sc84  1  0.50686621  0.88832432  0.28538729  1
  Sc  Sc85  1  0.50527289  0.50748848  0.89025750  1
  Sc  Sc86  1  0.71174692  0.49007074  0.50127069  1
  Sc  Sc87  1  0.09182331  0.49531936  0.51045684  1
  Sc  Sc88  1  0.90631262  0.70900065  0.09477229  1
  Sc  Sc89  1  0.70607534  0.30212478  0.89133362  1
  Sc  Sc90  1  0.70472951  0.29231977  0.10054210  1
  Sc  Sc91  1  0.90486725  0.89834466  0.49385456  1
  Sc  Sc92  1  0.90169403  0.70366450  0.89352187  1
  Sc  Sc93  1  0.70331533  0.10315710  0.90088088  1
  Sc  Sc94  1  0.50189113  0.90312639  0.51504442  1
  Sc  Sc95  1  0.88717756  0.50180988  0.89802224  1
  Sc  Sc96  1  0.09079712  0.09636032  0.69859370  1
  Sc  Sc97  1  0.09396355  0.29878592  0.50003973  1
  Sc  Sc98  1  0.29576681  0.89678538  0.69195170  1
  Sc  Sc99  1  0.10819528  0.49804275  0.30104250  1
  Nb  Nb100  1  0.89594373  0.10709201  0.10025619  1
  Nb  Nb101  1  0.70043630  0.50367064  0.90652465  1
  Nb  Nb102  1  0.89638938  0.90632789  0.09888372  1
  Nb  Nb103  1  0.29937349  0.30170534  0.30453085  1
  Nb  Nb104  1  0.10141047  0.69681322  0.90904177  1
  Nb  Nb105  1  0.90185699  0.29832952  0.10036165  1
  Nb  Nb106  1  0.50694112  0.90044600  0.70370900  1
  Nb  Nb107  1  0.10113927  0.69514349  0.09212198  1
  Nb  Nb108  1  0.89266743  0.30915210  0.49796588  1
  Nb  Nb109  1  0.09441547  0.70099494  0.50130198  1
  Nb  Nb110  1  0.70511981  0.70041836  0.49798004  1
  Nb  Nb111  1  0.89223694  0.69518552  0.49826187  1
  Nb  Nb112  1  0.10149427  0.50713230  0.10453199  1
  Nb  Nb113  1  0.90272323  0.10082143  0.89613321  1
  Nb  Nb114  1  0.50523364  0.10065494  0.09657725  1
  Nb  Nb115  1  0.70085061  0.09377380  0.49828888  1
  Nb  Nb116  1  0.30198419  0.49590607  0.70114057  1
  Nb  Nb117  1  0.29695798  0.30559157  0.69691298  1
  Nb  Nb118  1  0.50051370  0.90193706  0.89729920  1
  Nb  Nb119  1  0.48979392  0.49703223  0.69638923  1
  Nb  Nb120  1  0.69604347  0.69025641  0.89784919  1
  Nb  Nb121  1  0.70016938  0.90264807  0.10565828  1
  Nb  Nb122  1  0.29368825  0.70740047  0.49890627  1
  Nb  Nb123  1  0.89899125  0.49593376  0.49719748  1
  Nb  Nb124  1  0.69934031  0.89999391  0.29533092  1
  Nb  Nb125  1  0.00050465  0.20827994  0.19729887  1
  Nb  Nb126  1  0.20109647  0.20432689  0.20301515  1
  Nb  Nb127  1  -0.00199559  0.60034297  0.40291316  1
  Nb  Nb128  1  -0.00757033  0.00384550  0.00026243  1
  Nb  Nb129  1  0.40086191  0.39945598  0.79131519  1
  Nb  Nb130  1  0.60827432  -0.00517674  0.39585369  1
  Nb  Nb131  1  0.19626602  0.80070299  0.19703836  1
  Nb  Nb132  1  0.79880818  0.00023307  0.59609266  1
  Nb  Nb133  1  0.79768451  0.81002914  0.19355698  1
  Nb  Nb134  1  0.00174372  0.59644242  0.19726263  1
  Nb  Nb135  1  0.60650012  0.40400210  -0.00519283  1
  Nb  Nb136  1  0.40428260  0.80056026  -0.00687321  1
  Nb  Nb137  1  0.39712486  0.39305605  0.40366523  1
  Nb  Nb138  1  -0.00198209  0.40330099  0.19536555  1
  Nb  Nb139  1  0.40990239  0.80092009  0.80043063  1
  Nb  Nb140  1  0.19714293  0.61074342  0.40890267  1
  Nb  Nb141  1  0.19687253  0.59867675  0.80109399  1
  Nb  Nb142  1  0.39934653  0.60550168  0.00155186  1
  Nb  Nb143  1  0.19158881  0.00178921  -0.00020004  1
  Nb  Nb144  1  0.20311180  0.20476750  0.79790491  1
  Nb  Nb145  1  0.00088225  0.40151804  0.80056171  1
  Nb  Nb146  1  0.59864009  0.80112387  0.79990956  1
  Nb  Nb147  1  0.40715911  0.00519820  0.19611798  1
  Nb  Nb148  1  0.40022893  0.20363316  0.60330247  1
  Nb  Nb149  1  0.60677894  0.60035910  0.40625717  1
  Pd  Pd150  1  0.79514235  0.79483641  0.00197026  1
  Pd  Pd151  1  0.19652857  -0.00319376  0.59758570  1
  Pd  Pd152  1  0.60249089  0.19313118  0.80259981  1
  Pd  Pd153  1  0.20070455  0.00653078  0.80050327  1
  Pd  Pd154  1  0.61050764  0.58975482  0.59538208  1
  Pd  Pd155  1  0.40572293  0.79715661  0.60925167  1
  Pd  Pd156  1  0.60153308  0.80014008  -0.00791654  1
  Pd  Pd157  1  0.00443159  0.59784473  0.80237655  1
  Pd  Pd158  1  -0.01102746  0.41294538  0.00094475  1
  Pd  Pd159  1  0.19165648  0.79988913  0.39485757  1
  Pd  Pd160  1  0.20595050  0.41369022  0.40986801  1
  Pd  Pd161  1  0.39694179  0.60433560  0.59443540  1
  Pd  Pd162  1  0.80490133  0.61231904  0.00070220  1
  Pd  Pd163  1  0.79541528  0.19991183  -0.00283401  1
  Pd  Pd164  1  0.41383181  0.80870915  0.40171580  1
  Pd  Pd165  1  -0.00050083  0.19590523  0.00375679  1
  Pd  Pd166  1  0.41411691  0.40996128  -0.00653889  1
  Pd  Pd167  1  0.19513546  0.19018678  0.40071517  1
  Pd  Pd168  1  0.40131171  0.59469881  0.19927335  1
  Pd  Pd169  1  -0.00627668  0.80142500  0.59646226  1
  Pd  Pd170  1  0.80121165  0.60549113  0.79728856  1
  Pd  Pd171  1  -0.00004382  0.40871911  0.39296763  1
  Pd  Pd172  1  0.59644896  0.18669734  0.60055700  1
  Pd  Pd173  1  0.60556537  0.60153676  0.79070959  1
  Pd  Pd174  1  0.61072888  -0.00173668  0.80842849  1
  Pd  Pd175  1  0.80190551  0.00672947  -0.00068738  1
  Pd  Pd176  1  0.20317983  0.19922965  0.00078338  1
  Pd  Pd177  1  0.39244758  0.20683873  0.79260974  1
  Pd  Pd178  1  0.19252873  0.61070723  0.21458354  1
  Pd  Pd179  1  -0.01004067  0.20666504  0.60384143  1
  Pd  Pd180  1  0.41963962  -0.01174573  0.39069488  1
  Pd  Pd181  1  0.19548946  0.79363481  0.79024712  1
  Pd  Pd182  1  0.00010659  0.20126417  0.39596911  1
  Pd  Pd183  1  0.59446675  0.80108707  0.40133034  1
  Pd  Pd184  1  0.39135503  -0.00960414  0.79383620  1
  Pd  Pd185  1  0.79649078  0.39302672  0.19697418  1
  Pd  Pd186  1  -0.01227698  0.59496487  0.00491433  1
  Pd  Pd187  1  0.40325742  0.20496542  0.40983336  1
  Pd  Pd188  1  0.59607567  0.40181262  0.80411174  1
  Pd  Pd189  1  0.39698365  0.59288201  0.40577758  1
  Pd  Pd190  1  0.20072833  0.80888673  0.00378425  1
  Pd  Pd191  1  0.79529398  -0.00952298  0.40397773  1
  Pd  Pd192  1  0.39930134  0.20229746  0.19734896  1
  Pd  Pd193  1  -0.00755284  0.38930949  0.60745732  1
  Pd  Pd194  1  0.19453613  0.60102836  0.60093064  1
  Pd  Pd195  1  0.79608293  0.20131180  0.39468371  1
  Pd  Pd196  1  0.60945637  0.40628837  0.60120750  1
  Pd  Pd197  1  0.80396267  -0.00093661  0.20306770  1
  Pd  Pd198  1  -0.00498845  0.80575735  -0.00806813  1
  Pd  Pd199  1  0.20728331  0.00283179  0.19773739  1
  Rh  Rh200  1  0.79695936  0.59572548  0.40992403  1
  Rh  Rh201  1  -0.00342317  0.79350343  0.40588961  1
  Rh  Rh202  1  0.79340141  0.39474657  0.39757114  1
  Rh  Rh203  1  0.39399068  0.80833461  0.19573717  1
  Rh  Rh204  1  0.20055182  0.39405268  0.19614537  1
  Rh  Rh205  1  0.61036984  0.00261236  -0.00361565  1
  Rh  Rh206  1  0.00190644  0.79500253  0.80248503  1
  Rh  Rh207  1  0.80624144  0.61818598  0.18868252  1
  Rh  Rh208  1  0.60463050  0.19854886  0.19671028  1
  Rh  Rh209  1  0.80315628  0.19411813  0.59960942  1
  Rh  Rh210  1  0.79969789  0.00373200  0.79542572  1
  Rh  Rh211  1  0.80320212  0.39610078  0.60356445  1
  Rh  Rh212  1  0.19411324  0.00059393  0.40877486  1
  Rh  Rh213  1  0.60657233  0.39602451  0.18912906  1
  Rh  Rh214  1  0.80894127  0.80637852  0.59105469  1
  Rh  Rh215  1  0.80209794  0.19538680  0.80298500  1
  Rh  Rh216  1  0.78674756  0.79091868  0.80698508  1
  Rh  Rh217  1  0.20554905  0.19054916  0.60386361  1
  Rh  Rh218  1  0.80186024  0.80612864  0.39554999  1
  Rh  Rh219  1  0.79261718  0.39303676  -0.00108958  1
  Rh  Rh220  1  0.39985690  0.39651193  0.21344403  1
  Rh  Rh221  1  0.60164681  0.40509229  0.40312924  1
  Rh  Rh222  1  0.19891422  0.40351529  0.59257943  1
  Rh  Rh223  1  0.80556199  0.20050236  0.20254607  1
  Rh  Rh224  1  0.00525303  0.21012021  0.79534747  1
  Rh  Rh225  1  0.79989649  0.59633689  0.59632029  1
  Rh  Rh226  1  0.59560991  0.79482064  0.60611669  1
  Rh  Rh227  1  0.39985119  0.00281266  0.60623269  1
  Rh  Rh228  1  0.39277386  0.59956683  0.80093116  1
  Rh  Rh229  1  0.20752948  0.59378959  -0.00319999  1
  Rh  Rh230  1  0.80638723  0.40138362  0.80115607  1
  Rh  Rh231  1  -0.01224875  0.01039951  0.19453957  1
  Rh  Rh232  1  -0.00710298  -0.00503366  0.80455507  1
  Rh  Rh233  1  0.39691321  0.39048158  0.59795464  1
  Rh  Rh234  1  0.59005039  0.59167089  0.00355412  1
  Rh  Rh235  1  0.61119997  0.79451778  0.19644074  1
  Rh  Rh236  1  -0.00624501  0.60320492  0.59070483  1
  Rh  Rh237  1  0.20328355  0.39938685  0.80298090  1
  Rh  Rh238  1  0.59749462  0.60341154  0.20843294  1
  Rh  Rh239  1  0.39560750  -0.00631600  0.00282323  1
  Rh  Rh240  1  0.19289024  0.80000427  0.60058992  1
  Rh  Rh241  1  -0.00318202  0.79367524  0.19667426  1
  Rh  Rh242  1  0.20652301  0.40716621  0.00570552  1
  Rh  Rh243  1  0.60291289  0.20473756  0.00002160  1
  Rh  Rh244  1  0.60842980  0.00100241  0.59375097  1
  Rh  Rh245  1  0.40818655  0.20571325  0.00683253  1
  Rh  Rh246  1  -0.01216733  -0.00382350  0.60064779  1
  Rh  Rh247  1  0.00202553  0.00276436  0.40641711  1
  Rh  Rh248  1  0.59778615  0.00567817  0.20416683  1
  Rh  Rh249  1  0.60640908  0.18933875  0.40110783  1
