# generated using pymatgen
data_ZrScNbPdRh
_symmetry_space_group_name_H-M   'P 1'
_cell_length_a   16.55693786
_cell_length_b   16.55255371
_cell_length_c   16.55164445
_cell_angle_alpha   90.01616810
_cell_angle_beta   90.02101795
_cell_angle_gamma   90.06344087
_symmetry_Int_Tables_number   1
_chemical_formula_structural   ZrScNbPdRh
_chemical_formula_sum   'Zr50 Sc50 Nb50 Pd50 Rh50'
_cell_volume   4536.13384470
_cell_formula_units_Z   50
loop_
 _symmetry_equiv_pos_site_id
 _symmetry_equiv_pos_as_xyz
  1  'x, y, z'
loop_
 _atom_site_type_symbol
 _atom_site_label
 _atom_site_symmetry_multiplicity
 _atom_site_fract_x
 _atom_site_fract_y
 _atom_site_fract_z
 _atom_site_occupancy
  Zr  Zr0  1  0.29668926  0.70309247  0.29586844  1
  Zr  Zr1  1  0.51283679  0.51003647  0.49926959  1
  Zr  Zr2  1  0.29840185  0.89823459  0.70235722  1
  Zr  Zr3  1  0.50126307  0.49825768  0.90673040  1
  Zr  Zr4  1  0.09150399  0.49980927  0.29987688  1
  Zr  Zr5  1  0.89478740  0.30029845  0.29625620  1
  Zr  Zr6  1  0.50412382  0.10703390  0.10540707  1
  Zr  Zr7  1  0.70430895  0.49539487  0.30737811  1
  Zr  Zr8  1  0.69606437  0.90602453  0.30131648  1
  Zr  Zr9  1  0.29661299  0.50336026  0.28799955  1
  Zr  Zr10  1  0.30528935  0.50202241  0.90553098  1
  Zr  Zr11  1  0.08675262  0.69722408  0.09890452  1
  Zr  Zr12  1  0.49942430  0.09660302  0.49827080  1
  Zr  Zr13  1  0.70778045  0.10505474  0.50040056  1
  Zr  Zr14  1  0.69904818  0.48597484  0.09766274  1
  Zr  Zr15  1  0.29688486  0.29930581  0.50327729  1
  Zr  Zr16  1  0.30156610  0.29121938  0.90465578  1
  Zr  Zr17  1  0.30051168  0.09740427  0.70355508  1
  Zr  Zr18  1  0.89589948  0.49952023  0.88885096  1
  Zr  Zr19  1  0.70435770  0.09700177  0.90012164  1
  Zr  Zr20  1  0.30273171  0.10148739  0.29889738  1
  Zr  Zr21  1  0.48837387  0.70305549  0.09880571  1
  Zr  Zr22  1  0.09841327  0.09767581  0.90833704  1
  Zr  Zr23  1  0.30033987  0.70179940  0.89899436  1
  Zr  Zr24  1  0.29785293  0.69800842  0.10269919  1
  Zr  Zr25  1  0.50535929  0.29691368  0.29398934  1
  Zr  Zr26  1  0.30141265  0.09719050  0.49912219  1
  Zr  Zr27  1  0.50758939  0.49415578  0.29389058  1
  Zr  Zr28  1  0.29775796  0.50885114  0.70569712  1
  Zr  Zr29  1  0.91098588  0.50887627  0.10293060  1
  Zr  Zr30  1  0.09721446  0.49903883  0.10374815  1
  Zr  Zr31  1  0.08250165  0.88839742  0.49352794  1
  Zr  Zr32  1  0.50199074  0.30202026  0.50538111  1
  Zr  Zr33  1  0.50259996  0.69869634  0.29991848  1
  Zr  Zr34  1  0.49698775  0.10314284  0.69737118  1
  Zr  Zr35  1  0.09413882  0.09738023  0.49794409  1
  Zr  Zr36  1  0.30019539  0.29761183  0.69846254  1
  Zr  Zr37  1  0.30628496  0.29793484  0.10321024  1
  Zr  Zr38  1  0.69202346  0.68612880  0.49720541  1
  Zr  Zr39  1  0.29339390  0.09508463  0.89797785  1
  Zr  Zr40  1  0.70330410  0.30430128  0.29404537  1
  Zr  Zr41  1  0.70397659  0.10141668  0.29589983  1
  Zr  Zr42  1  0.50778820  0.89924348  0.49184927  1
  Zr  Zr43  1  0.70158566  0.70911975  0.89404917  1
  Zr  Zr44  1  0.70843395  0.90429251  0.50331382  1
  Zr  Zr45  1  0.69480010  0.90093432  0.89096498  1
  Zr  Zr46  1  0.09249115  0.89816347  0.69564432  1
  Zr  Zr47  1  0.09436834  0.30188010  0.70233792  1
  Zr  Zr48  1  0.89464255  0.10137660  0.29982218  1
  Zr  Zr49  1  0.89708973  0.50040799  0.50340079  1
  Sc  Sc50  1  0.49457394  0.89426280  0.70520573  1
  Sc  Sc51  1  0.49672286  0.50880715  0.69768846  1
  Sc  Sc52  1  0.90003158  0.09638651  0.10111078  1
  Sc  Sc53  1  0.89931334  0.89228430  0.10512570  1
  Sc  Sc54  1  0.10206902  0.90605892  0.90007313  1
  Sc  Sc55  1  0.49637193  0.70506255  0.89592058  1
  Sc  Sc56  1  0.29585312  0.70178980  0.70076328  1
  Sc  Sc57  1  0.89496513  0.29854744  0.09690004  1
  Sc  Sc58  1  0.29020477  0.29885272  0.29639822  1
  Sc  Sc59  1  0.89838174  0.30253234  0.50905466  1
  Sc  Sc60  1  0.49042167  0.70015692  0.69900494  1
  Sc  Sc61  1  0.49951986  0.89320951  0.90200861  1
  Sc  Sc62  1  0.49793319  0.29678989  0.69561559  1
  Sc  Sc63  1  0.09595545  0.89699350  0.09042052  1
  Sc  Sc64  1  0.30145669  0.89269743  0.29569005  1
  Sc  Sc65  1  0.29329688  0.89979422  0.90183639  1
  Sc  Sc66  1  0.09534063  0.50106915  0.70421172  1
  Sc  Sc67  1  0.50619444  0.29705412  0.91193968  1
  Sc  Sc68  1  0.89841700  0.69925895  0.28877878  1
  Sc  Sc69  1  0.10236369  0.30615498  0.50435884  1
  Sc  Sc70  1  0.09925782  0.50220232  0.49581207  1
  Sc  Sc71  1  0.90458242  0.30858892  0.70227111  1
  Sc  Sc72  1  0.90594582  0.70780169  0.49818819  1
  Sc  Sc73  1  0.70489376  0.69660621  0.29953089  1
  Sc  Sc74  1  0.49534091  0.90482702  0.10060446  1
  Sc  Sc75  1  0.90424880  0.69905997  0.89799033  1
  Sc  Sc76  1  0.70254119  0.10005527  0.09894312  1
  Sc  Sc77  1  0.71434380  0.29596766  0.69413867  1
  Sc  Sc78  1  0.90463257  0.30334144  0.90049779  1
  Sc  Sc79  1  0.89412297  0.70124068  0.70600325  1
  Sc  Sc80  1  0.29473073  0.49846704  0.50864031  1
  Sc  Sc81  1  0.71159178  0.71230870  0.10279551  1
  Sc  Sc82  1  0.89777635  0.09111067  0.49803754  1
  Sc  Sc83  1  0.90402133  0.90416697  0.89823284  1
  Sc  Sc84  1  0.70540750  0.90412679  0.09802717  1
  Sc  Sc85  1  0.50489647  0.08786818  0.29649285  1
  Sc  Sc86  1  0.90471794  0.90476842  0.29993470  1
  Sc  Sc87  1  0.30521101  0.09856362  0.09703998  1
  Sc  Sc88  1  0.30951886  0.89758685  0.50061096  1
  Sc  Sc89  1  0.09548500  0.70489907  0.89389383  1
  Sc  Sc90  1  0.09290693  0.10239640  0.29390685  1
  Sc  Sc91  1  0.29694111  0.89064468  0.09508354  1
  Sc  Sc92  1  0.89858745  0.10246691  0.70148277  1
  Sc  Sc93  1  0.71017021  0.30489108  0.91178838  1
  Sc  Sc94  1  0.49965985  0.09747350  0.90812237  1
  Sc  Sc95  1  0.09563063  0.09938300  0.70546130  1
  Sc  Sc96  1  0.08326034  0.50160819  0.90184695  1
  Sc  Sc97  1  0.50530066  0.29961560  0.09873359  1
  Sc  Sc98  1  0.89908900  0.10089571  0.90240530  1
  Sc  Sc99  1  0.29084914  0.70060398  0.50476366  1
  Nb  Nb100  1  0.50396695  0.70040646  0.49879952  1
  Nb  Nb101  1  0.89517584  0.89991585  0.67721864  1
  Nb  Nb102  1  0.09667369  0.29962370  0.29869770  1
  Nb  Nb103  1  0.10247999  0.89810294  0.30586165  1
  Nb  Nb104  1  0.89857255  0.50099761  0.70155646  1
  Nb  Nb105  1  0.71299075  0.50761235  0.70094725  1
  Nb  Nb106  1  0.09947664  0.69913075  0.69164537  1
  Nb  Nb107  1  0.89848339  0.69631540  0.10013100  1
  Nb  Nb108  1  0.70281076  0.30543064  0.49740659  1
  Nb  Nb109  1  0.89980513  0.90195940  0.50197974  1
  Nb  Nb110  1  0.69901376  0.29408150  0.10150011  1
  Nb  Nb111  1  0.10395690  0.71008918  0.31983988  1
  Nb  Nb112  1  0.49223290  0.50102774  0.09491608  1
  Nb  Nb113  1  0.70119106  0.89741940  0.70053733  1
  Nb  Nb114  1  0.69786108  0.70335883  0.70313561  1
  Nb  Nb115  1  0.30354082  0.50198665  0.09724193  1
  Nb  Nb116  1  0.09775122  0.70020540  0.49788883  1
  Nb  Nb117  1  0.70256035  0.49872466  0.50443045  1
  Nb  Nb118  1  0.90044739  0.49827034  0.29482345  1
  Nb  Nb119  1  0.50537394  0.90047975  0.30474903  1
  Nb  Nb120  1  0.10083465  0.30245630  0.90711925  1
  Nb  Nb121  1  0.09807565  0.09556788  0.09750151  1
  Nb  Nb122  1  0.69948555  0.09520467  0.70442050  1
  Nb  Nb123  1  0.09925968  0.29607254  0.09638793  1
  Nb  Nb124  1  0.70073663  0.49962269  0.89788417  1
  Nb  Nb125  1  0.19531756  -0.00363341  0.59507022  1
  Nb  Nb126  1  0.60360732  0.20419739  0.40253892  1
  Nb  Nb127  1  0.60724819  -0.00268607  0.60723074  1
  Nb  Nb128  1  0.40765870  0.79372242  0.39941609  1
  Nb  Nb129  1  0.40075227  0.40176846  0.39981373  1
  Nb  Nb130  1  0.19263043  -0.00201648  0.20081283  1
  Nb  Nb131  1  0.19773988  0.40000671  0.00344317  1
  Nb  Nb132  1  0.19870922  0.59545282  0.00383121  1
  Nb  Nb133  1  0.00052170  0.20576864  0.39610012  1
  Nb  Nb134  1  0.40439953  0.20427856  0.39975688  1
  Nb  Nb135  1  0.00127322  0.60445718  0.60102461  1
  Nb  Nb136  1  0.59685523  0.80037258  0.20375801  1
  Nb  Nb137  1  0.79723019  0.59954590  -0.00164783  1
  Nb  Nb138  1  0.40123143  0.59912163  0.39889838  1
  Nb  Nb139  1  0.60448435  0.79954630  0.60125545  1
  Nb  Nb140  1  0.79956481  0.80521847  0.40309958  1
  Nb  Nb141  1  0.19526435  -0.00525252  0.39775181  1
  Nb  Nb142  1  0.60526872  0.40162016  0.79562458  1
  Nb  Nb143  1  0.20141634  0.39663307  0.80988796  1
  Nb  Nb144  1  0.59981846  0.59912378  0.18941970  1
  Nb  Nb145  1  0.61231063  0.40805865  0.60355543  1
  Nb  Nb146  1  0.60821042  0.59723797  0.80190167  1
  Nb  Nb147  1  0.60511910  0.60113685  0.00102348  1
  Nb  Nb148  1  0.60788993  0.20054864  0.79931117  1
  Nb  Nb149  1  0.39982434  0.39890626  0.80212598  1
  Pd  Pd150  1  0.80976384  -0.00653733  0.79369456  1
  Pd  Pd151  1  0.41286984  0.20471773  0.80719543  1
  Pd  Pd152  1  0.40491904  -0.00438332  0.80759270  1
  Pd  Pd153  1  0.80764833  0.39809380  0.40284039  1
  Pd  Pd154  1  0.18844177  0.59548209  0.80877082  1
  Pd  Pd155  1  0.20126685  0.19766365  0.00860486  1
  Pd  Pd156  1  0.39400262  0.60609481  0.59246934  1
  Pd  Pd157  1  0.60708388  0.20191894  0.60282296  1
  Pd  Pd158  1  0.00340500  -0.00576553  0.19667078  1
  Pd  Pd159  1  0.40109630  0.39665683  0.20156106  1
  Pd  Pd160  1  0.19282518  0.40702958  0.60943372  1
  Pd  Pd161  1  0.80771320  0.80005190  -0.00491507  1
  Pd  Pd162  1  0.80628237  -0.00335352  0.00070249  1
  Pd  Pd163  1  0.39654534  -0.00321715  -0.00134379  1
  Pd  Pd164  1  0.19573631  0.19162840  0.60453380  1
  Pd  Pd165  1  0.81068268  0.40537584  0.00356317  1
  Pd  Pd166  1  0.59958479  0.79825759  0.00991001  1
  Pd  Pd167  1  0.40691741  0.40748135  0.60186824  1
  Pd  Pd168  1  0.19800223  0.80667075  0.59357659  1
  Pd  Pd169  1  -0.00823126  0.60439086  0.39992989  1
  Pd  Pd170  1  -0.00126847  0.20040643  0.80717859  1
  Pd  Pd171  1  0.40371962  -0.00789019  0.60224925  1
  Pd  Pd172  1  -0.00699370  0.19830069  0.00164531  1
  Pd  Pd173  1  0.19519685  0.80233191  0.80078246  1
  Pd  Pd174  1  0.79519860  0.78779266  0.59362988  1
  Pd  Pd175  1  0.79334411  0.59310169  0.19243234  1
  Pd  Pd176  1  0.20305573  0.40415917  0.39665767  1
  Pd  Pd177  1  0.80813048  0.19742702  0.60122716  1
  Pd  Pd178  1  0.18887572  0.60702127  0.19898898  1
  Pd  Pd179  1  -0.00484381  0.80186344  -0.00516603  1
  Pd  Pd180  1  -0.00306543  0.39105696  0.19495038  1
  Pd  Pd181  1  0.39333391  -0.00651249  0.19997658  1
  Pd  Pd182  1  0.79853756  0.20703122  0.80522366  1
  Pd  Pd183  1  -0.00474371  0.19746447  0.59438526  1
  Pd  Pd184  1  0.19638880  0.39603526  0.19473880  1
  Pd  Pd185  1  0.59070535  0.00293544  0.79778805  1
  Pd  Pd186  1  -0.00660600  -0.00090484  0.79533898  1
  Pd  Pd187  1  -0.00355828  0.39314712  0.40373452  1
  Pd  Pd188  1  0.19597120  0.19243204  0.19315255  1
  Pd  Pd189  1  0.19434058  0.19629206  0.39682164  1
  Pd  Pd190  1  0.81027524  0.80991043  0.79933505  1
  Pd  Pd191  1  0.80806342  0.60899942  0.59934162  1
  Pd  Pd192  1  0.80993131  0.60599540  0.39897136  1
  Pd  Pd193  1  -0.00142837  0.20376819  0.19847289  1
  Pd  Pd194  1  0.19155952  0.20141537  0.79911426  1
  Pd  Pd195  1  0.18800235  0.80443881  0.19433552  1
  Pd  Pd196  1  -0.00552063  0.80372568  0.79259144  1
  Pd  Pd197  1  0.00484046  0.79802683  0.20633947  1
  Pd  Pd198  1  0.20650477  0.59508653  0.40298451  1
  Pd  Pd199  1  0.60026841  -0.00147394  0.00363602  1
  Rh  Rh200  1  0.40889654  0.80940899  0.20593345  1
  Rh  Rh201  1  0.60415451  0.60186713  0.61426390  1
  Rh  Rh202  1  0.60630313  0.79713354  0.39918551  1
  Rh  Rh203  1  0.60102099  0.59598410  0.38892568  1
  Rh  Rh204  1  0.80106185  0.19787139  0.00124010  1
  Rh  Rh205  1  0.39670107  0.39149514  -0.00004899  1
  Rh  Rh206  1  0.60558858  0.19880760  0.20331601  1
  Rh  Rh207  1  0.39320203  0.19781249  0.59408773  1
  Rh  Rh208  1  -0.00043800  0.41270678  0.60090148  1
  Rh  Rh209  1  0.20927665  0.80584309  0.40853662  1
  Rh  Rh210  1  0.79775432  0.60432702  0.80534820  1
  Rh  Rh211  1  0.59332169  0.79422169  0.79060461  1
  Rh  Rh212  1  0.60171307  -0.00689260  0.19290882  1
  Rh  Rh213  1  0.80209780  -0.00085024  0.19802285  1
  Rh  Rh214  1  0.80336231  -0.00678914  0.39632013  1
  Rh  Rh215  1  0.19542542  -0.00314673  0.79327819  1
  Rh  Rh216  1  0.79437690  0.80753669  0.21035256  1
  Rh  Rh217  1  0.39596904  0.80275476  -0.00334817  1
  Rh  Rh218  1  0.79868216  0.40238837  0.60410089  1
  Rh  Rh219  1  0.79824725  0.19926917  0.19132052  1
  Rh  Rh220  1  0.80506738  0.40384258  0.19514763  1
  Rh  Rh221  1  0.79866587  0.00782542  0.60703895  1
  Rh  Rh222  1  0.00030648  0.00333040  0.60319916  1
  Rh  Rh223  1  0.40339617  0.19915284  0.20501270  1
  Rh  Rh224  1  0.40316959  0.19503995  0.00264063  1
  Rh  Rh225  1  -0.00436860  0.79083167  0.60468511  1
  Rh  Rh226  1  0.39268127  0.80088971  0.80118560  1
  Rh  Rh227  1  0.19000566  0.59954569  0.59948850  1
  Rh  Rh228  1  0.20049528  0.00238226  0.00889432  1
  Rh  Rh229  1  0.59870105  0.40042263  0.18917249  1
  Rh  Rh230  1  0.80265478  0.20862398  0.40394104  1
  Rh  Rh231  1  0.00060100  0.60475467  0.78928691  1
  Rh  Rh232  1  -0.00408321  0.60355842  -0.00602081  1
  Rh  Rh233  1  -0.01306707  0.79640867  0.39052335  1
  Rh  Rh234  1  0.40846015  0.59783019  0.80309066  1
  Rh  Rh235  1  0.40850351  0.79654332  0.59282944  1
  Rh  Rh236  1  0.39796084  0.60801004  -0.00260833  1
  Rh  Rh237  1  0.60781035  0.01350388  0.40649571  1
  Rh  Rh238  1  0.59904260  0.39629224  0.41120234  1
  Rh  Rh239  1  0.00342804  0.39824336  0.80032633  1
  Rh  Rh240  1  0.00178589  0.39642705  0.00439275  1
  Rh  Rh241  1  0.00650673  0.60940097  0.21424759  1
  Rh  Rh242  1  0.79855927  0.39632768  0.79625189  1
  Rh  Rh243  1  0.40631001  0.59349045  0.20387691  1
  Rh  Rh244  1  0.39077385  -0.00455928  0.38950932  1
  Rh  Rh245  1  0.60982229  0.19863765  -0.00428963  1
  Rh  Rh246  1  -0.00314705  -0.00040097  0.00276673  1
  Rh  Rh247  1  0.19586390  0.78859593  -0.00251137  1
  Rh  Rh248  1  0.00049982  0.00673120  0.39644722  1
  Rh  Rh249  1  0.59921710  0.39897136  0.00004839  1
