# generated using pymatgen
data_ZrScNbPdRh
_symmetry_space_group_name_H-M   'P 1'
_cell_length_a   16.55762130
_cell_length_b   16.56023900
_cell_length_c   16.55953997
_cell_angle_alpha   89.99143543
_cell_angle_beta   89.99105967
_cell_angle_gamma   90.00655838
_symmetry_Int_Tables_number   1
_chemical_formula_structural   ZrScNbPdRh
_chemical_formula_sum   'Zr50 Sc50 Nb50 Pd50 Rh50'
_cell_volume   4540.59535273
_cell_formula_units_Z   50
loop_
 _symmetry_equiv_pos_site_id
 _symmetry_equiv_pos_as_xyz
  1  'x, y, z'
loop_
 _atom_site_type_symbol
 _atom_site_label
 _atom_site_symmetry_multiplicity
 _atom_site_fract_x
 _atom_site_fract_y
 _atom_site_fract_z
 _atom_site_occupancy
  Zr  Zr0  1  0.11059172  0.70404579  0.90167105  1
  Zr  Zr1  1  0.29700859  0.70096029  0.70216010  1
  Zr  Zr2  1  0.69751384  0.69389795  0.69754383  1
  Zr  Zr3  1  0.90291897  0.30421706  0.90337856  1
  Zr  Zr4  1  0.69888583  0.70307131  0.90375814  1
  Zr  Zr5  1  0.10776648  0.09302147  0.89690277  1
  Zr  Zr6  1  0.90214804  0.70384638  0.69489125  1
  Zr  Zr7  1  0.09743378  0.69431239  0.49704252  1
  Zr  Zr8  1  0.70356383  0.51147137  0.90934575  1
  Zr  Zr9  1  0.10544756  0.29203980  0.69679571  1
  Zr  Zr10  1  0.49578770  0.69516574  0.69926243  1
  Zr  Zr11  1  0.89540991  0.50302452  0.69801362  1
  Zr  Zr12  1  0.90078343  0.90397682  0.90750068  1
  Zr  Zr13  1  0.50933792  0.69955571  0.90154455  1
  Zr  Zr14  1  0.69790907  0.49871617  0.69758891  1
  Zr  Zr15  1  0.29330022  0.09712850  0.71018481  1
  Zr  Zr16  1  0.30898117  0.29824696  0.09569360  1
  Zr  Zr17  1  0.69768751  0.89676820  0.90827880  1
  Zr  Zr18  1  0.90488155  0.29828148  0.50288101  1
  Zr  Zr19  1  0.90023313  0.30485205  0.09982619  1
  Zr  Zr20  1  0.10179368  0.29548700  0.30091741  1
  Zr  Zr21  1  0.70331204  0.10256831  0.69800931  1
  Zr  Zr22  1  0.69364932  0.09385309  0.10220554  1
  Zr  Zr23  1  0.49108176  0.70375677  0.48688501  1
  Zr  Zr24  1  0.50152722  0.10111477  0.90024329  1
  Zr  Zr25  1  0.10676476  0.49066879  0.70795576  1
  Zr  Zr26  1  0.30430017  0.49733926  0.09996438  1
  Zr  Zr27  1  0.89691738  0.90144439  0.50163992  1
  Zr  Zr28  1  0.89796506  0.10494281  0.90064527  1
  Zr  Zr29  1  0.50406532  0.89917760  0.10877431  1
  Zr  Zr30  1  0.09812814  0.89105381  0.10755307  1
  Zr  Zr31  1  0.29495289  0.49885137  0.90172204  1
  Zr  Zr32  1  0.69625155  0.90200192  0.28891729  1
  Zr  Zr33  1  0.30028197  0.10107167  0.09325696  1
  Zr  Zr34  1  0.69728426  0.10156676  0.90205290  1
  Zr  Zr35  1  0.29010962  0.90884739  0.29968686  1
  Zr  Zr36  1  0.90332552  0.10413317  0.69668608  1
  Zr  Zr37  1  0.29678679  0.69957003  0.49900166  1
  Zr  Zr38  1  0.50187147  0.49867145  0.09867482  1
  Zr  Zr39  1  0.10731921  0.50912073  0.09946586  1
  Zr  Zr40  1  0.69513995  0.89886421  0.69582222  1
  Zr  Zr41  1  0.10610767  0.50439729  0.49290636  1
  Zr  Zr42  1  0.70212717  0.49824726  0.10195367  1
  Zr  Zr43  1  0.69597576  0.29384966  0.89548078  1
  Zr  Zr44  1  0.50549483  0.10281749  0.30477677  1
  Zr  Zr45  1  0.10561423  0.70157886  0.69754952  1
  Zr  Zr46  1  0.10404201  0.91132280  0.49964261  1
  Zr  Zr47  1  0.89300318  0.70316442  0.49829811  1
  Zr  Zr48  1  0.70550526  0.50777468  0.50143862  1
  Zr  Zr49  1  0.49565476  0.70498314  0.10740320  1
  Sc  Sc50  1  0.09040013  0.69491347  0.28823690  1
  Sc  Sc51  1  0.28905543  0.69821674  0.10325278  1
  Sc  Sc52  1  0.50619384  0.31251852  0.70536277  1
  Sc  Sc53  1  0.90018045  0.89959808  0.68772335  1
  Sc  Sc54  1  0.89223914  0.69778771  0.29771266  1
  Sc  Sc55  1  0.90143804  0.29453175  0.70497341  1
  Sc  Sc56  1  0.09393138  0.50449427  0.30498199  1
  Sc  Sc57  1  0.89536938  0.69975338  0.90638381  1
  Sc  Sc58  1  0.69427739  0.30397526  0.49948317  1
  Sc  Sc59  1  0.49740510  0.89381006  0.30375847  1
  Sc  Sc60  1  0.29577948  0.30621976  0.70074794  1
  Sc  Sc61  1  0.50711339  0.90459717  0.89693785  1
  Sc  Sc62  1  0.90123536  0.09445314  0.51275086  1
  Sc  Sc63  1  0.30243263  0.90024535  0.69301027  1
  Sc  Sc64  1  0.10155624  0.09407720  0.09290208  1
  Sc  Sc65  1  0.91132347  0.30466697  0.29058091  1
  Sc  Sc66  1  0.30123796  0.09275728  0.49451665  1
  Sc  Sc67  1  0.49812454  0.49925237  0.70106721  1
  Sc  Sc68  1  0.30259998  0.09564840  0.90588330  1
  Sc  Sc69  1  0.49712697  0.10438128  0.09380572  1
  Sc  Sc70  1  0.89647782  0.89937876  0.10303642  1
  Sc  Sc71  1  0.31167446  0.69990712  0.30033756  1
  Sc  Sc72  1  0.49572101  0.08662037  0.49442407  1
  Sc  Sc73  1  0.29921401  0.29518545  0.50058000  1
  Sc  Sc74  1  0.68271865  0.29845826  0.30291112  1
  Sc  Sc75  1  0.49320830  0.49950562  0.50026109  1
  Sc  Sc76  1  0.70456004  0.50636166  0.30268887  1
  Sc  Sc77  1  0.70284798  0.70424027  0.09519959  1
  Sc  Sc78  1  0.29180065  0.89760500  0.10203681  1
  Sc  Sc79  1  0.89904050  0.70387827  0.10834795  1
  Sc  Sc80  1  0.09567398  0.31370658  0.89463381  1
  Sc  Sc81  1  0.10565838  0.08334076  0.30176635  1
  Sc  Sc82  1  0.11048597  0.29687799  0.50162549  1
  Sc  Sc83  1  0.50178310  0.30600157  0.10157568  1
  Sc  Sc84  1  0.10265690  0.89546631  0.90603645  1
  Sc  Sc85  1  0.48831311  0.49550166  0.30442729  1
  Sc  Sc86  1  0.50020347  0.49328104  0.89663278  1
  Sc  Sc87  1  0.30732205  0.50037024  0.70423468  1
  Sc  Sc88  1  0.29309714  0.90542330  0.89592602  1
  Sc  Sc89  1  0.70433152  0.89818107  0.49858539  1
  Sc  Sc90  1  0.10894127  0.89552249  0.70086596  1
  Sc  Sc91  1  0.49637203  0.30424434  0.49167031  1
  Sc  Sc92  1  0.90552658  0.51067050  0.49434825  1
  Sc  Sc93  1  0.69859806  0.30090953  0.70223076  1
  Sc  Sc94  1  0.70286209  0.89935013  0.09880767  1
  Sc  Sc95  1  0.31094237  0.29251226  0.31160785  1
  Sc  Sc96  1  0.90357696  0.09773415  0.09333372  1
  Sc  Sc97  1  0.30556819  0.30327943  0.90382617  1
  Sc  Sc98  1  0.09429173  0.29814477  0.09783901  1
  Sc  Sc99  1  0.50002620  0.07795663  0.70028846  1
  Nb  Nb100  1  0.89905909  0.50259121  0.29399928  1
  Nb  Nb101  1  0.69634421  0.10126482  0.30319058  1
  Nb  Nb102  1  0.30431544  0.70042448  0.89815561  1
  Nb  Nb103  1  0.48128639  0.89908115  0.51054923  1
  Nb  Nb104  1  0.30510230  0.09996796  0.29968920  1
  Nb  Nb105  1  0.09662111  0.69921094  0.09706750  1
  Nb  Nb106  1  0.69241663  0.70427800  0.31146208  1
  Nb  Nb107  1  0.09756613  0.90023559  0.29965609  1
  Nb  Nb108  1  0.69720242  0.10352100  0.49302121  1
  Nb  Nb109  1  0.50318961  0.29853062  0.89176602  1
  Nb  Nb110  1  0.90485312  0.90471386  0.29542341  1
  Nb  Nb111  1  0.30013762  0.50469643  0.48143978  1
  Nb  Nb112  1  0.89694748  0.50049444  0.10262754  1
  Nb  Nb113  1  0.90605439  0.49705427  0.90597976  1
  Nb  Nb114  1  0.49730933  0.89402812  0.69552271  1
  Nb  Nb115  1  0.29495006  0.50041308  0.30383449  1
  Nb  Nb116  1  0.09976755  0.10007550  0.69504973  1
  Nb  Nb117  1  0.49793776  0.29519556  0.30674848  1
  Nb  Nb118  1  0.09418878  0.49964321  0.90237001  1
  Nb  Nb119  1  0.50427994  0.70670264  0.29680348  1
  Nb  Nb120  1  0.69877533  0.70110478  0.49038020  1
  Nb  Nb121  1  0.70234339  0.30137418  0.10456125  1
  Nb  Nb122  1  0.89868614  0.10123032  0.29881387  1
  Nb  Nb123  1  0.09836476  0.10231741  0.51094078  1
  Nb  Nb124  1  0.30627640  0.89474619  0.49650684  1
  Nb  Nb125  1  0.39807308  0.60407919  -0.00212201  1
  Nb  Nb126  1  0.00158002  0.80867268  0.39386017  1
  Nb  Nb127  1  0.20638897  0.39572015  0.20475118  1
  Nb  Nb128  1  0.79771665  0.80353252  0.79866771  1
  Nb  Nb129  1  0.40317029  0.79884580  0.80172417  1
  Nb  Nb130  1  0.79504946  0.19841248  0.20456646  1
  Nb  Nb131  1  0.00250799  0.59740939  0.80686098  1
  Nb  Nb132  1  0.00525553  0.40168403  0.59983349  1
  Nb  Nb133  1  0.39785232  0.79647210  -0.00444553  1
  Nb  Nb134  1  0.00216650  0.59656795  0.00161102  1
  Nb  Nb135  1  0.59228467  0.19447155  0.59821068  1
  Nb  Nb136  1  0.59789245  0.60713612  0.20746192  1
  Nb  Nb137  1  0.40521203  0.19597760  0.60750072  1
  Nb  Nb138  1  0.80253951  -0.00177619  0.79979603  1
  Nb  Nb139  1  0.80655609  0.39786030  0.39616844  1
  Nb  Nb140  1  0.19409578  0.80418943  0.39800643  1
  Nb  Nb141  1  -0.00110204  0.19085291  0.40102437  1
  Nb  Nb142  1  0.80178338  0.40590771  0.80754650  1
  Nb  Nb143  1  0.39674773  0.00552312  0.20316440  1
  Nb  Nb144  1  0.79945436  0.00830438  0.39166130  1
  Nb  Nb145  1  -0.00028110  0.00161645  0.79661804  1
  Nb  Nb146  1  0.20615138  0.19912071  0.20193084  1
  Nb  Nb147  1  0.40627884  0.19883191  0.79677205  1
  Nb  Nb148  1  0.80287618  0.19876901  0.39370171  1
  Nb  Nb149  1  0.59234403  0.79744596  0.59258617  1
  Pd  Pd150  1  0.20753906  0.00167260  0.59879191  1
  Pd  Pd151  1  0.39628957  0.39528171  0.59662996  1
  Pd  Pd152  1  0.59977632  0.40825984  0.21042611  1
  Pd  Pd153  1  0.00720105  0.19585911  0.80542902  1
  Pd  Pd154  1  0.59127053  0.59287830  0.39494330  1
  Pd  Pd155  1  0.80759592  0.60262855  0.80414259  1
  Pd  Pd156  1  0.00889836  0.80535652  0.59209125  1
  Pd  Pd157  1  0.79704836  0.20012842  0.01041487  1
  Pd  Pd158  1  0.79610222  0.39833000  -0.00350946  1
  Pd  Pd159  1  -0.00638924  0.00366873  0.40295703  1
  Pd  Pd160  1  0.59486426  0.39737059  0.59404201  1
  Pd  Pd161  1  0.79057303  0.20467134  0.59310054  1
  Pd  Pd162  1  0.79069614  0.60869313  0.19998843  1
  Pd  Pd163  1  -0.00252491  0.39621086  0.40484383  1
  Pd  Pd164  1  0.59616854  0.59161212  0.80147723  1
  Pd  Pd165  1  0.79359164  0.39150238  0.21171136  1
  Pd  Pd166  1  0.00545978  0.59274628  0.60732947  1
  Pd  Pd167  1  0.39394030  0.59558258  0.59484464  1
  Pd  Pd168  1  0.59342670  0.60503350  0.58957443  1
  Pd  Pd169  1  0.01206398  0.40882760  0.19644405  1
  Pd  Pd170  1  0.40166126  -0.01261232  0.00455625  1
  Pd  Pd171  1  0.39606530  0.39422850  0.21001850  1
  Pd  Pd172  1  -0.00574885  0.80133859  0.80197468  1
  Pd  Pd173  1  -0.00460649  0.79375551  0.00356745  1
  Pd  Pd174  1  0.20439584  0.39573693  0.39546443  1
  Pd  Pd175  1  0.59654408  0.20742263  0.00748757  1
  Pd  Pd176  1  0.19488338  0.18760763  0.39816874  1
  Pd  Pd177  1  0.80661991  0.39749207  0.59888599  1
  Pd  Pd178  1  0.80471907  0.81015490  0.38918816  1
  Pd  Pd179  1  0.59576092  0.81302436  0.40819094  1
  Pd  Pd180  1  0.00604111  0.18776977  0.20246605  1
  Pd  Pd181  1  0.60058333  -0.01192537  0.40526158  1
  Pd  Pd182  1  0.60399780  0.40928227  0.39862962  1
  Pd  Pd183  1  0.80172589  0.00524179  0.19877657  1
  Pd  Pd184  1  0.00101701  0.00413344  0.19259431  1
  Pd  Pd185  1  0.60065530  0.39410771  -0.00475103  1
  Pd  Pd186  1  0.20785591  0.58956370  0.60064602  1
  Pd  Pd187  1  0.19404510  0.20744251  -0.00211454  1
  Pd  Pd188  1  0.20643798  0.20706342  0.80899539  1
  Pd  Pd189  1  0.20227713  0.59894027  0.20843720  1
  Pd  Pd190  1  0.20451743  0.40712677  0.59393716  1
  Pd  Pd191  1  0.00792468  0.20051613  -0.00560323  1
  Pd  Pd192  1  0.60281891  -0.00305070  0.58810665  1
  Pd  Pd193  1  0.59867522  0.20131368  0.19497364  1
  Pd  Pd194  1  0.40166878  0.19756446  0.20067257  1
  Pd  Pd195  1  0.19976211  0.79073094  0.20887504  1
  Pd  Pd196  1  0.19540906  0.39398301  0.00539261  1
  Pd  Pd197  1  0.40216886  0.59884740  0.20044981  1
  Pd  Pd198  1  0.60559687  -0.00147948  0.80094392  1
  Pd  Pd199  1  0.19757544  0.59699671  0.80319293  1
  Rh  Rh200  1  0.00187075  0.40798645  0.01363386  1
  Rh  Rh201  1  0.39954831  -0.00518823  0.80049914  1
  Rh  Rh202  1  0.39080816  0.00462527  0.60354854  1
  Rh  Rh203  1  0.19961684  0.80153764  0.58944585  1
  Rh  Rh204  1  0.80349251  0.59567360  0.39729310  1
  Rh  Rh205  1  0.79774097  0.60698545  0.59402365  1
  Rh  Rh206  1  0.20584488  0.79910162  0.00183867  1
  Rh  Rh207  1  0.00576226  -0.00382542  -0.00240293  1
  Rh  Rh208  1  -0.00650930  0.59618482  0.19299865  1
  Rh  Rh209  1  0.59799084  -0.00172939  0.00360548  1
  Rh  Rh210  1  0.20169518  0.00129596  0.40541358  1
  Rh  Rh211  1  0.39883824  0.39378920  0.80145413  1
  Rh  Rh212  1  0.39472554  0.39749645  0.40104507  1
  Rh  Rh213  1  0.80058810  0.20215511  0.80143467  1
  Rh  Rh214  1  -0.00343613  0.80028423  0.20400579  1
  Rh  Rh215  1  0.59374893  0.60215103  0.01197639  1
  Rh  Rh216  1  0.20183682  0.60342124  -0.00355186  1
  Rh  Rh217  1  0.40737590  0.40320841  -0.00548711  1
  Rh  Rh218  1  0.59864741  0.79994159  0.78753864  1
  Rh  Rh219  1  0.40658164  0.19566793  0.41083945  1
  Rh  Rh220  1  0.39310292  0.80441123  0.39265395  1
  Rh  Rh221  1  -0.00929110  0.40560948  0.78884926  1
  Rh  Rh222  1  0.79776231  0.00281844  -0.00145826  1
  Rh  Rh223  1  0.20971887  0.80479607  0.79943921  1
  Rh  Rh224  1  0.79652380  0.79942287  0.20597838  1
  Rh  Rh225  1  0.19271436  -0.00575921  0.79735857  1
  Rh  Rh226  1  -0.00657053  0.60963005  0.39249836  1
  Rh  Rh227  1  0.39185951  0.81002868  0.19729797  1
  Rh  Rh228  1  0.20426494  0.01082409  0.19264364  1
  Rh  Rh229  1  0.61217036  0.40882241  0.80569843  1
  Rh  Rh230  1  0.19945646  0.61167961  0.39055259  1
  Rh  Rh231  1  0.40852743  0.20747813  -0.01056099  1
  Rh  Rh232  1  0.61074690  0.79212293  0.19827681  1
  Rh  Rh233  1  0.40035127  -0.00471006  0.39156473  1
  Rh  Rh234  1  0.79394524  0.00436854  0.59704180  1
  Rh  Rh235  1  0.21125439  0.19111467  0.59930336  1
  Rh  Rh236  1  0.40344593  0.60197822  0.80777243  1
  Rh  Rh237  1  0.40194232  0.60103726  0.39361807  1
  Rh  Rh238  1  0.00661725  -0.00552073  0.61040588  1
  Rh  Rh239  1  0.78693163  0.79222439  0.60309627  1
  Rh  Rh240  1  0.59642268  0.20206988  0.40906309  1
  Rh  Rh241  1  0.58813249  0.19307292  0.78531969  1
  Rh  Rh242  1  0.20495359  0.39770938  0.80559637  1
  Rh  Rh243  1  0.80424824  0.80050042  -0.00114743  1
  Rh  Rh244  1  0.59414622  0.80337847  0.00908663  1
  Rh  Rh245  1  0.81025601  0.60127802  0.00956189  1
  Rh  Rh246  1  0.39872849  0.79387240  0.60696121  1
  Rh  Rh247  1  0.00716657  0.20813292  0.59448163  1
  Rh  Rh248  1  0.58973233  0.00486442  0.20069045  1
  Rh  Rh249  1  0.19630379  -0.00952779  0.00517779  1
