# generated using pymatgen
data_ZrScNbPdRh
_symmetry_space_group_name_H-M   'P 1'
_cell_length_a   16.55630915
_cell_length_b   16.55661616
_cell_length_c   16.55325967
_cell_angle_alpha   89.94799223
_cell_angle_beta   90.00533979
_cell_angle_gamma   90.01293514
_symmetry_Int_Tables_number   1
_chemical_formula_structural   ZrScNbPdRh
_chemical_formula_sum   'Zr50 Sc50 Nb50 Pd50 Rh50'
_cell_volume   4537.51886503
_cell_formula_units_Z   50
loop_
 _symmetry_equiv_pos_site_id
 _symmetry_equiv_pos_as_xyz
  1  'x, y, z'
loop_
 _atom_site_type_symbol
 _atom_site_label
 _atom_site_symmetry_multiplicity
 _atom_site_fract_x
 _atom_site_fract_y
 _atom_site_fract_z
 _atom_site_occupancy
  Zr  Zr0  1  0.68997020  0.30053236  0.29756912  1
  Zr  Zr1  1  0.29978333  0.30277286  0.69034444  1
  Zr  Zr2  1  0.08912278  0.09595049  0.28588707  1
  Zr  Zr3  1  0.89909871  0.89765923  0.90179458  1
  Zr  Zr4  1  0.50207625  0.30172664  0.50384242  1
  Zr  Zr5  1  0.70496217  0.69935823  0.50091489  1
  Zr  Zr6  1  0.50263766  0.30122263  0.89706669  1
  Zr  Zr7  1  0.28964494  0.29598327  0.49978942  1
  Zr  Zr8  1  0.89754920  0.69913736  0.49834981  1
  Zr  Zr9  1  0.49947713  0.11234659  0.10312489  1
  Zr  Zr10  1  0.10005414  0.89473250  0.89679474  1
  Zr  Zr11  1  0.10132852  0.69347631  0.49823893  1
  Zr  Zr12  1  0.09639501  0.90236612  0.70272671  1
  Zr  Zr13  1  0.70463042  0.89860517  0.90391321  1
  Zr  Zr14  1  0.89901888  0.70254693  0.89890334  1
  Zr  Zr15  1  0.50060500  0.89741091  0.90269351  1
  Zr  Zr16  1  0.69972651  0.88931161  0.70055243  1
  Zr  Zr17  1  0.91043923  0.69533929  0.10183730  1
  Zr  Zr18  1  0.10021181  0.50585090  0.70124222  1
  Zr  Zr19  1  0.90177653  0.09867755  0.10872854  1
  Zr  Zr20  1  0.90476533  0.30417881  0.90060725  1
  Zr  Zr21  1  0.90862269  0.49867661  0.90492903  1
  Zr  Zr22  1  0.29533322  0.10065020  0.69815279  1
  Zr  Zr23  1  0.29711423  0.50591377  0.09643713  1
  Zr  Zr24  1  0.90023121  0.69874082  0.69549937  1
  Zr  Zr25  1  0.09550081  0.70637498  0.30216918  1
  Zr  Zr26  1  0.70297206  0.50121054  0.90132798  1
  Zr  Zr27  1  0.70667545  0.69904681  0.69990823  1
  Zr  Zr28  1  0.70586450  0.29744477  0.90662248  1
  Zr  Zr29  1  0.09675460  0.70186627  0.90155999  1
  Zr  Zr30  1  0.30722717  0.90014175  0.50200909  1
  Zr  Zr31  1  0.10914510  0.10190873  0.88983151  1
  Zr  Zr32  1  0.10125966  0.89429521  0.50275416  1
  Zr  Zr33  1  0.10687914  0.70193295  0.10096677  1
  Zr  Zr34  1  0.09766086  0.50070579  0.09242174  1
  Zr  Zr35  1  0.29428377  0.90178436  0.89952265  1
  Zr  Zr36  1  0.50298232  0.70418389  0.29444293  1
  Zr  Zr37  1  0.50379799  0.28955706  0.70060461  1
  Zr  Zr38  1  0.10461163  0.29725477  0.09912274  1
  Zr  Zr39  1  0.90198538  0.50060387  0.70482157  1
  Zr  Zr40  1  0.70528081  0.10423061  0.10318859  1
  Zr  Zr41  1  0.09704641  0.29427541  0.70010259  1
  Zr  Zr42  1  0.50732463  0.70169348  0.90340736  1
  Zr  Zr43  1  0.29261443  0.09753332  0.09970513  1
  Zr  Zr44  1  0.90881890  0.90389707  0.30383959  1
  Zr  Zr45  1  0.30113835  0.09691862  0.49720226  1
  Zr  Zr46  1  0.90633328  0.89631354  0.69362821  1
  Zr  Zr47  1  0.09706880  0.29731113  0.50128234  1
  Zr  Zr48  1  0.70465926  0.89979745  0.09997938  1
  Zr  Zr49  1  0.70423720  0.69733271  0.30646615  1
  Sc  Sc50  1  0.69216789  0.11399829  0.69245134  1
  Sc  Sc51  1  0.50221872  0.10996164  0.89694155  1
  Sc  Sc52  1  0.50168848  0.89278546  0.68016160  1
  Sc  Sc53  1  0.49393279  0.70196868  0.09989874  1
  Sc  Sc54  1  0.49282136  0.88857554  0.10206157  1
  Sc  Sc55  1  0.90449506  0.49404539  0.10376095  1
  Sc  Sc56  1  0.50466542  0.49183359  0.70011823  1
  Sc  Sc57  1  0.90564881  0.29804712  0.30723853  1
  Sc  Sc58  1  0.89729270  0.10899291  0.49451336  1
  Sc  Sc59  1  0.51006724  0.49623293  0.49910237  1
  Sc  Sc60  1  0.29199362  0.69354138  0.29864373  1
  Sc  Sc61  1  0.49106492  0.50756406  0.90518628  1
  Sc  Sc62  1  0.70594077  0.30117995  0.50448035  1
  Sc  Sc63  1  0.89276210  0.10750106  0.89891957  1
  Sc  Sc64  1  0.70640864  0.49101563  0.10791164  1
  Sc  Sc65  1  0.30095249  0.30030959  0.10213935  1
  Sc  Sc66  1  0.29124489  0.48957103  0.50101133  1
  Sc  Sc67  1  0.29255758  0.89552659  0.69219921  1
  Sc  Sc68  1  0.10660117  0.89653948  0.10310032  1
  Sc  Sc69  1  0.09614589  0.49817135  0.50115582  1
  Sc  Sc70  1  0.89775245  0.89783618  0.49814190  1
  Sc  Sc71  1  0.50629667  0.70892599  0.50850330  1
  Sc  Sc72  1  0.89874412  0.10021567  0.30207949  1
  Sc  Sc73  1  0.89749673  0.90232449  0.09561490  1
  Sc  Sc74  1  0.49124654  0.50510980  0.10352366  1
  Sc  Sc75  1  0.30099269  0.10054003  0.29019687  1
  Sc  Sc76  1  0.69435579  0.30376751  0.69542177  1
  Sc  Sc77  1  0.69963709  0.49663897  0.30735926  1
  Sc  Sc78  1  0.70271830  0.10922593  0.90443372  1
  Sc  Sc79  1  0.69903287  0.29437322  0.10498705  1
  Sc  Sc80  1  0.30491777  0.91065615  0.29158738  1
  Sc  Sc81  1  0.30567441  0.50144491  0.30164908  1
  Sc  Sc82  1  0.09784760  0.50370147  0.30892218  1
  Sc  Sc83  1  0.69436127  0.70449204  0.09626110  1
  Sc  Sc84  1  0.29043031  0.69692094  0.70265238  1
  Sc  Sc85  1  0.89795559  0.30439650  0.10133181  1
  Sc  Sc86  1  0.29712623  0.09797124  0.90018053  1
  Sc  Sc87  1  0.70387613  0.71206051  0.89926113  1
  Sc  Sc88  1  0.89939807  0.49281123  0.50085057  1
  Sc  Sc89  1  0.29498944  0.69491409  0.89509202  1
  Sc  Sc90  1  0.49880312  0.30217359  0.28935749  1
  Sc  Sc91  1  0.49090484  0.09440163  0.29849222  1
  Sc  Sc92  1  0.50231924  0.49330264  0.30151481  1
  Sc  Sc93  1  0.89612884  0.50249599  0.30165392  1
  Sc  Sc94  1  0.70367082  0.49856212  0.69267764  1
  Sc  Sc95  1  0.29085166  0.70660980  0.50257139  1
  Sc  Sc96  1  0.69945228  0.89823386  0.31148367  1
  Sc  Sc97  1  0.09534030  0.29370800  0.30587355  1
  Sc  Sc98  1  0.50559932  0.70438307  0.69625960  1
  Sc  Sc99  1  0.90103070  0.29308975  0.69121925  1
  Nb  Nb100  1  0.69912040  0.09866683  0.30328490  1
  Nb  Nb101  1  0.50298568  0.89918574  0.29979067  1
  Nb  Nb102  1  0.70063394  0.49493206  0.49861744  1
  Nb  Nb103  1  0.10446485  0.10575760  0.49953208  1
  Nb  Nb104  1  0.09972719  0.90538556  0.30303380  1
  Nb  Nb105  1  0.29915437  0.50240831  0.70716903  1
  Nb  Nb106  1  0.10324297  0.30381450  0.90262838  1
  Nb  Nb107  1  0.50233961  0.90906925  0.49004449  1
  Nb  Nb108  1  0.09903087  0.49111564  0.90109707  1
  Nb  Nb109  1  0.49986389  0.10235767  0.70209663  1
  Nb  Nb110  1  0.89477021  0.70151549  0.30244077  1
  Nb  Nb111  1  0.69675015  0.90893753  0.49857738  1
  Nb  Nb112  1  0.29792603  0.89585513  0.09289713  1
  Nb  Nb113  1  0.09888871  0.70354827  0.69838311  1
  Nb  Nb114  1  0.09887611  0.10252882  0.09946735  1
  Nb  Nb115  1  0.09154978  0.09774105  0.69437621  1
  Nb  Nb116  1  0.29583558  0.70261713  0.10587626  1
  Nb  Nb117  1  0.29529118  0.49868946  0.89500034  1
  Nb  Nb118  1  0.30247519  0.30161687  0.30388263  1
  Nb  Nb119  1  0.90174344  0.09570201  0.69647094  1
  Nb  Nb120  1  0.29376418  0.30397048  0.90525097  1
  Nb  Nb121  1  0.50506052  0.30041965  0.10069644  1
  Nb  Nb122  1  0.50437125  0.09169350  0.50068686  1
  Nb  Nb123  1  0.90637694  0.30049984  0.49904063  1
  Nb  Nb124  1  0.69584255  0.09172391  0.49110779  1
  Nb  Nb125  1  0.80511136  0.79534051  0.20743121  1
  Nb  Nb126  1  0.79713015  0.00355944  0.78947350  1
  Nb  Nb127  1  0.39796590  0.20740876  -0.00066708  1
  Nb  Nb128  1  0.00549592  0.00767185  -0.00099992  1
  Nb  Nb129  1  0.40565447  0.80398739  0.39820552  1
  Nb  Nb130  1  0.39049198  0.39877226  0.80225753  1
  Nb  Nb131  1  0.39677767  0.59619661  0.59875456  1
  Nb  Nb132  1  0.20136481  0.39929150  0.20310713  1
  Nb  Nb133  1  0.40126564  0.20185082  0.40241326  1
  Nb  Nb134  1  0.59601908  0.39752985  0.00350391  1
  Nb  Nb135  1  0.79541177  0.00437805  0.59925252  1
  Nb  Nb136  1  0.59920788  0.00042216  0.79892522  1
  Nb  Nb137  1  0.59640427  0.19165580  0.40257419  1
  Nb  Nb138  1  0.80440775  0.40011108  0.80051595  1
  Nb  Nb139  1  0.60141333  0.60226724  0.20280321  1
  Nb  Nb140  1  0.19237918  0.00043018  0.39769449  1
  Nb  Nb141  1  0.40267282  0.60643078  0.40808428  1
  Nb  Nb142  1  0.19991759  0.40174772  0.80432970  1
  Nb  Nb143  1  0.40705461  -0.00210951  0.79385347  1
  Nb  Nb144  1  0.60044023  -0.00198926  0.20030104  1
  Nb  Nb145  1  0.80440619  0.59974610  0.00066216  1
  Nb  Nb146  1  0.60337156  0.60212046  0.80162480  1
  Nb  Nb147  1  0.59928116  0.00258804  0.00324628  1
  Nb  Nb148  1  0.40047349  0.80387179  0.79885991  1
  Nb  Nb149  1  0.00917181  0.19797862  -0.00050766  1
  Pd  Pd150  1  0.40654455  0.00979385  -0.00300001  1
  Pd  Pd151  1  0.79890406  0.19694773  0.59519832  1
  Pd  Pd152  1  0.19454408  0.59118310  0.20590119  1
  Pd  Pd153  1  0.79679587  0.20409612  0.78920032  1
  Pd  Pd154  1  -0.00653279  0.00669070  0.58691259  1
  Pd  Pd155  1  -0.00353673  0.80620047  0.19670910  1
  Pd  Pd156  1  0.38886057  0.79777924  0.20670924  1
  Pd  Pd157  1  0.20530627  0.80790462  0.20775817  1
  Pd  Pd158  1  0.59890197  0.80064634  0.40576270  1
  Pd  Pd159  1  0.80534561  0.20663687  0.20825433  1
  Pd  Pd160  1  0.80309364  0.59090333  0.59330483  1
  Pd  Pd161  1  0.79552874  -0.00881434  0.21252019  1
  Pd  Pd162  1  -0.00181588  0.79796864  0.40434272  1
  Pd  Pd163  1  0.20132466  0.19013934  0.38771157  1
  Pd  Pd164  1  0.19290410  -0.00207806  0.00269116  1
  Pd  Pd165  1  0.79323960  0.20484270  0.39870873  1
  Pd  Pd166  1  0.40535888  -0.00351303  0.18892093  1
  Pd  Pd167  1  0.00286454  0.00732992  0.40943173  1
  Pd  Pd168  1  0.79434060  0.60482892  0.19347391  1
  Pd  Pd169  1  0.19476880  0.40111408  0.39272288  1
  Pd  Pd170  1  0.80180432  0.39457491  0.20928807  1
  Pd  Pd171  1  0.80021802  0.39622893  0.39918574  1
  Pd  Pd172  1  0.20051966  0.60359723  -0.00628406  1
  Pd  Pd173  1  0.00479334  0.59644637  0.20718228  1
  Pd  Pd174  1  0.20493466  0.59620943  0.59652641  1
  Pd  Pd175  1  0.40323094  0.39704354  -0.00173822  1
  Pd  Pd176  1  -0.00696459  0.59665560  0.40058438  1
  Pd  Pd177  1  0.40401727  0.19323153  0.59237432  1
  Pd  Pd178  1  0.39124991  0.60953501  0.00115197  1
  Pd  Pd179  1  0.19564164  0.00163012  0.59649045  1
  Pd  Pd180  1  0.00688998  0.39919433  0.20659847  1
  Pd  Pd181  1  0.59416110  0.59906912  0.39774642  1
  Pd  Pd182  1  -0.00057876  0.40028533  0.60250377  1
  Pd  Pd183  1  0.38983735  0.79059437  -0.00651726  1
  Pd  Pd184  1  0.40939506  0.60247189  0.79086797  1
  Pd  Pd185  1  0.60446130  0.00096858  0.60801431  1
  Pd  Pd186  1  0.40378558  0.00180419  0.60656812  1
  Pd  Pd187  1  0.39445128  0.40043683  0.19765087  1
  Pd  Pd188  1  0.59628670  0.59553743  0.60537761  1
  Pd  Pd189  1  0.60833111  0.59191864  0.00639399  1
  Pd  Pd190  1  0.21095623  0.81010643  0.39007468  1
  Pd  Pd191  1  0.40214463  0.39968495  0.40383384  1
  Pd  Pd192  1  0.60208645  0.40657832  0.80606575  1
  Pd  Pd193  1  0.40128903  0.40788909  0.60251621  1
  Pd  Pd194  1  0.20527455  0.20604006  0.79599781  1
  Pd  Pd195  1  0.38965337  0.20089192  0.80568448  1
  Pd  Pd196  1  -0.00797998  0.00481985  0.80807793  1
  Pd  Pd197  1  0.00402960  0.60463403  0.80171717  1
  Pd  Pd198  1  0.20278362  0.20643416  0.20645751  1
  Pd  Pd199  1  -0.00231456  0.19926335  0.80360164  1
  Rh  Rh200  1  0.80202602  0.00733969  -0.01137182  1
  Rh  Rh201  1  0.80317267  0.59275951  0.40652001  1
  Rh  Rh202  1  0.60504760  0.40021940  0.59660093  1
  Rh  Rh203  1  0.19185397  0.40356980  0.60856861  1
  Rh  Rh204  1  0.60277122  0.39009270  0.40343873  1
  Rh  Rh205  1  0.59474918  0.20354920  -0.00111580  1
  Rh  Rh206  1  0.39642587  0.20677299  0.19929798  1
  Rh  Rh207  1  -0.00023140  0.59981113  -0.00129924  1
  Rh  Rh208  1  0.19369399  0.19496905  0.60452526  1
  Rh  Rh209  1  0.00032727  0.19435657  0.59432621  1
  Rh  Rh210  1  0.00312305  -0.00952309  0.18932847  1
  Rh  Rh211  1  -0.00547619  0.20592668  0.19508049  1
  Rh  Rh212  1  0.81189425  0.19982136  0.01075328  1
  Rh  Rh213  1  0.59862356  0.19080547  0.21098454  1
  Rh  Rh214  1  0.20518034  0.79406873  0.00089668  1
  Rh  Rh215  1  0.79369599  0.59700841  0.80689092  1
  Rh  Rh216  1  0.20219899  0.19846360  -0.00081725  1
  Rh  Rh217  1  0.60985624  0.80170790  0.19932615  1
  Rh  Rh218  1  0.81014668  0.80540341  0.79466757  1
  Rh  Rh219  1  -0.00148425  0.39898131  0.40137005  1
  Rh  Rh220  1  0.00307568  0.39153123  0.00547120  1
  Rh  Rh221  1  -0.00159398  0.60120685  0.59888620  1
  Rh  Rh222  1  0.39401378  0.78969475  0.59892716  1
  Rh  Rh223  1  0.80134920  0.80533312  0.39946054  1
  Rh  Rh224  1  0.59573620  0.41119006  0.19117400  1
  Rh  Rh225  1  0.00208827  0.39560115  0.79488071  1
  Rh  Rh226  1  0.80401961  0.39875526  0.60354921  1
  Rh  Rh227  1  0.20086907  0.40392758  0.00306210  1
  Rh  Rh228  1  0.59954144  0.80807934  0.00610655  1
  Rh  Rh229  1  0.80386779  -0.00106357  0.40369068  1
  Rh  Rh230  1  0.18860823  0.59684717  0.80552268  1
  Rh  Rh231  1  0.00224195  0.80887611  0.00518725  1
  Rh  Rh232  1  0.40525649  0.60456730  0.20696524  1
  Rh  Rh233  1  0.60758588  0.19661929  0.80200142  1
  Rh  Rh234  1  0.19344225  0.79766718  0.60428616  1
  Rh  Rh235  1  0.80826590  0.78733322  0.01362369  1
  Rh  Rh236  1  0.79538624  0.80834663  0.59030531  1
  Rh  Rh237  1  0.00495603  0.79235716  0.59594389  1
  Rh  Rh238  1  0.20697125  0.59635527  0.40433019  1
  Rh  Rh239  1  0.79454847  0.40567507  -0.00237904  1
  Rh  Rh240  1  0.20371219  -0.00220401  0.78990788  1
  Rh  Rh241  1  0.39586526  -0.00049630  0.39797439  1
  Rh  Rh242  1  -0.00123721  0.79485933  0.79591106  1
  Rh  Rh243  1  0.59082953  0.79845479  0.79875029  1
  Rh  Rh244  1  0.19776009  -0.00503953  0.19911972  1
  Rh  Rh245  1  0.00134015  0.19682675  0.40405901  1
  Rh  Rh246  1  0.60821747  0.80400333  0.58951072  1
  Rh  Rh247  1  0.20186916  0.79919729  0.79692116  1
  Rh  Rh248  1  0.59533541  0.00434568  0.38798360  1
  Rh  Rh249  1  0.59765776  0.19623083  0.58954304  1
