# generated using pymatgen
data_ZrScNbPdRh
_symmetry_space_group_name_H-M   'P 1'
_cell_length_a   16.56550313
_cell_length_b   16.56059363
_cell_length_c   16.55697810
_cell_angle_alpha   89.99467886
_cell_angle_beta   90.02730814
_cell_angle_gamma   89.98423119
_symmetry_Int_Tables_number   1
_chemical_formula_structural   ZrScNbPdRh
_chemical_formula_sum   'Zr50 Sc50 Nb50 Pd50 Rh50'
_cell_volume   4542.15068659
_cell_formula_units_Z   50
loop_
 _symmetry_equiv_pos_site_id
 _symmetry_equiv_pos_as_xyz
  1  'x, y, z'
loop_
 _atom_site_type_symbol
 _atom_site_label
 _atom_site_symmetry_multiplicity
 _atom_site_fract_x
 _atom_site_fract_y
 _atom_site_fract_z
 _atom_site_occupancy
  Zr  Zr0  1  0.50219329  0.69262797  0.70422248  1
  Zr  Zr1  1  0.90443060  0.51269797  0.49735306  1
  Zr  Zr2  1  0.70590812  0.10016430  0.11083227  1
  Zr  Zr3  1  0.10269866  0.10039105  0.29824789  1
  Zr  Zr4  1  0.50075641  0.68476897  0.30135264  1
  Zr  Zr5  1  0.49044864  0.28679427  0.10358354  1
  Zr  Zr6  1  0.69568602  0.69425572  0.69860195  1
  Zr  Zr7  1  0.29164741  0.50772643  0.09934480  1
  Zr  Zr8  1  0.90154556  0.49706850  0.29643768  1
  Zr  Zr9  1  0.30861235  0.50228150  0.29831987  1
  Zr  Zr10  1  0.09392030  0.09883896  0.89676229  1
  Zr  Zr11  1  0.29838736  0.11003812  0.70427159  1
  Zr  Zr12  1  0.89994989  0.48813631  0.09910375  1
  Zr  Zr13  1  0.90548176  0.89865775  0.69217884  1
  Zr  Zr14  1  0.89297132  0.90459462  0.89496931  1
  Zr  Zr15  1  0.30164572  0.90165158  0.10452491  1
  Zr  Zr16  1  0.30709464  0.29949442  0.50589917  1
  Zr  Zr17  1  0.10737917  0.10200794  0.49173883  1
  Zr  Zr18  1  0.49679027  0.50409160  0.09454610  1
  Zr  Zr19  1  0.90208988  0.10166339  0.10055801  1
  Zr  Zr20  1  0.48782560  0.70201156  0.50693308  1
  Zr  Zr21  1  0.90698961  0.30798165  0.49840656  1
  Zr  Zr22  1  0.70529730  0.10440627  0.70827806  1
  Zr  Zr23  1  0.90176812  0.30178639  0.70744218  1
  Zr  Zr24  1  0.69967253  0.70307434  0.89571087  1
  Zr  Zr25  1  0.10364707  0.50105596  0.89802094  1
  Zr  Zr26  1  0.69334725  0.10215758  0.49527913  1
  Zr  Zr27  1  0.90668591  0.70180721  0.69231950  1
  Zr  Zr28  1  0.69531482  0.90242197  0.30022927  1
  Zr  Zr29  1  0.49707782  0.10001900  0.09308832  1
  Zr  Zr30  1  0.50103919  0.89300230  0.68969884  1
  Zr  Zr31  1  0.69582991  0.09954031  0.90262488  1
  Zr  Zr32  1  0.30033145  0.89988973  0.90773689  1
  Zr  Zr33  1  0.89989316  0.71021476  0.49335305  1
  Zr  Zr34  1  0.69726159  0.70068744  0.10310406  1
  Zr  Zr35  1  0.70230995  0.29485289  0.90130888  1
  Zr  Zr36  1  0.70465896  0.90715802  0.10028358  1
  Zr  Zr37  1  0.49641103  0.29773567  0.49294940  1
  Zr  Zr38  1  0.91307308  0.09600422  0.49896844  1
  Zr  Zr39  1  0.49868662  0.29098670  0.90472708  1
  Zr  Zr40  1  0.29995199  0.50184018  0.89875049  1
  Zr  Zr41  1  0.69503790  0.29916153  0.50246600  1
  Zr  Zr42  1  0.89825121  0.29836488  0.10516281  1
  Zr  Zr43  1  0.70433670  0.90494184  0.90264836  1
  Zr  Zr44  1  0.70755567  0.30191537  0.09650103  1
  Zr  Zr45  1  0.10698784  0.90107051  0.29545017  1
  Zr  Zr46  1  0.29567837  0.30324426  0.69988533  1
  Zr  Zr47  1  0.50111876  0.90977363  0.91114860  1
  Zr  Zr48  1  0.90503698  0.69700258  0.89370893  1
  Zr  Zr49  1  0.09949269  0.89389721  0.10539024  1
  Sc  Sc50  1  0.91072655  0.89690000  0.29771997  1
  Sc  Sc51  1  0.29828683  0.49575107  0.70315395  1
  Sc  Sc52  1  0.10347429  0.49889660  0.29344274  1
  Sc  Sc53  1  0.11420297  0.90269652  0.89384174  1
  Sc  Sc54  1  0.09700075  0.30327994  0.90214510  1
  Sc  Sc55  1  0.90707602  0.09393834  0.71481790  1
  Sc  Sc56  1  0.70067258  0.29318694  0.29159045  1
  Sc  Sc57  1  0.29056425  0.89641172  0.70883520  1
  Sc  Sc58  1  0.29850823  0.69406321  0.69975390  1
  Sc  Sc59  1  0.10076992  0.69331704  0.89426726  1
  Sc  Sc60  1  0.08618077  0.69460187  0.49771578  1
  Sc  Sc61  1  0.29585262  0.09899968  0.90550757  1
  Sc  Sc62  1  0.08350979  0.90365688  0.49903280  1
  Sc  Sc63  1  0.90091658  0.29666198  0.90940047  1
  Sc  Sc64  1  0.70993865  0.69564692  0.49856865  1
  Sc  Sc65  1  0.09972500  0.30151164  0.29738402  1
  Sc  Sc66  1  0.90683534  0.10153470  0.28917782  1
  Sc  Sc67  1  0.50362132  0.10566134  0.29821363  1
  Sc  Sc68  1  0.50275559  0.10183138  0.49068254  1
  Sc  Sc69  1  0.29306076  0.69781938  0.89815503  1
  Sc  Sc70  1  0.91346237  0.69875557  0.09933233  1
  Sc  Sc71  1  0.09072002  0.70427927  0.29307715  1
  Sc  Sc72  1  0.69364065  0.29893158  0.69572351  1
  Sc  Sc73  1  0.69043542  0.49659356  0.91195749  1
  Sc  Sc74  1  0.30082545  0.30122549  0.89760632  1
  Sc  Sc75  1  0.91694607  0.49561588  0.89917499  1
  Sc  Sc76  1  0.70033459  0.49302429  0.10022676  1
  Sc  Sc77  1  0.30251488  0.69693692  0.28824261  1
  Sc  Sc78  1  0.10079619  0.11074626  0.10377911  1
  Sc  Sc79  1  0.29907354  0.49624659  0.50714488  1
  Sc  Sc80  1  0.68986843  0.51271373  0.30063062  1
  Sc  Sc81  1  0.48930018  0.29975328  0.69824372  1
  Sc  Sc82  1  0.29721831  0.70383465  0.09910236  1
  Sc  Sc83  1  0.70062853  0.89636986  0.69825227  1
  Sc  Sc84  1  0.50720320  0.10506188  0.70888566  1
  Sc  Sc85  1  0.29639699  0.29337021  0.09907626  1
  Sc  Sc86  1  0.30764828  0.30498141  0.29926025  1
  Sc  Sc87  1  0.09722263  0.49848493  0.09599836  1
  Sc  Sc88  1  0.49144477  0.50246337  0.50332703  1
  Sc  Sc89  1  0.49616958  0.69918234  0.10403376  1
  Sc  Sc90  1  0.69222147  0.89487708  0.49755435  1
  Sc  Sc91  1  0.69257654  0.70415191  0.30569986  1
  Sc  Sc92  1  0.09655918  0.90275961  0.70468139  1
  Sc  Sc93  1  0.30092882  0.90751662  0.49260181  1
  Sc  Sc94  1  0.11116542  0.30294223  0.49472446  1
  Sc  Sc95  1  0.10401859  0.49858979  0.70221165  1
  Sc  Sc96  1  0.49421246  0.90437889  0.10428244  1
  Sc  Sc97  1  0.09879075  0.49824324  0.50177456  1
  Sc  Sc98  1  0.10548591  0.69390087  0.10208212  1
  Sc  Sc99  1  0.91101883  0.49883184  0.69385389  1
  Nb  Nb100  1  0.50192981  0.10165333  0.90304123  1
  Nb  Nb101  1  0.89763492  0.70059726  0.30345297  1
  Nb  Nb102  1  0.10398328  0.29796616  0.70395431  1
  Nb  Nb103  1  0.29750584  0.69989137  0.49745247  1
  Nb  Nb104  1  0.09221075  0.29505337  0.09841164  1
  Nb  Nb105  1  0.70477763  0.09669298  0.30274398  1
  Nb  Nb106  1  0.70310234  0.49239738  0.50513277  1
  Nb  Nb107  1  0.89310153  0.10004157  0.89977634  1
  Nb  Nb108  1  0.10089023  0.70246381  0.69952855  1
  Nb  Nb109  1  0.30779192  0.10223045  0.10897441  1
  Nb  Nb110  1  0.29860039  0.09846634  0.49987096  1
  Nb  Nb111  1  0.89436349  0.89699456  0.50041659  1
  Nb  Nb112  1  0.69557365  0.49822984  0.69553925  1
  Nb  Nb113  1  0.29343923  0.08404078  0.30750283  1
  Nb  Nb114  1  0.49747527  0.90134155  0.49974631  1
  Nb  Nb115  1  0.89487523  0.30765220  0.29533696  1
  Nb  Nb116  1  0.49994686  0.89481808  0.31128415  1
  Nb  Nb117  1  0.49625598  0.50742813  0.89488954  1
  Nb  Nb118  1  0.50336886  0.69321803  0.89413590  1
  Nb  Nb119  1  0.10095327  0.09856105  0.70071968  1
  Nb  Nb120  1  0.29992984  0.90214252  0.29866389  1
  Nb  Nb121  1  0.50216937  0.50590029  0.70888416  1
  Nb  Nb122  1  0.49563770  0.49629203  0.29989581  1
  Nb  Nb123  1  0.49590152  0.30496245  0.30102902  1
  Nb  Nb124  1  0.89978294  0.90382601  0.09938783  1
  Nb  Nb125  1  0.00688128  0.19959914  0.60567524  1
  Nb  Nb126  1  0.80473013  0.20086855  0.40012202  1
  Nb  Nb127  1  0.59569838  0.40618209  0.79984806  1
  Nb  Nb128  1  0.59763031  0.40063920  0.39777503  1
  Nb  Nb129  1  0.80508177  0.59984881  -0.00087279  1
  Nb  Nb130  1  0.80256638  0.00309611  0.59324335  1
  Nb  Nb131  1  -0.00342253  -0.00266567  -0.00045439  1
  Nb  Nb132  1  0.20089799  0.00417940  0.59830983  1
  Nb  Nb133  1  0.80548965  0.79741691  0.20060813  1
  Nb  Nb134  1  0.40244030  -0.00240364  0.80028474  1
  Nb  Nb135  1  0.20349760  0.60624500  0.39997824  1
  Nb  Nb136  1  0.40638261  0.80073317  0.80500334  1
  Nb  Nb137  1  0.81093277  0.19583701  0.59644693  1
  Nb  Nb138  1  0.39717143  0.00211412  0.60087551  1
  Nb  Nb139  1  0.20411001  0.79766712  0.40059678  1
  Nb  Nb140  1  0.79716974  0.59071871  0.79918221  1
  Nb  Nb141  1  0.80144160  0.00260405  0.40143650  1
  Nb  Nb142  1  -0.00083071  0.80856322  -0.00199741  1
  Nb  Nb143  1  0.19645499  0.80009038  0.59205599  1
  Nb  Nb144  1  0.59921542  0.79955360  -0.00260440  1
  Nb  Nb145  1  0.39752616  0.80200469  0.39738000  1
  Nb  Nb146  1  0.79282876  0.40800952  0.79829740  1
  Nb  Nb147  1  0.58938334  0.39814937  0.20456473  1
  Nb  Nb148  1  0.79387379  0.40103588  0.40137826  1
  Nb  Nb149  1  0.80326784  0.60529752  0.19853751  1
  Pd  Pd150  1  0.79788224  0.59532877  0.39393544  1
  Pd  Pd151  1  0.40639721  0.00322037  0.20834501  1
  Pd  Pd152  1  0.80454292  0.39673375  0.60194084  1
  Pd  Pd153  1  0.20738502  0.20401763  0.20860705  1
  Pd  Pd154  1  0.59725352  0.59444277  0.41389026  1
  Pd  Pd155  1  0.59643344  -0.00609035  0.79592514  1
  Pd  Pd156  1  0.59859436  0.80469463  0.19459578  1
  Pd  Pd157  1  0.40461858  0.39975254  0.80063342  1
  Pd  Pd158  1  0.00023574  0.20375359  0.80240306  1
  Pd  Pd159  1  0.39455698  0.60936685  -0.00189262  1
  Pd  Pd160  1  0.19461645  0.20045341  0.59869104  1
  Pd  Pd161  1  0.59448735  0.19718418  0.60434147  1
  Pd  Pd162  1  0.19801168  0.39533715  0.19426862  1
  Pd  Pd163  1  0.58826081  0.39322404  0.00264716  1
  Pd  Pd164  1  0.39771374  0.39802250  0.00268848  1
  Pd  Pd165  1  0.59272451  0.79208444  0.40857405  1
  Pd  Pd166  1  0.59359122  0.81004321  0.80638056  1
  Pd  Pd167  1  0.39397783  0.59325013  0.60754537  1
  Pd  Pd168  1  0.80408324  0.59859543  0.60519694  1
  Pd  Pd169  1  0.19095507  0.79302436  -0.00189589  1
  Pd  Pd170  1  0.40935419  0.18956745  0.59914980  1
  Pd  Pd171  1  0.40608252  0.00058856  0.40131908  1
  Pd  Pd172  1  0.00795102  0.80595852  0.80733750  1
  Pd  Pd173  1  0.60307795  0.60556014  0.00232118  1
  Pd  Pd174  1  -0.00195498  0.59725050  0.19974921  1
  Pd  Pd175  1  0.60627631  0.79101320  0.59152568  1
  Pd  Pd176  1  0.39887732  0.40109565  0.18771636  1
  Pd  Pd177  1  0.40747542  0.79043188  -0.00497064  1
  Pd  Pd178  1  0.39120038  0.19349705  0.39207954  1
  Pd  Pd179  1  -0.00213876  -0.00302929  0.39073327  1
  Pd  Pd180  1  0.80442933  0.79199160  0.00799548  1
  Pd  Pd181  1  0.59917382  0.00465325  0.60017077  1
  Pd  Pd182  1  0.20007620  0.19981846  -0.00241996  1
  Pd  Pd183  1  0.00285654  0.40469419  0.39620795  1
  Pd  Pd184  1  0.59025890  0.00027174  0.20271308  1
  Pd  Pd185  1  0.38454448  0.80870050  0.60120937  1
  Pd  Pd186  1  0.21180480  0.20533547  0.38997724  1
  Pd  Pd187  1  0.19439233  0.00773931  0.01099301  1
  Pd  Pd188  1  0.01179466  0.39475543  0.60241345  1
  Pd  Pd189  1  -0.00190278  0.20697842  0.39522612  1
  Pd  Pd190  1  0.20637042  0.40840682  0.39978166  1
  Pd  Pd191  1  0.59872930  0.59868762  0.58944875  1
  Pd  Pd192  1  0.40342345  0.79940110  0.20689323  1
  Pd  Pd193  1  0.59938285  0.20294961  0.20001654  1
  Pd  Pd194  1  0.80088126  0.79538723  0.78895755  1
  Pd  Pd195  1  0.58680220  0.40342336  0.60135462  1
  Pd  Pd196  1  0.19740300  0.20298310  0.81034207  1
  Pd  Pd197  1  0.19806492  0.39517985  0.00257886  1
  Pd  Pd198  1  0.19829274  0.00548582  0.19046701  1
  Pd  Pd199  1  0.19303755  0.60479315  0.59464030  1
  Rh  Rh200  1  0.79835830  0.19354106  0.00077537  1
  Rh  Rh201  1  0.60682711  0.19571943  0.00797932  1
  Rh  Rh202  1  -0.00162295  0.19465458  -0.00117132  1
  Rh  Rh203  1  0.80862964  0.40935236  -0.01392996  1
  Rh  Rh204  1  0.19547729  -0.00864319  0.40541982  1
  Rh  Rh205  1  0.00244721  0.00550741  0.60497218  1
  Rh  Rh206  1  0.39262292  0.60152349  0.40036381  1
  Rh  Rh207  1  0.80070252  0.80956834  0.39114949  1
  Rh  Rh208  1  0.60975255  0.58914882  0.80380018  1
  Rh  Rh209  1  0.40108180  0.40392400  0.40665489  1
  Rh  Rh210  1  0.60023629  0.59051611  0.19300726  1
  Rh  Rh211  1  0.00120837  -0.00371166  0.80740349  1
  Rh  Rh212  1  0.00122840  0.39675949  0.80064266  1
  Rh  Rh213  1  0.00565094  0.00252130  0.19365795  1
  Rh  Rh214  1  -0.00512186  0.79949278  0.19461686  1
  Rh  Rh215  1  0.80530501  0.19852350  0.20608097  1
  Rh  Rh216  1  0.39133327  0.19181857  0.21072890  1
  Rh  Rh217  1  0.79832498  -0.00227446  0.79113508  1
  Rh  Rh218  1  0.39297176  0.60505343  0.79971712  1
  Rh  Rh219  1  0.59645219  0.21156063  0.79965032  1
  Rh  Rh220  1  0.19816877  0.60105461  -0.00133681  1
  Rh  Rh221  1  0.00532315  0.60127434  0.60304397  1
  Rh  Rh222  1  0.60360172  0.00214518  0.00774389  1
  Rh  Rh223  1  0.79502371  0.80415772  0.59961736  1
  Rh  Rh224  1  0.19885388  0.60005877  0.20471218  1
  Rh  Rh225  1  0.78342265  0.41209021  0.21482037  1
  Rh  Rh226  1  0.59985783  -0.00044994  0.39767910  1
  Rh  Rh227  1  0.00347113  0.80105711  0.39814105  1
  Rh  Rh228  1  0.40208187  0.40384123  0.60537709  1
  Rh  Rh229  1  0.00806966  0.59753019  0.39150909  1
  Rh  Rh230  1  0.19992913  0.59812481  0.79653702  1
  Rh  Rh231  1  0.00111131  0.59837299  0.79045712  1
  Rh  Rh232  1  0.20543884  0.79744547  0.20474830  1
  Rh  Rh233  1  0.80339862  0.00960917  0.00118450  1
  Rh  Rh234  1  0.20351276  0.79121431  0.79277727  1
  Rh  Rh235  1  0.38991709  0.19493768  -0.00426041  1
  Rh  Rh236  1  0.00071032  0.60605607  -0.00188772  1
  Rh  Rh237  1  0.19791065  0.39835879  0.80171482  1
  Rh  Rh238  1  0.40133196  0.19290549  0.80770191  1
  Rh  Rh239  1  0.39956811  0.59816937  0.19303888  1
  Rh  Rh240  1  0.00780012  0.79949667  0.59665237  1
  Rh  Rh241  1  -0.00028287  0.20750796  0.20413011  1
  Rh  Rh242  1  0.60456607  0.20831745  0.39032789  1
  Rh  Rh243  1  0.20703506  0.00554960  0.79234446  1
  Rh  Rh244  1  0.19870869  0.39698764  0.60208411  1
  Rh  Rh245  1  0.00839058  0.39416790  0.19651720  1
  Rh  Rh246  1  0.80697932  -0.00927495  0.21199362  1
  Rh  Rh247  1  0.00420267  0.39399862  0.00360889  1
  Rh  Rh248  1  0.39258194  0.00840455  -0.00060916  1
  Rh  Rh249  1  0.80077599  0.20699260  0.79841294  1
