# generated using pymatgen
data_ZrScNbPdRh
_symmetry_space_group_name_H-M   'P 1'
_cell_length_a   16.55297336
_cell_length_b   16.55362560
_cell_length_c   16.55826199
_cell_angle_alpha   89.98358314
_cell_angle_beta   89.96554322
_cell_angle_gamma   89.98073811
_symmetry_Int_Tables_number   1
_chemical_formula_structural   ZrScNbPdRh
_chemical_formula_sum   'Zr50 Sc50 Nb50 Pd50 Rh50'
_cell_volume   4537.15664483
_cell_formula_units_Z   50
loop_
 _symmetry_equiv_pos_site_id
 _symmetry_equiv_pos_as_xyz
  1  'x, y, z'
loop_
 _atom_site_type_symbol
 _atom_site_label
 _atom_site_symmetry_multiplicity
 _atom_site_fract_x
 _atom_site_fract_y
 _atom_site_fract_z
 _atom_site_occupancy
  Zr  Zr0  1  0.09591770  0.09622032  0.29570828  1
  Zr  Zr1  1  0.50565258  0.89433745  0.30391383  1
  Zr  Zr2  1  0.30239046  0.09832632  0.69928167  1
  Zr  Zr3  1  0.09410956  0.89763146  0.49661921  1
  Zr  Zr4  1  0.89766151  0.70887408  0.50556874  1
  Zr  Zr5  1  0.70018795  0.30454557  0.09932946  1
  Zr  Zr6  1  0.70037397  0.70600783  0.69404031  1
  Zr  Zr7  1  0.90732340  0.70810924  0.70434324  1
  Zr  Zr8  1  0.90769574  0.69838821  0.09753560  1
  Zr  Zr9  1  0.69345483  0.70101164  0.29446997  1
  Zr  Zr10  1  0.10324551  0.49473376  0.30499413  1
  Zr  Zr11  1  0.10497746  0.10032681  0.50182854  1
  Zr  Zr12  1  0.09628956  0.90323022  0.29761806  1
  Zr  Zr13  1  0.30186570  0.49161351  0.70141101  1
  Zr  Zr14  1  0.10201266  0.90100272  0.90150549  1
  Zr  Zr15  1  0.70519766  0.30553478  0.90081432  1
  Zr  Zr16  1  0.90657120  0.10243582  0.90389186  1
  Zr  Zr17  1  0.71203435  0.50318825  0.90188260  1
  Zr  Zr18  1  0.49549734  0.90317121  0.69796581  1
  Zr  Zr19  1  0.30150920  0.29907601  0.29584816  1
  Zr  Zr20  1  0.90204082  0.89573867  0.89678328  1
  Zr  Zr21  1  0.49374741  0.30081412  0.90385443  1
  Zr  Zr22  1  0.30308391  0.70409580  0.29675800  1
  Zr  Zr23  1  0.89166773  0.11144864  0.70842939  1
  Zr  Zr24  1  0.50402767  0.30420207  0.49576037  1
  Zr  Zr25  1  0.10528971  0.29641215  0.69859161  1
  Zr  Zr26  1  0.70017990  0.09764826  0.09773078  1
  Zr  Zr27  1  0.09476711  0.29648001  0.09791573  1
  Zr  Zr28  1  0.29610484  0.49747642  0.29590545  1
  Zr  Zr29  1  0.70321188  0.50010294  0.11194136  1
  Zr  Zr30  1  0.49392575  0.89999174  0.89783692  1
  Zr  Zr31  1  0.10307701  0.69462601  0.49779098  1
  Zr  Zr32  1  0.90541544  0.50502081  0.89091906  1
  Zr  Zr33  1  0.49620116  0.30074173  0.30124181  1
  Zr  Zr34  1  0.49886522  0.30166444  0.10106696  1
  Zr  Zr35  1  0.30282437  0.90361051  0.29281491  1
  Zr  Zr36  1  0.70143675  0.09410014  0.88143168  1
  Zr  Zr37  1  0.50261254  0.70619346  0.69804023  1
  Zr  Zr38  1  0.10058171  0.30199072  0.30438639  1
  Zr  Zr39  1  0.90295872  0.09978428  0.10299352  1
  Zr  Zr40  1  0.89570491  0.89974332  0.30491678  1
  Zr  Zr41  1  0.69295769  0.90153147  0.10395397  1
  Zr  Zr42  1  0.89631004  0.89495656  0.50051999  1
  Zr  Zr43  1  0.30533920  0.29200214  0.10254151  1
  Zr  Zr44  1  0.50095336  0.10074054  0.31008641  1
  Zr  Zr45  1  0.69844025  0.70492240  0.50064954  1
  Zr  Zr46  1  0.10107491  0.70045572  0.09375487  1
  Zr  Zr47  1  0.49359738  0.50160932  0.89948726  1
  Zr  Zr48  1  0.29470242  0.30243771  0.50747949  1
  Zr  Zr49  1  0.29901324  0.50357702  0.89837967  1
  Sc  Sc50  1  0.30539059  0.30002377  0.89733769  1
  Sc  Sc51  1  0.70041022  0.11185869  0.49748379  1
  Sc  Sc52  1  0.09324501  0.89840150  0.10175837  1
  Sc  Sc53  1  0.29674222  0.50834354  0.09578269  1
  Sc  Sc54  1  0.50173752  0.49638964  0.10321129  1
  Sc  Sc55  1  0.29742813  0.30032906  0.70378437  1
  Sc  Sc56  1  0.89930007  0.31044746  0.69875046  1
  Sc  Sc57  1  0.09927137  0.89487886  0.71088613  1
  Sc  Sc58  1  0.29469733  0.49822652  0.50801903  1
  Sc  Sc59  1  0.10053272  0.70247156  0.89548798  1
  Sc  Sc60  1  0.30195980  0.89187996  0.89370555  1
  Sc  Sc61  1  0.50219786  0.49165281  0.29315488  1
  Sc  Sc62  1  0.09840980  0.10032556  0.89633171  1
  Sc  Sc63  1  0.10277024  0.50862701  0.09137803  1
  Sc  Sc64  1  0.68919423  0.49029608  0.50892234  1
  Sc  Sc65  1  0.49863064  0.30179763  0.70214678  1
  Sc  Sc66  1  0.29923349  0.09098517  0.50473357  1
  Sc  Sc67  1  0.50141922  0.71157508  0.50746692  1
  Sc  Sc68  1  0.11331381  0.09897034  0.70778010  1
  Sc  Sc69  1  0.89722011  0.70174146  0.29457707  1
  Sc  Sc70  1  0.70092594  0.09244919  0.30322049  1
  Sc  Sc71  1  0.30210148  0.70072291  0.89915852  1
  Sc  Sc72  1  0.49908654  0.90060258  0.49805971  1
  Sc  Sc73  1  0.50516291  0.10052914  0.49722423  1
  Sc  Sc74  1  0.89468907  0.50774976  0.28706685  1
  Sc  Sc75  1  0.70498148  0.29402361  0.69521996  1
  Sc  Sc76  1  0.30052771  0.90207457  0.70309959  1
  Sc  Sc77  1  0.90493188  0.29704875  0.89499424  1
  Sc  Sc78  1  0.49629094  0.10304426  0.88896854  1
  Sc  Sc79  1  0.10935840  0.70057086  0.29522910  1
  Sc  Sc80  1  0.09746146  0.49667520  0.70893505  1
  Sc  Sc81  1  0.09523532  0.29801603  0.89916594  1
  Sc  Sc82  1  0.89687455  0.29170256  0.09369730  1
  Sc  Sc83  1  0.69887096  0.89418373  0.49482367  1
  Sc  Sc84  1  0.49382769  0.69515825  0.10847211  1
  Sc  Sc85  1  0.90073173  0.29071088  0.30040662  1
  Sc  Sc86  1  0.90412447  0.48084394  0.51194467  1
  Sc  Sc87  1  0.49110129  0.09114546  0.08910695  1
  Sc  Sc88  1  0.70766550  0.70216155  0.10268964  1
  Sc  Sc89  1  0.89555848  0.29611749  0.50069093  1
  Sc  Sc90  1  0.09939176  0.50287634  0.90251217  1
  Sc  Sc91  1  0.69735378  0.29734497  0.50121863  1
  Sc  Sc92  1  0.30434793  0.89980624  0.49828342  1
  Sc  Sc93  1  0.30010006  0.69313304  0.70217461  1
  Sc  Sc94  1  0.49596687  0.50159941  0.68943815  1
  Sc  Sc95  1  0.90549516  0.89393404  0.09889126  1
  Sc  Sc96  1  0.89665577  0.10050823  0.30456795  1
  Sc  Sc97  1  0.69552974  0.29929972  0.30181477  1
  Sc  Sc98  1  0.09088073  0.09213728  0.10517815  1
  Sc  Sc99  1  0.30404147  0.10486967  0.89101475  1
  Nb  Nb100  1  0.70851015  0.49846588  0.70462229  1
  Nb  Nb101  1  0.69441263  0.89853366  0.30160735  1
  Nb  Nb102  1  0.29588010  0.09447403  0.10704274  1
  Nb  Nb103  1  0.31309875  0.90349163  0.09871328  1
  Nb  Nb104  1  0.69640109  0.10157386  0.69953131  1
  Nb  Nb105  1  0.90545052  0.50455317  0.10002379  1
  Nb  Nb106  1  0.09865031  0.70106965  0.69739580  1
  Nb  Nb107  1  0.50291064  0.10276719  0.69844334  1
  Nb  Nb108  1  0.70367806  0.91094373  0.71323522  1
  Nb  Nb109  1  0.29762305  0.69795792  0.49620857  1
  Nb  Nb110  1  0.09619088  0.48957256  0.49987788  1
  Nb  Nb111  1  0.50497820  0.70104414  0.89696161  1
  Nb  Nb112  1  0.69920834  0.50286387  0.30020007  1
  Nb  Nb113  1  0.70226572  0.89948439  0.90118087  1
  Nb  Nb114  1  0.89999822  0.89962836  0.69643940  1
  Nb  Nb115  1  0.49982914  0.69502206  0.30736717  1
  Nb  Nb116  1  0.49525509  0.90109782  0.09218956  1
  Nb  Nb117  1  0.70436894  0.70504238  0.90414177  1
  Nb  Nb118  1  0.89857381  0.50114341  0.70154373  1
  Nb  Nb119  1  0.49865289  0.49788482  0.49555992  1
  Nb  Nb120  1  0.89644614  0.70206806  0.90616966  1
  Nb  Nb121  1  0.29290761  0.70216884  0.10485096  1
  Nb  Nb122  1  0.29442127  0.10011737  0.29290369  1
  Nb  Nb123  1  0.09729278  0.30781609  0.50017315  1
  Nb  Nb124  1  0.89682902  0.10099915  0.50563487  1
  Nb  Nb125  1  0.20033280  0.19997386  0.39723005  1
  Nb  Nb126  1  0.59651500  0.59594916  0.40138087  1
  Nb  Nb127  1  0.60127080  0.20042252  -0.00139254  1
  Nb  Nb128  1  0.19770856  0.79176867  0.59753474  1
  Nb  Nb129  1  0.59781428  0.80031234  -0.00247668  1
  Nb  Nb130  1  0.79719964  0.59436130  0.40739466  1
  Nb  Nb131  1  0.40370876  0.60195109  0.40289990  1
  Nb  Nb132  1  -0.00011631  0.59667064  0.60043963  1
  Nb  Nb133  1  -0.00447468  0.59391564  0.40869529  1
  Nb  Nb134  1  0.40244225  0.19865577  0.59944525  1
  Nb  Nb135  1  0.60282703  0.60632043  -0.00606678  1
  Nb  Nb136  1  0.59715339  0.19710815  0.19297759  1
  Nb  Nb137  1  0.00384611  0.19649413  0.59809679  1
  Nb  Nb138  1  -0.00204498  0.40330986  0.19380069  1
  Nb  Nb139  1  0.60792527  0.00417078  0.60772542  1
  Nb  Nb140  1  0.60489264  0.40984157  0.80070292  1
  Nb  Nb141  1  0.80518787  0.59429103  0.60124747  1
  Nb  Nb142  1  0.79870797  0.00171542  0.60676619  1
  Nb  Nb143  1  0.20456365  0.19147080  0.00729614  1
  Nb  Nb144  1  -0.00733662  0.00353133  0.60316347  1
  Nb  Nb145  1  0.79845708  -0.00409554  -0.00423130  1
  Nb  Nb146  1  0.79564848  0.40860766  0.39639220  1
  Nb  Nb147  1  0.60630641  0.60287298  0.80231443  1
  Nb  Nb148  1  0.20810166  0.00054940  0.00655405  1
  Nb  Nb149  1  0.60536568  0.80172614  0.80643246  1
  Pd  Pd150  1  0.81440169  0.40396042  0.00129928  1
  Pd  Pd151  1  0.59981091  0.39650116  0.61066286  1
  Pd  Pd152  1  0.60135931  0.00210834  -0.01023211  1
  Pd  Pd153  1  0.80136210  0.61001043  0.79403473  1
  Pd  Pd154  1  0.39771390  0.00045869  0.40020895  1
  Pd  Pd155  1  0.19433199  0.40408129  0.18681266  1
  Pd  Pd156  1  0.19697048  0.60202206  0.80098445  1
  Pd  Pd157  1  0.80861531  0.39300329  0.20540656  1
  Pd  Pd158  1  0.19151888  0.19806145  0.19968010  1
  Pd  Pd159  1  0.20422913  0.39160427  -0.00169553  1
  Pd  Pd160  1  0.40171488  0.78973414  0.00259532  1
  Pd  Pd161  1  0.19991771  0.80828945  0.19165911  1
  Pd  Pd162  1  0.39136696  0.40455453  0.00572949  1
  Pd  Pd163  1  0.39253047  0.40800985  0.40265394  1
  Pd  Pd164  1  0.40776295  0.80160476  0.19894436  1
  Pd  Pd165  1  -0.01659912  0.40608775  0.38781729  1
  Pd  Pd166  1  0.79935047  0.79900780  0.79855815  1
  Pd  Pd167  1  0.80385288  -0.00570108  0.19626178  1
  Pd  Pd168  1  0.19655467  0.39583708  0.80800709  1
  Pd  Pd169  1  0.59007823  0.79727626  0.19207586  1
  Pd  Pd170  1  0.79215230  0.20039922  0.20741042  1
  Pd  Pd171  1  0.41026407  0.00291165  0.20453373  1
  Pd  Pd172  1  0.20517808  0.80665076  0.00403962  1
  Pd  Pd173  1  0.38692776  0.79895639  0.60152897  1
  Pd  Pd174  1  0.58984118  0.00536105  0.20279443  1
  Pd  Pd175  1  0.20267091  0.59356516  0.40036689  1
  Pd  Pd176  1  0.40952452  0.18809012  0.19735064  1
  Pd  Pd177  1  -0.00594847  0.40167560  0.00159625  1
  Pd  Pd178  1  -0.00106571  0.00327214  0.79264399  1
  Pd  Pd179  1  0.00239540  0.19702402  0.40790501  1
  Pd  Pd180  1  0.19344171  0.59525040  0.60587805  1
  Pd  Pd181  1  0.40216068  0.60704186  0.00365309  1
  Pd  Pd182  1  0.39085908  0.00474888  -0.01231741  1
  Pd  Pd183  1  0.38794583  0.19512854  0.40954830  1
  Pd  Pd184  1  0.19128697  -0.01528814  0.60618077  1
  Pd  Pd185  1  0.00132850  0.78692676  0.39023265  1
  Pd  Pd186  1  0.79446266  0.19220012  -0.00806844  1
  Pd  Pd187  1  -0.00679532  0.00534041  0.40463382  1
  Pd  Pd188  1  0.20545930  0.00186495  0.39665010  1
  Pd  Pd189  1  0.40056720  0.60270958  0.59168532  1
  Pd  Pd190  1  0.59960361  0.21296183  0.80263193  1
  Pd  Pd191  1  0.20458216  0.80624162  0.40223919  1
  Pd  Pd192  1  0.40505827  0.60181492  0.79499878  1
  Pd  Pd193  1  0.01032824  0.59767828  0.20744853  1
  Pd  Pd194  1  0.80225628  0.80306900  0.19859852  1
  Pd  Pd195  1  0.79307162  0.00158360  0.40879885  1
  Pd  Pd196  1  0.60285193  0.59614859  0.60004441  1
  Pd  Pd197  1  0.80075286  0.60003253  0.00806830  1
  Pd  Pd198  1  0.60006419  0.40691733  -0.00484351  1
  Pd  Pd199  1  0.39992744  0.59443511  0.20506063  1
  Rh  Rh200  1  0.81198398  -0.00057245  0.80201605  1
  Rh  Rh201  1  0.00773041  0.39627870  0.60977894  1
  Rh  Rh202  1  0.79959461  0.60491840  0.19845520  1
  Rh  Rh203  1  0.79358662  0.40090890  0.59684163  1
  Rh  Rh204  1  0.40216437  0.79560658  0.79521902  1
  Rh  Rh205  1  0.79882885  0.80815164  0.00608728  1
  Rh  Rh206  1  0.60648044  -0.00302805  0.40837190  1
  Rh  Rh207  1  0.80421486  0.19956970  0.60026743  1
  Rh  Rh208  1  0.58961347  -0.00522547  0.79786527  1
  Rh  Rh209  1  -0.00017395  0.60592660  0.79890584  1
  Rh  Rh210  1  0.19791205  0.60055232  0.19654000  1
  Rh  Rh211  1  0.39743653  0.19422790  0.00211663  1
  Rh  Rh212  1  0.01194915  0.80493570  0.60426494  1
  Rh  Rh213  1  0.20013256  0.20185199  0.59300662  1
  Rh  Rh214  1  0.59822695  0.79546886  0.39995267  1
  Rh  Rh215  1  -0.01078271  -0.00392472  0.20465377  1
  Rh  Rh216  1  0.20385158  0.60962065  -0.00399404  1
  Rh  Rh217  1  0.20539642  -0.00421498  0.81105496  1
  Rh  Rh218  1  0.20007811  -0.00992659  0.19309397  1
  Rh  Rh219  1  0.39953492  0.20262300  0.78723079  1
  Rh  Rh220  1  0.20680267  0.39562639  0.40503076  1
  Rh  Rh221  1  0.00056342  0.79736331  0.80634422  1
  Rh  Rh222  1  0.60656186  0.81917901  0.60916918  1
  Rh  Rh223  1  0.60558012  0.40457430  0.39561029  1
  Rh  Rh224  1  0.00393581  0.20305748  0.79004102  1
  Rh  Rh225  1  0.59911845  0.60064878  0.19813627  1
  Rh  Rh226  1  0.40357124  0.39208958  0.59795553  1
  Rh  Rh227  1  0.79916111  0.20922304  0.80180635  1
  Rh  Rh228  1  0.39856586  0.79470611  0.40053520  1
  Rh  Rh229  1  0.60038771  0.39353023  0.20499002  1
  Rh  Rh230  1  0.19386639  0.40619820  0.60520064  1
  Rh  Rh231  1  0.00916729  0.19379182  0.00065577  1
  Rh  Rh232  1  0.20196965  0.79519751  0.79062880  1
  Rh  Rh233  1  0.79334557  0.79524036  0.38778065  1
  Rh  Rh234  1  0.79267482  0.80875984  0.60670886  1
  Rh  Rh235  1  0.00173445  0.79584324  -0.00551724  1
  Rh  Rh236  1  0.40568487  0.40185840  0.79644869  1
  Rh  Rh237  1  0.00001543  -0.00251438  -0.00047039  1
  Rh  Rh238  1  0.41105028  0.00871689  0.59701518  1
  Rh  Rh239  1  0.00151721  0.79902690  0.20511282  1
  Rh  Rh240  1  0.39920055  0.00278436  0.79899754  1
  Rh  Rh241  1  -0.00166145  0.20469476  0.19949456  1
  Rh  Rh242  1  0.39364103  0.40616377  0.19412217  1
  Rh  Rh243  1  0.59166522  0.19724320  0.59828586  1
  Rh  Rh244  1  0.80023102  0.39508949  0.79810217  1
  Rh  Rh245  1  0.00082284  0.39974200  0.80019850  1
  Rh  Rh246  1  0.20129730  0.20282189  0.81208626  1
  Rh  Rh247  1  0.60423455  0.20031452  0.39167224  1
  Rh  Rh248  1  -0.00068896  0.60404166  -0.00962592  1
  Rh  Rh249  1  0.79793455  0.20618962  0.40015874  1
