# generated using pymatgen
data_ZrScNbPdRh
_symmetry_space_group_name_H-M   'P 1'
_cell_length_a   16.56416774
_cell_length_b   16.56411329
_cell_length_c   16.55941401
_cell_angle_alpha   89.97665244
_cell_angle_beta   89.97905637
_cell_angle_gamma   89.99862457
_symmetry_Int_Tables_number   1
_chemical_formula_structural   ZrScNbPdRh
_chemical_formula_sum   'Zr50 Sc50 Nb50 Pd50 Rh50'
_cell_volume   4543.41817432
_cell_formula_units_Z   50
loop_
 _symmetry_equiv_pos_site_id
 _symmetry_equiv_pos_as_xyz
  1  'x, y, z'
loop_
 _atom_site_type_symbol
 _atom_site_label
 _atom_site_symmetry_multiplicity
 _atom_site_fract_x
 _atom_site_fract_y
 _atom_site_fract_z
 _atom_site_occupancy
  Zr  Zr0  1  0.49438567  0.69483794  0.49971522  1
  Zr  Zr1  1  0.29499822  0.30253076  0.29771223  1
  Zr  Zr2  1  0.70493558  0.10543989  0.29918302  1
  Zr  Zr3  1  0.89806721  0.89712016  0.30000334  1
  Zr  Zr4  1  0.10146869  0.89600752  0.68907394  1
  Zr  Zr5  1  0.49345658  0.90107573  0.29861067  1
  Zr  Zr6  1  0.29784266  0.89374035  0.10314121  1
  Zr  Zr7  1  0.70495322  0.29990914  0.10932639  1
  Zr  Zr8  1  0.49687148  0.69617810  0.10017891  1
  Zr  Zr9  1  0.69866341  0.70143173  0.90423898  1
  Zr  Zr10  1  0.10877437  0.30132138  0.10602323  1
  Zr  Zr11  1  0.70968674  0.49152346  0.50082970  1
  Zr  Zr12  1  0.29698846  0.89215767  0.29883222  1
  Zr  Zr13  1  0.49861735  0.10247264  0.90914159  1
  Zr  Zr14  1  0.09941643  0.11609670  0.30466445  1
  Zr  Zr15  1  0.70219905  0.70332210  0.30014713  1
  Zr  Zr16  1  0.49269111  0.30881151  0.69846274  1
  Zr  Zr17  1  0.10334235  0.88914666  0.30939023  1
  Zr  Zr18  1  0.11046196  0.30594491  0.89588208  1
  Zr  Zr19  1  0.30454798  0.50542534  0.10434509  1
  Zr  Zr20  1  0.90073207  0.29435121  0.89874914  1
  Zr  Zr21  1  0.89075419  0.89488102  0.69143113  1
  Zr  Zr22  1  0.09779834  0.10786741  0.10452380  1
  Zr  Zr23  1  0.29878890  0.10004746  0.89264207  1
  Zr  Zr24  1  0.49429491  0.30473159  0.89624993  1
  Zr  Zr25  1  0.10047731  0.10316237  0.69185005  1
  Zr  Zr26  1  0.49028586  0.10656869  0.49553747  1
  Zr  Zr27  1  0.70420195  0.30087693  0.70061386  1
  Zr  Zr28  1  0.28949050  0.90544169  0.90417359  1
  Zr  Zr29  1  0.29019560  0.90413177  0.49242876  1
  Zr  Zr30  1  0.09834908  0.30282847  0.49586956  1
  Zr  Zr31  1  0.49547954  0.50019884  0.10096308  1
  Zr  Zr32  1  0.29605286  0.10598415  0.69696369  1
  Zr  Zr33  1  0.49930421  0.90059336  0.49181540  1
  Zr  Zr34  1  0.30898886  0.29363757  0.50916953  1
  Zr  Zr35  1  0.89908464  0.30290247  0.50026032  1
  Zr  Zr36  1  0.90057152  0.50526728  0.89921997  1
  Zr  Zr37  1  0.49980976  0.49914213  0.89020775  1
  Zr  Zr38  1  0.89649241  0.90186392  0.49668314  1
  Zr  Zr39  1  0.49088234  0.68904562  0.70261819  1
  Zr  Zr40  1  0.50739341  0.90515800  0.89394032  1
  Zr  Zr41  1  0.89937783  0.10250408  0.89578131  1
  Zr  Zr42  1  0.10114440  0.50600291  0.09672249  1
  Zr  Zr43  1  0.09566081  0.89502838  0.50087163  1
  Zr  Zr44  1  0.89880416  0.91152517  0.89936293  1
  Zr  Zr45  1  0.29411982  0.68959212  0.69494197  1
  Zr  Zr46  1  0.69831724  0.89487985  0.89354709  1
  Zr  Zr47  1  0.49663355  0.49532501  0.69898794  1
  Zr  Zr48  1  0.10169850  0.90270094  0.89596510  1
  Zr  Zr49  1  0.90473768  0.29200698  0.30391086  1
  Sc  Sc50  1  0.69976863  0.48933856  0.29914560  1
  Sc  Sc51  1  0.89874485  0.69787124  0.69515159  1
  Sc  Sc52  1  0.90032583  0.10334107  0.69616854  1
  Sc  Sc53  1  0.29654348  0.09950590  0.31400401  1
  Sc  Sc54  1  0.89379601  0.09874915  0.09451550  1
  Sc  Sc55  1  0.10669661  0.89785250  0.09148020  1
  Sc  Sc56  1  0.69971220  0.90741097  0.10164836  1
  Sc  Sc57  1  0.88949706  0.69548480  0.88807948  1
  Sc  Sc58  1  0.09887216  0.50047843  0.31368951  1
  Sc  Sc59  1  0.90859339  0.70413987  0.30401160  1
  Sc  Sc60  1  0.70209223  0.30043203  0.49573918  1
  Sc  Sc61  1  0.89823042  0.70213274  0.50016211  1
  Sc  Sc62  1  0.50829193  0.69459692  0.90355925  1
  Sc  Sc63  1  0.70940756  0.70580106  0.70779585  1
  Sc  Sc64  1  0.70155219  0.50611452  0.90349852  1
  Sc  Sc65  1  0.30762241  0.49913972  0.30446637  1
  Sc  Sc66  1  0.69273374  0.10074645  0.10626243  1
  Sc  Sc67  1  0.10351516  0.68689315  0.89959247  1
  Sc  Sc68  1  0.30190871  0.49663866  0.49804202  1
  Sc  Sc69  1  0.90778112  0.70083187  0.11318605  1
  Sc  Sc70  1  0.49533171  0.09127660  0.71325205  1
  Sc  Sc71  1  0.69647792  0.49718610  0.10053610  1
  Sc  Sc72  1  0.70708309  0.70570620  0.49618852  1
  Sc  Sc73  1  0.50305909  0.30018322  0.30999797  1
  Sc  Sc74  1  0.90459915  0.29096935  0.69351505  1
  Sc  Sc75  1  0.09896920  0.09526455  0.89405012  1
  Sc  Sc76  1  0.70256065  0.90580222  0.30668277  1
  Sc  Sc77  1  0.28875578  0.50014973  0.89788800  1
  Sc  Sc78  1  0.10002952  0.70307248  0.10034345  1
  Sc  Sc79  1  0.50803344  0.09656052  0.30290518  1
  Sc  Sc80  1  0.69003228  0.69817788  0.09428898  1
  Sc  Sc81  1  0.29821527  0.68956026  0.49693130  1
  Sc  Sc82  1  0.50265031  0.30342265  0.09226222  1
  Sc  Sc83  1  0.30298937  0.31381811  0.10018318  1
  Sc  Sc84  1  0.90686885  0.50364810  0.30626710  1
  Sc  Sc85  1  0.30088688  0.50056731  0.69942169  1
  Sc  Sc86  1  0.89787283  0.29180009  0.10051137  1
  Sc  Sc87  1  0.69909145  0.49440744  0.70185546  1
  Sc  Sc88  1  0.70621043  0.29559897  0.30380703  1
  Sc  Sc89  1  0.89872424  0.50530995  0.69143916  1
  Sc  Sc90  1  0.70578660  0.09997714  0.70261900  1
  Sc  Sc91  1  0.70209070  0.09372268  0.90136494  1
  Sc  Sc92  1  0.49433468  0.49600448  0.29747037  1
  Sc  Sc93  1  0.48913948  0.69696071  0.30085879  1
  Sc  Sc94  1  0.70117633  0.30153853  0.90820805  1
  Sc  Sc95  1  0.90177888  0.50479135  0.10418696  1
  Sc  Sc96  1  0.10768214  0.30023557  0.69280363  1
  Sc  Sc97  1  0.90293978  0.49589754  0.49802389  1
  Sc  Sc98  1  0.70348854  0.10055001  0.49153806  1
  Sc  Sc99  1  0.30515960  0.08877861  0.09128246  1
  Nb  Nb100  1  0.10016758  0.29758851  0.29546062  1
  Nb  Nb101  1  0.29640839  0.10139615  0.50079127  1
  Nb  Nb102  1  0.49627019  0.49417835  0.49912191  1
  Nb  Nb103  1  0.49837986  0.09625456  0.10594413  1
  Nb  Nb104  1  0.69359250  0.90024324  0.69722211  1
  Nb  Nb105  1  0.10567918  0.51042813  0.70375006  1
  Nb  Nb106  1  0.10298728  0.69919311  0.69105322  1
  Nb  Nb107  1  0.29961032  0.70517668  0.10096153  1
  Nb  Nb108  1  0.90087632  0.90068028  0.09935294  1
  Nb  Nb109  1  0.49892666  0.90024583  0.70160043  1
  Nb  Nb110  1  0.10876876  0.10070256  0.49866651  1
  Nb  Nb111  1  0.70033675  0.89858362  0.50701018  1
  Nb  Nb112  1  0.49807299  0.30166666  0.50566547  1
  Nb  Nb113  1  0.29893340  0.29873003  0.70745694  1
  Nb  Nb114  1  0.90789919  0.10218733  0.49003513  1
  Nb  Nb115  1  0.29588316  0.29928416  0.89030332  1
  Nb  Nb116  1  0.10351964  0.70233689  0.50616580  1
  Nb  Nb117  1  0.30128939  0.90085060  0.70228809  1
  Nb  Nb118  1  0.90064255  0.09840555  0.30584978  1
  Nb  Nb119  1  0.09901764  0.49802545  0.50613392  1
  Nb  Nb120  1  0.29554559  0.70413452  0.29284357  1
  Nb  Nb121  1  0.10176016  0.69992771  0.30407158  1
  Nb  Nb122  1  0.30192855  0.70396360  0.89883977  1
  Nb  Nb123  1  0.49794796  0.90491837  0.10371708  1
  Nb  Nb124  1  0.09888734  0.49763353  0.89911243  1
  Nb  Nb125  1  0.20554225  0.20444839  -0.00385688  1
  Nb  Nb126  1  0.59874080  0.59393849  0.40665747  1
  Nb  Nb127  1  0.39999366  0.80145191  -0.00142000  1
  Nb  Nb128  1  0.40463646  0.19522350  0.19582003  1
  Nb  Nb129  1  -0.00667602  0.80178880  -0.00872811  1
  Nb  Nb130  1  0.00439431  0.40697824  0.80059201  1
  Nb  Nb131  1  0.00552481  0.79813155  0.79682953  1
  Nb  Nb132  1  0.39874118  0.80755410  0.60485118  1
  Nb  Nb133  1  0.59702199  -0.00284568  0.60070120  1
  Nb  Nb134  1  0.00666008  0.39469185  0.20072550  1
  Nb  Nb135  1  0.00465115  0.40081582  -0.00129733  1
  Nb  Nb136  1  0.59908749  0.59896799  0.59362185  1
  Nb  Nb137  1  0.59796045  0.20448457  0.79870785  1
  Nb  Nb138  1  0.59305282  0.80439238  0.19985894  1
  Nb  Nb139  1  0.20026146  0.79517727  0.79344883  1
  Nb  Nb140  1  0.00048844  -0.00031663  0.20439137  1
  Nb  Nb141  1  0.79735164  0.60209941  0.20463151  1
  Nb  Nb142  1  0.80709654  0.80564350  0.00263225  1
  Nb  Nb143  1  0.20078778  0.60818428  0.20577905  1
  Nb  Nb144  1  0.39462001  0.80153791  0.80155424  1
  Nb  Nb145  1  0.39859044  -0.00276053  0.59892957  1
  Nb  Nb146  1  0.19347177  -0.00092793  0.20560674  1
  Nb  Nb147  1  0.59244716  0.19815251  0.60238060  1
  Nb  Nb148  1  0.59613216  0.80186465  0.60223143  1
  Nb  Nb149  1  0.81021941  0.39843877  0.80267623  1
  Pd  Pd150  1  0.79057713  0.19292307  0.00195953  1
  Pd  Pd151  1  0.59929332  0.40113991  0.40073244  1
  Pd  Pd152  1  0.60271800  0.39890234  0.59578166  1
  Pd  Pd153  1  0.81280342  0.40660551  0.20533288  1
  Pd  Pd154  1  0.20001926  0.59997022  0.39936940  1
  Pd  Pd155  1  0.59184048  0.20637345  0.20257016  1
  Pd  Pd156  1  0.38988559  0.00811548  0.21041453  1
  Pd  Pd157  1  -0.00685825  0.60686374  -0.00066564  1
  Pd  Pd158  1  0.60090501  0.79372566  0.39834118  1
  Pd  Pd159  1  0.00058654  0.60106873  0.59308009  1
  Pd  Pd160  1  0.00853436  0.20681552  0.79511314  1
  Pd  Pd161  1  0.00152502  0.60348122  0.79443904  1
  Pd  Pd162  1  0.80826806  0.40176753  -0.00025906  1
  Pd  Pd163  1  0.60413120  0.60270713  0.20910176  1
  Pd  Pd164  1  0.60417754  0.19942223  -0.00097216  1
  Pd  Pd165  1  0.79090541  0.60389106  0.60104632  1
  Pd  Pd166  1  0.39832831  0.20413833  0.39007427  1
  Pd  Pd167  1  0.80557684  0.61111756  0.01332243  1
  Pd  Pd168  1  -0.00202008  -0.00400976  0.78493072  1
  Pd  Pd169  1  -0.00450128  0.00520896  0.59736380  1
  Pd  Pd170  1  0.20437236  0.40276905  0.60248558  1
  Pd  Pd171  1  0.20434415  0.60478447  0.00522159  1
  Pd  Pd172  1  0.39223258  0.20546639  0.00869651  1
  Pd  Pd173  1  0.79599827  0.00912640  0.59402671  1
  Pd  Pd174  1  0.00411487  -0.00014412  0.00791409  1
  Pd  Pd175  1  0.60198877  0.40398564  -0.00180041  1
  Pd  Pd176  1  0.80532257  0.00525768  0.20068996  1
  Pd  Pd177  1  0.00844393  0.80777793  0.19416227  1
  Pd  Pd178  1  0.20397007  -0.00016401  0.60015269  1
  Pd  Pd179  1  0.39202905  0.40379488  -0.00932851  1
  Pd  Pd180  1  0.60897266  0.60034842  0.79217350  1
  Pd  Pd181  1  0.21988510  0.18993987  0.19107847  1
  Pd  Pd182  1  0.20240974  0.39740101  0.40171224  1
  Pd  Pd183  1  0.19546942  0.41734050  0.20901008  1
  Pd  Pd184  1  0.40583084  0.19995290  0.79602086  1
  Pd  Pd185  1  0.79673508  0.59708466  0.39347240  1
  Pd  Pd186  1  0.00147826  0.40299049  0.60826495  1
  Pd  Pd187  1  0.00328267  0.60499737  0.41129967  1
  Pd  Pd188  1  0.79065122  0.79480109  0.19081472  1
  Pd  Pd189  1  0.00951092  0.20567843  -0.00210694  1
  Pd  Pd190  1  0.79795118  -0.00056650  0.79407326  1
  Pd  Pd191  1  0.39957481  0.60326801  -0.00788797  1
  Pd  Pd192  1  0.79503332  0.19474721  0.59179698  1
  Pd  Pd193  1  0.59291100  0.79025398  0.79302901  1
  Pd  Pd194  1  0.60438247  0.00248763  0.40260892  1
  Pd  Pd195  1  0.00622324  0.00091408  0.39557304  1
  Pd  Pd196  1  0.59451061  0.39291947  0.20294416  1
  Pd  Pd197  1  0.60315802  -0.00035693  0.00328333  1
  Pd  Pd198  1  0.39005102  0.79456008  0.40523865  1
  Pd  Pd199  1  0.40228381  -0.00771214  -0.00391497  1
  Rh  Rh200  1  0.40240435  0.59583221  0.39620340  1
  Rh  Rh201  1  0.20129628  0.78842148  0.40869114  1
  Rh  Rh202  1  0.19685763  -0.00108667  0.78885898  1
  Rh  Rh203  1  0.39193360  0.40276722  0.60071252  1
  Rh  Rh204  1  0.19211699  0.00293646  0.39629695  1
  Rh  Rh205  1  0.80755178  0.39573184  0.60667948  1
  Rh  Rh206  1  0.00239621  0.20282710  0.40659268  1
  Rh  Rh207  1  0.60065508  0.20327789  0.40917205  1
  Rh  Rh208  1  0.00324523  0.19564757  0.59017695  1
  Rh  Rh209  1  0.79564751  0.58920640  0.79382595  1
  Rh  Rh210  1  0.80211425  0.80500468  0.40154865  1
  Rh  Rh211  1  0.59805105  0.80947243  0.01060145  1
  Rh  Rh212  1  0.38719258  0.40509221  0.80174666  1
  Rh  Rh213  1  0.20270043  0.39785113  -0.00099898  1
  Rh  Rh214  1  0.39419685  -0.00314715  0.80207100  1
  Rh  Rh215  1  0.19507344  0.19643692  0.80203080  1
  Rh  Rh216  1  0.19547412  0.59179965  0.59173594  1
  Rh  Rh217  1  0.79901305  -0.00072478  0.40305013  1
  Rh  Rh218  1  0.19083683  0.01427308  0.00871599  1
  Rh  Rh219  1  -0.00053760  0.79311624  0.40795505  1
  Rh  Rh220  1  0.39966280  0.39481433  0.40321374  1
  Rh  Rh221  1  0.40510902  0.19390966  0.60889410  1
  Rh  Rh222  1  0.79428004  0.79673723  0.59852864  1
  Rh  Rh223  1  0.19740148  0.79015006  -0.00926423  1
  Rh  Rh224  1  0.61255444  0.39282936  0.80813951  1
  Rh  Rh225  1  0.59993049  -0.00583445  0.20340728  1
  Rh  Rh226  1  -0.01176079  0.19827186  0.19935570  1
  Rh  Rh227  1  0.60637471  0.00952490  0.79561393  1
  Rh  Rh228  1  0.80331540  0.19953046  0.40263542  1
  Rh  Rh229  1  0.79379143  0.20466423  0.80385608  1
  Rh  Rh230  1  -0.00461720  0.79296160  0.59948857  1
  Rh  Rh231  1  0.80306409  0.19320204  0.19942102  1
  Rh  Rh232  1  0.19814879  0.40572301  0.78928367  1
  Rh  Rh233  1  0.00277942  0.39671234  0.39623918  1
  Rh  Rh234  1  0.19144173  0.79836013  0.19914840  1
  Rh  Rh235  1  0.40710490  0.38781254  0.20591606  1
  Rh  Rh236  1  0.40212262  0.59183904  0.59494585  1
  Rh  Rh237  1  0.80738681  0.80661371  0.80378102  1
  Rh  Rh238  1  0.79457848  -0.00148997  0.00223279  1
  Rh  Rh239  1  0.59368435  0.58804704  0.00078244  1
  Rh  Rh240  1  0.39127825  0.60314400  0.20509928  1
  Rh  Rh241  1  0.20193606  0.20832477  0.40893091  1
  Rh  Rh242  1  0.19940675  0.20479199  0.59453792  1
  Rh  Rh243  1  0.00687120  0.59234859  0.20713317  1
  Rh  Rh244  1  0.20043606  0.60218396  0.80113759  1
  Rh  Rh245  1  0.80709445  0.39785758  0.39600568  1
  Rh  Rh246  1  0.40673991  0.79642153  0.19252712  1
  Rh  Rh247  1  0.20878952  0.79669981  0.59695551  1
  Rh  Rh248  1  0.39385193  0.59821471  0.80798502  1
  Rh  Rh249  1  0.39508113  0.00193670  0.40009183  1
