# generated using pymatgen
data_ZrScNbPdRh
_symmetry_space_group_name_H-M   'P 1'
_cell_length_a   16.54943539
_cell_length_b   16.55125081
_cell_length_c   16.55235609
_cell_angle_alpha   90.00704863
_cell_angle_beta   89.97685942
_cell_angle_gamma   90.03473416
_symmetry_Int_Tables_number   1
_chemical_formula_structural   ZrScNbPdRh
_chemical_formula_sum   'Zr50 Sc50 Nb50 Pd50 Rh50'
_cell_volume   4533.91844599
_cell_formula_units_Z   50
loop_
 _symmetry_equiv_pos_site_id
 _symmetry_equiv_pos_as_xyz
  1  'x, y, z'
loop_
 _atom_site_type_symbol
 _atom_site_label
 _atom_site_symmetry_multiplicity
 _atom_site_fract_x
 _atom_site_fract_y
 _atom_site_fract_z
 _atom_site_occupancy
  Zr  Zr0  1  0.29317662  0.09649011  0.90184108  1
  Zr  Zr1  1  0.29685804  0.29692883  0.89588661  1
  Zr  Zr2  1  0.70718160  0.30103450  0.70212360  1
  Zr  Zr3  1  0.90853446  0.30380268  0.88960210  1
  Zr  Zr4  1  0.69923773  0.09386825  0.89292234  1
  Zr  Zr5  1  0.50007785  0.90365422  0.10407753  1
  Zr  Zr6  1  0.48908585  0.29924363  0.30151908  1
  Zr  Zr7  1  0.10624354  0.89931579  0.29808708  1
  Zr  Zr8  1  0.69699787  0.29641922  0.10165185  1
  Zr  Zr9  1  0.89644055  0.09770024  0.10683190  1
  Zr  Zr10  1  0.29846529  0.69817545  0.49456425  1
  Zr  Zr11  1  0.50320937  0.90549060  0.49762911  1
  Zr  Zr12  1  0.70461226  0.30342751  0.30759961  1
  Zr  Zr13  1  0.10921950  0.50160076  0.30066960  1
  Zr  Zr14  1  0.69849433  0.09445563  0.10608175  1
  Zr  Zr15  1  0.29977619  0.10012266  0.70000735  1
  Zr  Zr16  1  0.29127299  0.49565525  0.69981882  1
  Zr  Zr17  1  0.10738228  0.69622675  0.70456029  1
  Zr  Zr18  1  0.10038812  0.29736676  0.70002241  1
  Zr  Zr19  1  0.70177027  0.49488682  0.48606604  1
  Zr  Zr20  1  0.70170820  0.29934107  0.49971232  1
  Zr  Zr21  1  0.11221184  0.50458603  0.50902696  1
  Zr  Zr22  1  0.09899356  0.50710600  0.69879951  1
  Zr  Zr23  1  0.69226945  0.50174495  0.09855278  1
  Zr  Zr24  1  0.49627640  0.70606845  0.50075385  1
  Zr  Zr25  1  0.69574084  0.70227696  0.49750696  1
  Zr  Zr26  1  0.89041258  0.29718548  0.49853675  1
  Zr  Zr27  1  0.90049739  0.70460190  0.30394142  1
  Zr  Zr28  1  0.90046598  0.70069660  0.49950993  1
  Zr  Zr29  1  0.70270975  0.08992867  0.50285496  1
  Zr  Zr30  1  0.10532065  0.50334148  0.89280445  1
  Zr  Zr31  1  0.10658534  0.90220174  0.50068384  1
  Zr  Zr32  1  0.49982777  0.69720030  0.10223217  1
  Zr  Zr33  1  0.10289851  0.10357890  0.50437955  1
  Zr  Zr34  1  0.69671426  0.09759620  0.70297099  1
  Zr  Zr35  1  0.49036010  0.30690047  0.50259028  1
  Zr  Zr36  1  0.90382981  0.29400596  0.30480292  1
  Zr  Zr37  1  0.29783444  0.89591468  0.30427746  1
  Zr  Zr38  1  0.10302299  0.10055075  0.09414727  1
  Zr  Zr39  1  0.50502579  0.50515469  0.29816036  1
  Zr  Zr40  1  0.69728966  0.89685724  0.89786127  1
  Zr  Zr41  1  0.30439181  0.29786992  0.09911329  1
  Zr  Zr42  1  0.49818253  0.50143150  0.09665259  1
  Zr  Zr43  1  0.09692515  0.70128625  0.90669273  1
  Zr  Zr44  1  0.90811090  0.90217348  0.70799022  1
  Zr  Zr45  1  0.31037817  0.70910557  0.70065347  1
  Zr  Zr46  1  0.10159143  0.89552051  0.10078918  1
  Zr  Zr47  1  0.90175853  0.50374917  0.09624660  1
  Zr  Zr48  1  0.90264697  0.49350900  0.70900837  1
  Zr  Zr49  1  0.49430319  0.49676386  0.69614928  1
  Sc  Sc50  1  0.69897669  0.90573789  0.70025410  1
  Sc  Sc51  1  0.48979314  0.30394970  0.90060881  1
  Sc  Sc52  1  0.91119052  0.69750938  0.70829916  1
  Sc  Sc53  1  0.29468165  0.69782861  0.90506979  1
  Sc  Sc54  1  0.89586008  0.89349926  0.89340106  1
  Sc  Sc55  1  0.49332209  0.90321765  0.30241695  1
  Sc  Sc56  1  0.10149051  0.10274822  0.89728917  1
  Sc  Sc57  1  0.10187434  0.29801439  0.29973465  1
  Sc  Sc58  1  0.69817792  0.49717325  0.70236715  1
  Sc  Sc59  1  0.29749729  0.29974567  0.49600031  1
  Sc  Sc60  1  0.29806183  0.90267980  0.89532489  1
  Sc  Sc61  1  0.90064551  0.10216726  0.30516231  1
  Sc  Sc62  1  0.29242120  0.90645867  0.09945158  1
  Sc  Sc63  1  0.69842622  0.29766511  0.89244233  1
  Sc  Sc64  1  0.69572716  0.90240509  0.49685288  1
  Sc  Sc65  1  0.89794716  0.90712367  0.49273256  1
  Sc  Sc66  1  0.09840161  0.10461703  0.30552710  1
  Sc  Sc67  1  0.49741856  0.70104074  0.30694668  1
  Sc  Sc68  1  0.69855691  0.69999808  0.90516614  1
  Sc  Sc69  1  0.29967378  0.50170507  0.30386474  1
  Sc  Sc70  1  0.30257528  0.10510759  0.50245085  1
  Sc  Sc71  1  0.30259793  0.50459929  0.10403414  1
  Sc  Sc72  1  0.30211569  0.10154308  0.30782990  1
  Sc  Sc73  1  0.69282786  0.69669022  0.70477687  1
  Sc  Sc74  1  0.30279421  0.30087416  0.69511389  1
  Sc  Sc75  1  0.49566076  0.30070375  0.10593490  1
  Sc  Sc76  1  0.70141365  0.70124377  0.08875435  1
  Sc  Sc77  1  0.70499942  0.90476024  0.09617770  1
  Sc  Sc78  1  0.30182330  0.89846269  0.49876079  1
  Sc  Sc79  1  0.29891834  0.69930572  0.30125388  1
  Sc  Sc80  1  0.91596604  0.29932420  0.09902638  1
  Sc  Sc81  1  0.09617520  0.50382649  0.10393632  1
  Sc  Sc82  1  0.49045598  0.09755179  0.88626070  1
  Sc  Sc83  1  0.09763723  0.09023326  0.69650321  1
  Sc  Sc84  1  0.29164838  0.90070151  0.69944626  1
  Sc  Sc85  1  0.50126562  0.69396013  0.90422446  1
  Sc  Sc86  1  0.91101892  0.49776736  0.90334083  1
  Sc  Sc87  1  0.30039328  0.49692081  0.49761637  1
  Sc  Sc88  1  0.49610919  0.09446944  0.29713764  1
  Sc  Sc89  1  0.10863406  0.29216305  0.49772385  1
  Sc  Sc90  1  0.30020050  0.30564166  0.30357911  1
  Sc  Sc91  1  0.69199835  0.69548989  0.31201564  1
  Sc  Sc92  1  0.90567696  0.50149996  0.29794003  1
  Sc  Sc93  1  0.10866919  0.70420119  0.29638549  1
  Sc  Sc94  1  0.90993484  0.69885027  0.08885390  1
  Sc  Sc95  1  0.70504933  0.09764356  0.29578286  1
  Sc  Sc96  1  0.29490794  0.69959556  0.10079682  1
  Sc  Sc97  1  0.48669107  0.89670469  0.69496943  1
  Sc  Sc98  1  0.10130989  0.90175558  0.89431004  1
  Sc  Sc99  1  0.90775765  0.90522579  0.30185584  1
  Nb  Nb100  1  0.70014571  0.50222292  0.29434496  1
  Nb  Nb101  1  0.09670305  0.89903843  0.70008068  1
  Nb  Nb102  1  0.29912698  0.10089032  0.08994127  1
  Nb  Nb103  1  0.90071686  0.10171921  0.70137983  1
  Nb  Nb104  1  0.10763198  0.70506182  0.09689351  1
  Nb  Nb105  1  0.10243946  0.29717125  0.09473120  1
  Nb  Nb106  1  0.49925735  0.50137996  0.89833785  1
  Nb  Nb107  1  0.89962539  0.09415719  0.89567805  1
  Nb  Nb108  1  0.90503768  0.50175052  0.50435399  1
  Nb  Nb109  1  0.30708635  0.49710691  0.89770431  1
  Nb  Nb110  1  0.89727059  0.69365616  0.90102238  1
  Nb  Nb111  1  0.89855078  0.10366865  0.49892324  1
  Nb  Nb112  1  0.90130300  0.90298592  0.10557256  1
  Nb  Nb113  1  0.49919437  0.69697447  0.70228898  1
  Nb  Nb114  1  0.69620321  0.50081870  0.90013845  1
  Nb  Nb115  1  0.09766889  0.30133552  0.91036119  1
  Nb  Nb116  1  0.49969265  0.30192316  0.69626264  1
  Nb  Nb117  1  0.69920203  0.90145321  0.29588649  1
  Nb  Nb118  1  0.49779560  0.89314390  0.90201599  1
  Nb  Nb119  1  0.49724501  0.10343240  0.68812791  1
  Nb  Nb120  1  0.49955485  0.09797319  0.09844282  1
  Nb  Nb121  1  0.10059795  0.69570223  0.50649574  1
  Nb  Nb122  1  0.49942464  0.10150761  0.50110760  1
  Nb  Nb123  1  0.49602154  0.50144517  0.49871727  1
  Nb  Nb124  1  0.90034669  0.30114718  0.70069867  1
  Nb  Nb125  1  0.80042487  0.19888120  -0.00395429  1
  Nb  Nb126  1  0.00387585  0.80141386  0.60054829  1
  Nb  Nb127  1  0.40268007  0.80252499  0.00104837  1
  Nb  Nb128  1  0.60603614  0.80324450  0.20094717  1
  Nb  Nb129  1  0.59305416  0.40425787  0.80096215  1
  Nb  Nb130  1  0.79632401  0.60221547  0.20043026  1
  Nb  Nb131  1  -0.00738728  -0.00176602  0.00217667  1
  Nb  Nb132  1  0.59731153  0.59752345  0.59559581  1
  Nb  Nb133  1  0.79978079  0.59618997  0.80475928  1
  Nb  Nb134  1  0.79934178  0.79895437  0.20077994  1
  Nb  Nb135  1  0.59588146  0.19835590  0.40704814  1
  Nb  Nb136  1  0.59321205  0.00334919  -0.00226524  1
  Nb  Nb137  1  0.59086575  0.79830548  0.80155947  1
  Nb  Nb138  1  0.79796915  0.39683239  0.00009617  1
  Nb  Nb139  1  0.80516244  0.79602469  0.60226989  1
  Nb  Nb140  1  0.19901608  0.39705530  -0.00223676  1
  Nb  Nb141  1  0.59534936  0.19978230  0.59949467  1
  Nb  Nb142  1  0.20320723  0.19891393  0.18981841  1
  Nb  Nb143  1  0.79924408  0.60040715  0.60183949  1
  Nb  Nb144  1  -0.00315091  0.39651569  0.59970804  1
  Nb  Nb145  1  0.59939211  0.19071685  -0.00006524  1
  Nb  Nb146  1  0.00608768  0.59945229  0.40693873  1
  Nb  Nb147  1  0.00155822  0.40546556  0.41003908  1
  Nb  Nb148  1  0.40207854  0.59480741  0.80183894  1
  Nb  Nb149  1  0.79860133  0.40483130  0.19731817  1
  Pd  Pd150  1  0.60389951  0.79902220  0.60925230  1
  Pd  Pd151  1  0.59426170  0.19838025  0.20630609  1
  Pd  Pd152  1  0.58955783  0.20765000  0.79896577  1
  Pd  Pd153  1  0.20229465  0.39545004  0.19323987  1
  Pd  Pd154  1  0.00025753  0.39645848  0.20574315  1
  Pd  Pd155  1  0.59953585  0.39560035  0.20426030  1
  Pd  Pd156  1  0.79187382  0.78961500  0.79409841  1
  Pd  Pd157  1  0.60270142  0.40155419  0.60337194  1
  Pd  Pd158  1  0.80126717  0.00021874  -0.00421146  1
  Pd  Pd159  1  0.00452606  0.00618929  0.20006497  1
  Pd  Pd160  1  0.80288626  0.40806450  0.60152422  1
  Pd  Pd161  1  0.20412156  0.00621752  0.40423349  1
  Pd  Pd162  1  0.01026854  0.79717673  0.40596647  1
  Pd  Pd163  1  0.60081958  0.38936065  -0.00858090  1
  Pd  Pd164  1  0.80726359  0.80257056  0.00561922  1
  Pd  Pd165  1  0.00410828  0.19413827  0.79789734  1
  Pd  Pd166  1  0.39231940  -0.00340419  0.59613852  1
  Pd  Pd167  1  0.00085707  0.61081599  0.20438673  1
  Pd  Pd168  1  -0.00356843  0.20388829  0.59873633  1
  Pd  Pd169  1  0.40773948  0.19591238  -0.00354472  1
  Pd  Pd170  1  0.39462636  0.40309077  0.00357227  1
  Pd  Pd171  1  0.20018949  0.59056516  0.00497938  1
  Pd  Pd172  1  0.39921298  -0.00437888  0.79495922  1
  Pd  Pd173  1  -0.00509484  -0.00368622  0.59572691  1
  Pd  Pd174  1  0.39527312  0.60126604  0.20530689  1
  Pd  Pd175  1  -0.00305228  0.79421783  0.19735634  1
  Pd  Pd176  1  0.40105439  -0.00478435  -0.00187590  1
  Pd  Pd177  1  0.60095860  0.00584931  0.39055871  1
  Pd  Pd178  1  0.79542210  0.81050727  0.39947661  1
  Pd  Pd179  1  -0.00828890  0.19053963  -0.00284883  1
  Pd  Pd180  1  0.39826802  0.59825055  0.60123574  1
  Pd  Pd181  1  0.19574535  0.39456950  0.80254847  1
  Pd  Pd182  1  0.39955749  0.79911511  0.19560064  1
  Pd  Pd183  1  0.19847686  0.79985382  0.59902524  1
  Pd  Pd184  1  0.39011718  0.00491218  0.20056896  1
  Pd  Pd185  1  0.59906748  0.60175500  -0.00150486  1
  Pd  Pd186  1  0.79719934  0.19308779  0.60348459  1
  Pd  Pd187  1  0.58555717  -0.00990039  0.79590877  1
  Pd  Pd188  1  0.00184535  0.00603691  0.40348232  1
  Pd  Pd189  1  0.19956804  0.80025884  0.80627805  1
  Pd  Pd190  1  0.39200581  0.19145449  0.20144677  1
  Pd  Pd191  1  0.59223803  0.39601181  0.39505166  1
  Pd  Pd192  1  0.40044402  0.20303071  0.79464038  1
  Pd  Pd193  1  0.20514535  0.00997387  0.20310297  1
  Pd  Pd194  1  0.80567552  0.20821515  0.19720699  1
  Pd  Pd195  1  -0.00472055  0.80834057  -0.00575352  1
  Pd  Pd196  1  0.80610942  0.19709530  0.80240664  1
  Pd  Pd197  1  0.19391880  0.19680478  0.79573013  1
  Pd  Pd198  1  0.80715706  0.59364972  0.39757672  1
  Pd  Pd199  1  0.80715467  -0.00670790  0.60452766  1
  Rh  Rh200  1  0.39125547  0.39970068  0.59699312  1
  Rh  Rh201  1  0.81221565  0.40885042  0.38844927  1
  Rh  Rh202  1  0.79227626  0.18830378  0.40204274  1
  Rh  Rh203  1  0.59513563  0.80859230  0.39102949  1
  Rh  Rh204  1  0.20685746  0.80549361  -0.00054576  1
  Rh  Rh205  1  0.40187142  0.59801258  0.39919427  1
  Rh  Rh206  1  0.00068340  0.00312922  0.80597058  1
  Rh  Rh207  1  0.19645044  0.00140314  0.79628810  1
  Rh  Rh208  1  -0.00370706  0.60385603  0.80871435  1
  Rh  Rh209  1  0.39843697  0.80461100  0.59438543  1
  Rh  Rh210  1  0.80533062  -0.00956243  0.20889345  1
  Rh  Rh211  1  0.20494789  0.19612522  0.60335756  1
  Rh  Rh212  1  0.39940998  0.40782048  0.39877991  1
  Rh  Rh213  1  0.59842281  0.59810336  0.79612974  1
  Rh  Rh214  1  0.21220471  0.60493434  0.79921806  1
  Rh  Rh215  1  0.20494930  0.79880054  0.19798049  1
  Rh  Rh216  1  0.19544307  0.39896711  0.40171261  1
  Rh  Rh217  1  0.20362903  0.20107335  0.39048998  1
  Rh  Rh218  1  0.40323220  0.40139349  0.79691344  1
  Rh  Rh219  1  0.80478326  0.00065524  0.79365488  1
  Rh  Rh220  1  0.39836221  0.00110477  0.40542865  1
  Rh  Rh221  1  -0.00563536  0.60203823  0.59905592  1
  Rh  Rh222  1  0.39842849  0.60457345  -0.00521307  1
  Rh  Rh223  1  0.40036213  0.20386589  0.59968876  1
  Rh  Rh224  1  0.60782632  0.61433153  0.19924223  1
  Rh  Rh225  1  0.80037617  0.00102850  0.39530547  1
  Rh  Rh226  1  0.01104680  0.39665080  0.79439278  1
  Rh  Rh227  1  0.40436140  0.19851538  0.40200177  1
  Rh  Rh228  1  0.20280956  0.00090023  0.60153381  1
  Rh  Rh229  1  0.59940027  -0.00546254  0.19901391  1
  Rh  Rh230  1  0.19828025  0.79680413  0.40172056  1
  Rh  Rh231  1  0.19107557  -0.00400403  -0.00457306  1
  Rh  Rh232  1  0.59330708  0.80720829  0.00218804  1
  Rh  Rh233  1  0.79335356  0.40578138  0.81073343  1
  Rh  Rh234  1  0.20288697  0.20517092  0.00033978  1
  Rh  Rh235  1  0.19756813  0.60348453  0.39914180  1
  Rh  Rh236  1  0.59237676  0.59539247  0.40739361  1
  Rh  Rh237  1  0.19987083  0.60330155  0.19725846  1
  Rh  Rh238  1  0.00649989  0.40546855  0.00087862  1
  Rh  Rh239  1  0.80029360  0.59236814  -0.00407273  1
  Rh  Rh240  1  0.40509040  0.78970514  0.81175172  1
  Rh  Rh241  1  0.40117995  0.40837204  0.20200639  1
  Rh  Rh242  1  0.00601115  0.79492078  0.80142671  1
  Rh  Rh243  1  0.59463264  0.00181496  0.60633710  1
  Rh  Rh244  1  0.39993942  0.80279922  0.40093517  1
  Rh  Rh245  1  0.21387917  0.60699918  0.60423236  1
  Rh  Rh246  1  0.00103183  0.20340327  0.40810701  1
  Rh  Rh247  1  0.19643930  0.39297201  0.59892600  1
  Rh  Rh248  1  0.01067108  0.19853682  0.20180123  1
  Rh  Rh249  1  0.00878556  0.59968155  -0.00075024  1
