# generated using pymatgen
data_ZrScNbPdRh
_symmetry_space_group_name_H-M   'P 1'
_cell_length_a   16.55310368
_cell_length_b   16.55443795
_cell_length_c   16.55460304
_cell_angle_alpha   89.99296372
_cell_angle_beta   89.98903838
_cell_angle_gamma   89.97914232
_symmetry_Int_Tables_number   1
_chemical_formula_structural   ZrScNbPdRh
_chemical_formula_sum   'Zr50 Sc50 Nb50 Pd50 Rh50'
_cell_volume   4536.41321533
_cell_formula_units_Z   50
loop_
 _symmetry_equiv_pos_site_id
 _symmetry_equiv_pos_as_xyz
  1  'x, y, z'
loop_
 _atom_site_type_symbol
 _atom_site_label
 _atom_site_symmetry_multiplicity
 _atom_site_fract_x
 _atom_site_fract_y
 _atom_site_fract_z
 _atom_site_occupancy
  Zr  Zr0  1  0.69942984  0.28916991  0.09310349  1
  Zr  Zr1  1  0.91207073  0.70347044  0.89647680  1
  Zr  Zr2  1  0.90443651  0.69648874  0.69838389  1
  Zr  Zr3  1  0.10762077  0.30461231  0.30351457  1
  Zr  Zr4  1  0.89688900  0.09567858  0.49482606  1
  Zr  Zr5  1  0.49765616  0.49908942  0.29305679  1
  Zr  Zr6  1  0.09935925  0.09762737  0.30149886  1
  Zr  Zr7  1  0.90140135  0.10008849  0.09042138  1
  Zr  Zr8  1  0.49701802  0.29832725  0.49795004  1
  Zr  Zr9  1  0.69297208  0.50058311  0.10021075  1
  Zr  Zr10  1  0.90353181  0.90254539  0.10334090  1
  Zr  Zr11  1  0.90250765  0.90754711  0.90598570  1
  Zr  Zr12  1  0.69888469  0.69772045  0.90327065  1
  Zr  Zr13  1  0.90389578  0.50567759  0.89504884  1
  Zr  Zr14  1  0.70344687  0.29608263  0.50090070  1
  Zr  Zr15  1  0.30032765  0.08853555  0.30252671  1
  Zr  Zr16  1  0.30251401  0.90081170  0.10143908  1
  Zr  Zr17  1  0.10185654  0.30973641  0.89630649  1
  Zr  Zr18  1  0.89544961  0.29687754  0.10059476  1
  Zr  Zr19  1  0.30246696  0.50889496  0.09738646  1
  Zr  Zr20  1  0.48643442  0.49413823  0.50371901  1
  Zr  Zr21  1  0.49458801  0.30814952  0.30272132  1
  Zr  Zr22  1  0.70363156  0.69693320  0.70183910  1
  Zr  Zr23  1  0.09757568  0.69524720  0.50361452  1
  Zr  Zr24  1  0.30206198  0.30068987  0.49530331  1
  Zr  Zr25  1  0.30014416  0.09847928  0.70081318  1
  Zr  Zr26  1  0.29879383  0.70253521  0.50172927  1
  Zr  Zr27  1  0.30668181  0.11346132  0.89539767  1
  Zr  Zr28  1  0.29312273  0.29552449  0.71025697  1
  Zr  Zr29  1  0.69340431  0.10771902  0.70407650  1
  Zr  Zr30  1  0.90493311  0.89394010  0.70285977  1
  Zr  Zr31  1  0.49361533  0.70796094  0.90669197  1
  Zr  Zr32  1  0.69520217  0.49842785  0.29834777  1
  Zr  Zr33  1  0.10374806  0.70077965  0.90515522  1
  Zr  Zr34  1  0.70291764  0.10264404  0.49412225  1
  Zr  Zr35  1  0.70214593  0.89955106  0.49707179  1
  Zr  Zr36  1  0.09887534  0.70459980  0.29960459  1
  Zr  Zr37  1  0.49947127  0.70435401  0.49979275  1
  Zr  Zr38  1  0.29763507  0.89962481  0.30564584  1
  Zr  Zr39  1  0.09860047  0.89342127  0.89752609  1
  Zr  Zr40  1  0.70553393  0.49382706  0.88723282  1
  Zr  Zr41  1  0.09659961  0.08989780  0.50300590  1
  Zr  Zr42  1  0.09512291  0.30310310  0.70014875  1
  Zr  Zr43  1  0.30152720  0.69771060  0.90580868  1
  Zr  Zr44  1  0.71003871  0.49334225  0.49938326  1
  Zr  Zr45  1  0.10152605  0.09004535  0.69847604  1
  Zr  Zr46  1  0.49911688  0.11020096  0.50989610  1
  Zr  Zr47  1  0.49903984  0.50133375  0.10657241  1
  Zr  Zr48  1  0.69690530  0.29894912  0.30337383  1
  Zr  Zr49  1  0.90883692  0.70552765  0.49192927  1
  Sc  Sc50  1  0.50938979  0.89716241  0.09703455  1
  Sc  Sc51  1  0.30006841  0.49342487  0.28738602  1
  Sc  Sc52  1  0.50328938  0.09375158  0.30542681  1
  Sc  Sc53  1  0.70493594  0.70245630  0.30047499  1
  Sc  Sc54  1  0.10108560  0.50882410  0.10244344  1
  Sc  Sc55  1  0.10502137  0.49970029  0.28731120  1
  Sc  Sc56  1  0.09158435  0.09486378  0.90157416  1
  Sc  Sc57  1  0.30165461  0.88253304  0.90014470  1
  Sc  Sc58  1  0.90633722  0.29538898  0.29579919  1
  Sc  Sc59  1  0.89050668  0.30498396  0.90547730  1
  Sc  Sc60  1  0.29498084  0.49194583  0.50985918  1
  Sc  Sc61  1  0.29899710  0.09586983  0.49787141  1
  Sc  Sc62  1  0.70011144  0.90402881  0.90914182  1
  Sc  Sc63  1  0.10039433  0.49851233  0.68918532  1
  Sc  Sc64  1  0.29856366  0.69884293  0.09587241  1
  Sc  Sc65  1  0.09605814  0.89480241  0.50019876  1
  Sc  Sc66  1  0.89501681  0.50140839  0.69914437  1
  Sc  Sc67  1  0.90105430  0.89971599  0.29538115  1
  Sc  Sc68  1  0.50270737  0.28694727  0.70481810  1
  Sc  Sc69  1  0.49727567  0.69430208  0.09867337  1
  Sc  Sc70  1  0.50429564  0.29876441  0.10021489  1
  Sc  Sc71  1  0.89636064  0.30010299  0.49816364  1
  Sc  Sc72  1  0.69454411  0.90426430  0.30016727  1
  Sc  Sc73  1  0.68763026  0.70193767  0.10268904  1
  Sc  Sc74  1  0.29916031  0.70266557  0.69807218  1
  Sc  Sc75  1  0.49122120  0.70596961  0.69184896  1
  Sc  Sc76  1  0.31009117  0.30699141  0.09124402  1
  Sc  Sc77  1  0.50340048  0.70173278  0.30044376  1
  Sc  Sc78  1  0.10531797  0.30463056  0.50143285  1
  Sc  Sc79  1  0.10024794  0.50256699  0.90323670  1
  Sc  Sc80  1  0.09018467  0.30490664  0.10852622  1
  Sc  Sc81  1  0.29604277  0.90048869  0.49616736  1
  Sc  Sc82  1  0.70040774  0.71097603  0.49894074  1
  Sc  Sc83  1  0.90150313  0.30872179  0.69450792  1
  Sc  Sc84  1  0.10143309  0.70298625  0.69410414  1
  Sc  Sc85  1  0.09909315  0.89878218  0.29704652  1
  Sc  Sc86  1  0.30776037  0.09639124  0.10204968  1
  Sc  Sc87  1  0.30951361  0.49972131  0.69650539  1
  Sc  Sc88  1  0.69950610  0.09776779  0.30244819  1
  Sc  Sc89  1  0.70745918  0.89611336  0.69973588  1
  Sc  Sc90  1  0.09577573  0.89999779  0.10066432  1
  Sc  Sc91  1  0.29053954  0.89613639  0.70588596  1
  Sc  Sc92  1  0.69471846  0.09650145  0.90868850  1
  Sc  Sc93  1  0.50588226  0.88766114  0.49912412  1
  Sc  Sc94  1  0.90094995  0.09693166  0.30116747  1
  Sc  Sc95  1  0.10061518  0.69932465  0.09702739  1
  Sc  Sc96  1  0.70001948  0.90572170  0.10217684  1
  Sc  Sc97  1  0.90004415  0.51283927  0.29558235  1
  Sc  Sc98  1  0.90233966  0.50733172  0.50128367  1
  Sc  Sc99  1  0.89985427  0.09129851  0.69238578  1
  Nb  Nb100  1  0.69636086  0.30153414  0.89304104  1
  Nb  Nb101  1  0.29836866  0.29434393  0.29937063  1
  Nb  Nb102  1  0.70044338  0.49759482  0.70033684  1
  Nb  Nb103  1  0.50068058  0.90155720  0.89836751  1
  Nb  Nb104  1  0.29896433  0.70154872  0.30145861  1
  Nb  Nb105  1  0.89555660  0.10251182  0.90153043  1
  Nb  Nb106  1  0.49513109  0.89661600  0.30294784  1
  Nb  Nb107  1  0.30044020  0.30577521  0.90153029  1
  Nb  Nb108  1  0.50050639  0.10023699  0.89444082  1
  Nb  Nb109  1  0.49205246  0.50090961  0.89367549  1
  Nb  Nb110  1  0.49752222  0.09474307  0.71014785  1
  Nb  Nb111  1  0.10136754  0.10269853  0.09607878  1
  Nb  Nb112  1  0.70144207  0.30789556  0.70904527  1
  Nb  Nb113  1  0.30342274  0.49414260  0.90044305  1
  Nb  Nb114  1  0.50254131  0.90205306  0.70730534  1
  Nb  Nb115  1  0.50117819  0.50392545  0.69834527  1
  Nb  Nb116  1  0.09992548  0.90356342  0.69914382  1
  Nb  Nb117  1  0.50660714  0.10799729  0.08612022  1
  Nb  Nb118  1  0.90044713  0.50190115  0.10292815  1
  Nb  Nb119  1  0.90578193  0.70279648  0.29166656  1
  Nb  Nb120  1  0.10707461  0.50064680  0.49625415  1
  Nb  Nb121  1  0.69292986  0.10030066  0.09676332  1
  Nb  Nb122  1  0.90417718  0.69671682  0.10409107  1
  Nb  Nb123  1  0.89784952  0.90073375  0.50113293  1
  Nb  Nb124  1  0.49279338  0.29067621  0.90549958  1
  Nb  Nb125  1  -0.00821035  0.40587152  0.00582117  1
  Nb  Nb126  1  0.39556883  0.60019592  0.39858540  1
  Nb  Nb127  1  0.59553489  0.00153081  0.60604030  1
  Nb  Nb128  1  0.40641446  0.00279674  -0.00811647  1
  Nb  Nb129  1  0.19916978  0.20099243  0.00298362  1
  Nb  Nb130  1  0.59678290  0.39867201  -0.01315451  1
  Nb  Nb131  1  0.00720873  0.40604964  0.39757179  1
  Nb  Nb132  1  0.20760848  0.59744685  0.80414365  1
  Nb  Nb133  1  0.20516831  0.19853505  0.19730245  1
  Nb  Nb134  1  0.80554728  0.60279858  0.00382793  1
  Nb  Nb135  1  0.40870549  -0.00147307  0.60949771  1
  Nb  Nb136  1  0.80706552  0.79311887  0.00648650  1
  Nb  Nb137  1  0.20500560  0.00431629  -0.00099613  1
  Nb  Nb138  1  0.39826333  0.19760126  0.20256608  1
  Nb  Nb139  1  0.59656925  0.59516270  0.40752019  1
  Nb  Nb140  1  0.19848149  0.19725201  0.60206331  1
  Nb  Nb141  1  0.39897357  0.80431184  0.20625100  1
  Nb  Nb142  1  0.79897571  0.20172960  0.80219895  1
  Nb  Nb143  1  -0.00909154  0.19838078  0.80269557  1
  Nb  Nb144  1  0.60065510  0.59242454  0.60056204  1
  Nb  Nb145  1  0.59544914  0.79903839  0.80237568  1
  Nb  Nb146  1  0.59287681  0.59836348  0.79526452  1
  Nb  Nb147  1  0.60307917  0.40149897  0.60801326  1
  Nb  Nb148  1  0.79846008  0.40043932  0.19572964  1
  Nb  Nb149  1  0.20402293  0.60009481  0.39905361  1
  Pd  Pd150  1  -0.00226039  0.40654579  0.58829845  1
  Pd  Pd151  1  0.19879673  0.19352360  0.40428053  1
  Pd  Pd152  1  0.80360369  0.20399255  0.60867052  1
  Pd  Pd153  1  0.40343458  0.38546097  0.61344932  1
  Pd  Pd154  1  0.79822139  0.19567983  0.20534564  1
  Pd  Pd155  1  0.79580225  0.00568092  0.80267972  1
  Pd  Pd156  1  0.20610461  -0.00423053  0.81284581  1
  Pd  Pd157  1  0.80565358  0.79585994  0.59756262  1
  Pd  Pd158  1  0.19174177  0.39905024  0.00909593  1
  Pd  Pd159  1  0.39772064  0.60666744  0.79690430  1
  Pd  Pd160  1  0.80459526  0.80435048  0.39064059  1
  Pd  Pd161  1  0.40080766  0.19379437  0.39250817  1
  Pd  Pd162  1  0.20667649  0.39289044  0.18816269  1
  Pd  Pd163  1  0.19253295  0.00314443  0.19378838  1
  Pd  Pd164  1  0.79360133  0.60053192  0.19447375  1
  Pd  Pd165  1  0.79677296  0.40766014  0.00398851  1
  Pd  Pd166  1  0.59411981  0.00379176  0.19743826  1
  Pd  Pd167  1  0.00904072  0.59357958  0.39215633  1
  Pd  Pd168  1  -0.00423077  0.00368643  0.80032048  1
  Pd  Pd169  1  0.61074862  -0.00707871  0.79983939  1
  Pd  Pd170  1  0.60278568  0.20418446  0.60374225  1
  Pd  Pd171  1  0.58607841  0.39970611  0.79913452  1
  Pd  Pd172  1  0.79391671  -0.00005101  0.60141150  1
  Pd  Pd173  1  0.59339761  -0.00121624  0.40977667  1
  Pd  Pd174  1  0.40509084  0.39232545  0.79566584  1
  Pd  Pd175  1  0.59866463  0.59087405  -0.00951858  1
  Pd  Pd176  1  0.00581581  0.21089608  -0.00810815  1
  Pd  Pd177  1  0.20337914  0.79704968  0.19517503  1
  Pd  Pd178  1  -0.00161062  -0.01059384  0.39816260  1
  Pd  Pd179  1  0.18601080  0.19591163  0.80436619  1
  Pd  Pd180  1  0.59752540  0.40348391  0.40926971  1
  Pd  Pd181  1  0.39364158  0.81309592  0.60322498  1
  Pd  Pd182  1  0.00539566  0.19468528  0.20136129  1
  Pd  Pd183  1  0.79855581  0.00846673  0.19839599  1
  Pd  Pd184  1  0.40937988  -0.00511972  0.41555629  1
  Pd  Pd185  1  0.20035140  0.41447161  0.79360353  1
  Pd  Pd186  1  0.40923574  0.40436723  0.00136380  1
  Pd  Pd187  1  0.41582050  0.00013131  0.19117770  1
  Pd  Pd188  1  0.79891213  0.60617126  0.59287496  1
  Pd  Pd189  1  0.79629735  0.80228488  0.81130952  1
  Pd  Pd190  1  0.59104505  0.19698541  0.20720910  1
  Pd  Pd191  1  0.38921552  -0.00963815  0.80387571  1
  Pd  Pd192  1  0.01532961  0.59680852  0.79012209  1
  Pd  Pd193  1  0.59519421  0.79945109  0.20336693  1
  Pd  Pd194  1  0.81628955  0.40032689  0.38773538  1
  Pd  Pd195  1  0.00171558  0.19882629  0.60252326  1
  Pd  Pd196  1  0.00184074  0.20845732  0.40552251  1
  Pd  Pd197  1  0.79644168  0.60728825  0.40214072  1
  Pd  Pd198  1  0.19781639  0.80595636  0.59880818  1
  Pd  Pd199  1  0.79822819  0.80068893  0.19638626  1
  Rh  Rh200  1  0.19345318  0.79005157  0.79660906  1
  Rh  Rh201  1  0.39628936  0.19733674  0.00427813  1
  Rh  Rh202  1  0.20174324  0.39288266  0.60460561  1
  Rh  Rh203  1  0.60549035  0.80421129  -0.00324890  1
  Rh  Rh204  1  -0.00362775  0.80204126  0.00744924  1
  Rh  Rh205  1  0.40009889  0.60405916  0.59403116  1
  Rh  Rh206  1  0.60232607  0.20026517  0.80719172  1
  Rh  Rh207  1  0.80983902  0.39512974  0.79517790  1
  Rh  Rh208  1  0.60464356  0.80353387  0.61193583  1
  Rh  Rh209  1  0.59847849  0.20027078  0.39723844  1
  Rh  Rh210  1  0.38708439  0.40767565  0.39383073  1
  Rh  Rh211  1  0.80259879  -0.00564584  0.39666147  1
  Rh  Rh212  1  -0.01105489  0.40699534  0.20281031  1
  Rh  Rh213  1  0.00875242  0.79999742  0.79277539  1
  Rh  Rh214  1  0.20380102  0.59782049  0.60166309  1
  Rh  Rh215  1  0.19451664  0.79639567  0.40292574  1
  Rh  Rh216  1  0.20618483  -0.00108091  0.59669558  1
  Rh  Rh217  1  0.60104156  0.60766330  0.21111806  1
  Rh  Rh218  1  0.00005371  0.59673336  0.60112845  1
  Rh  Rh219  1  0.39643016  0.39187838  0.19710708  1
  Rh  Rh220  1  0.40159429  0.59491998  -0.00041688  1
  Rh  Rh221  1  0.60189181  0.20413907  -0.01097042  1
  Rh  Rh222  1  0.00516143  0.60388593  0.19981754  1
  Rh  Rh223  1  0.00123206  0.00515467  0.19816318  1
  Rh  Rh224  1  0.79207589  0.19330955  -0.00809643  1
  Rh  Rh225  1  0.20088510  0.40947065  0.39552237  1
  Rh  Rh226  1  -0.00493880  -0.00937271  0.59714987  1
  Rh  Rh227  1  -0.00034661  0.80389343  0.60103407  1
  Rh  Rh228  1  0.79913056  0.60247893  0.80277926  1
  Rh  Rh229  1  0.60762314  0.38946248  0.19011118  1
  Rh  Rh230  1  0.39019916  0.19695125  0.60578691  1
  Rh  Rh231  1  0.40490651  0.79954254  0.79636002  1
  Rh  Rh232  1  0.00169980  0.79771819  0.19876355  1
  Rh  Rh233  1  -0.00398785  0.59585557  0.00608227  1
  Rh  Rh234  1  0.80273511  0.19868799  0.39466623  1
  Rh  Rh235  1  0.60447702  0.79649286  0.39184506  1
  Rh  Rh236  1  0.19651043  0.80772250  0.00540715  1
  Rh  Rh237  1  0.20494512  0.59440265  -0.00743614  1
  Rh  Rh238  1  0.79855911  0.00059652  0.00764146  1
  Rh  Rh239  1  0.00626037  -0.00064175  0.00145954  1
  Rh  Rh240  1  0.19200516  -0.00531386  0.40270027  1
  Rh  Rh241  1  -0.00413893  0.80495733  0.39575285  1
  Rh  Rh242  1  0.39725251  0.61151222  0.20443300  1
  Rh  Rh243  1  0.39853850  0.79722151  0.39430699  1
  Rh  Rh244  1  0.40434575  0.80711955  0.01265389  1
  Rh  Rh245  1  0.20121024  0.60786674  0.20451967  1
  Rh  Rh246  1  0.40314862  0.20709875  0.79937995  1
  Rh  Rh247  1  0.59380783  -0.00039301  0.00147323  1
  Rh  Rh248  1  -0.00577475  0.39734310  0.80735262  1
  Rh  Rh249  1  0.79724302  0.39690189  0.60262751  1
