# generated using pymatgen
data_ZrScNbPdRh
_symmetry_space_group_name_H-M   'P 1'
_cell_length_a   16.56060154
_cell_length_b   16.56686387
_cell_length_c   16.55990830
_cell_angle_alpha   90.02349535
_cell_angle_beta   90.00118460
_cell_angle_gamma   89.99073422
_symmetry_Int_Tables_number   1
_chemical_formula_structural   ZrScNbPdRh
_chemical_formula_sum   'Zr50 Sc50 Nb50 Pd50 Rh50'
_cell_volume   4543.33014929
_cell_formula_units_Z   50
loop_
 _symmetry_equiv_pos_site_id
 _symmetry_equiv_pos_as_xyz
  1  'x, y, z'
loop_
 _atom_site_type_symbol
 _atom_site_label
 _atom_site_symmetry_multiplicity
 _atom_site_fract_x
 _atom_site_fract_y
 _atom_site_fract_z
 _atom_site_occupancy
  Zr  Zr0  1  0.69709316  0.49671681  0.49861738  1
  Zr  Zr1  1  0.69790956  0.50097108  0.30274653  1
  Zr  Zr2  1  0.90433265  0.90347403  0.49697601  1
  Zr  Zr3  1  0.69556787  0.49907069  0.09854106  1
  Zr  Zr4  1  0.10277730  0.48804295  0.70368493  1
  Zr  Zr5  1  0.70189852  0.31169158  0.69851358  1
  Zr  Zr6  1  0.49947534  0.50539988  0.29854563  1
  Zr  Zr7  1  0.71037907  0.70328384  0.90039610  1
  Zr  Zr8  1  0.72015729  0.30034909  0.09472946  1
  Zr  Zr9  1  0.50245543  0.49076366  0.90676163  1
  Zr  Zr10  1  0.89767351  0.10065522  0.51089289  1
  Zr  Zr11  1  0.49729400  0.89263710  0.50822410  1
  Zr  Zr12  1  0.89602300  0.89921759  0.10616465  1
  Zr  Zr13  1  0.09708578  0.71405523  0.50286023  1
  Zr  Zr14  1  0.10386472  0.69413219  0.09574223  1
  Zr  Zr15  1  0.90546766  0.69907254  0.90687025  1
  Zr  Zr16  1  0.30571373  0.70371741  0.50044732  1
  Zr  Zr17  1  0.89859025  0.49851710  0.49953594  1
  Zr  Zr18  1  0.50068051  0.09529634  0.09890832  1
  Zr  Zr19  1  0.48909204  0.69618561  0.90165458  1
  Zr  Zr20  1  0.50649898  0.30877724  0.70296361  1
  Zr  Zr21  1  0.89751828  0.70829776  0.29651965  1
  Zr  Zr22  1  0.29705841  0.69684943  0.90788041  1
  Zr  Zr23  1  0.90746608  0.29453172  0.09330742  1
  Zr  Zr24  1  0.10147497  0.29921804  0.10538154  1
  Zr  Zr25  1  0.29798960  0.09869908  0.69978768  1
  Zr  Zr26  1  0.49741310  0.50231901  0.09956285  1
  Zr  Zr27  1  0.10314169  0.69911866  0.29880652  1
  Zr  Zr28  1  0.09578828  0.10142857  0.48524858  1
  Zr  Zr29  1  0.30533927  0.90106309  0.28857125  1
  Zr  Zr30  1  0.30221261  0.10354374  0.49628673  1
  Zr  Zr31  1  0.29913529  0.50125816  0.69433767  1
  Zr  Zr32  1  0.50158359  0.10173073  0.89700631  1
  Zr  Zr33  1  0.30230554  0.30761896  0.11029767  1
  Zr  Zr34  1  0.89730009  0.69578393  0.70717650  1
  Zr  Zr35  1  0.30138001  0.50125252  0.10610044  1
  Zr  Zr36  1  0.70074095  0.29914491  0.30009508  1
  Zr  Zr37  1  0.69898250  0.09781839  0.89563841  1
  Zr  Zr38  1  0.70129029  0.89972028  0.49737750  1
  Zr  Zr39  1  0.49413138  0.89912535  0.10827569  1
  Zr  Zr40  1  0.69917516  0.70160323  0.69618266  1
  Zr  Zr41  1  0.09712088  0.30502488  0.89973581  1
  Zr  Zr42  1  0.09812641  0.90062748  0.10431032  1
  Zr  Zr43  1  0.29879008  0.50320538  0.29830693  1
  Zr  Zr44  1  0.09910070  0.30055475  0.49884308  1
  Zr  Zr45  1  0.09678849  0.49931833  0.49259659  1
  Zr  Zr46  1  0.10081336  0.69789080  0.90270724  1
  Zr  Zr47  1  0.70240316  0.09779635  0.10571532  1
  Zr  Zr48  1  0.69618710  0.89971525  0.10733166  1
  Zr  Zr49  1  0.10049882  0.90413609  0.90239828  1
  Sc  Sc50  1  0.90407227  0.29646132  0.69566820  1
  Sc  Sc51  1  0.70219406  0.48868838  0.89888371  1
  Sc  Sc52  1  0.89781663  0.70966684  0.49175020  1
  Sc  Sc53  1  0.90855760  0.71347825  0.09831245  1
  Sc  Sc54  1  0.89838828  0.29762340  0.28487308  1
  Sc  Sc55  1  0.50114722  0.70108086  0.50326266  1
  Sc  Sc56  1  0.48963377  0.90348410  0.89998546  1
  Sc  Sc57  1  0.89753348  0.29758992  0.50723346  1
  Sc  Sc58  1  0.89785675  0.49305451  0.30919459  1
  Sc  Sc59  1  0.89885619  0.91326718  0.70000135  1
  Sc  Sc60  1  0.10019762  0.50385856  0.90553114  1
  Sc  Sc61  1  0.90212950  0.11084426  0.10207869  1
  Sc  Sc62  1  0.89486037  0.49257153  0.70369094  1
  Sc  Sc63  1  0.29767263  0.31877190  0.69855938  1
  Sc  Sc64  1  0.70602976  0.89797284  0.89852979  1
  Sc  Sc65  1  0.50442264  0.89077372  0.29922685  1
  Sc  Sc66  1  0.70168668  0.90013639  0.29897313  1
  Sc  Sc67  1  0.29745893  0.10821634  0.29818919  1
  Sc  Sc68  1  0.89838970  0.89813000  0.29328079  1
  Sc  Sc69  1  0.29565782  0.89595737  0.89786575  1
  Sc  Sc70  1  0.08638084  0.09762027  0.70739406  1
  Sc  Sc71  1  0.30344232  0.50451921  0.49648827  1
  Sc  Sc72  1  0.29692453  0.08678214  0.89939301  1
  Sc  Sc73  1  0.48696885  0.29687629  0.30507640  1
  Sc  Sc74  1  0.10183128  0.89267094  0.69115955  1
  Sc  Sc75  1  0.90263446  0.09986624  0.29638497  1
  Sc  Sc76  1  0.49762658  0.10479830  0.30885980  1
  Sc  Sc77  1  0.69413024  0.70662285  0.30414498  1
  Sc  Sc78  1  0.69273743  0.70101033  0.10720314  1
  Sc  Sc79  1  0.70213678  0.09334192  0.69239679  1
  Sc  Sc80  1  0.50668367  0.08635046  0.69862361  1
  Sc  Sc81  1  0.69073148  0.29872424  0.50824249  1
  Sc  Sc82  1  0.29926543  0.09290755  0.10839853  1
  Sc  Sc83  1  0.10254653  0.49418185  0.09660208  1
  Sc  Sc84  1  0.50072232  0.70063780  0.29779070  1
  Sc  Sc85  1  0.90964818  0.09742321  0.89676088  1
  Sc  Sc86  1  0.70243276  0.90342738  0.69575325  1
  Sc  Sc87  1  0.09988016  0.09808300  0.09997041  1
  Sc  Sc88  1  0.30012691  0.30579754  0.49172024  1
  Sc  Sc89  1  0.30633873  0.89593108  0.69659605  1
  Sc  Sc90  1  0.49667275  0.50142203  0.69231043  1
  Sc  Sc91  1  0.51032835  0.10105912  0.50008213  1
  Sc  Sc92  1  0.29774320  0.90107514  0.10172150  1
  Sc  Sc93  1  0.90259915  0.48380252  0.10047976  1
  Sc  Sc94  1  0.30171971  0.49757416  0.89705393  1
  Sc  Sc95  1  0.09847750  0.09536981  0.90169264  1
  Sc  Sc96  1  0.30394808  0.70249307  0.70795804  1
  Sc  Sc97  1  0.90812714  0.49822013  0.90141126  1
  Sc  Sc98  1  0.89919376  0.89665807  0.90315082  1
  Sc  Sc99  1  0.49580952  0.50379858  0.49676693  1
  Nb  Nb100  1  0.10391800  0.91033358  0.29921374  1
  Nb  Nb101  1  0.30282000  0.69371552  0.10767023  1
  Nb  Nb102  1  0.11137899  0.29392176  0.29912684  1
  Nb  Nb103  1  0.49646692  0.69393214  0.09904448  1
  Nb  Nb104  1  0.50226127  0.30317202  0.90043208  1
  Nb  Nb105  1  0.70220521  0.70416564  0.50142799  1
  Nb  Nb106  1  0.69611621  0.29876125  0.89864469  1
  Nb  Nb107  1  0.69742482  0.49854841  0.69605749  1
  Nb  Nb108  1  0.10066541  0.69856779  0.69755441  1
  Nb  Nb109  1  0.10870253  0.30092514  0.69879720  1
  Nb  Nb110  1  0.50218328  0.88851557  0.69688444  1
  Nb  Nb111  1  0.69652314  0.10125823  0.30532052  1
  Nb  Nb112  1  0.50018247  0.70306280  0.69954672  1
  Nb  Nb113  1  0.09974785  0.50222723  0.30271641  1
  Nb  Nb114  1  0.89186029  0.10140024  0.70383776  1
  Nb  Nb115  1  0.29779474  0.69685254  0.29345971  1
  Nb  Nb116  1  0.49835380  0.30486988  0.09580354  1
  Nb  Nb117  1  0.29281346  0.29863317  0.29535053  1
  Nb  Nb118  1  0.10557511  0.90216004  0.49587683  1
  Nb  Nb119  1  0.10511423  0.10923654  0.29920313  1
  Nb  Nb120  1  0.30692842  0.30246199  0.89778956  1
  Nb  Nb121  1  0.49799127  0.29103046  0.50140643  1
  Nb  Nb122  1  0.29903316  0.89879673  0.49951732  1
  Nb  Nb123  1  0.89217417  0.29250819  0.91165960  1
  Nb  Nb124  1  0.69912150  0.09871147  0.49459476  1
  Nb  Nb125  1  0.59651174  0.39291218  0.19590014  1
  Nb  Nb126  1  0.59313435  0.79753042  -0.00161132  1
  Nb  Nb127  1  0.59856670  0.20750279  0.00092350  1
  Nb  Nb128  1  0.80011237  0.20209170  0.80050672  1
  Nb  Nb129  1  0.20958272  0.20470708  -0.00506244  1
  Nb  Nb130  1  0.79889324  0.00185992  0.00442670  1
  Nb  Nb131  1  0.39656894  -0.00675266  0.40455343  1
  Nb  Nb132  1  0.19820414  0.00085974  0.58945073  1
  Nb  Nb133  1  0.59373103  0.79432451  0.79980423  1
  Nb  Nb134  1  0.79291075  0.19303897  0.40387316  1
  Nb  Nb135  1  0.39969584  0.20370913  0.60555616  1
  Nb  Nb136  1  0.39914725  0.20481885  0.79973259  1
  Nb  Nb137  1  -0.00096094  0.59652165  0.20432896  1
  Nb  Nb138  1  -0.00031999  0.60150932  0.60142469  1
  Nb  Nb139  1  0.00382737  0.79492147  0.79944321  1
  Nb  Nb140  1  0.59914337  0.20514328  0.19499347  1
  Nb  Nb141  1  0.60100518  0.60182720  0.79652097  1
  Nb  Nb142  1  0.20395358  0.20617256  0.79978166  1
  Nb  Nb143  1  0.19920531  0.19965598  0.60345226  1
  Nb  Nb144  1  0.20272883  0.80856940  0.39657902  1
  Nb  Nb145  1  0.40097008  0.20560954  -0.00376506  1
  Nb  Nb146  1  0.80283111  0.60062834  0.00658449  1
  Nb  Nb147  1  0.79834623  0.60015618  0.59702907  1
  Nb  Nb148  1  0.80547251  0.60022531  0.19822234  1
  Nb  Nb149  1  0.19156399  0.60480116  0.60062735  1
  Pd  Pd150  1  0.60456867  -0.00810176  -0.00557228  1
  Pd  Pd151  1  0.39982308  0.39982117  0.39754010  1
  Pd  Pd152  1  -0.01138305  0.80018249  0.60855410  1
  Pd  Pd153  1  0.00672415  0.00180134  0.60211413  1
  Pd  Pd154  1  0.60024799  -0.01462019  0.79925602  1
  Pd  Pd155  1  0.80481106  0.81018273  0.79372184  1
  Pd  Pd156  1  0.19934583  0.59708224  0.79687993  1
  Pd  Pd157  1  0.58946135  0.39172225  0.39903620  1
  Pd  Pd158  1  0.59765067  0.60968899  0.40368013  1
  Pd  Pd159  1  -0.00687037  0.39145840  0.80326275  1
  Pd  Pd160  1  -0.00585913  0.60526518  0.39973245  1
  Pd  Pd161  1  0.59375197  0.00513762  0.21272815  1
  Pd  Pd162  1  0.00146571  0.00667058  0.20205867  1
  Pd  Pd163  1  0.00560012  0.59901421  0.79508781  1
  Pd  Pd164  1  0.39959156  0.00444821  0.59607950  1
  Pd  Pd165  1  0.80157165  0.38491208  0.40571168  1
  Pd  Pd166  1  0.79909905  0.60672194  0.39873992  1
  Pd  Pd167  1  0.80567549  0.00382728  0.39515162  1
  Pd  Pd168  1  0.40414110  0.19770757  0.19551691  1
  Pd  Pd169  1  0.60750434  0.60698127  -0.00970558  1
  Pd  Pd170  1  0.79403471  0.58940918  0.80354294  1
  Pd  Pd171  1  0.39311746  0.00160526  0.00124343  1
  Pd  Pd172  1  0.20288481  0.60821436  0.40704858  1
  Pd  Pd173  1  0.59087719  -0.00710983  0.39923893  1
  Pd  Pd174  1  0.60105467  0.59821915  0.59952977  1
  Pd  Pd175  1  -0.01372927  0.20727603  0.39324145  1
  Pd  Pd176  1  0.20586852  0.39920158  -0.00328672  1
  Pd  Pd177  1  0.19643625  0.80223797  0.79682225  1
  Pd  Pd178  1  -0.00136318  0.20615504  0.80164125  1
  Pd  Pd179  1  0.00580871  0.81057072  0.38925758  1
  Pd  Pd180  1  0.19307598  -0.00202020  0.78862873  1
  Pd  Pd181  1  0.19845697  0.80092750  0.20026524  1
  Pd  Pd182  1  -0.00924413  -0.00001951  0.00450392  1
  Pd  Pd183  1  0.39870121  0.80188162  0.00729371  1
  Pd  Pd184  1  0.40298953  0.39601438  0.59079986  1
  Pd  Pd185  1  0.00676205  0.40279616  0.20805184  1
  Pd  Pd186  1  0.40586554  0.59148832  0.79769939  1
  Pd  Pd187  1  -0.00309806  0.38522580  0.39125132  1
  Pd  Pd188  1  0.80771248  0.80091786  0.60119486  1
  Pd  Pd189  1  -0.00150419  0.40255926  0.60194752  1
  Pd  Pd190  1  0.80803547  0.39180205  0.80573469  1
  Pd  Pd191  1  0.20875666  -0.00038010  0.39441720  1
  Pd  Pd192  1  0.40081524  -0.00218407  0.79544199  1
  Pd  Pd193  1  0.20232154  0.80169880  0.00573274  1
  Pd  Pd194  1  -0.00475035  -0.00090800  0.39162296  1
  Pd  Pd195  1  0.39777262  0.80006166  0.39294017  1
  Pd  Pd196  1  0.20215258  0.40085721  0.39684397  1
  Pd  Pd197  1  0.59840044  0.19643543  0.60767594  1
  Pd  Pd198  1  0.60274584  0.20061506  0.79513376  1
  Pd  Pd199  1  0.00681918  0.19786481  0.60467182  1
  Rh  Rh200  1  0.60206659  0.79897971  0.40614246  1
  Rh  Rh201  1  0.60195298  -0.00668151  0.59523909  1
  Rh  Rh202  1  0.19575945  0.00689373  0.20300458  1
  Rh  Rh203  1  0.20306276  0.20637681  0.40291785  1
  Rh  Rh204  1  0.00958400  0.19911527  0.20301352  1
  Rh  Rh205  1  0.79246912  0.79321724  0.20071159  1
  Rh  Rh206  1  0.19821236  0.40404791  0.58842599  1
  Rh  Rh207  1  0.20066862  0.40047223  0.80756784  1
  Rh  Rh208  1  0.40649940  0.00658603  0.21250663  1
  Rh  Rh209  1  0.40287988  0.60498152  0.20393332  1
  Rh  Rh210  1  0.79357913  0.41196203  0.20225394  1
  Rh  Rh211  1  0.60299832  0.59630530  0.20284440  1
  Rh  Rh212  1  0.59226745  0.40510693  0.59198883  1
  Rh  Rh213  1  0.40080381  0.79118523  0.19637947  1
  Rh  Rh214  1  0.20777097  0.79974492  0.59690840  1
  Rh  Rh215  1  0.01112622  0.79793073  0.20303215  1
  Rh  Rh216  1  0.79956663  0.40585126  0.59694962  1
  Rh  Rh217  1  0.79278497  0.19721721  0.60194390  1
  Rh  Rh218  1  0.39422553  0.40086165  0.00111019  1
  Rh  Rh219  1  0.40109672  0.60688753  0.39498071  1
  Rh  Rh220  1  0.60349485  0.80210287  0.60100289  1
  Rh  Rh221  1  0.19879271  0.19492359  0.19137473  1
  Rh  Rh222  1  0.40595206  0.40282310  0.79987766  1
  Rh  Rh223  1  0.39579255  0.79436821  0.60563226  1
  Rh  Rh224  1  0.79566358  0.18727625  -0.01137319  1
  Rh  Rh225  1  0.60461611  0.20503515  0.39579419  1
  Rh  Rh226  1  0.79633599  0.80604586  0.39849934  1
  Rh  Rh227  1  0.59339377  0.79552736  0.19347385  1
  Rh  Rh228  1  0.39782533  0.19807035  0.40589655  1
  Rh  Rh229  1  0.40259304  0.80363873  0.80017739  1
  Rh  Rh230  1  0.78999523  0.80267772  0.01037631  1
  Rh  Rh231  1  0.19182513  0.59270511  0.19739647  1
  Rh  Rh232  1  0.19432259  0.40628695  0.20975256  1
  Rh  Rh233  1  0.40541995  0.40126546  0.20821592  1
  Rh  Rh234  1  0.80266460  0.00511308  0.19879955  1
  Rh  Rh235  1  0.79422595  0.19172701  0.21178475  1
  Rh  Rh236  1  0.39238732  0.59424949  0.00217727  1
  Rh  Rh237  1  0.60650350  0.39146154  0.00602568  1
  Rh  Rh238  1  -0.00817700  0.59423153  0.01521283  1
  Rh  Rh239  1  0.20220012  0.00317252  0.00389025  1
  Rh  Rh240  1  0.00080603  -0.01071426  0.79772536  1
  Rh  Rh241  1  0.59763600  0.41094868  0.79711749  1
  Rh  Rh242  1  -0.00093334  0.39652386  -0.00422370  1
  Rh  Rh243  1  0.79763110  0.00110749  0.59513961  1
  Rh  Rh244  1  0.01242720  0.19922342  -0.00157042  1
  Rh  Rh245  1  0.80477796  0.40641376  -0.00721400  1
  Rh  Rh246  1  0.00769263  0.80684588  -0.00531031  1
  Rh  Rh247  1  0.39343652  0.60514765  0.60183076  1
  Rh  Rh248  1  0.80415837  0.00766208  0.80780300  1
  Rh  Rh249  1  0.20662862  0.59457345  0.00270322  1
