# generated using pymatgen
data_ZrScNbPdRh
_symmetry_space_group_name_H-M   'P 1'
_cell_length_a   16.55795568
_cell_length_b   16.55853917
_cell_length_c   16.55714542
_cell_angle_alpha   90.02472998
_cell_angle_beta   90.01604341
_cell_angle_gamma   90.00390567
_symmetry_Int_Tables_number   1
_chemical_formula_structural   ZrScNbPdRh
_chemical_formula_sum   'Zr50 Sc50 Nb50 Pd50 Rh50'
_cell_volume   4539.56396651
_cell_formula_units_Z   50
loop_
 _symmetry_equiv_pos_site_id
 _symmetry_equiv_pos_as_xyz
  1  'x, y, z'
loop_
 _atom_site_type_symbol
 _atom_site_label
 _atom_site_symmetry_multiplicity
 _atom_site_fract_x
 _atom_site_fract_y
 _atom_site_fract_z
 _atom_site_occupancy
  Zr  Zr0  1  0.29493943  0.30610061  0.30364071  1
  Zr  Zr1  1  0.90751011  0.10869385  0.29825974  1
  Zr  Zr2  1  0.30031728  0.30068216  0.49657390  1
  Zr  Zr3  1  0.10730036  0.90607360  0.31012379  1
  Zr  Zr4  1  0.31502183  0.50633319  0.70668433  1
  Zr  Zr5  1  0.11251849  0.69962629  0.69991526  1
  Zr  Zr6  1  0.30060332  0.10049509  0.09915455  1
  Zr  Zr7  1  0.10321762  0.09628162  0.10434663  1
  Zr  Zr8  1  0.30325562  0.89759705  0.69250329  1
  Zr  Zr9  1  0.89563655  0.50892795  0.09556716  1
  Zr  Zr10  1  0.69651593  0.30056675  0.70120350  1
  Zr  Zr11  1  0.50535513  0.30303667  0.29485766  1
  Zr  Zr12  1  0.10605241  0.49655143  0.90645817  1
  Zr  Zr13  1  0.89764532  0.69373306  0.90426232  1
  Zr  Zr14  1  0.29594992  0.10903883  0.70469611  1
  Zr  Zr15  1  0.89422295  0.09768114  0.90079576  1
  Zr  Zr16  1  0.49280524  0.69340021  0.69213536  1
  Zr  Zr17  1  0.50144432  0.89862240  0.70213512  1
  Zr  Zr18  1  0.08666862  0.69797613  0.10541123  1
  Zr  Zr19  1  0.69631290  0.89876185  0.70020437  1
  Zr  Zr20  1  0.29938049  0.10064276  0.90456518  1
  Zr  Zr21  1  0.50046495  0.89806273  0.29808661  1
  Zr  Zr22  1  0.10405257  0.49764903  0.29692164  1
  Zr  Zr23  1  0.69477973  0.90443984  0.09805867  1
  Zr  Zr24  1  0.90297202  0.10300333  0.70237337  1
  Zr  Zr25  1  0.29715254  0.30211529  0.89120874  1
  Zr  Zr26  1  0.69639384  0.49555920  0.69938200  1
  Zr  Zr27  1  0.50205473  0.89644701  0.50127091  1
  Zr  Zr28  1  0.90206633  0.49572711  0.89993019  1
  Zr  Zr29  1  0.71528946  0.49916295  0.89838331  1
  Zr  Zr30  1  0.70079868  0.90167345  0.89640911  1
  Zr  Zr31  1  0.30768544  0.49949878  0.29928652  1
  Zr  Zr32  1  0.71023206  0.10304686  0.69141625  1
  Zr  Zr33  1  0.49904195  0.90134928  0.09616554  1
  Zr  Zr34  1  0.91038319  0.50259333  0.50425205  1
  Zr  Zr35  1  0.09504000  0.29555177  0.30622188  1
  Zr  Zr36  1  0.29944261  0.90374118  0.09881365  1
  Zr  Zr37  1  0.49671854  0.49029261  0.10101111  1
  Zr  Zr38  1  0.69356674  0.28878120  0.50382674  1
  Zr  Zr39  1  0.49048848  0.09849036  0.70008423  1
  Zr  Zr40  1  0.30274301  0.29230262  0.10071569  1
  Zr  Zr41  1  0.91112516  0.29929740  0.49921886  1
  Zr  Zr42  1  0.50163276  0.29443310  0.09605584  1
  Zr  Zr43  1  0.90212471  0.50023513  0.30386809  1
  Zr  Zr44  1  0.89157982  0.10567770  0.50722452  1
  Zr  Zr45  1  0.70774579  0.10458561  0.08236952  1
  Zr  Zr46  1  0.69968521  0.70441799  0.49853645  1
  Zr  Zr47  1  0.09899016  0.70624421  0.89667424  1
  Zr  Zr48  1  0.30528111  0.70079198  0.30708327  1
  Zr  Zr49  1  0.29394652  0.49139265  0.10167430  1
  Sc  Sc50  1  0.90787904  0.89918203  0.29656568  1
  Sc  Sc51  1  0.30304011  0.90908144  0.90369212  1
  Sc  Sc52  1  0.50075050  0.29482092  0.89512438  1
  Sc  Sc53  1  0.50157725  0.90367330  0.89917136  1
  Sc  Sc54  1  0.29575158  0.90063851  0.30968392  1
  Sc  Sc55  1  0.90882823  0.29467395  0.69990291  1
  Sc  Sc56  1  0.69936645  0.30391976  0.09874758  1
  Sc  Sc57  1  0.49249906  0.10245914  0.89747131  1
  Sc  Sc58  1  0.69698233  0.11054339  0.30415242  1
  Sc  Sc59  1  0.30476280  0.11047717  0.50387569  1
  Sc  Sc60  1  0.70366892  0.29789404  0.89814787  1
  Sc  Sc61  1  0.70003536  0.70755177  0.70592296  1
  Sc  Sc62  1  0.70267330  0.10525746  0.89445676  1
  Sc  Sc63  1  0.49127568  0.48378569  0.88775599  1
  Sc  Sc64  1  0.50067134  0.10843450  0.09528252  1
  Sc  Sc65  1  0.09787526  0.30838682  0.89691402  1
  Sc  Sc66  1  0.29143879  0.10513770  0.30123992  1
  Sc  Sc67  1  0.90641969  0.90407600  0.89829733  1
  Sc  Sc68  1  0.69997414  0.69577756  0.30601463  1
  Sc  Sc69  1  0.89520074  0.70185809  0.70676381  1
  Sc  Sc70  1  0.49520639  0.70900903  0.10162510  1
  Sc  Sc71  1  0.69090514  0.90390330  0.30087450  1
  Sc  Sc72  1  0.09281541  0.49737307  0.50120620  1
  Sc  Sc73  1  0.50060922  0.70621888  0.89974626  1
  Sc  Sc74  1  0.10719931  0.69210161  0.50900146  1
  Sc  Sc75  1  0.10585285  0.89384938  0.71442564  1
  Sc  Sc76  1  0.08881218  0.90621367  0.10879162  1
  Sc  Sc77  1  0.89872042  0.29337302  0.10202026  1
  Sc  Sc78  1  0.10018266  0.09652227  0.29920965  1
  Sc  Sc79  1  0.30275073  0.70797934  0.50710748  1
  Sc  Sc80  1  0.90063035  0.69610332  0.29370576  1
  Sc  Sc81  1  0.89745560  0.29397496  0.29734263  1
  Sc  Sc82  1  0.10224696  0.30440005  0.09482951  1
  Sc  Sc83  1  0.70518417  0.70031080  0.89554427  1
  Sc  Sc84  1  0.50147608  0.30820702  0.70299756  1
  Sc  Sc85  1  0.70326587  0.70124467  0.10556040  1
  Sc  Sc86  1  0.89159597  0.90120206  0.50173731  1
  Sc  Sc87  1  0.49718796  0.49901958  0.50690830  1
  Sc  Sc88  1  0.10177657  0.49937124  0.09748223  1
  Sc  Sc89  1  0.50663812  0.10469518  0.29631559  1
  Sc  Sc90  1  0.90053480  0.30280558  0.89549542  1
  Sc  Sc91  1  0.90108173  0.49650174  0.70237351  1
  Sc  Sc92  1  0.09933923  0.10575926  0.48935994  1
  Sc  Sc93  1  0.69630977  0.49840794  0.29895945  1
  Sc  Sc94  1  0.29180706  0.69131486  0.89004067  1
  Sc  Sc95  1  0.29722253  0.89453662  0.49523457  1
  Sc  Sc96  1  0.88690706  0.90384768  0.70300060  1
  Sc  Sc97  1  0.68572917  0.50401639  0.49579547  1
  Sc  Sc98  1  0.30395087  0.69554423  0.10404209  1
  Sc  Sc99  1  0.69696129  0.89600161  0.49781096  1
  Nb  Nb100  1  0.10693534  0.29409375  0.69348317  1
  Nb  Nb101  1  0.29860306  0.70363955  0.70139283  1
  Nb  Nb102  1  0.29585667  0.48889571  0.49466589  1
  Nb  Nb103  1  0.50379698  0.70175163  0.49387143  1
  Nb  Nb104  1  0.90089510  0.70966440  0.10451512  1
  Nb  Nb105  1  0.10102532  0.69980520  0.29937296  1
  Nb  Nb106  1  0.69824554  0.10041504  0.50129311  1
  Nb  Nb107  1  0.30259398  0.49912832  0.90167582  1
  Nb  Nb108  1  0.70514911  0.30463993  0.30509369  1
  Nb  Nb109  1  0.10399506  0.89997128  0.50011268  1
  Nb  Nb110  1  0.50382720  0.49901461  0.70224202  1
  Nb  Nb111  1  0.50096999  0.29341709  0.50305856  1
  Nb  Nb112  1  0.90183917  0.69890350  0.50032386  1
  Nb  Nb113  1  0.28676488  0.29579644  0.69938980  1
  Nb  Nb114  1  0.90319140  0.09676458  0.10042443  1
  Nb  Nb115  1  0.09810306  0.08200333  0.89830348  1
  Nb  Nb116  1  0.50479961  0.10479561  0.49986827  1
  Nb  Nb117  1  0.89696227  0.90016794  0.10680971  1
  Nb  Nb118  1  0.09571219  0.50148479  0.68993707  1
  Nb  Nb119  1  0.49083391  0.68968966  0.30132434  1
  Nb  Nb120  1  0.49853436  0.50908753  0.30035295  1
  Nb  Nb121  1  0.10562190  0.89984336  0.90363751  1
  Nb  Nb122  1  0.10046389  0.10325080  0.69819417  1
  Nb  Nb123  1  0.69718668  0.50313501  0.09363982  1
  Nb  Nb124  1  0.10114714  0.30431043  0.50305585  1
  Nb  Nb125  1  0.00801300  0.59631876  0.79918956  1
  Nb  Nb126  1  0.20493420  0.59524189  0.39997157  1
  Nb  Nb127  1  0.19297201  0.00419867  0.60145101  1
  Nb  Nb128  1  0.19566389  0.79839349  0.20097345  1
  Nb  Nb129  1  -0.00235348  0.40286415  0.20018127  1
  Nb  Nb130  1  0.59551360  0.59310642  0.80100070  1
  Nb  Nb131  1  0.80215710  0.00520099  0.19848252  1
  Nb  Nb132  1  0.00804652  -0.00266185  0.60190155  1
  Nb  Nb133  1  0.40067559  0.00141948  0.20329380  1
  Nb  Nb134  1  0.39536085  0.79650425  0.79308978  1
  Nb  Nb135  1  0.59750660  0.59195226  -0.00061319  1
  Nb  Nb136  1  0.40100253  0.59137831  -0.00477585  1
  Nb  Nb137  1  0.79893066  0.40135557  0.59224063  1
  Nb  Nb138  1  0.00219535  0.80333483  0.59718422  1
  Nb  Nb139  1  0.00389073  0.79621836  0.40873361  1
  Nb  Nb140  1  0.80718588  0.80351835  0.00848828  1
  Nb  Nb141  1  0.79750093  0.00737144  0.39742231  1
  Nb  Nb142  1  0.59278880  0.59542521  0.19742250  1
  Nb  Nb143  1  0.79683895  0.39567370  0.40488822  1
  Nb  Nb144  1  0.59856974  0.00699648  0.59617707  1
  Nb  Nb145  1  0.40841824  0.00430836  0.40086056  1
  Nb  Nb146  1  0.80107914  0.59884758  0.59575490  1
  Nb  Nb147  1  0.20135977  0.39903013  0.60429992  1
  Nb  Nb148  1  0.00135193  0.18849217  -0.00290667  1
  Nb  Nb149  1  0.19326164  0.80212528  0.00387518  1
  Pd  Pd150  1  0.19506737  0.20424783  0.20227271  1
  Pd  Pd151  1  0.80383201  0.79553007  0.60080452  1
  Pd  Pd152  1  0.39675077  0.39450463  -0.00394377  1
  Pd  Pd153  1  0.39524850  0.59845056  0.41610756  1
  Pd  Pd154  1  0.60933660  0.79044399  -0.00168118  1
  Pd  Pd155  1  0.41467712  0.39848286  0.40121669  1
  Pd  Pd156  1  0.00517068  0.40248145  0.79184535  1
  Pd  Pd157  1  0.00149249  0.59804926  -0.00304994  1
  Pd  Pd158  1  -0.00153075  0.80893460  0.00158735  1
  Pd  Pd159  1  0.59660407  0.79392661  0.39177153  1
  Pd  Pd160  1  0.39595282  0.00076720  0.58937199  1
  Pd  Pd161  1  0.39676989  0.39417237  0.60501460  1
  Pd  Pd162  1  0.19932342  0.41007580  0.79048239  1
  Pd  Pd163  1  0.20302685  0.60522392  0.20349043  1
  Pd  Pd164  1  0.79353004  0.80791226  0.20538801  1
  Pd  Pd165  1  0.60264402  0.01085695  0.79548818  1
  Pd  Pd166  1  0.80289692  0.40281695  0.20291738  1
  Pd  Pd167  1  0.60119028  0.78825050  0.20583597  1
  Pd  Pd168  1  0.61070847  0.20053536  0.19428850  1
  Pd  Pd169  1  0.80758413  0.80730923  0.39125259  1
  Pd  Pd170  1  0.20672562  -0.00219338  0.79494489  1
  Pd  Pd171  1  0.18712891  0.19477662  0.81329529  1
  Pd  Pd172  1  0.59712287  0.20338883  0.39688578  1
  Pd  Pd173  1  0.40354278  0.19635111  0.39104299  1
  Pd  Pd174  1  0.00964974  0.60746932  0.39992178  1
  Pd  Pd175  1  0.79258110  0.19586565  0.19728383  1
  Pd  Pd176  1  -0.00189750  -0.00204370  0.00300236  1
  Pd  Pd177  1  0.38607674  0.78998795  -0.01312590  1
  Pd  Pd178  1  0.59690067  0.39959486  0.40341593  1
  Pd  Pd179  1  0.79771323  0.59202915  0.40604062  1
  Pd  Pd180  1  0.60188816  0.01171999  0.19501630  1
  Pd  Pd181  1  -0.01003575  -0.00333191  0.40791438  1
  Pd  Pd182  1  0.79375557  0.59841420  0.19920313  1
  Pd  Pd183  1  0.80506191  0.39103997  0.00456296  1
  Pd  Pd184  1  0.59894058  0.19539728  0.79647124  1
  Pd  Pd185  1  0.40361819  0.21134668  0.60700776  1
  Pd  Pd186  1  0.60632218  0.60644731  0.60511383  1
  Pd  Pd187  1  0.39414230  0.59994558  0.58967314  1
  Pd  Pd188  1  0.59431344  0.00839279  -0.00766721  1
  Pd  Pd189  1  0.20472412  0.60757681  0.00394756  1
  Pd  Pd190  1  -0.00536970  0.79845123  0.79451836  1
  Pd  Pd191  1  0.39215534  0.80687164  0.20565290  1
  Pd  Pd192  1  0.00885974  0.19871395  0.80988144  1
  Pd  Pd193  1  0.19583598  0.58801643  0.79654870  1
  Pd  Pd194  1  0.40010872  0.39428685  0.20229320  1
  Pd  Pd195  1  -0.00084520  -0.00560619  0.79129695  1
  Pd  Pd196  1  0.60459678  0.40391861  0.20058890  1
  Pd  Pd197  1  0.21243290  0.58920384  0.59388165  1
  Pd  Pd198  1  0.18933709  0.20220499  -0.00924450  1
  Pd  Pd199  1  0.60185414  0.40040469  -0.01074161  1
  Rh  Rh200  1  0.19444142  0.80774833  0.60173794  1
  Rh  Rh201  1  0.80454373  0.80487597  0.81328783  1
  Rh  Rh202  1  0.21433634  0.01041139  0.41344354  1
  Rh  Rh203  1  0.79292147  -0.00464773  0.59174267  1
  Rh  Rh204  1  0.20783566  -0.00571888  0.20221505  1
  Rh  Rh205  1  -0.00480081  0.00231280  0.20555978  1
  Rh  Rh206  1  0.00780954  0.19307080  0.59734130  1
  Rh  Rh207  1  0.79673985  0.00082038  0.80222293  1
  Rh  Rh208  1  0.19849270  0.20194160  0.40176405  1
  Rh  Rh209  1  -0.00756163  0.39274151  0.01002800  1
  Rh  Rh210  1  0.59431826  0.60370081  0.39409540  1
  Rh  Rh211  1  0.59818168  0.79983013  0.60106886  1
  Rh  Rh212  1  0.39914646  0.20501043  -0.00686680  1
  Rh  Rh213  1  0.40356837  0.79674300  0.60016753  1
  Rh  Rh214  1  0.39344696  0.39125049  0.79206371  1
  Rh  Rh215  1  0.80890637  0.20516818  -0.00381466  1
  Rh  Rh216  1  0.58939527  0.79030668  0.79527899  1
  Rh  Rh217  1  0.39810028  0.20629237  0.79598141  1
  Rh  Rh218  1  0.79388288  0.61374690  0.00809712  1
  Rh  Rh219  1  0.19093580  0.40364071  0.40608294  1
  Rh  Rh220  1  0.00639472  0.80317452  0.21181222  1
  Rh  Rh221  1  0.39481882  -0.00505214  0.80252007  1
  Rh  Rh222  1  0.39812016  0.19658600  0.20600224  1
  Rh  Rh223  1  0.00191158  0.19992716  0.40343854  1
  Rh  Rh224  1  0.19154511  0.78568048  0.39882178  1
  Rh  Rh225  1  0.19407193  -0.00669918  0.00492387  1
  Rh  Rh226  1  0.40766715  0.80333125  0.40202164  1
  Rh  Rh227  1  0.19303654  0.39262466  0.19964903  1
  Rh  Rh228  1  0.40859214  0.60691620  0.80803796  1
  Rh  Rh229  1  0.21243977  0.80880247  0.81067268  1
  Rh  Rh230  1  0.80270844  0.20300687  0.79684841  1
  Rh  Rh231  1  0.80292620  0.21251431  0.60281767  1
  Rh  Rh232  1  0.19474335  0.19964078  0.59020904  1
  Rh  Rh233  1  -0.00914460  0.61456732  0.61332206  1
  Rh  Rh234  1  0.00868704  0.20608842  0.18823286  1
  Rh  Rh235  1  0.60046279  0.20346684  -0.00626611  1
  Rh  Rh236  1  0.80207190  0.39299260  0.78919918  1
  Rh  Rh237  1  0.79998188  0.20104181  0.40187222  1
  Rh  Rh238  1  0.60089799  0.00356503  0.40901368  1
  Rh  Rh239  1  0.40674850  0.59800447  0.18815516  1
  Rh  Rh240  1  0.59702219  0.39431897  0.59318533  1
  Rh  Rh241  1  0.40659036  0.00538504  0.00689722  1
  Rh  Rh242  1  0.00373498  0.39065915  0.60767598  1
  Rh  Rh243  1  0.79972880  0.59559347  0.78823847  1
  Rh  Rh244  1  0.59173241  0.19519145  0.60852567  1
  Rh  Rh245  1  0.20657385  0.39523770  -0.00019537  1
  Rh  Rh246  1  -0.00452074  0.59415503  0.20017917  1
  Rh  Rh247  1  -0.00377515  0.39476147  0.39156993  1
  Rh  Rh248  1  0.80334929  -0.00970049  0.00339523  1
  Rh  Rh249  1  0.60562971  0.40425117  0.80626858  1
