# generated using pymatgen
data_ZrScNbPdRh
_symmetry_space_group_name_H-M   'P 1'
_cell_length_a   16.55726088
_cell_length_b   16.55804294
_cell_length_c   16.55817352
_cell_angle_alpha   89.98646157
_cell_angle_beta   89.98915447
_cell_angle_gamma   90.01912083
_symmetry_Int_Tables_number   1
_chemical_formula_structural   ZrScNbPdRh
_chemical_formula_sum   'Zr50 Sc50 Nb50 Pd50 Rh50'
_cell_volume   4539.51945180
_cell_formula_units_Z   50
loop_
 _symmetry_equiv_pos_site_id
 _symmetry_equiv_pos_as_xyz
  1  'x, y, z'
loop_
 _atom_site_type_symbol
 _atom_site_label
 _atom_site_symmetry_multiplicity
 _atom_site_fract_x
 _atom_site_fract_y
 _atom_site_fract_z
 _atom_site_occupancy
  Zr  Zr0  1  0.29938857  0.09551874  0.89664668  1
  Zr  Zr1  1  0.89191951  0.10088930  0.11142925  1
  Zr  Zr2  1  0.69770454  0.69883732  0.68764333  1
  Zr  Zr3  1  0.69884753  0.47813794  0.89912619  1
  Zr  Zr4  1  0.29448925  0.09940451  0.30875013  1
  Zr  Zr5  1  0.09849564  0.70152656  0.69816811  1
  Zr  Zr6  1  0.69748020  0.09432021  0.70619923  1
  Zr  Zr7  1  0.90191192  0.69227512  0.29245954  1
  Zr  Zr8  1  0.10632704  0.89877211  0.30466142  1
  Zr  Zr9  1  0.69997299  0.29976218  0.08479476  1
  Zr  Zr10  1  0.89655165  0.29867769  0.10891356  1
  Zr  Zr11  1  0.29966639  0.49924947  0.91254295  1
  Zr  Zr12  1  0.09255967  0.09911149  0.10877126  1
  Zr  Zr13  1  0.90605202  0.50661082  0.10746537  1
  Zr  Zr14  1  0.50038972  0.10388255  0.31187196  1
  Zr  Zr15  1  0.09686474  0.29759138  0.49690823  1
  Zr  Zr16  1  0.90483697  0.89633448  0.29745857  1
  Zr  Zr17  1  0.10276627  0.10028527  0.30752921  1
  Zr  Zr18  1  0.30520126  0.50479070  0.30602660  1
  Zr  Zr19  1  0.30212564  0.89908094  0.70010049  1
  Zr  Zr20  1  0.10277735  0.09176447  0.90235734  1
  Zr  Zr21  1  0.10765424  0.49881770  0.10186626  1
  Zr  Zr22  1  0.49301969  0.30473145  0.67950137  1
  Zr  Zr23  1  0.89898441  0.69977653  0.10666926  1
  Zr  Zr24  1  0.10925560  0.29284316  0.69198134  1
  Zr  Zr25  1  0.30942373  0.30383175  0.50943664  1
  Zr  Zr26  1  0.50911767  0.90325982  0.30969453  1
  Zr  Zr27  1  0.49673941  0.09835335  0.49872947  1
  Zr  Zr28  1  0.68795767  0.30470213  0.30015716  1
  Zr  Zr29  1  0.69440640  0.50217539  0.70107105  1
  Zr  Zr30  1  0.30543316  0.68476073  0.90016442  1
  Zr  Zr31  1  0.69367427  0.10741102  0.89314682  1
  Zr  Zr32  1  0.89972340  0.49224146  0.49209407  1
  Zr  Zr33  1  0.09699987  0.10392219  0.49908728  1
  Zr  Zr34  1  0.10000713  0.89034209  0.69706994  1
  Zr  Zr35  1  0.88617252  0.30082396  0.90247299  1
  Zr  Zr36  1  0.70184667  0.89895374  0.29593965  1
  Zr  Zr37  1  0.70085797  0.10257462  0.50469056  1
  Zr  Zr38  1  0.51064158  0.29939347  0.90073004  1
  Zr  Zr39  1  0.09657856  0.30673600  0.89995200  1
  Zr  Zr40  1  0.49848111  0.29852336  0.09230735  1
  Zr  Zr41  1  0.09795432  0.89470496  0.90068672  1
  Zr  Zr42  1  0.89533724  0.89653566  0.89641112  1
  Zr  Zr43  1  0.29753720  0.10751348  0.69651461  1
  Zr  Zr44  1  0.29726013  0.90155072  0.90095621  1
  Zr  Zr45  1  0.49780701  0.50431724  0.89544826  1
  Zr  Zr46  1  0.90623292  0.10705215  0.49909876  1
  Zr  Zr47  1  0.50394071  0.49564534  0.29997834  1
  Zr  Zr48  1  0.68751310  0.88798556  0.48958388  1
  Zr  Zr49  1  0.30299429  0.89209091  0.11153035  1
  Sc  Sc50  1  0.29951944  0.30951143  0.09396607  1
  Sc  Sc51  1  0.70971478  0.50318448  0.51043910  1
  Sc  Sc52  1  0.70055733  0.70839659  0.10997549  1
  Sc  Sc53  1  0.30577225  0.51085928  0.69229074  1
  Sc  Sc54  1  0.30577384  0.30231640  0.91215153  1
  Sc  Sc55  1  0.10094659  0.89608244  0.49364414  1
  Sc  Sc56  1  0.09522546  0.90273179  0.10286393  1
  Sc  Sc57  1  0.50442408  0.50501220  0.69647467  1
  Sc  Sc58  1  0.09666965  0.68886947  0.10760578  1
  Sc  Sc59  1  0.70608374  0.70623050  0.30143707  1
  Sc  Sc60  1  0.10395467  0.70300967  0.49891440  1
  Sc  Sc61  1  0.10142741  0.50236800  0.90538250  1
  Sc  Sc62  1  0.30120198  0.70173667  0.69203822  1
  Sc  Sc63  1  0.70188201  0.89771847  0.70201025  1
  Sc  Sc64  1  0.48951522  0.49386162  0.50099377  1
  Sc  Sc65  1  0.29629464  0.10266274  0.10178997  1
  Sc  Sc66  1  0.09832453  0.49910801  0.69228094  1
  Sc  Sc67  1  0.50233126  0.70720899  0.51245236  1
  Sc  Sc68  1  0.90374325  0.48965121  0.90083450  1
  Sc  Sc69  1  0.50022896  0.90122327  0.69189437  1
  Sc  Sc70  1  0.10730934  0.50007722  0.29877666  1
  Sc  Sc71  1  0.10280315  0.69707021  0.89817520  1
  Sc  Sc72  1  0.50174945  0.09494817  0.69846046  1
  Sc  Sc73  1  0.70716386  0.09377186  0.29446855  1
  Sc  Sc74  1  0.29627345  0.30300669  0.31214183  1
  Sc  Sc75  1  0.89518734  0.49895780  0.68798556  1
  Sc  Sc76  1  0.29853745  0.69921018  0.29273178  1
  Sc  Sc77  1  0.49930614  0.69368712  0.69905277  1
  Sc  Sc78  1  0.68939385  0.90326295  0.89818428  1
  Sc  Sc79  1  0.89992841  0.71128000  0.90144580  1
  Sc  Sc80  1  0.50648861  0.09947586  0.89940619  1
  Sc  Sc81  1  0.50364340  0.69912761  0.10711934  1
  Sc  Sc82  1  0.50168851  0.69594498  0.29379277  1
  Sc  Sc83  1  0.89629829  0.89750650  0.69888963  1
  Sc  Sc84  1  0.69608609  0.71582284  0.89548927  1
  Sc  Sc85  1  0.09732321  0.30732959  0.10973259  1
  Sc  Sc86  1  0.29551353  0.89676166  0.50343366  1
  Sc  Sc87  1  0.90663340  0.30317747  0.69323119  1
  Sc  Sc88  1  0.90112466  0.90667529  0.49577060  1
  Sc  Sc89  1  0.90242078  0.09923351  0.29944218  1
  Sc  Sc90  1  0.89362637  0.68944607  0.49682375  1
  Sc  Sc91  1  0.89443430  0.71001303  0.69642732  1
  Sc  Sc92  1  0.69366204  0.50568446  0.29167678  1
  Sc  Sc93  1  0.89217006  0.09507829  0.69025163  1
  Sc  Sc94  1  0.51853235  0.89790223  0.10461260  1
  Sc  Sc95  1  0.90363054  0.89617444  0.10103916  1
  Sc  Sc96  1  0.09992129  0.30100117  0.30256039  1
  Sc  Sc97  1  0.69177600  0.29985460  0.70094358  1
  Sc  Sc98  1  0.10286128  0.50303957  0.49681356  1
  Sc  Sc99  1  0.88778900  0.09685570  0.89196779  1
  Nb  Nb100  1  0.89458325  0.30784229  0.30314145  1
  Nb  Nb101  1  0.30138382  0.50552195  0.49163205  1
  Nb  Nb102  1  0.49847397  0.89787672  0.49650053  1
  Nb  Nb103  1  0.30448669  0.70038522  0.50007741  1
  Nb  Nb104  1  0.50056968  0.30172861  0.30325019  1
  Nb  Nb105  1  0.69570432  0.29640328  0.49777347  1
  Nb  Nb106  1  0.29663814  0.10351407  0.49687814  1
  Nb  Nb107  1  0.50756190  0.29299335  0.48241879  1
  Nb  Nb108  1  0.50155903  0.09655881  0.10373934  1
  Nb  Nb109  1  0.69473607  0.69736004  0.50094247  1
  Nb  Nb110  1  0.50158816  0.89423874  0.90687459  1
  Nb  Nb111  1  0.69407338  0.09393150  0.10360563  1
  Nb  Nb112  1  0.09820425  0.10546246  0.69807045  1
  Nb  Nb113  1  0.30278600  0.69289053  0.10133761  1
  Nb  Nb114  1  0.69895103  0.49970624  0.09881536  1
  Nb  Nb115  1  0.29848319  0.89704519  0.30301653  1
  Nb  Nb116  1  0.09664106  0.70467326  0.30134418  1
  Nb  Nb117  1  0.50226668  0.70265110  0.90332351  1
  Nb  Nb118  1  0.69748964  0.90821085  0.10297913  1
  Nb  Nb119  1  0.50883808  0.50115799  0.10840256  1
  Nb  Nb120  1  0.30099467  0.29968975  0.69819681  1
  Nb  Nb121  1  0.89624516  0.49702116  0.29759602  1
  Nb  Nb122  1  0.89804321  0.30286681  0.49043751  1
  Nb  Nb123  1  0.69453187  0.29572907  0.89705605  1
  Nb  Nb124  1  0.30363101  0.50510423  0.10265284  1
  Nb  Nb125  1  -0.00722359  0.60141404  0.79588579  1
  Nb  Nb126  1  0.79064617  0.00051456  0.00539318  1
  Nb  Nb127  1  0.59509102  0.19821179  0.19697489  1
  Nb  Nb128  1  0.79940608  0.21100418  0.40141066  1
  Nb  Nb129  1  0.00416472  0.00202466  0.79578496  1
  Nb  Nb130  1  0.18944958  0.19903055  0.00056387  1
  Nb  Nb131  1  0.39814320  0.20735251  0.79624517  1
  Nb  Nb132  1  0.40436131  0.20174942  0.20437708  1
  Nb  Nb133  1  0.19677518  0.00690342  0.60155718  1
  Nb  Nb134  1  0.00324048  0.19557806  0.80092700  1
  Nb  Nb135  1  0.79303840  0.59790243  -0.00332004  1
  Nb  Nb136  1  -0.00241256  0.19754662  -0.00245022  1
  Nb  Nb137  1  0.40149615  0.79839427  0.00137204  1
  Nb  Nb138  1  0.20938396  0.79206339  0.00605095  1
  Nb  Nb139  1  0.20971305  0.39781916  0.79592585  1
  Nb  Nb140  1  0.79974517  0.59927380  0.80446306  1
  Nb  Nb141  1  0.60638654  0.59833565  0.00075414  1
  Nb  Nb142  1  0.39641251  0.39730453  0.79648518  1
  Nb  Nb143  1  0.40299969  0.00221463  0.20436908  1
  Nb  Nb144  1  0.40581965  -0.00604947  0.00640791  1
  Nb  Nb145  1  0.40443518  0.79832592  0.80993955  1
  Nb  Nb146  1  0.39940763  0.80230076  0.40141550  1
  Nb  Nb147  1  0.79881208  0.40216514  0.20018996  1
  Nb  Nb148  1  0.60214661  0.60394662  0.40766009  1
  Nb  Nb149  1  0.40662393  0.40012626  0.20070077  1
  Pd  Pd150  1  0.41167276  0.61319481  0.40530612  1
  Pd  Pd151  1  0.80461610  0.20636664  0.78624195  1
  Pd  Pd152  1  0.00271808  0.39878416  0.59549471  1
  Pd  Pd153  1  0.20243402  0.20836035  0.81115544  1
  Pd  Pd154  1  0.41376260  0.60073520  0.01077862  1
  Pd  Pd155  1  0.79509836  0.39071598  0.60267051  1
  Pd  Pd156  1  0.00868778  0.40504004  0.39362110  1
  Pd  Pd157  1  0.00037726  0.20363225  0.20737585  1
  Pd  Pd158  1  0.80079145  0.80524073  0.58879830  1
  Pd  Pd159  1  -0.00515905  0.60370924  0.60093656  1
  Pd  Pd160  1  0.00549244  -0.00386082  0.60455600  1
  Pd  Pd161  1  0.21257888  0.39984680  0.20438746  1
  Pd  Pd162  1  -0.00624097  0.79345635  0.40426944  1
  Pd  Pd163  1  0.19298787  0.59032768  0.79444846  1
  Pd  Pd164  1  0.20206351  0.60141962  0.59473644  1
  Pd  Pd165  1  0.80752466  0.79560957  0.40233145  1
  Pd  Pd166  1  0.59214924  0.80242217  0.78855407  1
  Pd  Pd167  1  0.19268479  -0.00276680  0.78827553  1
  Pd  Pd168  1  0.78979184  0.80344576  0.00559426  1
  Pd  Pd169  1  0.20662611  0.40946655  0.59857483  1
  Pd  Pd170  1  0.00481206  0.59674074  0.39692690  1
  Pd  Pd171  1  0.41062363  -0.00092112  0.80492536  1
  Pd  Pd172  1  0.39517600  0.18906840  -0.00106404  1
  Pd  Pd173  1  -0.01683264  0.00664033  -0.00431430  1
  Pd  Pd174  1  0.60909020  0.60435353  0.80869890  1
  Pd  Pd175  1  -0.00806471  0.60480143  -0.01064096  1
  Pd  Pd176  1  0.79150058  0.59657761  0.39553413  1
  Pd  Pd177  1  0.60014762  0.40358860  0.58981847  1
  Pd  Pd178  1  0.60431012  -0.00613798  0.59669314  1
  Pd  Pd179  1  0.20863641  0.21000016  0.19545848  1
  Pd  Pd180  1  0.01155556  0.79061111  0.00638356  1
  Pd  Pd181  1  0.80196936  0.20919388  0.59959791  1
  Pd  Pd182  1  -0.00635250  0.79734741  0.58894331  1
  Pd  Pd183  1  0.20575542  -0.00372073  0.01385070  1
  Pd  Pd184  1  0.20418193  -0.00024510  0.19975716  1
  Pd  Pd185  1  0.60683848  0.41505014  0.41237512  1
  Pd  Pd186  1  0.19666134  0.60901483  0.39589285  1
  Pd  Pd187  1  0.00732817  0.40286085  0.79200375  1
  Pd  Pd188  1  0.59604237  0.19650448  0.60273485  1
  Pd  Pd189  1  0.79246945  -0.01060236  0.59378377  1
  Pd  Pd190  1  -0.00322048  0.39574773  0.00711802  1
  Pd  Pd191  1  0.20916754  0.79006848  0.80562774  1
  Pd  Pd192  1  0.19193953  0.79200536  0.19717459  1
  Pd  Pd193  1  0.39107908  -0.00848596  0.40209791  1
  Pd  Pd194  1  0.39268291  0.00115219  0.59417783  1
  Pd  Pd195  1  0.80094990  0.39921192  0.78903466  1
  Pd  Pd196  1  0.41075319  0.80584020  0.20476801  1
  Pd  Pd197  1  0.80004113  0.18934818  0.00002120  1
  Pd  Pd198  1  0.79953791  0.00646641  0.40249584  1
  Pd  Pd199  1  0.78536003  0.40371060  0.39451944  1
  Rh  Rh200  1  0.20075543  0.60188743  0.20371546  1
  Rh  Rh201  1  0.39930936  0.80049459  0.60010743  1
  Rh  Rh202  1  0.80220560  0.80697411  0.19800618  1
  Rh  Rh203  1  0.78651615  0.21174461  0.20965626  1
  Rh  Rh204  1  0.39424757  0.41054846  0.60108157  1
  Rh  Rh205  1  0.79457754  0.59554208  0.19617931  1
  Rh  Rh206  1  0.40445687  0.19402410  0.59648397  1
  Rh  Rh207  1  0.00057341  -0.00356760  0.20905259  1
  Rh  Rh208  1  0.59277345  0.40685443  0.00184566  1
  Rh  Rh209  1  -0.00152913  0.79934755  0.79858257  1
  Rh  Rh210  1  0.40975732  0.41247473  0.00424119  1
  Rh  Rh211  1  0.58942203  0.39295117  0.79211956  1
  Rh  Rh212  1  0.20045941  -0.00307708  0.40996608  1
  Rh  Rh213  1  0.19619731  0.39834699  -0.00081057  1
  Rh  Rh214  1  0.19813331  0.60391182  0.00916093  1
  Rh  Rh215  1  0.80853974  0.40813514  0.00938960  1
  Rh  Rh216  1  0.21072257  0.79300161  0.39869392  1
  Rh  Rh217  1  0.00946426  0.59514667  0.21206601  1
  Rh  Rh218  1  0.00212406  0.00023304  0.39603879  1
  Rh  Rh219  1  0.00578344  0.79991396  0.19941087  1
  Rh  Rh220  1  0.20146281  0.40125030  0.40774660  1
  Rh  Rh221  1  0.60937382  0.00643800  0.40524745  1
  Rh  Rh222  1  0.20151140  0.80242511  0.59600581  1
  Rh  Rh223  1  0.60067539  0.38994976  0.18883913  1
  Rh  Rh224  1  0.60120401  0.00488139  -0.00465894  1
  Rh  Rh225  1  0.60293932  0.19026931  0.00502498  1
  Rh  Rh226  1  0.20239981  0.20726283  0.40678232  1
  Rh  Rh227  1  0.39363969  0.20599091  0.40254196  1
  Rh  Rh228  1  0.60619996  0.60742207  0.20146961  1
  Rh  Rh229  1  0.80494304  -0.00954016  0.19593035  1
  Rh  Rh230  1  0.61161499  0.19152442  0.39494026  1
  Rh  Rh231  1  0.58956315  0.20549530  0.78857036  1
  Rh  Rh232  1  -0.00887852  0.20461852  0.39202010  1
  Rh  Rh233  1  0.59544398  -0.00534002  0.79951225  1
  Rh  Rh234  1  0.80260275  0.60251836  0.60502800  1
  Rh  Rh235  1  0.40047846  0.59143713  0.19930824  1
  Rh  Rh236  1  -0.00428361  0.40513914  0.20754770  1
  Rh  Rh237  1  0.60324911  0.79961301  0.20515564  1
  Rh  Rh238  1  0.60006140  0.79270018  0.00808906  1
  Rh  Rh239  1  0.40256724  0.60124009  0.79491079  1
  Rh  Rh240  1  0.59544021  0.59420570  0.58981585  1
  Rh  Rh241  1  0.40075385  0.60111582  0.59395779  1
  Rh  Rh242  1  0.59844120  0.80389238  0.60372797  1
  Rh  Rh243  1  0.39814745  0.39616321  0.39766859  1
  Rh  Rh244  1  0.59528056  0.00624130  0.20961046  1
  Rh  Rh245  1  0.20234849  0.19665192  0.59021070  1
  Rh  Rh246  1  0.79547922  0.79784619  0.79745564  1
  Rh  Rh247  1  0.80059196  -0.00631202  0.80462129  1
  Rh  Rh248  1  -0.00644889  0.20466069  0.60243618  1
  Rh  Rh249  1  0.59063618  0.78688408  0.39676757  1
