# generated using pymatgen
data_ZrScNbPdRh
_symmetry_space_group_name_H-M   'P 1'
_cell_length_a   16.55133871
_cell_length_b   16.55272707
_cell_length_c   16.55451895
_cell_angle_alpha   89.98401073
_cell_angle_beta   90.01735369
_cell_angle_gamma   89.96820884
_symmetry_Int_Tables_number   1
_chemical_formula_structural   ZrScNbPdRh
_chemical_formula_sum   'Zr50 Sc50 Nb50 Pd50 Rh50'
_cell_volume   4535.43703504
_cell_formula_units_Z   50
loop_
 _symmetry_equiv_pos_site_id
 _symmetry_equiv_pos_as_xyz
  1  'x, y, z'
loop_
 _atom_site_type_symbol
 _atom_site_label
 _atom_site_symmetry_multiplicity
 _atom_site_fract_x
 _atom_site_fract_y
 _atom_site_fract_z
 _atom_site_occupancy
  Zr  Zr0  1  0.10029928  0.89940414  0.69624754  1
  Zr  Zr1  1  0.29495239  0.30768630  0.48976769  1
  Zr  Zr2  1  0.90035447  0.30350535  0.29521090  1
  Zr  Zr3  1  0.50041883  0.50077975  0.90223806  1
  Zr  Zr4  1  0.49827241  0.69607754  0.30304731  1
  Zr  Zr5  1  0.89934773  0.50313109  0.29138164  1
  Zr  Zr6  1  0.89883786  0.70384889  0.49847817  1
  Zr  Zr7  1  0.89714953  0.90264173  0.10618727  1
  Zr  Zr8  1  0.50719000  0.49125118  0.30196931  1
  Zr  Zr9  1  0.09855904  0.09978480  0.09712787  1
  Zr  Zr10  1  0.69740122  0.50379685  0.49254738  1
  Zr  Zr11  1  0.69592021  0.09795367  0.11258599  1
  Zr  Zr12  1  0.10120136  0.09383856  0.49801883  1
  Zr  Zr13  1  0.30843214  0.10364311  0.70953065  1
  Zr  Zr14  1  0.50543668  0.69776140  0.89778006  1
  Zr  Zr15  1  0.30139901  0.50383012  0.68939045  1
  Zr  Zr16  1  0.69545662  0.29403460  0.69749962  1
  Zr  Zr17  1  0.69884357  0.50557192  0.89836126  1
  Zr  Zr18  1  0.29603189  0.88603578  0.70141696  1
  Zr  Zr19  1  0.09909838  0.90247083  0.89913069  1
  Zr  Zr20  1  0.49547527  0.49995041  0.69602911  1
  Zr  Zr21  1  0.90219413  0.49876269  0.69864817  1
  Zr  Zr22  1  0.70520496  0.49268789  0.10509862  1
  Zr  Zr23  1  0.10800660  0.30033672  0.89774577  1
  Zr  Zr24  1  0.89546222  0.70394833  0.89921503  1
  Zr  Zr25  1  0.29351442  0.48426199  0.30116819  1
  Zr  Zr26  1  0.90016146  0.89498438  0.89916369  1
  Zr  Zr27  1  0.70471878  0.49804588  0.69942267  1
  Zr  Zr28  1  0.29697148  0.90064813  0.29862902  1
  Zr  Zr29  1  0.49650551  0.50281125  0.49192137  1
  Zr  Zr30  1  0.69326909  0.89980056  0.69681472  1
  Zr  Zr31  1  0.49638781  0.90522966  0.90914062  1
  Zr  Zr32  1  0.30318541  0.28558246  0.89118318  1
  Zr  Zr33  1  0.90164128  0.69719328  0.69974168  1
  Zr  Zr34  1  0.90075243  0.49391255  0.51123193  1
  Zr  Zr35  1  0.70524897  0.70369990  0.49820999  1
  Zr  Zr36  1  0.10928525  0.51049151  0.09742434  1
  Zr  Zr37  1  0.10500528  0.09908082  0.29495073  1
  Zr  Zr38  1  0.89756708  0.49477520  0.10531573  1
  Zr  Zr39  1  0.48123417  0.10328334  0.89847086  1
  Zr  Zr40  1  0.09175383  0.70106098  0.49992250  1
  Zr  Zr41  1  0.90773953  0.09664961  0.90025233  1
  Zr  Zr42  1  0.10172778  0.90338462  0.10891690  1
  Zr  Zr43  1  0.29575796  0.70171235  0.09899874  1
  Zr  Zr44  1  0.69314559  0.88944401  0.90147192  1
  Zr  Zr45  1  0.49812916  0.49991113  0.09839311  1
  Zr  Zr46  1  0.69745463  0.90393733  0.29307908  1
  Zr  Zr47  1  0.90406299  0.69758823  0.30515310  1
  Zr  Zr48  1  0.30540156  0.50075571  0.10179229  1
  Zr  Zr49  1  0.89567123  0.50086372  0.89969716  1
  Sc  Sc50  1  0.71477607  0.69608050  0.30505130  1
  Sc  Sc51  1  0.28906861  0.10165004  0.30205789  1
  Sc  Sc52  1  0.11622216  0.30884987  0.30171460  1
  Sc  Sc53  1  0.10397463  0.70148120  0.10701508  1
  Sc  Sc54  1  0.30389983  0.30603986  0.10850316  1
  Sc  Sc55  1  0.09661986  0.09372960  0.69591199  1
  Sc  Sc56  1  0.70029839  0.11197734  0.69425380  1
  Sc  Sc57  1  0.69693486  0.90083727  0.49912105  1
  Sc  Sc58  1  0.49790174  0.09610966  0.09727659  1
  Sc  Sc59  1  0.91185591  0.89557140  0.70815257  1
  Sc  Sc60  1  0.30202614  0.71734461  0.89824260  1
  Sc  Sc61  1  0.49446281  0.69803123  0.10038446  1
  Sc  Sc62  1  0.29828445  0.90431077  0.49804342  1
  Sc  Sc63  1  0.49753258  0.30284335  0.11443113  1
  Sc  Sc64  1  0.69468831  0.09867168  0.30350385  1
  Sc  Sc65  1  0.29554764  0.10058871  0.09832825  1
  Sc  Sc66  1  0.10929392  0.70406956  0.69189367  1
  Sc  Sc67  1  0.49827493  0.89717839  0.30009420  1
  Sc  Sc68  1  0.29892237  0.49011775  0.91145380  1
  Sc  Sc69  1  0.70283730  0.30304491  0.88741031  1
  Sc  Sc70  1  0.88800820  0.09616372  0.29745207  1
  Sc  Sc71  1  0.29997055  0.09296919  0.49543126  1
  Sc  Sc72  1  0.30159607  0.89385292  0.10027204  1
  Sc  Sc73  1  0.69797348  0.11122805  0.88893476  1
  Sc  Sc74  1  0.69537765  0.70260417  0.89783480  1
  Sc  Sc75  1  0.89423091  0.29807653  0.68985005  1
  Sc  Sc76  1  0.50988065  0.90018107  0.10156994  1
  Sc  Sc77  1  0.30142866  0.49730174  0.49961748  1
  Sc  Sc78  1  0.10515291  0.30539343  0.70269790  1
  Sc  Sc79  1  0.49943914  0.90541015  0.50059747  1
  Sc  Sc80  1  0.89804448  0.30196198  0.89710213  1
  Sc  Sc81  1  0.10684227  0.70253788  0.91719099  1
  Sc  Sc82  1  0.70307556  0.29366436  0.50246425  1
  Sc  Sc83  1  0.90139498  0.10253406  0.50333804  1
  Sc  Sc84  1  0.90187524  0.09864076  0.10482340  1
  Sc  Sc85  1  0.90380416  0.70151685  0.10712939  1
  Sc  Sc86  1  0.89719996  0.89994558  0.30112435  1
  Sc  Sc87  1  0.70072845  0.70556120  0.70396884  1
  Sc  Sc88  1  0.10196975  0.90208604  0.30298454  1
  Sc  Sc89  1  0.10466018  0.29786763  0.10005081  1
  Sc  Sc90  1  0.10115591  0.49838988  0.69492864  1
  Sc  Sc91  1  0.50300734  0.08987635  0.49949764  1
  Sc  Sc92  1  0.30033530  0.69752575  0.50349376  1
  Sc  Sc93  1  0.69587752  0.09890835  0.49413338  1
  Sc  Sc94  1  0.30158811  0.71199802  0.29829186  1
  Sc  Sc95  1  0.50610755  0.31072397  0.49780690  1
  Sc  Sc96  1  0.49419965  0.90160029  0.68732364  1
  Sc  Sc97  1  0.69185852  0.28747224  0.29384970  1
  Sc  Sc98  1  0.09493504  0.49584121  0.50523678  1
  Sc  Sc99  1  0.90072201  0.10341997  0.69945105  1
  Nb  Nb100  1  0.50031246  0.30058003  0.89980873  1
  Nb  Nb101  1  0.29773673  0.09629711  0.90000230  1
  Nb  Nb102  1  0.69384467  0.70001505  0.09752186  1
  Nb  Nb103  1  0.70314299  0.29889110  0.09858617  1
  Nb  Nb104  1  0.90406645  0.89942530  0.50166282  1
  Nb  Nb105  1  0.10691520  0.10442921  0.90280856  1
  Nb  Nb106  1  0.30017579  0.90545961  0.90148733  1
  Nb  Nb107  1  0.50631811  0.10468729  0.29891977  1
  Nb  Nb108  1  0.09766919  0.69446812  0.30321687  1
  Nb  Nb109  1  0.89234052  0.30544317  0.09944208  1
  Nb  Nb110  1  0.49591105  0.29495935  0.29996613  1
  Nb  Nb111  1  0.09657708  0.29539286  0.49680218  1
  Nb  Nb112  1  0.69565537  0.89979851  0.09729680  1
  Nb  Nb113  1  0.09766733  0.50672000  0.29280848  1
  Nb  Nb114  1  0.50170657  0.29789363  0.69964090  1
  Nb  Nb115  1  0.30308775  0.30131376  0.69563990  1
  Nb  Nb116  1  0.10139327  0.50104948  0.90128898  1
  Nb  Nb117  1  0.50208759  0.69318373  0.49474668  1
  Nb  Nb118  1  0.48217490  0.69398455  0.69508980  1
  Nb  Nb119  1  0.09074307  0.90528856  0.50687108  1
  Nb  Nb120  1  0.70664451  0.50252144  0.29946078  1
  Nb  Nb121  1  0.30214188  0.69521220  0.70211235  1
  Nb  Nb122  1  0.30020224  0.29707885  0.30020913  1
  Nb  Nb123  1  0.90574712  0.30285492  0.49851847  1
  Nb  Nb124  1  0.50258383  0.10013613  0.69772862  1
  Nb  Nb125  1  0.20569462  0.20323399  0.59869205  1
  Nb  Nb126  1  0.60659677  0.59625516  0.20356873  1
  Nb  Nb127  1  0.60168786  0.39402912  0.00015544  1
  Nb  Nb128  1  0.00192159  0.40368816  -0.00068529  1
  Nb  Nb129  1  -0.00039784  0.20444692  0.20359480  1
  Nb  Nb130  1  0.59994318  0.79441551  0.40054346  1
  Nb  Nb131  1  0.00888165  0.59751989  0.80625249  1
  Nb  Nb132  1  0.00713108  0.19904004  0.80553050  1
  Nb  Nb133  1  0.19160147  0.59920346  0.39443602  1
  Nb  Nb134  1  0.40163163  0.39303368  0.79567884  1
  Nb  Nb135  1  0.40013328  0.20532137  0.59848611  1
  Nb  Nb136  1  0.79654294  0.60111636  0.00431142  1
  Nb  Nb137  1  0.60036392  0.20820109  -0.00023644  1
  Nb  Nb138  1  0.39980714  0.00161179  0.20418708  1
  Nb  Nb139  1  0.40211041  0.20344613  0.39748077  1
  Nb  Nb140  1  0.00264556  0.20510254  0.39714626  1
  Nb  Nb141  1  0.59304964  0.60521292  0.59844649  1
  Nb  Nb142  1  0.80283444  0.39910646  0.39766983  1
  Nb  Nb143  1  0.79432843  -0.00361109  0.80050966  1
  Nb  Nb144  1  0.79637895  0.20046741  0.00422813  1
  Nb  Nb145  1  0.80216264  -0.00383615  0.60358437  1
  Nb  Nb146  1  0.20094012  0.60067912  0.80241573  1
  Nb  Nb147  1  0.59546226  0.00382544  0.79686446  1
  Nb  Nb148  1  0.20364013  0.00160009  0.80741622  1
  Nb  Nb149  1  0.79248188  -0.00010780  -0.00175012  1
  Pd  Pd150  1  0.00337461  0.80153536  0.00747462  1
  Pd  Pd151  1  0.40512289  0.80242478  0.40684246  1
  Pd  Pd152  1  0.00759861  0.20324219  0.60310171  1
  Pd  Pd153  1  0.58396485  0.80395555  0.79088586  1
  Pd  Pd154  1  0.60618175  0.01428540  -0.01057820  1
  Pd  Pd155  1  0.40121686  0.20617302  0.01137059  1
  Pd  Pd156  1  -0.00342825  -0.00404286  0.00409471  1
  Pd  Pd157  1  0.79746283  0.79746361  0.00824107  1
  Pd  Pd158  1  0.38694510  0.59218006  0.81133559  1
  Pd  Pd159  1  0.40265803  0.00816009  0.39115633  1
  Pd  Pd160  1  0.38313392  0.59863227  0.39417294  1
  Pd  Pd161  1  0.39523579  0.19011527  0.20457897  1
  Pd  Pd162  1  0.20147173  0.79992375  0.58872522  1
  Pd  Pd163  1  0.79988526  -0.00366297  0.40895460  1
  Pd  Pd164  1  0.21087032  0.40974588  0.79790060  1
  Pd  Pd165  1  0.39962518  0.59539899  0.21009772  1
  Pd  Pd166  1  0.59021158  0.79179020  0.59526018  1
  Pd  Pd167  1  -0.00057404  0.58934290  0.40457398  1
  Pd  Pd168  1  0.80761877  0.80900871  0.60606680  1
  Pd  Pd169  1  0.19475762  0.39640217  0.59458685  1
  Pd  Pd170  1  -0.00678518  0.21049567  0.00216315  1
  Pd  Pd171  1  0.59134375  0.19662657  0.58938231  1
  Pd  Pd172  1  0.60274146  0.40630522  0.59794628  1
  Pd  Pd173  1  0.20942686  0.20608243  0.00690807  1
  Pd  Pd174  1  0.39828871  0.79875185  0.58873742  1
  Pd  Pd175  1  0.59938458  0.60517166  0.78665615  1
  Pd  Pd176  1  0.20057856  0.39407555  0.00472216  1
  Pd  Pd177  1  0.01227110  0.39619527  0.19159544  1
  Pd  Pd178  1  0.40021491  -0.01110196  0.79319721  1
  Pd  Pd179  1  0.80605818  0.20443913  0.40369443  1
  Pd  Pd180  1  -0.00426822  0.00684618  0.39488517  1
  Pd  Pd181  1  0.40568427  0.80146880  0.00511838  1
  Pd  Pd182  1  0.60088130  0.78992233  0.20574608  1
  Pd  Pd183  1  0.20948190  0.00551681  0.60806060  1
  Pd  Pd184  1  -0.00111493  0.39816776  0.80082548  1
  Pd  Pd185  1  -0.00658257  0.59801398  0.00098084  1
  Pd  Pd186  1  0.00443284  0.80098380  0.20770145  1
  Pd  Pd187  1  0.79744606  0.79608548  0.19983320  1
  Pd  Pd188  1  0.80283677  0.39366011  0.79392598  1
  Pd  Pd189  1  0.00176048  0.80874630  0.39735085  1
  Pd  Pd190  1  0.01448461  0.78450366  0.80136682  1
  Pd  Pd191  1  0.61262135  0.38930039  0.39434004  1
  Pd  Pd192  1  0.59560061  0.39986243  0.80148465  1
  Pd  Pd193  1  0.39174114  0.60717273  -0.00970841  1
  Pd  Pd194  1  0.20378772  -0.00447446  0.00203079  1
  Pd  Pd195  1  0.40768104  0.80563865  0.80065197  1
  Pd  Pd196  1  0.00190966  0.40048594  0.39620078  1
  Pd  Pd197  1  0.79411878  0.60188453  0.60015352  1
  Pd  Pd198  1  0.20923608  0.60592518  0.20896776  1
  Pd  Pd199  1  0.19413939  0.79900198  0.40665434  1
  Rh  Rh200  1  0.40072697  0.40189994  0.20657739  1
  Rh  Rh201  1  0.40809219  0.20620508  0.79237608  1
  Rh  Rh202  1  0.19838000  0.80730878  0.00419386  1
  Rh  Rh203  1  0.80070392  0.19534995  0.59141609  1
  Rh  Rh204  1  0.20062581  0.19859344  0.40738273  1
  Rh  Rh205  1  0.79838723  0.80376233  0.79536751  1
  Rh  Rh206  1  0.19622966  0.20152253  0.19697058  1
  Rh  Rh207  1  -0.00269784  0.80098223  0.59968080  1
  Rh  Rh208  1  0.00186691  0.60468036  0.19707150  1
  Rh  Rh209  1  0.00368835  0.39176798  0.60569909  1
  Rh  Rh210  1  0.00686737  0.00853915  0.80010791  1
  Rh  Rh211  1  0.39290555  -0.00137981  0.01257660  1
  Rh  Rh212  1  0.19462391  -0.00743983  0.40257410  1
  Rh  Rh213  1  0.58844542  0.19403198  0.80534154  1
  Rh  Rh214  1  0.60757424  0.59403459  0.01020243  1
  Rh  Rh215  1  0.40517872  0.39426016  0.60214683  1
  Rh  Rh216  1  0.81312122  0.58969831  0.40572796  1
  Rh  Rh217  1  0.19755990  0.80025133  0.80379255  1
  Rh  Rh218  1  0.39431883  0.00521445  0.60226003  1
  Rh  Rh219  1  0.00394742  0.60252938  0.60868314  1
  Rh  Rh220  1  0.79358572  0.39350125  0.59439448  1
  Rh  Rh221  1  0.20863709  -0.00199710  0.19587133  1
  Rh  Rh222  1  0.59020992  0.20027937  0.40284177  1
  Rh  Rh223  1  0.60378287  0.40124436  0.20039148  1
  Rh  Rh224  1  0.60596670  0.60810636  0.39600912  1
  Rh  Rh225  1  0.18871485  0.41090159  0.40425883  1
  Rh  Rh226  1  0.59511340  0.19872019  0.19404807  1
  Rh  Rh227  1  0.79480256  0.61021211  0.19136576  1
  Rh  Rh228  1  0.79684333  -0.00297980  0.19615124  1
  Rh  Rh229  1  -0.00170729  0.00705331  0.20555864  1
  Rh  Rh230  1  0.60847251  0.00731671  0.60482338  1
  Rh  Rh231  1  0.80645311  0.20033757  0.19386838  1
  Rh  Rh232  1  0.78842922  0.38939642  0.21335235  1
  Rh  Rh233  1  0.59281507  0.79331372  0.00345569  1
  Rh  Rh234  1  0.40286741  0.80787794  0.19638311  1
  Rh  Rh235  1  0.19939419  0.60152728  0.59653238  1
  Rh  Rh236  1  0.59098000  0.00105156  0.20502261  1
  Rh  Rh237  1  0.19146906  0.18937210  0.78859587  1
  Rh  Rh238  1  0.79815365  0.39925679  -0.00625755  1
  Rh  Rh239  1  0.40064450  0.60180886  0.58969765  1
  Rh  Rh240  1  0.81395229  0.19541994  0.80436301  1
  Rh  Rh241  1  0.40246572  0.39366363  0.39445128  1
  Rh  Rh242  1  0.59861472  -0.00806371  0.39498814  1
  Rh  Rh243  1  0.80264416  0.60653656  0.80480773  1
  Rh  Rh244  1  0.79627117  0.81050453  0.39845281  1
  Rh  Rh245  1  0.21021297  0.60330161  -0.00634886  1
  Rh  Rh246  1  0.40691242  0.39136188  -0.00320815  1
  Rh  Rh247  1  -0.01149364  -0.00327728  0.60114085  1
  Rh  Rh248  1  0.19817458  0.40075234  0.19405571  1
  Rh  Rh249  1  0.19581678  0.79815036  0.20379322  1
