# generated using pymatgen
data_ZrScNbPdRh
_symmetry_space_group_name_H-M   'P 1'
_cell_length_a   16.55988401
_cell_length_b   16.55224678
_cell_length_c   16.55791471
_cell_angle_alpha   90.02583689
_cell_angle_beta   90.00495110
_cell_angle_gamma   89.97781560
_symmetry_Int_Tables_number   1
_chemical_formula_structural   ZrScNbPdRh
_chemical_formula_sum   'Zr50 Sc50 Nb50 Pd50 Rh50'
_cell_volume   4538.57802520
_cell_formula_units_Z   50
loop_
 _symmetry_equiv_pos_site_id
 _symmetry_equiv_pos_as_xyz
  1  'x, y, z'
loop_
 _atom_site_type_symbol
 _atom_site_label
 _atom_site_symmetry_multiplicity
 _atom_site_fract_x
 _atom_site_fract_y
 _atom_site_fract_z
 _atom_site_occupancy
  Zr  Zr0  1  0.69270688  0.09705524  0.08897176  1
  Zr  Zr1  1  0.89778978  0.69968989  0.89940765  1
  Zr  Zr2  1  0.70072854  0.09912577  0.49797090  1
  Zr  Zr3  1  0.70889294  0.30132649  0.70344493  1
  Zr  Zr4  1  0.69867276  0.49838313  0.69602037  1
  Zr  Zr5  1  0.70408144  0.70174426  0.30373538  1
  Zr  Zr6  1  0.50726776  0.89961269  0.09372043  1
  Zr  Zr7  1  0.29665368  0.69774636  0.70748668  1
  Zr  Zr8  1  0.69786423  0.69308870  0.50058917  1
  Zr  Zr9  1  0.89460435  0.29828469  0.90462994  1
  Zr  Zr10  1  0.50541921  0.10491939  0.10277548  1
  Zr  Zr11  1  0.10051244  0.50143107  0.29844326  1
  Zr  Zr12  1  0.90326418  0.69246523  0.30008482  1
  Zr  Zr13  1  0.49860580  0.49801606  0.69867413  1
  Zr  Zr14  1  0.30430595  0.70303110  0.10125314  1
  Zr  Zr15  1  0.70043916  0.49863566  0.90010262  1
  Zr  Zr16  1  0.09958244  0.30377459  0.89366513  1
  Zr  Zr17  1  0.29921476  0.69893250  0.90526413  1
  Zr  Zr18  1  0.70234396  0.49650962  0.50044799  1
  Zr  Zr19  1  0.30492551  0.29720698  0.89955792  1
  Zr  Zr20  1  0.10344094  0.10451631  0.70045546  1
  Zr  Zr21  1  0.70109569  0.09922394  0.69258234  1
  Zr  Zr22  1  0.70038032  0.89538892  0.70290808  1
  Zr  Zr23  1  0.90365688  0.70014736  0.10388540  1
  Zr  Zr24  1  0.49805330  0.10648665  0.30214040  1
  Zr  Zr25  1  0.69936634  0.90713210  0.90370604  1
  Zr  Zr26  1  0.30063713  0.50092176  0.09629710  1
  Zr  Zr27  1  0.09583739  0.30431568  0.68899927  1
  Zr  Zr28  1  0.29381037  0.50270899  0.89822633  1
  Zr  Zr29  1  0.50131198  0.50331865  0.49965576  1
  Zr  Zr30  1  0.09909014  0.70125988  0.69433236  1
  Zr  Zr31  1  0.29462224  0.70230635  0.49500086  1
  Zr  Zr32  1  0.29005604  0.09942223  0.29341200  1
  Zr  Zr33  1  0.90008359  0.70240870  0.70035308  1
  Zr  Zr34  1  0.48601296  0.30172254  0.49442125  1
  Zr  Zr35  1  0.69495927  0.49929582  0.09186152  1
  Zr  Zr36  1  0.49417434  0.49508779  0.30217027  1
  Zr  Zr37  1  0.29901586  0.89457244  0.30603891  1
  Zr  Zr38  1  0.70447088  0.90028267  0.50330229  1
  Zr  Zr39  1  0.29589200  0.89316252  0.09927853  1
  Zr  Zr40  1  0.10931055  0.49638725  0.50128677  1
  Zr  Zr41  1  0.89354672  0.89485655  0.69746066  1
  Zr  Zr42  1  0.49051158  0.70438769  0.30779755  1
  Zr  Zr43  1  0.10207578  0.49573031  0.89922112  1
  Zr  Zr44  1  0.90387685  0.30656845  0.50413822  1
  Zr  Zr45  1  0.90328617  0.09344670  0.30311535  1
  Zr  Zr46  1  0.09487560  0.89931778  0.91739409  1
  Zr  Zr47  1  0.30317589  0.09913056  0.09739366  1
  Zr  Zr48  1  0.90650718  0.89780188  0.09592156  1
  Zr  Zr49  1  0.49789501  0.10152130  0.70148336  1
  Sc  Sc50  1  0.90482213  0.30337368  0.29548183  1
  Sc  Sc51  1  0.10342470  0.69355924  0.90916939  1
  Sc  Sc52  1  0.30834604  0.09861576  0.49236156  1
  Sc  Sc53  1  0.69134954  0.29827162  0.08539116  1
  Sc  Sc54  1  0.49880560  0.89593652  0.89912505  1
  Sc  Sc55  1  0.49761831  0.30037907  0.29555738  1
  Sc  Sc56  1  0.89497794  0.09329267  0.49747230  1
  Sc  Sc57  1  0.30344316  0.30708972  0.29968934  1
  Sc  Sc58  1  0.69971873  0.49386536  0.30955977  1
  Sc  Sc59  1  0.50071244  0.90099966  0.70878310  1
  Sc  Sc60  1  0.09556166  0.09360330  0.50220447  1
  Sc  Sc61  1  0.09790979  0.49702119  0.09989621  1
  Sc  Sc62  1  0.90396940  0.50220414  0.30379398  1
  Sc  Sc63  1  0.31137988  0.90426723  0.70900383  1
  Sc  Sc64  1  0.30885810  0.10353140  0.70775209  1
  Sc  Sc65  1  0.90215214  0.90431980  0.49731190  1
  Sc  Sc66  1  0.09400926  0.89626537  0.69183363  1
  Sc  Sc67  1  0.91041415  0.10830786  0.09186112  1
  Sc  Sc68  1  0.90258644  0.30480003  0.69929593  1
  Sc  Sc69  1  0.30180635  0.30075400  0.10400424  1
  Sc  Sc70  1  0.90452939  0.49902030  0.89940233  1
  Sc  Sc71  1  0.29674410  0.69990840  0.29607682  1
  Sc  Sc72  1  0.69634705  0.29994686  0.30502246  1
  Sc  Sc73  1  0.69621233  0.70083341  0.08655535  1
  Sc  Sc74  1  0.49928496  0.29768401  0.09831845  1
  Sc  Sc75  1  0.50335624  0.70379704  0.90536566  1
  Sc  Sc76  1  0.90605043  0.49542296  0.09048774  1
  Sc  Sc77  1  0.10318552  0.69640881  0.50401538  1
  Sc  Sc78  1  0.29842998  0.29770200  0.70118185  1
  Sc  Sc79  1  0.89987980  0.90022614  0.29868423  1
  Sc  Sc80  1  0.89594850  0.09180158  0.70321734  1
  Sc  Sc81  1  0.70973783  0.30046788  0.50197592  1
  Sc  Sc82  1  0.90114588  0.69469121  0.50014613  1
  Sc  Sc83  1  0.69600181  0.10567908  0.29896157  1
  Sc  Sc84  1  0.10268108  0.89280227  0.50144777  1
  Sc  Sc85  1  0.70513909  0.89683323  0.30276155  1
  Sc  Sc86  1  0.69792065  0.70307829  0.89426223  1
  Sc  Sc87  1  0.49131348  0.49649390  0.89738057  1
  Sc  Sc88  1  0.10159136  0.70540008  0.10338690  1
  Sc  Sc89  1  0.48840910  0.10317305  0.90788969  1
  Sc  Sc90  1  0.70953782  0.70234233  0.70239592  1
  Sc  Sc91  1  0.49270895  0.30327190  0.69988717  1
  Sc  Sc92  1  0.49893763  0.10569809  0.50397037  1
  Sc  Sc93  1  0.89766559  0.50179047  0.49628341  1
  Sc  Sc94  1  0.29321004  0.30903902  0.49883388  1
  Sc  Sc95  1  0.49850850  0.49938539  0.09665150  1
  Sc  Sc96  1  0.49056902  0.89775889  0.49177017  1
  Sc  Sc97  1  0.90634999  0.50127311  0.70231776  1
  Sc  Sc98  1  0.08648355  0.29919857  0.10908793  1
  Sc  Sc99  1  0.29643530  0.50115467  0.29965909  1
  Nb  Nb100  1  0.10281544  0.50014593  0.70610345  1
  Nb  Nb101  1  0.10081952  0.91073166  0.29667934  1
  Nb  Nb102  1  0.10032337  0.29946072  0.50170823  1
  Nb  Nb103  1  0.09508662  0.69299155  0.30082286  1
  Nb  Nb104  1  0.10351904  0.89977101  0.10832609  1
  Nb  Nb105  1  0.10888160  0.10338875  0.11415156  1
  Nb  Nb106  1  0.49766543  0.89836139  0.29657201  1
  Nb  Nb107  1  0.09980197  0.10186875  0.29270933  1
  Nb  Nb108  1  0.30196926  0.50349140  0.49474462  1
  Nb  Nb109  1  0.89925891  0.09329783  0.89778327  1
  Nb  Nb110  1  0.30379280  0.50731329  0.71016196  1
  Nb  Nb111  1  0.50049662  0.69798288  0.70230105  1
  Nb  Nb112  1  0.71125536  0.10460787  0.89698646  1
  Nb  Nb113  1  0.50072941  0.29471377  0.89726294  1
  Nb  Nb114  1  0.10087526  0.29963640  0.29796491  1
  Nb  Nb115  1  0.69964941  0.90532120  0.09544889  1
  Nb  Nb116  1  0.29476668  0.89690420  0.50335830  1
  Nb  Nb117  1  0.29786734  0.90305173  0.90504495  1
  Nb  Nb118  1  0.89783270  0.30442740  0.10247949  1
  Nb  Nb119  1  0.29652641  0.09702578  0.90158041  1
  Nb  Nb120  1  0.90009440  0.91007541  0.89924409  1
  Nb  Nb121  1  0.09594085  0.09957584  0.90351443  1
  Nb  Nb122  1  0.49793017  0.69583684  0.50280273  1
  Nb  Nb123  1  0.70018211  0.29629706  0.89622891  1
  Nb  Nb124  1  0.50256309  0.70255055  0.10154910  1
  Nb  Nb125  1  0.19861738  -0.00059735  0.80742714  1
  Nb  Nb126  1  0.59792218  0.59873156  0.79498088  1
  Nb  Nb127  1  0.00639846  0.79741983  0.39233068  1
  Nb  Nb128  1  0.20773752  -0.00200073  0.60465353  1
  Nb  Nb129  1  0.79880144  0.39926922  0.19247397  1
  Nb  Nb130  1  0.00016618  0.80369418  0.80741563  1
  Nb  Nb131  1  0.80307668  0.81007304  -0.00191973  1
  Nb  Nb132  1  0.80112785  0.20240831  0.19277717  1
  Nb  Nb133  1  0.40101626  0.79291068  0.59978538  1
  Nb  Nb134  1  0.18946395  0.20343355  0.39574472  1
  Nb  Nb135  1  0.79759072  0.00329900  0.19046426  1
  Nb  Nb136  1  0.59212852  0.79260182  0.59838126  1
  Nb  Nb137  1  0.60427420  0.01201271  0.80363993  1
  Nb  Nb138  1  0.39822250  0.60109147  0.59971384  1
  Nb  Nb139  1  0.59652560  -0.00131653  0.39830605  1
  Nb  Nb140  1  0.59946793  0.60583795  0.20052877  1
  Nb  Nb141  1  0.59829626  0.79830972  0.19893664  1
  Nb  Nb142  1  0.19436280  0.19318919  -0.00038081  1
  Nb  Nb143  1  0.00763110  0.20220617  0.39778317  1
  Nb  Nb144  1  0.79383937  0.59525843  0.19554545  1
  Nb  Nb145  1  0.60513452  0.20053199  0.80459838  1
  Nb  Nb146  1  0.40388290  -0.00516284  0.20151119  1
  Nb  Nb147  1  0.19640717  0.80830574  0.80734684  1
  Nb  Nb148  1  0.01214730  0.39360064  0.40230148  1
  Nb  Nb149  1  -0.00118762  0.19411070  0.80580442  1
  Pd  Pd150  1  0.19474974  0.00486657  0.40820452  1
  Pd  Pd151  1  0.60472809  0.40130555  0.19965334  1
  Pd  Pd152  1  0.39936146  -0.00726656  0.59824865  1
  Pd  Pd153  1  -0.00825147  0.19152549  0.60020253  1
  Pd  Pd154  1  0.20519918  0.39839900  0.79162600  1
  Pd  Pd155  1  0.79119010  0.80027424  0.19001834  1
  Pd  Pd156  1  0.40295162  0.00078655  0.39524560  1
  Pd  Pd157  1  0.39033145  0.20184366  0.59736116  1
  Pd  Pd158  1  0.39750078  0.19945616  0.20167085  1
  Pd  Pd159  1  0.19372824  0.38794327  0.00965279  1
  Pd  Pd160  1  0.20048289  0.39739878  0.19631762  1
  Pd  Pd161  1  0.00569750  0.20423441  -0.00260182  1
  Pd  Pd162  1  0.00534313  0.59985460  0.00400222  1
  Pd  Pd163  1  0.19693038  0.19656625  0.80488794  1
  Pd  Pd164  1  -0.00055798  0.59431616  0.59682085  1
  Pd  Pd165  1  0.81306441  0.79900746  0.40623099  1
  Pd  Pd166  1  0.59189852  0.39825624  -0.00798815  1
  Pd  Pd167  1  0.00574496  0.00683261  0.01177905  1
  Pd  Pd168  1  0.39704116  0.79771598  0.80386312  1
  Pd  Pd169  1  0.80958697  0.20533938  0.39156520  1
  Pd  Pd170  1  -0.00473527  0.00304148  0.19374343  1
  Pd  Pd171  1  0.00181292  -0.00167040  0.59944289  1
  Pd  Pd172  1  0.20693389  0.59141277  0.60308430  1
  Pd  Pd173  1  0.00795364  0.80246351  0.20794130  1
  Pd  Pd174  1  0.80789025  0.40571196  0.80169906  1
  Pd  Pd175  1  0.60031359  0.38848905  0.59439494  1
  Pd  Pd176  1  0.59821972  0.21177152  0.60317886  1
  Pd  Pd177  1  0.19415547  0.00467620  0.00554957  1
  Pd  Pd178  1  0.00731873  -0.00238061  0.79536619  1
  Pd  Pd179  1  0.18952149  0.79708079  0.39207634  1
  Pd  Pd180  1  0.80129290  0.60427368  0.00097896  1
  Pd  Pd181  1  0.58890773  -0.01122059  0.59669386  1
  Pd  Pd182  1  0.00602728  0.60622639  0.80206965  1
  Pd  Pd183  1  0.40423548  -0.00445194  0.00338751  1
  Pd  Pd184  1  0.40463183  0.59708164  0.20013110  1
  Pd  Pd185  1  0.59724512  0.20172273  0.40611882  1
  Pd  Pd186  1  0.40550520  0.60167669  -0.00219403  1
  Pd  Pd187  1  0.38842439  0.40772265  0.60215989  1
  Pd  Pd188  1  0.59830192  0.39116763  0.40584890  1
  Pd  Pd189  1  0.59916020  0.59823366  0.39232038  1
  Pd  Pd190  1  0.80502637  0.59676841  0.60306636  1
  Pd  Pd191  1  0.80175224  0.19989058  0.00444633  1
  Pd  Pd192  1  0.40311932  0.39513816  -0.00016273  1
  Pd  Pd193  1  0.59700542  0.80670334  0.40219597  1
  Pd  Pd194  1  0.60337440  -0.00559570  0.21028902  1
  Pd  Pd195  1  0.20908879  0.18999222  0.58803121  1
  Pd  Pd196  1  0.20855911  0.40719090  0.60814705  1
  Pd  Pd197  1  0.81053550  0.19775463  0.60191140  1
  Pd  Pd198  1  0.19809135  0.60172511  0.19575429  1
  Pd  Pd199  1  0.59599466  0.39803119  0.80395604  1
  Rh  Rh200  1  0.20022177  0.79743611  0.00037982  1
  Rh  Rh201  1  -0.00897187  0.79782606  0.59188627  1
  Rh  Rh202  1  0.80659971  0.00006745  0.00461902  1
  Rh  Rh203  1  0.60553353  0.80075352  0.00139857  1
  Rh  Rh204  1  0.19881649  0.59941120  0.00943711  1
  Rh  Rh205  1  0.00190419  0.39608842  -0.00262390  1
  Rh  Rh206  1  0.39541886  0.40257385  0.39773545  1
  Rh  Rh207  1  0.00845430  -0.00294562  0.39960312  1
  Rh  Rh208  1  0.80438133  0.40553698  0.60231059  1
  Rh  Rh209  1  0.59710739  0.19821661  -0.01115907  1
  Rh  Rh210  1  0.81136978  0.39741090  0.39370827  1
  Rh  Rh211  1  -0.00440890  0.59448459  0.19418857  1
  Rh  Rh212  1  -0.00690203  0.79632507  -0.00407164  1
  Rh  Rh213  1  0.39298637  0.20419894  0.00150049  1
  Rh  Rh214  1  0.78805615  0.00208290  0.39210162  1
  Rh  Rh215  1  0.39485382  0.39686090  0.80125968  1
  Rh  Rh216  1  0.59422475  0.59844026  -0.00633329  1
  Rh  Rh217  1  0.80620761  0.19846168  0.79842118  1
  Rh  Rh218  1  0.19921156  0.39772765  0.39799012  1
  Rh  Rh219  1  0.40033874  0.40524453  0.19663767  1
  Rh  Rh220  1  0.79754986  0.59727980  0.39585891  1
  Rh  Rh221  1  0.39351937  0.59929545  0.40177810  1
  Rh  Rh222  1  0.20245437  0.20814712  0.19853383  1
  Rh  Rh223  1  0.80316749  -0.00120049  0.59913246  1
  Rh  Rh224  1  0.79961401  0.39727936  -0.00007261  1
  Rh  Rh225  1  0.40745101  0.60028837  0.80102450  1
  Rh  Rh226  1  0.20046132  0.60212924  0.39615645  1
  Rh  Rh227  1  0.00166706  0.41050352  0.59633159  1
  Rh  Rh228  1  0.40653195  0.80567405  0.19533800  1
  Rh  Rh229  1  0.38907128  0.20561708  0.39809808  1
  Rh  Rh230  1  0.60766458  0.20877710  0.19691688  1
  Rh  Rh231  1  0.19278554  0.80085398  0.20668483  1
  Rh  Rh232  1  0.59485597  0.00762795  -0.01379249  1
  Rh  Rh233  1  0.39534080  0.79913822  0.40575537  1
  Rh  Rh234  1  0.40072782  0.79999303  -0.00110421  1
  Rh  Rh235  1  0.19064725  0.60528352  0.80068463  1
  Rh  Rh236  1  0.00939975  0.59834083  0.40680538  1
  Rh  Rh237  1  0.59809691  0.60491763  0.60798538  1
  Rh  Rh238  1  0.79184252  0.59265429  0.79900311  1
  Rh  Rh239  1  -0.00624576  0.40728010  0.20653297  1
  Rh  Rh240  1  0.79725528  0.79577605  0.59095336  1
  Rh  Rh241  1  0.40486963  0.20081072  0.80236638  1
  Rh  Rh242  1  -0.00167598  0.39490463  0.79779794  1
  Rh  Rh243  1  0.79386567  0.00017328  0.79652545  1
  Rh  Rh244  1  0.60055547  0.79810817  0.79370915  1
  Rh  Rh245  1  0.21386518  0.81289699  0.61594843  1
  Rh  Rh246  1  0.80823830  0.80535948  0.81072590  1
  Rh  Rh247  1  -0.00812278  0.19672537  0.20602054  1
  Rh  Rh248  1  0.20621399  -0.00777219  0.19780160  1
  Rh  Rh249  1  0.40176325  0.00305447  0.81001235  1
