# generated using pymatgen
data_ZrScNbPdRh
_symmetry_space_group_name_H-M   'P 1'
_cell_length_a   16.55893904
_cell_length_b   16.55909603
_cell_length_c   16.55953653
_cell_angle_alpha   89.98234475
_cell_angle_beta   89.97661653
_cell_angle_gamma   89.95331489
_symmetry_Int_Tables_number   1
_chemical_formula_structural   ZrScNbPdRh
_chemical_formula_sum   'Zr50 Sc50 Nb50 Pd50 Rh50'
_cell_volume   4540.64039783
_cell_formula_units_Z   50
loop_
 _symmetry_equiv_pos_site_id
 _symmetry_equiv_pos_as_xyz
  1  'x, y, z'
loop_
 _atom_site_type_symbol
 _atom_site_label
 _atom_site_symmetry_multiplicity
 _atom_site_fract_x
 _atom_site_fract_y
 _atom_site_fract_z
 _atom_site_occupancy
  Zr  Zr0  1  0.29788202  0.30951483  0.69606373  1
  Zr  Zr1  1  0.50208109  0.49112216  0.11029854  1
  Zr  Zr2  1  0.90624589  0.70427795  0.10871907  1
  Zr  Zr3  1  0.30237656  0.09327655  0.09972344  1
  Zr  Zr4  1  0.09902559  0.49854447  0.10709443  1
  Zr  Zr5  1  0.31285477  0.29464953  0.10269445  1
  Zr  Zr6  1  0.51122972  0.70196700  0.89920638  1
  Zr  Zr7  1  0.70233898  0.30158362  0.69290087  1
  Zr  Zr8  1  0.29306739  0.09544564  0.29837787  1
  Zr  Zr9  1  0.89878133  0.09115862  0.71476372  1
  Zr  Zr10  1  0.29243429  0.70524391  0.90753594  1
  Zr  Zr11  1  0.10758557  0.50198112  0.69757956  1
  Zr  Zr12  1  0.29180078  0.89832080  0.89861477  1
  Zr  Zr13  1  0.29623320  0.30103305  0.49786578  1
  Zr  Zr14  1  0.49489777  0.09343629  0.70349164  1
  Zr  Zr15  1  0.49781420  0.89677383  0.09967206  1
  Zr  Zr16  1  0.29913929  0.88651377  0.10180166  1
  Zr  Zr17  1  0.89639997  0.49902054  0.90515391  1
  Zr  Zr18  1  0.71380512  0.10154192  0.10755243  1
  Zr  Zr19  1  0.70517910  0.50365031  0.69714470  1
  Zr  Zr20  1  0.70213587  0.50034190  0.10022083  1
  Zr  Zr21  1  0.30669670  0.29706262  0.90251136  1
  Zr  Zr22  1  0.09559602  0.89218502  0.70393262  1
  Zr  Zr23  1  0.09677995  0.29328704  0.49551562  1
  Zr  Zr24  1  0.70492717  0.70064579  0.71917512  1
  Zr  Zr25  1  0.70708306  0.50042761  0.49374000  1
  Zr  Zr26  1  0.90920057  0.88983262  0.30303012  1
  Zr  Zr27  1  0.50526189  0.10332952  0.10137055  1
  Zr  Zr28  1  0.09718349  0.71015470  0.89685223  1
  Zr  Zr29  1  0.89691063  0.29026577  0.10031998  1
  Zr  Zr30  1  0.50180994  0.30133470  0.91525460  1
  Zr  Zr31  1  0.49472146  0.10150761  0.90235862  1
  Zr  Zr32  1  0.30609229  0.49993668  0.49805983  1
  Zr  Zr33  1  0.70021361  0.51539283  0.90544289  1
  Zr  Zr34  1  0.49875388  0.69781246  0.69934886  1
  Zr  Zr35  1  0.09281647  0.70094355  0.29991391  1
  Zr  Zr36  1  0.69756774  0.30457922  0.50257739  1
  Zr  Zr37  1  0.51000668  0.09622271  0.29649346  1
  Zr  Zr38  1  0.90360379  0.71056073  0.69637678  1
  Zr  Zr39  1  0.09922895  0.30330647  0.30006373  1
  Zr  Zr40  1  0.71608117  0.90130485  0.70333455  1
  Zr  Zr41  1  0.89969396  0.29706142  0.90404195  1
  Zr  Zr42  1  0.49904312  0.50386592  0.89563100  1
  Zr  Zr43  1  0.29867177  0.90666851  0.68983590  1
  Zr  Zr44  1  0.89791961  0.69734690  0.89877973  1
  Zr  Zr45  1  0.08830168  0.29717840  0.10468057  1
  Zr  Zr46  1  0.29514996  0.09798749  0.50722123  1
  Zr  Zr47  1  0.49958413  0.89587278  0.69366691  1
  Zr  Zr48  1  0.09759235  0.10391791  0.49782294  1
  Zr  Zr49  1  0.49357158  0.30644299  0.49328350  1
  Sc  Sc50  1  0.09708966  0.69869124  0.69256655  1
  Sc  Sc51  1  0.50484965  0.29897552  0.10479645  1
  Sc  Sc52  1  0.30072234  0.69674360  0.68752081  1
  Sc  Sc53  1  0.69446717  0.50579624  0.30314501  1
  Sc  Sc54  1  0.08812099  0.29973412  0.89347121  1
  Sc  Sc55  1  0.09690076  0.09846775  0.69709383  1
  Sc  Sc56  1  0.10445331  0.69971402  0.50322410  1
  Sc  Sc57  1  0.69558878  0.30239674  0.10021402  1
  Sc  Sc58  1  0.89769076  0.09577299  0.91212938  1
  Sc  Sc59  1  0.09494657  0.29806334  0.69818423  1
  Sc  Sc60  1  0.51136335  0.88810997  0.49766416  1
  Sc  Sc61  1  0.29635730  0.49784476  0.88726744  1
  Sc  Sc62  1  0.10325982  0.69697089  0.09761546  1
  Sc  Sc63  1  0.50207202  0.69231248  0.30413524  1
  Sc  Sc64  1  0.90218237  0.30104643  0.69727251  1
  Sc  Sc65  1  0.29733339  0.69517886  0.49938590  1
  Sc  Sc66  1  0.88883499  0.29841136  0.49843716  1
  Sc  Sc67  1  0.69957658  0.30681592  0.91862889  1
  Sc  Sc68  1  0.49563353  0.70041592  0.49988965  1
  Sc  Sc69  1  0.69358357  0.89761172  0.30511801  1
  Sc  Sc70  1  0.50823355  0.90110538  0.90570492  1
  Sc  Sc71  1  0.09778344  0.50564002  0.89689602  1
  Sc  Sc72  1  0.70435027  0.69608967  0.29685375  1
  Sc  Sc73  1  0.10214024  0.89216364  0.49506887  1
  Sc  Sc74  1  0.30180752  0.30105814  0.30558842  1
  Sc  Sc75  1  0.08312964  0.09612898  0.89469992  1
  Sc  Sc76  1  0.50084962  0.10798224  0.49952495  1
  Sc  Sc77  1  0.10772613  0.90099064  0.30192807  1
  Sc  Sc78  1  0.29511913  0.50564905  0.11150344  1
  Sc  Sc79  1  0.69579276  0.70783769  0.49006656  1
  Sc  Sc80  1  0.49850151  0.30323205  0.29593363  1
  Sc  Sc81  1  0.90008925  0.69700415  0.30284577  1
  Sc  Sc82  1  0.89736908  0.51566561  0.69268223  1
  Sc  Sc83  1  0.09532831  0.89527523  0.10109764  1
  Sc  Sc84  1  0.49227849  0.29895280  0.69367528  1
  Sc  Sc85  1  0.70051474  0.90805565  0.09993464  1
  Sc  Sc86  1  0.70082736  0.09041126  0.90809196  1
  Sc  Sc87  1  0.10997927  0.50989856  0.49225057  1
  Sc  Sc88  1  0.90390067  0.10684370  0.49019134  1
  Sc  Sc89  1  0.29928397  0.69781076  0.28892679  1
  Sc  Sc90  1  0.90301535  0.90186967  0.09370503  1
  Sc  Sc91  1  0.10587094  0.50287140  0.29601294  1
  Sc  Sc92  1  0.70220143  0.09654667  0.70010057  1
  Sc  Sc93  1  0.90747707  0.90482466  0.89534594  1
  Sc  Sc94  1  0.69806732  0.30115132  0.30338356  1
  Sc  Sc95  1  0.09701601  0.10158089  0.30991236  1
  Sc  Sc96  1  0.90554430  0.50288502  0.09944420  1
  Sc  Sc97  1  0.29756079  0.50474076  0.30632563  1
  Sc  Sc98  1  0.69954814  0.11079784  0.49506673  1
  Sc  Sc99  1  0.49384143  0.70537943  0.09998782  1
  Nb  Nb100  1  0.49317021  0.50453671  0.69841667  1
  Nb  Nb101  1  0.89278704  0.10491629  0.29041030  1
  Nb  Nb102  1  0.29951352  0.90100262  0.29625833  1
  Nb  Nb103  1  0.30362774  0.70098616  0.09546041  1
  Nb  Nb104  1  0.30209050  0.09594641  0.70753534  1
  Nb  Nb105  1  0.50317566  0.49949236  0.31318939  1
  Nb  Nb106  1  0.30251469  0.89592423  0.49844653  1
  Nb  Nb107  1  0.30033401  0.09942892  0.89873209  1
  Nb  Nb108  1  0.70619041  0.09053200  0.29592910  1
  Nb  Nb109  1  0.30729559  0.49872405  0.69309014  1
  Nb  Nb110  1  0.70549808  0.90422660  0.50070781  1
  Nb  Nb111  1  0.90735268  0.69896301  0.50042583  1
  Nb  Nb112  1  0.70037503  0.70268774  0.90676554  1
  Nb  Nb113  1  0.70119277  0.69953367  0.09716510  1
  Nb  Nb114  1  0.89439344  0.89182907  0.50409093  1
  Nb  Nb115  1  0.50128304  0.50551267  0.49277319  1
  Nb  Nb116  1  0.09856714  0.89770488  0.90350760  1
  Nb  Nb117  1  0.89777183  0.89944012  0.69317461  1
  Nb  Nb118  1  0.70514649  0.89256617  0.90276529  1
  Nb  Nb119  1  0.09644527  0.09848137  0.09923961  1
  Nb  Nb120  1  0.89848399  0.50252167  0.30543149  1
  Nb  Nb121  1  0.90549956  0.29924033  0.29198917  1
  Nb  Nb122  1  0.90235005  0.10145189  0.10492853  1
  Nb  Nb123  1  0.89727534  0.50613771  0.49833034  1
  Nb  Nb124  1  0.50113146  0.89826998  0.29821036  1
  Nb  Nb125  1  0.39626104  0.60218861  0.00136935  1
  Nb  Nb126  1  0.19648998  0.19632259  0.19361996  1
  Nb  Nb127  1  0.60115831  0.40039101  0.79656073  1
  Nb  Nb128  1  0.19864306  0.39183654  0.00335956  1
  Nb  Nb129  1  0.79619013  0.79584464  -0.00175104  1
  Nb  Nb130  1  -0.00979701  -0.00898758  0.59599761  1
  Nb  Nb131  1  0.80129599  -0.00178779  0.39737080  1
  Nb  Nb132  1  0.39936569  -0.00802570  0.39803797  1
  Nb  Nb133  1  0.79576050  0.40071543  0.80174399  1
  Nb  Nb134  1  0.20810948  0.19360086  0.80241985  1
  Nb  Nb135  1  0.59864701  0.59663246  0.60125534  1
  Nb  Nb136  1  0.40033465  -0.00732271  0.20565609  1
  Nb  Nb137  1  -0.00766522  0.40429943  0.40028464  1
  Nb  Nb138  1  0.60709078  -0.00503931  0.59682213  1
  Nb  Nb139  1  0.19524879  0.00222513  -0.00303936  1
  Nb  Nb140  1  0.39856896  0.80109360  0.79798424  1
  Nb  Nb141  1  0.80710372  0.40139117  0.20548032  1
  Nb  Nb142  1  0.60230292  0.20535156  0.80315022  1
  Nb  Nb143  1  0.59959862  0.79961630  0.19841403  1
  Nb  Nb144  1  0.39467642  0.80760095  0.39338636  1
  Nb  Nb145  1  -0.00250970  0.00681750  0.20138687  1
  Nb  Nb146  1  0.79381054  0.20582752  0.80590222  1
  Nb  Nb147  1  0.59262976  0.41084977  0.59999521  1
  Nb  Nb148  1  -0.00326658  0.41020695  0.58783818  1
  Nb  Nb149  1  0.19751829  0.19644319  -0.00224638  1
  Pd  Pd150  1  0.79934527  0.19801955  0.39110931  1
  Pd  Pd151  1  0.20611065  0.79209465  0.78700456  1
  Pd  Pd152  1  0.80049687  0.79909122  0.39722163  1
  Pd  Pd153  1  0.38921522  0.61093361  0.80519591  1
  Pd  Pd154  1  0.00378621  0.60334989  0.00142074  1
  Pd  Pd155  1  0.79285799  0.78968418  0.59557088  1
  Pd  Pd156  1  0.20238178  0.19818779  0.61123208  1
  Pd  Pd157  1  0.39657626  0.40469020  0.21148244  1
  Pd  Pd158  1  0.40213226  -0.01216045  0.80593550  1
  Pd  Pd159  1  0.60133412  0.00030604  0.40820015  1
  Pd  Pd160  1  0.59479131  0.19698768  0.60651151  1
  Pd  Pd161  1  0.20860476  0.39137229  0.19731323  1
  Pd  Pd162  1  0.80844562  -0.01487825  0.20658117  1
  Pd  Pd163  1  0.18939555  0.00621563  0.80426040  1
  Pd  Pd164  1  0.58912413  0.59999423  0.01227691  1
  Pd  Pd165  1  0.20376285  0.58909857  0.00031953  1
  Pd  Pd166  1  -0.00945802  0.40929229  0.78706654  1
  Pd  Pd167  1  0.41173602  -0.00269745  0.58548686  1
  Pd  Pd168  1  -0.00978155  0.19554643  0.60340110  1
  Pd  Pd169  1  0.20426404  0.60663016  0.79215801  1
  Pd  Pd170  1  0.20658504  0.79187569  0.39734623  1
  Pd  Pd171  1  0.00416695  0.40122884  0.00055634  1
  Pd  Pd172  1  0.60440061  0.00219675  0.00518631  1
  Pd  Pd173  1  0.60105634  0.20312092  0.39305256  1
  Pd  Pd174  1  0.39475598  0.19791136  0.60285071  1
  Pd  Pd175  1  0.39805442  0.19175822  0.39398131  1
  Pd  Pd176  1  0.19106684  0.40308182  0.59139737  1
  Pd  Pd177  1  -0.00710932  -0.00306084  0.39994600  1
  Pd  Pd178  1  0.80378035  0.39789217  0.39210414  1
  Pd  Pd179  1  0.39003656  0.41594289  0.00392819  1
  Pd  Pd180  1  0.20088986  -0.00244282  0.40677632  1
  Pd  Pd181  1  0.80789538  0.19082564  0.60701742  1
  Pd  Pd182  1  -0.00091821  0.59984555  0.79618894  1
  Pd  Pd183  1  0.80272593  0.01266882  0.58709624  1
  Pd  Pd184  1  0.40788032  0.39493466  0.79913312  1
  Pd  Pd185  1  0.60857927  0.20362978  0.20381439  1
  Pd  Pd186  1  0.59823678  0.80871020  0.79841559  1
  Pd  Pd187  1  0.40422846  0.59935629  0.20032002  1
  Pd  Pd188  1  0.80432562  0.59403781  0.19887652  1
  Pd  Pd189  1  0.00309274  0.59763427  0.40134578  1
  Pd  Pd190  1  0.61276344  0.79645801  0.60412721  1
  Pd  Pd191  1  0.18724162  -0.00392946  0.59625075  1
  Pd  Pd192  1  0.60639224  0.00030656  0.79637671  1
  Pd  Pd193  1  0.40196281  0.20590086  0.79625051  1
  Pd  Pd194  1  0.79202349  0.61547239  0.59104499  1
  Pd  Pd195  1  0.19454389  0.39092475  0.80645265  1
  Pd  Pd196  1  0.79246954  0.80619609  0.19477510  1
  Pd  Pd197  1  0.59570280  0.60602927  0.19729901  1
  Pd  Pd198  1  0.39510671  -0.00694568  0.00176434  1
  Pd  Pd199  1  0.19352694  0.79411805  0.19845231  1
  Rh  Rh200  1  0.39517507  0.79927327  0.59573865  1
  Rh  Rh201  1  0.19453412  0.00331750  0.19261494  1
  Rh  Rh202  1  0.40266607  0.19463402  0.00484783  1
  Rh  Rh203  1  -0.00767185  0.20748907  0.39384474  1
  Rh  Rh204  1  0.59790786  0.40976099  -0.00096592  1
  Rh  Rh205  1  0.00369403  -0.00067851  0.00817799  1
  Rh  Rh206  1  0.20302854  0.60666563  0.39395333  1
  Rh  Rh207  1  -0.00904743  0.41119291  0.20782265  1
  Rh  Rh208  1  0.19810172  0.60724047  0.19947199  1
  Rh  Rh209  1  0.18990080  0.80436521  0.00681786  1
  Rh  Rh210  1  -0.00427420  0.80259382  0.80055381  1
  Rh  Rh211  1  0.39773976  0.60673883  0.39878299  1
  Rh  Rh212  1  0.60336908  0.19249063  -0.00042354  1
  Rh  Rh213  1  0.80911727  0.80460245  0.80991984  1
  Rh  Rh214  1  -0.00038712  0.19525191  -0.00263291  1
  Rh  Rh215  1  0.39906116  0.40384835  0.39595636  1
  Rh  Rh216  1  0.60690539  0.40277774  0.20787953  1
  Rh  Rh217  1  0.40412345  0.79321976  -0.01315469  1
  Rh  Rh218  1  0.00263692  -0.00761960  0.79320330  1
  Rh  Rh219  1  0.00107364  0.59826974  0.20369453  1
  Rh  Rh220  1  0.00675641  0.18931423  0.20765328  1
  Rh  Rh221  1  0.59772993  -0.00559455  0.19626880  1
  Rh  Rh222  1  0.80542882  0.59747630  0.80399968  1
  Rh  Rh223  1  0.79714653  0.19562408  -0.00026513  1
  Rh  Rh224  1  0.79263431  0.21116645  0.20329726  1
  Rh  Rh225  1  0.40403768  0.40590992  0.59510284  1
  Rh  Rh226  1  0.80857714  0.40257315  0.60464964  1
  Rh  Rh227  1  0.00522957  0.80459300  0.20098675  1
  Rh  Rh228  1  0.19427616  0.39869301  0.40255903  1
  Rh  Rh229  1  0.20347105  0.59477793  0.60206661  1
  Rh  Rh230  1  0.79869624  0.00117468  0.81118811  1
  Rh  Rh231  1  0.40442849  0.59790552  0.59293455  1
  Rh  Rh232  1  0.20407979  0.20104239  0.39371264  1
  Rh  Rh233  1  0.40638038  0.79867826  0.20755526  1
  Rh  Rh234  1  0.80676998  0.60905747  0.00838334  1
  Rh  Rh235  1  -0.00511479  0.79767597  -0.00165916  1
  Rh  Rh236  1  0.80294891  0.40284855  0.00762638  1
  Rh  Rh237  1  0.80433723  -0.00841515  -0.00037835  1
  Rh  Rh238  1  0.80155855  0.60906385  0.40171151  1
  Rh  Rh239  1  0.39778866  0.19090424  0.20508879  1
  Rh  Rh240  1  0.60899109  0.80177002  0.00978798  1
  Rh  Rh241  1  0.59509763  0.79462382  0.38962522  1
  Rh  Rh242  1  0.20104561  0.80135775  0.59936211  1
  Rh  Rh243  1  0.60209420  0.60366240  0.40587697  1
  Rh  Rh244  1  0.00214901  0.79587921  0.40570258  1
  Rh  Rh245  1  0.60149280  0.59473083  0.79401252  1
  Rh  Rh246  1  -0.00659662  0.19779503  0.80048306  1
  Rh  Rh247  1  0.59916877  0.39855227  0.40251520  1
  Rh  Rh248  1  0.00407726  0.59746637  0.59417788  1
  Rh  Rh249  1  0.00250169  0.80332357  0.59240201  1
