# generated using pymatgen
data_ZrScNbPdRh
_symmetry_space_group_name_H-M   'P 1'
_cell_length_a   16.56083334
_cell_length_b   16.56166738
_cell_length_c   16.55659433
_cell_angle_alpha   89.99942777
_cell_angle_beta   90.04030123
_cell_angle_gamma   90.00308631
_symmetry_Int_Tables_number   1
_chemical_formula_structural   ZrScNbPdRh
_chemical_formula_sum   'Zr50 Sc50 Nb50 Pd50 Rh50'
_cell_volume   4541.05900001
_cell_formula_units_Z   50
loop_
 _symmetry_equiv_pos_site_id
 _symmetry_equiv_pos_as_xyz
  1  'x, y, z'
loop_
 _atom_site_type_symbol
 _atom_site_label
 _atom_site_symmetry_multiplicity
 _atom_site_fract_x
 _atom_site_fract_y
 _atom_site_fract_z
 _atom_site_occupancy
  Zr  Zr0  1  0.70362862  0.30916765  0.69559836  1
  Zr  Zr1  1  0.09611001  0.89909172  0.90075229  1
  Zr  Zr2  1  0.09124265  0.69440256  0.50346211  1
  Zr  Zr3  1  0.90225550  0.88882601  0.29751072  1
  Zr  Zr4  1  0.91120938  0.30649823  0.89877515  1
  Zr  Zr5  1  0.10383870  0.10221868  0.10181121  1
  Zr  Zr6  1  0.29292372  0.49558415  0.08940980  1
  Zr  Zr7  1  0.30529209  0.90888721  0.09418952  1
  Zr  Zr8  1  0.50623190  0.70348534  0.09166085  1
  Zr  Zr9  1  0.09068788  0.10385264  0.90773948  1
  Zr  Zr10  1  0.09524232  0.70156910  0.90128330  1
  Zr  Zr11  1  0.70678100  0.69858503  0.29572060  1
  Zr  Zr12  1  0.30261481  0.88767207  0.30474083  1
  Zr  Zr13  1  0.90059726  0.10594734  0.50394632  1
  Zr  Zr14  1  0.09048121  0.49859281  0.30142215  1
  Zr  Zr15  1  0.50258783  0.10329053  0.30405864  1
  Zr  Zr16  1  0.70423350  0.69771838  0.09639131  1
  Zr  Zr17  1  0.49144283  0.89883307  0.90866431  1
  Zr  Zr18  1  0.50049955  0.90792687  0.69768651  1
  Zr  Zr19  1  0.10206982  0.88617266  0.50196568  1
  Zr  Zr20  1  0.90846337  0.29697813  0.69879975  1
  Zr  Zr21  1  0.89867161  0.70129258  0.10323925  1
  Zr  Zr22  1  0.29434771  0.50229603  0.69414212  1
  Zr  Zr23  1  0.09488912  0.29829430  0.10157000  1
  Zr  Zr24  1  0.29420484  0.89730859  0.88991051  1
  Zr  Zr25  1  0.10149852  0.29882002  0.30655335  1
  Zr  Zr26  1  0.88840592  0.10340929  0.89142728  1
  Zr  Zr27  1  0.30081526  0.30284975  0.90270906  1
  Zr  Zr28  1  0.29163826  0.30147940  0.49612757  1
  Zr  Zr29  1  0.70577570  0.10594784  0.08836535  1
  Zr  Zr30  1  0.09905638  0.10742852  0.69636470  1
  Zr  Zr31  1  0.71316766  0.10528300  0.71117563  1
  Zr  Zr32  1  0.50902580  0.50147161  0.49386673  1
  Zr  Zr33  1  0.90210080  0.29953787  0.49968656  1
  Zr  Zr34  1  0.50402778  0.89953314  0.30424443  1
  Zr  Zr35  1  0.50048767  0.69786802  0.89384252  1
  Zr  Zr36  1  0.70082652  0.50003523  0.51165280  1
  Zr  Zr37  1  0.51319981  0.90562809  0.50068529  1
  Zr  Zr38  1  0.51415919  0.50753597  0.69943694  1
  Zr  Zr39  1  0.70393197  0.89607609  0.69818598  1
  Zr  Zr40  1  0.30423266  0.29013283  0.69336889  1
  Zr  Zr41  1  0.70036799  0.69534998  0.90293618  1
  Zr  Zr42  1  0.49902372  0.49321657  0.10522651  1
  Zr  Zr43  1  0.50658001  0.10029566  0.50003293  1
  Zr  Zr44  1  0.29619207  0.71484315  0.49005289  1
  Zr  Zr45  1  0.89778851  0.49692455  0.10073464  1
  Zr  Zr46  1  0.70201313  0.49313674  0.31143587  1
  Zr  Zr47  1  0.50945365  0.50082555  0.89587101  1
  Zr  Zr48  1  0.29896633  0.69945272  0.90287113  1
  Zr  Zr49  1  0.09281695  0.89814026  0.29837798  1
  Sc  Sc50  1  0.49993185  0.29109022  0.70601640  1
  Sc  Sc51  1  0.89921669  0.69317279  0.29836877  1
  Sc  Sc52  1  0.90552651  0.10411820  0.09401092  1
  Sc  Sc53  1  0.50972189  0.70253656  0.50100354  1
  Sc  Sc54  1  0.10065129  0.30734490  0.50184540  1
  Sc  Sc55  1  0.70447269  0.09266310  0.48818473  1
  Sc  Sc56  1  0.49371175  0.30241963  0.29928550  1
  Sc  Sc57  1  0.70449411  0.89650878  0.31403052  1
  Sc  Sc58  1  0.70151536  0.89192886  0.09154585  1
  Sc  Sc59  1  0.29691290  0.29261516  0.30039003  1
  Sc  Sc60  1  0.29682521  0.11039409  0.51262326  1
  Sc  Sc61  1  0.89451936  0.49916418  0.89961211  1
  Sc  Sc62  1  0.50134764  0.29307315  0.90009115  1
  Sc  Sc63  1  0.10231271  0.11472044  0.49583593  1
  Sc  Sc64  1  0.09277268  0.49634394  0.91172837  1
  Sc  Sc65  1  0.89965371  0.69869153  0.89954227  1
  Sc  Sc66  1  0.49333796  0.09912268  0.09809244  1
  Sc  Sc67  1  0.08085766  0.90645084  0.10225256  1
  Sc  Sc68  1  0.88986583  0.89169279  0.69864725  1
  Sc  Sc69  1  0.09544189  0.30156168  0.90514096  1
  Sc  Sc70  1  0.69388385  0.29890446  0.90739072  1
  Sc  Sc71  1  0.09461056  0.49711674  0.10148480  1
  Sc  Sc72  1  0.71068716  0.89834731  0.90176830  1
  Sc  Sc73  1  0.50293447  0.29956548  0.09542042  1
  Sc  Sc74  1  0.09102226  0.69818080  0.69494606  1
  Sc  Sc75  1  0.49493969  0.70873508  0.29346576  1
  Sc  Sc76  1  0.08323772  0.70247595  0.30368847  1
  Sc  Sc77  1  0.90355694  0.69855069  0.50740279  1
  Sc  Sc78  1  0.50310429  0.10768748  0.90302943  1
  Sc  Sc79  1  0.30333467  0.49024743  0.29329687  1
  Sc  Sc80  1  0.89059512  0.30454777  0.10354656  1
  Sc  Sc81  1  0.89935618  0.88966452  0.90104014  1
  Sc  Sc82  1  0.29869511  0.70834196  0.71058753  1
  Sc  Sc83  1  0.49477192  0.29610348  0.49409514  1
  Sc  Sc84  1  0.11091884  0.89687508  0.70221921  1
  Sc  Sc85  1  0.30732367  0.69580132  0.09905322  1
  Sc  Sc86  1  0.70308088  0.48812634  0.09104275  1
  Sc  Sc87  1  0.70626472  0.69576540  0.69450351  1
  Sc  Sc88  1  0.70700611  0.31136064  0.49258112  1
  Sc  Sc89  1  0.29986052  0.29711659  0.10223614  1
  Sc  Sc90  1  0.28964926  0.49705162  0.49954990  1
  Sc  Sc91  1  0.90134884  0.50009513  0.49958652  1
  Sc  Sc92  1  0.89478404  0.11586680  0.30744458  1
  Sc  Sc93  1  0.10293268  0.10603927  0.29392372  1
  Sc  Sc94  1  0.29981717  0.09440609  0.90921916  1
  Sc  Sc95  1  0.70609427  0.69508866  0.50204498  1
  Sc  Sc96  1  0.89913020  0.69569469  0.69893756  1
  Sc  Sc97  1  0.50205236  0.89795050  0.09757669  1
  Sc  Sc98  1  0.89929185  0.30614694  0.30189958  1
  Sc  Sc99  1  0.49195019  0.10487758  0.70284811  1
  Nb  Nb100  1  0.89584842  0.89656727  0.10607862  1
  Nb  Nb101  1  0.29379956  0.49860345  0.89923422  1
  Nb  Nb102  1  0.29969122  0.90036278  0.49999483  1
  Nb  Nb103  1  0.70287519  0.10367843  0.29617920  1
  Nb  Nb104  1  0.09709412  0.30598850  0.70409730  1
  Nb  Nb105  1  0.69963419  0.30255478  0.10497333  1
  Nb  Nb106  1  0.10302359  0.50382335  0.50598993  1
  Nb  Nb107  1  0.71348424  0.29364580  0.29193082  1
  Nb  Nb108  1  0.30152222  0.09462743  0.29002191  1
  Nb  Nb109  1  0.30083349  0.91392599  0.69566358  1
  Nb  Nb110  1  0.69865144  0.49932002  0.89334175  1
  Nb  Nb111  1  0.69710755  0.09873962  0.89876258  1
  Nb  Nb112  1  0.29829025  0.10078749  0.11413319  1
  Nb  Nb113  1  0.90343845  0.50173193  0.29391796  1
  Nb  Nb114  1  0.90308415  0.10351012  0.70021776  1
  Nb  Nb115  1  0.29817440  0.69934317  0.30006954  1
  Nb  Nb116  1  0.29676198  0.10004914  0.70296477  1
  Nb  Nb117  1  0.50001838  0.50363300  0.29985045  1
  Nb  Nb118  1  0.70661553  0.49881154  0.70237323  1
  Nb  Nb119  1  0.09830593  0.49528385  0.68805994  1
  Nb  Nb120  1  0.89790163  0.90235435  0.50109901  1
  Nb  Nb121  1  0.70853517  0.89820548  0.50394972  1
  Nb  Nb122  1  0.90132231  0.49277183  0.70109988  1
  Nb  Nb123  1  0.10075399  0.69590418  0.09636113  1
  Nb  Nb124  1  0.49931430  0.70054489  0.69949741  1
  Nb  Nb125  1  0.39944451  0.80644688  0.60180919  1
  Nb  Nb126  1  0.40191526  0.59288325  -0.00568358  1
  Nb  Nb127  1  0.19859599  0.60600050  0.20303744  1
  Nb  Nb128  1  0.00094432  -0.00118466  0.40627347  1
  Nb  Nb129  1  0.19929962  0.60224777  0.39415784  1
  Nb  Nb130  1  0.60471511  -0.00019449  0.80437211  1
  Nb  Nb131  1  0.19417580  0.59183985  0.80131671  1
  Nb  Nb132  1  0.19763266  0.40066152  0.79634926  1
  Nb  Nb133  1  0.40121450  0.60539940  0.59663965  1
  Nb  Nb134  1  -0.00286302  -0.00059743  0.59970388  1
  Nb  Nb135  1  0.60690382  0.19914029  0.59880601  1
  Nb  Nb136  1  0.19470697  0.79997426  0.00705280  1
  Nb  Nb137  1  0.39546659  0.40585551  0.79707657  1
  Nb  Nb138  1  -0.00636349  0.00369851  0.79231963  1
  Nb  Nb139  1  0.60903847  0.20005654  0.20026217  1
  Nb  Nb140  1  0.39672931  0.60175852  0.39867013  1
  Nb  Nb141  1  0.19678931  0.79464245  0.19528289  1
  Nb  Nb142  1  0.19957390  0.20219105  0.79877824  1
  Nb  Nb143  1  0.59690704  0.80157314  0.79733478  1
  Nb  Nb144  1  0.20347548  -0.00226826  0.39984384  1
  Nb  Nb145  1  0.40239180  0.40645076  0.60229276  1
  Nb  Nb146  1  0.39161113  -0.00035575  0.40257199  1
  Nb  Nb147  1  0.61064669  0.00578466  0.20234492  1
  Nb  Nb148  1  0.79798310  0.00115951  0.19950109  1
  Nb  Nb149  1  0.59893239  0.59258558  0.20309512  1
  Pd  Pd150  1  0.39695361  0.39141380  0.19916636  1
  Pd  Pd151  1  0.60876148  0.80437198  0.19992744  1
  Pd  Pd152  1  0.80758922  0.59818381  0.40426713  1
  Pd  Pd153  1  0.80132467  0.60060386  0.79827157  1
  Pd  Pd154  1  -0.00745864  0.20240472  0.20222642  1
  Pd  Pd155  1  0.60009589  0.38860841  0.39262433  1
  Pd  Pd156  1  0.41161732  -0.00286167  0.20393729  1
  Pd  Pd157  1  0.40769306  0.40249884  -0.00754624  1
  Pd  Pd158  1  0.19193617  0.00369641  0.59093023  1
  Pd  Pd159  1  0.19605219  -0.00446231  0.00454856  1
  Pd  Pd160  1  0.40263614  0.80684527  0.79229684  1
  Pd  Pd161  1  0.39580722  0.19561023  0.00499345  1
  Pd  Pd162  1  0.60957424  0.21035799  0.39963602  1
  Pd  Pd163  1  0.19123758  0.01068443  0.80207669  1
  Pd  Pd164  1  0.80596239  0.79130771  0.40738672  1
  Pd  Pd165  1  0.00496114  0.59152757  0.79809483  1
  Pd  Pd166  1  -0.00133486  0.80614689  0.79060906  1
  Pd  Pd167  1  0.39979653  0.59860647  0.19838485  1
  Pd  Pd168  1  0.39304254  0.59406902  0.79777210  1
  Pd  Pd169  1  0.60194218  0.79469784  0.60388854  1
  Pd  Pd170  1  0.60590289  0.79308266  0.40221189  1
  Pd  Pd171  1  0.79742202  0.21726815  0.80714291  1
  Pd  Pd172  1  -0.00122673  0.40328807  0.40555824  1
  Pd  Pd173  1  0.61521069  0.01364430  0.60928858  1
  Pd  Pd174  1  0.60008517  0.59018083  0.00821993  1
  Pd  Pd175  1  0.19763158  0.40167404  0.20062418  1
  Pd  Pd176  1  0.60268061  0.39661236  0.20765830  1
  Pd  Pd177  1  0.79935640  0.39506698  0.80543602  1
  Pd  Pd178  1  0.79159368  0.20164469  0.59284949  1
  Pd  Pd179  1  -0.00908970  0.59943187  0.00203530  1
  Pd  Pd180  1  0.39065486  0.19146146  0.39986768  1
  Pd  Pd181  1  0.40524873  0.00899756  0.80711869  1
  Pd  Pd182  1  0.80395160  0.21107001  -0.00469764  1
  Pd  Pd183  1  0.20429683  0.20200721  -0.00006781  1
  Pd  Pd184  1  0.79147636  0.58862278  0.19737786  1
  Pd  Pd185  1  0.39708428  0.80055538  0.19109776  1
  Pd  Pd186  1  0.39539754  0.40787921  0.40545709  1
  Pd  Pd187  1  0.39677134  0.00375187  0.59282470  1
  Pd  Pd188  1  -0.01411565  0.01390646  0.21189498  1
  Pd  Pd189  1  0.80919418  -0.00033895  0.39164875  1
  Pd  Pd190  1  0.80716190  -0.00457230  0.00326750  1
  Pd  Pd191  1  0.19662140  -0.01053338  0.20281412  1
  Pd  Pd192  1  0.59000781  0.38883903  0.59851347  1
  Pd  Pd193  1  0.59662381  0.39100331  0.80108996  1
  Pd  Pd194  1  0.20648488  0.61384739  0.59993363  1
  Pd  Pd195  1  -0.01380467  -0.00145437  -0.00747644  1
  Pd  Pd196  1  0.80235538  0.00309005  0.60257913  1
  Pd  Pd197  1  0.60006238  -0.00134695  -0.00078019  1
  Pd  Pd198  1  0.20648845  0.79582042  0.61069289  1
  Pd  Pd199  1  0.59488475  0.61073370  0.39015047  1
  Rh  Rh200  1  -0.00814982  0.59007092  0.60463088  1
  Rh  Rh201  1  0.00317310  0.20089078  0.39957717  1
  Rh  Rh202  1  0.80124460  0.79642199  0.59371124  1
  Rh  Rh203  1  0.20123066  0.20313422  0.20026639  1
  Rh  Rh204  1  0.79359219  0.79053207  0.80163696  1
  Rh  Rh205  1  0.80025035  0.40541107  0.20551849  1
  Rh  Rh206  1  0.39285920  0.79486960  0.00358359  1
  Rh  Rh207  1  0.18761958  0.79716957  0.38995841  1
  Rh  Rh208  1  -0.00270089  0.40222118  0.59718533  1
  Rh  Rh209  1  -0.00575272  0.80793640  0.60401679  1
  Rh  Rh210  1  0.61392748  0.60767076  0.79263513  1
  Rh  Rh211  1  0.60313453  0.80452730  -0.01159920  1
  Rh  Rh212  1  -0.00881361  0.80035616  0.40708414  1
  Rh  Rh213  1  0.41419603  0.80139060  0.41083357  1
  Rh  Rh214  1  0.80971140  0.40333504  0.60091589  1
  Rh  Rh215  1  0.40551970  0.20206053  0.19818431  1
  Rh  Rh216  1  0.80230244  -0.00505977  0.80101615  1
  Rh  Rh217  1  0.19277188  0.20701912  0.60581207  1
  Rh  Rh218  1  0.20571363  0.18920858  0.39215618  1
  Rh  Rh219  1  -0.00050317  0.79864061  0.00717793  1
  Rh  Rh220  1  -0.00719635  0.20456242  0.00357027  1
  Rh  Rh221  1  0.79475919  0.80705513  0.20050687  1
  Rh  Rh222  1  0.60407156  -0.00249166  0.39486596  1
  Rh  Rh223  1  0.00020338  0.59428223  0.40462472  1
  Rh  Rh224  1  -0.00427276  0.40031074  0.00757091  1
  Rh  Rh225  1  0.60048684  0.20147686  0.00673407  1
  Rh  Rh226  1  0.00598197  0.40958196  0.79843776  1
  Rh  Rh227  1  0.00447739  0.20359049  0.59733377  1
  Rh  Rh228  1  0.41049069  0.20308923  0.59542736  1
  Rh  Rh229  1  0.00557417  0.19651082  0.80259593  1
  Rh  Rh230  1  0.19666132  0.40849542  0.39583343  1
  Rh  Rh231  1  0.20336034  0.60482050  0.00065400  1
  Rh  Rh232  1  0.19151598  0.39342500  -0.00076942  1
  Rh  Rh233  1  0.79962357  0.19487318  0.19160553  1
  Rh  Rh234  1  0.60516716  0.19436127  0.79500331  1
  Rh  Rh235  1  0.80043248  0.59404250  -0.00375055  1
  Rh  Rh236  1  0.39903922  0.00687424  0.00089657  1
  Rh  Rh237  1  0.79717719  0.20588145  0.40528716  1
  Rh  Rh238  1  0.79724127  0.39752420  -0.00698998  1
  Rh  Rh239  1  0.00346518  0.60012932  0.19477705  1
  Rh  Rh240  1  0.20070877  0.39108081  0.60304242  1
  Rh  Rh241  1  0.80444820  0.59171553  0.60479992  1
  Rh  Rh242  1  0.80794740  0.40347637  0.39673917  1
  Rh  Rh243  1  -0.00441947  0.39583122  0.20023903  1
  Rh  Rh244  1  0.60075713  0.39820722  -0.00397208  1
  Rh  Rh245  1  0.80660782  0.79520484  0.00050500  1
  Rh  Rh246  1  0.00251117  0.79080342  0.19234690  1
  Rh  Rh247  1  0.60396231  0.60417254  0.60334234  1
  Rh  Rh248  1  0.38842498  0.19835566  0.80712177  1
  Rh  Rh249  1  0.19348883  0.79282871  0.80266403  1
