# generated using pymatgen
data_ZrScNbPdRh
_symmetry_space_group_name_H-M   'P 1'
_cell_length_a   16.56711250
_cell_length_b   16.56060872
_cell_length_c   16.56375562
_cell_angle_alpha   90.01233574
_cell_angle_beta   90.02759908
_cell_angle_gamma   89.98244563
_symmetry_Int_Tables_number   1
_chemical_formula_structural   ZrScNbPdRh
_chemical_formula_sum   'Zr50 Sc50 Nb50 Pd50 Rh50'
_cell_volume   4544.45545424
_cell_formula_units_Z   50
loop_
 _symmetry_equiv_pos_site_id
 _symmetry_equiv_pos_as_xyz
  1  'x, y, z'
loop_
 _atom_site_type_symbol
 _atom_site_label
 _atom_site_symmetry_multiplicity
 _atom_site_fract_x
 _atom_site_fract_y
 _atom_site_fract_z
 _atom_site_occupancy
  Zr  Zr0  1  0.29481546  0.69483197  0.29570324  1
  Zr  Zr1  1  0.10185245  0.69411966  0.69102295  1
  Zr  Zr2  1  0.51046132  0.30102455  0.10349390  1
  Zr  Zr3  1  0.49976697  0.69848491  0.71238086  1
  Zr  Zr4  1  0.91313581  0.30084034  0.10083402  1
  Zr  Zr5  1  0.90101563  0.71195409  0.29612166  1
  Zr  Zr6  1  0.50033780  0.69640574  0.31145530  1
  Zr  Zr7  1  0.10465765  0.90131750  0.69354271  1
  Zr  Zr8  1  0.69599379  0.89921646  0.50498993  1
  Zr  Zr9  1  0.88947590  0.09492402  0.29301343  1
  Zr  Zr10  1  0.50465110  0.10684630  0.31180884  1
  Zr  Zr11  1  0.71486809  0.49451991  0.49997381  1
  Zr  Zr12  1  0.30078564  0.30230208  0.69888087  1
  Zr  Zr13  1  0.10094093  0.50136919  0.69679053  1
  Zr  Zr14  1  0.29808476  0.09236192  0.69912833  1
  Zr  Zr15  1  0.09470686  0.10497376  0.10388174  1
  Zr  Zr16  1  0.89471643  0.89943132  0.51039704  1
  Zr  Zr17  1  0.68810354  0.09693049  0.50231916  1
  Zr  Zr18  1  0.70160218  0.49877973  0.10067889  1
  Zr  Zr19  1  0.09655222  0.69528050  0.90151026  1
  Zr  Zr20  1  0.30161614  0.31052586  0.30175164  1
  Zr  Zr21  1  0.29567287  0.49761723  0.10327017  1
  Zr  Zr22  1  0.29321478  0.30021405  0.49947298  1
  Zr  Zr23  1  0.71149194  0.90123537  0.70392315  1
  Zr  Zr24  1  0.30085540  0.09867424  0.49480436  1
  Zr  Zr25  1  0.49603034  0.51403659  0.89867534  1
  Zr  Zr26  1  0.10084537  0.90640305  0.10032236  1
  Zr  Zr27  1  0.69929270  0.30178622  0.09575748  1
  Zr  Zr28  1  0.70144599  0.10464433  0.10323358  1
  Zr  Zr29  1  0.30028566  0.09952219  0.30215964  1
  Zr  Zr30  1  0.09762190  0.29810392  0.68792531  1
  Zr  Zr31  1  0.70072719  0.69623550  0.70728054  1
  Zr  Zr32  1  0.09565342  0.48877722  0.09689905  1
  Zr  Zr33  1  0.09963435  0.09152173  0.90022169  1
  Zr  Zr34  1  0.48666982  0.89473856  0.69736104  1
  Zr  Zr35  1  0.29645485  0.49313059  0.49166409  1
  Zr  Zr36  1  0.09926181  0.29810934  0.28444611  1
  Zr  Zr37  1  0.30040576  0.10151196  0.89578815  1
  Zr  Zr38  1  0.50010641  0.30160699  0.70927963  1
  Zr  Zr39  1  0.68789884  0.28799841  0.29206259  1
  Zr  Zr40  1  0.49511379  0.50075637  0.49829091  1
  Zr  Zr41  1  0.71317471  0.90145949  0.90327196  1
  Zr  Zr42  1  0.49993779  0.71005579  0.50357706  1
  Zr  Zr43  1  0.49380202  0.49795017  0.70018888  1
  Zr  Zr44  1  0.10490419  0.10443824  0.50118918  1
  Zr  Zr45  1  0.90172886  0.89493656  0.09943902  1
  Zr  Zr46  1  0.69161801  0.09253502  0.90305687  1
  Zr  Zr47  1  0.29935707  0.49253854  0.68894108  1
  Zr  Zr48  1  0.69876358  0.69789513  0.50057644  1
  Zr  Zr49  1  0.68999539  0.29989291  0.89688111  1
  Sc  Sc50  1  0.29306383  0.70244453  0.10061272  1
  Sc  Sc51  1  0.30148504  0.09755561  0.10265039  1
  Sc  Sc52  1  0.30364700  0.90309654  0.50330869  1
  Sc  Sc53  1  0.11239592  0.49933100  0.29321566  1
  Sc  Sc54  1  0.30441333  0.69585642  0.89930264  1
  Sc  Sc55  1  0.69864563  0.89492250  0.09591208  1
  Sc  Sc56  1  0.29463869  0.30448974  0.10365662  1
  Sc  Sc57  1  0.30483613  0.70247194  0.69496196  1
  Sc  Sc58  1  0.10101055  0.89849821  0.29561043  1
  Sc  Sc59  1  0.09518475  0.49763849  0.89361102  1
  Sc  Sc60  1  0.90072118  0.31330346  0.89832360  1
  Sc  Sc61  1  0.69764143  0.70216573  0.89843855  1
  Sc  Sc62  1  0.49505225  0.09404266  0.50175850  1
  Sc  Sc63  1  0.10643100  0.09568428  0.29500933  1
  Sc  Sc64  1  0.10456570  0.89386161  0.49956958  1
  Sc  Sc65  1  0.29576550  0.90827159  0.30306699  1
  Sc  Sc66  1  0.90608316  0.50521932  0.90232577  1
  Sc  Sc67  1  0.89785858  0.70181360  0.50107885  1
  Sc  Sc68  1  0.70301926  0.49945258  0.31071994  1
  Sc  Sc69  1  0.70689077  0.70626107  0.30213865  1
  Sc  Sc70  1  0.70914003  0.70590390  0.10234562  1
  Sc  Sc71  1  0.49793614  0.48578164  0.30291541  1
  Sc  Sc72  1  0.89455129  0.50040876  0.69820944  1
  Sc  Sc73  1  0.10396889  0.71072667  0.10463431  1
  Sc  Sc74  1  0.49995619  0.09562931  0.09250127  1
  Sc  Sc75  1  0.29086163  0.49161393  0.89241762  1
  Sc  Sc76  1  0.09790226  0.30980006  0.89545192  1
  Sc  Sc77  1  0.50324489  0.49719385  0.10153684  1
  Sc  Sc78  1  0.29781457  0.30014717  0.89160545  1
  Sc  Sc79  1  0.90650054  0.09710581  0.10062736  1
  Sc  Sc80  1  0.89779672  0.30766597  0.50760509  1
  Sc  Sc81  1  0.49599165  0.29245019  0.49225227  1
  Sc  Sc82  1  0.29945902  0.69425351  0.49485394  1
  Sc  Sc83  1  0.51312603  0.69801119  0.09370632  1
  Sc  Sc84  1  0.50017863  0.09887781  0.70030153  1
  Sc  Sc85  1  0.89525673  0.70444541  0.69931881  1
  Sc  Sc86  1  0.89869528  0.50135190  0.09103927  1
  Sc  Sc87  1  0.89466692  0.50112439  0.29836163  1
  Sc  Sc88  1  0.50803412  0.90766614  0.89916190  1
  Sc  Sc89  1  0.49725493  0.89853023  0.31057461  1
  Sc  Sc90  1  0.90207347  0.30733546  0.69746356  1
  Sc  Sc91  1  0.90130582  0.29642785  0.29154425  1
  Sc  Sc92  1  0.10495737  0.10142997  0.69153224  1
  Sc  Sc93  1  0.29913774  0.90502189  0.10361150  1
  Sc  Sc94  1  0.29754343  0.91025705  0.89905422  1
  Sc  Sc95  1  0.70685241  0.49985914  0.89695983  1
  Sc  Sc96  1  0.10593277  0.70904227  0.29916291  1
  Sc  Sc97  1  0.90000905  0.09925424  0.51248711  1
  Sc  Sc98  1  0.89843456  0.08817869  0.91070347  1
  Sc  Sc99  1  0.49931234  0.10333881  0.90162266  1
  Nb  Nb100  1  0.49804728  0.89652387  0.50558397  1
  Nb  Nb101  1  0.90251574  0.70539048  0.91081314  1
  Nb  Nb102  1  0.69575176  0.30026882  0.70200004  1
  Nb  Nb103  1  0.69890583  0.10645129  0.70336817  1
  Nb  Nb104  1  0.09880726  0.89950734  0.89821091  1
  Nb  Nb105  1  0.10062251  0.50103864  0.50136583  1
  Nb  Nb106  1  0.71449988  0.90893978  0.30188575  1
  Nb  Nb107  1  0.29793453  0.90293410  0.70120965  1
  Nb  Nb108  1  0.70025190  0.09821359  0.30044340  1
  Nb  Nb109  1  0.70271553  0.30021699  0.50247395  1
  Nb  Nb110  1  0.09772796  0.30110424  0.49573198  1
  Nb  Nb111  1  0.10009198  0.29795096  0.09883999  1
  Nb  Nb112  1  0.10023886  0.68950716  0.50029372  1
  Nb  Nb113  1  0.89836443  0.09853856  0.69891489  1
  Nb  Nb114  1  0.90097959  0.90183977  0.30219516  1
  Nb  Nb115  1  0.89911186  0.50047019  0.49063083  1
  Nb  Nb116  1  0.50272511  0.89643050  0.10695391  1
  Nb  Nb117  1  0.49617586  0.30037422  0.90458027  1
  Nb  Nb118  1  0.90434026  0.69781693  0.10020638  1
  Nb  Nb119  1  0.69645718  0.49876405  0.69960984  1
  Nb  Nb120  1  0.49905741  0.29831788  0.29435352  1
  Nb  Nb121  1  0.30558236  0.49945332  0.29586907  1
  Nb  Nb122  1  0.49743866  0.70095387  0.89950754  1
  Nb  Nb123  1  0.89929591  0.90260863  0.70203783  1
  Nb  Nb124  1  0.90076287  0.89440159  0.89894835  1
  Nb  Nb125  1  0.79957815  0.20362723  -0.00445000  1
  Nb  Nb126  1  -0.00562458  0.00002545  0.39938748  1
  Nb  Nb127  1  0.19549435  0.59644548  0.00116403  1
  Nb  Nb128  1  0.60546374  0.39926848  0.60127588  1
  Nb  Nb129  1  0.19386895  0.20312995  0.00147158  1
  Nb  Nb130  1  0.00384431  0.59813522  0.40036349  1
  Nb  Nb131  1  0.79610678  0.19861040  0.40519392  1
  Nb  Nb132  1  0.40406585  0.60187961  0.20218132  1
  Nb  Nb133  1  0.59939249  0.60054434  0.20611070  1
  Nb  Nb134  1  0.60503647  -0.00286018  0.20819184  1
  Nb  Nb135  1  -0.00372265  -0.00525260  0.79629743  1
  Nb  Nb136  1  -0.00834243  0.19180630  0.79599855  1
  Nb  Nb137  1  0.60194722  0.59388291  0.60333186  1
  Nb  Nb138  1  0.19478919  0.80387529  0.79840451  1
  Nb  Nb139  1  0.00459405  0.40190114  0.40214305  1
  Nb  Nb140  1  -0.00329853  0.19992660  0.40211163  1
  Nb  Nb141  1  0.79720682  0.39595417  0.19600655  1
  Nb  Nb142  1  -0.00115734  0.60500395  0.20000161  1
  Nb  Nb143  1  0.40673311  0.79665272  0.19721111  1
  Nb  Nb144  1  0.00012748  0.80457567  0.80198222  1
  Nb  Nb145  1  0.79889522  0.19764856  0.79845266  1
  Nb  Nb146  1  0.40310958  0.39790423  -0.00357616  1
  Nb  Nb147  1  0.79120336  0.20152427  0.60603435  1
  Nb  Nb148  1  0.40819414  0.80018294  0.00258654  1
  Nb  Nb149  1  0.40409994  0.20461972  0.20411134  1
  Pd  Pd150  1  0.79895967  0.80089954  0.40529609  1
  Pd  Pd151  1  0.80669642  0.60315784  0.80787263  1
  Pd  Pd152  1  0.00516719  0.00086877  0.59774734  1
  Pd  Pd153  1  0.39922690  0.20007881  0.60128171  1
  Pd  Pd154  1  0.59547745  -0.00570551  0.61031425  1
  Pd  Pd155  1  0.38864839  0.80454102  0.39693172  1
  Pd  Pd156  1  0.60971786  0.60111997  0.00202585  1
  Pd  Pd157  1  0.00451687  0.80176585  0.00120363  1
  Pd  Pd158  1  0.79712339  -0.00658032  0.18766972  1
  Pd  Pd159  1  0.40142344  0.60592955  0.59632092  1
  Pd  Pd160  1  0.59550510  -0.00361889  0.79232653  1
  Pd  Pd161  1  0.80030589  0.60158289  0.60013805  1
  Pd  Pd162  1  0.38632201  0.59594060  0.79728449  1
  Pd  Pd163  1  0.39103609  0.80697862  0.81208357  1
  Pd  Pd164  1  -0.01136408  0.59652296  0.59507578  1
  Pd  Pd165  1  0.20353374  0.80225375  0.40241530  1
  Pd  Pd166  1  0.59527155  0.40853795  0.80361072  1
  Pd  Pd167  1  0.80778960  0.38532274  0.38848429  1
  Pd  Pd168  1  -0.00105080  0.79599599  0.60114605  1
  Pd  Pd169  1  0.79659900  0.60537501  -0.00478551  1
  Pd  Pd170  1  0.19594581  0.59657818  0.39656527  1
  Pd  Pd171  1  0.79958848  0.59600695  0.20320566  1
  Pd  Pd172  1  0.20544220  0.60426330  0.80129056  1
  Pd  Pd173  1  -0.00204005  0.40813022  0.59541025  1
  Pd  Pd174  1  0.80510570  0.00648021  0.41259150  1
  Pd  Pd175  1  0.21010222  0.79794418  -0.00810927  1
  Pd  Pd176  1  0.39009539  0.20946357  0.00782364  1
  Pd  Pd177  1  0.41075659  0.00160256  0.20585323  1
  Pd  Pd178  1  0.59859081  0.80213807  -0.00730635  1
  Pd  Pd179  1  0.59603825  0.20641732  0.59786721  1
  Pd  Pd180  1  0.40278286  -0.00759595  -0.00110182  1
  Pd  Pd181  1  -0.00972684  0.60621515  0.79622045  1
  Pd  Pd182  1  0.60272669  0.79585579  0.61175482  1
  Pd  Pd183  1  0.59682111  -0.00858460  0.39816256  1
  Pd  Pd184  1  0.00311175  0.80169412  0.40416951  1
  Pd  Pd185  1  0.80179702  0.39842682  0.79774154  1
  Pd  Pd186  1  0.39134915  0.60120829  0.00891346  1
  Pd  Pd187  1  0.80557141  0.00756215  0.80183323  1
  Pd  Pd188  1  0.60140222  0.80759232  0.80393041  1
  Pd  Pd189  1  0.60256156  0.59539173  0.40266505  1
  Pd  Pd190  1  -0.00102225  0.20561726  -0.01442862  1
  Pd  Pd191  1  0.40292611  0.19493586  0.79801801  1
  Pd  Pd192  1  0.18819302  0.20381810  0.80346310  1
  Pd  Pd193  1  0.59378339  0.41009483  -0.00967401  1
  Pd  Pd194  1  0.60831205  0.80904763  0.39405564  1
  Pd  Pd195  1  0.19302559  0.20446590  0.39167500  1
  Pd  Pd196  1  0.20823454  0.79554842  0.59860655  1
  Pd  Pd197  1  0.20235336  0.00689899  0.00519711  1
  Pd  Pd198  1  0.60061782  0.80087019  0.21067628  1
  Pd  Pd199  1  0.59903716  0.39305221  0.40393136  1
  Rh  Rh200  1  0.20726413  0.20000665  0.59915844  1
  Rh  Rh201  1  0.79609633  0.79839873  0.60259489  1
  Rh  Rh202  1  0.39982184  -0.00163024  0.59921455  1
  Rh  Rh203  1  0.20977714  0.80923574  0.20154452  1
  Rh  Rh204  1  0.79217282  0.00492499  0.60126361  1
  Rh  Rh205  1  0.79499194  0.39650958  0.60781653  1
  Rh  Rh206  1  0.00050421  0.39983684  0.79243686  1
  Rh  Rh207  1  0.80480492  0.39546531  0.00404993  1
  Rh  Rh208  1  0.58840011  0.18464152  0.19542013  1
  Rh  Rh209  1  0.20427085  0.00069474  0.59356622  1
  Rh  Rh210  1  0.21006576  0.19829800  0.19368082  1
  Rh  Rh211  1  0.60984586  0.41136841  0.21013847  1
  Rh  Rh212  1  0.60294853  0.19662038  -0.00339626  1
  Rh  Rh213  1  0.80771813  0.79290243  0.80460115  1
  Rh  Rh214  1  0.80092673  0.00199993  0.00674954  1
  Rh  Rh215  1  0.80508607  0.20614998  0.19393720  1
  Rh  Rh216  1  0.19830910  0.00087514  0.19708686  1
  Rh  Rh217  1  0.60408565  0.20328493  0.40605931  1
  Rh  Rh218  1  0.19368045  0.39701747  0.78908547  1
  Rh  Rh219  1  0.60128451  -0.00400477  0.00991614  1
  Rh  Rh220  1  0.39749684  0.59492059  0.39434896  1
  Rh  Rh221  1  0.19242558  0.40083785  0.39566950  1
  Rh  Rh222  1  0.40202401  0.39954546  0.19123284  1
  Rh  Rh223  1  0.59686587  0.19671678  0.80543596  1
  Rh  Rh224  1  0.80182175  0.79618105  0.00089886  1
  Rh  Rh225  1  -0.00777870  0.41263445  0.20479419  1
  Rh  Rh226  1  0.19528383  -0.00485470  0.79598439  1
  Rh  Rh227  1  0.60105104  0.59779827  0.80003305  1
  Rh  Rh228  1  0.39531431  0.20307608  0.39402636  1
  Rh  Rh229  1  0.00136839  0.39949285  -0.00476329  1
  Rh  Rh230  1  0.80296570  0.80667558  0.19737847  1
  Rh  Rh231  1  0.20747641  0.59790594  0.59536988  1
  Rh  Rh232  1  0.40198012  0.40262040  0.81005140  1
  Rh  Rh233  1  0.20311251  0.39810602  -0.00241909  1
  Rh  Rh234  1  0.00022021  -0.00282551  0.20809037  1
  Rh  Rh235  1  0.80961968  0.60923649  0.39748722  1
  Rh  Rh236  1  0.00046441  0.80040159  0.19839831  1
  Rh  Rh237  1  0.40450826  -0.00409248  0.40608156  1
  Rh  Rh238  1  0.40159987  0.39690443  0.40246526  1
  Rh  Rh239  1  0.40848457  0.38884806  0.59397544  1
  Rh  Rh240  1  0.00826955  0.60262413  0.00979796  1
  Rh  Rh241  1  -0.00143653  -0.00831020  -0.00213689  1
  Rh  Rh242  1  0.19748383  0.59732471  0.19306313  1
  Rh  Rh243  1  0.19538522  0.39870214  0.59729884  1
  Rh  Rh244  1  -0.00812314  0.20288924  0.59870795  1
  Rh  Rh245  1  0.19034515  -0.00321961  0.40396790  1
  Rh  Rh246  1  -0.00257677  0.18972959  0.20854375  1
  Rh  Rh247  1  0.40218485  0.00104955  0.80111174  1
  Rh  Rh248  1  0.19964353  0.39852005  0.20039951  1
  Rh  Rh249  1  0.39471702  0.79884984  0.59784881  1
