# generated using pymatgen
data_ZrScNbPdRh
_symmetry_space_group_name_H-M   'P 1'
_cell_length_a   16.55816008
_cell_length_b   16.56170221
_cell_length_c   16.56492397
_cell_angle_alpha   89.98286894
_cell_angle_beta   90.01820387
_cell_angle_gamma   89.96814270
_symmetry_Int_Tables_number   1
_chemical_formula_structural   ZrScNbPdRh
_chemical_formula_sum   'Zr50 Sc50 Nb50 Pd50 Rh50'
_cell_volume   4542.61977271
_cell_formula_units_Z   50
loop_
 _symmetry_equiv_pos_site_id
 _symmetry_equiv_pos_as_xyz
  1  'x, y, z'
loop_
 _atom_site_type_symbol
 _atom_site_label
 _atom_site_symmetry_multiplicity
 _atom_site_fract_x
 _atom_site_fract_y
 _atom_site_fract_z
 _atom_site_occupancy
  Zr  Zr0  1  0.30390151  0.50411140  0.91063499  1
  Zr  Zr1  1  0.89877915  0.70135575  0.09059965  1
  Zr  Zr2  1  0.90807998  0.89218413  0.30750131  1
  Zr  Zr3  1  0.69784084  0.49771880  0.90455902  1
  Zr  Zr4  1  0.89912817  0.71275107  0.49680788  1
  Zr  Zr5  1  0.49761250  0.09711720  0.51364584  1
  Zr  Zr6  1  0.30482799  0.10381051  0.69641347  1
  Zr  Zr7  1  0.49601546  0.89891351  0.70182686  1
  Zr  Zr8  1  0.11137465  0.29762130  0.90202796  1
  Zr  Zr9  1  0.69866746  0.30398261  0.90190155  1
  Zr  Zr10  1  0.49295902  0.49589659  0.50260895  1
  Zr  Zr11  1  0.89362511  0.29906978  0.69732601  1
  Zr  Zr12  1  0.90024416  0.90390842  0.89965963  1
  Zr  Zr13  1  0.29761019  0.50588236  0.69883115  1
  Zr  Zr14  1  0.70967809  0.09245794  0.50088247  1
  Zr  Zr15  1  0.09977084  0.29738522  0.70484686  1
  Zr  Zr16  1  0.50187114  0.10112791  0.09591336  1
  Zr  Zr17  1  0.90023444  0.91534563  0.09575359  1
  Zr  Zr18  1  0.30501158  0.89860682  0.49460833  1
  Zr  Zr19  1  0.50517318  0.90051806  0.10358252  1
  Zr  Zr20  1  0.49537458  0.49936417  0.09878374  1
  Zr  Zr21  1  0.50204554  0.89921368  0.89098917  1
  Zr  Zr22  1  0.09123422  0.10666928  0.10365565  1
  Zr  Zr23  1  0.29798874  0.70574281  0.29453773  1
  Zr  Zr24  1  0.89951860  0.49695860  0.49940795  1
  Zr  Zr25  1  0.69670898  0.30664927  0.09864403  1
  Zr  Zr26  1  0.69880187  0.29327534  0.30089217  1
  Zr  Zr27  1  0.50034683  0.29640815  0.10390090  1
  Zr  Zr28  1  0.49565149  0.70335200  0.50016993  1
  Zr  Zr29  1  0.89776942  0.50360752  0.89665315  1
  Zr  Zr30  1  0.49925415  0.49702536  0.30158149  1
  Zr  Zr31  1  0.69979230  0.69577706  0.89902044  1
  Zr  Zr32  1  0.69972470  0.51108896  0.29741487  1
  Zr  Zr33  1  0.09550593  0.69684097  0.70784075  1
  Zr  Zr34  1  0.30645438  0.11033726  0.89187183  1
  Zr  Zr35  1  0.89396947  0.50213659  0.70148494  1
  Zr  Zr36  1  0.69711821  0.69660106  0.70193388  1
  Zr  Zr37  1  0.70376452  0.89846537  0.09885690  1
  Zr  Zr38  1  0.49410858  0.89074067  0.29895982  1
  Zr  Zr39  1  0.10761839  0.10035000  0.30096803  1
  Zr  Zr40  1  0.69994075  0.90427905  0.90021782  1
  Zr  Zr41  1  0.08732723  0.29852009  0.29392397  1
  Zr  Zr42  1  0.69823475  0.10535226  0.30871433  1
  Zr  Zr43  1  0.09643936  0.90923493  0.10072792  1
  Zr  Zr44  1  0.50071343  0.29784233  0.29860950  1
  Zr  Zr45  1  0.50002035  0.70285516  0.10987514  1
  Zr  Zr46  1  0.10023898  0.70313733  0.29688491  1
  Zr  Zr47  1  0.29995255  0.30210933  0.08766519  1
  Zr  Zr48  1  0.29823550  0.09772851  0.30856623  1
  Zr  Zr49  1  0.50072189  0.50254952  0.90069825  1
  Sc  Sc50  1  0.11299985  0.09868120  0.69912422  1
  Sc  Sc51  1  0.29869922  0.90147590  0.30220274  1
  Sc  Sc52  1  0.69522192  0.50816901  0.50514861  1
  Sc  Sc53  1  0.10312912  0.90234276  0.89338963  1
  Sc  Sc54  1  0.10211770  0.90662320  0.70562893  1
  Sc  Sc55  1  0.48839887  0.30458552  0.50182226  1
  Sc  Sc56  1  0.69842604  0.70001704  0.30329517  1
  Sc  Sc57  1  0.10247466  0.90163423  0.29788495  1
  Sc  Sc58  1  0.90715265  0.91000922  0.69836963  1
  Sc  Sc59  1  0.29603264  0.10558721  0.11471432  1
  Sc  Sc60  1  0.90382396  0.09583542  0.30760134  1
  Sc  Sc61  1  0.09215462  0.49122983  0.29684613  1
  Sc  Sc62  1  0.50048804  0.69686736  0.88737759  1
  Sc  Sc63  1  0.30233618  0.50037913  0.28711444  1
  Sc  Sc64  1  0.69406001  0.09745424  0.89610889  1
  Sc  Sc65  1  0.10116795  0.10271010  0.89676837  1
  Sc  Sc66  1  0.89008516  0.09827870  0.70199583  1
  Sc  Sc67  1  0.69299660  0.70457014  0.49263371  1
  Sc  Sc68  1  0.30137676  0.89465826  0.10909773  1
  Sc  Sc69  1  0.70401725  0.29530658  0.70039908  1
  Sc  Sc70  1  0.10185418  0.29359521  0.49209008  1
  Sc  Sc71  1  0.89872158  0.50224924  0.09498604  1
  Sc  Sc72  1  0.29989208  0.70369127  0.50298422  1
  Sc  Sc73  1  0.49611650  0.50357365  0.69279433  1
  Sc  Sc74  1  0.89667329  0.29012217  0.49186205  1
  Sc  Sc75  1  0.90017676  0.09334539  0.90183366  1
  Sc  Sc76  1  0.30103469  0.49462368  0.51127048  1
  Sc  Sc77  1  0.11089102  0.70195753  0.09769429  1
  Sc  Sc78  1  0.49523106  0.28556999  0.91447216  1
  Sc  Sc79  1  0.69483692  0.90577642  0.70441700  1
  Sc  Sc80  1  0.30836798  0.28959715  0.29888407  1
  Sc  Sc81  1  0.30380089  0.90309553  0.70440931  1
  Sc  Sc82  1  0.29688827  0.29374484  0.69570080  1
  Sc  Sc83  1  0.49634726  0.29284256  0.69003158  1
  Sc  Sc84  1  0.70150991  0.49892173  0.69992879  1
  Sc  Sc85  1  0.69378780  0.89962352  0.30425137  1
  Sc  Sc86  1  0.70129552  0.08816693  0.10377095  1
  Sc  Sc87  1  0.50049818  0.10265767  0.29698565  1
  Sc  Sc88  1  0.10465052  0.50699568  0.09926051  1
  Sc  Sc89  1  0.90049021  0.30431917  0.88873305  1
  Sc  Sc90  1  0.09774868  0.69880145  0.50927234  1
  Sc  Sc91  1  0.10255309  0.50486370  0.89072247  1
  Sc  Sc92  1  0.29769360  0.89654673  0.89138710  1
  Sc  Sc93  1  0.50274855  0.89493660  0.50149178  1
  Sc  Sc94  1  0.70336823  0.28600048  0.50260997  1
  Sc  Sc95  1  0.49523961  0.70452041  0.69876013  1
  Sc  Sc96  1  0.10187849  0.49731754  0.50536543  1
  Sc  Sc97  1  0.69645769  0.10243392  0.69981589  1
  Sc  Sc98  1  0.10710002  0.50509347  0.69769865  1
  Sc  Sc99  1  0.51064756  0.70140576  0.30292911  1
  Nb  Nb100  1  0.30200530  0.68681959  0.09517189  1
  Nb  Nb101  1  0.91428427  0.29577211  0.10879432  1
  Nb  Nb102  1  0.30450539  0.30308217  0.89938736  1
  Nb  Nb103  1  0.08808889  0.90899915  0.51037664  1
  Nb  Nb104  1  0.29725591  0.69965415  0.69886921  1
  Nb  Nb105  1  0.49290593  0.09791436  0.70964707  1
  Nb  Nb106  1  0.09435119  0.70559867  0.89443864  1
  Nb  Nb107  1  0.90779431  0.69818746  0.88993330  1
  Nb  Nb108  1  0.29577622  0.70139481  0.90234956  1
  Nb  Nb109  1  0.09681252  0.29682475  0.10337147  1
  Nb  Nb110  1  0.90272111  0.10155816  0.09918214  1
  Nb  Nb111  1  0.10140583  0.09746293  0.49928471  1
  Nb  Nb112  1  0.89797191  0.70037230  0.30103618  1
  Nb  Nb113  1  0.30148424  0.51087717  0.09788234  1
  Nb  Nb114  1  0.90142099  0.49883897  0.30037210  1
  Nb  Nb115  1  0.30065612  0.29653784  0.49598417  1
  Nb  Nb116  1  0.69934901  0.69760139  0.10305339  1
  Nb  Nb117  1  0.90178664  0.90919777  0.50291281  1
  Nb  Nb118  1  0.71056196  0.89913706  0.50173200  1
  Nb  Nb119  1  0.90516290  0.08650405  0.50411338  1
  Nb  Nb120  1  0.89901892  0.69900255  0.70334073  1
  Nb  Nb121  1  0.49734083  0.09550179  0.89821512  1
  Nb  Nb122  1  0.69698542  0.50262648  0.09566207  1
  Nb  Nb123  1  0.90352014  0.31045379  0.29776040  1
  Nb  Nb124  1  0.28716111  0.11027457  0.49958028  1
  Nb  Nb125  1  0.19914262  0.39510366  0.19403012  1
  Nb  Nb126  1  0.00553788  0.39368192  0.00238818  1
  Nb  Nb127  1  -0.00340614  0.39140134  0.60241341  1
  Nb  Nb128  1  0.80406519  0.80529307  0.60121186  1
  Nb  Nb129  1  0.39921231  0.79634321  -0.00057671  1
  Nb  Nb130  1  0.00145420  0.79819559  -0.00857629  1
  Nb  Nb131  1  0.79739716  0.40110539  0.39228180  1
  Nb  Nb132  1  0.59136347  0.39653826  0.80241539  1
  Nb  Nb133  1  0.80480235  0.79662622  0.19907153  1
  Nb  Nb134  1  0.80877059  0.20364558  0.19830704  1
  Nb  Nb135  1  0.60441543  0.39889383  0.40007457  1
  Nb  Nb136  1  0.59933376  0.79786082  0.00157231  1
  Nb  Nb137  1  0.80631232  0.79625878  0.79594218  1
  Nb  Nb138  1  0.19784650  0.80383640  0.60270915  1
  Nb  Nb139  1  0.39760918  -0.00161242  -0.00189878  1
  Nb  Nb140  1  0.80457238  0.40036116  0.20008664  1
  Nb  Nb141  1  0.00050496  0.19384984  0.59670533  1
  Nb  Nb142  1  0.39971008  0.39546961  0.80423764  1
  Nb  Nb143  1  -0.00225501  0.60130124  0.39555909  1
  Nb  Nb144  1  0.80760618  0.20240535  0.01010095  1
  Nb  Nb145  1  0.20676466  0.00291007  0.00126289  1
  Nb  Nb146  1  -0.00688817  0.60529617  0.20494773  1
  Nb  Nb147  1  0.39396397  0.59881044  0.39988642  1
  Nb  Nb148  1  0.20560132  0.39871710  0.39399103  1
  Nb  Nb149  1  0.19980479  0.59517550  0.39698412  1
  Pd  Pd150  1  0.40617354  0.00515315  0.40403719  1
  Pd  Pd151  1  0.60676986  0.80423714  0.60017847  1
  Pd  Pd152  1  0.80390187  0.60123260  0.19459456  1
  Pd  Pd153  1  0.80235054  -0.00608125  0.39307187  1
  Pd  Pd154  1  0.60041471  0.19805678  0.59960198  1
  Pd  Pd155  1  0.58922270  0.20280441  0.41392622  1
  Pd  Pd156  1  0.20157262  0.80699963  0.00108188  1
  Pd  Pd157  1  0.79945472  0.61166385  0.59235943  1
  Pd  Pd158  1  0.61215023  0.19132996  0.00405151  1
  Pd  Pd159  1  0.00319921  0.40514913  0.79830376  1
  Pd  Pd160  1  0.21046472  0.40169446  0.79926480  1
  Pd  Pd161  1  -0.00599194  0.20612497  -0.01279793  1
  Pd  Pd162  1  0.40648383  0.19209173  0.40631692  1
  Pd  Pd163  1  0.00311559  0.00844451  0.79664038  1
  Pd  Pd164  1  0.20690635  -0.00654766  0.59735826  1
  Pd  Pd165  1  -0.00297883  0.19141484  0.79433662  1
  Pd  Pd166  1  -0.00210817  0.59423940  0.59811134  1
  Pd  Pd167  1  0.39117895  0.39529012  0.19521051  1
  Pd  Pd168  1  0.20146204  0.79820013  0.79214175  1
  Pd  Pd169  1  0.59916314  0.00185543  0.20837740  1
  Pd  Pd170  1  0.39838362  0.00165610  0.19770346  1
  Pd  Pd171  1  0.59514523  0.60333471  0.60179847  1
  Pd  Pd172  1  0.80008418  0.60037426  -0.00387928  1
  Pd  Pd173  1  0.40534015  0.60591157  0.20940954  1
  Pd  Pd174  1  0.60248630  -0.00174180  0.60378211  1
  Pd  Pd175  1  0.80303739  0.59965437  0.40606963  1
  Pd  Pd176  1  0.59158460  0.20512328  0.79887193  1
  Pd  Pd177  1  0.80020142  0.19504379  0.81089574  1
  Pd  Pd178  1  0.81402569  0.39251394  0.00656505  1
  Pd  Pd179  1  0.00738713  0.60059696  0.00186589  1
  Pd  Pd180  1  -0.00455502  0.79758916  0.18733549  1
  Pd  Pd181  1  0.19531538  0.38989066  0.59323988  1
  Pd  Pd182  1  0.39548871  0.59972533  0.79811970  1
  Pd  Pd183  1  0.80469404  -0.00122725  0.21144658  1
  Pd  Pd184  1  0.19098747  0.79944269  0.41156182  1
  Pd  Pd185  1  0.19038943  0.60297094  -0.00822869  1
  Pd  Pd186  1  0.01116707  0.79992510  0.40590649  1
  Pd  Pd187  1  0.59395430  0.60726581  0.00411728  1
  Pd  Pd188  1  0.80090991  0.79691133  -0.00510976  1
  Pd  Pd189  1  0.20156670  0.80132183  0.19295057  1
  Pd  Pd190  1  -0.00368058  0.19316250  0.40281245  1
  Pd  Pd191  1  0.60520052  0.40628633  0.20300494  1
  Pd  Pd192  1  0.19402291  0.40604282  0.00402132  1
  Pd  Pd193  1  0.39324758  -0.00181014  0.59736871  1
  Pd  Pd194  1  0.20372904  0.19076265  0.00192367  1
  Pd  Pd195  1  0.00029850  0.80490745  0.60987011  1
  Pd  Pd196  1  0.59257429  -0.00402783  0.40305663  1
  Pd  Pd197  1  0.79840860  0.39535173  0.58969697  1
  Pd  Pd198  1  0.19445575  -0.00866867  0.40573402  1
  Pd  Pd199  1  0.60674800  0.39299233  0.60005374  1
  Rh  Rh200  1  0.39428444  0.79580515  0.19817834  1
  Rh  Rh201  1  0.20636219  0.00599253  0.80680320  1
  Rh  Rh202  1  -0.00569151  0.80641671  0.80044450  1
  Rh  Rh203  1  0.58845989  0.59309124  0.40578216  1
  Rh  Rh204  1  0.40160087  0.79250739  0.39466786  1
  Rh  Rh205  1  0.79766697  0.60115231  0.80280176  1
  Rh  Rh206  1  0.00847509  -0.00324010  0.39814767  1
  Rh  Rh207  1  0.40077525  0.19933505  0.19739381  1
  Rh  Rh208  1  0.39599315  0.19757611  0.59514230  1
  Rh  Rh209  1  0.60131834  0.80696436  0.40329563  1
  Rh  Rh210  1  0.20119967  0.20821840  0.20477485  1
  Rh  Rh211  1  0.01152397  -0.00154646  -0.00711053  1
  Rh  Rh212  1  0.60013490  0.58946086  0.79144101  1
  Rh  Rh213  1  0.19381360  0.59274761  0.20626713  1
  Rh  Rh214  1  0.79554727  0.01357409  -0.00391209  1
  Rh  Rh215  1  0.19359256  0.20265482  0.59566853  1
  Rh  Rh216  1  0.60880748  0.79853385  0.80254066  1
  Rh  Rh217  1  0.39772212  0.00077042  0.80348201  1
  Rh  Rh218  1  0.20409454  0.20214502  0.79847078  1
  Rh  Rh219  1  0.59738791  0.00646026  0.79432136  1
  Rh  Rh220  1  0.79683876  -0.00451569  0.79911686  1
  Rh  Rh221  1  0.80722937  0.18893173  0.59525314  1
  Rh  Rh222  1  0.61454081  0.79811402  0.19791950  1
  Rh  Rh223  1  0.79663532  -0.00430548  0.60519302  1
  Rh  Rh224  1  0.40670742  0.20896023  0.79732151  1
  Rh  Rh225  1  0.40697667  0.61015387  -0.00232945  1
  Rh  Rh226  1  0.39111545  0.80182007  0.60696889  1
  Rh  Rh227  1  0.60024340  0.59794831  0.19514866  1
  Rh  Rh228  1  0.00077212  0.40536703  0.41242318  1
  Rh  Rh229  1  0.39563290  0.40576281  0.40027739  1
  Rh  Rh230  1  0.00403762  0.01054650  0.60757252  1
  Rh  Rh231  1  0.39024938  0.39484240  0.61165289  1
  Rh  Rh232  1  0.20284039  0.61064946  0.59594654  1
  Rh  Rh233  1  0.00087396  0.59253982  0.79498204  1
  Rh  Rh234  1  0.20349645  0.60594280  0.80544558  1
  Rh  Rh235  1  0.19977081  0.20785297  0.39523460  1
  Rh  Rh236  1  0.39366819  0.79250450  0.80335454  1
  Rh  Rh237  1  0.39756058  0.60652973  0.59465181  1
  Rh  Rh238  1  0.20026891  0.00026300  0.19637123  1
  Rh  Rh239  1  0.00131505  0.41401063  0.18542458  1
  Rh  Rh240  1  -0.00158327  0.00471360  0.20785470  1
  Rh  Rh241  1  0.79720050  0.80592999  0.39917279  1
  Rh  Rh242  1  0.59284343  -0.00505815  -0.00468611  1
  Rh  Rh243  1  0.80919946  0.19921501  0.39422747  1
  Rh  Rh244  1  0.60756504  0.19123308  0.19336746  1
  Rh  Rh245  1  0.78705260  0.40185060  0.79869158  1
  Rh  Rh246  1  0.58976323  0.40028182  -0.00358959  1
  Rh  Rh247  1  0.40366490  0.40144470  -0.00060108  1
  Rh  Rh248  1  -0.00584603  0.18862882  0.21095117  1
  Rh  Rh249  1  0.39458439  0.19014270  0.00505250  1
