# generated using pymatgen
data_ZrScNbPdRh
_symmetry_space_group_name_H-M   'P 1'
_cell_length_a   16.55920081
_cell_length_b   16.55976994
_cell_length_c   16.55720183
_cell_angle_alpha   90.02157082
_cell_angle_beta   89.97714744
_cell_angle_gamma   89.96855071
_symmetry_Int_Tables_number   1
_chemical_formula_structural   ZrScNbPdRh
_chemical_formula_sum   'Zr50 Sc50 Nb50 Pd50 Rh50'
_cell_volume   4540.25749398
_cell_formula_units_Z   50
loop_
 _symmetry_equiv_pos_site_id
 _symmetry_equiv_pos_as_xyz
  1  'x, y, z'
loop_
 _atom_site_type_symbol
 _atom_site_label
 _atom_site_symmetry_multiplicity
 _atom_site_fract_x
 _atom_site_fract_y
 _atom_site_fract_z
 _atom_site_occupancy
  Zr  Zr0  1  0.50511876  0.90121681  0.50858977  1
  Zr  Zr1  1  0.50572850  0.70043053  0.89334005  1
  Zr  Zr2  1  0.29923980  0.10675874  0.30320012  1
  Zr  Zr3  1  0.10130493  0.50467878  0.69643962  1
  Zr  Zr4  1  0.29909314  0.89794161  0.08417018  1
  Zr  Zr5  1  0.69395787  0.69337990  0.50691571  1
  Zr  Zr6  1  0.50362939  0.50276380  0.11012532  1
  Zr  Zr7  1  0.29013417  0.10321754  0.10104230  1
  Zr  Zr8  1  0.10712881  0.49124298  0.29810586  1
  Zr  Zr9  1  0.90525038  0.30128572  0.50919637  1
  Zr  Zr10  1  0.89449455  0.69682291  0.70424562  1
  Zr  Zr11  1  0.10202987  0.69302928  0.50516467  1
  Zr  Zr12  1  0.29319031  0.90365856  0.29759474  1
  Zr  Zr13  1  0.09390699  0.29810237  0.69105496  1
  Zr  Zr14  1  0.11488186  0.09697104  0.29871457  1
  Zr  Zr15  1  0.50117816  0.30208547  0.09820902  1
  Zr  Zr16  1  0.69726589  0.50118559  0.09346892  1
  Zr  Zr17  1  0.51032143  0.49478575  0.89969967  1
  Zr  Zr18  1  0.90289067  0.10189474  0.89243005  1
  Zr  Zr19  1  0.69843005  0.89689150  0.09926806  1
  Zr  Zr20  1  0.49088699  0.30159747  0.29797096  1
  Zr  Zr21  1  0.49971374  0.30159376  0.50043044  1
  Zr  Zr22  1  0.90686569  0.29975630  0.09714368  1
  Zr  Zr23  1  0.69914357  0.30482921  0.89654139  1
  Zr  Zr24  1  0.49950589  0.50043297  0.70320170  1
  Zr  Zr25  1  0.09768746  0.49664867  0.10302548  1
  Zr  Zr26  1  0.09634490  0.09377624  0.69793669  1
  Zr  Zr27  1  0.30292468  0.69683673  0.29538173  1
  Zr  Zr28  1  0.29941035  0.29783841  0.69868046  1
  Zr  Zr29  1  0.89861224  0.50363971  0.70707323  1
  Zr  Zr30  1  0.10762161  0.90016134  0.88848126  1
  Zr  Zr31  1  0.10414989  0.10042800  0.50416108  1
  Zr  Zr32  1  0.09708670  0.49587868  0.49198819  1
  Zr  Zr33  1  0.89526965  0.90248423  0.89392814  1
  Zr  Zr34  1  0.68188826  0.50501736  0.29773142  1
  Zr  Zr35  1  0.49363719  0.49788384  0.30443504  1
  Zr  Zr36  1  0.29296518  0.09862851  0.69714677  1
  Zr  Zr37  1  0.10290284  0.69252560  0.29621593  1
  Zr  Zr38  1  0.51272971  0.70269059  0.69387250  1
  Zr  Zr39  1  0.89995924  0.08773254  0.50368881  1
  Zr  Zr40  1  0.30069738  0.49272393  0.70457457  1
  Zr  Zr41  1  0.90569752  0.29832953  0.89937835  1
  Zr  Zr42  1  0.49556481  0.09226075  0.49768675  1
  Zr  Zr43  1  0.30166140  0.69672705  0.49588410  1
  Zr  Zr44  1  0.69984878  0.29764449  0.50910528  1
  Zr  Zr45  1  0.50589118  0.29005072  0.90596060  1
  Zr  Zr46  1  0.69679027  0.29057622  0.29867297  1
  Zr  Zr47  1  0.49822406  0.68484174  0.29723544  1
  Zr  Zr48  1  0.89454435  0.89483856  0.11215014  1
  Zr  Zr49  1  0.69774415  0.29874668  0.10224992  1
  Sc  Sc50  1  0.91296585  0.50713008  0.30202933  1
  Sc  Sc51  1  0.10465658  0.30239080  0.09115186  1
  Sc  Sc52  1  0.30380046  0.29368854  0.49656535  1
  Sc  Sc53  1  0.70043882  0.10189496  0.30805017  1
  Sc  Sc54  1  0.69828386  0.69309877  0.30747696  1
  Sc  Sc55  1  0.89525635  0.29247561  0.30209459  1
  Sc  Sc56  1  0.88981252  0.69964750  0.89266132  1
  Sc  Sc57  1  0.09383615  0.10774608  0.90302517  1
  Sc  Sc58  1  0.90148640  0.10187773  0.10701947  1
  Sc  Sc59  1  0.29808472  0.30409960  0.90531257  1
  Sc  Sc60  1  0.69880913  0.10435002  0.11846683  1
  Sc  Sc61  1  0.70027685  0.09895384  0.50610057  1
  Sc  Sc62  1  0.30194342  0.49163075  0.89801250  1
  Sc  Sc63  1  0.49539003  0.90445784  0.90019405  1
  Sc  Sc64  1  0.89572838  0.29552930  0.69740141  1
  Sc  Sc65  1  0.30296273  0.49883948  0.30200863  1
  Sc  Sc66  1  0.89630252  0.10108889  0.70312889  1
  Sc  Sc67  1  0.70222107  0.09784044  0.69651263  1
  Sc  Sc68  1  0.70259021  0.50472912  0.69628217  1
  Sc  Sc69  1  0.29680182  0.29863943  0.30211146  1
  Sc  Sc70  1  0.69831574  0.09826878  0.88065738  1
  Sc  Sc71  1  0.89074144  0.70212840  0.09753378  1
  Sc  Sc72  1  0.49466035  0.11353396  0.09694393  1
  Sc  Sc73  1  0.29410603  0.49774382  0.09795426  1
  Sc  Sc74  1  0.90040496  0.70638656  0.30100417  1
  Sc  Sc75  1  0.10792712  0.69966795  0.10392479  1
  Sc  Sc76  1  0.49680806  0.70385428  0.50313999  1
  Sc  Sc77  1  0.31636299  0.90781635  0.50050678  1
  Sc  Sc78  1  0.50308370  0.10467907  0.30144949  1
  Sc  Sc79  1  0.70045848  0.70653219  0.08436821  1
  Sc  Sc80  1  0.29472442  0.70213269  0.09813471  1
  Sc  Sc81  1  0.90168047  0.70149816  0.49230281  1
  Sc  Sc82  1  0.90816641  0.90837267  0.69854120  1
  Sc  Sc83  1  0.09375152  0.90171519  0.29988926  1
  Sc  Sc84  1  0.11167972  0.49000850  0.90708194  1
  Sc  Sc85  1  0.70287610  0.91159501  0.50343501  1
  Sc  Sc86  1  0.30452294  0.09259493  0.90080025  1
  Sc  Sc87  1  0.50160636  0.69875504  0.09538406  1
  Sc  Sc88  1  0.70550308  0.90856512  0.30155719  1
  Sc  Sc89  1  0.50015311  0.91496748  0.31137248  1
  Sc  Sc90  1  0.50359881  0.29908556  0.70185522  1
  Sc  Sc91  1  0.10540074  0.70665280  0.89802749  1
  Sc  Sc92  1  0.90054390  0.49653090  0.09262446  1
  Sc  Sc93  1  0.90151766  0.50135771  0.50218694  1
  Sc  Sc94  1  0.69249699  0.90698772  0.70303915  1
  Sc  Sc95  1  0.10686066  0.90005073  0.10945142  1
  Sc  Sc96  1  0.09425434  0.70238350  0.70027697  1
  Sc  Sc97  1  0.50261903  0.09798532  0.71074196  1
  Sc  Sc98  1  0.29720040  0.69619593  0.69473428  1
  Sc  Sc99  1  0.89703327  0.09463536  0.30354059  1
  Nb  Nb100  1  0.69286417  0.49935995  0.49358795  1
  Nb  Nb101  1  0.28905545  0.90450960  0.71177748  1
  Nb  Nb102  1  0.09808617  0.30171169  0.49980376  1
  Nb  Nb103  1  0.49580441  0.89768574  0.69559485  1
  Nb  Nb104  1  0.29825566  0.50010696  0.50187914  1
  Nb  Nb105  1  0.71113139  0.50626986  0.90308393  1
  Nb  Nb106  1  0.50194702  0.49565917  0.50043802  1
  Nb  Nb107  1  0.90039111  0.90079131  0.31490763  1
  Nb  Nb108  1  0.29870959  0.70746155  0.90005290  1
  Nb  Nb109  1  0.50578697  0.10138776  0.89879521  1
  Nb  Nb110  1  0.90423981  0.90055289  0.49229867  1
  Nb  Nb111  1  0.70100510  0.70983580  0.89492845  1
  Nb  Nb112  1  0.30035630  0.10561132  0.49847337  1
  Nb  Nb113  1  0.08621112  0.90073800  0.50398473  1
  Nb  Nb114  1  0.10630964  0.29755444  0.30787855  1
  Nb  Nb115  1  0.09887560  0.10138028  0.10257780  1
  Nb  Nb116  1  0.50143337  0.90195932  0.09891331  1
  Nb  Nb117  1  0.70409348  0.29073614  0.69852103  1
  Nb  Nb118  1  0.89552142  0.50123119  0.90008548  1
  Nb  Nb119  1  0.29449858  0.89166768  0.89333178  1
  Nb  Nb120  1  0.30931418  0.28935601  0.09917582  1
  Nb  Nb121  1  0.69973525  0.70468992  0.69741227  1
  Nb  Nb122  1  0.09717648  0.30158043  0.89642944  1
  Nb  Nb123  1  0.10794736  0.90331079  0.69907381  1
  Nb  Nb124  1  0.69831016  0.89832786  0.90586359  1
  Nb  Nb125  1  0.01296655  0.20009052  0.20623599  1
  Nb  Nb126  1  0.79560942  0.59372190  0.19804838  1
  Nb  Nb127  1  0.19594385  0.20374917  0.79794726  1
  Nb  Nb128  1  0.19675043  0.81135797  0.59757977  1
  Nb  Nb129  1  0.60255744  0.00177390  -0.00144054  1
  Nb  Nb130  1  0.39766478  -0.00181236  0.19346961  1
  Nb  Nb131  1  0.80018619  0.19472297  -0.00338437  1
  Nb  Nb132  1  0.19679342  0.80145677  0.40789032  1
  Nb  Nb133  1  0.19753644  0.39971865  0.59279950  1
  Nb  Nb134  1  0.40144404  0.59091363  0.59908928  1
  Nb  Nb135  1  0.39978312  0.60146496  -0.00856643  1
  Nb  Nb136  1  0.20427316  0.59974662  0.80164521  1
  Nb  Nb137  1  0.80046685  0.80062772  0.60066527  1
  Nb  Nb138  1  0.79218117  0.40365281  0.39958131  1
  Nb  Nb139  1  0.79673260  0.00288527  -0.00060616  1
  Nb  Nb140  1  0.79673321  0.40528100  0.20599240  1
  Nb  Nb141  1  0.59853261  0.80192610  0.39954299  1
  Nb  Nb142  1  0.40629661  0.80846867  0.19742811  1
  Nb  Nb143  1  -0.00115505  0.80393140  -0.00072137  1
  Nb  Nb144  1  -0.00338452  -0.00510478  0.00441142  1
  Nb  Nb145  1  -0.00061767  0.60186423  -0.00498669  1
  Nb  Nb146  1  0.00824263  0.19908289  0.40065241  1
  Nb  Nb147  1  0.39413818  0.80389604  0.79608502  1
  Nb  Nb148  1  0.59390758  0.80437711  0.20463794  1
  Nb  Nb149  1  -0.00090040  0.40158719  0.80356039  1
  Pd  Pd150  1  0.40615170  0.79419736  -0.00333061  1
  Pd  Pd151  1  0.20148233  0.59938027  0.39428160  1
  Pd  Pd152  1  -0.00119294  0.00407749  0.20300266  1
  Pd  Pd153  1  0.79578447  0.80907420  0.78921535  1
  Pd  Pd154  1  0.40675851  0.19329508  0.60161785  1
  Pd  Pd155  1  0.80744586  0.20208036  0.41041856  1
  Pd  Pd156  1  0.79674271  0.40524331  0.59731082  1
  Pd  Pd157  1  -0.00514001  0.39066119  0.20908048  1
  Pd  Pd158  1  0.59648762  0.19768375  0.40516885  1
  Pd  Pd159  1  0.80220993  0.39746621  0.79530603  1
  Pd  Pd160  1  0.61302983  0.59842795  0.79980117  1
  Pd  Pd161  1  0.79951411  0.39324642  0.00426809  1
  Pd  Pd162  1  0.80354491  0.59208913  0.39421775  1
  Pd  Pd163  1  0.39606298  0.39993289  0.59553263  1
  Pd  Pd164  1  0.19991203  -0.01062310  0.41168885  1
  Pd  Pd165  1  0.00071984  0.79555242  0.19816727  1
  Pd  Pd166  1  0.61454019  0.18607297  -0.00121206  1
  Pd  Pd167  1  -0.00056640  0.80159632  0.80079560  1
  Pd  Pd168  1  0.59508189  0.81131113  0.80075457  1
  Pd  Pd169  1  0.59827984  0.60243308  -0.00252171  1
  Pd  Pd170  1  0.40223689  -0.00483001  0.79812642  1
  Pd  Pd171  1  0.40349618  0.80311989  0.38977030  1
  Pd  Pd172  1  0.80175472  0.00208965  0.20253879  1
  Pd  Pd173  1  0.59367867  0.19131473  0.60517740  1
  Pd  Pd174  1  0.20770735  0.39132112  0.19515000  1
  Pd  Pd175  1  0.39415559  0.60815809  0.79984080  1
  Pd  Pd176  1  -0.00956626  0.39257180  0.39305790  1
  Pd  Pd177  1  0.20517987  -0.00706832  0.58935364  1
  Pd  Pd178  1  0.78828992  0.79139088  0.21188813  1
  Pd  Pd179  1  0.60123869  0.39232086  0.39766884  1
  Pd  Pd180  1  0.60600971  0.40218647  0.60790402  1
  Pd  Pd181  1  0.18905772  0.00050521  -0.00489450  1
  Pd  Pd182  1  0.00906499  0.79367536  0.39629094  1
  Pd  Pd183  1  0.20195095  0.60158288  -0.00696045  1
  Pd  Pd184  1  -0.00846960  0.60530341  0.18823780  1
  Pd  Pd185  1  0.60802013  0.39979993  0.79332441  1
  Pd  Pd186  1  0.40713168  0.38792574  0.80749597  1
  Pd  Pd187  1  0.39358462  0.20267911  0.80692838  1
  Pd  Pd188  1  -0.00396767  0.80016550  0.60403245  1
  Pd  Pd189  1  0.78988626  0.80341142  0.40732958  1
  Pd  Pd190  1  0.01209310  0.59310167  0.81429652  1
  Pd  Pd191  1  0.59159371  0.00163641  0.19752962  1
  Pd  Pd192  1  0.40703181  0.00751826  0.00227974  1
  Pd  Pd193  1  0.39903797  0.00473639  0.60997573  1
  Pd  Pd194  1  0.80298561  0.60248206  0.59639037  1
  Pd  Pd195  1  0.39019594  0.79758201  0.60920458  1
  Pd  Pd196  1  -0.00808626  0.60088453  0.59594605  1
  Pd  Pd197  1  0.19977730  0.20209134  -0.00825860  1
  Pd  Pd198  1  0.39064757  0.40088789  0.19629434  1
  Pd  Pd199  1  0.40125667  0.40631095  0.00268278  1
  Rh  Rh200  1  0.20728908  0.39732544  0.40687180  1
  Rh  Rh201  1  0.39842106  0.19556998  0.20203199  1
  Rh  Rh202  1  0.40247337  0.19904194  0.40060005  1
  Rh  Rh203  1  0.20809290  0.59399124  0.60566346  1
  Rh  Rh204  1  0.20636847  -0.00310129  0.19451676  1
  Rh  Rh205  1  0.60320701  0.20320731  0.79392505  1
  Rh  Rh206  1  0.18968921  0.39594621  0.78964000  1
  Rh  Rh207  1  0.19608721  0.01469221  0.80868345  1
  Rh  Rh208  1  0.39559399  0.40008097  0.40419601  1
  Rh  Rh209  1  0.78956584  0.60356173  0.80331095  1
  Rh  Rh210  1  0.80551126  -0.00783637  0.60260940  1
  Rh  Rh211  1  0.59301677  0.59176723  0.59798759  1
  Rh  Rh212  1  0.61180358  0.61759434  0.18650976  1
  Rh  Rh213  1  0.61257428  0.80889945  0.59405316  1
  Rh  Rh214  1  0.60127272  0.39265482  0.20363379  1
  Rh  Rh215  1  0.20412455  0.78756945  0.78698963  1
  Rh  Rh216  1  0.00557702  0.20659976  0.79245271  1
  Rh  Rh217  1  0.39174126  0.60425111  0.18452957  1
  Rh  Rh218  1  0.00218811  0.40834567  0.60744305  1
  Rh  Rh219  1  0.59125440  0.20058047  0.20383880  1
  Rh  Rh220  1  0.79516051  -0.00421300  0.79976260  1
  Rh  Rh221  1  0.58824980  0.60620620  0.41268882  1
  Rh  Rh222  1  0.59430424  -0.00471304  0.80348125  1
  Rh  Rh223  1  0.20551114  0.39158755  0.00692627  1
  Rh  Rh224  1  0.60254438  0.40290099  -0.00207658  1
  Rh  Rh225  1  -0.00277347  -0.00099328  0.60290685  1
  Rh  Rh226  1  0.81111834  0.20703672  0.19352434  1
  Rh  Rh227  1  0.00357764  0.00658309  0.39553695  1
  Rh  Rh228  1  0.79680920  0.20393819  0.80094049  1
  Rh  Rh229  1  0.60500407  0.00025671  0.40358242  1
  Rh  Rh230  1  0.19728659  0.21023580  0.19251078  1
  Rh  Rh231  1  0.20175614  0.20640502  0.59974183  1
  Rh  Rh232  1  0.20572211  0.80003389  0.20670847  1
  Rh  Rh233  1  0.79912422  0.00064057  0.40087753  1
  Rh  Rh234  1  -0.00288624  0.19067153  0.01064488  1
  Rh  Rh235  1  0.80089450  0.19463982  0.60026072  1
  Rh  Rh236  1  0.00133881  0.41058860  -0.00957925  1
  Rh  Rh237  1  -0.00582766  0.19067799  0.59432221  1
  Rh  Rh238  1  0.40389719  0.59030733  0.41103932  1
  Rh  Rh239  1  0.80402862  0.60603968  -0.00390857  1
  Rh  Rh240  1  0.59512630  0.00327214  0.60667538  1
  Rh  Rh241  1  0.00607089  0.00066055  0.80277898  1
  Rh  Rh242  1  0.59424114  0.80661688  -0.00156348  1
  Rh  Rh243  1  0.39602403  0.19575272  -0.00657001  1
  Rh  Rh244  1  0.19801433  0.20342651  0.41054723  1
  Rh  Rh245  1  0.39633006  0.00898317  0.39392806  1
  Rh  Rh246  1  0.00216433  0.60372565  0.39937159  1
  Rh  Rh247  1  0.20407862  0.59242247  0.20093087  1
  Rh  Rh248  1  0.18923543  0.80233421  0.00150502  1
  Rh  Rh249  1  0.80860522  0.80407008  -0.00654831  1
