# generated using pymatgen
data_ZrScNbPdRh
_symmetry_space_group_name_H-M   'P 1'
_cell_length_a   16.56132184
_cell_length_b   16.55269475
_cell_length_c   16.55682817
_cell_angle_alpha   89.98559969
_cell_angle_beta   89.97835939
_cell_angle_gamma   89.98246300
_symmetry_Int_Tables_number   1
_chemical_formula_structural   ZrScNbPdRh
_chemical_formula_sum   'Zr50 Sc50 Nb50 Pd50 Rh50'
_cell_volume   4538.79721608
_cell_formula_units_Z   50
loop_
 _symmetry_equiv_pos_site_id
 _symmetry_equiv_pos_as_xyz
  1  'x, y, z'
loop_
 _atom_site_type_symbol
 _atom_site_label
 _atom_site_symmetry_multiplicity
 _atom_site_fract_x
 _atom_site_fract_y
 _atom_site_fract_z
 _atom_site_occupancy
  Zr  Zr0  1  0.09362413  0.10261009  0.09325573  1
  Zr  Zr1  1  0.50534471  0.10222769  0.50018757  1
  Zr  Zr2  1  0.71392415  0.70577955  0.50168894  1
  Zr  Zr3  1  0.50571904  0.69525801  0.89875667  1
  Zr  Zr4  1  0.09180181  0.88730267  0.10561775  1
  Zr  Zr5  1  0.92102460  0.69587599  0.10305261  1
  Zr  Zr6  1  0.70428559  0.29904689  0.89610427  1
  Zr  Zr7  1  0.30049116  0.90411173  0.10269531  1
  Zr  Zr8  1  0.89276861  0.69497013  0.30657228  1
  Zr  Zr9  1  0.70817271  0.30572724  0.09856769  1
  Zr  Zr10  1  0.51537614  0.89746819  0.89529066  1
  Zr  Zr11  1  0.71144230  0.10296102  0.70078788  1
  Zr  Zr12  1  0.49319161  0.69770844  0.09998007  1
  Zr  Zr13  1  0.69993954  0.10120794  0.09923051  1
  Zr  Zr14  1  0.09611875  0.11242735  0.50001874  1
  Zr  Zr15  1  0.70635101  0.68981870  0.70550915  1
  Zr  Zr16  1  0.70357398  0.90427717  0.70971647  1
  Zr  Zr17  1  0.70139946  0.29083785  0.30187532  1
  Zr  Zr18  1  0.29865919  0.49903678  0.70151023  1
  Zr  Zr19  1  0.10604852  0.90987535  0.49682584  1
  Zr  Zr20  1  0.10602152  0.10219801  0.89949675  1
  Zr  Zr21  1  0.50264176  0.50196934  0.30549122  1
  Zr  Zr22  1  0.29912619  0.09697607  0.09312907  1
  Zr  Zr23  1  0.08943332  0.50214261  0.10508457  1
  Zr  Zr24  1  0.89996484  0.29277186  0.69957399  1
  Zr  Zr25  1  0.90263692  0.49994053  0.30298803  1
  Zr  Zr26  1  0.70483098  0.50622956  0.29569367  1
  Zr  Zr27  1  0.88608018  0.89826326  0.89894081  1
  Zr  Zr28  1  0.29587140  0.29439085  0.89627848  1
  Zr  Zr29  1  0.70853437  0.30758446  0.69543755  1
  Zr  Zr30  1  0.49534218  0.30597364  0.30095880  1
  Zr  Zr31  1  0.89230993  0.49358188  0.11058845  1
  Zr  Zr32  1  0.49850428  0.10115511  0.68930955  1
  Zr  Zr33  1  0.69839636  0.90351524  0.29030389  1
  Zr  Zr34  1  0.08483018  0.09459366  0.30455018  1
  Zr  Zr35  1  0.10290123  0.50614672  0.69682708  1
  Zr  Zr36  1  0.70400739  0.90928457  0.49958084  1
  Zr  Zr37  1  0.30175685  0.69753444  0.90295888  1
  Zr  Zr38  1  0.89351958  0.89908753  0.50545250  1
  Zr  Zr39  1  0.29884493  0.70536741  0.10519176  1
  Zr  Zr40  1  0.49867180  0.49933136  0.49644883  1
  Zr  Zr41  1  0.30970797  0.70590188  0.49671430  1
  Zr  Zr42  1  0.29463811  0.70532222  0.69931375  1
  Zr  Zr43  1  0.49782864  0.49886944  0.09847391  1
  Zr  Zr44  1  0.49677701  0.90213927  0.50830325  1
  Zr  Zr45  1  0.70361811  0.71121786  0.89741393  1
  Zr  Zr46  1  0.10181238  0.49652355  0.49857756  1
  Zr  Zr47  1  0.50048917  0.29861568  0.69670935  1
  Zr  Zr48  1  0.29598663  0.90425442  0.89577870  1
  Zr  Zr49  1  0.29857703  0.10572949  0.70401312  1
  Sc  Sc50  1  0.49774327  0.69218588  0.49443946  1
  Sc  Sc51  1  0.29905703  0.30278917  0.70275017  1
  Sc  Sc52  1  0.30428981  0.49508065  0.10298422  1
  Sc  Sc53  1  0.49209646  0.49515127  0.69259126  1
  Sc  Sc54  1  0.89735022  0.69777165  0.68669443  1
  Sc  Sc55  1  0.29452381  0.30819082  0.29938054  1
  Sc  Sc56  1  0.29318707  0.09976090  0.51024896  1
  Sc  Sc57  1  0.89700704  0.10104717  0.30025453  1
  Sc  Sc58  1  0.49889057  0.69635994  0.29754747  1
  Sc  Sc59  1  0.89199494  0.90496562  0.70082361  1
  Sc  Sc60  1  0.69832699  0.10251671  0.49431564  1
  Sc  Sc61  1  0.90763560  0.10006232  0.10382861  1
  Sc  Sc62  1  0.70491928  0.90565885  0.09328938  1
  Sc  Sc63  1  0.90235506  0.29893227  0.88822386  1
  Sc  Sc64  1  0.50201468  0.29524749  0.09195824  1
  Sc  Sc65  1  0.09304545  0.71107099  0.29341096  1
  Sc  Sc66  1  0.29341966  0.88928067  0.31025968  1
  Sc  Sc67  1  0.09164236  0.48985252  0.30678678  1
  Sc  Sc68  1  0.31011103  0.48987207  0.30238130  1
  Sc  Sc69  1  0.29465687  0.09965734  0.90288927  1
  Sc  Sc70  1  0.89907732  0.91227666  0.29568868  1
  Sc  Sc71  1  0.89963709  0.70019564  0.89979477  1
  Sc  Sc72  1  0.89570730  0.90168835  0.10031402  1
  Sc  Sc73  1  0.90378051  0.50206773  0.89849739  1
  Sc  Sc74  1  0.69973821  0.49119564  0.49910566  1
  Sc  Sc75  1  0.50456096  0.90020955  0.10817540  1
  Sc  Sc76  1  0.49620763  0.70166540  0.70204776  1
  Sc  Sc77  1  0.50975997  0.09791836  0.29755361  1
  Sc  Sc78  1  0.08767837  0.69102580  0.51191143  1
  Sc  Sc79  1  0.29392246  0.30433480  0.09568216  1
  Sc  Sc80  1  0.50107244  0.09964400  0.90712224  1
  Sc  Sc81  1  0.30372581  0.08936484  0.29437596  1
  Sc  Sc82  1  0.10297677  0.29587273  0.89800468  1
  Sc  Sc83  1  0.69309333  0.71102260  0.11702926  1
  Sc  Sc84  1  0.29836241  0.48774747  0.90181227  1
  Sc  Sc85  1  0.10144745  0.91010929  0.89854757  1
  Sc  Sc86  1  0.50700834  0.30113511  0.50232970  1
  Sc  Sc87  1  0.69844195  0.29769273  0.50044633  1
  Sc  Sc88  1  0.09355378  0.69634735  0.90412422  1
  Sc  Sc89  1  0.70543644  0.50467304  0.88887406  1
  Sc  Sc90  1  0.30597277  0.50039229  0.50214983  1
  Sc  Sc91  1  0.49625279  0.09511748  0.09809329  1
  Sc  Sc92  1  0.89885943  0.29599892  0.49505090  1
  Sc  Sc93  1  0.09824648  0.49842017  0.89413336  1
  Sc  Sc94  1  0.89269944  0.49788688  0.70352864  1
  Sc  Sc95  1  0.49291960  0.30041202  0.90167342  1
  Sc  Sc96  1  0.89645110  0.09959411  0.49490577  1
  Sc  Sc97  1  0.90021790  0.29815674  0.29799037  1
  Sc  Sc98  1  0.10247774  0.10727037  0.70453655  1
  Sc  Sc99  1  0.90990235  0.09938988  0.89428471  1
  Nb  Nb100  1  0.50096459  0.90854238  0.30452062  1
  Nb  Nb101  1  0.10116908  0.29470407  0.31153558  1
  Nb  Nb102  1  0.70323030  0.49707057  0.09732896  1
  Nb  Nb103  1  0.10408050  0.29971724  0.49306417  1
  Nb  Nb104  1  0.10050557  0.69681643  0.10036250  1
  Nb  Nb105  1  0.09317259  0.90449295  0.30621149  1
  Nb  Nb106  1  0.30218791  0.89918346  0.50842971  1
  Nb  Nb107  1  0.10832539  0.89588636  0.69837169  1
  Nb  Nb108  1  0.69391342  0.70230641  0.30853883  1
  Nb  Nb109  1  0.09911421  0.70173442  0.70142862  1
  Nb  Nb110  1  0.09398975  0.29284533  0.10407199  1
  Nb  Nb111  1  0.90246460  0.29613358  0.09743075  1
  Nb  Nb112  1  0.69704314  0.49989828  0.69958488  1
  Nb  Nb113  1  0.70537929  0.90952299  0.89954798  1
  Nb  Nb114  1  0.49870613  0.50219142  0.89904868  1
  Nb  Nb115  1  0.29698316  0.69717109  0.30381274  1
  Nb  Nb116  1  0.70280043  0.08986055  0.90186400  1
  Nb  Nb117  1  0.90676575  0.10476003  0.69688444  1
  Nb  Nb118  1  0.49492739  0.90093182  0.69628756  1
  Nb  Nb119  1  0.90313885  0.70097175  0.49849134  1
  Nb  Nb120  1  0.30087954  0.89760835  0.69055509  1
  Nb  Nb121  1  0.09706416  0.30032586  0.69168182  1
  Nb  Nb122  1  0.28375068  0.29833885  0.48861264  1
  Nb  Nb123  1  0.91811401  0.51224743  0.49130623  1
  Nb  Nb124  1  0.70153142  0.09792312  0.30279865  1
  Nb  Nb125  1  0.60405622  0.60078838  0.60226441  1
  Nb  Nb126  1  0.18948944  -0.00270298  0.20172336  1
  Nb  Nb127  1  0.80302826  0.19968281  -0.00165881  1
  Nb  Nb128  1  0.40156121  0.80164950  -0.00234051  1
  Nb  Nb129  1  0.39396352  0.19989543  0.20243998  1
  Nb  Nb130  1  0.60520867  0.40296685  0.19641957  1
  Nb  Nb131  1  -0.00196466  0.39207297  0.00727913  1
  Nb  Nb132  1  0.20171172  0.60469504  0.39357863  1
  Nb  Nb133  1  0.60537883  0.20144371  0.79881942  1
  Nb  Nb134  1  0.19871951  0.60176181  0.20334194  1
  Nb  Nb135  1  0.60311476  0.80349081  0.39985897  1
  Nb  Nb136  1  0.79472122  0.60107845  0.00808679  1
  Nb  Nb137  1  -0.00530832  0.80333229  0.40576036  1
  Nb  Nb138  1  0.19768255  0.60081027  0.00991281  1
  Nb  Nb139  1  0.40118768  -0.00746198  0.79066615  1
  Nb  Nb140  1  0.00357835  0.39791048  0.59609440  1
  Nb  Nb141  1  0.60269098  0.79969043  0.59997911  1
  Nb  Nb142  1  0.00270304  0.00231684  0.60483729  1
  Nb  Nb143  1  0.19392002  0.19757585  0.20197099  1
  Nb  Nb144  1  0.39859740  0.59642380  0.80236302  1
  Nb  Nb145  1  0.00537440  0.80212948  0.78961376  1
  Nb  Nb146  1  0.60666509  0.59689220  0.00172087  1
  Nb  Nb147  1  0.39688280  0.19756161  0.39867639  1
  Nb  Nb148  1  0.40044216  -0.00202267  0.40775559  1
  Nb  Nb149  1  0.59826841  0.40005271  0.79733540  1
  Pd  Pd150  1  0.60362004  0.79972948  0.78962835  1
  Pd  Pd151  1  0.40821920  0.19029721  0.80613090  1
  Pd  Pd152  1  0.19775993  0.80248114  0.20605509  1
  Pd  Pd153  1  0.41030280  0.80482225  0.39519001  1
  Pd  Pd154  1  0.00472311  0.39757676  0.79696198  1
  Pd  Pd155  1  0.20002135  0.39514472  0.59889854  1
  Pd  Pd156  1  0.80013297  0.79002021  0.01282257  1
  Pd  Pd157  1  0.80046288  0.19721929  0.58924071  1
  Pd  Pd158  1  -0.00051127  -0.00541532  0.79181980  1
  Pd  Pd159  1  0.19942511  0.79889947  -0.00571128  1
  Pd  Pd160  1  0.18780051  0.40423844  0.00222543  1
  Pd  Pd161  1  0.39286016  0.38979687  0.59206470  1
  Pd  Pd162  1  0.60597738  0.39789631  0.39441424  1
  Pd  Pd163  1  -0.00388026  -0.00660348  -0.00042060  1
  Pd  Pd164  1  0.40827335  -0.01001217  -0.00989439  1
  Pd  Pd165  1  0.80517518  0.19500619  0.19552445  1
  Pd  Pd166  1  0.79622473  0.59226825  0.40914304  1
  Pd  Pd167  1  0.39769883  0.39524451  -0.00013908  1
  Pd  Pd168  1  0.20830496  0.00656743  0.39716831  1
  Pd  Pd169  1  0.80213185  0.81077963  0.39045379  1
  Pd  Pd170  1  0.20879824  0.18643238  0.38811662  1
  Pd  Pd171  1  0.19501475  0.00686621  0.60707556  1
  Pd  Pd172  1  0.00034609  0.80980298  0.60165870  1
  Pd  Pd173  1  0.59334568  0.01149007  0.79616047  1
  Pd  Pd174  1  0.39022582  0.21058800  0.58770389  1
  Pd  Pd175  1  0.80491165  0.40128558  0.40207955  1
  Pd  Pd176  1  0.19493676  0.79334475  0.58883552  1
  Pd  Pd177  1  0.81402567  0.40728149  0.58950646  1
  Pd  Pd178  1  0.60650401  0.19781209  -0.00693171  1
  Pd  Pd179  1  0.80156296  0.58674997  0.59163760  1
  Pd  Pd180  1  0.20356315  0.59878838  0.80994829  1
  Pd  Pd181  1  0.18671077  0.78961772  0.40984732  1
  Pd  Pd182  1  0.19314240  0.40053831  0.20446275  1
  Pd  Pd183  1  0.20687594  0.60659033  0.58986019  1
  Pd  Pd184  1  0.79799380  0.61070664  0.19428523  1
  Pd  Pd185  1  -0.00626414  0.60853908  0.79353729  1
  Pd  Pd186  1  0.80688265  0.79755549  0.19945101  1
  Pd  Pd187  1  0.60159656  0.40744241  -0.00591423  1
  Pd  Pd188  1  0.60827065  -0.00168164  0.60467683  1
  Pd  Pd189  1  0.59273844  0.20479030  0.19905688  1
  Pd  Pd190  1  0.60087076  0.59551444  0.19520063  1
  Pd  Pd191  1  0.60079285  0.79926236  0.00634813  1
  Pd  Pd192  1  0.19117518  0.79926968  0.80748172  1
  Pd  Pd193  1  -0.00051865  0.80658088  -0.01264661  1
  Pd  Pd194  1  0.39945161  0.80045019  0.80386170  1
  Pd  Pd195  1  0.80975281  0.40102071  -0.01200746  1
  Pd  Pd196  1  0.40240450  0.80745326  0.20636655  1
  Pd  Pd197  1  0.00073186  0.39032929  0.20240980  1
  Pd  Pd198  1  0.39240213  0.59588860  0.20640104  1
  Pd  Pd199  1  0.60119830  0.00340260  0.19350293  1
  Rh  Rh200  1  -0.00944496  -0.00544252  0.41182244  1
  Rh  Rh201  1  0.59995700  -0.00402650  0.00372448  1
  Rh  Rh202  1  0.19997442  0.20705617  0.60456763  1
  Rh  Rh203  1  0.18965771  -0.00647995  0.01209859  1
  Rh  Rh204  1  0.80873675  0.00845204  0.80129295  1
  Rh  Rh205  1  0.80721712  0.60164624  0.80712549  1
  Rh  Rh206  1  0.79602158  0.39433537  0.21004113  1
  Rh  Rh207  1  0.79334607  0.80234519  0.61050323  1
  Rh  Rh208  1  0.19540366  0.20656373  0.79629524  1
  Rh  Rh209  1  0.01023101  0.61233280  0.39319834  1
  Rh  Rh210  1  -0.00648257  0.59070142  0.60907148  1
  Rh  Rh211  1  0.40975835  0.39023858  0.19003605  1
  Rh  Rh212  1  0.20057988  0.20267419  0.00539156  1
  Rh  Rh213  1  0.60800017  0.60675294  0.41034662  1
  Rh  Rh214  1  0.40412220  0.40571750  0.80275980  1
  Rh  Rh215  1  0.80908534  0.79491546  0.79404087  1
  Rh  Rh216  1  0.79827424  0.18990139  0.80925266  1
  Rh  Rh217  1  -0.00640230  0.20428177  0.39909923  1
  Rh  Rh218  1  0.59954662  -0.00267128  0.39905827  1
  Rh  Rh219  1  0.59588226  0.19902959  0.39776756  1
  Rh  Rh220  1  0.79874987  0.00246351  0.39473057  1
  Rh  Rh221  1  0.59958612  0.40617186  0.60481522  1
  Rh  Rh222  1  0.79768664  0.40465923  0.79984710  1
  Rh  Rh223  1  0.40631823  0.79358430  0.60062370  1
  Rh  Rh224  1  0.79789391  0.00799778  0.19752567  1
  Rh  Rh225  1  0.39652310  -0.00340601  0.20965100  1
  Rh  Rh226  1  0.39635685  0.38892237  0.41181325  1
  Rh  Rh227  1  0.39302374  0.59721557  0.39377816  1
  Rh  Rh228  1  -0.01018719  0.80503934  0.21223127  1
  Rh  Rh229  1  0.58940893  0.58769768  0.79445002  1
  Rh  Rh230  1  -0.00658313  0.20796004  -0.00947264  1
  Rh  Rh231  1  0.20826652  -0.00175562  0.79063103  1
  Rh  Rh232  1  -0.00201048  0.58894151  0.00002911  1
  Rh  Rh233  1  0.20173725  0.41126673  0.39732320  1
  Rh  Rh234  1  0.00287873  0.20434496  0.20908474  1
  Rh  Rh235  1  0.00716201  0.20176301  0.79892477  1
  Rh  Rh236  1  0.80586982  0.00886649  0.60210495  1
  Rh  Rh237  1  0.61050655  0.20204207  0.60643625  1
  Rh  Rh238  1  0.80634062  0.01086781  0.00024587  1
  Rh  Rh239  1  0.39122200  0.00254201  0.60025519  1
  Rh  Rh240  1  0.59240320  0.80199931  0.21239233  1
  Rh  Rh241  1  -0.00409449  0.39074705  0.40713179  1
  Rh  Rh242  1  0.40289605  0.60536757  0.60973546  1
  Rh  Rh243  1  0.00573464  0.59964417  0.21243624  1
  Rh  Rh244  1  0.00191908  -0.00344333  0.19485769  1
  Rh  Rh245  1  0.39853848  0.60154119  -0.00657372  1
  Rh  Rh246  1  0.19471440  0.39593692  0.79552123  1
  Rh  Rh247  1  0.00018132  0.20209647  0.59714544  1
  Rh  Rh248  1  0.79750357  0.19656072  0.39808909  1
  Rh  Rh249  1  0.39357438  0.20173164  0.00525423  1
