# generated using pymatgen
data_ZrScNbPdRh
_symmetry_space_group_name_H-M   'P 1'
_cell_length_a   16.55419587
_cell_length_b   16.55604347
_cell_length_c   16.55428504
_cell_angle_alpha   90.01188324
_cell_angle_beta   89.97016111
_cell_angle_gamma   89.96675758
_symmetry_Int_Tables_number   1
_chemical_formula_structural   ZrScNbPdRh
_chemical_formula_sum   'Zr50 Sc50 Nb50 Pd50 Rh50'
_cell_volume   4537.06430806
_cell_formula_units_Z   50
loop_
 _symmetry_equiv_pos_site_id
 _symmetry_equiv_pos_as_xyz
  1  'x, y, z'
loop_
 _atom_site_type_symbol
 _atom_site_label
 _atom_site_symmetry_multiplicity
 _atom_site_fract_x
 _atom_site_fract_y
 _atom_site_fract_z
 _atom_site_occupancy
  Zr  Zr0  1  0.09894967  0.50312703  0.29954858  1
  Zr  Zr1  1  0.49050265  0.90565912  0.50784969  1
  Zr  Zr2  1  0.10399365  0.69936110  0.30060693  1
  Zr  Zr3  1  0.30048088  0.51076572  0.70053346  1
  Zr  Zr4  1  0.10019947  0.89400909  0.29955555  1
  Zr  Zr5  1  0.70204856  0.70498562  0.49965061  1
  Zr  Zr6  1  0.69621277  0.89776452  0.50205579  1
  Zr  Zr7  1  0.30455630  0.49911239  0.09454511  1
  Zr  Zr8  1  0.70380116  0.29868022  0.09558204  1
  Zr  Zr9  1  0.69663413  0.69729153  0.89812107  1
  Zr  Zr10  1  0.49553339  0.29911900  0.09993448  1
  Zr  Zr11  1  0.10189515  0.10095413  0.50315976  1
  Zr  Zr12  1  0.49196575  0.09861042  0.30324251  1
  Zr  Zr13  1  0.50337511  0.70032296  0.50357183  1
  Zr  Zr14  1  0.68171856  0.50773278  0.49479113  1
  Zr  Zr15  1  0.89501995  0.09909232  0.70357588  1
  Zr  Zr16  1  0.50397131  0.29714356  0.30119667  1
  Zr  Zr17  1  0.90303732  0.70473276  0.69115177  1
  Zr  Zr18  1  0.10002374  0.30118301  0.51335873  1
  Zr  Zr19  1  0.90316392  0.70678561  0.31103514  1
  Zr  Zr20  1  0.89355119  0.30967427  0.30210251  1
  Zr  Zr21  1  0.90579800  0.48921682  0.89711251  1
  Zr  Zr22  1  0.90732495  0.09508908  0.10072129  1
  Zr  Zr23  1  0.50206294  0.08409872  0.10372313  1
  Zr  Zr24  1  0.10167949  0.09490792  0.09905156  1
  Zr  Zr25  1  0.49365365  0.30271581  0.69644097  1
  Zr  Zr26  1  0.89525059  0.29787576  0.09165014  1
  Zr  Zr27  1  0.10134000  0.10493197  0.70028939  1
  Zr  Zr28  1  0.30869760  0.90535523  0.70959579  1
  Zr  Zr29  1  0.30443281  0.30167204  0.09374520  1
  Zr  Zr30  1  0.10302914  0.89783827  0.71003558  1
  Zr  Zr31  1  0.50394759  0.89873778  0.70426001  1
  Zr  Zr32  1  0.29497955  0.09373393  0.89876037  1
  Zr  Zr33  1  0.09615660  0.50297013  0.89327827  1
  Zr  Zr34  1  0.69706872  0.09714003  0.09673597  1
  Zr  Zr35  1  0.11157488  0.70311680  0.10379300  1
  Zr  Zr36  1  0.69529998  0.69896665  0.09980645  1
  Zr  Zr37  1  0.50142787  0.29824022  0.90161170  1
  Zr  Zr38  1  0.69750300  0.30673738  0.70284209  1
  Zr  Zr39  1  0.29449051  0.29802526  0.69859216  1
  Zr  Zr40  1  0.70079478  0.29759637  0.48945552  1
  Zr  Zr41  1  0.29832611  0.30296860  0.50866989  1
  Zr  Zr42  1  0.50009403  0.70350344  0.28914167  1
  Zr  Zr43  1  0.69484377  0.49454100  0.89144840  1
  Zr  Zr44  1  0.70305283  0.29989416  0.29978417  1
  Zr  Zr45  1  0.29839058  0.29620976  0.89883287  1
  Zr  Zr46  1  0.89289873  0.70568084  0.09574491  1
  Zr  Zr47  1  0.89820305  0.09999433  0.90735486  1
  Zr  Zr48  1  0.90157297  0.49723898  0.29960278  1
  Zr  Zr49  1  0.70466148  0.10069440  0.70267417  1
  Sc  Sc50  1  0.69867233  0.09741389  0.90110861  1
  Sc  Sc51  1  0.30230519  0.90024215  0.31452967  1
  Sc  Sc52  1  0.29264318  0.69982459  0.29298975  1
  Sc  Sc53  1  0.30149250  0.69977124  0.70702385  1
  Sc  Sc54  1  0.89423859  0.89511362  0.49259582  1
  Sc  Sc55  1  0.89777218  0.09341017  0.50694808  1
  Sc  Sc56  1  0.49102853  0.30776660  0.49611465  1
  Sc  Sc57  1  0.30916032  0.70128940  0.10137425  1
  Sc  Sc58  1  0.70347342  0.90569220  0.30160208  1
  Sc  Sc59  1  0.89795664  0.30106267  0.69880211  1
  Sc  Sc60  1  0.89057380  0.09107862  0.29924596  1
  Sc  Sc61  1  0.70154019  0.49140940  0.30185164  1
  Sc  Sc62  1  0.49859831  0.90321355  0.89795288  1
  Sc  Sc63  1  0.09104986  0.70015056  0.49561935  1
  Sc  Sc64  1  0.10948395  0.29988334  0.09850854  1
  Sc  Sc65  1  0.69809138  0.89563208  0.10803032  1
  Sc  Sc66  1  0.69533991  0.89551585  0.70549166  1
  Sc  Sc67  1  0.10574108  0.09820179  0.90910198  1
  Sc  Sc68  1  0.09945953  0.49444911  0.09547320  1
  Sc  Sc69  1  0.30217204  0.10593497  0.09900662  1
  Sc  Sc70  1  0.30810936  0.70504863  0.89370848  1
  Sc  Sc71  1  0.50948028  0.49452576  0.30106818  1
  Sc  Sc72  1  0.09419125  0.49769777  0.70037314  1
  Sc  Sc73  1  0.30179602  0.49894514  0.50843591  1
  Sc  Sc74  1  0.29987176  0.10445901  0.70736989  1
  Sc  Sc75  1  0.70101272  0.50060457  0.09937060  1
  Sc  Sc76  1  0.89532500  0.89611005  0.69799388  1
  Sc  Sc77  1  0.30381441  0.69823607  0.50573064  1
  Sc  Sc78  1  0.10189587  0.50174360  0.50483052  1
  Sc  Sc79  1  0.30945163  0.09315995  0.49402263  1
  Sc  Sc80  1  0.09990856  0.30118912  0.69954147  1
  Sc  Sc81  1  0.50881968  0.09386521  0.90775242  1
  Sc  Sc82  1  0.30528794  0.89728471  0.09312767  1
  Sc  Sc83  1  0.90850259  0.50421827  0.49446699  1
  Sc  Sc84  1  0.49606312  0.08965043  0.70220583  1
  Sc  Sc85  1  0.70241657  0.09366231  0.48943645  1
  Sc  Sc86  1  0.90106394  0.49296778  0.08974879  1
  Sc  Sc87  1  0.09807394  0.90495790  0.48797770  1
  Sc  Sc88  1  0.10268977  0.90248147  0.10113103  1
  Sc  Sc89  1  0.50253934  0.51595776  0.89395617  1
  Sc  Sc90  1  0.09849797  0.30579571  0.89807641  1
  Sc  Sc91  1  0.29544554  0.50573808  0.29484090  1
  Sc  Sc92  1  0.30934324  0.29529916  0.28544301  1
  Sc  Sc93  1  0.09861511  0.09076235  0.30458841  1
  Sc  Sc94  1  0.69926624  0.69914872  0.30379227  1
  Sc  Sc95  1  0.11283393  0.90344944  0.90544408  1
  Sc  Sc96  1  0.89665189  0.69679424  0.89930717  1
  Sc  Sc97  1  0.49592096  0.90489891  0.29034873  1
  Sc  Sc98  1  0.09848948  0.69947083  0.70650369  1
  Sc  Sc99  1  0.50028532  0.70094206  0.70804071  1
  Nb  Nb100  1  0.50513794  0.10282134  0.49884014  1
  Nb  Nb101  1  0.89154608  0.29706007  0.90237318  1
  Nb  Nb102  1  0.50239352  0.70267110  0.90371699  1
  Nb  Nb103  1  0.69323074  0.49952419  0.69896758  1
  Nb  Nb104  1  0.69080397  0.10278282  0.30031729  1
  Nb  Nb105  1  0.50291293  0.89258968  0.10059389  1
  Nb  Nb106  1  0.30168755  0.09608033  0.29785503  1
  Nb  Nb107  1  0.50174831  0.70161539  0.09665595  1
  Nb  Nb108  1  0.29834742  0.50477615  0.89253611  1
  Nb  Nb109  1  0.49426169  0.50503966  0.50190691  1
  Nb  Nb110  1  0.09774705  0.30018936  0.30061317  1
  Nb  Nb111  1  0.89685623  0.30711251  0.49806204  1
  Nb  Nb112  1  0.29978252  0.90008584  0.50617019  1
  Nb  Nb113  1  0.70001988  0.89495295  0.90258486  1
  Nb  Nb114  1  0.90343953  0.90097063  0.10347941  1
  Nb  Nb115  1  0.30005636  0.90062610  0.89436549  1
  Nb  Nb116  1  0.89364081  0.70427095  0.49900153  1
  Nb  Nb117  1  0.70170334  0.29853685  0.89994950  1
  Nb  Nb118  1  0.89705753  0.89640813  0.90564868  1
  Nb  Nb119  1  0.50304704  0.50849266  0.09463770  1
  Nb  Nb120  1  0.10201098  0.70138350  0.90107300  1
  Nb  Nb121  1  0.69959477  0.70256464  0.69900024  1
  Nb  Nb122  1  0.90420284  0.90002681  0.29234295  1
  Nb  Nb123  1  0.50520492  0.49717071  0.69744943  1
  Nb  Nb124  1  0.89797091  0.49985456  0.69671833  1
  Nb  Nb125  1  -0.00118343  0.80225903  -0.00065669  1
  Nb  Nb126  1  0.19834232  0.20359496  0.39622270  1
  Nb  Nb127  1  0.59364924  0.80217047  0.40144431  1
  Nb  Nb128  1  0.79620932  0.41018712  0.59760819  1
  Nb  Nb129  1  0.20558488  0.00046152  0.20554224  1
  Nb  Nb130  1  0.59634914  0.40247657  -0.00159408  1
  Nb  Nb131  1  0.59544002  0.79748896  0.00141422  1
  Nb  Nb132  1  0.19837794  0.39124972  0.39674074  1
  Nb  Nb133  1  0.59814574  0.19755831  0.59760828  1
  Nb  Nb134  1  0.80804751  0.60112288  0.20110731  1
  Nb  Nb135  1  0.60110187  0.19547715  0.20193206  1
  Nb  Nb136  1  -0.00346541  0.60368757  0.19861603  1
  Nb  Nb137  1  0.20404506  -0.00547172  0.60037365  1
  Nb  Nb138  1  0.40582455  0.59943966  0.40069346  1
  Nb  Nb139  1  -0.00378159  0.00067649  0.80564261  1
  Nb  Nb140  1  0.20298353  0.59970130  -0.00924399  1
  Nb  Nb141  1  0.79765463  0.59463054  0.78758719  1
  Nb  Nb142  1  0.20169404  0.80846543  0.60094756  1
  Nb  Nb143  1  0.39854136  0.40674661  0.79958733  1
  Nb  Nb144  1  0.60259393  0.20367971  0.79530029  1
  Nb  Nb145  1  -0.00759226  0.19633179  0.80530193  1
  Nb  Nb146  1  0.79688607  0.59862408  0.60196228  1
  Nb  Nb147  1  -0.00068360  0.20719555  0.39998752  1
  Nb  Nb148  1  0.80291337  -0.00970139  0.00280476  1
  Nb  Nb149  1  0.00059174  0.20352651  0.20742852  1
  Pd  Pd150  1  0.60382949  0.00739004  0.60235204  1
  Pd  Pd151  1  0.20277863  0.40265422  0.79420864  1
  Pd  Pd152  1  0.80892866  0.19000818  0.40124763  1
  Pd  Pd153  1  0.40855981  0.19534793  0.80409020  1
  Pd  Pd154  1  0.40221296  0.19121752  0.59709682  1
  Pd  Pd155  1  0.00364904  -0.01002088  0.60661892  1
  Pd  Pd156  1  0.20907456  0.59555821  0.40965836  1
  Pd  Pd157  1  0.19405266  0.61084766  0.60118693  1
  Pd  Pd158  1  -0.00111376  0.39758403  0.18905342  1
  Pd  Pd159  1  0.80015669  -0.00728869  0.80720216  1
  Pd  Pd160  1  0.60042358  0.39261491  0.58912250  1
  Pd  Pd161  1  0.60846673  0.59573598  0.20420926  1
  Pd  Pd162  1  -0.01129287  0.20326906  0.60101531  1
  Pd  Pd163  1  0.40347268  0.40965650  0.20285205  1
  Pd  Pd164  1  0.79807163  0.59100858  -0.00385593  1
  Pd  Pd165  1  0.80125745  0.19538665  0.20159374  1
  Pd  Pd166  1  0.20369701  0.79563202  -0.00411167  1
  Pd  Pd167  1  0.00157333  0.80533640  0.81133161  1
  Pd  Pd168  1  0.40250758  0.79354658  0.39781678  1
  Pd  Pd169  1  0.79528462  -0.00065752  0.19699375  1
  Pd  Pd170  1  0.00833621  0.80816262  0.59236693  1
  Pd  Pd171  1  0.39265987  0.20339580  0.40211384  1
  Pd  Pd172  1  0.19435198  0.19215180  0.20578820  1
  Pd  Pd173  1  0.40407385  0.59453672  0.20451909  1
  Pd  Pd174  1  -0.00138065  0.60080090  0.59737165  1
  Pd  Pd175  1  0.39010115  0.40879302  0.39270436  1
  Pd  Pd176  1  0.20313392  0.40078233  0.20346510  1
  Pd  Pd177  1  0.39266196  0.80638902  0.20107308  1
  Pd  Pd178  1  0.20329561  0.79354382  0.40938778  1
  Pd  Pd179  1  0.40852456  0.41151266  -0.01279391  1
  Pd  Pd180  1  0.39482339  0.60470077  -0.00470601  1
  Pd  Pd181  1  0.79553221  -0.00832933  0.60007136  1
  Pd  Pd182  1  0.80490716  0.40079075  0.79477301  1
  Pd  Pd183  1  0.80129513  0.79351558  0.79828536  1
  Pd  Pd184  1  -0.00892215  0.00411887  0.39751354  1
  Pd  Pd185  1  0.40301668  0.18822866  -0.00088232  1
  Pd  Pd186  1  0.00196311  0.79574309  0.19387912  1
  Pd  Pd187  1  0.19903436  0.40539729  -0.00603801  1
  Pd  Pd188  1  -0.00706431  0.60326276  0.79745328  1
  Pd  Pd189  1  0.00885388  0.20737451  0.00013900  1
  Pd  Pd190  1  0.79627340  0.20627340  0.59350267  1
  Pd  Pd191  1  0.80087284  0.59495868  0.40137090  1
  Pd  Pd192  1  0.60090673  0.39687926  0.19075318  1
  Pd  Pd193  1  0.59822159  0.60713620  0.60880990  1
  Pd  Pd194  1  0.59300253  -0.00858627  0.39583606  1
  Pd  Pd195  1  0.00730380  0.60839726  0.00589283  1
  Pd  Pd196  1  0.39587014  0.79475345  0.60914605  1
  Pd  Pd197  1  0.79613602  0.79723282  0.20748068  1
  Pd  Pd198  1  0.39775661  -0.00385920  -0.00154867  1
  Pd  Pd199  1  0.00916485  0.39880381  0.40767652  1
  Rh  Rh200  1  0.59843654  0.79878326  0.80835919  1
  Rh  Rh201  1  0.40470943  0.80268158  0.80452887  1
  Rh  Rh202  1  0.20993195  -0.00142883  0.00982471  1
  Rh  Rh203  1  -0.00267065  -0.01239984  -0.00540158  1
  Rh  Rh204  1  0.60868111  -0.01732933  0.00062866  1
  Rh  Rh205  1  0.00107440  0.60274129  0.39812869  1
  Rh  Rh206  1  0.79864069  0.20370490  0.80528803  1
  Rh  Rh207  1  0.60071734  0.80187521  0.20125342  1
  Rh  Rh208  1  0.00249747  0.39083245  -0.00123048  1
  Rh  Rh209  1  0.20065654  0.20272980  -0.00249222  1
  Rh  Rh210  1  0.59506925  0.39672727  0.40455638  1
  Rh  Rh211  1  0.20604643  0.00641657  0.40119634  1
  Rh  Rh212  1  0.58910817  0.60838953  0.39139762  1
  Rh  Rh213  1  0.19650910  0.59145195  0.18522293  1
  Rh  Rh214  1  0.59562309  0.19994851  0.40090641  1
  Rh  Rh215  1  0.39608535  0.00622914  0.60243405  1
  Rh  Rh216  1  0.40596978  0.60210646  0.60091757  1
  Rh  Rh217  1  0.79543682  0.41224900  0.41265384  1
  Rh  Rh218  1  -0.00220543  0.80403960  0.40363877  1
  Rh  Rh219  1  0.20978145  0.81371721  0.20195106  1
  Rh  Rh220  1  0.21357172  0.18607429  0.59244117  1
  Rh  Rh221  1  0.40691156  0.59839958  0.79674815  1
  Rh  Rh222  1  0.20423180  0.79692754  0.79923964  1
  Rh  Rh223  1  0.59911232  0.60069767  0.00115531  1
  Rh  Rh224  1  0.79718332  0.80721777  0.00227230  1
  Rh  Rh225  1  0.79738800  0.79989058  0.60245393  1
  Rh  Rh226  1  0.80269263  0.40752061  0.19278716  1
  Rh  Rh227  1  0.19513930  0.60621664  0.80480671  1
  Rh  Rh228  1  0.40743940  0.80137091  -0.00612676  1
  Rh  Rh229  1  0.19881737  0.40836615  0.60265942  1
  Rh  Rh230  1  0.40333249  -0.00211072  0.40250004  1
  Rh  Rh231  1  0.60367674  0.00370419  0.80231606  1
  Rh  Rh232  1  0.39752414  0.40968063  0.61032168  1
  Rh  Rh233  1  0.60094735  0.00139988  0.20538215  1
  Rh  Rh234  1  0.58915162  0.39600637  0.80682769  1
  Rh  Rh235  1  0.00702727  0.00242573  0.20478305  1
  Rh  Rh236  1  0.60191183  0.60689014  0.79351300  1
  Rh  Rh237  1  0.60301040  0.20836040  -0.00031082  1
  Rh  Rh238  1  0.19545742  0.00414257  0.79665022  1
  Rh  Rh239  1  0.40748939  0.19280656  0.19448580  1
  Rh  Rh240  1  0.79510191  0.80831246  0.39493868  1
  Rh  Rh241  1  0.80146712  -0.00337913  0.39653852  1
  Rh  Rh242  1  0.59832486  0.80004617  0.59935017  1
  Rh  Rh243  1  -0.00745523  0.40099712  0.60082113  1
  Rh  Rh244  1  0.38996946  -0.00518334  0.19808713  1
  Rh  Rh245  1  0.79391867  0.19015775  -0.00262104  1
  Rh  Rh246  1  0.18792068  0.20024019  0.80657570  1
  Rh  Rh247  1  -0.00591484  0.38910928  0.79706950  1
  Rh  Rh248  1  0.40418183  0.00418544  0.80825453  1
  Rh  Rh249  1  0.79175173  0.40326694  -0.00391643  1
