# generated using pymatgen
data_ZrScNbPdRh
_symmetry_space_group_name_H-M   'P 1'
_cell_length_a   16.56047844
_cell_length_b   16.55891492
_cell_length_c   16.56003665
_cell_angle_alpha   89.96470178
_cell_angle_beta   89.98861913
_cell_angle_gamma   89.98978002
_symmetry_Int_Tables_number   1
_chemical_formula_structural   ZrScNbPdRh
_chemical_formula_sum   'Zr50 Sc50 Nb50 Pd50 Rh50'
_cell_volume   4541.15107278
_cell_formula_units_Z   50
loop_
 _symmetry_equiv_pos_site_id
 _symmetry_equiv_pos_as_xyz
  1  'x, y, z'
loop_
 _atom_site_type_symbol
 _atom_site_label
 _atom_site_symmetry_multiplicity
 _atom_site_fract_x
 _atom_site_fract_y
 _atom_site_fract_z
 _atom_site_occupancy
  Zr  Zr0  1  0.29623483  0.29991673  0.09959399  1
  Zr  Zr1  1  0.30506924  0.89739119  0.89833565  1
  Zr  Zr2  1  0.09914323  0.70044322  0.90054767  1
  Zr  Zr3  1  0.09388987  0.08715751  0.10205468  1
  Zr  Zr4  1  0.10648749  0.10392822  0.90092274  1
  Zr  Zr5  1  0.30159996  0.10156973  0.50456458  1
  Zr  Zr6  1  0.50147536  0.89988713  0.09788241  1
  Zr  Zr7  1  0.10088933  0.90303129  0.30154840  1
  Zr  Zr8  1  0.90608944  0.70170321  0.10094426  1
  Zr  Zr9  1  0.89512134  0.50270342  0.09708380  1
  Zr  Zr10  1  0.29363563  0.09875761  0.31331373  1
  Zr  Zr11  1  0.70166307  0.69914305  0.49610326  1
  Zr  Zr12  1  0.29799633  0.29268945  0.49466323  1
  Zr  Zr13  1  0.69873415  0.50038417  0.10104283  1
  Zr  Zr14  1  0.69447676  0.10244846  0.49669538  1
  Zr  Zr15  1  0.29836252  0.51063208  0.90341462  1
  Zr  Zr16  1  0.89223728  0.29784884  0.49520516  1
  Zr  Zr17  1  0.49955879  0.50044974  0.29229948  1
  Zr  Zr18  1  0.10098165  0.50315484  0.70083955  1
  Zr  Zr19  1  0.29098529  0.89933787  0.50048339  1
  Zr  Zr20  1  0.30262457  0.70030410  0.09727760  1
  Zr  Zr21  1  0.50081623  0.29830025  0.11237483  1
  Zr  Zr22  1  0.49483038  0.69584828  0.10265184  1
  Zr  Zr23  1  0.70878045  0.70542837  0.88278093  1
  Zr  Zr24  1  0.90349000  0.30077717  0.09797464  1
  Zr  Zr25  1  0.10093762  0.90117698  0.90104360  1
  Zr  Zr26  1  0.50123495  0.29306632  0.69444785  1
  Zr  Zr27  1  0.69711882  0.49250142  0.49462760  1
  Zr  Zr28  1  0.30576656  0.70446179  0.49698980  1
  Zr  Zr29  1  0.50172778  0.09741294  0.88524175  1
  Zr  Zr30  1  0.50323809  0.49922458  0.49729160  1
  Zr  Zr31  1  0.70619017  0.49298536  0.90031645  1
  Zr  Zr32  1  0.49872558  0.50307309  0.68789797  1
  Zr  Zr33  1  0.50560711  0.10845336  0.30346273  1
  Zr  Zr34  1  0.89711686  0.10152482  0.10451000  1
  Zr  Zr35  1  0.29563722  0.70176475  0.90082336  1
  Zr  Zr36  1  0.48839887  0.70587287  0.90199068  1
  Zr  Zr37  1  0.09215439  0.70748201  0.49568972  1
  Zr  Zr38  1  0.51205371  0.09370533  0.10639400  1
  Zr  Zr39  1  0.90253555  0.50118214  0.48673689  1
  Zr  Zr40  1  0.90465286  0.69750334  0.89778785  1
  Zr  Zr41  1  0.90209378  0.09429368  0.29932235  1
  Zr  Zr42  1  0.29939839  0.09637605  0.89084538  1
  Zr  Zr43  1  0.69862533  0.30179647  0.50493772  1
  Zr  Zr44  1  0.70221815  0.09127951  0.89974466  1
  Zr  Zr45  1  0.30371640  0.69849426  0.70725245  1
  Zr  Zr46  1  0.29319962  0.90358769  0.70297254  1
  Zr  Zr47  1  0.09964902  0.29636628  0.09691415  1
  Zr  Zr48  1  0.69778195  0.30126269  0.31480025  1
  Zr  Zr49  1  0.89271606  0.10273534  0.90005242  1
  Sc  Sc50  1  0.49278184  0.69998434  0.30286457  1
  Sc  Sc51  1  0.88987312  0.30415498  0.89773862  1
  Sc  Sc52  1  0.50573983  0.90425484  0.89533819  1
  Sc  Sc53  1  0.28776942  0.10380331  0.10139293  1
  Sc  Sc54  1  0.10138592  0.30802181  0.90348185  1
  Sc  Sc55  1  0.30495595  0.50109375  0.69471979  1
  Sc  Sc56  1  0.10005405  0.70651171  0.70980691  1
  Sc  Sc57  1  0.30431315  0.89247481  0.30364217  1
  Sc  Sc58  1  0.10219491  0.30517645  0.71001902  1
  Sc  Sc59  1  0.89413386  0.29953668  0.70479938  1
  Sc  Sc60  1  0.50416866  0.50264375  0.10528183  1
  Sc  Sc61  1  0.70413355  0.09263721  0.30057748  1
  Sc  Sc62  1  0.69681197  0.09531792  0.70170742  1
  Sc  Sc63  1  0.89731118  0.90246682  0.69206706  1
  Sc  Sc64  1  0.09640830  0.09663668  0.30026844  1
  Sc  Sc65  1  0.29379848  0.29821403  0.89965051  1
  Sc  Sc66  1  0.08361734  0.49419185  0.09804088  1
  Sc  Sc67  1  0.70258884  0.29898259  0.69863948  1
  Sc  Sc68  1  0.09668770  0.50135613  0.89692227  1
  Sc  Sc69  1  0.49979538  0.30003467  0.88512046  1
  Sc  Sc70  1  0.29713732  0.49867310  0.49666571  1
  Sc  Sc71  1  0.30004929  0.28614550  0.29888305  1
  Sc  Sc72  1  0.50254569  0.69272847  0.50294416  1
  Sc  Sc73  1  0.88984653  0.90020189  0.30211006  1
  Sc  Sc74  1  0.71204726  0.69049364  0.11426667  1
  Sc  Sc75  1  0.89867901  0.50212418  0.71227840  1
  Sc  Sc76  1  0.50480385  0.49362115  0.89642517  1
  Sc  Sc77  1  0.89350717  0.70178198  0.71145282  1
  Sc  Sc78  1  0.90533206  0.90438879  0.10130524  1
  Sc  Sc79  1  0.49574077  0.90668898  0.29270497  1
  Sc  Sc80  1  0.70620666  0.30203411  0.09548514  1
  Sc  Sc81  1  0.88956964  0.70210706  0.30181316  1
  Sc  Sc82  1  0.89252300  0.10507658  0.70622960  1
  Sc  Sc83  1  0.09343251  0.70462021  0.29847238  1
  Sc  Sc84  1  0.30246551  0.70269259  0.29892865  1
  Sc  Sc85  1  0.50588376  0.29023479  0.49934966  1
  Sc  Sc86  1  0.30697056  0.30155557  0.69814277  1
  Sc  Sc87  1  0.70661390  0.90742929  0.50447177  1
  Sc  Sc88  1  0.70351764  0.91449521  0.10216900  1
  Sc  Sc89  1  0.69813167  0.50971661  0.30087399  1
  Sc  Sc90  1  0.70064536  0.49487066  0.69433537  1
  Sc  Sc91  1  0.90303862  0.28900344  0.30232304  1
  Sc  Sc92  1  0.30252645  0.89733427  0.11175942  1
  Sc  Sc93  1  0.70742658  0.09870310  0.09768765  1
  Sc  Sc94  1  0.09891282  0.29259087  0.30750141  1
  Sc  Sc95  1  0.89674200  0.09219197  0.49450422  1
  Sc  Sc96  1  0.70011033  0.89521755  0.70437321  1
  Sc  Sc97  1  0.10044877  0.08477024  0.49399231  1
  Sc  Sc98  1  0.89872791  0.89997663  0.89584686  1
  Sc  Sc99  1  0.30905272  0.50826467  0.10095537  1
  Nb  Nb100  1  0.50151875  0.90455076  0.50238143  1
  Nb  Nb101  1  0.50680498  0.70050288  0.69430028  1
  Nb  Nb102  1  0.09797299  0.89147847  0.10342529  1
  Nb  Nb103  1  0.69684150  0.69754116  0.69453370  1
  Nb  Nb104  1  0.90749522  0.49854540  0.29751310  1
  Nb  Nb105  1  0.69952616  0.29815955  0.90097092  1
  Nb  Nb106  1  0.09195928  0.89951776  0.50864880  1
  Nb  Nb107  1  0.90928153  0.89487885  0.49958727  1
  Nb  Nb108  1  0.29437741  0.50011738  0.30074442  1
  Nb  Nb109  1  0.89667300  0.50299352  0.90188940  1
  Nb  Nb110  1  0.29970602  0.09865665  0.70135905  1
  Nb  Nb111  1  0.49199513  0.09690823  0.69365546  1
  Nb  Nb112  1  0.70303965  0.71236370  0.30009896  1
  Nb  Nb113  1  0.10019941  0.30268638  0.50614523  1
  Nb  Nb114  1  0.70163447  0.90290993  0.90240607  1
  Nb  Nb115  1  0.09873050  0.50153623  0.49457931  1
  Nb  Nb116  1  0.50503625  0.90750678  0.69290163  1
  Nb  Nb117  1  0.70497869  0.89388145  0.30070842  1
  Nb  Nb118  1  0.10121641  0.90864280  0.68858758  1
  Nb  Nb119  1  0.89932445  0.70216061  0.50021423  1
  Nb  Nb120  1  0.09805164  0.70946915  0.10356530  1
  Nb  Nb121  1  0.50294960  0.09685150  0.50949351  1
  Nb  Nb122  1  0.49761570  0.29867023  0.30090335  1
  Nb  Nb123  1  0.10488449  0.09900783  0.70063354  1
  Nb  Nb124  1  0.09890230  0.50337784  0.31099389  1
  Nb  Nb125  1  0.80612431  0.40347232  0.20538657  1
  Nb  Nb126  1  0.40165343  0.39255125  0.00302775  1
  Nb  Nb127  1  0.59984747  0.60645730  0.79513233  1
  Nb  Nb128  1  0.80388181  0.60343697  0.59424656  1
  Nb  Nb129  1  0.19161438  0.60235072  0.59348963  1
  Nb  Nb130  1  0.60529085  0.60948192  -0.00805819  1
  Nb  Nb131  1  0.19446963  0.19619426  0.60260157  1
  Nb  Nb132  1  0.61093039  0.79636210  0.00234685  1
  Nb  Nb133  1  0.59752837  0.20082351  -0.00496544  1
  Nb  Nb134  1  0.40804708  0.80360198  0.60372414  1
  Nb  Nb135  1  0.40632032  0.19752634  -0.00009722  1
  Nb  Nb136  1  0.00290917  0.40174208  0.59452634  1
  Nb  Nb137  1  0.60619619  0.80063757  0.20106431  1
  Nb  Nb138  1  -0.00202514  0.19754647  -0.00046836  1
  Nb  Nb139  1  0.19619155  0.40848529  0.20739296  1
  Nb  Nb140  1  -0.00189042  0.59935672  0.59439885  1
  Nb  Nb141  1  0.79558703  0.80026463  -0.00115829  1
  Nb  Nb142  1  0.19484084  0.80032239  0.00592468  1
  Nb  Nb143  1  0.40169373  0.39604321  0.39060746  1
  Nb  Nb144  1  0.00700559  0.20302900  0.60028113  1
  Nb  Nb145  1  0.19233913  0.59460016  0.20350991  1
  Nb  Nb146  1  0.00749097  0.00430470  0.79366308  1
  Nb  Nb147  1  0.40551596  0.00420238  0.40945923  1
  Nb  Nb148  1  0.40166723  0.00753841  0.00030846  1
  Nb  Nb149  1  0.60272467  0.80552795  0.39645397  1
  Pd  Pd150  1  0.18742395  0.60053159  0.01364744  1
  Pd  Pd151  1  0.00330124  0.19207545  0.41050690  1
  Pd  Pd152  1  0.20252427  0.79110013  0.60500464  1
  Pd  Pd153  1  0.59846475  0.60897512  0.39186298  1
  Pd  Pd154  1  0.39769373  0.59151447  0.39878918  1
  Pd  Pd155  1  -0.00514819  0.39892424  0.80024629  1
  Pd  Pd156  1  0.20984737  -0.01021249  0.00720742  1
  Pd  Pd157  1  0.19117430  0.20045461  0.20308858  1
  Pd  Pd158  1  0.00442959  0.59885034  -0.00109463  1
  Pd  Pd159  1  0.39461219  -0.00586121  0.59939879  1
  Pd  Pd160  1  0.81173014  0.40860416  0.60336270  1
  Pd  Pd161  1  0.80178578  0.79641948  0.59951262  1
  Pd  Pd162  1  0.20512609  0.41267946  0.00953849  1
  Pd  Pd163  1  0.00142664  0.60326291  0.20546267  1
  Pd  Pd164  1  0.00228800  0.39410667  0.21041014  1
  Pd  Pd165  1  0.19593831  0.79932920  0.39584384  1
  Pd  Pd166  1  0.59494175  0.80138481  0.80164180  1
  Pd  Pd167  1  0.40261709  0.39388484  0.58609466  1
  Pd  Pd168  1  0.59691477  -0.00597776  0.39539640  1
  Pd  Pd169  1  -0.00685856  0.80345113  0.39065825  1
  Pd  Pd170  1  0.20365848  -0.00483560  0.20436815  1
  Pd  Pd171  1  0.60668814  0.19801467  0.79748573  1
  Pd  Pd172  1  -0.00837154  0.01239987  0.60515929  1
  Pd  Pd173  1  0.19981918  0.61026298  0.39916715  1
  Pd  Pd174  1  -0.00512737  0.79191672  0.61088773  1
  Pd  Pd175  1  0.40926335  0.59472457  0.79992807  1
  Pd  Pd176  1  0.80098723  0.00426975  0.60048916  1
  Pd  Pd177  1  0.61557347  0.20165808  0.19690149  1
  Pd  Pd178  1  0.79481475  0.60842176  -0.00403254  1
  Pd  Pd179  1  0.38985053  0.40037905  0.20149721  1
  Pd  Pd180  1  -0.00674062  0.00173071  -0.00764324  1
  Pd  Pd181  1  0.79375976  0.20716700  0.20672102  1
  Pd  Pd182  1  0.41070615  0.80821042  0.78910711  1
  Pd  Pd183  1  0.59962476  0.80408189  0.59044354  1
  Pd  Pd184  1  0.39241142  0.00985901  0.20320466  1
  Pd  Pd185  1  0.20940560  0.40521519  0.79845028  1
  Pd  Pd186  1  -0.01029958  0.80603084  0.20890257  1
  Pd  Pd187  1  -0.00113643  0.81235150  0.79224365  1
  Pd  Pd188  1  0.61169405  0.39580890  0.20593191  1
  Pd  Pd189  1  0.80391723  0.19449834  0.59945877  1
  Pd  Pd190  1  0.39361525  0.40312326  0.80607863  1
  Pd  Pd191  1  0.20465974  0.39239495  0.39382336  1
  Pd  Pd192  1  0.00012987  0.39116352  0.39878141  1
  Pd  Pd193  1  0.59187909  0.39543900  0.00113328  1
  Pd  Pd194  1  0.79995253  0.59909628  0.39677048  1
  Pd  Pd195  1  0.60326070  0.40371880  0.79008839  1
  Pd  Pd196  1  0.20442176  0.20734050  0.79399952  1
  Pd  Pd197  1  -0.00049699  0.19896684  0.80100735  1
  Pd  Pd198  1  0.39546884  0.18938055  0.19719831  1
  Pd  Pd199  1  0.19839522  0.40120363  0.60151953  1
  Rh  Rh200  1  0.80676667  0.59254536  0.21003296  1
  Rh  Rh201  1  -0.00386244  0.60833573  0.39779950  1
  Rh  Rh202  1  0.00478743  0.19687482  0.19336121  1
  Rh  Rh203  1  -0.00193829  -0.00944131  0.39876201  1
  Rh  Rh204  1  0.19959073  0.00626267  0.59824047  1
  Rh  Rh205  1  0.40649650  0.79595970  0.20110525  1
  Rh  Rh206  1  0.19360161  -0.00509779  0.79712313  1
  Rh  Rh207  1  0.39062426  0.60925757  0.59821670  1
  Rh  Rh208  1  0.80655696  -0.00768714  -0.00003147  1
  Rh  Rh209  1  -0.00188569  0.80098813  0.00108842  1
  Rh  Rh210  1  0.79902430  0.80632136  0.18711166  1
  Rh  Rh211  1  -0.00201222  -0.00717770  0.20589722  1
  Rh  Rh212  1  0.79620614  0.20143616  -0.00545223  1
  Rh  Rh213  1  0.60260308  0.19504557  0.60438276  1
  Rh  Rh214  1  0.79712268  0.19270825  0.40000582  1
  Rh  Rh215  1  0.00070756  0.59751741  0.80031151  1
  Rh  Rh216  1  0.39619877  0.19940410  0.60336812  1
  Rh  Rh217  1  -0.00902894  0.39603533  -0.01144918  1
  Rh  Rh218  1  0.60770941  -0.00475768  0.20888001  1
  Rh  Rh219  1  0.39415671  0.20001200  0.79682290  1
  Rh  Rh220  1  0.18904949  0.19697895  0.40856237  1
  Rh  Rh221  1  0.20270445  0.79246404  0.19858397  1
  Rh  Rh222  1  0.60574489  0.00231438  0.60494752  1
  Rh  Rh223  1  0.59988688  0.19861473  0.40286513  1
  Rh  Rh224  1  0.79895884  0.80705893  0.41282315  1
  Rh  Rh225  1  0.80215009  -0.00479964  0.40462359  1
  Rh  Rh226  1  0.40969114  0.19742395  0.40380559  1
  Rh  Rh227  1  0.80503547  -0.00486605  0.79692685  1
  Rh  Rh228  1  0.59897081  0.61153461  0.20136252  1
  Rh  Rh229  1  0.60176969  -0.00379568  0.79193654  1
  Rh  Rh230  1  0.19613135  0.19955663  -0.00126292  1
  Rh  Rh231  1  0.80243591  -0.00121324  0.20088607  1
  Rh  Rh232  1  0.20086343  0.59638281  0.79213065  1
  Rh  Rh233  1  0.58873148  0.39869833  0.39608857  1
  Rh  Rh234  1  0.80415964  0.80968277  0.80000328  1
  Rh  Rh235  1  0.61044411  0.59425157  0.60220779  1
  Rh  Rh236  1  0.40299658  -0.00368473  0.79647074  1
  Rh  Rh237  1  0.19444054  0.80661374  0.80346296  1
  Rh  Rh238  1  0.80347623  0.39848884  0.00383869  1
  Rh  Rh239  1  0.20027587  -0.00732524  0.40159879  1
  Rh  Rh240  1  0.41167993  0.81172369  0.40862984  1
  Rh  Rh241  1  0.59533042  0.00259772  -0.00478658  1
  Rh  Rh242  1  0.79162040  0.59152274  0.79133927  1
  Rh  Rh243  1  0.39600041  0.81283528  0.00492230  1
  Rh  Rh244  1  0.41518796  0.58548063  -0.00624141  1
  Rh  Rh245  1  0.39133201  0.60205886  0.20595518  1
  Rh  Rh246  1  0.78994469  0.20225496  0.80149129  1
  Rh  Rh247  1  0.59651958  0.39501612  0.60064905  1
  Rh  Rh248  1  0.79740996  0.39999912  0.80083363  1
  Rh  Rh249  1  0.80611778  0.40327738  0.38805640  1
