# generated using pymatgen
data_ZrScNbPdRh
_symmetry_space_group_name_H-M   'P 1'
_cell_length_a   16.56251618
_cell_length_b   16.56110144
_cell_length_c   16.56407447
_cell_angle_alpha   89.97263218
_cell_angle_beta   90.01610447
_cell_angle_gamma   89.97844250
_symmetry_Int_Tables_number   1
_chemical_formula_structural   ZrScNbPdRh
_chemical_formula_sum   'Zr50 Sc50 Nb50 Pd50 Rh50'
_cell_volume   4543.41711409
_cell_formula_units_Z   50
loop_
 _symmetry_equiv_pos_site_id
 _symmetry_equiv_pos_as_xyz
  1  'x, y, z'
loop_
 _atom_site_type_symbol
 _atom_site_label
 _atom_site_symmetry_multiplicity
 _atom_site_fract_x
 _atom_site_fract_y
 _atom_site_fract_z
 _atom_site_occupancy
  Zr  Zr0  1  0.49868901  0.69235349  0.49737543  1
  Zr  Zr1  1  0.09525596  0.30239166  0.89591284  1
  Zr  Zr2  1  0.50295142  0.90919726  0.70302439  1
  Zr  Zr3  1  0.69679259  0.10402025  0.69795704  1
  Zr  Zr4  1  0.49621621  0.69307651  0.09706236  1
  Zr  Zr5  1  0.49903875  0.10005730  0.50167127  1
  Zr  Zr6  1  0.49438115  0.30371382  0.29752915  1
  Zr  Zr7  1  0.30167137  0.90106970  0.29527280  1
  Zr  Zr8  1  0.10059724  0.10830070  0.50312379  1
  Zr  Zr9  1  0.50013759  0.29993466  0.50383033  1
  Zr  Zr10  1  0.10243527  0.49493473  0.09986083  1
  Zr  Zr11  1  0.49399048  0.29655481  0.91041809  1
  Zr  Zr12  1  0.69111494  0.50302313  0.09482804  1
  Zr  Zr13  1  0.30259943  0.69929186  0.09966127  1
  Zr  Zr14  1  0.09849821  0.29508269  0.10090126  1
  Zr  Zr15  1  0.30281303  0.89978563  0.49775375  1
  Zr  Zr16  1  0.49701400  0.49596483  0.10035272  1
  Zr  Zr17  1  0.09472108  0.90812893  0.90279889  1
  Zr  Zr18  1  0.69519700  0.10748473  0.50262692  1
  Zr  Zr19  1  0.30454440  0.49496210  0.70235873  1
  Zr  Zr20  1  0.89345119  0.69900322  0.29807342  1
  Zr  Zr21  1  0.50485389  0.89062732  0.09114855  1
  Zr  Zr22  1  0.09558663  0.70047407  0.29608632  1
  Zr  Zr23  1  0.70597987  0.29660749  0.69808388  1
  Zr  Zr24  1  0.29628321  0.70511693  0.90949506  1
  Zr  Zr25  1  0.90206390  0.10135877  0.90421022  1
  Zr  Zr26  1  0.49722732  0.89435234  0.30153679  1
  Zr  Zr27  1  0.50803551  0.49739625  0.49082130  1
  Zr  Zr28  1  0.70054678  0.10614561  0.09945667  1
  Zr  Zr29  1  0.29089751  0.49592310  0.90154348  1
  Zr  Zr30  1  0.90361925  0.90003070  0.29343414  1
  Zr  Zr31  1  0.90072435  0.50094221  0.30008794  1
  Zr  Zr32  1  0.89878803  0.70322872  0.89132451  1
  Zr  Zr33  1  0.70297002  0.10508455  0.30515379  1
  Zr  Zr34  1  0.90208680  0.30344044  0.70927797  1
  Zr  Zr35  1  0.09362966  0.69428739  0.50180611  1
  Zr  Zr36  1  0.10439732  0.10718730  0.70441273  1
  Zr  Zr37  1  0.30240449  0.50005943  0.09850389  1
  Zr  Zr38  1  0.69958894  0.50177937  0.30298117  1
  Zr  Zr39  1  0.69499480  0.90302667  0.69957793  1
  Zr  Zr40  1  0.30371167  0.10179476  0.30019993  1
  Zr  Zr41  1  0.10468142  0.49016434  0.30197994  1
  Zr  Zr42  1  0.90422937  0.90121130  0.90241327  1
  Zr  Zr43  1  0.68945669  0.89742438  0.89916892  1
  Zr  Zr44  1  0.10363039  0.29952835  0.49791285  1
  Zr  Zr45  1  0.49834386  0.12172353  0.09551406  1
  Zr  Zr46  1  0.09578560  0.29642848  0.29921846  1
  Zr  Zr47  1  0.90538956  0.89232395  0.70739407  1
  Zr  Zr48  1  0.90368428  0.90229846  0.50095716  1
  Zr  Zr49  1  0.29480772  0.10661005  0.09960864  1
  Sc  Sc50  1  0.49672131  0.10439526  0.30904961  1
  Sc  Sc51  1  0.29620770  0.10881270  0.70576507  1
  Sc  Sc52  1  0.51421427  0.50070841  0.90603309  1
  Sc  Sc53  1  0.90622245  0.50120662  0.10160013  1
  Sc  Sc54  1  0.90079359  0.68896405  0.50167288  1
  Sc  Sc55  1  0.70047018  0.49610971  0.70600834  1
  Sc  Sc56  1  0.90399644  0.90223979  0.09752533  1
  Sc  Sc57  1  0.30795987  0.49279183  0.30048663  1
  Sc  Sc58  1  0.70635936  0.68795501  0.49151814  1
  Sc  Sc59  1  0.68774754  0.68896892  0.88900124  1
  Sc  Sc60  1  0.89583139  0.49982776  0.50227047  1
  Sc  Sc61  1  0.49933330  0.49772683  0.68847763  1
  Sc  Sc62  1  0.69801246  0.30501863  0.88980017  1
  Sc  Sc63  1  0.09676223  0.71301898  0.90562558  1
  Sc  Sc64  1  0.69685661  0.69744507  0.11040021  1
  Sc  Sc65  1  0.69961185  0.88550974  0.29710813  1
  Sc  Sc66  1  0.70537441  0.68528302  0.70519580  1
  Sc  Sc67  1  0.09444522  0.49067397  0.90867962  1
  Sc  Sc68  1  0.71137155  0.30010334  0.30418461  1
  Sc  Sc69  1  0.50369316  0.69561721  0.29455828  1
  Sc  Sc70  1  0.30997862  0.70747483  0.29254098  1
  Sc  Sc71  1  0.31322515  0.49958123  0.50139140  1
  Sc  Sc72  1  0.50100541  0.69027303  0.69556189  1
  Sc  Sc73  1  0.69884865  0.10415857  0.90196336  1
  Sc  Sc74  1  0.69244885  0.90194898  0.49559239  1
  Sc  Sc75  1  0.90398268  0.70238516  0.10563683  1
  Sc  Sc76  1  0.10478025  0.89954471  0.70372186  1
  Sc  Sc77  1  0.88904029  0.49657945  0.69727965  1
  Sc  Sc78  1  0.28868648  0.90531953  0.89700233  1
  Sc  Sc79  1  0.49814135  0.89821201  0.49320565  1
  Sc  Sc80  1  0.50064526  0.10383481  0.70471463  1
  Sc  Sc81  1  0.30880483  0.70380657  0.50689594  1
  Sc  Sc82  1  0.29618172  0.89078848  0.10175352  1
  Sc  Sc83  1  0.89959875  0.29941499  0.50114381  1
  Sc  Sc84  1  0.09264371  0.49521696  0.49320060  1
  Sc  Sc85  1  0.90087421  0.11172578  0.70129349  1
  Sc  Sc86  1  0.29797235  0.30216903  0.30679343  1
  Sc  Sc87  1  0.69966979  0.89602130  0.09922922  1
  Sc  Sc88  1  0.09805462  0.90413358  0.10646261  1
  Sc  Sc89  1  0.09917159  0.70861642  0.09793372  1
  Sc  Sc90  1  0.70226932  0.49230577  0.50084310  1
  Sc  Sc91  1  0.90889749  0.10738503  0.49849132  1
  Sc  Sc92  1  0.09914761  0.90829251  0.51160004  1
  Sc  Sc93  1  0.90300267  0.10256738  0.09615024  1
  Sc  Sc94  1  0.70268809  0.69488208  0.29499896  1
  Sc  Sc95  1  0.30015161  0.30199098  0.89190141  1
  Sc  Sc96  1  0.49246071  0.30055458  0.70452289  1
  Sc  Sc97  1  0.29058323  0.10222940  0.89490924  1
  Sc  Sc98  1  0.91247471  0.10723318  0.30170075  1
  Sc  Sc99  1  0.09491087  0.48868297  0.70471966  1
  Nb  Nb100  1  0.90047891  0.29768187  0.29509224  1
  Nb  Nb101  1  0.90038868  0.49540943  0.89925923  1
  Nb  Nb102  1  0.70412757  0.50057820  0.89991011  1
  Nb  Nb103  1  0.29702342  0.70141841  0.70230509  1
  Nb  Nb104  1  0.89285610  0.29895551  0.09996114  1
  Nb  Nb105  1  0.50445691  0.49699424  0.29997428  1
  Nb  Nb106  1  0.10395267  0.09880733  0.90794141  1
  Nb  Nb107  1  0.32436093  0.30046339  0.09660926  1
  Nb  Nb108  1  0.29744957  0.29114041  0.50526399  1
  Nb  Nb109  1  0.90064639  0.30688068  0.90382716  1
  Nb  Nb110  1  0.10414013  0.29749620  0.69861557  1
  Nb  Nb111  1  0.10245403  0.90502054  0.29599983  1
  Nb  Nb112  1  0.69938877  0.29709879  0.50009123  1
  Nb  Nb113  1  0.90231882  0.69698532  0.69952233  1
  Nb  Nb114  1  0.50082153  0.30479128  0.09824372  1
  Nb  Nb115  1  0.69941743  0.30025656  0.10369987  1
  Nb  Nb116  1  0.29559329  0.30354596  0.70248428  1
  Nb  Nb117  1  0.49306293  0.70642231  0.90009202  1
  Nb  Nb118  1  0.49679682  0.89838431  0.89815313  1
  Nb  Nb119  1  0.29979394  0.89607367  0.69593103  1
  Nb  Nb120  1  0.49099358  0.09733464  0.90069927  1
  Nb  Nb121  1  0.30119156  0.10303579  0.49730288  1
  Nb  Nb122  1  0.09857696  0.69625043  0.69905592  1
  Nb  Nb123  1  0.10214431  0.09671747  0.28588723  1
  Nb  Nb124  1  0.10214084  0.10246309  0.10949279  1
  Nb  Nb125  1  -0.00020973  0.60209017  0.79792680  1
  Nb  Nb126  1  0.60520733  0.79565635  0.59959275  1
  Nb  Nb127  1  0.79998289  0.40089000  -0.00064178  1
  Nb  Nb128  1  0.39286851  0.00049798  0.60109240  1
  Nb  Nb129  1  0.00434284  0.80436805  0.39763287  1
  Nb  Nb130  1  0.80049486  0.59727381  -0.00647274  1
  Nb  Nb131  1  0.79804398  0.79242876  -0.00678858  1
  Nb  Nb132  1  0.20181841  0.60424116  0.39943825  1
  Nb  Nb133  1  0.19956114  0.59678587  0.60405030  1
  Nb  Nb134  1  0.40386693  0.00144554  -0.00242284  1
  Nb  Nb135  1  0.20370330  0.39579184  0.60136240  1
  Nb  Nb136  1  0.20084105  0.59740671  0.20299940  1
  Nb  Nb137  1  0.80041934  -0.00217819  0.60032904  1
  Nb  Nb138  1  0.19602173  0.00233409  0.39620420  1
  Nb  Nb139  1  0.79598751  0.00354444  0.20433301  1
  Nb  Nb140  1  0.80226120  0.00194318  0.39988478  1
  Nb  Nb141  1  0.59921467  0.39594632  0.19780572  1
  Nb  Nb142  1  0.19357996  0.80251119  0.39873857  1
  Nb  Nb143  1  0.40771854  0.00326025  0.19012070  1
  Nb  Nb144  1  0.79943048  -0.00043831  0.79788039  1
  Nb  Nb145  1  0.39792274  0.80084768  0.79891388  1
  Nb  Nb146  1  0.39431859  0.60604312  0.80478443  1
  Nb  Nb147  1  0.19593848  0.60354947  0.79714340  1
  Nb  Nb148  1  0.59781974  0.00467351  0.19796672  1
  Nb  Nb149  1  0.79884907  0.79978172  0.60335757  1
  Pd  Pd150  1  -0.00998803  0.39423794  0.40085743  1
  Pd  Pd151  1  0.00579768  0.59677560  0.19938960  1
  Pd  Pd152  1  0.40374218  0.59181620  -0.00917777  1
  Pd  Pd153  1  -0.00160217  0.60416482  -0.00629979  1
  Pd  Pd154  1  0.79470484  0.21100688  -0.00725927  1
  Pd  Pd155  1  0.21069575  0.39527074  0.19462769  1
  Pd  Pd156  1  0.39517952  0.60388869  0.39169096  1
  Pd  Pd157  1  -0.00428852  0.39519397  0.19622537  1
  Pd  Pd158  1  -0.00533919  0.00801970  0.61145082  1
  Pd  Pd159  1  0.00234857  0.19948495  0.00250447  1
  Pd  Pd160  1  0.79126528  0.80174133  0.79968228  1
  Pd  Pd161  1  0.79642660  0.40610030  0.19319715  1
  Pd  Pd162  1  0.20957039  0.21263277  0.20100379  1
  Pd  Pd163  1  0.20397835  0.20917296  -0.00328904  1
  Pd  Pd164  1  0.00426014  0.00039380  0.39737939  1
  Pd  Pd165  1  0.60447606  0.39543004  0.60455292  1
  Pd  Pd166  1  0.60328091  0.01088004  0.80761136  1
  Pd  Pd167  1  0.60506689  -0.00214319  0.39216852  1
  Pd  Pd168  1  0.00205415  0.39837782  0.60123284  1
  Pd  Pd169  1  0.39843605  0.19498078  0.60743760  1
  Pd  Pd170  1  0.80639600  0.19867910  0.59546888  1
  Pd  Pd171  1  0.59415177  0.00577230  0.00304312  1
  Pd  Pd172  1  0.60193644  0.78857929  0.40385426  1
  Pd  Pd173  1  0.00181998  0.19836297  0.80562422  1
  Pd  Pd174  1  0.60766048  0.20757039  -0.00837193  1
  Pd  Pd175  1  0.60020505  0.20476754  0.20848477  1
  Pd  Pd176  1  0.60991818  0.59970675  0.59724946  1
  Pd  Pd177  1  0.39704249  0.39484607  0.40568729  1
  Pd  Pd178  1  0.41253487  0.80408900  0.60647237  1
  Pd  Pd179  1  -0.00151190  0.00844390  0.79588424  1
  Pd  Pd180  1  0.19577067  0.79405564  0.59339169  1
  Pd  Pd181  1  0.18706944  0.60357067  0.00045782  1
  Pd  Pd182  1  0.19643626  0.19434638  0.39354904  1
  Pd  Pd183  1  0.20595966  0.38528402  0.00606028  1
  Pd  Pd184  1  0.00215522  0.58582467  0.60835823  1
  Pd  Pd185  1  0.59784779  0.20928248  0.39616866  1
  Pd  Pd186  1  0.59394854  0.40220783  0.79640463  1
  Pd  Pd187  1  0.59359587  0.20123798  0.80337827  1
  Pd  Pd188  1  0.20228127  -0.00252030  0.00915248  1
  Pd  Pd189  1  0.19803189  0.79985844  0.80163620  1
  Pd  Pd190  1  0.20665912  0.00697834  0.60155447  1
  Pd  Pd191  1  0.59155656  0.79080917  0.78961627  1
  Pd  Pd192  1  0.80568901  0.80235094  0.40810639  1
  Pd  Pd193  1  0.60873664  0.78658152  -0.00061088  1
  Pd  Pd194  1  -0.00280369  0.79804719  0.59800039  1
  Pd  Pd195  1  0.41123251  0.40885225  0.80797095  1
  Pd  Pd196  1  0.80752929  0.19327501  0.20211418  1
  Pd  Pd197  1  0.79689246  -0.00829132  0.00063423  1
  Pd  Pd198  1  0.38904942  -0.00258547  0.79912642  1
  Pd  Pd199  1  0.80385091  0.39739380  0.40435641  1
  Rh  Rh200  1  0.20822400  0.00125454  0.19975962  1
  Rh  Rh201  1  -0.00529449  0.20161284  0.19577390  1
  Rh  Rh202  1  0.59475712  0.59247263  0.20289664  1
  Rh  Rh203  1  0.39567360  0.39221192  0.59365656  1
  Rh  Rh204  1  0.80753010  0.19885387  0.40392730  1
  Rh  Rh205  1  -0.00600721  0.80404719  0.00401799  1
  Rh  Rh206  1  0.00336047  0.20484079  0.39626860  1
  Rh  Rh207  1  0.60878447  0.39044440  0.00346404  1
  Rh  Rh208  1  0.39190718  0.81312313  -0.00896384  1
  Rh  Rh209  1  0.40250655  0.40110070  0.20162632  1
  Rh  Rh210  1  0.39813995  0.20182474  0.80208625  1
  Rh  Rh211  1  0.01020973  0.79487995  0.79712341  1
  Rh  Rh212  1  0.19568507  0.20516842  0.80546325  1
  Rh  Rh213  1  0.79522414  0.39499656  0.59877989  1
  Rh  Rh214  1  0.79808102  0.60117984  0.60109300  1
  Rh  Rh215  1  0.80456111  0.19624229  0.80845237  1
  Rh  Rh216  1  0.20911680  0.40770257  0.41642053  1
  Rh  Rh217  1  0.59566030  0.20865102  0.60563516  1
  Rh  Rh218  1  0.19309229  0.40063972  0.79624657  1
  Rh  Rh219  1  0.60491896  0.39454364  0.39344367  1
  Rh  Rh220  1  0.39362326  0.00316403  0.40286100  1
  Rh  Rh221  1  0.39833031  0.79247378  0.39789773  1
  Rh  Rh222  1  0.60152988  0.60780902  -0.00197616  1
  Rh  Rh223  1  -0.00267113  0.60133872  0.39488243  1
  Rh  Rh224  1  0.39856514  0.20070997  0.20524254  1
  Rh  Rh225  1  0.01068279  0.00897375  0.00878669  1
  Rh  Rh226  1  0.59551970  0.80038069  0.19966273  1
  Rh  Rh227  1  -0.00725959  0.39360935  0.00862530  1
  Rh  Rh228  1  0.80204574  0.59546058  0.19311088  1
  Rh  Rh229  1  0.00097479  0.20691538  0.60272519  1
  Rh  Rh230  1  0.40906025  0.80379958  0.19485331  1
  Rh  Rh231  1  0.80271960  0.59275408  0.39783166  1
  Rh  Rh232  1  0.20282887  0.20361552  0.60290060  1
  Rh  Rh233  1  0.19731156  0.00151633  0.79451668  1
  Rh  Rh234  1  0.00116683  0.80309649  0.20201798  1
  Rh  Rh235  1  -0.00165015  0.40432094  0.79843468  1
  Rh  Rh236  1  0.38886722  0.19459787  -0.01142941  1
  Rh  Rh237  1  0.60255028  0.59880883  0.39774388  1
  Rh  Rh238  1  0.80921722  0.59243084  0.80335796  1
  Rh  Rh239  1  0.59305910  -0.00499994  0.59105809  1
  Rh  Rh240  1  0.39482368  0.59837481  0.60694481  1
  Rh  Rh241  1  0.39890243  0.40536735  -0.00771304  1
  Rh  Rh242  1  -0.00508153  0.00619637  0.19516223  1
  Rh  Rh243  1  0.40047525  0.20709169  0.40315180  1
  Rh  Rh244  1  0.80214596  0.80568764  0.18739545  1
  Rh  Rh245  1  0.58644786  0.59404606  0.79947957  1
  Rh  Rh246  1  0.19535660  0.80935437  0.00348031  1
  Rh  Rh247  1  0.80172964  0.39973536  0.80403548  1
  Rh  Rh248  1  0.39724247  0.59439376  0.20352455  1
  Rh  Rh249  1  0.19623251  0.79286846  0.20198909  1
