# generated using pymatgen
data_ZrScNbPdRh
_symmetry_space_group_name_H-M   'P 1'
_cell_length_a   16.55892315
_cell_length_b   16.55206840
_cell_length_c   16.55591947
_cell_angle_alpha   89.98380874
_cell_angle_beta   90.00782319
_cell_angle_gamma   89.98220428
_symmetry_Int_Tables_number   1
_chemical_formula_structural   ZrScNbPdRh
_chemical_formula_sum   'Zr50 Sc50 Nb50 Pd50 Rh50'
_cell_volume   4537.71928507
_cell_formula_units_Z   50
loop_
 _symmetry_equiv_pos_site_id
 _symmetry_equiv_pos_as_xyz
  1  'x, y, z'
loop_
 _atom_site_type_symbol
 _atom_site_label
 _atom_site_symmetry_multiplicity
 _atom_site_fract_x
 _atom_site_fract_y
 _atom_site_fract_z
 _atom_site_occupancy
  Zr  Zr0  1  0.90066368  0.30485737  0.49854534  1
  Zr  Zr1  1  0.90129517  0.29222279  0.70146273  1
  Zr  Zr2  1  0.50464084  0.69337130  0.69752744  1
  Zr  Zr3  1  0.69205614  0.50584879  0.69763298  1
  Zr  Zr4  1  0.89777511  0.29909767  0.90578681  1
  Zr  Zr5  1  0.69578632  0.89892952  0.50040965  1
  Zr  Zr6  1  0.30317359  0.50563911  0.30882584  1
  Zr  Zr7  1  0.69864693  0.29738222  0.69696021  1
  Zr  Zr8  1  0.29328101  0.30732929  0.30726898  1
  Zr  Zr9  1  0.70879412  0.70508768  0.11076608  1
  Zr  Zr10  1  0.50463238  0.10300805  0.69475007  1
  Zr  Zr11  1  0.09538095  0.71175611  0.50428685  1
  Zr  Zr12  1  0.30930854  0.69531524  0.10340517  1
  Zr  Zr13  1  0.50536094  0.10567700  0.29636949  1
  Zr  Zr14  1  0.49627268  0.70692395  0.49809752  1
  Zr  Zr15  1  0.29865551  0.90021535  0.70217588  1
  Zr  Zr16  1  0.30827480  0.70315073  0.30043043  1
  Zr  Zr17  1  0.50413563  0.50519694  0.09312582  1
  Zr  Zr18  1  0.29695291  0.30542276  0.50246216  1
  Zr  Zr19  1  0.30223622  0.28822589  0.89443362  1
  Zr  Zr20  1  0.69482713  0.09521946  0.11109710  1
  Zr  Zr21  1  0.10420572  0.29897166  0.50130871  1
  Zr  Zr22  1  0.09728032  0.10012414  0.30798481  1
  Zr  Zr23  1  0.70920512  0.50726630  0.50818759  1
  Zr  Zr24  1  0.49992788  0.09779706  0.10000882  1
  Zr  Zr25  1  0.70216114  0.90054669  0.10371639  1
  Zr  Zr26  1  0.29276271  0.49754546  0.10370268  1
  Zr  Zr27  1  0.70503452  0.09835866  0.89766102  1
  Zr  Zr28  1  0.89369817  0.10060305  0.70210351  1
  Zr  Zr29  1  0.50760692  0.09954880  0.49749944  1
  Zr  Zr30  1  0.30757717  0.70487147  0.69176496  1
  Zr  Zr31  1  0.29976787  0.49483009  0.50328237  1
  Zr  Zr32  1  0.30238723  0.69725557  0.49735440  1
  Zr  Zr33  1  0.89636119  0.69686933  0.29392004  1
  Zr  Zr34  1  0.09049079  0.49455078  0.50153933  1
  Zr  Zr35  1  0.50186346  0.90972517  0.09355460  1
  Zr  Zr36  1  0.50278273  0.29215894  0.10544059  1
  Zr  Zr37  1  0.09803932  0.30505689  0.10468010  1
  Zr  Zr38  1  0.70192300  0.30614671  0.90693456  1
  Zr  Zr39  1  0.09098228  0.69134890  0.89328553  1
  Zr  Zr40  1  0.89472136  0.90139396  0.88900855  1
  Zr  Zr41  1  0.89336941  0.69554866  0.49342072  1
  Zr  Zr42  1  0.30544836  0.10013900  0.09354547  1
  Zr  Zr43  1  0.29670490  0.10494002  0.50159328  1
  Zr  Zr44  1  0.90381277  0.29580708  0.29388614  1
  Zr  Zr45  1  0.09943327  0.29664759  0.90438871  1
  Zr  Zr46  1  0.10563276  0.90788945  0.89381042  1
  Zr  Zr47  1  0.70170639  0.71332732  0.30517976  1
  Zr  Zr48  1  0.50911274  0.30773644  0.30387276  1
  Zr  Zr49  1  0.30438137  0.90151459  0.89742500  1
  Sc  Sc50  1  0.91215677  0.50226022  0.90263220  1
  Sc  Sc51  1  0.49977994  0.49449058  0.69292786  1
  Sc  Sc52  1  0.89449666  0.11110925  0.10882054  1
  Sc  Sc53  1  0.11126182  0.69413623  0.10213789  1
  Sc  Sc54  1  0.11357308  0.89694076  0.09157215  1
  Sc  Sc55  1  0.90810073  0.50381805  0.30376339  1
  Sc  Sc56  1  0.29468377  0.29626416  0.09610871  1
  Sc  Sc57  1  0.09418438  0.30471518  0.30556124  1
  Sc  Sc58  1  0.90224051  0.89900257  0.50068103  1
  Sc  Sc59  1  0.70263821  0.30212201  0.09955398  1
  Sc  Sc60  1  0.10135085  0.09630547  0.50256665  1
  Sc  Sc61  1  0.10331997  0.49819933  0.09538531  1
  Sc  Sc62  1  0.89908272  0.49716468  0.68522007  1
  Sc  Sc63  1  0.89560759  0.90402649  0.69973742  1
  Sc  Sc64  1  0.69720848  0.49620407  0.09500186  1
  Sc  Sc65  1  0.30207765  0.89175946  0.09523538  1
  Sc  Sc66  1  0.09358270  0.90249613  0.69077042  1
  Sc  Sc67  1  0.50872225  0.30315665  0.50465155  1
  Sc  Sc68  1  0.70017830  0.49569090  0.29588748  1
  Sc  Sc69  1  0.89382025  0.09932543  0.30438052  1
  Sc  Sc70  1  0.70127065  0.29829181  0.49817758  1
  Sc  Sc71  1  0.89260009  0.09889558  0.50044965  1
  Sc  Sc72  1  0.10544087  0.69753996  0.30304176  1
  Sc  Sc73  1  0.70200790  0.09591212  0.69162551  1
  Sc  Sc74  1  0.69819433  0.29667241  0.29882168  1
  Sc  Sc75  1  0.90014388  0.90443200  0.31623958  1
  Sc  Sc76  1  0.29978381  0.49656182  0.90919276  1
  Sc  Sc77  1  0.49399985  0.89991148  0.30961976  1
  Sc  Sc78  1  0.08931120  0.49515956  0.69435131  1
  Sc  Sc79  1  0.49513200  0.30375892  0.70101286  1
  Sc  Sc80  1  0.49472928  0.49585613  0.50029405  1
  Sc  Sc81  1  0.50757201  0.49881245  0.89690072  1
  Sc  Sc82  1  0.69178750  0.50058836  0.90720040  1
  Sc  Sc83  1  0.69497427  0.69785567  0.89477450  1
  Sc  Sc84  1  0.90141314  0.10542697  0.89091425  1
  Sc  Sc85  1  0.30269857  0.29465053  0.69892514  1
  Sc  Sc86  1  0.10522943  0.10316742  0.09098109  1
  Sc  Sc87  1  0.29654864  0.89637280  0.49657744  1
  Sc  Sc88  1  0.30677553  0.09493515  0.30637838  1
  Sc  Sc89  1  0.50060131  0.89631544  0.71138068  1
  Sc  Sc90  1  0.49116725  0.08774009  0.90414862  1
  Sc  Sc91  1  0.10222989  0.09736251  0.70370085  1
  Sc  Sc92  1  0.49922100  0.69038646  0.90396850  1
  Sc  Sc93  1  0.09640728  0.89661088  0.31499497  1
  Sc  Sc94  1  0.30637670  0.70129327  0.90563439  1
  Sc  Sc95  1  0.10375102  0.49612912  0.29323744  1
  Sc  Sc96  1  0.89828078  0.70390168  0.89108315  1
  Sc  Sc97  1  0.69802217  0.89815711  0.89012860  1
  Sc  Sc98  1  0.29221487  0.09993574  0.89512039  1
  Sc  Sc99  1  0.90294067  0.70840156  0.69753592  1
  Nb  Nb100  1  0.49698095  0.91160737  0.50060092  1
  Nb  Nb101  1  0.89732355  0.70198852  0.10205165  1
  Nb  Nb102  1  0.89988735  0.30756375  0.09914410  1
  Nb  Nb103  1  0.09097388  0.89756045  0.49859589  1
  Nb  Nb104  1  0.69638492  0.69850299  0.50681376  1
  Nb  Nb105  1  0.30007305  0.90119879  0.30021428  1
  Nb  Nb106  1  0.50280674  0.70004754  0.10174956  1
  Nb  Nb107  1  0.69782328  0.69626935  0.68887715  1
  Nb  Nb108  1  0.49780018  0.29579148  0.89954546  1
  Nb  Nb109  1  0.49632266  0.69712586  0.30151925  1
  Nb  Nb110  1  0.69994532  0.89191364  0.70055060  1
  Nb  Nb111  1  0.89996333  0.50014570  0.49848585  1
  Nb  Nb112  1  0.70509010  0.09865507  0.30329622  1
  Nb  Nb113  1  0.50262541  0.50013347  0.30130465  1
  Nb  Nb114  1  0.10310776  0.70253083  0.69742850  1
  Nb  Nb115  1  0.10608785  0.49778023  0.89617118  1
  Nb  Nb116  1  0.69232517  0.10220054  0.49968454  1
  Nb  Nb117  1  0.29952663  0.49740031  0.69583257  1
  Nb  Nb118  1  0.70653376  0.90574593  0.30367741  1
  Nb  Nb119  1  0.09971368  0.30342547  0.70127741  1
  Nb  Nb120  1  0.90110167  0.89716675  0.09339272  1
  Nb  Nb121  1  0.10521400  0.09675545  0.89991294  1
  Nb  Nb122  1  0.30228095  0.10134942  0.70142233  1
  Nb  Nb123  1  0.50210632  0.89735728  0.90249538  1
  Nb  Nb124  1  0.89925447  0.50737205  0.10641567  1
  Nb  Nb125  1  0.79700720  0.59619866  0.79592683  1
  Nb  Nb126  1  0.19779389  0.60105047  0.60431736  1
  Nb  Nb127  1  0.59764627  0.20091362  0.80663053  1
  Nb  Nb128  1  0.81027306  0.40053217  0.19424465  1
  Nb  Nb129  1  0.20054041  0.59613915  0.79318680  1
  Nb  Nb130  1  0.40398396  0.20389192  0.40173822  1
  Nb  Nb131  1  0.59859877  0.60554378  0.39799641  1
  Nb  Nb132  1  0.59750877  0.80205571  0.00335487  1
  Nb  Nb133  1  0.19911742  -0.00056505  0.20414937  1
  Nb  Nb134  1  -0.00425676  -0.00251653  0.00060269  1
  Nb  Nb135  1  -0.00203293  0.80432063  0.19325058  1
  Nb  Nb136  1  0.19885757  0.79242311  0.79508468  1
  Nb  Nb137  1  0.40018796  0.00324763  0.59998407  1
  Nb  Nb138  1  0.80458741  -0.00263271  0.00174260  1
  Nb  Nb139  1  0.40480638  0.39377436  0.00300938  1
  Nb  Nb140  1  0.39256652  0.59502214  0.79371049  1
  Nb  Nb141  1  0.19919459  0.19501841  0.20531545  1
  Nb  Nb142  1  0.40382319  0.40329047  0.20059743  1
  Nb  Nb143  1  0.80023326  0.40409743  0.80118056  1
  Nb  Nb144  1  0.00378044  -0.00731152  0.19355881  1
  Nb  Nb145  1  0.59503561  0.60709006  0.20660318  1
  Nb  Nb146  1  -0.00342297  0.80050428  0.00225110  1
  Nb  Nb147  1  0.19609318  0.40256091  0.79847230  1
  Nb  Nb148  1  0.80550328  0.60430378  0.00154697  1
  Nb  Nb149  1  0.59822254  0.19640626  -0.00435056  1
  Pd  Pd150  1  0.40385419  0.59293442  0.19975101  1
  Pd  Pd151  1  0.79514039  -0.00270399  0.59713894  1
  Pd  Pd152  1  -0.00408153  0.19621596  0.40757564  1
  Pd  Pd153  1  0.19436805  0.80603332  0.20773098  1
  Pd  Pd154  1  0.39350753  0.40637325  0.80595527  1
  Pd  Pd155  1  0.00014456  0.40605374  0.00423798  1
  Pd  Pd156  1  0.60973997  0.41048216  0.40909990  1
  Pd  Pd157  1  0.60333201  0.39565832  0.79829976  1
  Pd  Pd158  1  0.20300904  -0.00491512  0.59934584  1
  Pd  Pd159  1  0.59755968  0.79169744  0.80464546  1
  Pd  Pd160  1  0.80339182  0.80022977  0.59779592  1
  Pd  Pd161  1  0.60288906  0.00392072  0.79689166  1
  Pd  Pd162  1  -0.00433054  0.00371509  0.59765200  1
  Pd  Pd163  1  0.79605453  0.79841116  -0.01058123  1
  Pd  Pd164  1  0.40803066  0.81271128  0.59741844  1
  Pd  Pd165  1  0.00916221  0.60500503  0.19767467  1
  Pd  Pd166  1  0.60436632  -0.00009133  0.39311580  1
  Pd  Pd167  1  0.38935212  0.20855641  0.21128989  1
  Pd  Pd168  1  0.00184094  0.19483676  0.59741788  1
  Pd  Pd169  1  0.40370114  0.20108588  0.59379766  1
  Pd  Pd170  1  0.59022411  0.80488354  0.20154133  1
  Pd  Pd171  1  0.20274933  0.60422688  -0.00638324  1
  Pd  Pd172  1  0.19174956  0.59752987  0.40875447  1
  Pd  Pd173  1  -0.00318861  0.60570502  0.00597002  1
  Pd  Pd174  1  0.00635929  0.80729564  0.79827982  1
  Pd  Pd175  1  0.19433744  0.79002463  -0.01107949  1
  Pd  Pd176  1  0.20303178  0.80074336  0.39937757  1
  Pd  Pd177  1  0.40713443  0.80848523  0.20044472  1
  Pd  Pd178  1  0.59210993  0.80813746  0.60139482  1
  Pd  Pd179  1  -0.00145462  0.60630383  0.60177424  1
  Pd  Pd180  1  0.39399063  -0.00607232  0.19990828  1
  Pd  Pd181  1  0.40075793  0.00426834  0.79633413  1
  Pd  Pd182  1  0.20069877  -0.00439185  0.40027420  1
  Pd  Pd183  1  0.40882143  0.79832591  -0.00168070  1
  Pd  Pd184  1  0.00764222  0.19568266  0.80014774  1
  Pd  Pd185  1  0.79629672  0.19988969  0.40176104  1
  Pd  Pd186  1  0.80160909  0.40279135  0.39075090  1
  Pd  Pd187  1  0.79891483  0.39619970  0.60410104  1
  Pd  Pd188  1  0.00721424  0.19233606  0.19715475  1
  Pd  Pd189  1  -0.00364320  0.40246959  0.79834618  1
  Pd  Pd190  1  0.59693085  -0.00901943  0.21379149  1
  Pd  Pd191  1  0.59674620  0.80185527  0.40170189  1
  Pd  Pd192  1  0.81249659  -0.00488191  0.20094410  1
  Pd  Pd193  1  -0.00478812  0.59310426  0.78821817  1
  Pd  Pd194  1  0.19538368  0.20046275  0.60911535  1
  Pd  Pd195  1  0.79234736  0.59664787  0.39305298  1
  Pd  Pd196  1  0.79525223  0.19244098  0.00710557  1
  Pd  Pd197  1  0.81195023  0.81476486  0.21062947  1
  Pd  Pd198  1  0.00590649  0.60307919  0.39825605  1
  Pd  Pd199  1  -0.00244173  0.19176478  0.00320928  1
  Rh  Rh200  1  0.39171879  -0.00296906  -0.00299630  1
  Rh  Rh201  1  0.60178026  0.40076396  0.59595759  1
  Rh  Rh202  1  0.79504764  -0.00058867  0.79689586  1
  Rh  Rh203  1  0.40632238  0.19023391  0.79927879  1
  Rh  Rh204  1  0.60271830  0.40738522  0.19621057  1
  Rh  Rh205  1  0.59121670  0.59852961  0.58717157  1
  Rh  Rh206  1  0.60869855  0.20026791  0.19962015  1
  Rh  Rh207  1  0.20550059  0.39110767  -0.00802462  1
  Rh  Rh208  1  0.19749347  0.20182133  0.00339047  1
  Rh  Rh209  1  -0.00665310  0.79204080  0.39406929  1
  Rh  Rh210  1  0.39677224  0.00518707  0.40832723  1
  Rh  Rh211  1  0.59796787  0.60001530  0.79518961  1
  Rh  Rh212  1  0.40410209  0.39419549  0.39713115  1
  Rh  Rh213  1  0.19572155  0.80192031  0.60047276  1
  Rh  Rh214  1  0.79123627  0.00205743  0.40816886  1
  Rh  Rh215  1  0.59707231  -0.01079440  0.60510246  1
  Rh  Rh216  1  0.40754212  0.59906515  0.40610044  1
  Rh  Rh217  1  0.20210724  0.00386617  0.00395975  1
  Rh  Rh218  1  0.39722547  0.80564379  0.40002053  1
  Rh  Rh219  1  0.61144399  -0.00329307  -0.00714746  1
  Rh  Rh220  1  0.58935618  0.38822238  0.00305549  1
  Rh  Rh221  1  0.20349431  0.39571869  0.20185457  1
  Rh  Rh222  1  0.19382922  0.20361580  0.79378323  1
  Rh  Rh223  1  0.61391950  0.61601945  0.01223165  1
  Rh  Rh224  1  0.60121613  0.19780802  0.39827404  1
  Rh  Rh225  1  0.40044240  0.78948609  0.80800069  1
  Rh  Rh226  1  0.79030655  0.58934404  0.19646710  1
  Rh  Rh227  1  0.80827303  0.60686252  0.60557383  1
  Rh  Rh228  1  0.60263053  0.20409575  0.60448505  1
  Rh  Rh229  1  0.78990866  0.78898558  0.78788181  1
  Rh  Rh230  1  0.20301892  0.60049160  0.20339840  1
  Rh  Rh231  1  0.20050440  -0.00180999  0.79257908  1
  Rh  Rh232  1  0.79701128  0.19663983  0.59346702  1
  Rh  Rh233  1  0.79183245  0.20802028  0.79694443  1
  Rh  Rh234  1  0.81266948  0.41479295  0.00034628  1
  Rh  Rh235  1  -0.00465684  0.40601373  0.19761601  1
  Rh  Rh236  1  0.40006084  0.39404059  0.60012616  1
  Rh  Rh237  1  -0.00371080  0.39192084  0.59770576  1
  Rh  Rh238  1  -0.00552373  0.80347362  0.59918158  1
  Rh  Rh239  1  0.19088283  0.40687821  0.40150835  1
  Rh  Rh240  1  0.20459799  0.19909120  0.39553956  1
  Rh  Rh241  1  0.39960763  0.59128498  -0.00491807  1
  Rh  Rh242  1  0.79535505  0.20948937  0.20171409  1
  Rh  Rh243  1  0.79915734  0.80235102  0.40703698  1
  Rh  Rh244  1  -0.00205191  0.40109882  0.39893669  1
  Rh  Rh245  1  0.40550944  0.19925702  -0.00601773  1
  Rh  Rh246  1  -0.00152749  0.00447816  0.40426434  1
  Rh  Rh247  1  0.39936402  0.59513295  0.60048252  1
  Rh  Rh248  1  0.19554863  0.40279885  0.60848683  1
  Rh  Rh249  1  0.00144201  0.00511127  0.80219309  1
