# generated using pymatgen
data_ZrScNbPdRh
_symmetry_space_group_name_H-M   'P 1'
_cell_length_a   16.55325285
_cell_length_b   16.55435828
_cell_length_c   16.55385597
_cell_angle_alpha   90.00700273
_cell_angle_beta   89.97671701
_cell_angle_gamma   89.99581569
_symmetry_Int_Tables_number   1
_chemical_formula_structural   ZrScNbPdRh
_chemical_formula_sum   'Zr50 Sc50 Nb50 Pd50 Rh50'
_cell_volume   4536.22753993
_cell_formula_units_Z   50
loop_
 _symmetry_equiv_pos_site_id
 _symmetry_equiv_pos_as_xyz
  1  'x, y, z'
loop_
 _atom_site_type_symbol
 _atom_site_label
 _atom_site_symmetry_multiplicity
 _atom_site_fract_x
 _atom_site_fract_y
 _atom_site_fract_z
 _atom_site_occupancy
  Zr  Zr0  1  0.09092493  0.49474976  0.90044357  1
  Zr  Zr1  1  0.29501308  0.08998162  0.49855125  1
  Zr  Zr2  1  0.90109916  0.30465608  0.69484753  1
  Zr  Zr3  1  0.29770257  0.29219523  0.29474998  1
  Zr  Zr4  1  0.30102846  0.29817808  0.10466351  1
  Zr  Zr5  1  0.10486931  0.09617534  0.90185988  1
  Zr  Zr6  1  0.90345268  0.09898084  0.09897162  1
  Zr  Zr7  1  0.70087058  0.10923532  0.10969376  1
  Zr  Zr8  1  0.69832326  0.70052795  0.69605616  1
  Zr  Zr9  1  0.69864542  0.89403345  0.90212374  1
  Zr  Zr10  1  0.10316162  0.70467639  0.50077974  1
  Zr  Zr11  1  0.69902979  0.29810341  0.10235114  1
  Zr  Zr12  1  0.09920663  0.30548923  0.70450665  1
  Zr  Zr13  1  0.69675774  0.90130725  0.49923606  1
  Zr  Zr14  1  0.89498817  0.71158134  0.11107683  1
  Zr  Zr15  1  0.70576235  0.90570014  0.71092070  1
  Zr  Zr16  1  0.50893122  0.29110674  0.69983951  1
  Zr  Zr17  1  0.89341060  0.29509957  0.50329977  1
  Zr  Zr18  1  0.09934747  0.50055062  0.49426255  1
  Zr  Zr19  1  0.50139103  0.90204952  0.90825396  1
  Zr  Zr20  1  0.90316684  0.69785103  0.89791962  1
  Zr  Zr21  1  0.69047103  0.29839271  0.29904463  1
  Zr  Zr22  1  0.30352284  0.90368943  0.50835306  1
  Zr  Zr23  1  0.49988136  0.50220270  0.89948720  1
  Zr  Zr24  1  0.09721454  0.89438294  0.29929876  1
  Zr  Zr25  1  0.28980586  0.49219982  0.30059919  1
  Zr  Zr26  1  0.88992555  0.90463665  0.89563890  1
  Zr  Zr27  1  0.09851500  0.70232815  0.89154486  1
  Zr  Zr28  1  0.29548947  0.29599783  0.69994483  1
  Zr  Zr29  1  0.90269036  0.30977477  0.89577862  1
  Zr  Zr30  1  0.89401343  0.30007027  0.30517288  1
  Zr  Zr31  1  0.10381912  0.30353098  0.29486683  1
  Zr  Zr32  1  0.30456538  0.29981591  0.50564845  1
  Zr  Zr33  1  0.89584953  0.28732738  0.10104767  1
  Zr  Zr34  1  0.09590196  0.09657308  0.09522253  1
  Zr  Zr35  1  0.30192036  0.69221115  0.10302409  1
  Zr  Zr36  1  0.49649292  0.09283027  0.10060878  1
  Zr  Zr37  1  0.10816575  0.10430698  0.30019104  1
  Zr  Zr38  1  0.69683294  0.49560759  0.10037325  1
  Zr  Zr39  1  0.70777572  0.30090377  0.90041851  1
  Zr  Zr40  1  0.69948934  0.70753221  0.09443099  1
  Zr  Zr41  1  0.90564362  0.89300488  0.29175172  1
  Zr  Zr42  1  0.89738638  0.51153901  0.30363996  1
  Zr  Zr43  1  0.30181146  0.09480456  0.89883053  1
  Zr  Zr44  1  0.50689292  0.30014132  0.50412455  1
  Zr  Zr45  1  0.30022920  0.88545114  0.10381780  1
  Zr  Zr46  1  0.49682912  0.10041935  0.89616677  1
  Zr  Zr47  1  0.09748387  0.70448137  0.70198546  1
  Zr  Zr48  1  0.29570383  0.70562375  0.29626907  1
  Zr  Zr49  1  0.70228522  0.29642745  0.49928674  1
  Sc  Sc50  1  0.48725579  0.49793655  0.09936678  1
  Sc  Sc51  1  0.69631248  0.69271935  0.50184237  1
  Sc  Sc52  1  0.89830883  0.10561373  0.90478888  1
  Sc  Sc53  1  0.30205884  0.71378619  0.49741929  1
  Sc  Sc54  1  0.89560435  0.49079148  0.50311568  1
  Sc  Sc55  1  0.71361553  0.68986828  0.30061987  1
  Sc  Sc56  1  0.10054534  0.49665449  0.09268055  1
  Sc  Sc57  1  0.90362418  0.50646963  0.08910806  1
  Sc  Sc58  1  0.70180732  0.69839813  0.89473036  1
  Sc  Sc59  1  0.49315871  0.69932129  0.89851940  1
  Sc  Sc60  1  0.90508284  0.10837589  0.69567169  1
  Sc  Sc61  1  0.89672853  0.68765897  0.50492508  1
  Sc  Sc62  1  0.50555409  0.50242749  0.50692515  1
  Sc  Sc63  1  0.10849234  0.90071358  0.89600045  1
  Sc  Sc64  1  0.30730497  0.49060355  0.69106641  1
  Sc  Sc65  1  0.10783410  0.70806830  0.09925668  1
  Sc  Sc66  1  0.09915939  0.29865835  0.09606503  1
  Sc  Sc67  1  0.30249550  0.90008208  0.30991056  1
  Sc  Sc68  1  0.50449032  0.69328568  0.69760728  1
  Sc  Sc69  1  0.49229574  0.69559033  0.30109885  1
  Sc  Sc70  1  0.50656536  0.69862905  0.50152819  1
  Sc  Sc71  1  0.70538784  0.89657967  0.09158293  1
  Sc  Sc72  1  0.30145236  0.90050054  0.88739771  1
  Sc  Sc73  1  0.69068209  0.09732720  0.30133500  1
  Sc  Sc74  1  0.70090024  0.50451365  0.49435755  1
  Sc  Sc75  1  0.50096830  0.50474030  0.69563691  1
  Sc  Sc76  1  0.50439728  0.50037825  0.30141912  1
  Sc  Sc77  1  0.10278585  0.10568953  0.69617640  1
  Sc  Sc78  1  0.30365724  0.10253900  0.29917706  1
  Sc  Sc79  1  0.70383808  0.29283169  0.69577810  1
  Sc  Sc80  1  0.89600302  0.50420298  0.69818783  1
  Sc  Sc81  1  0.70004584  0.09123183  0.88707441  1
  Sc  Sc82  1  0.49281581  0.89428780  0.49756247  1
  Sc  Sc83  1  0.29956827  0.49460992  0.10170093  1
  Sc  Sc84  1  0.49855331  0.10191654  0.29361987  1
  Sc  Sc85  1  0.30043496  0.29146174  0.90642517  1
  Sc  Sc86  1  0.90540382  0.10481175  0.30466857  1
  Sc  Sc87  1  0.30074311  0.71148418  0.70089401  1
  Sc  Sc88  1  0.30336489  0.50084285  0.90879330  1
  Sc  Sc89  1  0.09058897  0.09659924  0.49968877  1
  Sc  Sc90  1  0.30244878  0.70335960  0.90293893  1
  Sc  Sc91  1  0.49632006  0.09363426  0.49594277  1
  Sc  Sc92  1  0.10509474  0.90818536  0.49858979  1
  Sc  Sc93  1  0.49465074  0.30236652  0.10151010  1
  Sc  Sc94  1  0.71177033  0.49983882  0.90030198  1
  Sc  Sc95  1  0.89944281  0.69607249  0.70761381  1
  Sc  Sc96  1  0.09400782  0.30082134  0.50741954  1
  Sc  Sc97  1  0.49871744  0.91338902  0.29843655  1
  Sc  Sc98  1  0.48743668  0.70354648  0.09735295  1
  Sc  Sc99  1  0.91213463  0.91737599  0.49255967  1
  Nb  Nb100  1  0.09048712  0.69685128  0.30252472  1
  Nb  Nb101  1  0.70067785  0.50108863  0.30147275  1
  Nb  Nb102  1  0.69196463  0.10014885  0.69799935  1
  Nb  Nb103  1  0.49868699  0.90140699  0.69661677  1
  Nb  Nb104  1  0.70135910  0.90323883  0.29944123  1
  Nb  Nb105  1  0.50669990  0.09924558  0.70467522  1
  Nb  Nb106  1  0.50132164  0.29720478  0.90050974  1
  Nb  Nb107  1  0.10439986  0.50163597  0.69840519  1
  Nb  Nb108  1  0.29775204  0.90809232  0.69758242  1
  Nb  Nb109  1  0.69735589  0.51083198  0.71017252  1
  Nb  Nb110  1  0.49659194  0.29496500  0.30497375  1
  Nb  Nb111  1  0.09391799  0.90479415  0.09992332  1
  Nb  Nb112  1  0.90218230  0.50394133  0.89737786  1
  Nb  Nb113  1  0.90134515  0.90107462  0.70243021  1
  Nb  Nb114  1  0.70587799  0.09815222  0.50674778  1
  Nb  Nb115  1  0.30851742  0.08833979  0.70170667  1
  Nb  Nb116  1  0.30443636  0.49741591  0.50007174  1
  Nb  Nb117  1  0.50813121  0.89672310  0.09873617  1
  Nb  Nb118  1  0.90474813  0.90335496  0.09826096  1
  Nb  Nb119  1  0.90465462  0.70506340  0.29855858  1
  Nb  Nb120  1  0.10112299  0.89682373  0.70353143  1
  Nb  Nb121  1  0.09848490  0.30552587  0.89324468  1
  Nb  Nb122  1  0.89972906  0.10228943  0.50309309  1
  Nb  Nb123  1  0.09635310  0.50102924  0.30111153  1
  Nb  Nb124  1  0.29931383  0.10373096  0.09738440  1
  Nb  Nb125  1  0.59732565  0.80475762  0.79700178  1
  Nb  Nb126  1  0.40841087  0.39220435  0.80100599  1
  Nb  Nb127  1  0.60260705  0.80043302  0.20292968  1
  Nb  Nb128  1  0.80260452  0.80124807  0.40035403  1
  Nb  Nb129  1  0.59910929  0.59917301  0.00447094  1
  Nb  Nb130  1  0.00136499  -0.00337589  0.79543814  1
  Nb  Nb131  1  0.59777355  0.20055244  -0.00406567  1
  Nb  Nb132  1  0.19973644  -0.00348319  0.19231495  1
  Nb  Nb133  1  0.60213233  0.00079763  0.60508028  1
  Nb  Nb134  1  0.80366481  -0.00383972  0.19971727  1
  Nb  Nb135  1  0.80569120  0.80906854  0.59736354  1
  Nb  Nb136  1  -0.00380889  0.80755498  0.60501345  1
  Nb  Nb137  1  0.60206871  0.60327020  0.19609802  1
  Nb  Nb138  1  0.19149668  0.59916313  0.21046920  1
  Nb  Nb139  1  0.60001869  0.39909159  0.80146275  1
  Nb  Nb140  1  0.60756220  0.80065398  0.38920369  1
  Nb  Nb141  1  0.40024125  0.39838754  0.40190502  1
  Nb  Nb142  1  -0.00528917  0.40362810  0.20387227  1
  Nb  Nb143  1  0.39156746  0.59261852  0.40238984  1
  Nb  Nb144  1  0.40032702  0.19019234  0.60701964  1
  Nb  Nb145  1  0.80090787  0.40312783  0.20466115  1
  Nb  Nb146  1  0.20205090  0.59822382  0.59901726  1
  Nb  Nb147  1  0.80026369  0.00373768  0.60097603  1
  Nb  Nb148  1  0.19741808  0.59414104  0.79305703  1
  Nb  Nb149  1  -0.00199287  0.80981032  0.00164487  1
  Pd  Pd150  1  0.00634197  0.59891786  0.19093658  1
  Pd  Pd151  1  0.20123200  0.19453574  0.80077423  1
  Pd  Pd152  1  0.21311070  0.40677487  0.80716917  1
  Pd  Pd153  1  0.39308593  0.61012673  0.59347633  1
  Pd  Pd154  1  0.40119680  0.19944278  0.40649684  1
  Pd  Pd155  1  0.19710922  0.59917805  -0.00192129  1
  Pd  Pd156  1  0.19824278  0.80359829  -0.00591210  1
  Pd  Pd157  1  0.59968809  0.18970039  0.40492516  1
  Pd  Pd158  1  0.59625192  0.40053699  -0.00557625  1
  Pd  Pd159  1  0.20441035  0.60520990  0.40237731  1
  Pd  Pd160  1  0.80071994  0.19733273  0.79486125  1
  Pd  Pd161  1  0.19926778  0.80646378  0.40098260  1
  Pd  Pd162  1  0.00360614  0.60058750  0.60134672  1
  Pd  Pd163  1  -0.00577854  0.60218544  0.40654303  1
  Pd  Pd164  1  0.78888377  0.40815633  0.60547329  1
  Pd  Pd165  1  0.60997291  0.00957704  0.00431426  1
  Pd  Pd166  1  0.19618589  0.20471600  -0.00041919  1
  Pd  Pd167  1  0.61023701  0.40749574  0.60974892  1
  Pd  Pd168  1  0.80487068  0.00013521  0.39620852  1
  Pd  Pd169  1  0.59646294  0.40441340  0.40089506  1
  Pd  Pd170  1  0.21022691  -0.00977471  0.00510731  1
  Pd  Pd171  1  0.38972530  -0.00289792  0.19773117  1
  Pd  Pd172  1  0.39138654  -0.00896734  0.00326222  1
  Pd  Pd173  1  0.20186111  0.39089872  0.40671287  1
  Pd  Pd174  1  -0.00886615  0.79666410  0.41395775  1
  Pd  Pd175  1  0.00469703  0.61376584  0.00621217  1
  Pd  Pd176  1  -0.00353275  0.39808661  0.39842928  1
  Pd  Pd177  1  0.40630376  0.80315351  0.79509680  1
  Pd  Pd178  1  0.00224291  0.19485027  0.80411381  1
  Pd  Pd179  1  0.38905695  0.59240691  0.79571641  1
  Pd  Pd180  1  -0.00665155  0.40930926  0.79152315  1
  Pd  Pd181  1  0.00528125  0.20674141  -0.00922384  1
  Pd  Pd182  1  0.20186735  0.39448519  -0.00356496  1
  Pd  Pd183  1  0.40505257  0.40019427  0.21040174  1
  Pd  Pd184  1  0.39578248  0.20158915  0.79619030  1
  Pd  Pd185  1  0.19622270  0.40489656  0.59591254  1
  Pd  Pd186  1  0.79336147  0.00708819  0.00596048  1
  Pd  Pd187  1  0.80892482  0.40067742  0.00698034  1
  Pd  Pd188  1  0.79675438  0.59551346  0.19453022  1
  Pd  Pd189  1  0.00055313  0.00660330  0.20756909  1
  Pd  Pd190  1  0.59616984  0.40364107  0.20270005  1
  Pd  Pd191  1  0.41150990  0.80662893  0.20786798  1
  Pd  Pd192  1  0.20271943  0.19217315  0.59726972  1
  Pd  Pd193  1  0.59457011  -0.00128838  0.40492006  1
  Pd  Pd194  1  0.40501193  0.79442165  0.60277871  1
  Pd  Pd195  1  0.79248832  0.19135698  0.39549955  1
  Pd  Pd196  1  0.19589587  0.20358687  0.40999144  1
  Pd  Pd197  1  0.19200345  0.00221962  0.60514803  1
  Pd  Pd198  1  0.79691175  0.60476556  0.00006935  1
  Pd  Pd199  1  0.00477361  0.20266421  0.40335280  1
  Rh  Rh200  1  0.58999556  -0.00871674  0.79724880  1
  Rh  Rh201  1  0.00318732  0.59112235  0.79681967  1
  Rh  Rh202  1  0.61070343  -0.01028750  0.18928187  1
  Rh  Rh203  1  0.59958815  0.60057860  0.80922048  1
  Rh  Rh204  1  0.80416696  0.60374670  0.40339345  1
  Rh  Rh205  1  0.40999487  0.79489849  0.39836962  1
  Rh  Rh206  1  0.00043326  0.40308785  0.60208675  1
  Rh  Rh207  1  0.40551556  -0.00510178  0.79847012  1
  Rh  Rh208  1  0.79401482  0.59955497  0.60185113  1
  Rh  Rh209  1  0.39715188  0.80298917  -0.00139036  1
  Rh  Rh210  1  0.81099818  0.79745462  -0.00554434  1
  Rh  Rh211  1  0.00312669  0.00638610  0.39263611  1
  Rh  Rh212  1  0.19897588  -0.00131518  0.39236861  1
  Rh  Rh213  1  0.59016998  0.78916230  -0.00251743  1
  Rh  Rh214  1  0.79297676  0.80814808  0.20639695  1
  Rh  Rh215  1  0.80077292  0.19593959  0.21212293  1
  Rh  Rh216  1  0.81394270  0.01572913  0.79109033  1
  Rh  Rh217  1  0.60436470  0.59404906  0.59974334  1
  Rh  Rh218  1  0.60817225  0.20539132  0.81007780  1
  Rh  Rh219  1  0.00360724  0.20580163  0.20229765  1
  Rh  Rh220  1  0.79744455  0.40498170  0.79479790  1
  Rh  Rh221  1  0.20747745  0.79694928  0.79757794  1
  Rh  Rh222  1  0.39237591  0.59357570  0.20849423  1
  Rh  Rh223  1  -0.00200937  -0.00199313  0.60868312  1
  Rh  Rh224  1  0.00946431  0.79517076  0.19196198  1
  Rh  Rh225  1  0.80097461  0.19466110  0.60285494  1
  Rh  Rh226  1  0.59415813  0.60563155  0.39163015  1
  Rh  Rh227  1  0.59417168  0.18722823  0.58996003  1
  Rh  Rh228  1  0.40936542  0.00361895  0.60362355  1
  Rh  Rh229  1  0.39476070  0.39396624  -0.00623725  1
  Rh  Rh230  1  0.78951247  0.19289563  -0.00616484  1
  Rh  Rh231  1  0.40646452  0.19867133  0.00660338  1
  Rh  Rh232  1  0.60525828  0.80692525  0.60430019  1
  Rh  Rh233  1  0.80353596  0.59977625  0.80130863  1
  Rh  Rh234  1  0.19201264  0.80025983  0.20430767  1
  Rh  Rh235  1  0.19829856  0.18997782  0.18968138  1
  Rh  Rh236  1  0.40180151  0.60078933  0.00233111  1
  Rh  Rh237  1  0.79292837  0.40151150  0.39556433  1
  Rh  Rh238  1  0.39828526  0.00224278  0.39796571  1
  Rh  Rh239  1  0.58690504  0.20341283  0.19439343  1
  Rh  Rh240  1  -0.00401861  0.81047441  0.80528653  1
  Rh  Rh241  1  0.40246033  0.19865088  0.19653460  1
  Rh  Rh242  1  0.00005678  -0.00774147  -0.01578893  1
  Rh  Rh243  1  -0.00603988  0.39386821  0.00342123  1
  Rh  Rh244  1  0.19523012  0.00377509  0.79207311  1
  Rh  Rh245  1  0.00031885  0.20382331  0.59835792  1
  Rh  Rh246  1  0.18710486  0.40770788  0.19432807  1
  Rh  Rh247  1  0.40681057  0.38952790  0.60228228  1
  Rh  Rh248  1  0.19495727  0.80220057  0.60349094  1
  Rh  Rh249  1  0.79570659  0.79096975  0.79511898  1
