# generated using pymatgen
data_ZrScNbPdRh
_symmetry_space_group_name_H-M   'P 1'
_cell_length_a   16.55185276
_cell_length_b   16.55406111
_cell_length_c   16.55591550
_cell_angle_alpha   90.00769884
_cell_angle_beta   90.02795148
_cell_angle_gamma   89.98441571
_symmetry_Int_Tables_number   1
_chemical_formula_structural   ZrScNbPdRh
_chemical_formula_sum   'Zr50 Sc50 Nb50 Pd50 Rh50'
_cell_volume   4536.32642499
_cell_formula_units_Z   50
loop_
 _symmetry_equiv_pos_site_id
 _symmetry_equiv_pos_as_xyz
  1  'x, y, z'
loop_
 _atom_site_type_symbol
 _atom_site_label
 _atom_site_symmetry_multiplicity
 _atom_site_fract_x
 _atom_site_fract_y
 _atom_site_fract_z
 _atom_site_occupancy
  Zr  Zr0  1  0.49658989  0.69978843  0.50293779  1
  Zr  Zr1  1  0.89437168  0.69503191  0.51279150  1
  Zr  Zr2  1  0.29427365  0.10736569  0.89651347  1
  Zr  Zr3  1  0.89437419  0.10301188  0.30484162  1
  Zr  Zr4  1  0.50210040  0.49989208  0.50294154  1
  Zr  Zr5  1  0.89807281  0.29876639  0.29835833  1
  Zr  Zr6  1  0.09563865  0.90776251  0.10263085  1
  Zr  Zr7  1  0.49984395  0.09004831  0.50033364  1
  Zr  Zr8  1  0.71032252  0.69808368  0.29582652  1
  Zr  Zr9  1  0.90489089  0.10024356  0.70468728  1
  Zr  Zr10  1  0.71122435  0.50545941  0.09966163  1
  Zr  Zr11  1  0.28531410  0.90137478  0.70169763  1
  Zr  Zr12  1  0.29909421  0.10704101  0.30574161  1
  Zr  Zr13  1  0.70460865  0.49592054  0.30443093  1
  Zr  Zr14  1  0.90927129  0.09475608  0.49873280  1
  Zr  Zr15  1  0.50640572  0.89707759  0.90241931  1
  Zr  Zr16  1  0.70356313  0.69471921  0.50224659  1
  Zr  Zr17  1  0.89714506  0.30525192  0.71079395  1
  Zr  Zr18  1  0.10515934  0.69709719  0.30479880  1
  Zr  Zr19  1  0.50171423  0.29219288  0.09522648  1
  Zr  Zr20  1  0.30385809  0.70795764  0.49468639  1
  Zr  Zr21  1  0.29478565  0.29614723  0.09181480  1
  Zr  Zr22  1  0.49436771  0.70001102  0.89892719  1
  Zr  Zr23  1  0.10391070  0.50019765  0.69178672  1
  Zr  Zr24  1  0.49330737  0.70225139  0.30667790  1
  Zr  Zr25  1  0.49747834  0.50479638  0.89089143  1
  Zr  Zr26  1  0.89656866  0.89747621  0.29865569  1
  Zr  Zr27  1  0.70179339  0.29922550  0.89293455  1
  Zr  Zr28  1  0.49798653  0.70742511  0.09410957  1
  Zr  Zr29  1  0.29335813  0.50166429  0.30105224  1
  Zr  Zr30  1  0.30599853  0.10214426  0.50085049  1
  Zr  Zr31  1  0.09940127  0.10398784  0.29914599  1
  Zr  Zr32  1  0.90295091  0.90043873  0.09648666  1
  Zr  Zr33  1  0.48892482  0.10146153  0.89751252  1
  Zr  Zr34  1  0.09544066  0.30147665  0.29500640  1
  Zr  Zr35  1  0.69996307  0.10620434  0.30062423  1
  Zr  Zr36  1  0.29855923  0.29795250  0.49222944  1
  Zr  Zr37  1  0.30541945  0.70370189  0.09368321  1
  Zr  Zr38  1  0.10182673  0.90886003  0.51361383  1
  Zr  Zr39  1  0.49692566  0.09379313  0.30464232  1
  Zr  Zr40  1  0.89876193  0.69715215  0.89489526  1
  Zr  Zr41  1  0.90593070  0.50691080  0.69637009  1
  Zr  Zr42  1  0.30595571  0.91027175  0.29567502  1
  Zr  Zr43  1  0.50193867  0.29920815  0.70709325  1
  Zr  Zr44  1  0.29052010  0.08546434  0.10831978  1
  Zr  Zr45  1  0.69263704  0.09226128  0.70332900  1
  Zr  Zr46  1  0.90128455  0.09839082  0.09272390  1
  Zr  Zr47  1  0.28903794  0.70569482  0.69912653  1
  Zr  Zr48  1  0.69912346  0.29651643  0.69873914  1
  Zr  Zr49  1  0.09238780  0.30231847  0.08964542  1
  Sc  Sc50  1  0.90765101  0.29638687  0.10259968  1
  Sc  Sc51  1  0.90297188  0.30012672  0.49654781  1
  Sc  Sc52  1  0.09137782  0.89602712  0.30558814  1
  Sc  Sc53  1  0.30478483  0.29846686  0.69390706  1
  Sc  Sc54  1  0.09713381  0.70654287  0.89042209  1
  Sc  Sc55  1  0.70783185  0.49532337  0.70185726  1
  Sc  Sc56  1  0.50264817  0.30030628  0.31164926  1
  Sc  Sc57  1  0.89320643  0.70075175  0.10971566  1
  Sc  Sc58  1  0.69444073  0.90261847  0.10053722  1
  Sc  Sc59  1  0.50871573  0.91572568  0.70335763  1
  Sc  Sc60  1  0.10504115  0.49394558  0.90796562  1
  Sc  Sc61  1  0.50074138  0.49775478  0.31039847  1
  Sc  Sc62  1  0.70255757  0.91063680  0.50140780  1
  Sc  Sc63  1  0.50200700  0.09877311  0.09543203  1
  Sc  Sc64  1  0.90509960  0.50333689  0.49807051  1
  Sc  Sc65  1  0.30252303  0.09722185  0.70707951  1
  Sc  Sc66  1  0.30032970  0.50817883  0.89840587  1
  Sc  Sc67  1  0.90001138  0.49753967  0.29885182  1
  Sc  Sc68  1  0.09460688  0.69840973  0.10709285  1
  Sc  Sc69  1  0.49882520  0.69154200  0.69953085  1
  Sc  Sc70  1  0.50055087  0.90511362  0.29798636  1
  Sc  Sc71  1  0.30547202  0.89599423  0.50629694  1
  Sc  Sc72  1  0.49737307  0.10509883  0.69659445  1
  Sc  Sc73  1  0.69747836  0.69878507  0.89092939  1
  Sc  Sc74  1  0.10018847  0.30713022  0.49669332  1
  Sc  Sc75  1  0.69685245  0.30415182  0.49541708  1
  Sc  Sc76  1  0.09466116  0.29594936  0.70071029  1
  Sc  Sc77  1  0.29829563  0.50026358  0.69860341  1
  Sc  Sc78  1  0.49545458  0.29993880  0.50865967  1
  Sc  Sc79  1  0.10098547  0.69950925  0.49736183  1
  Sc  Sc80  1  0.69960383  0.09960216  0.10260333  1
  Sc  Sc81  1  0.49437480  0.49698229  0.69868436  1
  Sc  Sc82  1  0.29799894  0.91310070  0.89731818  1
  Sc  Sc83  1  0.30097369  0.69827066  0.90028100  1
  Sc  Sc84  1  0.70826687  0.70322448  0.10094162  1
  Sc  Sc85  1  0.10561582  0.09024206  0.69689089  1
  Sc  Sc86  1  0.70772502  0.50759684  0.89413396  1
  Sc  Sc87  1  0.49407842  0.49940668  0.09803601  1
  Sc  Sc88  1  0.70895604  0.09032518  0.90183410  1
  Sc  Sc89  1  0.09179409  0.50636809  0.30346948  1
  Sc  Sc90  1  0.49547412  0.90032100  0.10027440  1
  Sc  Sc91  1  0.70198861  0.09973046  0.48978266  1
  Sc  Sc92  1  0.29266110  0.49029266  0.50815097  1
  Sc  Sc93  1  0.90771230  0.69765691  0.30053672  1
  Sc  Sc94  1  0.89586562  0.50041483  0.88745721  1
  Sc  Sc95  1  0.70389089  0.50271931  0.49857329  1
  Sc  Sc96  1  0.90779993  0.90178531  0.50072594  1
  Sc  Sc97  1  0.70448021  0.28799785  0.10364978  1
  Sc  Sc98  1  0.29106828  0.50621412  0.08666923  1
  Sc  Sc99  1  0.69855488  0.91137974  0.29638122  1
  Nb  Nb100  1  0.09486689  0.49327384  0.09891803  1
  Nb  Nb101  1  0.90198963  0.90348504  0.90163547  1
  Nb  Nb102  1  0.09275518  0.09942762  0.10144817  1
  Nb  Nb103  1  0.09968044  0.10153280  0.89741256  1
  Nb  Nb104  1  0.29735666  0.70145166  0.30090432  1
  Nb  Nb105  1  0.90674223  0.28992930  0.90023897  1
  Nb  Nb106  1  0.90219868  0.70117010  0.69970696  1
  Nb  Nb107  1  0.29667727  0.29259667  0.89909859  1
  Nb  Nb108  1  0.90068122  0.49721915  0.09470375  1
  Nb  Nb109  1  0.90196136  0.09154224  0.90173182  1
  Nb  Nb110  1  0.29500276  0.89901454  0.10201963  1
  Nb  Nb111  1  0.09312716  0.89725563  0.89955376  1
  Nb  Nb112  1  0.09310116  0.49925592  0.50383435  1
  Nb  Nb113  1  0.10147709  0.09825997  0.50183846  1
  Nb  Nb114  1  0.50416170  0.89641253  0.49814162  1
  Nb  Nb115  1  0.70293885  0.29921857  0.30057054  1
  Nb  Nb116  1  0.10087356  0.89136910  0.70875594  1
  Nb  Nb117  1  0.70174064  0.90434153  0.70441455  1
  Nb  Nb118  1  0.70398735  0.90166012  0.88982909  1
  Nb  Nb119  1  0.90269830  0.89666461  0.69685830  1
  Nb  Nb120  1  0.49436450  0.29842826  0.90133278  1
  Nb  Nb121  1  0.09673801  0.70734473  0.70251091  1
  Nb  Nb122  1  0.71430289  0.70820761  0.69065352  1
  Nb  Nb123  1  0.29513691  0.30004070  0.29877425  1
  Nb  Nb124  1  0.10817835  0.29177559  0.90078269  1
  Nb  Nb125  1  0.39458196  0.20409898  0.20269570  1
  Nb  Nb126  1  0.19742863  0.80824256  0.00379320  1
  Nb  Nb127  1  0.39486115  0.39774976  0.19807138  1
  Nb  Nb128  1  0.79657923  0.79967505  0.40373190  1
  Nb  Nb129  1  0.19901867  0.00541637  0.40424167  1
  Nb  Nb130  1  0.00067818  -0.00717331  0.80361185  1
  Nb  Nb131  1  0.59542594  0.59878983  0.19818489  1
  Nb  Nb132  1  0.60182560  0.40113232  -0.00181223  1
  Nb  Nb133  1  0.20592939  0.80114026  0.19999514  1
  Nb  Nb134  1  0.39765186  0.60078663  0.20292646  1
  Nb  Nb135  1  0.19809898  0.40144379  0.19570839  1
  Nb  Nb136  1  0.20040975  0.38968964  0.80624789  1
  Nb  Nb137  1  0.80361087  0.39587113  -0.00356804  1
  Nb  Nb138  1  0.80349412  0.00219636  0.60844448  1
  Nb  Nb139  1  0.19942126  0.19669768  0.59380355  1
  Nb  Nb140  1  0.60311850  0.79956540  0.40542240  1
  Nb  Nb141  1  0.60099504  0.40021434  0.19783564  1
  Nb  Nb142  1  0.60538920  0.80320517  0.60007147  1
  Nb  Nb143  1  0.59979386  0.59787936  0.00321133  1
  Nb  Nb144  1  0.40056750  0.80448853  0.79848065  1
  Nb  Nb145  1  -0.00500772  0.59361796  0.00380366  1
  Nb  Nb146  1  0.40155133  0.39274218  -0.00667875  1
  Nb  Nb147  1  0.80188461  0.19557340  0.60284459  1
  Nb  Nb148  1  0.80172405  0.80736584  -0.01151962  1
  Nb  Nb149  1  0.80416720  0.80688456  0.79467566  1
  Pd  Pd150  1  0.39795502  -0.00551294  0.60517813  1
  Pd  Pd151  1  0.59890157  0.79584962  0.78799621  1
  Pd  Pd152  1  0.39098337  0.59232318  0.40320221  1
  Pd  Pd153  1  0.00604896  0.19374014  0.80148561  1
  Pd  Pd154  1  0.79852099  0.19280341  0.79978562  1
  Pd  Pd155  1  -0.00656367  0.79528181  0.40700227  1
  Pd  Pd156  1  0.19424528  0.59415901  0.80236308  1
  Pd  Pd157  1  -0.00306383  0.39409027  0.59875871  1
  Pd  Pd158  1  -0.00180859  0.78875189  0.00473043  1
  Pd  Pd159  1  0.00112060  0.20504216  0.59878583  1
  Pd  Pd160  1  0.60171284  0.40355574  0.60078640  1
  Pd  Pd161  1  0.00563884  0.79584330  0.59646021  1
  Pd  Pd162  1  0.41231359  0.80857600  0.61485323  1
  Pd  Pd163  1  0.00387049  0.20436669  0.40325012  1
  Pd  Pd164  1  0.59268405  0.20217966  0.20681980  1
  Pd  Pd165  1  0.38828188  0.39760021  0.80238389  1
  Pd  Pd166  1  0.01093846  0.59329992  0.80551203  1
  Pd  Pd167  1  0.60247024  0.40494925  0.80292477  1
  Pd  Pd168  1  0.60268108  0.60351182  0.39450330  1
  Pd  Pd169  1  0.79856515  0.00251705  0.19451211  1
  Pd  Pd170  1  0.39698743  0.79894956  0.20474388  1
  Pd  Pd171  1  0.59939647  0.19143093  0.80855646  1
  Pd  Pd172  1  0.80431459  0.39879977  0.40646759  1
  Pd  Pd173  1  0.00929238  0.40309929  0.80739103  1
  Pd  Pd174  1  0.60724428  0.60043090  0.60950136  1
  Pd  Pd175  1  0.39971863  0.40034403  0.40015926  1
  Pd  Pd176  1  0.80444367  0.39584158  0.59462133  1
  Pd  Pd177  1  0.39826600  -0.00071026  0.00311573  1
  Pd  Pd178  1  0.19241735  -0.00072856  -0.00625138  1
  Pd  Pd179  1  0.60683600  0.60118015  0.79218635  1
  Pd  Pd180  1  0.60280456  0.79795420  0.20761075  1
  Pd  Pd181  1  0.60639672  0.19667216  -0.00969338  1
  Pd  Pd182  1  -0.00939574  0.40254928  -0.01320343  1
  Pd  Pd183  1  0.39024316  0.59703583  0.59984223  1
  Pd  Pd184  1  0.79857524  0.39301162  0.19264539  1
  Pd  Pd185  1  0.60338172  0.00197735  -0.00216555  1
  Pd  Pd186  1  0.59584293  0.20217081  0.40658932  1
  Pd  Pd187  1  0.61304674  0.79472604  -0.00159631  1
  Pd  Pd188  1  0.60639443  0.19617244  0.59163562  1
  Pd  Pd189  1  0.19747566  0.20586429  0.19389398  1
  Pd  Pd190  1  0.80227043  0.20240033  -0.00147209  1
  Pd  Pd191  1  0.18430380  0.61351608  -0.00251943  1
  Pd  Pd192  1  -0.00518829  0.59604729  0.19630510  1
  Pd  Pd193  1  0.20061643  0.59335399  0.41201278  1
  Pd  Pd194  1  0.19892577  0.60696115  0.59410335  1
  Pd  Pd195  1  0.20371964  0.81407032  0.39687233  1
  Pd  Pd196  1  0.18953299  0.40546072  0.39395770  1
  Pd  Pd197  1  0.20322716  0.60030304  0.19313851  1
  Pd  Pd198  1  -0.00437449  0.00315738  0.20749389  1
  Pd  Pd199  1  0.19435475  0.18884475  0.00646871  1
  Rh  Rh200  1  0.79979231  0.20452474  0.40580394  1
  Rh  Rh201  1  0.00688372  0.79740565  0.20152721  1
  Rh  Rh202  1  0.39881753  0.20156903  0.79543877  1
  Rh  Rh203  1  0.19572711  0.38905696  0.60950561  1
  Rh  Rh204  1  0.59973396  -0.00569624  0.39847650  1
  Rh  Rh205  1  0.79871969  0.60826062  0.78884307  1
  Rh  Rh206  1  -0.00110399  0.60039823  0.40557344  1
  Rh  Rh207  1  0.18903838  -0.00069266  0.80602896  1
  Rh  Rh208  1  -0.00711462  0.80324839  0.79496849  1
  Rh  Rh209  1  0.59667639  0.00417465  0.19787852  1
  Rh  Rh210  1  0.60211338  0.39918737  0.39979712  1
  Rh  Rh211  1  0.79577197  -0.00728291  0.00465666  1
  Rh  Rh212  1  0.79970770  0.58932615  0.60507287  1
  Rh  Rh213  1  -0.00437548  0.19477424  0.19668039  1
  Rh  Rh214  1  0.81117362  -0.00381384  0.79573591  1
  Rh  Rh215  1  0.20770572  0.00675471  0.59629900  1
  Rh  Rh216  1  0.00024182  0.40450663  0.39967099  1
  Rh  Rh217  1  0.40286109  -0.00312562  0.79867902  1
  Rh  Rh218  1  0.80002334  0.80833372  0.19978854  1
  Rh  Rh219  1  0.39093258  0.60977734  0.79005495  1
  Rh  Rh220  1  0.80208268  0.39747178  0.80599913  1
  Rh  Rh221  1  0.60518325  -0.00017084  0.59529797  1
  Rh  Rh222  1  0.40751818  0.00798852  0.19251420  1
  Rh  Rh223  1  0.20696476  0.80198789  0.81192980  1
  Rh  Rh224  1  0.19136972  0.79508856  0.59610115  1
  Rh  Rh225  1  0.80424447  0.60375540  -0.00303217  1
  Rh  Rh226  1  0.59422206  0.00767987  0.80998921  1
  Rh  Rh227  1  0.20670904  0.39929044  -0.00429846  1
  Rh  Rh228  1  0.40760312  0.59158229  0.00167032  1
  Rh  Rh229  1  -0.00135006  -0.00205534  0.61141343  1
  Rh  Rh230  1  0.00188997  0.19326195  -0.00483037  1
  Rh  Rh231  1  0.39343278  0.19560910  0.00509858  1
  Rh  Rh232  1  0.00786164  0.60672601  0.60070977  1
  Rh  Rh233  1  0.80685403  -0.00589786  0.40635090  1
  Rh  Rh234  1  0.19275776  0.19746042  0.40689876  1
  Rh  Rh235  1  0.19834028  0.20389586  0.78774413  1
  Rh  Rh236  1  0.00374288  0.40375037  0.20228638  1
  Rh  Rh237  1  0.00800074  0.00783463  -0.00673293  1
  Rh  Rh238  1  0.40603038  0.20471942  0.39673490  1
  Rh  Rh239  1  0.38826184  0.81414702  -0.01401309  1
  Rh  Rh240  1  0.80968198  0.60409080  0.39759137  1
  Rh  Rh241  1  0.39596069  -0.00684188  0.40726070  1
  Rh  Rh242  1  0.80482312  0.19767259  0.20007434  1
  Rh  Rh243  1  0.79731151  0.81377720  0.59821355  1
  Rh  Rh244  1  0.40183752  0.39884527  0.60057443  1
  Rh  Rh245  1  0.39711456  0.20056793  0.60129933  1
  Rh  Rh246  1  0.40272353  0.80755794  0.39607569  1
  Rh  Rh247  1  0.00559252  0.00123893  0.39519180  1
  Rh  Rh248  1  0.18933929  -0.00703050  0.21237360  1
  Rh  Rh249  1  0.80498267  0.59589407  0.20451084  1
