# generated using pymatgen
data_ZrScNbPdRh
_symmetry_space_group_name_H-M   'P 1'
_cell_length_a   16.55236858
_cell_length_b   16.55025307
_cell_length_c   16.55422562
_cell_angle_alpha   89.98762039
_cell_angle_beta   89.99889221
_cell_angle_gamma   89.98302366
_symmetry_Int_Tables_number   1
_chemical_formula_structural   ZrScNbPdRh
_chemical_formula_sum   'Zr50 Sc50 Nb50 Pd50 Rh50'
_cell_volume   4534.96174786
_cell_formula_units_Z   50
loop_
 _symmetry_equiv_pos_site_id
 _symmetry_equiv_pos_as_xyz
  1  'x, y, z'
loop_
 _atom_site_type_symbol
 _atom_site_label
 _atom_site_symmetry_multiplicity
 _atom_site_fract_x
 _atom_site_fract_y
 _atom_site_fract_z
 _atom_site_occupancy
  Zr  Zr0  1  0.10339070  0.69640289  0.09052631  1
  Zr  Zr1  1  0.30234788  0.50327091  0.29597500  1
  Zr  Zr2  1  0.10481007  0.50593714  0.50541940  1
  Zr  Zr3  1  0.71302574  0.70105925  0.50048887  1
  Zr  Zr4  1  0.49907022  0.30564162  0.50076327  1
  Zr  Zr5  1  0.30384930  0.29732828  0.70628216  1
  Zr  Zr6  1  0.29755035  0.30279672  0.89715763  1
  Zr  Zr7  1  0.29438418  0.09242491  0.28777667  1
  Zr  Zr8  1  0.08835485  0.70178857  0.49855178  1
  Zr  Zr9  1  0.30492857  0.09674274  0.50638678  1
  Zr  Zr10  1  0.89607004  0.90149136  0.91118700  1
  Zr  Zr11  1  0.70468223  0.90192711  0.09858389  1
  Zr  Zr12  1  0.50043331  0.49500444  0.50591430  1
  Zr  Zr13  1  0.50282250  0.10255919  0.10466035  1
  Zr  Zr14  1  0.49705659  0.89733776  0.30107701  1
  Zr  Zr15  1  0.10434079  0.49004115  0.28952614  1
  Zr  Zr16  1  0.10475526  0.90513369  0.70255268  1
  Zr  Zr17  1  0.29852049  0.10899646  0.89447356  1
  Zr  Zr18  1  0.69475166  0.30313532  0.30108125  1
  Zr  Zr19  1  0.89216529  0.70166317  0.68517857  1
  Zr  Zr20  1  0.29660709  0.69741340  0.89869508  1
  Zr  Zr21  1  0.50765880  0.29902284  0.10166297  1
  Zr  Zr22  1  0.70238124  0.10077374  0.50065750  1
  Zr  Zr23  1  0.10105040  0.70141989  0.30217109  1
  Zr  Zr24  1  0.69907224  0.90972306  0.90094356  1
  Zr  Zr25  1  0.50593973  0.91207228  0.09377384  1
  Zr  Zr26  1  0.30082274  0.50248144  0.09432324  1
  Zr  Zr27  1  0.08963142  0.29699495  0.50045228  1
  Zr  Zr28  1  0.89567346  0.30225627  0.09799006  1
  Zr  Zr29  1  0.89899767  0.48617638  0.90336432  1
  Zr  Zr30  1  0.30596558  0.70873946  0.29564175  1
  Zr  Zr31  1  0.69885120  0.49353109  0.88802261  1
  Zr  Zr32  1  0.50774969  0.10174372  0.90289275  1
  Zr  Zr33  1  0.70365149  0.69422463  0.70264661  1
  Zr  Zr34  1  0.10100547  0.30174249  0.89875339  1
  Zr  Zr35  1  0.89688499  0.69828195  0.31346589  1
  Zr  Zr36  1  0.09580310  0.30505380  0.70328444  1
  Zr  Zr37  1  0.11353885  0.90115611  0.30655903  1
  Zr  Zr38  1  0.30346211  0.09514544  0.70331653  1
  Zr  Zr39  1  0.30094537  0.10070955  0.09472120  1
  Zr  Zr40  1  0.29433300  0.30592325  0.30209095  1
  Zr  Zr41  1  0.90042971  0.90559630  0.69530160  1
  Zr  Zr42  1  0.09340255  0.50020793  0.89726103  1
  Zr  Zr43  1  0.30332287  0.69449412  0.09802635  1
  Zr  Zr44  1  0.50247006  0.70566036  0.49891280  1
  Zr  Zr45  1  0.89804406  0.10444631  0.69533090  1
  Zr  Zr46  1  0.09109544  0.89796430  0.09749591  1
  Zr  Zr47  1  0.30402023  0.90876615  0.11348678  1
  Zr  Zr48  1  0.50577266  0.68589758  0.10008024  1
  Zr  Zr49  1  0.50587857  0.10058794  0.50525524  1
  Sc  Sc50  1  0.09975799  0.09236759  0.69127380  1
  Sc  Sc51  1  0.70167173  0.49534824  0.30431574  1
  Sc  Sc52  1  0.90590377  0.10453176  0.49841064  1
  Sc  Sc53  1  0.70656390  0.48395851  0.49532911  1
  Sc  Sc54  1  0.10125156  0.89335113  0.90246994  1
  Sc  Sc55  1  0.89634351  0.69227216  0.89778544  1
  Sc  Sc56  1  0.70623487  0.90195899  0.30557362  1
  Sc  Sc57  1  0.70089001  0.10279495  0.30214457  1
  Sc  Sc58  1  0.70494981  0.70768682  0.30504157  1
  Sc  Sc59  1  0.30953998  0.49762386  0.50196561  1
  Sc  Sc60  1  0.50607756  0.29939404  0.69178070  1
  Sc  Sc61  1  0.10043537  0.68932077  0.69726080  1
  Sc  Sc62  1  0.30046308  0.29274376  0.09184412  1
  Sc  Sc63  1  0.49757433  0.70438237  0.70505150  1
  Sc  Sc64  1  0.69940535  0.29909687  0.50162369  1
  Sc  Sc65  1  0.49734708  0.10375076  0.70189081  1
  Sc  Sc66  1  0.10133666  0.70043431  0.89816151  1
  Sc  Sc67  1  0.09775934  0.49810711  0.70809511  1
  Sc  Sc68  1  0.50241686  0.89911788  0.69978930  1
  Sc  Sc69  1  0.29153289  0.90035983  0.88876212  1
  Sc  Sc70  1  0.89855944  0.29366281  0.29149014  1
  Sc  Sc71  1  0.89974066  0.89947044  0.50127187  1
  Sc  Sc72  1  0.90207121  0.10267316  0.10223579  1
  Sc  Sc73  1  0.29763613  0.70032518  0.70562975  1
  Sc  Sc74  1  0.89262348  0.90299630  0.29943370  1
  Sc  Sc75  1  0.09203365  0.29694280  0.10866784  1
  Sc  Sc76  1  0.89973635  0.30331455  0.69264737  1
  Sc  Sc77  1  0.89695651  0.09999939  0.30224704  1
  Sc  Sc78  1  0.29740965  0.51045781  0.70048646  1
  Sc  Sc79  1  0.50950600  0.89842206  0.89658018  1
  Sc  Sc80  1  0.89333785  0.90218386  0.10130636  1
  Sc  Sc81  1  0.29978263  0.90648638  0.69989949  1
  Sc  Sc82  1  0.50170206  0.89785272  0.50228606  1
  Sc  Sc83  1  0.50055283  0.69559103  0.89760670  1
  Sc  Sc84  1  0.09087155  0.10198325  0.29802478  1
  Sc  Sc85  1  0.69649311  0.69864612  0.10134660  1
  Sc  Sc86  1  0.89484576  0.50281603  0.49433254  1
  Sc  Sc87  1  0.69286374  0.69681611  0.89894515  1
  Sc  Sc88  1  0.30731909  0.69480949  0.50256692  1
  Sc  Sc89  1  0.30319269  0.90039706  0.49619751  1
  Sc  Sc90  1  0.89425974  0.29785492  0.50346863  1
  Sc  Sc91  1  0.49847819  0.69797020  0.29956602  1
  Sc  Sc92  1  0.88984196  0.49639507  0.70854572  1
  Sc  Sc93  1  0.69421948  0.89747457  0.49713354  1
  Sc  Sc94  1  0.50324953  0.49842354  0.09090114  1
  Sc  Sc95  1  0.69998007  0.29638695  0.10308607  1
  Sc  Sc96  1  0.89520372  0.71054344  0.09660604  1
  Sc  Sc97  1  0.50736242  0.30157341  0.90926301  1
  Sc  Sc98  1  0.50976502  0.50056846  0.29113049  1
  Sc  Sc99  1  0.30207716  0.50681836  0.89876247  1
  Nb  Nb100  1  0.50212165  0.29694234  0.29635131  1
  Nb  Nb101  1  0.09294569  0.49633445  0.09431694  1
  Nb  Nb102  1  0.70335909  0.30372557  0.69655046  1
  Nb  Nb103  1  0.09811917  0.10237051  0.90688028  1
  Nb  Nb104  1  0.69358055  0.50614480  0.10731509  1
  Nb  Nb105  1  0.89434841  0.10497289  0.90205596  1
  Nb  Nb106  1  0.69638021  0.10006190  0.09701317  1
  Nb  Nb107  1  0.89258426  0.29523175  0.90584674  1
  Nb  Nb108  1  0.69624554  0.49201939  0.70073984  1
  Nb  Nb109  1  0.30433138  0.90087723  0.29962441  1
  Nb  Nb110  1  0.09645136  0.29929812  0.30343712  1
  Nb  Nb111  1  0.30271936  0.30193395  0.50051876  1
  Nb  Nb112  1  0.90289052  0.49319797  0.10074802  1
  Nb  Nb113  1  0.89717911  0.70017888  0.49902634  1
  Nb  Nb114  1  0.70834180  0.10874958  0.89741682  1
  Nb  Nb115  1  0.70106042  0.89891561  0.70388878  1
  Nb  Nb116  1  0.10228642  0.90904536  0.50567493  1
  Nb  Nb117  1  0.50522041  0.49456117  0.70196437  1
  Nb  Nb118  1  0.10172515  0.09979098  0.10001102  1
  Nb  Nb119  1  0.10004764  0.09940409  0.49905277  1
  Nb  Nb120  1  0.49953942  0.10825547  0.30061160  1
  Nb  Nb121  1  0.49814309  0.49783129  0.89876574  1
  Nb  Nb122  1  0.89983710  0.49617445  0.29752601  1
  Nb  Nb123  1  0.69862012  0.10550593  0.70233438  1
  Nb  Nb124  1  0.70961018  0.29016143  0.90077613  1
  Nb  Nb125  1  -0.00536670  0.19492352  0.80872370  1
  Nb  Nb126  1  0.60239771  0.60001290  0.41033878  1
  Nb  Nb127  1  0.19364756  0.80271408  0.59483163  1
  Nb  Nb128  1  0.00159542  0.79478696  0.20437727  1
  Nb  Nb129  1  0.79965539  0.80515577  0.79680111  1
  Nb  Nb130  1  0.80642451  0.59368010  0.19803959  1
  Nb  Nb131  1  -0.00484888  0.59716071  0.19614429  1
  Nb  Nb132  1  0.79131476  0.00353925  0.60605109  1
  Nb  Nb133  1  0.40815605  0.40539169  0.80057245  1
  Nb  Nb134  1  0.20079639  0.20244463  0.59419319  1
  Nb  Nb135  1  -0.00427303  0.00511810  0.81065809  1
  Nb  Nb136  1  0.19315588  0.40347811  -0.00015331  1
  Nb  Nb137  1  -0.00816565  0.80441785  0.79610620  1
  Nb  Nb138  1  0.60062477  0.80477135  0.19751680  1
  Nb  Nb139  1  0.39983082  0.80056417  0.00228819  1
  Nb  Nb140  1  0.60319989  0.59255836  0.60173237  1
  Nb  Nb141  1  0.20307912  0.39271646  0.59998118  1
  Nb  Nb142  1  0.40229465  0.39503696  0.19771855  1
  Nb  Nb143  1  0.20057493  0.20176635  0.40467556  1
  Nb  Nb144  1  0.40173592  0.00625571  0.39262658  1
  Nb  Nb145  1  0.79721371  0.58684029  0.00741826  1
  Nb  Nb146  1  0.20068712  0.60041784  0.39619143  1
  Nb  Nb147  1  0.19602954  0.00751425  0.00173846  1
  Nb  Nb148  1  0.39810029  0.20016735  0.39628438  1
  Nb  Nb149  1  0.00064974  0.39955920  0.39346207  1
  Pd  Pd150  1  0.20882251  0.79346005  0.41075880  1
  Pd  Pd151  1  0.40430856  0.59795191  0.39589087  1
  Pd  Pd152  1  0.59844768  0.00484676  0.79549025  1
  Pd  Pd153  1  0.19634384  0.80165580  0.19351832  1
  Pd  Pd154  1  0.78640848  0.40255547  0.00484081  1
  Pd  Pd155  1  0.60270772  0.00047730  0.60868549  1
  Pd  Pd156  1  -0.01018460  0.58969222  0.60513240  1
  Pd  Pd157  1  0.79410438  0.40109262  0.20095954  1
  Pd  Pd158  1  0.79287561  0.78863044  -0.00846989  1
  Pd  Pd159  1  0.00004095  0.20465425  0.00207086  1
  Pd  Pd160  1  0.60504177  -0.00096230  0.20965877  1
  Pd  Pd161  1  0.40776103  -0.00392211  0.80526926  1
  Pd  Pd162  1  -0.00453359  0.81327853  0.39695612  1
  Pd  Pd163  1  0.79488517  0.58574843  0.59667320  1
  Pd  Pd164  1  0.40746401  0.60104321  0.60969618  1
  Pd  Pd165  1  0.39637831  0.20597075  0.20200071  1
  Pd  Pd166  1  0.19504732  0.20258936  0.20274456  1
  Pd  Pd167  1  -0.00017928  0.00258410  -0.00088063  1
  Pd  Pd168  1  0.20620121  0.39222721  0.18527414  1
  Pd  Pd169  1  0.00078678  -0.00557973  0.20585550  1
  Pd  Pd170  1  0.19491745  0.40260046  0.41029311  1
  Pd  Pd171  1  -0.00389452  -0.00330130  0.39931873  1
  Pd  Pd172  1  0.18771900  0.19053228  0.78937536  1
  Pd  Pd173  1  0.40580123  0.20265286  -0.00458703  1
  Pd  Pd174  1  -0.00253802  0.40991222  0.59446542  1
  Pd  Pd175  1  0.79715563  0.00820672  0.19867406  1
  Pd  Pd176  1  0.80308883  -0.00082495  0.79807823  1
  Pd  Pd177  1  0.61044971  0.40201408  0.00004685  1
  Pd  Pd178  1  0.80529375  0.20910875  0.79080992  1
  Pd  Pd179  1  0.00460924  0.58846693  0.39447686  1
  Pd  Pd180  1  0.40019762  0.20207880  0.59856611  1
  Pd  Pd181  1  -0.00810785  0.60581834  0.79428855  1
  Pd  Pd182  1  0.59762309  0.20421113  0.40322607  1
  Pd  Pd183  1  -0.01038772  0.60497772  0.00324785  1
  Pd  Pd184  1  0.59761303  0.20807958  0.79855520  1
  Pd  Pd185  1  0.59471124  0.60104853  0.79613141  1
  Pd  Pd186  1  0.60518910  0.79355042  0.60504488  1
  Pd  Pd187  1  0.39055649  0.80347373  0.60269091  1
  Pd  Pd188  1  0.40126205  0.80411139  0.80633211  1
  Pd  Pd189  1  0.59753824  0.38572540  0.80197010  1
  Pd  Pd190  1  0.21068237  0.81157587  0.00442576  1
  Pd  Pd191  1  0.41210211  0.79864169  0.18975245  1
  Pd  Pd192  1  0.80404655  0.20321975  0.39835819  1
  Pd  Pd193  1  0.40899974  0.40027586  0.38936117  1
  Pd  Pd194  1  0.39138545  -0.00692928  -0.01404660  1
  Pd  Pd195  1  0.20532174  0.00727808  0.40246329  1
  Pd  Pd196  1  0.59661074  -0.00030186  0.39564632  1
  Pd  Pd197  1  0.00644402  0.80369687  0.60358114  1
  Pd  Pd198  1  0.19560648  0.60183558  0.19994797  1
  Pd  Pd199  1  0.59562649  0.79682961  0.00392310  1
  Rh  Rh200  1  0.60744816  0.40047141  0.59893480  1
  Rh  Rh201  1  0.79285782  0.19734906  0.60145212  1
  Rh  Rh202  1  0.00690579  0.19497712  0.60697619  1
  Rh  Rh203  1  0.40508768  0.60546971  -0.00589165  1
  Rh  Rh204  1  0.19547302  0.59074664  -0.00659040  1
  Rh  Rh205  1  0.00007715  0.20394415  0.39585624  1
  Rh  Rh206  1  0.19112848  0.00751491  0.81112142  1
  Rh  Rh207  1  0.59737496  0.39784148  0.19923819  1
  Rh  Rh208  1  0.40656807  -0.00650892  0.59670672  1
  Rh  Rh209  1  0.61370999  0.61139064  0.21631575  1
  Rh  Rh210  1  0.39218172  0.40029510  -0.00246862  1
  Rh  Rh211  1  -0.00383917  0.79485851  -0.00146101  1
  Rh  Rh212  1  0.40402406  0.58951625  0.19705168  1
  Rh  Rh213  1  0.39010967  0.40345962  0.61436162  1
  Rh  Rh214  1  0.79501496  0.19512458  0.00925053  1
  Rh  Rh215  1  0.60685311  0.79958391  0.79870371  1
  Rh  Rh216  1  0.59774661  0.79375048  0.39374239  1
  Rh  Rh217  1  0.19702689  0.60115330  0.80473821  1
  Rh  Rh218  1  0.79983929  0.60111191  0.80720987  1
  Rh  Rh219  1  0.60546015  0.20206058  0.60271582  1
  Rh  Rh220  1  0.40591124  0.59517257  0.79861113  1
  Rh  Rh221  1  0.59569333  0.40264588  0.39882403  1
  Rh  Rh222  1  0.79419956  0.81069761  0.59869864  1
  Rh  Rh223  1  0.81051814  0.39100370  0.39488016  1
  Rh  Rh224  1  -0.00245101  0.19730974  0.19998000  1
  Rh  Rh225  1  0.79881684  0.40016533  0.60173076  1
  Rh  Rh226  1  0.60774745  0.19697984  0.20128171  1
  Rh  Rh227  1  0.41251142  0.21122834  0.80628973  1
  Rh  Rh228  1  0.60806844  0.19727776  -0.00030866  1
  Rh  Rh229  1  0.39908217  0.80600179  0.40235855  1
  Rh  Rh230  1  0.60744020  0.58943706  -0.01070346  1
  Rh  Rh231  1  0.19028790  0.79341813  0.78698251  1
  Rh  Rh232  1  0.80080366  0.00284039  0.41151926  1
  Rh  Rh233  1  -0.01369716  0.38715216  0.80532593  1
  Rh  Rh234  1  0.79980904  0.38923384  0.79798775  1
  Rh  Rh235  1  0.80551830  0.80821187  0.40685615  1
  Rh  Rh236  1  -0.00673959  0.00416319  0.59587591  1
  Rh  Rh237  1  0.20549188  -0.00141351  0.59545324  1
  Rh  Rh238  1  0.19160979  0.20222237  0.00622736  1
  Rh  Rh239  1  0.21234752  0.41079702  0.79982269  1
  Rh  Rh240  1  0.79413232  0.59525754  0.39680482  1
  Rh  Rh241  1  0.80034892  0.79471440  0.20216845  1
  Rh  Rh242  1  0.18852458  -0.00118448  0.19452473  1
  Rh  Rh243  1  0.00419723  0.39076053  -0.00063353  1
  Rh  Rh244  1  0.79698104  0.01184130  0.00453860  1
  Rh  Rh245  1  -0.00309016  0.39827176  0.20307955  1
  Rh  Rh246  1  0.79655648  0.19614336  0.19779717  1
  Rh  Rh247  1  0.41018189  0.00462830  0.20643979  1
  Rh  Rh248  1  0.20431298  0.60379138  0.59134256  1
  Rh  Rh249  1  0.60838902  0.01053719  -0.00540444  1
