# generated using pymatgen
data_ZrScNbPdRh
_symmetry_space_group_name_H-M   'P 1'
_cell_length_a   16.55864949
_cell_length_b   16.55747565
_cell_length_c   16.55912627
_cell_angle_alpha   89.96489127
_cell_angle_beta   90.00705222
_cell_angle_gamma   89.98807649
_symmetry_Int_Tables_number   1
_chemical_formula_structural   ZrScNbPdRh
_chemical_formula_sum   'Zr50 Sc50 Nb50 Pd50 Rh50'
_cell_volume   4540.00532170
_cell_formula_units_Z   50
loop_
 _symmetry_equiv_pos_site_id
 _symmetry_equiv_pos_as_xyz
  1  'x, y, z'
loop_
 _atom_site_type_symbol
 _atom_site_label
 _atom_site_symmetry_multiplicity
 _atom_site_fract_x
 _atom_site_fract_y
 _atom_site_fract_z
 _atom_site_occupancy
  Zr  Zr0  1  0.29371984  0.10354065  0.28907894  1
  Zr  Zr1  1  0.89685487  0.10341794  0.09394244  1
  Zr  Zr2  1  0.69355645  0.69608915  0.50643006  1
  Zr  Zr3  1  0.89985001  0.70921393  0.70250521  1
  Zr  Zr4  1  0.69942136  0.10623944  0.70261610  1
  Zr  Zr5  1  0.90085567  0.49138119  0.69762034  1
  Zr  Zr6  1  0.89988696  0.50004945  0.09508095  1
  Zr  Zr7  1  0.09882066  0.50154905  0.29270448  1
  Zr  Zr8  1  0.70358744  0.70050661  0.70438846  1
  Zr  Zr9  1  0.70488981  0.30182319  0.69629697  1
  Zr  Zr10  1  0.30439584  0.90099980  0.69517715  1
  Zr  Zr11  1  0.10076458  0.30944862  0.69858087  1
  Zr  Zr12  1  0.30414554  0.69643655  0.29848869  1
  Zr  Zr13  1  0.29442528  0.89289045  0.50095898  1
  Zr  Zr14  1  0.30282294  0.29684020  0.89783673  1
  Zr  Zr15  1  0.70824422  0.50370988  0.89806240  1
  Zr  Zr16  1  0.29511586  0.48822928  0.30306691  1
  Zr  Zr17  1  0.88510289  0.90159525  0.29905687  1
  Zr  Zr18  1  0.90303701  0.70141689  0.10349602  1
  Zr  Zr19  1  0.69908236  0.29855274  0.31228704  1
  Zr  Zr20  1  0.50418439  0.09473422  0.70213049  1
  Zr  Zr21  1  0.50712238  0.30177013  0.49503884  1
  Zr  Zr22  1  0.49522478  0.70861138  0.29825760  1
  Zr  Zr23  1  0.69874129  0.69819085  0.89668946  1
  Zr  Zr24  1  0.90348951  0.90063532  0.70496583  1
  Zr  Zr25  1  0.09666213  0.69949382  0.10197427  1
  Zr  Zr26  1  0.69483096  0.29855602  0.89262473  1
  Zr  Zr27  1  0.89575273  0.29666000  0.30250201  1
  Zr  Zr28  1  0.70253033  0.70773658  0.09186479  1
  Zr  Zr29  1  0.49186814  0.90343932  0.49502298  1
  Zr  Zr30  1  0.49853856  0.70753653  0.90209437  1
  Zr  Zr31  1  0.28970726  0.50296784  0.90557882  1
  Zr  Zr32  1  0.49562630  0.90167603  0.70218977  1
  Zr  Zr33  1  0.91779142  0.90404090  0.89962602  1
  Zr  Zr34  1  0.50340250  0.30008363  0.71131479  1
  Zr  Zr35  1  0.89393156  0.29590248  0.90893516  1
  Zr  Zr36  1  0.49805220  0.49842923  0.09673086  1
  Zr  Zr37  1  0.89770996  0.89114362  0.09888613  1
  Zr  Zr38  1  0.29514468  0.30333127  0.49545024  1
  Zr  Zr39  1  0.11518641  0.29814397  0.29996702  1
  Zr  Zr40  1  0.49758749  0.29722486  0.09327999  1
  Zr  Zr41  1  0.90416522  0.10823118  0.49881582  1
  Zr  Zr42  1  0.09452291  0.89328936  0.08981594  1
  Zr  Zr43  1  0.69958675  0.09186103  0.29862381  1
  Zr  Zr44  1  0.10673144  0.90750550  0.30070810  1
  Zr  Zr45  1  0.89848490  0.30075290  0.69681128  1
  Zr  Zr46  1  0.30174941  0.09514145  0.50712577  1
  Zr  Zr47  1  0.29592904  0.29168515  0.69850684  1
  Zr  Zr48  1  0.89789144  0.09692851  0.89257076  1
  Zr  Zr49  1  0.30088677  0.29379733  0.11341876  1
  Sc  Sc50  1  0.11222604  0.70884726  0.90177311  1
  Sc  Sc51  1  0.30530001  0.50613009  0.49464779  1
  Sc  Sc52  1  0.89483291  0.70914170  0.50787501  1
  Sc  Sc53  1  0.89493924  0.30235863  0.50169241  1
  Sc  Sc54  1  0.31375474  0.89941401  0.30143070  1
  Sc  Sc55  1  0.89199283  0.09685228  0.70001035  1
  Sc  Sc56  1  0.90911422  0.49999462  0.30387023  1
  Sc  Sc57  1  0.89098253  0.69859952  0.90491747  1
  Sc  Sc58  1  0.49872794  0.08800727  0.29662059  1
  Sc  Sc59  1  0.30896433  0.88569429  0.89934209  1
  Sc  Sc60  1  0.89928358  0.50024566  0.90112239  1
  Sc  Sc61  1  0.09812660  0.68827232  0.29893323  1
  Sc  Sc62  1  0.10391764  0.50084728  0.08611535  1
  Sc  Sc63  1  0.49659198  0.48469441  0.89946138  1
  Sc  Sc64  1  0.49280440  0.30657606  0.30159663  1
  Sc  Sc65  1  0.49630663  0.09544947  0.09817094  1
  Sc  Sc66  1  0.30346534  0.70922061  0.70047386  1
  Sc  Sc67  1  0.50301027  0.69311419  0.69836281  1
  Sc  Sc68  1  0.69887959  0.09643874  0.10023365  1
  Sc  Sc69  1  0.50412221  0.09847316  0.50568658  1
  Sc  Sc70  1  0.70353562  0.90813718  0.70347009  1
  Sc  Sc71  1  0.69882165  0.49653035  0.30725130  1
  Sc  Sc72  1  0.49788526  0.90245976  0.10680168  1
  Sc  Sc73  1  0.69634181  0.11018423  0.50405219  1
  Sc  Sc74  1  0.68632371  0.71303777  0.30906515  1
  Sc  Sc75  1  0.09281017  0.09580159  0.89800934  1
  Sc  Sc76  1  0.70475016  0.50649278  0.70146220  1
  Sc  Sc77  1  0.69905781  0.89823061  0.49097159  1
  Sc  Sc78  1  0.49563175  0.68707786  0.49404360  1
  Sc  Sc79  1  0.30212942  0.50418550  0.09754316  1
  Sc  Sc80  1  0.69290830  0.89551409  0.90287601  1
  Sc  Sc81  1  0.69896860  0.89941452  0.10986178  1
  Sc  Sc82  1  0.10019080  0.10264967  0.30527223  1
  Sc  Sc83  1  0.09649394  0.49989707  0.48723145  1
  Sc  Sc84  1  0.30894834  0.09182993  0.10577965  1
  Sc  Sc85  1  0.10186940  0.09650463  0.49212552  1
  Sc  Sc86  1  0.70766550  0.49773801  0.09633522  1
  Sc  Sc87  1  0.71483764  0.29903700  0.09376672  1
  Sc  Sc88  1  0.30315808  0.10343142  0.70045621  1
  Sc  Sc89  1  0.89321980  0.10103876  0.30664928  1
  Sc  Sc90  1  0.89295286  0.90037463  0.50275635  1
  Sc  Sc91  1  0.30563691  0.09545868  0.89483857  1
  Sc  Sc92  1  0.10495111  0.30817246  0.90125925  1
  Sc  Sc93  1  0.10817668  0.10706907  0.70030824  1
  Sc  Sc94  1  0.10664353  0.09300385  0.10562787  1
  Sc  Sc95  1  0.50270446  0.09657142  0.90387463  1
  Sc  Sc96  1  0.09639858  0.29450943  0.49527094  1
  Sc  Sc97  1  0.49566466  0.50409018  0.31484326  1
  Sc  Sc98  1  0.69833127  0.09890420  0.89630221  1
  Sc  Sc99  1  0.29109630  0.49974933  0.70019649  1
  Nb  Nb100  1  0.10137448  0.89423738  0.50459531  1
  Nb  Nb101  1  0.30956216  0.69761064  0.90667927  1
  Nb  Nb102  1  0.09982773  0.90094774  0.89827213  1
  Nb  Nb103  1  0.50222993  0.29846818  0.90142450  1
  Nb  Nb104  1  0.10686739  0.50520837  0.88970123  1
  Nb  Nb105  1  0.49377330  0.50109992  0.69393925  1
  Nb  Nb106  1  0.09903890  0.50407575  0.70186819  1
  Nb  Nb107  1  0.90369200  0.29986593  0.09830408  1
  Nb  Nb108  1  0.89878478  0.50626654  0.49970930  1
  Nb  Nb109  1  0.31422706  0.70634967  0.09499417  1
  Nb  Nb110  1  0.49635091  0.90923961  0.89374591  1
  Nb  Nb111  1  0.69604615  0.30625956  0.50093511  1
  Nb  Nb112  1  0.29762747  0.90031642  0.10173092  1
  Nb  Nb113  1  0.69553253  0.50185303  0.50012341  1
  Nb  Nb114  1  0.09509038  0.70751042  0.69470107  1
  Nb  Nb115  1  0.49481273  0.69443823  0.10347571  1
  Nb  Nb116  1  0.09947260  0.70953067  0.50139685  1
  Nb  Nb117  1  0.90607055  0.69708988  0.30040807  1
  Nb  Nb118  1  0.09402428  0.88885798  0.70586418  1
  Nb  Nb119  1  0.51329196  0.89680279  0.30154519  1
  Nb  Nb120  1  0.68332095  0.90424519  0.29950157  1
  Nb  Nb121  1  0.29143918  0.70520686  0.49798911  1
  Nb  Nb122  1  0.30009591  0.29652110  0.30260430  1
  Nb  Nb123  1  0.50337019  0.50332286  0.50515050  1
  Nb  Nb124  1  0.10013951  0.29624455  0.09559936  1
  Nb  Nb125  1  0.20215623  -0.00753449  -0.00501725  1
  Nb  Nb126  1  -0.00075539  0.20293283  0.19525716  1
  Nb  Nb127  1  0.80556637  -0.00466512  -0.00070447  1
  Nb  Nb128  1  0.60114432  0.39888820  0.19899054  1
  Nb  Nb129  1  0.79916708  0.60673241  0.20854985  1
  Nb  Nb130  1  0.20231731  0.19523689  0.00237687  1
  Nb  Nb131  1  0.59517570  0.60237931  0.00292124  1
  Nb  Nb132  1  0.39412655  0.20009947  0.39746767  1
  Nb  Nb133  1  0.19613072  -0.01109010  0.80173380  1
  Nb  Nb134  1  0.59991700  0.20686739  0.20056556  1
  Nb  Nb135  1  0.01022057  0.59917044  0.79484772  1
  Nb  Nb136  1  0.20756775  0.79735367  0.19312979  1
  Nb  Nb137  1  0.00134490  0.39033653  0.19167464  1
  Nb  Nb138  1  -0.00579763  0.00044022  0.20028904  1
  Nb  Nb139  1  0.59869080  0.79968013  0.59970747  1
  Nb  Nb140  1  0.80181668  0.60309204  0.40111192  1
  Nb  Nb141  1  0.60110008  0.59999427  0.19558376  1
  Nb  Nb142  1  0.00700716  -0.00737226  0.60066527  1
  Nb  Nb143  1  0.39642811  0.59900543  0.80529249  1
  Nb  Nb144  1  0.00220144  0.80129928  0.40097449  1
  Nb  Nb145  1  0.40540595  0.40148017  0.60066358  1
  Nb  Nb146  1  0.00463113  0.60279488  0.60182970  1
  Nb  Nb147  1  -0.00141939  0.20692938  0.79837798  1
  Nb  Nb148  1  0.59864870  0.40689085  0.59827960  1
  Nb  Nb149  1  0.19053767  0.60931170  0.59889336  1
  Pd  Pd150  1  0.20146302  0.61051584  0.00575446  1
  Pd  Pd151  1  0.38699383  0.59999806  0.60426178  1
  Pd  Pd152  1  0.39057795  0.39695737  0.00117577  1
  Pd  Pd153  1  0.19558267  0.79640398  0.38642638  1
  Pd  Pd154  1  0.39663584  0.00690545  0.39637008  1
  Pd  Pd155  1  0.19247461  -0.00430476  0.60888480  1
  Pd  Pd156  1  0.60396830  0.40958627  0.79327157  1
  Pd  Pd157  1  0.40738475  0.19347471  0.80454868  1
  Pd  Pd158  1  0.00885057  0.80596141  0.21327853  1
  Pd  Pd159  1  0.38934001  0.40523190  0.79482723  1
  Pd  Pd160  1  0.40223915  0.59068656  0.20647841  1
  Pd  Pd161  1  0.20590813  0.79932543  0.79944019  1
  Pd  Pd162  1  0.59007228  0.19116241  0.39074251  1
  Pd  Pd163  1  0.00488863  0.40598485  0.58862339  1
  Pd  Pd164  1  0.80170427  0.79297603  0.39672964  1
  Pd  Pd165  1  0.58804070  0.59092173  0.80706526  1
  Pd  Pd166  1  0.59684879  0.80465370  0.79226499  1
  Pd  Pd167  1  0.59077402  0.80432362  0.00631168  1
  Pd  Pd168  1  0.00091116  0.39334437  0.39577384  1
  Pd  Pd169  1  -0.00152933  0.39995220  0.81036973  1
  Pd  Pd170  1  0.39448617  0.19249035  -0.00124354  1
  Pd  Pd171  1  0.00484906  0.60396031  -0.01298542  1
  Pd  Pd172  1  0.60885977  0.40161536  0.00371535  1
  Pd  Pd173  1  0.40949464  0.79049190  0.59360325  1
  Pd  Pd174  1  0.80154956  0.00200423  0.59488619  1
  Pd  Pd175  1  0.20015724  0.60046771  0.40446725  1
  Pd  Pd176  1  0.41041892  0.81116716  0.00466245  1
  Pd  Pd177  1  0.80542689  0.59891508  0.60040135  1
  Pd  Pd178  1  0.60471380  -0.00534538  0.00343249  1
  Pd  Pd179  1  -0.00348694  -0.00764128  0.40211781  1
  Pd  Pd180  1  0.79689993  0.19833205  0.20091066  1
  Pd  Pd181  1  0.80113701  0.80963539  0.80780835  1
  Pd  Pd182  1  0.20560348  0.39787131  0.79878812  1
  Pd  Pd183  1  0.20323026  0.61408731  0.79276556  1
  Pd  Pd184  1  0.00414225  0.40462741  -0.00412191  1
  Pd  Pd185  1  0.20087619  0.41055847  0.58954538  1
  Pd  Pd186  1  0.40870587  0.20563822  0.59458771  1
  Pd  Pd187  1  0.19259396  0.19949130  0.59299943  1
  Pd  Pd188  1  0.00957711  0.19430983  -0.00196865  1
  Pd  Pd189  1  0.40490935  0.40431979  0.20222702  1
  Pd  Pd190  1  0.79239612  0.00530771  0.40859901  1
  Pd  Pd191  1  0.80200623  0.40740681  0.20394570  1
  Pd  Pd192  1  0.20712759  0.60376339  0.19030355  1
  Pd  Pd193  1  0.20860478  0.00042333  0.40050584  1
  Pd  Pd194  1  0.78900776  0.79410864  0.21117690  1
  Pd  Pd195  1  0.60569320  -0.00828774  0.59594085  1
  Pd  Pd196  1  0.80396701  0.40823920  0.40566788  1
  Pd  Pd197  1  0.60433487  0.19777666  0.00457381  1
  Pd  Pd198  1  0.00395300  0.19244915  0.60570833  1
  Pd  Pd199  1  0.19535275  0.40363798  0.18905986  1
  Rh  Rh200  1  0.20687229  0.80030748  0.00542533  1
  Rh  Rh201  1  0.40706111  0.59472930  -0.00969067  1
  Rh  Rh202  1  0.40039665  0.00299789  0.60272836  1
  Rh  Rh203  1  0.20195393  0.79835004  0.60533765  1
  Rh  Rh204  1  0.40165805  0.79562967  0.40475295  1
  Rh  Rh205  1  0.59902678  0.20985210  0.60550137  1
  Rh  Rh206  1  -0.01013856  0.61373149  0.41447850  1
  Rh  Rh207  1  0.80153461  0.39938140  0.80350433  1
  Rh  Rh208  1  0.01156103  0.01018537  0.78302888  1
  Rh  Rh209  1  0.39926698  0.39616944  0.40825563  1
  Rh  Rh210  1  0.20602809  0.39025652  0.00394048  1
  Rh  Rh211  1  0.78589170  0.80801582  0.60424430  1
  Rh  Rh212  1  0.79563264  0.19912000  0.40862652  1
  Rh  Rh213  1  0.20793875  0.19195458  0.40535146  1
  Rh  Rh214  1  0.60157482  0.59994909  0.60600281  1
  Rh  Rh215  1  0.80252044  0.80971946  -0.00785847  1
  Rh  Rh216  1  0.59030988  0.80169957  0.41224905  1
  Rh  Rh217  1  0.41097689  0.19858446  0.20900128  1
  Rh  Rh218  1  0.39915503  0.80697696  0.19851043  1
  Rh  Rh219  1  -0.00055306  0.20444960  0.39200861  1
  Rh  Rh220  1  0.79793670  0.20270240  0.59527902  1
  Rh  Rh221  1  0.19163511  0.19409572  0.81199854  1
  Rh  Rh222  1  0.40476706  0.79450728  0.79931258  1
  Rh  Rh223  1  0.60113998  -0.00020992  0.80201716  1
  Rh  Rh224  1  0.60140849  0.00398133  0.40557579  1
  Rh  Rh225  1  0.59808556  0.40764743  0.40097185  1
  Rh  Rh226  1  -0.00442650  0.80550175  0.59222738  1
  Rh  Rh227  1  0.19337913  0.19723487  0.19290857  1
  Rh  Rh228  1  0.79360531  -0.00552031  0.81105914  1
  Rh  Rh229  1  0.79235187  0.19197250  -0.00505454  1
  Rh  Rh230  1  -0.00192517  0.78778477  -0.00926838  1
  Rh  Rh231  1  0.19543490  -0.01032896  0.19237673  1
  Rh  Rh232  1  0.00061378  0.78713830  0.81031958  1
  Rh  Rh233  1  0.39325006  0.60223289  0.39935801  1
  Rh  Rh234  1  0.59722208  0.00622049  0.19620992  1
  Rh  Rh235  1  0.40355380  -0.00662650  0.20431070  1
  Rh  Rh236  1  0.59538685  0.19514754  0.80413662  1
  Rh  Rh237  1  0.80276094  -0.00040121  0.19288534  1
  Rh  Rh238  1  0.39441977  0.00101977  0.80025366  1
  Rh  Rh239  1  0.79281790  0.40375613  0.59231332  1
  Rh  Rh240  1  0.79854410  0.39807709  -0.00565154  1
  Rh  Rh241  1  0.60439606  0.59800660  0.39230032  1
  Rh  Rh242  1  0.59676725  0.79495200  0.19382718  1
  Rh  Rh243  1  0.39552205  -0.00629975  -0.00352855  1
  Rh  Rh244  1  0.80441998  0.20368622  0.79860697  1
  Rh  Rh245  1  -0.00586299  0.58728803  0.19463131  1
  Rh  Rh246  1  0.19693148  0.40311805  0.40314128  1
  Rh  Rh247  1  0.79539612  0.60177426  0.00683088  1
  Rh  Rh248  1  0.81465493  0.59768739  0.79433015  1
  Rh  Rh249  1  0.00097578  0.00518989  0.00868667  1
