# generated using pymatgen
data_ZrScNbPdRh
_symmetry_space_group_name_H-M   'P 1'
_cell_length_a   16.55958062
_cell_length_b   16.55571676
_cell_length_c   16.56021885
_cell_angle_alpha   89.98521276
_cell_angle_beta   89.99812272
_cell_angle_gamma   89.96293127
_symmetry_Int_Tables_number   1
_chemical_formula_structural   ZrScNbPdRh
_chemical_formula_sum   'Zr50 Sc50 Nb50 Pd50 Rh50'
_cell_volume   4540.07772143
_cell_formula_units_Z   50
loop_
 _symmetry_equiv_pos_site_id
 _symmetry_equiv_pos_as_xyz
  1  'x, y, z'
loop_
 _atom_site_type_symbol
 _atom_site_label
 _atom_site_symmetry_multiplicity
 _atom_site_fract_x
 _atom_site_fract_y
 _atom_site_fract_z
 _atom_site_occupancy
  Zr  Zr0  1  0.09751730  0.10564155  0.49197612  1
  Zr  Zr1  1  0.70180636  0.88910705  0.88953877  1
  Zr  Zr2  1  0.30266579  0.10002822  0.09251344  1
  Zr  Zr3  1  0.28948445  0.89031960  0.09516896  1
  Zr  Zr4  1  0.91128309  0.90235699  0.29652521  1
  Zr  Zr5  1  0.49904406  0.10036373  0.10352324  1
  Zr  Zr6  1  0.89992784  0.89127870  0.89429866  1
  Zr  Zr7  1  0.91027442  0.50377319  0.90325920  1
  Zr  Zr8  1  0.10313444  0.89278743  0.70065462  1
  Zr  Zr9  1  0.69807847  0.70163700  0.29824498  1
  Zr  Zr10  1  0.49928210  0.90505743  0.29638371  1
  Zr  Zr11  1  0.50024834  0.69857927  0.10049554  1
  Zr  Zr12  1  0.10273042  0.49653403  0.89721724  1
  Zr  Zr13  1  0.29788070  0.91584089  0.89202350  1
  Zr  Zr14  1  0.90669012  0.29996995  0.90298679  1
  Zr  Zr15  1  0.29568110  0.68988859  0.90946400  1
  Zr  Zr16  1  0.49879421  0.29929072  0.90572033  1
  Zr  Zr17  1  0.10951170  0.71023207  0.09332162  1
  Zr  Zr18  1  0.10594241  0.10754455  0.89482638  1
  Zr  Zr19  1  0.09034573  0.69384203  0.89774440  1
  Zr  Zr20  1  0.49921851  0.29635124  0.10102628  1
  Zr  Zr21  1  0.89916971  0.49026739  0.09701642  1
  Zr  Zr22  1  0.89661038  0.29776022  0.29781620  1
  Zr  Zr23  1  0.49403540  0.30211721  0.30002051  1
  Zr  Zr24  1  0.90805615  0.91020690  0.70329235  1
  Zr  Zr25  1  0.89649128  0.70685514  0.29632696  1
  Zr  Zr26  1  0.29874097  0.30910524  0.69597579  1
  Zr  Zr27  1  0.90268145  0.90107101  0.10573255  1
  Zr  Zr28  1  0.69999225  0.29032717  0.50760956  1
  Zr  Zr29  1  0.70382842  0.49755841  0.90143204  1
  Zr  Zr30  1  0.49630228  0.89771607  0.49255925  1
  Zr  Zr31  1  0.30127107  0.89801573  0.49362170  1
  Zr  Zr32  1  0.69836116  0.71152213  0.50258961  1
  Zr  Zr33  1  0.49611177  0.10442697  0.70047155  1
  Zr  Zr34  1  0.50362634  0.89313673  0.70908182  1
  Zr  Zr35  1  0.50176791  0.69966712  0.50245596  1
  Zr  Zr36  1  0.89682682  0.50226360  0.29865838  1
  Zr  Zr37  1  0.09137200  0.50297724  0.29740847  1
  Zr  Zr38  1  0.10911018  0.69747001  0.69550545  1
  Zr  Zr39  1  0.30660011  0.70262707  0.10322593  1
  Zr  Zr40  1  0.50215813  0.30465005  0.70041253  1
  Zr  Zr41  1  0.70418311  0.29631000  0.90147473  1
  Zr  Zr42  1  0.70300824  0.10258701  0.50060124  1
  Zr  Zr43  1  0.10846047  0.29695452  0.49945151  1
  Zr  Zr44  1  0.10037838  0.89970716  0.90078522  1
  Zr  Zr45  1  0.49122862  0.70219282  0.30314194  1
  Zr  Zr46  1  0.09841143  0.70151161  0.51007951  1
  Zr  Zr47  1  0.67810800  0.70221119  0.70176521  1
  Zr  Zr48  1  0.09708197  0.89964443  0.49309156  1
  Zr  Zr49  1  0.69392488  0.50217717  0.70676284  1
  Sc  Sc50  1  0.70695905  0.10266231  0.29943778  1
  Sc  Sc51  1  0.49845161  0.49841107  0.30113221  1
  Sc  Sc52  1  0.09726299  0.29751506  0.69621450  1
  Sc  Sc53  1  0.29827824  0.10558977  0.49354138  1
  Sc  Sc54  1  0.70742194  0.30158857  0.70349180  1
  Sc  Sc55  1  0.71227289  0.10902014  0.69917630  1
  Sc  Sc56  1  0.70272420  0.89877531  0.29517216  1
  Sc  Sc57  1  0.30311655  0.69104718  0.50331950  1
  Sc  Sc58  1  0.10544154  0.09721785  0.09315741  1
  Sc  Sc59  1  0.90784699  0.49241747  0.69858637  1
  Sc  Sc60  1  0.31068568  0.49384178  0.30639073  1
  Sc  Sc61  1  0.30619223  0.30210906  0.09413931  1
  Sc  Sc62  1  0.69719092  0.49747740  0.09592111  1
  Sc  Sc63  1  0.48923241  0.51115902  0.49738301  1
  Sc  Sc64  1  0.90435715  0.70746575  0.09060405  1
  Sc  Sc65  1  0.69462646  0.89349794  0.10943199  1
  Sc  Sc66  1  0.70173218  0.49874475  0.30306929  1
  Sc  Sc67  1  0.09651360  0.50511662  0.69989998  1
  Sc  Sc68  1  0.48571946  0.09721754  0.91033890  1
  Sc  Sc69  1  0.90340150  0.70572815  0.49649785  1
  Sc  Sc70  1  0.90162437  0.29548053  0.50514780  1
  Sc  Sc71  1  0.30502161  0.30589237  0.30755341  1
  Sc  Sc72  1  0.29307004  0.09203979  0.71534074  1
  Sc  Sc73  1  0.91739901  0.70451198  0.69834791  1
  Sc  Sc74  1  0.90242828  0.29579053  0.69952616  1
  Sc  Sc75  1  0.70725630  0.29713324  0.09482570  1
  Sc  Sc76  1  0.50148793  0.49394108  0.10613593  1
  Sc  Sc77  1  0.30451894  0.90118959  0.29526249  1
  Sc  Sc78  1  0.50432457  0.49621530  0.88837948  1
  Sc  Sc79  1  0.89947537  0.10075908  0.11050965  1
  Sc  Sc80  1  0.90184286  0.09738332  0.30499415  1
  Sc  Sc81  1  0.50042457  0.89192918  0.10235706  1
  Sc  Sc82  1  0.70487695  0.50728925  0.49772840  1
  Sc  Sc83  1  0.48964177  0.29125317  0.50839304  1
  Sc  Sc84  1  0.70129389  0.10545387  0.10283739  1
  Sc  Sc85  1  0.50177126  0.69728707  0.90398685  1
  Sc  Sc86  1  0.08685055  0.50057077  0.09355216  1
  Sc  Sc87  1  0.30627265  0.50064827  0.09679361  1
  Sc  Sc88  1  0.90229807  0.10458424  0.88363444  1
  Sc  Sc89  1  0.08535540  0.70540960  0.29786782  1
  Sc  Sc90  1  0.49760025  0.10831063  0.49951948  1
  Sc  Sc91  1  0.90016561  0.09974448  0.50107067  1
  Sc  Sc92  1  0.90223869  0.49918461  0.50357769  1
  Sc  Sc93  1  0.10025981  0.90026419  0.10318982  1
  Sc  Sc94  1  0.30422345  0.50515184  0.69838496  1
  Sc  Sc95  1  0.09855365  0.50089823  0.50736713  1
  Sc  Sc96  1  0.70699999  0.29541101  0.30524446  1
  Sc  Sc97  1  0.49481285  0.89440618  0.90433476  1
  Sc  Sc98  1  0.70464494  0.89286811  0.69718719  1
  Sc  Sc99  1  0.89482936  0.90162733  0.49977960  1
  Nb  Nb100  1  0.69977495  0.10221989  0.90311016  1
  Nb  Nb101  1  0.29033173  0.30439701  0.89605000  1
  Nb  Nb102  1  0.29735035  0.49444701  0.49689591  1
  Nb  Nb103  1  0.29402566  0.10474943  0.90232825  1
  Nb  Nb104  1  0.70706775  0.69718470  0.90384364  1
  Nb  Nb105  1  0.91408515  0.10589813  0.69952475  1
  Nb  Nb106  1  0.10080092  0.29567020  0.30348241  1
  Nb  Nb107  1  0.90559141  0.29959181  0.10091414  1
  Nb  Nb108  1  0.09928927  0.29591334  0.09886658  1
  Nb  Nb109  1  0.49284788  0.09819623  0.29573205  1
  Nb  Nb110  1  0.29330331  0.48459186  0.89633479  1
  Nb  Nb111  1  0.08889138  0.09609547  0.69733889  1
  Nb  Nb112  1  0.29748821  0.31442111  0.50311728  1
  Nb  Nb113  1  0.10199215  0.09957743  0.30127754  1
  Nb  Nb114  1  0.09903775  0.90740494  0.29778993  1
  Nb  Nb115  1  0.69329435  0.90332191  0.50481195  1
  Nb  Nb116  1  0.89708097  0.70166568  0.89822945  1
  Nb  Nb117  1  0.69766897  0.69656975  0.09830777  1
  Nb  Nb118  1  0.29740390  0.89741511  0.69976332  1
  Nb  Nb119  1  0.49245439  0.68895941  0.69939858  1
  Nb  Nb120  1  0.29501386  0.70170900  0.29598250  1
  Nb  Nb121  1  0.50960729  0.51371939  0.69882054  1
  Nb  Nb122  1  0.11057168  0.29918743  0.90734340  1
  Nb  Nb123  1  0.29720060  0.70236381  0.69736171  1
  Nb  Nb124  1  0.30698746  0.09990140  0.29185399  1
  Nb  Nb125  1  0.19765731  0.79600987  0.39474076  1
  Nb  Nb126  1  0.19919618  0.59789774  0.20428981  1
  Nb  Nb127  1  0.59318275  0.19988281  0.20359813  1
  Nb  Nb128  1  0.39169194  0.79179146  0.79561226  1
  Nb  Nb129  1  0.19944346  -0.00205269  0.60020142  1
  Nb  Nb130  1  0.00288851  0.39370643  0.39587866  1
  Nb  Nb131  1  0.39728324  -0.00552646  0.60398490  1
  Nb  Nb132  1  0.80171677  0.60630714  0.80158796  1
  Nb  Nb133  1  0.19973612  0.20188527  0.20464050  1
  Nb  Nb134  1  0.19974418  0.60206892  0.39493411  1
  Nb  Nb135  1  0.39776563  0.79845220  0.60824990  1
  Nb  Nb136  1  0.00980681  0.20368225  0.20254009  1
  Nb  Nb137  1  0.60235887  0.00720035  0.80304965  1
  Nb  Nb138  1  0.79873990  -0.00167200  -0.00543597  1
  Nb  Nb139  1  0.19190292  0.39708654  0.20119258  1
  Nb  Nb140  1  0.59651402  0.19558161  0.80872656  1
  Nb  Nb141  1  0.79744131  0.60653081  0.60969346  1
  Nb  Nb142  1  0.79852610  0.60484157  0.19289575  1
  Nb  Nb143  1  0.59766905  0.40635599  0.59847463  1
  Nb  Nb144  1  0.59849517  -0.00026964  0.59981429  1
  Nb  Nb145  1  -0.00700798  -0.00023458  -0.00485782  1
  Nb  Nb146  1  0.59935749  0.00331737  0.40151520  1
  Nb  Nb147  1  0.60762213  0.00067375  -0.00512457  1
  Nb  Nb148  1  0.59813208  0.39452457  0.41028561  1
  Nb  Nb149  1  0.39323278  0.20525044  0.80679226  1
  Pd  Pd150  1  0.21255477  0.20140363  0.39314661  1
  Pd  Pd151  1  0.40190536  0.40207343  0.79685706  1
  Pd  Pd152  1  0.39603552  0.59435581  0.20451490  1
  Pd  Pd153  1  0.80745851  0.79506508  0.60674491  1
  Pd  Pd154  1  0.40410913  -0.01024600  0.00742638  1
  Pd  Pd155  1  0.81295313  0.19178579  0.00007034  1
  Pd  Pd156  1  0.60826712  0.39164389  0.20888545  1
  Pd  Pd157  1  0.39312659  0.20268348  0.40071654  1
  Pd  Pd158  1  0.80491551  0.59926348  0.00274100  1
  Pd  Pd159  1  0.59964126  0.40148371  0.00050317  1
  Pd  Pd160  1  0.79535081  -0.00504858  0.39792931  1
  Pd  Pd161  1  0.20444380  0.18961185  0.60669351  1
  Pd  Pd162  1  0.00734061  0.39249402  0.80063077  1
  Pd  Pd163  1  0.40807531  0.41271448  0.59947386  1
  Pd  Pd164  1  0.00248007  0.39234917  0.20332384  1
  Pd  Pd165  1  0.20446524  -0.00198530  0.39739323  1
  Pd  Pd166  1  0.38132487  0.19100845  0.60958424  1
  Pd  Pd167  1  0.19354430  0.40864525  0.60743410  1
  Pd  Pd168  1  0.79609421  0.80676317  0.00824266  1
  Pd  Pd169  1  0.80808445  0.40451039  0.80260087  1
  Pd  Pd170  1  0.79452975  0.00094817  0.19630149  1
  Pd  Pd171  1  0.20499338  0.59398637  0.79728168  1
  Pd  Pd172  1  0.59400007  0.59360978  -0.00235355  1
  Pd  Pd173  1  0.59987419  0.59354307  0.40041068  1
  Pd  Pd174  1  0.60368564  0.59752264  0.20240693  1
  Pd  Pd175  1  0.79642415  0.00608021  0.79814618  1
  Pd  Pd176  1  0.59699989  0.19829414  0.39130544  1
  Pd  Pd177  1  0.80397408  0.78791479  0.78416405  1
  Pd  Pd178  1  0.39337411  0.59925406  0.80581079  1
  Pd  Pd179  1  -0.00364587  0.60970467  0.18791532  1
  Pd  Pd180  1  0.20067420  0.00521448  0.19927977  1
  Pd  Pd181  1  0.00074510  0.59679571  0.40872078  1
  Pd  Pd182  1  0.79129963  0.40240702  0.19628245  1
  Pd  Pd183  1  0.00403812  -0.00158433  0.59131434  1
  Pd  Pd184  1  0.39549249  -0.00943321  0.18889450  1
  Pd  Pd185  1  0.80379463  0.60574053  0.40284811  1
  Pd  Pd186  1  0.79794633  0.00315659  0.60665683  1
  Pd  Pd187  1  0.19735325  0.40403299  0.01171400  1
  Pd  Pd188  1  0.79919504  0.80996874  0.39895512  1
  Pd  Pd189  1  0.60356445  0.80370757  -0.00132398  1
  Pd  Pd190  1  0.19391573  0.40865553  0.39385046  1
  Pd  Pd191  1  0.20388613  0.79425681  0.80969713  1
  Pd  Pd192  1  0.80102940  0.39561582  0.40907385  1
  Pd  Pd193  1  0.40867116  0.58625636  -0.00744434  1
  Pd  Pd194  1  0.19848558  0.58910431  0.00926630  1
  Pd  Pd195  1  0.79585292  0.40747307  0.59904349  1
  Pd  Pd196  1  -0.00470387  0.19042675  0.00511813  1
  Pd  Pd197  1  0.19921991  0.20494476  0.78947532  1
  Pd  Pd198  1  0.60287497  0.80781690  0.39259030  1
  Pd  Pd199  1  0.40289134  0.40580685  -0.00321274  1
  Rh  Rh200  1  0.58857988  0.80501984  0.59977305  1
  Rh  Rh201  1  0.19194993  0.79643231  0.21058197  1
  Rh  Rh202  1  0.19422766  0.40156171  0.79320119  1
  Rh  Rh203  1  0.20577141  0.80403495  0.58844497  1
  Rh  Rh204  1  0.00889791  0.01021556  0.19496866  1
  Rh  Rh205  1  0.80299233  0.20244080  0.19875834  1
  Rh  Rh206  1  0.79735690  0.79134634  0.19363270  1
  Rh  Rh207  1  0.60450641  0.60719703  0.81426379  1
  Rh  Rh208  1  0.39461056  0.59888864  0.60038269  1
  Rh  Rh209  1  -0.00869628  0.59883257  0.60006875  1
  Rh  Rh210  1  0.41021589  0.39573056  0.41257766  1
  Rh  Rh211  1  0.60532157  0.20315704  0.61295700  1
  Rh  Rh212  1  0.40500525  0.00222207  0.79827660  1
  Rh  Rh213  1  0.80990281  0.19674318  0.60396470  1
  Rh  Rh214  1  0.39176844  0.60320710  0.39714608  1
  Rh  Rh215  1  0.38922038  0.20609286  -0.00808155  1
  Rh  Rh216  1  0.20597492  0.59331441  0.59462452  1
  Rh  Rh217  1  -0.00519994  0.80912092  0.59819570  1
  Rh  Rh218  1  0.00568503  0.80179886  0.19604267  1
  Rh  Rh219  1  0.40173046  0.80289725  0.20043050  1
  Rh  Rh220  1  0.20622711  0.20527174  0.00597284  1
  Rh  Rh221  1  0.80391713  0.39580051  -0.00107838  1
  Rh  Rh222  1  0.00599136  0.39295845  -0.00466517  1
  Rh  Rh223  1  0.39260302  0.40083226  0.19718379  1
  Rh  Rh224  1  -0.00133229  0.60561532  0.00227491  1
  Rh  Rh225  1  0.00452242  0.39409972  0.59147201  1
  Rh  Rh226  1  0.80082277  0.20108871  0.79930018  1
  Rh  Rh227  1  0.60519594  0.59604507  0.58953738  1
  Rh  Rh228  1  0.40393918  0.01161703  0.40284433  1
  Rh  Rh229  1  0.20202466  0.80173110  -0.01104022  1
  Rh  Rh230  1  0.60234382  0.01049869  0.20299473  1
  Rh  Rh231  1  0.00547587  0.00120388  0.80626015  1
  Rh  Rh232  1  0.00050713  0.80542757  -0.00267968  1
  Rh  Rh233  1  0.00474049  0.79690613  0.79841104  1
  Rh  Rh234  1  -0.00445934  0.60050585  0.79799604  1
  Rh  Rh235  1  0.00889903  0.20850833  0.80026187  1
  Rh  Rh236  1  0.00202534  0.20104370  0.59599927  1
  Rh  Rh237  1  0.59788854  0.19334098  0.00513561  1
  Rh  Rh238  1  0.19336698  -0.00011143  -0.00253599  1
  Rh  Rh239  1  0.80657517  0.19832430  0.40481921  1
  Rh  Rh240  1  0.00192668  0.80488263  0.39843815  1
  Rh  Rh241  1  0.38863644  0.78901897  0.40169601  1
  Rh  Rh242  1  0.59524442  0.79206309  0.20257298  1
  Rh  Rh243  1  0.18828710  0.00251677  0.79438978  1
  Rh  Rh244  1  0.59018051  0.79258593  0.81006390  1
  Rh  Rh245  1  -0.00288031  0.00281082  0.39956295  1
  Rh  Rh246  1  0.39082610  0.80206988  -0.00885513  1
  Rh  Rh247  1  0.39662839  0.20580196  0.20321495  1
  Rh  Rh248  1  -0.00472288  0.20232798  0.39650500  1
  Rh  Rh249  1  0.60148210  0.39200731  0.79586087  1
