# generated using pymatgen
data_ZrScNbPdRh
_symmetry_space_group_name_H-M   'P 1'
_cell_length_a   16.55795570
_cell_length_b   16.55743378
_cell_length_c   16.56325051
_cell_angle_alpha   90.01819132
_cell_angle_beta   89.98474169
_cell_angle_gamma   90.00094720
_symmetry_Int_Tables_number   1
_chemical_formula_structural   ZrScNbPdRh
_chemical_formula_sum   'Zr50 Sc50 Nb50 Pd50 Rh50'
_cell_volume   4540.93490404
_cell_formula_units_Z   50
loop_
 _symmetry_equiv_pos_site_id
 _symmetry_equiv_pos_as_xyz
  1  'x, y, z'
loop_
 _atom_site_type_symbol
 _atom_site_label
 _atom_site_symmetry_multiplicity
 _atom_site_fract_x
 _atom_site_fract_y
 _atom_site_fract_z
 _atom_site_occupancy
  Zr  Zr0  1  0.89325103  0.29606516  0.90329603  1
  Zr  Zr1  1  0.50214109  0.90646414  0.09761157  1
  Zr  Zr2  1  0.90326340  0.89139949  0.90553717  1
  Zr  Zr3  1  0.29888761  0.30042588  0.49617885  1
  Zr  Zr4  1  0.09688703  0.49004956  0.09764011  1
  Zr  Zr5  1  0.69728894  0.89480932  0.91000893  1
  Zr  Zr6  1  0.69544311  0.29690566  0.29479631  1
  Zr  Zr7  1  0.70429082  0.28711133  0.49031082  1
  Zr  Zr8  1  0.29671488  0.50181708  0.50136177  1
  Zr  Zr9  1  0.49706817  0.29578074  0.29568389  1
  Zr  Zr10  1  0.49510778  0.89621781  0.50406731  1
  Zr  Zr11  1  0.90840774  0.48669353  0.49837720  1
  Zr  Zr12  1  0.91206980  0.69623962  0.90029746  1
  Zr  Zr13  1  0.29795101  0.70270147  0.10663591  1
  Zr  Zr14  1  0.71091566  0.10803434  0.90187256  1
  Zr  Zr15  1  0.29924783  0.70636244  0.89399807  1
  Zr  Zr16  1  0.88944556  0.31353725  0.31039346  1
  Zr  Zr17  1  0.49530474  0.89941574  0.29870028  1
  Zr  Zr18  1  0.50466257  0.50086675  0.68178926  1
  Zr  Zr19  1  0.69996631  0.70195586  0.69942080  1
  Zr  Zr20  1  0.10634070  0.09819089  0.30733681  1
  Zr  Zr21  1  0.29159134  0.10852887  0.49572329  1
  Zr  Zr22  1  0.30610528  0.29917141  0.89760691  1
  Zr  Zr23  1  0.49842388  0.50089991  0.29854997  1
  Zr  Zr24  1  0.49565781  0.70262429  0.30090692  1
  Zr  Zr25  1  0.10572429  0.09249692  0.89990336  1
  Zr  Zr26  1  0.70475131  0.70199397  0.90519499  1
  Zr  Zr27  1  0.70159990  0.30508662  0.89632396  1
  Zr  Zr28  1  0.30333195  0.50201390  0.90093838  1
  Zr  Zr29  1  0.50069398  0.69430941  0.10381208  1
  Zr  Zr30  1  0.49743433  0.90753947  0.90247890  1
  Zr  Zr31  1  0.70260991  0.49492367  0.29294310  1
  Zr  Zr32  1  0.49495606  0.11005699  0.29607863  1
  Zr  Zr33  1  0.30125947  0.49136102  0.30772474  1
  Zr  Zr34  1  0.90173241  0.70572312  0.50485353  1
  Zr  Zr35  1  0.49564917  0.30160557  0.90411516  1
  Zr  Zr36  1  0.29725872  0.69517831  0.69821290  1
  Zr  Zr37  1  0.10395531  0.49621791  0.49522824  1
  Zr  Zr38  1  0.49440394  0.50197006  0.49621517  1
  Zr  Zr39  1  0.70110372  0.30038278  0.10144233  1
  Zr  Zr40  1  0.89783631  0.89598090  0.29477862  1
  Zr  Zr41  1  0.70148174  0.69312321  0.09538371  1
  Zr  Zr42  1  0.29751191  0.90558228  0.10021776  1
  Zr  Zr43  1  0.70323311  0.90154855  0.29186505  1
  Zr  Zr44  1  0.29784378  0.29872191  0.69349682  1
  Zr  Zr45  1  0.88884407  0.09615217  0.50852316  1
  Zr  Zr46  1  0.09831039  0.09666169  0.70361495  1
  Zr  Zr47  1  0.49369116  0.70466545  0.69464398  1
  Zr  Zr48  1  0.68546168  0.49760840  0.50519958  1
  Zr  Zr49  1  0.29945651  0.69950614  0.29603517  1
  Sc  Sc50  1  0.29843778  0.70453536  0.49715224  1
  Sc  Sc51  1  0.10043643  0.49869744  0.68453368  1
  Sc  Sc52  1  0.10367438  0.29923740  0.69479541  1
  Sc  Sc53  1  0.30359139  0.29971367  0.09399566  1
  Sc  Sc54  1  0.69949909  0.30154199  0.70526029  1
  Sc  Sc55  1  0.69494393  0.11064617  0.29452184  1
  Sc  Sc56  1  0.29590415  0.10328179  0.70059349  1
  Sc  Sc57  1  0.10353379  0.09145304  0.10758615  1
  Sc  Sc58  1  0.71072924  0.09861992  0.10273292  1
  Sc  Sc59  1  0.90305456  0.90291692  0.50846219  1
  Sc  Sc60  1  0.70187937  0.09543010  0.68321018  1
  Sc  Sc61  1  0.49198165  0.09811297  0.09905504  1
  Sc  Sc62  1  0.30249991  0.50325305  0.10888355  1
  Sc  Sc63  1  0.50521851  0.50199549  0.09952000  1
  Sc  Sc64  1  0.49928705  0.29979516  0.50153431  1
  Sc  Sc65  1  0.70167101  0.70132006  0.29840427  1
  Sc  Sc66  1  0.69829484  0.89388526  0.69900150  1
  Sc  Sc67  1  0.69955564  0.49098357  0.70346650  1
  Sc  Sc68  1  0.10401613  0.90633154  0.30209819  1
  Sc  Sc69  1  0.69850236  0.49885339  0.89995413  1
  Sc  Sc70  1  0.50198894  0.10236591  0.51466033  1
  Sc  Sc71  1  0.10598827  0.30116811  0.91588459  1
  Sc  Sc72  1  0.90339557  0.29960219  0.11202779  1
  Sc  Sc73  1  0.10272073  0.30821861  0.50538170  1
  Sc  Sc74  1  0.89626587  0.69937478  0.28570216  1
  Sc  Sc75  1  0.09755908  0.30801106  0.30015661  1
  Sc  Sc76  1  0.10378321  0.50078148  0.29325576  1
  Sc  Sc77  1  0.09104214  0.70706507  0.69887185  1
  Sc  Sc78  1  0.10205186  0.70004268  0.28926969  1
  Sc  Sc79  1  0.30568443  0.89881585  0.70344890  1
  Sc  Sc80  1  0.90017336  0.70142047  0.09968301  1
  Sc  Sc81  1  0.90372866  0.10529463  0.89385268  1
  Sc  Sc82  1  0.69903686  0.89126969  0.50235410  1
  Sc  Sc83  1  0.90261121  0.51162023  0.10444711  1
  Sc  Sc84  1  0.10287735  0.89494053  0.90006283  1
  Sc  Sc85  1  0.10387401  0.09084063  0.50049637  1
  Sc  Sc86  1  0.30805174  0.50494475  0.69318765  1
  Sc  Sc87  1  0.50347869  0.70156821  0.90350709  1
  Sc  Sc88  1  0.10066521  0.90210169  0.09701857  1
  Sc  Sc89  1  0.90736088  0.49603234  0.69863135  1
  Sc  Sc90  1  0.30144691  0.09759958  0.10002540  1
  Sc  Sc91  1  0.89363019  0.29188066  0.71316634  1
  Sc  Sc92  1  0.29776904  0.89056594  0.29841379  1
  Sc  Sc93  1  0.09802575  0.90422933  0.69982610  1
  Sc  Sc94  1  0.30121744  0.10216320  0.90090079  1
  Sc  Sc95  1  0.49306122  0.29990547  0.69354167  1
  Sc  Sc96  1  0.10626547  0.90139370  0.49897743  1
  Sc  Sc97  1  0.90300412  0.09717664  0.28832408  1
  Sc  Sc98  1  0.50227235  0.49794045  0.90450664  1
  Sc  Sc99  1  0.10749242  0.70349818  0.50731025  1
  Nb  Nb100  1  0.69779179  0.09409619  0.49525612  1
  Nb  Nb101  1  0.09985136  0.68968525  0.10026201  1
  Nb  Nb102  1  0.09732412  0.69733916  0.90260006  1
  Nb  Nb103  1  0.90161692  0.08879127  0.69808527  1
  Nb  Nb104  1  0.51029487  0.69725899  0.49780221  1
  Nb  Nb105  1  0.70492594  0.89719024  0.09682261  1
  Nb  Nb106  1  0.29913225  0.90026826  0.48994267  1
  Nb  Nb107  1  0.29928973  0.11150335  0.30606665  1
  Nb  Nb108  1  0.90214917  0.29878577  0.49876805  1
  Nb  Nb109  1  0.69987021  0.50580117  0.09380985  1
  Nb  Nb110  1  0.90107426  0.10158198  0.09814252  1
  Nb  Nb111  1  0.88680114  0.90723565  0.10590112  1
  Nb  Nb112  1  0.30566050  0.28849272  0.30770475  1
  Nb  Nb113  1  0.29486239  0.90170965  0.90263680  1
  Nb  Nb114  1  0.90537246  0.49921069  0.90524644  1
  Nb  Nb115  1  0.09881491  0.29957255  0.10344822  1
  Nb  Nb116  1  0.50268040  0.29523049  0.09730647  1
  Nb  Nb117  1  0.49996178  0.10107489  0.89994361  1
  Nb  Nb118  1  0.90119050  0.70653917  0.70056774  1
  Nb  Nb119  1  0.90392995  0.89927296  0.69871619  1
  Nb  Nb120  1  0.50031980  0.08997329  0.70122095  1
  Nb  Nb121  1  0.89794339  0.50542097  0.30719372  1
  Nb  Nb122  1  0.69908748  0.69489360  0.49951144  1
  Nb  Nb123  1  0.50093503  0.91233560  0.69721477  1
  Nb  Nb124  1  0.09277947  0.50151803  0.90621852  1
  Nb  Nb125  1  0.80586693  0.60273528  0.79631124  1
  Nb  Nb126  1  0.18868258  0.59677386  0.80648523  1
  Nb  Nb127  1  0.00218793  0.19721313  0.01020648  1
  Nb  Nb128  1  0.79358362  0.00084756  0.39947416  1
  Nb  Nb129  1  0.59802240  0.00235835  0.40143736  1
  Nb  Nb130  1  0.00718341  0.40196946  0.80916782  1
  Nb  Nb131  1  0.39511255  0.80582214  -0.00009325  1
  Nb  Nb132  1  -0.00546784  0.20179128  0.40706453  1
  Nb  Nb133  1  0.19383269  0.60242601  -0.00379492  1
  Nb  Nb134  1  0.80114094  0.59888378  0.59893426  1
  Nb  Nb135  1  0.20236258  0.20418206  0.20540733  1
  Nb  Nb136  1  -0.00687410  0.19463198  0.59890506  1
  Nb  Nb137  1  0.80183531  0.39699190  0.59409645  1
  Nb  Nb138  1  0.80198623  0.40531498  0.00235746  1
  Nb  Nb139  1  0.59746897  0.20147626  -0.00386638  1
  Nb  Nb140  1  0.60309737  0.60354048  0.79470227  1
  Nb  Nb141  1  0.60045870  0.00310633  0.80042379  1
  Nb  Nb142  1  0.80193354  -0.00469689  0.79575315  1
  Nb  Nb143  1  0.39844084  0.00328030  0.40154741  1
  Nb  Nb144  1  -0.00433278  0.60247830  0.39812225  1
  Nb  Nb145  1  0.80190729  0.59794616  0.40718611  1
  Nb  Nb146  1  0.59367645  0.19040435  0.80115995  1
  Nb  Nb147  1  0.60257156  0.80393544  0.19348677  1
  Nb  Nb148  1  0.19742546  0.40829009  0.80490395  1
  Nb  Nb149  1  -0.00129766  0.79617093  0.39818711  1
  Pd  Pd150  1  0.60056910  0.20256755  0.60613018  1
  Pd  Pd151  1  0.40092007  0.39404257  0.19584347  1
  Pd  Pd152  1  0.38951769  0.00238650  0.21025712  1
  Pd  Pd153  1  0.59487525  0.40212664  0.19402986  1
  Pd  Pd154  1  0.60261435  0.80437781  0.39428422  1
  Pd  Pd155  1  0.80810417  0.00148398  -0.00750878  1
  Pd  Pd156  1  0.60634814  0.01209054  0.00041948  1
  Pd  Pd157  1  0.20285747  0.80765037  0.60448857  1
  Pd  Pd158  1  0.59751695  0.80068614  0.60004382  1
  Pd  Pd159  1  0.80612539  0.80115340  0.80136758  1
  Pd  Pd160  1  0.19104629  0.60698281  0.39639626  1
  Pd  Pd161  1  0.01078311  0.20807772  0.80400092  1
  Pd  Pd162  1  -0.00024009  0.80103627  0.01263032  1
  Pd  Pd163  1  0.40589911  0.80649963  0.80394663  1
  Pd  Pd164  1  -0.00429429  0.00405594  0.00073987  1
  Pd  Pd165  1  0.20665215  0.40538577  -0.00050171  1
  Pd  Pd166  1  0.00219923  -0.00560809  0.19771254  1
  Pd  Pd167  1  0.80750942  0.18809113  0.38958391  1
  Pd  Pd168  1  0.59036294  0.80359249  0.79846318  1
  Pd  Pd169  1  0.00509966  0.80570216  0.19807147  1
  Pd  Pd170  1  -0.00066907  0.60271478  0.59495874  1
  Pd  Pd171  1  0.60587179  0.60060320  0.39071074  1
  Pd  Pd172  1  0.58739633  0.40177326  0.79456831  1
  Pd  Pd173  1  0.20695048  -0.00413760  0.60566256  1
  Pd  Pd174  1  0.40423928  0.19653003  0.79260431  1
  Pd  Pd175  1  0.19977310  0.79617426  0.00325832  1
  Pd  Pd176  1  0.80016042  0.80090530  0.60024776  1
  Pd  Pd177  1  0.00687469  0.20008246  0.20617092  1
  Pd  Pd178  1  -0.00745850  0.40634946  0.20535637  1
  Pd  Pd179  1  0.39493405  0.60635018  0.00114520  1
  Pd  Pd180  1  0.19365380  0.20891127  0.80332889  1
  Pd  Pd181  1  0.40054124  0.40528768  0.00947499  1
  Pd  Pd182  1  0.20914998  0.39024351  0.20257001  1
  Pd  Pd183  1  0.19070799  0.80582302  0.19961176  1
  Pd  Pd184  1  0.19581013  0.19327844  0.01119016  1
  Pd  Pd185  1  -0.00398356  -0.00802837  0.80524029  1
  Pd  Pd186  1  0.40044779  0.40718351  0.79135214  1
  Pd  Pd187  1  0.38708505  0.00509572  0.59276093  1
  Pd  Pd188  1  0.80555117  0.79981254  0.40056348  1
  Pd  Pd189  1  -0.01073238  -0.00132183  0.40279592  1
  Pd  Pd190  1  0.19240774  0.79879552  0.79385311  1
  Pd  Pd191  1  0.59649640  0.39386263  0.39842714  1
  Pd  Pd192  1  0.80552205  0.40802247  0.19001762  1
  Pd  Pd193  1  0.39493438  0.79809642  0.59559111  1
  Pd  Pd194  1  0.40976194  0.59483158  0.79850067  1
  Pd  Pd195  1  0.00208276  0.59397089  0.79208087  1
  Pd  Pd196  1  0.39503327  0.00277759  0.80352088  1
  Pd  Pd197  1  0.39667146  0.60709528  0.40211879  1
  Pd  Pd198  1  0.80179900  0.20603251  0.60598393  1
  Pd  Pd199  1  0.60433516  0.00414762  0.19967173  1
  Rh  Rh200  1  -0.01009076  0.38760483  -0.00059934  1
  Rh  Rh201  1  0.40052016  0.60976333  0.58693026  1
  Rh  Rh202  1  0.60706956  0.39689836  0.00618548  1
  Rh  Rh203  1  0.59686283  0.19526829  0.18524049  1
  Rh  Rh204  1  0.00421418  0.80775287  0.59676993  1
  Rh  Rh205  1  0.19968727  0.39591265  0.39686416  1
  Rh  Rh206  1  0.39104588  -0.00093579  -0.00639386  1
  Rh  Rh207  1  0.60404730  -0.00704243  0.59812150  1
  Rh  Rh208  1  0.19227336  0.79787771  0.39561452  1
  Rh  Rh209  1  0.40907394  0.19442291  0.41218651  1
  Rh  Rh210  1  0.39169685  0.20455898  0.19068673  1
  Rh  Rh211  1  0.21224531  -0.00490331  0.39441726  1
  Rh  Rh212  1  0.79629081  0.59870662  0.20417560  1
  Rh  Rh213  1  0.18432576  0.21163961  0.39777408  1
  Rh  Rh214  1  0.20193258  0.00086831  -0.00352517  1
  Rh  Rh215  1  0.39591454  0.39807915  0.59365566  1
  Rh  Rh216  1  0.00547501  0.00243287  0.59977066  1
  Rh  Rh217  1  0.79307832  -0.01225703  0.60055020  1
  Rh  Rh218  1  0.79785694  0.00589144  0.20363467  1
  Rh  Rh219  1  0.60079405  0.59737775  -0.01026644  1
  Rh  Rh220  1  0.18864161  0.19652674  0.59633515  1
  Rh  Rh221  1  0.19876058  0.60263937  0.60569077  1
  Rh  Rh222  1  0.39844131  0.59491284  0.20645296  1
  Rh  Rh223  1  0.80446767  0.20035827  0.20299094  1
  Rh  Rh224  1  0.20522481  -0.00384100  0.80074568  1
  Rh  Rh225  1  0.40756709  0.80306836  0.18958351  1
  Rh  Rh226  1  0.00348676  0.80401763  0.79880254  1
  Rh  Rh227  1  0.60309497  0.60696240  0.60529822  1
  Rh  Rh228  1  0.00786666  0.40099892  0.39371208  1
  Rh  Rh229  1  0.39903955  0.79908775  0.40601815  1
  Rh  Rh230  1  0.20880168  0.40477146  0.60547001  1
  Rh  Rh231  1  0.00274880  0.59603793  0.20286179  1
  Rh  Rh232  1  0.60948455  0.38405284  0.59701154  1
  Rh  Rh233  1  0.78816992  0.40744575  0.40910293  1
  Rh  Rh234  1  0.59277178  0.19365810  0.40365201  1
  Rh  Rh235  1  0.79010166  0.18345527  0.78415040  1
  Rh  Rh236  1  0.59145753  0.79745254  0.00981618  1
  Rh  Rh237  1  0.81462245  0.41311509  0.80226549  1
  Rh  Rh238  1  0.40420574  0.19761826  0.00229390  1
  Rh  Rh239  1  0.79327726  0.79545739  0.18936948  1
  Rh  Rh240  1  0.00217713  0.60262361  0.00910143  1
  Rh  Rh241  1  0.60317913  0.60371264  0.20344005  1
  Rh  Rh242  1  0.19890852  0.59350031  0.19464420  1
  Rh  Rh243  1  0.80320184  0.59548012  -0.00807288  1
  Rh  Rh244  1  0.40379236  0.39558567  0.40046054  1
  Rh  Rh245  1  0.80668545  0.20950171  0.01339766  1
  Rh  Rh246  1  0.80889019  0.79755245  0.00564245  1
  Rh  Rh247  1  0.39811690  0.19562585  0.60283376  1
  Rh  Rh248  1  0.20621466  0.00753519  0.20679284  1
  Rh  Rh249  1  -0.01179465  0.37975403  0.61767234  1
