# generated using pymatgen
data_ZrScNbPdRh
_symmetry_space_group_name_H-M   'P 1'
_cell_length_a   16.55333815
_cell_length_b   16.55474418
_cell_length_c   16.55436251
_cell_angle_alpha   90.00226770
_cell_angle_beta   90.01698719
_cell_angle_gamma   89.98391931
_symmetry_Int_Tables_number   1
_chemical_formula_structural   ZrScNbPdRh
_chemical_formula_sum   'Zr50 Sc50 Nb50 Pd50 Rh50'
_cell_volume   4536.49551193
_cell_formula_units_Z   50
loop_
 _symmetry_equiv_pos_site_id
 _symmetry_equiv_pos_as_xyz
  1  'x, y, z'
loop_
 _atom_site_type_symbol
 _atom_site_label
 _atom_site_symmetry_multiplicity
 _atom_site_fract_x
 _atom_site_fract_y
 _atom_site_fract_z
 _atom_site_occupancy
  Zr  Zr0  1  0.10417405  0.69719959  0.10436826  1
  Zr  Zr1  1  0.50108788  0.09696618  0.10013181  1
  Zr  Zr2  1  0.09983274  0.89130702  0.69192169  1
  Zr  Zr3  1  0.09794137  0.08974651  0.49584505  1
  Zr  Zr4  1  0.49367853  0.09899549  0.29982244  1
  Zr  Zr5  1  0.70272187  0.89679188  0.49514353  1
  Zr  Zr6  1  0.09822348  0.29446849  0.10142170  1
  Zr  Zr7  1  0.49631523  0.30488772  0.69540039  1
  Zr  Zr8  1  0.69257577  0.70541410  0.89399860  1
  Zr  Zr9  1  0.30333213  0.89512609  0.50342798  1
  Zr  Zr10  1  0.30468072  0.89739591  0.90604361  1
  Zr  Zr11  1  0.50640150  0.31345672  0.89461887  1
  Zr  Zr12  1  0.90478032  0.70231736  0.09290130  1
  Zr  Zr13  1  0.70105998  0.29312496  0.30665117  1
  Zr  Zr14  1  0.29097996  0.70439740  0.10025486  1
  Zr  Zr15  1  0.09920671  0.69420312  0.90506677  1
  Zr  Zr16  1  0.88899129  0.28594239  0.49755345  1
  Zr  Zr17  1  0.50159282  0.51398465  0.89308309  1
  Zr  Zr18  1  0.31707151  0.10127823  0.69594529  1
  Zr  Zr19  1  0.48778770  0.48273033  0.49872377  1
  Zr  Zr20  1  0.70287689  0.49723587  0.30119699  1
  Zr  Zr21  1  0.90218520  0.70617139  0.89787520  1
  Zr  Zr22  1  0.09652952  0.90250251  0.88518954  1
  Zr  Zr23  1  0.89851677  0.09645993  0.10221383  1
  Zr  Zr24  1  0.49650323  0.10292708  0.50284959  1
  Zr  Zr25  1  0.29561074  0.30127234  0.09532787  1
  Zr  Zr26  1  0.29816681  0.10280640  0.11260406  1
  Zr  Zr27  1  0.09817327  0.70461163  0.50491386  1
  Zr  Zr28  1  0.70706987  0.90790665  0.09198109  1
  Zr  Zr29  1  0.09680566  0.50508360  0.49421801  1
  Zr  Zr30  1  0.69790333  0.49165865  0.89978143  1
  Zr  Zr31  1  0.30579646  0.09182972  0.49215393  1
  Zr  Zr32  1  0.90063473  0.30763646  0.89630638  1
  Zr  Zr33  1  0.29677412  0.89742796  0.70565069  1
  Zr  Zr34  1  0.69834666  0.70335045  0.50408547  1
  Zr  Zr35  1  0.90341391  0.09877940  0.49987467  1
  Zr  Zr36  1  0.50664729  0.09243120  0.89399146  1
  Zr  Zr37  1  0.69620374  0.70758758  0.30159795  1
  Zr  Zr38  1  0.49372028  0.89678158  0.08831630  1
  Zr  Zr39  1  0.29976466  0.70092197  0.69466281  1
  Zr  Zr40  1  0.69550926  0.10270526  0.09704995  1
  Zr  Zr41  1  0.10406658  0.30227365  0.90055117  1
  Zr  Zr42  1  0.09744086  0.50494695  0.29940303  1
  Zr  Zr43  1  0.09997118  0.49839737  0.70794791  1
  Zr  Zr44  1  0.90489046  0.90126896  0.71091289  1
  Zr  Zr45  1  0.29883674  0.50660463  0.50162967  1
  Zr  Zr46  1  0.09769739  0.51105828  0.10324880  1
  Zr  Zr47  1  0.90797019  0.29453236  0.09821930  1
  Zr  Zr48  1  0.69486749  0.09558048  0.29307167  1
  Zr  Zr49  1  0.70513994  0.69925792  0.69583077  1
  Sc  Sc50  1  0.70394834  0.50441222  0.70255928  1
  Sc  Sc51  1  0.89048867  0.89867982  0.90057669  1
  Sc  Sc52  1  0.29973731  0.90900546  0.29696170  1
  Sc  Sc53  1  0.30179652  0.30267819  0.70918983  1
  Sc  Sc54  1  0.10052416  0.90439619  0.30244201  1
  Sc  Sc55  1  0.90847028  0.90366169  0.49940505  1
  Sc  Sc56  1  0.09520756  0.29529853  0.70933457  1
  Sc  Sc57  1  0.08603483  0.28388608  0.50442294  1
  Sc  Sc58  1  0.70571663  0.50227508  0.08938699  1
  Sc  Sc59  1  0.10106112  0.09225418  0.29462406  1
  Sc  Sc60  1  0.30628240  0.29089195  0.29263730  1
  Sc  Sc61  1  0.69995831  0.29801706  0.71481850  1
  Sc  Sc62  1  0.10035735  0.50246682  0.89576130  1
  Sc  Sc63  1  0.32388957  0.30725550  0.50620533  1
  Sc  Sc64  1  0.50955213  0.29657427  0.09415132  1
  Sc  Sc65  1  0.89491994  0.70240257  0.70097076  1
  Sc  Sc66  1  0.09791607  0.69490169  0.29627150  1
  Sc  Sc67  1  0.90205505  0.70126344  0.29678024  1
  Sc  Sc68  1  0.69915791  0.49098091  0.50001285  1
  Sc  Sc69  1  0.90227817  0.50389745  0.29988414  1
  Sc  Sc70  1  0.90160511  0.50061094  0.90106937  1
  Sc  Sc71  1  0.09973211  0.70143766  0.70739194  1
  Sc  Sc72  1  0.89913476  0.70397884  0.50155718  1
  Sc  Sc73  1  0.50223088  0.69295941  0.71020541  1
  Sc  Sc74  1  0.50515360  0.29470654  0.31158013  1
  Sc  Sc75  1  0.89166901  0.50228369  0.49527179  1
  Sc  Sc76  1  0.09605703  0.10990611  0.89708558  1
  Sc  Sc77  1  0.89457911  0.50128214  0.71026329  1
  Sc  Sc78  1  0.30126687  0.10079369  0.89063820  1
  Sc  Sc79  1  0.50570305  0.50473107  0.08370450  1
  Sc  Sc80  1  0.89677916  0.89859399  0.09919745  1
  Sc  Sc81  1  0.09691498  0.10840862  0.10402473  1
  Sc  Sc82  1  0.89453163  0.09268667  0.89235911  1
  Sc  Sc83  1  0.90114754  0.90826324  0.29807749  1
  Sc  Sc84  1  0.29466428  0.50420221  0.09396491  1
  Sc  Sc85  1  0.89961582  0.50221376  0.09516712  1
  Sc  Sc86  1  0.29836484  0.50542938  0.70626050  1
  Sc  Sc87  1  0.70891684  0.70283322  0.09911633  1
  Sc  Sc88  1  0.50406265  0.90257155  0.29675196  1
  Sc  Sc89  1  0.70096331  0.90123316  0.30209212  1
  Sc  Sc90  1  0.50576611  0.90973390  0.70003520  1
  Sc  Sc91  1  0.50263166  0.89612918  0.49621803  1
  Sc  Sc92  1  0.10278996  0.89648327  0.11071528  1
  Sc  Sc93  1  0.70957144  0.09684315  0.50254189  1
  Sc  Sc94  1  0.49842634  0.71311642  0.30200064  1
  Sc  Sc95  1  0.88847009  0.10282319  0.69658871  1
  Sc  Sc96  1  0.70061659  0.89894750  0.69884309  1
  Sc  Sc97  1  0.29857507  0.89821843  0.10445823  1
  Sc  Sc98  1  0.30228290  0.50089136  0.31085042  1
  Sc  Sc99  1  0.09247277  0.09907977  0.70394202  1
  Nb  Nb100  1  0.30257772  0.69062983  0.89926534  1
  Nb  Nb101  1  0.50345599  0.89182618  0.90619749  1
  Nb  Nb102  1  0.30729254  0.70169818  0.49882997  1
  Nb  Nb103  1  0.68876277  0.09879820  0.71187148  1
  Nb  Nb104  1  0.29814849  0.49823203  0.89833338  1
  Nb  Nb105  1  0.49935263  0.69885466  0.09763016  1
  Nb  Nb106  1  0.50033086  0.49962684  0.29631985  1
  Nb  Nb107  1  0.50509228  0.49903559  0.70180608  1
  Nb  Nb108  1  0.10304934  0.89931790  0.49892457  1
  Nb  Nb109  1  0.70083674  0.30246268  0.90663982  1
  Nb  Nb110  1  0.90026854  0.29591455  0.30018364  1
  Nb  Nb111  1  0.29985106  0.30732586  0.90492525  1
  Nb  Nb112  1  0.49861240  0.70240089  0.90772259  1
  Nb  Nb113  1  0.70007689  0.09919063  0.89397556  1
  Nb  Nb114  1  0.49409444  0.69628563  0.50064190  1
  Nb  Nb115  1  0.51207462  0.29805692  0.50409875  1
  Nb  Nb116  1  0.29793169  0.70247960  0.29808128  1
  Nb  Nb117  1  0.89987713  0.30149715  0.69472910  1
  Nb  Nb118  1  0.89864978  0.09808428  0.29674452  1
  Nb  Nb119  1  0.69639835  0.90860098  0.90138757  1
  Nb  Nb120  1  0.09766047  0.29919290  0.29681280  1
  Nb  Nb121  1  0.69947883  0.30144988  0.09818131  1
  Nb  Nb122  1  0.29903620  0.09674213  0.30023503  1
  Nb  Nb123  1  0.50945165  0.10521128  0.70103886  1
  Nb  Nb124  1  0.69671677  0.29632610  0.49960645  1
  Nb  Nb125  1  0.39844215  0.20474684  -0.00670746  1
  Nb  Nb126  1  0.20154809  -0.00000377  0.59910264  1
  Nb  Nb127  1  -0.00138336  0.59435602  0.60192937  1
  Nb  Nb128  1  0.20560039  0.79632531  0.40502053  1
  Nb  Nb129  1  0.79281476  0.20182129  -0.00482940  1
  Nb  Nb130  1  0.40595833  0.40656458  0.19849937  1
  Nb  Nb131  1  0.19374368  0.39455912  0.59413207  1
  Nb  Nb132  1  0.59352674  0.59967628  0.40224685  1
  Nb  Nb133  1  0.59509591  0.59981698  0.20165080  1
  Nb  Nb134  1  -0.00125227  0.39099553  0.39901730  1
  Nb  Nb135  1  0.80184243  0.38919420  0.59978210  1
  Nb  Nb136  1  0.59220257  0.59587785  0.59313886  1
  Nb  Nb137  1  -0.00416467  0.39981753  0.59800335  1
  Nb  Nb138  1  0.60127950  0.20088279  0.60208332  1
  Nb  Nb139  1  0.40491847  0.79701910  0.81135153  1
  Nb  Nb140  1  0.00451412  -0.00032437  -0.00110895  1
  Nb  Nb141  1  0.19948378  0.39885778  0.20475277  1
  Nb  Nb142  1  0.78905821  0.60551667  0.39942043  1
  Nb  Nb143  1  0.20271772  0.20012538  0.40062985  1
  Nb  Nb144  1  0.19508374  0.00114073  -0.00174593  1
  Nb  Nb145  1  0.19428466  0.38632460  0.40189993  1
  Nb  Nb146  1  0.79967899  0.39080913  0.20010296  1
  Nb  Nb147  1  0.20566517  0.19727594  0.59485537  1
  Nb  Nb148  1  0.60277775  0.40262405  0.19909185  1
  Nb  Nb149  1  0.40434273  0.60243251  0.19983245  1
  Pd  Pd150  1  0.19021262  0.40902248  0.00435475  1
  Pd  Pd151  1  -0.00262018  0.40296122  0.20358195  1
  Pd  Pd152  1  0.79971178  0.20209091  0.19461106  1
  Pd  Pd153  1  0.20604316  0.79132915  0.80788989  1
  Pd  Pd154  1  0.41222047  0.79988138  0.61212276  1
  Pd  Pd155  1  0.38994609  0.01144960  0.00141119  1
  Pd  Pd156  1  0.59793927  -0.00903003  0.19408294  1
  Pd  Pd157  1  0.20795322  0.19036906  -0.00507481  1
  Pd  Pd158  1  0.39674850  0.80653244  0.39373614  1
  Pd  Pd159  1  0.59828950  0.19859194  -0.00942362  1
  Pd  Pd160  1  0.79699028  0.60585164  -0.00865087  1
  Pd  Pd161  1  0.80925093  0.80132144  0.39772484  1
  Pd  Pd162  1  0.40763936  -0.00914262  0.80180596  1
  Pd  Pd163  1  0.40276187  -0.00792234  0.60131469  1
  Pd  Pd164  1  0.00148468  0.00028771  0.60548197  1
  Pd  Pd165  1  0.00680902  0.81154683  0.00063292  1
  Pd  Pd166  1  0.59567921  0.80409651  0.79406321  1
  Pd  Pd167  1  0.80948379  0.81099459  0.60014603  1
  Pd  Pd168  1  0.39675530  0.20510737  0.40167864  1
  Pd  Pd169  1  0.39348244  0.60179060  0.00522090  1
  Pd  Pd170  1  0.00645342  0.40716956  -0.00151401  1
  Pd  Pd171  1  0.00026113  0.80147869  0.20397845  1
  Pd  Pd172  1  0.79801180  -0.00358682  0.60561569  1
  Pd  Pd173  1  0.20488864  0.19896552  0.79337796  1
  Pd  Pd174  1  0.59787061  0.40253423  0.39599151  1
  Pd  Pd175  1  0.39762838  0.80026384  0.19964503  1
  Pd  Pd176  1  0.00475209  0.80157175  0.39515261  1
  Pd  Pd177  1  0.79909577  0.59574318  0.20244590  1
  Pd  Pd178  1  0.20149974  0.60878959  0.39762650  1
  Pd  Pd179  1  0.19327127  0.80722547  -0.00409890  1
  Pd  Pd180  1  0.40555818  0.40008187  0.00460628  1
  Pd  Pd181  1  0.80162380  0.20284603  0.80326870  1
  Pd  Pd182  1  0.40574752  0.60430109  0.39248157  1
  Pd  Pd183  1  0.60534141  0.00654925  0.59411673  1
  Pd  Pd184  1  0.61174054  0.39882062  0.60878603  1
  Pd  Pd185  1  0.59075994  0.79348567  0.60465543  1
  Pd  Pd186  1  0.79979583  0.60019458  0.80797277  1
  Pd  Pd187  1  0.19383936  0.59977017  0.60315012  1
  Pd  Pd188  1  0.60861981  0.79601479  0.00824652  1
  Pd  Pd189  1  0.80293432  0.80643415  0.20150257  1
  Pd  Pd190  1  0.60004070  0.00323446  0.40503109  1
  Pd  Pd191  1  0.41047661  0.20953579  0.19286506  1
  Pd  Pd192  1  0.40603637  0.59442089  0.60687925  1
  Pd  Pd193  1  0.39707557  0.40816956  0.79812680  1
  Pd  Pd194  1  -0.01029181  0.19764644  0.80006261  1
  Pd  Pd195  1  0.19807217  0.00916212  0.79639492  1
  Pd  Pd196  1  0.40670518  0.20551373  0.80735320  1
  Pd  Pd197  1  0.00529951  0.19395460  0.38918493  1
  Pd  Pd198  1  0.79528112  0.18646456  0.39549120  1
  Pd  Pd199  1  0.60223711  0.80139426  0.19020870  1
  Rh  Rh200  1  -0.00095998  0.00081039  0.19342677  1
  Rh  Rh201  1  0.19869660  0.80222420  0.21525807  1
  Rh  Rh202  1  0.60036201  0.00055697  -0.00269697  1
  Rh  Rh203  1  0.59593520  0.20633886  0.20452261  1
  Rh  Rh204  1  0.60477116  0.18866319  0.40935711  1
  Rh  Rh205  1  0.79391316  0.80510475  0.80261006  1
  Rh  Rh206  1  0.38957688  0.40788282  0.61281853  1
  Rh  Rh207  1  -0.00051674  0.39928009  0.79762821  1
  Rh  Rh208  1  -0.01444640  0.19034070  -0.00847105  1
  Rh  Rh209  1  -0.00386693  0.00022996  0.39483643  1
  Rh  Rh210  1  0.80866506  0.40014973  0.39947648  1
  Rh  Rh211  1  0.00216385  0.19849101  0.61024434  1
  Rh  Rh212  1  -0.00993278  0.60562480  0.19481995  1
  Rh  Rh213  1  0.20274572  0.39917760  0.79937254  1
  Rh  Rh214  1  0.60420209  0.40384268  0.79619010  1
  Rh  Rh215  1  -0.00158023  0.79522858  0.79915007  1
  Rh  Rh216  1  0.21202500  0.59157095  0.20841272  1
  Rh  Rh217  1  0.80433152  0.39247397  0.00717739  1
  Rh  Rh218  1  0.39491147  0.79035641  -0.00072917  1
  Rh  Rh219  1  0.40416686  0.20294845  0.60106085  1
  Rh  Rh220  1  0.00003295  0.19344865  0.20748272  1
  Rh  Rh221  1  -0.00173462  0.59840134  -0.00162103  1
  Rh  Rh222  1  0.20169918  -0.00366015  0.40310868  1
  Rh  Rh223  1  0.79813132  -0.00159923  0.20264245  1
  Rh  Rh224  1  0.20080736  0.80008143  0.59317000  1
  Rh  Rh225  1  0.60687705  0.60716625  0.00201356  1
  Rh  Rh226  1  0.20343842  0.60118344  0.80369226  1
  Rh  Rh227  1  -0.00420800  0.79315295  0.60375918  1
  Rh  Rh228  1  0.79691757  0.58981246  0.59264781  1
  Rh  Rh229  1  0.78531151  0.20281322  0.60969821  1
  Rh  Rh230  1  0.59533102  0.79890713  0.40449136  1
  Rh  Rh231  1  -0.01302944  0.60151671  0.40642867  1
  Rh  Rh232  1  0.79525907  0.80021367  -0.00654924  1
  Rh  Rh233  1  0.59979668  0.40557053  0.00251119  1
  Rh  Rh234  1  0.79970204  0.39932917  0.79783456  1
  Rh  Rh235  1  0.60483665  0.59894846  0.79565953  1
  Rh  Rh236  1  -0.00306626  0.00305718  0.80188335  1
  Rh  Rh237  1  0.40185025  -0.00343372  0.19969848  1
  Rh  Rh238  1  -0.00478823  0.60319237  0.79609279  1
  Rh  Rh239  1  0.20188238  0.59618083  -0.00700407  1
  Rh  Rh240  1  0.19595992  0.20267142  0.21012285  1
  Rh  Rh241  1  0.39808021  0.60313256  0.80017893  1
  Rh  Rh242  1  0.60070612  -0.00821625  0.80331653  1
  Rh  Rh243  1  0.80431383  0.00120934  0.39781969  1
  Rh  Rh244  1  0.79107031  -0.00438525  0.79590174  1
  Rh  Rh245  1  0.80342239  0.00848297  -0.00323845  1
  Rh  Rh246  1  0.40569138  -0.00622735  0.39429389  1
  Rh  Rh247  1  0.19936365  0.00090171  0.19381333  1
  Rh  Rh248  1  0.39668231  0.39166435  0.38943685  1
  Rh  Rh249  1  0.59571768  0.20590164  0.80124975  1
