# generated using pymatgen
data_ZrScNbPdRh
_symmetry_space_group_name_H-M   'P 1'
_cell_length_a   16.55257908
_cell_length_b   16.55449615
_cell_length_c   16.55168379
_cell_angle_alpha   90.00106051
_cell_angle_beta   89.99009962
_cell_angle_gamma   90.00464862
_symmetry_Int_Tables_number   1
_chemical_formula_structural   ZrScNbPdRh
_chemical_formula_sum   'Zr50 Sc50 Nb50 Pd50 Rh50'
_cell_volume   4535.48580150
_cell_formula_units_Z   50
loop_
 _symmetry_equiv_pos_site_id
 _symmetry_equiv_pos_as_xyz
  1  'x, y, z'
loop_
 _atom_site_type_symbol
 _atom_site_label
 _atom_site_symmetry_multiplicity
 _atom_site_fract_x
 _atom_site_fract_y
 _atom_site_fract_z
 _atom_site_occupancy
  Zr  Zr0  1  0.29523595  0.10208981  0.30700633  1
  Zr  Zr1  1  0.68416388  0.50122207  0.10273430  1
  Zr  Zr2  1  0.29461833  0.29991329  0.28976231  1
  Zr  Zr3  1  0.09531049  0.89961978  0.49875989  1
  Zr  Zr4  1  0.90058156  0.90143810  0.50091078  1
  Zr  Zr5  1  0.10269318  0.69612349  0.90683886  1
  Zr  Zr6  1  0.49890249  0.70106721  0.89926270  1
  Zr  Zr7  1  0.50287947  0.30337494  0.50106191  1
  Zr  Zr8  1  0.69503351  0.49338166  0.70329603  1
  Zr  Zr9  1  0.70402564  0.09959024  0.90349085  1
  Zr  Zr10  1  0.90544659  0.10326209  0.10043992  1
  Zr  Zr11  1  0.89804482  0.29579430  0.10325427  1
  Zr  Zr12  1  0.49418778  0.90513269  0.10405465  1
  Zr  Zr13  1  0.90281178  0.11031804  0.89939322  1
  Zr  Zr14  1  0.90330678  0.09597888  0.50222738  1
  Zr  Zr15  1  0.90676688  0.50577560  0.70318142  1
  Zr  Zr16  1  0.70195066  0.31713022  0.29549871  1
  Zr  Zr17  1  0.70158742  0.09514416  0.29864320  1
  Zr  Zr18  1  0.89616804  0.89489572  0.69532572  1
  Zr  Zr19  1  0.10323593  0.89712282  0.90454297  1
  Zr  Zr20  1  0.29756983  0.89979645  0.50194613  1
  Zr  Zr21  1  0.89584002  0.69792455  0.70158568  1
  Zr  Zr22  1  0.49891420  0.10696754  0.50275917  1
  Zr  Zr23  1  0.69576574  0.49706431  0.49495606  1
  Zr  Zr24  1  0.10342986  0.69625357  0.49968572  1
  Zr  Zr25  1  0.29837207  0.89869768  0.10251118  1
  Zr  Zr26  1  0.49864616  0.29763748  0.69428529  1
  Zr  Zr27  1  0.09709808  0.50175671  0.29338584  1
  Zr  Zr28  1  0.69769369  0.89625916  0.69538827  1
  Zr  Zr29  1  0.69904925  0.89709243  0.90026314  1
  Zr  Zr30  1  0.10004579  0.10621554  0.29790052  1
  Zr  Zr31  1  0.90302494  0.50351950  0.50527092  1
  Zr  Zr32  1  0.69881050  0.30696087  0.49489682  1
  Zr  Zr33  1  0.49951876  0.49327502  0.70341851  1
  Zr  Zr34  1  0.90242364  0.10022950  0.29131799  1
  Zr  Zr35  1  0.49797394  0.09875217  0.29254236  1
  Zr  Zr36  1  0.10435028  0.09659372  0.49052777  1
  Zr  Zr37  1  0.30251926  0.48947706  0.90233075  1
  Zr  Zr38  1  0.49799718  0.29804793  0.29360678  1
  Zr  Zr39  1  0.11142134  0.89247865  0.70560505  1
  Zr  Zr40  1  0.09759653  0.50081706  0.89806131  1
  Zr  Zr41  1  0.48658709  0.10024901  0.89839604  1
  Zr  Zr42  1  0.70426573  0.89068065  0.09153242  1
  Zr  Zr43  1  0.70166165  0.10066415  0.51065269  1
  Zr  Zr44  1  0.29775772  0.30459560  0.70569375  1
  Zr  Zr45  1  0.89673200  0.88633278  0.90216432  1
  Zr  Zr46  1  0.30499976  0.69616766  0.29757734  1
  Zr  Zr47  1  0.49433313  0.69470507  0.10153501  1
  Zr  Zr48  1  0.89899575  0.49630606  0.89865599  1
  Zr  Zr49  1  0.50868778  0.50260422  0.50262775  1
  Sc  Sc50  1  0.69352693  0.70579720  0.69387708  1
  Sc  Sc51  1  0.50360929  0.90253241  0.30140023  1
  Sc  Sc52  1  0.70910851  0.30969629  0.89498283  1
  Sc  Sc53  1  0.90269066  0.30245996  0.90243978  1
  Sc  Sc54  1  0.49730132  0.30662449  0.10434921  1
  Sc  Sc55  1  0.70141397  0.89746834  0.49822276  1
  Sc  Sc56  1  0.49700053  0.09835545  0.69056412  1
  Sc  Sc57  1  0.09494938  0.90801417  0.29942932  1
  Sc  Sc58  1  0.10009589  0.50603147  0.09029214  1
  Sc  Sc59  1  0.30479683  0.90518417  0.29338101  1
  Sc  Sc60  1  0.90136072  0.29533616  0.71025585  1
  Sc  Sc61  1  0.69506511  0.71477308  0.90510894  1
  Sc  Sc62  1  0.89597925  0.10706339  0.69545802  1
  Sc  Sc63  1  0.89921160  0.48758417  0.29249320  1
  Sc  Sc64  1  0.30345695  0.30216714  0.09197648  1
  Sc  Sc65  1  0.90760886  0.49725821  0.09810019  1
  Sc  Sc66  1  0.70029606  0.69735997  0.29489074  1
  Sc  Sc67  1  0.89786690  0.89873713  0.29892004  1
  Sc  Sc68  1  0.30248773  0.49788323  0.09734494  1
  Sc  Sc69  1  0.10691787  0.10097737  0.90680588  1
  Sc  Sc70  1  0.10222139  0.49649027  0.69670648  1
  Sc  Sc71  1  0.09167386  0.10735968  0.70794949  1
  Sc  Sc72  1  0.70265526  0.89674366  0.30302993  1
  Sc  Sc73  1  0.28851853  0.50646846  0.50377238  1
  Sc  Sc74  1  0.70744907  0.09172046  0.10241367  1
  Sc  Sc75  1  0.10372884  0.30286327  0.70262697  1
  Sc  Sc76  1  0.70285966  0.29776284  0.70334950  1
  Sc  Sc77  1  0.29239521  0.69185348  0.50292426  1
  Sc  Sc78  1  0.90530229  0.30304432  0.49654159  1
  Sc  Sc79  1  0.10140218  0.49966483  0.50748163  1
  Sc  Sc80  1  0.89923754  0.70408980  0.28853680  1
  Sc  Sc81  1  0.29653236  0.91157840  0.89283046  1
  Sc  Sc82  1  0.31225164  0.09320703  0.70983121  1
  Sc  Sc83  1  0.09544456  0.90433613  0.10257371  1
  Sc  Sc84  1  0.10166751  0.30018476  0.49905354  1
  Sc  Sc85  1  0.30298240  0.29720258  0.50290292  1
  Sc  Sc86  1  0.89878810  0.70361911  0.50873312  1
  Sc  Sc87  1  0.90128328  0.70593162  0.10346358  1
  Sc  Sc88  1  0.30791102  0.70036283  0.90277626  1
  Sc  Sc89  1  0.30220316  0.09495588  0.09320523  1
  Sc  Sc90  1  0.49999853  0.89359499  0.90105654  1
  Sc  Sc91  1  0.10415960  0.29682209  0.10267253  1
  Sc  Sc92  1  0.90526148  0.70010597  0.89853551  1
  Sc  Sc93  1  0.30745089  0.09762386  0.49702192  1
  Sc  Sc94  1  0.90162583  0.89778064  0.10478052  1
  Sc  Sc95  1  0.50449976  0.51040628  0.29309867  1
  Sc  Sc96  1  0.10321098  0.69832750  0.70108399  1
  Sc  Sc97  1  0.68949336  0.70303290  0.50122741  1
  Sc  Sc98  1  0.48696505  0.30160609  0.90256410  1
  Sc  Sc99  1  0.50721582  0.90246043  0.50247980  1
  Nb  Nb100  1  0.49773409  0.70456236  0.70384851  1
  Nb  Nb101  1  0.50087181  0.70085362  0.50313182  1
  Nb  Nb102  1  0.50657931  0.50190852  0.90674232  1
  Nb  Nb103  1  0.49383186  0.89804008  0.70389794  1
  Nb  Nb104  1  0.29495869  0.28728336  0.89927352  1
  Nb  Nb105  1  0.49809531  0.70350053  0.30268121  1
  Nb  Nb106  1  0.09243948  0.09334076  0.10166646  1
  Nb  Nb107  1  0.50450522  0.50235004  0.08649241  1
  Nb  Nb108  1  0.29621058  0.50355539  0.30363175  1
  Nb  Nb109  1  0.09823818  0.69855355  0.29613557  1
  Nb  Nb110  1  0.30138635  0.11542681  0.89977955  1
  Nb  Nb111  1  0.69489253  0.49998953  0.89929994  1
  Nb  Nb112  1  0.29786446  0.50051981  0.70034129  1
  Nb  Nb113  1  0.69247978  0.30238106  0.10054468  1
  Nb  Nb114  1  0.10066003  0.69977587  0.10433378  1
  Nb  Nb115  1  0.11895761  0.29520547  0.88998534  1
  Nb  Nb116  1  0.50249505  0.10183689  0.09776594  1
  Nb  Nb117  1  0.70208532  0.50010102  0.30345158  1
  Nb  Nb118  1  0.10086409  0.29663669  0.30249352  1
  Nb  Nb119  1  0.30069528  0.89435640  0.70048976  1
  Nb  Nb120  1  0.69763592  0.69740993  0.10074636  1
  Nb  Nb121  1  0.29728366  0.70539920  0.10386046  1
  Nb  Nb122  1  0.90246740  0.29792004  0.29795366  1
  Nb  Nb123  1  0.70034358  0.10115129  0.70286883  1
  Nb  Nb124  1  0.29918810  0.70426490  0.70356127  1
  Nb  Nb125  1  0.20027644  0.00097255  0.60509520  1
  Nb  Nb126  1  0.80222239  0.40434254  0.60064222  1
  Nb  Nb127  1  0.20138307  0.39960611  0.39063749  1
  Nb  Nb128  1  -0.00384496  0.60132609  0.39580092  1
  Nb  Nb129  1  -0.00684990  -0.00511791  0.80325371  1
  Nb  Nb130  1  0.40069359  0.79250212  0.40494034  1
  Nb  Nb131  1  0.59926717  0.19462156  0.80420547  1
  Nb  Nb132  1  0.20118662  0.79681401  0.00833486  1
  Nb  Nb133  1  0.79980977  -0.00046002  0.79807283  1
  Nb  Nb134  1  0.80000998  0.20391309  0.39365075  1
  Nb  Nb135  1  0.60513380  0.20022279  0.39528560  1
  Nb  Nb136  1  0.40201226  0.60526693  0.60905419  1
  Nb  Nb137  1  0.60213169  0.00250909  0.79708443  1
  Nb  Nb138  1  0.20872529  0.59712334  0.80085625  1
  Nb  Nb139  1  0.59722852  0.59919789  0.80386859  1
  Nb  Nb140  1  0.20104129  0.79603656  0.39421573  1
  Nb  Nb141  1  0.40002602  0.79585306  0.60280528  1
  Nb  Nb142  1  0.59646147  0.79366373  0.19660402  1
  Nb  Nb143  1  0.59921396  0.19910052  0.00230207  1
  Nb  Nb144  1  0.78909757  0.59844985  0.80673474  1
  Nb  Nb145  1  0.39433139  0.40775053  0.39422467  1
  Nb  Nb146  1  0.20338287  0.19182635  0.60244648  1
  Nb  Nb147  1  0.20195560  0.60603332  0.19769609  1
  Nb  Nb148  1  0.79094984  0.59856828  -0.00138926  1
  Nb  Nb149  1  0.80158382  0.59366732  0.39710505  1
  Pd  Pd150  1  0.59888425  0.00499351  0.40379710  1
  Pd  Pd151  1  0.39704000  0.59225342  0.19400697  1
  Pd  Pd152  1  0.00798989  0.20425008  0.59908953  1
  Pd  Pd153  1  0.19612361  0.19287915  0.01015527  1
  Pd  Pd154  1  0.19649960  0.40798288  0.19616673  1
  Pd  Pd155  1  0.60557670  0.60696542  0.39459684  1
  Pd  Pd156  1  0.39386790  0.80670242  -0.00338807  1
  Pd  Pd157  1  0.39121182  0.41016414  0.58956234  1
  Pd  Pd158  1  0.79899476  0.40602970  0.18793535  1
  Pd  Pd159  1  0.40104909  0.39729307  0.80500126  1
  Pd  Pd160  1  0.19501504  0.01137738  0.79677227  1
  Pd  Pd161  1  0.20157829  0.19228710  0.18900623  1
  Pd  Pd162  1  0.78768230  0.59792248  0.60022187  1
  Pd  Pd163  1  0.81212462  -0.00257644  -0.00268986  1
  Pd  Pd164  1  0.79972981  0.78731767  0.40092594  1
  Pd  Pd165  1  -0.00454051  0.19906771  0.40021343  1
  Pd  Pd166  1  0.80374068  0.00374977  0.40050198  1
  Pd  Pd167  1  0.00519616  0.39283310  0.80183912  1
  Pd  Pd168  1  0.39225240  0.19475083  0.18994522  1
  Pd  Pd169  1  0.40432612  0.41149113  0.20044430  1
  Pd  Pd170  1  0.19677846  0.39662563  0.00074762  1
  Pd  Pd171  1  -0.01108581  0.60540068  0.00412002  1
  Pd  Pd172  1  0.19311412  0.80123782  0.20367852  1
  Pd  Pd173  1  0.79583529  0.40620370  0.00783241  1
  Pd  Pd174  1  0.01166927  0.20880960  -0.00367281  1
  Pd  Pd175  1  0.40168786  0.20864465  0.39948064  1
  Pd  Pd176  1  0.79155485  0.20852569  0.00266495  1
  Pd  Pd177  1  0.00395882  0.79743833  0.79745988  1
  Pd  Pd178  1  0.59760451  0.38644037  -0.00739283  1
  Pd  Pd179  1  0.60698612  0.19840445  0.19614701  1
  Pd  Pd180  1  0.00793027  0.00076458  0.61158726  1
  Pd  Pd181  1  0.80307410  0.59311968  0.19749941  1
  Pd  Pd182  1  -0.00448620  -0.00278378  -0.00523991  1
  Pd  Pd183  1  0.80147388  0.21135462  0.59501369  1
  Pd  Pd184  1  0.01025255  0.38889954  -0.00250962  1
  Pd  Pd185  1  0.39510966  -0.00277547  -0.00439166  1
  Pd  Pd186  1  0.39414615  0.59783377  0.00246767  1
  Pd  Pd187  1  0.59444890  0.00425734  -0.00365693  1
  Pd  Pd188  1  0.60724815  -0.00957146  0.19572045  1
  Pd  Pd189  1  0.40139766  0.59772411  0.41117192  1
  Pd  Pd190  1  0.40550304  -0.00768129  0.40071950  1
  Pd  Pd191  1  0.79218798  0.20287467  0.20182236  1
  Pd  Pd192  1  0.00635241  0.39348151  0.19384204  1
  Pd  Pd193  1  0.40037350  0.59608961  0.79869010  1
  Pd  Pd194  1  0.00399990  0.79521125  0.60451670  1
  Pd  Pd195  1  0.00551003  0.40559290  0.39846153  1
  Pd  Pd196  1  -0.00336259  0.39176551  0.60621415  1
  Pd  Pd197  1  0.59837339  -0.00258374  0.60362664  1
  Pd  Pd198  1  0.00023541  0.79327955  0.39319455  1
  Pd  Pd199  1  0.19940720  0.00655524  0.19741892  1
  Rh  Rh200  1  0.00483817  0.20065084  0.80791128  1
  Rh  Rh201  1  0.20795220  0.60737420  0.00225138  1
  Rh  Rh202  1  0.60414186  0.20472547  0.60173069  1
  Rh  Rh203  1  0.59856515  0.80181080  0.79635177  1
  Rh  Rh204  1  0.20294759  0.39129882  0.59377280  1
  Rh  Rh205  1  0.59581223  0.79756211  0.39304409  1
  Rh  Rh206  1  0.40416340  0.20448595  0.79376678  1
  Rh  Rh207  1  0.79608179  0.19705624  0.80258616  1
  Rh  Rh208  1  0.20714439  0.78934231  0.81525564  1
  Rh  Rh209  1  0.59284566  0.40760551  0.20141557  1
  Rh  Rh210  1  0.39539965  0.80705314  0.80034237  1
  Rh  Rh211  1  0.80655034  0.40719239  0.79311993  1
  Rh  Rh212  1  0.59160073  0.39425695  0.80590057  1
  Rh  Rh213  1  0.00803056  0.60543325  0.59730586  1
  Rh  Rh214  1  0.59315577  0.60338015  0.61110215  1
  Rh  Rh215  1  0.79994377  -0.00183356  0.60419297  1
  Rh  Rh216  1  0.20273600  0.60051839  0.61441361  1
  Rh  Rh217  1  0.20055080  0.40734101  0.80260494  1
  Rh  Rh218  1  0.79081366  0.80293738  0.19991646  1
  Rh  Rh219  1  0.20020659  -0.00877557  0.40290722  1
  Rh  Rh220  1  0.79553509  0.79921938  0.59188189  1
  Rh  Rh221  1  0.59845441  0.60451264  0.20291751  1
  Rh  Rh222  1  0.80661040  0.78864706  0.00364339  1
  Rh  Rh223  1  0.00603106  0.20447083  0.19827790  1
  Rh  Rh224  1  0.00749996  0.79809197  0.00734276  1
  Rh  Rh225  1  0.40510432  -0.00515685  0.80169355  1
  Rh  Rh226  1  0.40173718  0.39946019  -0.00079942  1
  Rh  Rh227  1  0.81209542  0.40208992  0.40490023  1
  Rh  Rh228  1  0.58434573  0.39953201  0.38758810  1
  Rh  Rh229  1  0.60864059  0.39190965  0.60623111  1
  Rh  Rh230  1  0.40906427  0.80316496  0.20796783  1
  Rh  Rh231  1  -0.00593090  0.00286513  0.39378289  1
  Rh  Rh232  1  0.39803420  0.00640116  0.20064202  1
  Rh  Rh233  1  0.00271616  0.60097337  0.20023112  1
  Rh  Rh234  1  0.39044312  0.19728186  0.60484225  1
  Rh  Rh235  1  0.40488922  0.20260436  0.00697278  1
  Rh  Rh236  1  0.39405390  -0.00874005  0.60147237  1
  Rh  Rh237  1  0.79509414  0.79440191  0.79729220  1
  Rh  Rh238  1  -0.00201179  -0.00061673  0.20108053  1
  Rh  Rh239  1  0.80031878  -0.00752490  0.19813422  1
  Rh  Rh240  1  0.59220947  0.80391652  0.59965782  1
  Rh  Rh241  1  0.20315813  0.19323020  0.79172705  1
  Rh  Rh242  1  0.00273061  0.80434986  0.20055406  1
  Rh  Rh243  1  0.20251938  0.80262521  0.59312759  1
  Rh  Rh244  1  0.60358558  0.60874550  -0.00709381  1
  Rh  Rh245  1  0.20307311  0.20974612  0.40679100  1
  Rh  Rh246  1  0.18735024  0.59825458  0.39024264  1
  Rh  Rh247  1  0.00623148  0.60243660  0.79860734  1
  Rh  Rh248  1  0.59007372  0.79706697  0.01158754  1
  Rh  Rh249  1  0.20088170  -0.00136279  0.00268563  1
