# generated using pymatgen
data_ZrScNbPdRh
_symmetry_space_group_name_H-M   'P 1'
_cell_length_a   16.55563907
_cell_length_b   16.55778923
_cell_length_c   16.55884139
_cell_angle_alpha   89.95457383
_cell_angle_beta   90.02323432
_cell_angle_gamma   89.97985771
_symmetry_Int_Tables_number   1
_chemical_formula_structural   ZrScNbPdRh
_chemical_formula_sum   'Zr50 Sc50 Nb50 Pd50 Rh50'
_cell_volume   4539.18670862
_cell_formula_units_Z   50
loop_
 _symmetry_equiv_pos_site_id
 _symmetry_equiv_pos_as_xyz
  1  'x, y, z'
loop_
 _atom_site_type_symbol
 _atom_site_label
 _atom_site_symmetry_multiplicity
 _atom_site_fract_x
 _atom_site_fract_y
 _atom_site_fract_z
 _atom_site_occupancy
  Zr  Zr0  1  0.90283807  0.90686627  0.08857026  1
  Zr  Zr1  1  0.49009756  0.09988426  0.70311686  1
  Zr  Zr2  1  0.50007730  0.70018793  0.10159511  1
  Zr  Zr3  1  0.90086226  0.09923785  0.09677320  1
  Zr  Zr4  1  0.69826560  0.30090851  0.31080690  1
  Zr  Zr5  1  0.29661512  0.69429720  0.89943251  1
  Zr  Zr6  1  0.90439318  0.70166757  0.69970525  1
  Zr  Zr7  1  0.69722028  0.90598353  0.09452489  1
  Zr  Zr8  1  0.90037862  0.69336615  0.29886584  1
  Zr  Zr9  1  0.30025761  0.50060670  0.70830880  1
  Zr  Zr10  1  0.69229357  0.10643867  0.49466658  1
  Zr  Zr11  1  0.90561725  0.09859830  0.49725507  1
  Zr  Zr12  1  0.09979264  0.89671022  0.69717982  1
  Zr  Zr13  1  0.09716767  0.69746822  0.70218606  1
  Zr  Zr14  1  0.29803575  0.49842603  0.50559371  1
  Zr  Zr15  1  0.49974836  0.29312987  0.69674270  1
  Zr  Zr16  1  0.70380217  0.69992914  0.29891325  1
  Zr  Zr17  1  0.10975805  0.50452553  0.89867205  1
  Zr  Zr18  1  0.29958951  0.30006962  0.28924561  1
  Zr  Zr19  1  0.89769114  0.69948176  0.10150396  1
  Zr  Zr20  1  0.89488765  0.49783708  0.90189632  1
  Zr  Zr21  1  0.89985627  0.50213072  0.10604217  1
  Zr  Zr22  1  0.68648436  0.90823957  0.50307332  1
  Zr  Zr23  1  0.69321300  0.10898990  0.29527233  1
  Zr  Zr24  1  0.10213324  0.69927895  0.89876961  1
  Zr  Zr25  1  0.29838092  0.30203299  0.49441240  1
  Zr  Zr26  1  0.10648758  0.90417237  0.29924251  1
  Zr  Zr27  1  0.30445293  0.89519361  0.89830476  1
  Zr  Zr28  1  0.10874468  0.30475840  0.10318163  1
  Zr  Zr29  1  0.49155029  0.49982009  0.69713102  1
  Zr  Zr30  1  0.49770823  0.10105833  0.90127997  1
  Zr  Zr31  1  0.89732358  0.90439694  0.89402863  1
  Zr  Zr32  1  0.30233111  0.70503814  0.09951366  1
  Zr  Zr33  1  0.29659097  0.70466926  0.49965664  1
  Zr  Zr34  1  0.90752159  0.70216550  0.49218799  1
  Zr  Zr35  1  0.90338572  0.10458081  0.89914749  1
  Zr  Zr36  1  0.10117758  0.89603787  0.89905707  1
  Zr  Zr37  1  0.49952733  0.29820075  0.49914607  1
  Zr  Zr38  1  0.90562811  0.30024209  0.10149391  1
  Zr  Zr39  1  0.69292209  0.89629272  0.70587412  1
  Zr  Zr40  1  0.69027180  0.10082465  0.69579151  1
  Zr  Zr41  1  0.50051622  0.90175682  0.88940819  1
  Zr  Zr42  1  0.29584783  0.47681780  0.09818197  1
  Zr  Zr43  1  0.29895152  0.70844170  0.30443244  1
  Zr  Zr44  1  0.89865786  0.09539781  0.70057948  1
  Zr  Zr45  1  0.10496980  0.70063862  0.50591238  1
  Zr  Zr46  1  0.51094798  0.10233428  0.09736332  1
  Zr  Zr47  1  0.69635316  0.69667515  0.10619144  1
  Zr  Zr48  1  0.30275263  0.91090974  0.69478630  1
  Zr  Zr49  1  0.09759781  0.69817760  0.31696495  1
  Sc  Sc50  1  0.49207413  0.70142867  0.89947041  1
  Sc  Sc51  1  0.89935122  0.29540575  0.30287149  1
  Sc  Sc52  1  0.69555005  0.29489607  0.10802616  1
  Sc  Sc53  1  0.49770379  0.89565651  0.30124425  1
  Sc  Sc54  1  0.70156523  0.69514958  0.48852987  1
  Sc  Sc55  1  0.90796914  0.50573348  0.69500091  1
  Sc  Sc56  1  0.69544302  0.49879362  0.89877601  1
  Sc  Sc57  1  0.10173932  0.09740106  0.70195156  1
  Sc  Sc58  1  0.30315877  0.69702582  0.69457611  1
  Sc  Sc59  1  0.70111421  0.29592162  0.70426306  1
  Sc  Sc60  1  0.10506545  0.50442636  0.50244959  1
  Sc  Sc61  1  0.09126554  0.09274715  0.10497179  1
  Sc  Sc62  1  0.30258997  0.30859706  0.90509679  1
  Sc  Sc63  1  0.48632287  0.29621171  0.09884216  1
  Sc  Sc64  1  0.09907906  0.29670545  0.70122784  1
  Sc  Sc65  1  0.69639371  0.50427730  0.30407505  1
  Sc  Sc66  1  0.49574457  0.29571151  0.90275868  1
  Sc  Sc67  1  0.49672267  0.50211610  0.89725483  1
  Sc  Sc68  1  0.90177593  0.88935118  0.30682811  1
  Sc  Sc69  1  0.70868792  0.30626221  0.89330349  1
  Sc  Sc70  1  0.70060401  0.90337982  0.89601334  1
  Sc  Sc71  1  0.70649851  0.49655121  0.69615730  1
  Sc  Sc72  1  0.70187250  0.49771946  0.49320303  1
  Sc  Sc73  1  0.30912098  0.09176171  0.50025166  1
  Sc  Sc74  1  0.89807041  0.49905913  0.50636179  1
  Sc  Sc75  1  0.49751961  0.10264029  0.29679136  1
  Sc  Sc76  1  0.30591517  0.30403867  0.70010892  1
  Sc  Sc77  1  0.10244163  0.50489861  0.69975169  1
  Sc  Sc78  1  0.69428681  0.09618895  0.90134798  1
  Sc  Sc79  1  0.30002039  0.89457942  0.11379229  1
  Sc  Sc80  1  0.10639098  0.29495931  0.30124032  1
  Sc  Sc81  1  0.49905515  0.49897794  0.49440117  1
  Sc  Sc82  1  0.09469011  0.10301924  0.89375358  1
  Sc  Sc83  1  0.09195214  0.09624702  0.49546509  1
  Sc  Sc84  1  0.69541214  0.70861903  0.89893071  1
  Sc  Sc85  1  0.50624898  0.49231300  0.30252957  1
  Sc  Sc86  1  0.09728256  0.49630014  0.10428991  1
  Sc  Sc87  1  0.09821485  0.90048516  0.49917640  1
  Sc  Sc88  1  0.10122403  0.09386520  0.30311927  1
  Sc  Sc89  1  0.50938311  0.70628896  0.30268795  1
  Sc  Sc90  1  0.30016984  0.09691158  0.30117904  1
  Sc  Sc91  1  0.90652414  0.10548248  0.30283894  1
  Sc  Sc92  1  0.90854415  0.70681607  0.89912201  1
  Sc  Sc93  1  0.30193855  0.90277618  0.30614020  1
  Sc  Sc94  1  0.30953659  0.10526134  0.10853020  1
  Sc  Sc95  1  0.69058515  0.89001468  0.30037919  1
  Sc  Sc96  1  0.30468827  0.10356442  0.88694446  1
  Sc  Sc97  1  0.89969809  0.29724583  0.70050680  1
  Sc  Sc98  1  0.50184634  0.29753068  0.29978043  1
  Sc  Sc99  1  0.50251517  0.09978049  0.50783025  1
  Nb  Nb100  1  0.70113915  0.70455472  0.70205751  1
  Nb  Nb101  1  0.09584490  0.29634190  0.50086862  1
  Nb  Nb102  1  0.29557885  0.50204569  0.30126191  1
  Nb  Nb103  1  0.69520118  0.50539149  0.09906494  1
  Nb  Nb104  1  0.69985317  0.09826245  0.09890159  1
  Nb  Nb105  1  0.89829894  0.90702238  0.50357596  1
  Nb  Nb106  1  0.49309616  0.89175901  0.50714149  1
  Nb  Nb107  1  0.49535146  0.70375661  0.50096288  1
  Nb  Nb108  1  0.10151638  0.90479234  0.10092052  1
  Nb  Nb109  1  0.89488189  0.90116793  0.69574424  1
  Nb  Nb110  1  0.09607444  0.50209909  0.30225734  1
  Nb  Nb111  1  0.10398020  0.70417951  0.09586976  1
  Nb  Nb112  1  0.49607638  0.89769379  0.09722039  1
  Nb  Nb113  1  0.91397769  0.49869536  0.29332594  1
  Nb  Nb114  1  0.90097175  0.29508538  0.90003676  1
  Nb  Nb115  1  0.50383302  0.70376254  0.69666802  1
  Nb  Nb116  1  0.30094604  0.50211534  0.90074905  1
  Nb  Nb117  1  0.50482087  0.50403790  0.09729136  1
  Nb  Nb118  1  0.70636210  0.30144790  0.49593793  1
  Nb  Nb119  1  0.29771820  0.29708905  0.09654083  1
  Nb  Nb120  1  0.30762434  0.89378973  0.50232638  1
  Nb  Nb121  1  0.09314172  0.29255088  0.90232553  1
  Nb  Nb122  1  0.90323751  0.29625325  0.49769911  1
  Nb  Nb123  1  0.50218740  0.89485987  0.69398429  1
  Nb  Nb124  1  0.30159879  0.10472856  0.69388572  1
  Nb  Nb125  1  0.59372066  0.80344444  0.00273842  1
  Nb  Nb126  1  0.80133983  0.80521068  0.59972600  1
  Nb  Nb127  1  0.20183490  0.19898254  0.59610013  1
  Nb  Nb128  1  0.79950177  0.40554554  0.20154654  1
  Nb  Nb129  1  0.80200661  0.19967427  0.00125567  1
  Nb  Nb130  1  0.39945881  -0.00360830  0.00131543  1
  Nb  Nb131  1  0.60042302  0.39913184  0.59824255  1
  Nb  Nb132  1  0.79452019  0.59942912  0.00057152  1
  Nb  Nb133  1  0.00048407  0.39670131  0.80909134  1
  Nb  Nb134  1  0.20084217  0.59910715  0.20394216  1
  Nb  Nb135  1  0.39542458  0.59318064  0.20163330  1
  Nb  Nb136  1  0.00787142  0.79913860  0.19274312  1
  Nb  Nb137  1  0.00238106  0.39771976  0.40332958  1
  Nb  Nb138  1  0.79600666  0.00125399  0.39715904  1
  Nb  Nb139  1  0.20454454  0.00234558  0.00243403  1
  Nb  Nb140  1  0.00000986  0.39504297  -0.00578516  1
  Nb  Nb141  1  0.80126481  0.20033465  0.59084686  1
  Nb  Nb142  1  0.60063652  0.60584474  0.78970820  1
  Nb  Nb143  1  0.39596035  0.60193257  0.39585803  1
  Nb  Nb144  1  0.59776256  0.60305458  0.60252734  1
  Nb  Nb145  1  0.79728800  0.60543041  0.80100551  1
  Nb  Nb146  1  0.39581754  0.59099394  0.00680395  1
  Nb  Nb147  1  0.59842003  0.40567697  0.00631740  1
  Nb  Nb148  1  0.20062465  0.19911540  0.00158327  1
  Nb  Nb149  1  0.79650115  0.00288015  0.20259703  1
  Pd  Pd150  1  0.59584664  0.40532308  0.79929269  1
  Pd  Pd151  1  0.79376825  0.80949357  0.40942285  1
  Pd  Pd152  1  0.79386393  0.60896042  0.60149699  1
  Pd  Pd153  1  0.79768891  0.39136919  0.60382169  1
  Pd  Pd154  1  0.59359464  0.59831701  0.21045254  1
  Pd  Pd155  1  0.19681028  0.18833639  0.19475030  1
  Pd  Pd156  1  0.39930812  0.40381038  0.39482192  1
  Pd  Pd157  1  0.79275952  0.79536904  -0.00312273  1
  Pd  Pd158  1  0.19326606  0.79610117  0.20483344  1
  Pd  Pd159  1  -0.00439961  0.80439174  0.59645043  1
  Pd  Pd160  1  0.60873979  0.79069655  0.59084521  1
  Pd  Pd161  1  0.19447800  0.39314152  0.80251578  1
  Pd  Pd162  1  0.80714828  0.81130706  0.19672983  1
  Pd  Pd163  1  0.80004558  0.20145169  0.19732593  1
  Pd  Pd164  1  0.40448720  0.39603588  0.80602633  1
  Pd  Pd165  1  0.40024313  0.19494564  0.39842876  1
  Pd  Pd166  1  0.60239401  0.39619009  0.19600881  1
  Pd  Pd167  1  0.20683415  0.79643941  0.79084225  1
  Pd  Pd168  1  0.61046763  0.21314689  -0.00504549  1
  Pd  Pd169  1  0.19604221  0.39303760  0.60569724  1
  Pd  Pd170  1  0.00240061  0.80179513  0.00222926  1
  Pd  Pd171  1  0.20500537  0.20628196  0.79908324  1
  Pd  Pd172  1  0.40158193  -0.00113024  0.19691579  1
  Pd  Pd173  1  0.81182933  0.40753483  0.39153766  1
  Pd  Pd174  1  0.60255837  0.20284740  0.80924686  1
  Pd  Pd175  1  0.00196671  0.19537690  0.60471745  1
  Pd  Pd176  1  0.20150763  0.00310017  0.80499606  1
  Pd  Pd177  1  0.20393971  0.00008346  0.40818080  1
  Pd  Pd178  1  0.59339384  -0.00001621  0.39350661  1
  Pd  Pd179  1  0.19276143  0.40151546  0.39636269  1
  Pd  Pd180  1  0.00508505  0.40127453  0.60091846  1
  Pd  Pd181  1  0.19655831  0.00676359  0.59204491  1
  Pd  Pd182  1  0.60039454  -0.00485712  0.20519469  1
  Pd  Pd183  1  0.80896376  0.40530920  0.78973297  1
  Pd  Pd184  1  0.79298598  0.00586952  0.80117606  1
  Pd  Pd185  1  0.40541161  0.40145383  0.20256185  1
  Pd  Pd186  1  0.79347192  0.00277692  0.59431030  1
  Pd  Pd187  1  0.00780784  0.20112903  0.20482052  1
  Pd  Pd188  1  0.79477047  0.39677671  0.00962788  1
  Pd  Pd189  1  0.01298084  0.61036242  0.19655372  1
  Pd  Pd190  1  0.40324226  0.60107527  0.59182597  1
  Pd  Pd191  1  0.20340109  0.80918874  0.00249171  1
  Pd  Pd192  1  0.80836616  0.58917089  0.39563671  1
  Pd  Pd193  1  0.20548690  0.59325599  0.01296082  1
  Pd  Pd194  1  0.00219573  -0.00338213  0.79723193  1
  Pd  Pd195  1  -0.01098038  -0.00872779  0.20965313  1
  Pd  Pd196  1  -0.00203346  0.59522664  -0.00102159  1
  Pd  Pd197  1  0.40953034  -0.00123967  0.40306359  1
  Pd  Pd198  1  0.20082609  0.19102332  0.40706428  1
  Pd  Pd199  1  0.39617152  0.79583774  0.79085004  1
  Rh  Rh200  1  0.40146381  0.20202699  0.20234216  1
  Rh  Rh201  1  0.39956818  0.00035422  0.79772156  1
  Rh  Rh202  1  0.00481150  -0.00217700  0.60442877  1
  Rh  Rh203  1  0.39446406  0.80150035  0.60592324  1
  Rh  Rh204  1  0.59322572  0.79563795  0.80665666  1
  Rh  Rh205  1  -0.00329684  0.20377908  0.79066566  1
  Rh  Rh206  1  0.40410880  0.39662986  0.59785544  1
  Rh  Rh207  1  0.40268451  0.80170835  0.00012740  1
  Rh  Rh208  1  0.38918680  0.19105278  -0.00318052  1
  Rh  Rh209  1  0.79975323  0.19349666  0.80081965  1
  Rh  Rh210  1  0.20326883  0.60393728  0.79409453  1
  Rh  Rh211  1  0.20169007  0.59985287  0.60487183  1
  Rh  Rh212  1  0.00438256  0.60000200  0.59417390  1
  Rh  Rh213  1  -0.00313721  0.80754299  0.79807125  1
  Rh  Rh214  1  0.59636199  0.00192161  0.79350313  1
  Rh  Rh215  1  0.39543550  0.20645412  0.79935071  1
  Rh  Rh216  1  0.40907769  0.40492264  -0.00232171  1
  Rh  Rh217  1  0.19454224  0.40463742  0.21103435  1
  Rh  Rh218  1  0.40280466  0.60339396  0.80526873  1
  Rh  Rh219  1  0.79582415  0.59083014  0.20271481  1
  Rh  Rh220  1  0.40495201  0.79703691  0.20792706  1
  Rh  Rh221  1  0.60061802  0.39711108  0.40809119  1
  Rh  Rh222  1  -0.00448636  0.58737377  0.40956932  1
  Rh  Rh223  1  0.58960082  -0.00060665  0.60650663  1
  Rh  Rh224  1  0.19909729  0.81188767  0.40767682  1
  Rh  Rh225  1  0.59506348  0.20516091  0.19817757  1
  Rh  Rh226  1  0.60963968  0.21215370  0.59555678  1
  Rh  Rh227  1  0.40662211  -0.00246309  0.59978766  1
  Rh  Rh228  1  0.19193664  0.39258725  -0.01026078  1
  Rh  Rh229  1  0.00407502  0.80637817  0.40087173  1
  Rh  Rh230  1  0.20508162  0.80427896  0.60117921  1
  Rh  Rh231  1  0.58983962  0.60497204  0.40581630  1
  Rh  Rh232  1  0.00197155  0.20202765  0.00578584  1
  Rh  Rh233  1  -0.00741792  -0.00712072  0.39619995  1
  Rh  Rh234  1  0.01221959  0.00016851  -0.00965749  1
  Rh  Rh235  1  0.59776246  0.80479691  0.19167839  1
  Rh  Rh236  1  0.59161916  0.20276485  0.40064384  1
  Rh  Rh237  1  0.59912156  0.60118009  -0.01275613  1
  Rh  Rh238  1  0.00530431  0.20739701  0.39592136  1
  Rh  Rh239  1  0.59755685  0.79816091  0.40683931  1
  Rh  Rh240  1  0.79683919  0.00974345  -0.00020877  1
  Rh  Rh241  1  0.20569874  0.59590116  0.39924977  1
  Rh  Rh242  1  0.20480562  0.00319818  0.19498650  1
  Rh  Rh243  1  0.40431489  0.79825774  0.39992441  1
  Rh  Rh244  1  0.80664377  0.79745863  0.79496523  1
  Rh  Rh245  1  0.80374951  0.19179901  0.40515919  1
  Rh  Rh246  1  0.59133888  -0.00704188  -0.00226505  1
  Rh  Rh247  1  0.38858468  0.20267356  0.59587429  1
  Rh  Rh248  1  0.00081124  0.39129479  0.20634143  1
  Rh  Rh249  1  -0.00535324  0.59339032  0.80519328  1
