# generated using pymatgen
data_ZrScNbPdRh
_symmetry_space_group_name_H-M   'P 1'
_cell_length_a   16.56087616
_cell_length_b   16.56099599
_cell_length_c   16.55888399
_cell_angle_alpha   89.98768934
_cell_angle_beta   89.99406431
_cell_angle_gamma   89.97334649
_symmetry_Int_Tables_number   1
_chemical_formula_structural   ZrScNbPdRh
_chemical_formula_sum   'Zr50 Sc50 Nb50 Pd50 Rh50'
_cell_volume   4541.51513399
_cell_formula_units_Z   50
loop_
 _symmetry_equiv_pos_site_id
 _symmetry_equiv_pos_as_xyz
  1  'x, y, z'
loop_
 _atom_site_type_symbol
 _atom_site_label
 _atom_site_symmetry_multiplicity
 _atom_site_fract_x
 _atom_site_fract_y
 _atom_site_fract_z
 _atom_site_occupancy
  Zr  Zr0  1  0.69890753  0.69658912  0.69982295  1
  Zr  Zr1  1  0.50016947  0.49740342  0.11678440  1
  Zr  Zr2  1  0.29769789  0.49850908  0.29654023  1
  Zr  Zr3  1  0.29597783  0.69628774  0.09972659  1
  Zr  Zr4  1  0.09864863  0.89660804  0.30459913  1
  Zr  Zr5  1  0.89267836  0.50406557  0.90813816  1
  Zr  Zr6  1  0.90334863  0.89192360  0.70746309  1
  Zr  Zr7  1  0.69486493  0.90605130  0.49846764  1
  Zr  Zr8  1  0.49909760  0.69997035  0.10115911  1
  Zr  Zr9  1  0.50401796  0.29765546  0.70247015  1
  Zr  Zr10  1  0.09779058  0.30289986  0.49933554  1
  Zr  Zr11  1  0.50008555  0.89515208  0.50009508  1
  Zr  Zr12  1  0.69643690  0.30921868  0.89918127  1
  Zr  Zr13  1  0.30447697  0.69860128  0.69787418  1
  Zr  Zr14  1  0.70238870  0.90276521  0.30536910  1
  Zr  Zr15  1  0.89342543  0.30602491  0.10239589  1
  Zr  Zr16  1  0.68782685  0.10046781  0.69303620  1
  Zr  Zr17  1  0.10598667  0.10214092  0.09912001  1
  Zr  Zr18  1  0.89511660  0.90684143  0.50486216  1
  Zr  Zr19  1  0.10128456  0.10180470  0.90172492  1
  Zr  Zr20  1  0.49920737  0.30232596  0.09543258  1
  Zr  Zr21  1  0.69082237  0.70331030  0.89611805  1
  Zr  Zr22  1  0.30054499  0.30913619  0.89587119  1
  Zr  Zr23  1  0.49545785  0.29460115  0.89847577  1
  Zr  Zr24  1  0.30151540  0.29313883  0.68945726  1
  Zr  Zr25  1  0.89545350  0.89727062  0.90137450  1
  Zr  Zr26  1  0.69467880  0.70495223  0.49818643  1
  Zr  Zr27  1  0.10601641  0.49600175  0.30093042  1
  Zr  Zr28  1  0.49086115  0.10783929  0.10163516  1
  Zr  Zr29  1  0.50289858  0.51036304  0.69423530  1
  Zr  Zr30  1  0.49777982  0.89053727  0.09509370  1
  Zr  Zr31  1  0.69557875  0.09367341  0.88801720  1
  Zr  Zr32  1  0.10148236  0.30390414  0.70394312  1
  Zr  Zr33  1  0.30226203  0.89575902  0.89520527  1
  Zr  Zr34  1  0.11012699  0.69856063  0.50268300  1
  Zr  Zr35  1  0.29507126  0.09985719  0.09988101  1
  Zr  Zr36  1  0.89929650  0.69206442  0.08503935  1
  Zr  Zr37  1  0.10359179  0.89574144  0.50444665  1
  Zr  Zr38  1  0.28792396  0.30604853  0.31062597  1
  Zr  Zr39  1  0.48887562  0.31028550  0.50459274  1
  Zr  Zr40  1  0.70582800  0.69043581  0.30656124  1
  Zr  Zr41  1  0.89322132  0.09975296  0.29455700  1
  Zr  Zr42  1  0.50399875  0.69230399  0.30315371  1
  Zr  Zr43  1  0.29789646  0.69206019  0.30307952  1
  Zr  Zr44  1  0.29420949  0.09994369  0.29208386  1
  Zr  Zr45  1  0.29272651  0.10578107  0.51140150  1
  Zr  Zr46  1  0.90133094  0.10035476  0.89818539  1
  Zr  Zr47  1  0.69504822  0.09955569  0.30875340  1
  Zr  Zr48  1  0.89601308  0.49655590  0.30226465  1
  Zr  Zr49  1  0.50021175  0.10247533  0.30093958  1
  Sc  Sc50  1  0.10104587  0.10717073  0.29725799  1
  Sc  Sc51  1  0.70718015  0.89447441  0.08826165  1
  Sc  Sc52  1  0.30161940  0.09255927  0.70195180  1
  Sc  Sc53  1  0.29556665  0.90352260  0.09757423  1
  Sc  Sc54  1  0.69911765  0.89597950  0.70120500  1
  Sc  Sc55  1  0.90505625  0.30367195  0.89394249  1
  Sc  Sc56  1  0.50022337  0.70055466  0.50830569  1
  Sc  Sc57  1  0.90049814  0.31089021  0.30508241  1
  Sc  Sc58  1  0.30083538  0.89877241  0.29437361  1
  Sc  Sc59  1  0.09723336  0.50321392  0.69762681  1
  Sc  Sc60  1  0.29865764  0.50666593  0.69974876  1
  Sc  Sc61  1  0.10895995  0.30194470  0.09729137  1
  Sc  Sc62  1  0.90230173  0.50597009  0.69861095  1
  Sc  Sc63  1  0.90046175  0.30949564  0.68942438  1
  Sc  Sc64  1  0.50416922  0.29988885  0.29227055  1
  Sc  Sc65  1  0.69492134  0.31508343  0.10525470  1
  Sc  Sc66  1  0.11351741  0.49949501  0.09976546  1
  Sc  Sc67  1  0.09640851  0.30481900  0.30288582  1
  Sc  Sc68  1  0.69997877  0.89494664  0.89023543  1
  Sc  Sc69  1  0.88644467  0.50134973  0.10153969  1
  Sc  Sc70  1  0.70239046  0.30741046  0.50676712  1
  Sc  Sc71  1  0.09343933  0.10859408  0.51061850  1
  Sc  Sc72  1  0.10655764  0.69824993  0.31034258  1
  Sc  Sc73  1  0.70097544  0.50419619  0.29738688  1
  Sc  Sc74  1  0.69686704  0.30679026  0.69824125  1
  Sc  Sc75  1  0.29879424  0.50156336  0.89379478  1
  Sc  Sc76  1  0.49824058  0.49667704  0.88841576  1
  Sc  Sc77  1  0.69905528  0.49962519  0.89569588  1
  Sc  Sc78  1  0.90120152  0.10023987  0.68623705  1
  Sc  Sc79  1  0.70460885  0.50908671  0.49898027  1
  Sc  Sc80  1  0.89750015  0.48693250  0.50145140  1
  Sc  Sc81  1  0.29993205  0.90183272  0.70073428  1
  Sc  Sc82  1  0.89825765  0.90321039  0.30006909  1
  Sc  Sc83  1  0.30114969  0.88959988  0.51579279  1
  Sc  Sc84  1  0.70096134  0.50256868  0.70080022  1
  Sc  Sc85  1  0.49619993  0.89202055  0.30506584  1
  Sc  Sc86  1  0.89060514  0.69939034  0.49777226  1
  Sc  Sc87  1  0.90965883  0.70329798  0.89265072  1
  Sc  Sc88  1  0.49549295  0.90112093  0.69925184  1
  Sc  Sc89  1  0.90292303  0.08814567  0.09706994  1
  Sc  Sc90  1  0.71145915  0.09851115  0.11036132  1
  Sc  Sc91  1  0.11168478  0.89798944  0.70085542  1
  Sc  Sc92  1  0.10336726  0.50178568  0.50632838  1
  Sc  Sc93  1  0.10930323  0.89556086  0.89769385  1
  Sc  Sc94  1  0.10299326  0.90917064  0.09195717  1
  Sc  Sc95  1  0.51599408  0.09472319  0.50667852  1
  Sc  Sc96  1  0.30163173  0.10073415  0.89598769  1
  Sc  Sc97  1  0.10354125  0.30013375  0.89611475  1
  Sc  Sc98  1  0.10942604  0.49578113  0.89466736  1
  Sc  Sc99  1  0.30315504  0.30150328  0.09445799  1
  Nb  Nb100  1  0.69977393  0.68988320  0.10274940  1
  Nb  Nb101  1  0.50598356  0.09853672  0.71426900  1
  Nb  Nb102  1  0.90286475  0.29715273  0.49403347  1
  Nb  Nb103  1  0.09010105  0.69666181  0.70301141  1
  Nb  Nb104  1  0.10050635  0.70101156  0.09292083  1
  Nb  Nb105  1  0.49656295  0.50154718  0.49740618  1
  Nb  Nb106  1  0.29806782  0.68831952  0.50470556  1
  Nb  Nb107  1  0.70486764  0.09460278  0.49728669  1
  Nb  Nb108  1  0.10487817  0.09756343  0.70452365  1
  Nb  Nb109  1  0.89907845  0.10737332  0.49842980  1
  Nb  Nb110  1  0.49873335  0.50008510  0.30560280  1
  Nb  Nb111  1  0.49589258  0.70711183  0.90334519  1
  Nb  Nb112  1  0.30491816  0.49308767  0.49893020  1
  Nb  Nb113  1  0.29944418  0.30214143  0.50153154  1
  Nb  Nb114  1  0.50350052  0.89263224  0.90302724  1
  Nb  Nb115  1  0.30360004  0.70072148  0.90117379  1
  Nb  Nb116  1  0.89999826  0.89456087  0.10190487  1
  Nb  Nb117  1  0.69890148  0.30175224  0.30488865  1
  Nb  Nb118  1  0.90283129  0.69526390  0.29586989  1
  Nb  Nb119  1  0.10822468  0.70212323  0.90559180  1
  Nb  Nb120  1  0.50186515  0.69267922  0.70726833  1
  Nb  Nb121  1  0.50270940  0.09634265  0.89247195  1
  Nb  Nb122  1  0.90916784  0.70114855  0.70430802  1
  Nb  Nb123  1  0.69942621  0.50652229  0.09734789  1
  Nb  Nb124  1  0.30141295  0.50209504  0.10415450  1
  Nb  Nb125  1  0.19036588  0.79404557  0.19616540  1
  Nb  Nb126  1  0.79807519  0.20004099  0.40615931  1
  Nb  Nb127  1  0.59805639  -0.00654048  0.19544194  1
  Nb  Nb128  1  0.59508202  0.40508380  0.39961554  1
  Nb  Nb129  1  0.39775928  0.59266436  0.40523715  1
  Nb  Nb130  1  0.59439779  0.60142478  0.00251678  1
  Nb  Nb131  1  0.80465654  0.79231496  0.19570937  1
  Nb  Nb132  1  0.19993081  0.00097849  0.40575664  1
  Nb  Nb133  1  0.79463413  0.20241460  -0.00709887  1
  Nb  Nb134  1  0.79751926  0.19974993  0.79835129  1
  Nb  Nb135  1  0.00005737  0.00520369  0.40536124  1
  Nb  Nb136  1  0.61047068  0.79624849  0.19937069  1
  Nb  Nb137  1  0.00395170  0.00162824  0.79769780  1
  Nb  Nb138  1  -0.00094976  0.79427173  0.19339745  1
  Nb  Nb139  1  0.00039811  0.79343346  0.60460974  1
  Nb  Nb140  1  -0.00391557  0.20258602  0.19629607  1
  Nb  Nb141  1  0.00329256  0.60560093  0.19958233  1
  Nb  Nb142  1  0.59497400  0.00242398  -0.00021983  1
  Nb  Nb143  1  -0.00225284  0.59949325  0.39598172  1
  Nb  Nb144  1  0.40873359  -0.00030121  -0.00672172  1
  Nb  Nb145  1  0.40182543  0.60184505  -0.00057042  1
  Nb  Nb146  1  0.39335219  0.00685870  0.40487173  1
  Nb  Nb147  1  0.60281651  0.19333963  -0.00288611  1
  Nb  Nb148  1  0.39577851  0.19982106  0.40580083  1
  Nb  Nb149  1  -0.00073108  0.40325249  0.00140832  1
  Pd  Pd150  1  0.00558726  0.80692209  -0.00154618  1
  Pd  Pd151  1  0.19872161  0.78968465  0.79559147  1
  Pd  Pd152  1  0.40459009  0.80014911  0.79324284  1
  Pd  Pd153  1  0.39414153  0.79739543  0.20043296  1
  Pd  Pd154  1  0.38981909  0.21287422  0.20868646  1
  Pd  Pd155  1  0.00501057  0.59434047  0.81054637  1
  Pd  Pd156  1  0.40601362  -0.00687988  0.20046009  1
  Pd  Pd157  1  0.59501391  0.80024661  0.60777581  1
  Pd  Pd158  1  -0.00727526  0.19628439  0.78861993  1
  Pd  Pd159  1  0.39286274  0.79481405  0.40722327  1
  Pd  Pd160  1  0.20678264  0.19869397  0.79777486  1
  Pd  Pd161  1  0.80561305  0.80062969  0.39483998  1
  Pd  Pd162  1  -0.00745696  0.21053793  0.00763012  1
  Pd  Pd163  1  0.59927022  0.21358375  0.41218176  1
  Pd  Pd164  1  0.20634564  0.20525086  -0.00570993  1
  Pd  Pd165  1  0.80457792  0.60077465  0.60004624  1
  Pd  Pd166  1  0.79386134  0.00390929  0.00029149  1
  Pd  Pd167  1  0.40577631  0.00528236  0.59846223  1
  Pd  Pd168  1  0.59893471  0.20404744  0.59371453  1
  Pd  Pd169  1  0.41211787  0.18792212  0.59892962  1
  Pd  Pd170  1  0.00418914  0.40349898  0.18993608  1
  Pd  Pd171  1  0.39469745  0.39176372  0.20612749  1
  Pd  Pd172  1  0.79732303  0.79136851  -0.00339466  1
  Pd  Pd173  1  -0.00900021  0.79789891  0.40510970  1
  Pd  Pd174  1  0.00720781  -0.00625217  0.60278390  1
  Pd  Pd175  1  0.60410058  0.41104407  0.59482927  1
  Pd  Pd176  1  0.39806557  0.40345373  0.78823172  1
  Pd  Pd177  1  0.80405718  0.79574376  0.60554175  1
  Pd  Pd178  1  0.01023479  0.58752817  0.00021953  1
  Pd  Pd179  1  0.79597687  0.20502994  0.59971608  1
  Pd  Pd180  1  0.00515489  0.00066800  0.20507286  1
  Pd  Pd181  1  0.39901466  0.41383493  -0.00108991  1
  Pd  Pd182  1  0.79585924  -0.00061403  0.60658651  1
  Pd  Pd183  1  -0.00293560  0.40931480  0.80439863  1
  Pd  Pd184  1  0.79975001  0.20948209  0.20372839  1
  Pd  Pd185  1  0.80641296  0.00609312  0.78730259  1
  Pd  Pd186  1  0.80215617  0.60469147  0.80164989  1
  Pd  Pd187  1  0.20657260  0.59484988  -0.00451367  1
  Pd  Pd188  1  0.39768942  0.40789383  0.61102768  1
  Pd  Pd189  1  0.21440209  0.80680152  0.39950447  1
  Pd  Pd190  1  0.19806835  0.19540298  0.40341128  1
  Pd  Pd191  1  0.60805744  0.19740248  0.19072993  1
  Pd  Pd192  1  0.19676984  0.60600662  0.79725899  1
  Pd  Pd193  1  0.39413487  0.19631020  0.79764384  1
  Pd  Pd194  1  -0.00712098  0.60295455  0.58779631  1
  Pd  Pd195  1  0.59364744  0.40913412  -0.00269615  1
  Pd  Pd196  1  0.19966667  0.40427016  0.60224482  1
  Pd  Pd197  1  0.80477875  0.39810247  0.79369396  1
  Pd  Pd198  1  0.00240971  -0.00802728  -0.00881650  1
  Pd  Pd199  1  0.00247227  0.20634760  0.60769375  1
  Rh  Rh200  1  0.19716333  0.00260371  0.59891066  1
  Rh  Rh201  1  0.80552349  0.60084101  0.19937990  1
  Rh  Rh202  1  0.78907597  0.39448732  0.40176686  1
  Rh  Rh203  1  0.20141783  0.59823066  0.60548082  1
  Rh  Rh204  1  -0.01147712  0.19525242  0.38823577  1
  Rh  Rh205  1  0.19167103  -0.00930619  0.20708542  1
  Rh  Rh206  1  0.60157195  0.60129907  0.59613051  1
  Rh  Rh207  1  0.59319313  0.79881426  0.79224310  1
  Rh  Rh208  1  0.58838319  -0.00534274  0.39411194  1
  Rh  Rh209  1  0.78621254  0.60429865  -0.01104674  1
  Rh  Rh210  1  0.79775815  0.79057026  0.79834880  1
  Rh  Rh211  1  0.20553808  0.39906171  0.79088184  1
  Rh  Rh212  1  0.60595385  0.40595227  0.21023348  1
  Rh  Rh213  1  0.59345166  -0.01462047  0.79970632  1
  Rh  Rh214  1  0.40179612  0.60619763  0.80732390  1
  Rh  Rh215  1  0.60831421  0.79789866  0.00389014  1
  Rh  Rh216  1  0.80114388  0.40304859  0.59999423  1
  Rh  Rh217  1  0.40237189  0.79183499  0.60514665  1
  Rh  Rh218  1  0.40315484  0.39827543  0.39423503  1
  Rh  Rh219  1  0.78983178  0.40396029  0.20449104  1
  Rh  Rh220  1  0.40450973  -0.00509913  0.80431185  1
  Rh  Rh221  1  0.60588424  0.20776706  0.80301708  1
  Rh  Rh222  1  0.00574065  0.40825270  0.40641367  1
  Rh  Rh223  1  0.21208800  0.00086989  -0.00885862  1
  Rh  Rh224  1  0.19174856  0.60664597  0.19828647  1
  Rh  Rh225  1  0.59584793  0.60071334  0.80678513  1
  Rh  Rh226  1  0.38907722  0.80002799  -0.00122581  1
  Rh  Rh227  1  0.19486879  0.40463500  0.41067224  1
  Rh  Rh228  1  0.19126831  0.20259303  0.60707474  1
  Rh  Rh229  1  0.80805554  0.59625563  0.40315284  1
  Rh  Rh230  1  0.60046413  0.79804614  0.39531366  1
  Rh  Rh231  1  0.40141890  0.19385768  -0.00870698  1
  Rh  Rh232  1  0.19763605  0.78841368  0.61014239  1
  Rh  Rh233  1  0.60141605  0.59943358  0.19923517  1
  Rh  Rh234  1  0.19643200  0.00402751  0.80257393  1
  Rh  Rh235  1  0.80245521  0.39748761  -0.00069537  1
  Rh  Rh236  1  0.01157121  0.80468213  0.80010225  1
  Rh  Rh237  1  0.20371692  0.80115464  0.00380072  1
  Rh  Rh238  1  0.00148605  0.39840974  0.59696760  1
  Rh  Rh239  1  0.79324403  -0.01527296  0.19437225  1
  Rh  Rh240  1  0.80897304  0.00825811  0.40422912  1
  Rh  Rh241  1  0.19398969  0.20914781  0.19808422  1
  Rh  Rh242  1  0.20336125  0.58944732  0.40743120  1
  Rh  Rh243  1  0.40082226  0.60020790  0.59500386  1
  Rh  Rh244  1  0.20661449  0.39486719  0.19344201  1
  Rh  Rh245  1  0.59921290  -0.00551014  0.60496946  1
  Rh  Rh246  1  0.59621400  0.40248936  0.79448167  1
  Rh  Rh247  1  0.20133205  0.40202185  -0.00187667  1
  Rh  Rh248  1  0.39741800  0.59865405  0.20327249  1
  Rh  Rh249  1  0.59365083  0.59440945  0.40692821  1
