# generated using pymatgen
data_ZrScNbPdRh
_symmetry_space_group_name_H-M   'P 1'
_cell_length_a   16.55602643
_cell_length_b   16.55552237
_cell_length_c   16.55458320
_cell_angle_alpha   89.99503983
_cell_angle_beta   89.97977472
_cell_angle_gamma   89.98545761
_symmetry_Int_Tables_number   1
_chemical_formula_structural   ZrScNbPdRh
_chemical_formula_sum   'Zr50 Sc50 Nb50 Pd50 Rh50'
_cell_volume   4537.50595303
_cell_formula_units_Z   50
loop_
 _symmetry_equiv_pos_site_id
 _symmetry_equiv_pos_as_xyz
  1  'x, y, z'
loop_
 _atom_site_type_symbol
 _atom_site_label
 _atom_site_symmetry_multiplicity
 _atom_site_fract_x
 _atom_site_fract_y
 _atom_site_fract_z
 _atom_site_occupancy
  Zr  Zr0  1  0.89668444  0.10607378  0.10118076  1
  Zr  Zr1  1  0.50042414  0.89877249  0.70567836  1
  Zr  Zr2  1  0.29206544  0.88987121  0.89871022  1
  Zr  Zr3  1  0.90938628  0.70629469  0.50158447  1
  Zr  Zr4  1  0.49566091  0.09101283  0.70009468  1
  Zr  Zr5  1  0.10104031  0.10254732  0.10305421  1
  Zr  Zr6  1  0.49976239  0.50583941  0.89953177  1
  Zr  Zr7  1  0.69885413  0.89849727  0.69604981  1
  Zr  Zr8  1  0.50600009  0.30247362  0.49514022  1
  Zr  Zr9  1  0.29994861  0.89985226  0.29718921  1
  Zr  Zr10  1  0.69904380  0.30762158  0.70347344  1
  Zr  Zr11  1  0.29929067  0.89582423  0.50484117  1
  Zr  Zr12  1  0.50231716  0.31047542  0.69775604  1
  Zr  Zr13  1  0.30440101  0.50332488  0.49754771  1
  Zr  Zr14  1  0.09519930  0.10635974  0.30547737  1
  Zr  Zr15  1  0.30726877  0.69693696  0.90105701  1
  Zr  Zr16  1  0.70130624  0.50188478  0.29035760  1
  Zr  Zr17  1  0.29875625  0.89340819  0.09724283  1
  Zr  Zr18  1  0.69393515  0.30062074  0.10454967  1
  Zr  Zr19  1  0.89045601  0.69244942  0.09345923  1
  Zr  Zr20  1  0.29354245  0.30349394  0.89327951  1
  Zr  Zr21  1  0.09973017  0.28564560  0.50142319  1
  Zr  Zr22  1  0.49308260  0.69077058  0.50350479  1
  Zr  Zr23  1  0.49461554  0.89744441  0.89167689  1
  Zr  Zr24  1  0.30069031  0.69639277  0.29364243  1
  Zr  Zr25  1  0.29398176  0.10966414  0.70507805  1
  Zr  Zr26  1  0.30172708  0.49878533  0.10520552  1
  Zr  Zr27  1  0.89882371  0.29952388  0.90764904  1
  Zr  Zr28  1  0.50062440  0.50201537  0.49877558  1
  Zr  Zr29  1  0.10049188  0.49307398  0.90171442  1
  Zr  Zr30  1  0.30143657  0.30407807  0.29482091  1
  Zr  Zr31  1  0.09605459  0.10405070  0.68829435  1
  Zr  Zr32  1  0.89997989  0.10654673  0.90025936  1
  Zr  Zr33  1  0.10595541  0.30428961  0.29999979  1
  Zr  Zr34  1  0.89999570  0.09676158  0.70286478  1
  Zr  Zr35  1  0.30055875  0.70245077  0.09747109  1
  Zr  Zr36  1  0.29488645  0.49291895  0.30474271  1
  Zr  Zr37  1  0.88789989  0.89479593  0.48926803  1
  Zr  Zr38  1  0.29219715  0.69640577  0.50284073  1
  Zr  Zr39  1  0.49891060  0.70402599  0.09499054  1
  Zr  Zr40  1  0.49774390  0.50538270  0.30138289  1
  Zr  Zr41  1  0.10911976  0.89676166  0.09717599  1
  Zr  Zr42  1  0.90414188  0.49398603  0.49834355  1
  Zr  Zr43  1  0.69861557  0.10520393  0.10271951  1
  Zr  Zr44  1  0.09779736  0.10841067  0.89513789  1
  Zr  Zr45  1  0.09912484  0.90068109  0.69694890  1
  Zr  Zr46  1  0.50249110  0.10257228  0.50251196  1
  Zr  Zr47  1  0.90461413  0.30499522  0.30867329  1
  Zr  Zr48  1  0.50350714  0.90179889  0.09395300  1
  Zr  Zr49  1  0.69781658  0.69825323  0.29171306  1
  Sc  Sc50  1  0.90293453  0.30168786  0.50335069  1
  Sc  Sc51  1  0.49882522  0.30157867  0.89988892  1
  Sc  Sc52  1  0.90187187  0.50135396  0.69991940  1
  Sc  Sc53  1  0.50211126  0.29875439  0.29411630  1
  Sc  Sc54  1  0.69405394  0.89028691  0.90142600  1
  Sc  Sc55  1  0.50504509  0.49827493  0.10054678  1
  Sc  Sc56  1  0.49562072  0.10108053  0.89938110  1
  Sc  Sc57  1  0.30097268  0.11379854  0.10019481  1
  Sc  Sc58  1  0.89690281  0.49828691  0.09406352  1
  Sc  Sc59  1  0.71050131  0.69745104  0.50134830  1
  Sc  Sc60  1  0.69987215  0.69723340  0.89845471  1
  Sc  Sc61  1  0.89742087  0.90432858  0.10328695  1
  Sc  Sc62  1  0.09118559  0.89890159  0.30363515  1
  Sc  Sc63  1  0.30641381  0.10577532  0.30063115  1
  Sc  Sc64  1  0.09690393  0.49249180  0.10157561  1
  Sc  Sc65  1  0.10381027  0.69990116  0.31210284  1
  Sc  Sc66  1  0.50305097  0.69837631  0.89568207  1
  Sc  Sc67  1  0.48715216  0.90308959  0.51800936  1
  Sc  Sc68  1  0.30042398  0.49627774  0.88814284  1
  Sc  Sc69  1  0.90438997  0.30770407  0.69978648  1
  Sc  Sc70  1  0.50102413  0.10405557  0.29948304  1
  Sc  Sc71  1  0.70179523  0.10948293  0.90112615  1
  Sc  Sc72  1  0.70142275  0.09822233  0.49906696  1
  Sc  Sc73  1  0.89279528  0.69318875  0.90001678  1
  Sc  Sc74  1  0.10334937  0.69315605  0.88859078  1
  Sc  Sc75  1  0.70620781  0.90091859  0.30454114  1
  Sc  Sc76  1  0.90240879  0.50028572  0.90329935  1
  Sc  Sc77  1  0.69815692  0.08914211  0.69476560  1
  Sc  Sc78  1  0.89184683  0.89778815  0.89531508  1
  Sc  Sc79  1  0.10032391  0.29890429  0.69578638  1
  Sc  Sc80  1  0.70359922  0.29727660  0.49650674  1
  Sc  Sc81  1  0.50268559  0.10610760  0.10104665  1
  Sc  Sc82  1  0.50003611  0.90195529  0.28712081  1
  Sc  Sc83  1  0.69292522  0.89288014  0.09701545  1
  Sc  Sc84  1  0.10909933  0.30486015  0.10018054  1
  Sc  Sc85  1  0.89638856  0.08632625  0.30276957  1
  Sc  Sc86  1  0.90525250  0.09900090  0.49769572  1
  Sc  Sc87  1  0.69843549  0.10598276  0.30312706  1
  Sc  Sc88  1  0.31161039  0.89889806  0.70375110  1
  Sc  Sc89  1  0.30165024  0.10263200  0.50284260  1
  Sc  Sc90  1  0.70002529  0.50204332  0.09356580  1
  Sc  Sc91  1  0.89052092  0.90197194  0.69063126  1
  Sc  Sc92  1  0.50428648  0.50252337  0.70122248  1
  Sc  Sc93  1  0.29448328  0.69630714  0.70350919  1
  Sc  Sc94  1  0.70392705  0.30812405  0.90278973  1
  Sc  Sc95  1  0.70128785  0.50382066  0.70064496  1
  Sc  Sc96  1  0.09564038  0.50480302  0.70239931  1
  Sc  Sc97  1  0.10913376  0.69846812  0.10441808  1
  Sc  Sc98  1  0.69680155  0.69836990  0.08972063  1
  Sc  Sc99  1  0.30052007  0.11126956  0.89967349  1
  Nb  Nb100  1  0.90037493  0.70086745  0.30472732  1
  Nb  Nb101  1  0.70060311  0.89711730  0.50318134  1
  Nb  Nb102  1  0.10234931  0.09642046  0.50331134  1
  Nb  Nb103  1  0.89839752  0.88978792  0.30305397  1
  Nb  Nb104  1  0.10641355  0.50620379  0.50091875  1
  Nb  Nb105  1  0.69869134  0.30223882  0.30300348  1
  Nb  Nb106  1  0.29750598  0.48746078  0.70012206  1
  Nb  Nb107  1  0.70253026  0.69969133  0.70111291  1
  Nb  Nb108  1  0.30533891  0.30276821  0.10246216  1
  Nb  Nb109  1  0.09151675  0.70203791  0.69212170  1
  Nb  Nb110  1  0.90559336  0.49698294  0.30082461  1
  Nb  Nb111  1  0.69332893  0.49909417  0.89975296  1
  Nb  Nb112  1  0.10343361  0.70384617  0.51493762  1
  Nb  Nb113  1  0.90165199  0.69958409  0.69994566  1
  Nb  Nb114  1  0.09283468  0.49194020  0.30145959  1
  Nb  Nb115  1  0.09821574  0.89119267  0.50458959  1
  Nb  Nb116  1  0.70793574  0.49980324  0.49167275  1
  Nb  Nb117  1  0.10040491  0.89780736  0.90045085  1
  Nb  Nb118  1  0.50819660  0.70168873  0.69967582  1
  Nb  Nb119  1  0.10382231  0.30611031  0.90034614  1
  Nb  Nb120  1  0.30186216  0.30822626  0.49638077  1
  Nb  Nb121  1  0.29916876  0.30692464  0.70016763  1
  Nb  Nb122  1  0.89362406  0.30028339  0.10348900  1
  Nb  Nb123  1  0.50375019  0.70174763  0.30351262  1
  Nb  Nb124  1  0.49352937  0.29941767  0.10322084  1
  Nb  Nb125  1  0.00242054  0.80222681  -0.00247416  1
  Nb  Nb126  1  0.20458473  0.59421522  -0.00214434  1
  Nb  Nb127  1  -0.00458792  0.59879243  0.20904445  1
  Nb  Nb128  1  0.59959950  0.20292393  0.79266700  1
  Nb  Nb129  1  0.80092549  0.19960533  0.60572917  1
  Nb  Nb130  1  0.19358055  -0.00022779  0.40565965  1
  Nb  Nb131  1  0.60219512  0.79525515  0.60035180  1
  Nb  Nb132  1  -0.00104245  0.79711858  0.79600728  1
  Nb  Nb133  1  0.80123630  0.00492761  0.00184390  1
  Nb  Nb134  1  -0.00682671  0.79340947  0.20006631  1
  Nb  Nb135  1  -0.00424345  0.20603364  0.20132893  1
  Nb  Nb136  1  0.80944202  0.59609787  0.39400691  1
  Nb  Nb137  1  0.39541982  -0.00354681  -0.00052252  1
  Nb  Nb138  1  0.00094853  -0.00160381  -0.00353063  1
  Nb  Nb139  1  0.19327068  0.00057284  0.80236692  1
  Nb  Nb140  1  0.20409876  0.40184412  0.59571591  1
  Nb  Nb141  1  0.39769977  0.21191016  0.60201137  1
  Nb  Nb142  1  0.59686348  -0.00950621  0.40744031  1
  Nb  Nb143  1  0.80303107  0.39715923  0.20370257  1
  Nb  Nb144  1  0.59427527  0.80162046  0.40681043  1
  Nb  Nb145  1  0.40420145  0.79529372  0.39884885  1
  Nb  Nb146  1  0.39632932  0.39587985  0.00370008  1
  Nb  Nb147  1  0.19896246  0.00206295  0.20521583  1
  Nb  Nb148  1  0.60600253  0.40420758  0.39617658  1
  Nb  Nb149  1  0.80561538  0.79546965  0.20309259  1
  Pd  Pd150  1  0.00370108  0.60343308  0.40218672  1
  Pd  Pd151  1  0.00159372  0.21097193  0.79496988  1
  Pd  Pd152  1  0.60901580  0.60070691  0.59931613  1
  Pd  Pd153  1  0.19865136  0.59594614  0.79750883  1
  Pd  Pd154  1  0.20063521  0.20674452  0.00051611  1
  Pd  Pd155  1  0.00299277  -0.00657375  0.40807919  1
  Pd  Pd156  1  0.60760102  -0.00016461  0.20926768  1
  Pd  Pd157  1  0.80373351  0.40882243  0.80501892  1
  Pd  Pd158  1  -0.00117740  0.59499644  0.59994827  1
  Pd  Pd159  1  0.39432847  0.01003456  0.18937323  1
  Pd  Pd160  1  0.80426545  0.20575677  0.21188584  1
  Pd  Pd161  1  0.01148843  0.60721722  0.00487362  1
  Pd  Pd162  1  0.40619674  0.60072342  0.19771016  1
  Pd  Pd163  1  0.79165205  -0.00799137  0.19688957  1
  Pd  Pd164  1  0.20646312  0.80033220  0.61163804  1
  Pd  Pd165  1  0.79068156  -0.00167796  0.80942271  1
  Pd  Pd166  1  0.20049104  0.80439106  0.39819061  1
  Pd  Pd167  1  0.60410477  0.19762173  0.60571894  1
  Pd  Pd168  1  0.80442167  0.19649680  0.40592392  1
  Pd  Pd169  1  0.20832737  0.19475226  0.40138083  1
  Pd  Pd170  1  0.00290360  -0.00333931  0.19642834  1
  Pd  Pd171  1  0.59523803  0.60233637  0.18894210  1
  Pd  Pd172  1  -0.00837720  -0.00763271  0.59036913  1
  Pd  Pd173  1  0.18885563  0.59058070  0.19986427  1
  Pd  Pd174  1  0.39381553  0.59939156  0.61282095  1
  Pd  Pd175  1  0.40808217  0.20734723  0.79430467  1
  Pd  Pd176  1  -0.00203284  0.39421150  0.00614516  1
  Pd  Pd177  1  0.61053141  0.40944092  0.59098075  1
  Pd  Pd178  1  0.39934181  0.40148056  0.59770130  1
  Pd  Pd179  1  0.40557974  0.79739727  0.20182887  1
  Pd  Pd180  1  0.79980309  0.59274267  0.80310862  1
  Pd  Pd181  1  0.20613280  -0.00220235  0.60257107  1
  Pd  Pd182  1  0.80341508  0.79827097  0.79759684  1
  Pd  Pd183  1  0.39997821  0.20609070  0.40305060  1
  Pd  Pd184  1  0.01063243  0.39636672  0.41153893  1
  Pd  Pd185  1  0.20321876  0.01030425  -0.00177620  1
  Pd  Pd186  1  0.79356383  0.20181840  0.79257662  1
  Pd  Pd187  1  0.00114310  -0.00863349  0.80423858  1
  Pd  Pd188  1  0.40261589  -0.00767508  0.40138708  1
  Pd  Pd189  1  0.60054132  0.00381315  -0.00825649  1
  Pd  Pd190  1  0.60751513  0.00672424  0.80915890  1
  Pd  Pd191  1  0.19610135  0.59858006  0.39770152  1
  Pd  Pd192  1  0.61067414  0.60217130  0.40401668  1
  Pd  Pd193  1  0.80655807  0.60045163  0.59587410  1
  Pd  Pd194  1  0.00495510  0.20605975  0.00883225  1
  Pd  Pd195  1  0.00073545  0.39815752  0.79982710  1
  Pd  Pd196  1  0.79855125  0.39576467  0.59966085  1
  Pd  Pd197  1  0.59270409  0.39862022  -0.00106342  1
  Pd  Pd198  1  0.40307989  0.59996132  0.78980640  1
  Pd  Pd199  1  0.59696579  0.20453402  -0.00679545  1
  Rh  Rh200  1  -0.01074215  0.19791208  0.60083043  1
  Rh  Rh201  1  0.19928533  0.40283993  0.19987445  1
  Rh  Rh202  1  0.19212160  0.80406424  0.79408866  1
  Rh  Rh203  1  0.18926986  0.39767487  0.79067338  1
  Rh  Rh204  1  0.19355726  0.40133516  0.40856656  1
  Rh  Rh205  1  0.59732434  0.20213890  0.20179058  1
  Rh  Rh206  1  0.40681370  0.80540845  -0.00440435  1
  Rh  Rh207  1  0.60382211  0.39746925  0.20374135  1
  Rh  Rh208  1  0.40187493  0.20420832  0.00204068  1
  Rh  Rh209  1  0.40337745  0.78754089  0.60209386  1
  Rh  Rh210  1  0.59968741  -0.00969659  0.59314623  1
  Rh  Rh211  1  0.01298189  0.40475351  0.59517847  1
  Rh  Rh212  1  -0.00710536  0.80716104  0.60330261  1
  Rh  Rh213  1  0.79415420  0.40506543  0.39312893  1
  Rh  Rh214  1  0.40544517  0.40158889  0.80671311  1
  Rh  Rh215  1  0.60048495  0.60166293  -0.00265355  1
  Rh  Rh216  1  0.80265664  0.00855008  0.59153728  1
  Rh  Rh217  1  0.79767280  0.40164293  0.00419094  1
  Rh  Rh218  1  0.19604126  0.19908592  0.20274433  1
  Rh  Rh219  1  0.19985058  0.59257332  0.60644135  1
  Rh  Rh220  1  0.60006118  0.19937196  0.39736884  1
  Rh  Rh221  1  0.60480026  0.79326289  0.79419929  1
  Rh  Rh222  1  0.79198651  0.59008003  -0.01046304  1
  Rh  Rh223  1  0.39019197  0.01250407  0.60422337  1
  Rh  Rh224  1  0.40454303  0.40115270  0.19812398  1
  Rh  Rh225  1  -0.00526922  0.60660908  0.79883540  1
  Rh  Rh226  1  0.38353193  0.00098654  0.81207037  1
  Rh  Rh227  1  0.19011490  0.80624632  0.21224939  1
  Rh  Rh228  1  0.59443712  0.79483158  -0.00698028  1
  Rh  Rh229  1  0.19202203  0.77998150  -0.01104218  1
  Rh  Rh230  1  0.60459919  0.59960419  0.79994793  1
  Rh  Rh231  1  0.21147397  0.20940785  0.59543090  1
  Rh  Rh232  1  0.79757692  0.79323024  0.60467402  1
  Rh  Rh233  1  0.80676966  0.80909826  0.00786167  1
  Rh  Rh234  1  0.20945598  0.40455763  -0.00042342  1
  Rh  Rh235  1  0.80839942  0.59676848  0.20290290  1
  Rh  Rh236  1  0.41037617  0.39775341  0.39370982  1
  Rh  Rh237  1  0.79356058  0.00085184  0.40105284  1
  Rh  Rh238  1  0.59954673  0.40049852  0.80427931  1
  Rh  Rh239  1  0.39361234  0.58897847  0.00073754  1
  Rh  Rh240  1  0.78868823  0.79075911  0.39399354  1
  Rh  Rh241  1  0.60489694  0.80058372  0.20304637  1
  Rh  Rh242  1  -0.00696941  0.39931856  0.19355469  1
  Rh  Rh243  1  -0.00414031  0.19792533  0.39757176  1
  Rh  Rh244  1  0.00829353  0.79814187  0.40266638  1
  Rh  Rh245  1  0.40156106  0.78970712  0.79518599  1
  Rh  Rh246  1  0.40294024  0.20009378  0.20060274  1
  Rh  Rh247  1  0.19097141  0.20441455  0.79733574  1
  Rh  Rh248  1  0.39326263  0.60566703  0.39459779  1
  Rh  Rh249  1  0.79400266  0.20125463  0.00164214  1
