# generated using pymatgen
data_ZrScNbPdRh
_symmetry_space_group_name_H-M   'P 1'
_cell_length_a   16.55247688
_cell_length_b   16.55904248
_cell_length_c   16.55713750
_cell_angle_alpha   89.98815249
_cell_angle_beta   90.00145480
_cell_angle_gamma   90.03401370
_symmetry_Int_Tables_number   1
_chemical_formula_structural   ZrScNbPdRh
_chemical_formula_sum   'Zr50 Sc50 Nb50 Pd50 Rh50'
_cell_volume   4538.19736999
_cell_formula_units_Z   50
loop_
 _symmetry_equiv_pos_site_id
 _symmetry_equiv_pos_as_xyz
  1  'x, y, z'
loop_
 _atom_site_type_symbol
 _atom_site_label
 _atom_site_symmetry_multiplicity
 _atom_site_fract_x
 _atom_site_fract_y
 _atom_site_fract_z
 _atom_site_occupancy
  Zr  Zr0  1  0.69658538  0.90365364  0.90369096  1
  Zr  Zr1  1  0.49798668  0.70562721  0.88771086  1
  Zr  Zr2  1  0.49655235  0.10021416  0.50027624  1
  Zr  Zr3  1  0.10201896  0.50581938  0.69410175  1
  Zr  Zr4  1  0.49348458  0.30150326  0.49716780  1
  Zr  Zr5  1  0.29766362  0.09807993  0.09525207  1
  Zr  Zr6  1  0.69805891  0.29882230  0.09313277  1
  Zr  Zr7  1  0.50377679  0.30788945  0.90768902  1
  Zr  Zr8  1  0.70380036  0.50680279  0.50444103  1
  Zr  Zr9  1  0.69485056  0.69333889  0.69629697  1
  Zr  Zr10  1  0.08743436  0.89303468  0.30002058  1
  Zr  Zr11  1  0.31029531  0.89371475  0.29343133  1
  Zr  Zr12  1  0.30036511  0.89683859  0.50830208  1
  Zr  Zr13  1  0.69854624  0.50124204  0.70144611  1
  Zr  Zr14  1  0.69515356  0.49448097  0.89332315  1
  Zr  Zr15  1  0.90651566  0.70865219  0.30463196  1
  Zr  Zr16  1  0.09162655  0.30223132  0.90265405  1
  Zr  Zr17  1  0.49794538  0.88889862  0.50017046  1
  Zr  Zr18  1  0.89813751  0.50393374  0.10759840  1
  Zr  Zr19  1  0.91136309  0.70829072  0.69349819  1
  Zr  Zr20  1  0.69655905  0.30070348  0.29296344  1
  Zr  Zr21  1  0.29886774  0.09746810  0.90820405  1
  Zr  Zr22  1  0.50758749  0.89662869  0.29994536  1
  Zr  Zr23  1  0.10711673  0.70382272  0.90123194  1
  Zr  Zr24  1  0.69951182  0.10239112  0.71037733  1
  Zr  Zr25  1  0.09418723  0.90079983  0.70009980  1
  Zr  Zr26  1  0.89655250  0.10143098  0.90748282  1
  Zr  Zr27  1  0.69961886  0.10424353  0.30257408  1
  Zr  Zr28  1  0.50172368  0.69178340  0.09933338  1
  Zr  Zr29  1  0.29958903  0.29412245  0.49751219  1
  Zr  Zr30  1  0.10349094  0.10048481  0.90405004  1
  Zr  Zr31  1  0.49144308  0.89866059  0.10217287  1
  Zr  Zr32  1  0.70146279  0.51125332  0.09883696  1
  Zr  Zr33  1  0.50155987  0.49901631  0.09587401  1
  Zr  Zr34  1  0.69652081  0.89079738  0.49141685  1
  Zr  Zr35  1  0.49704636  0.49854127  0.49926376  1
  Zr  Zr36  1  0.29833807  0.90015335  0.90592078  1
  Zr  Zr37  1  0.90160065  0.49721096  0.49635710  1
  Zr  Zr38  1  0.09971639  0.29595063  0.70719922  1
  Zr  Zr39  1  0.90211894  0.28959683  0.70320864  1
  Zr  Zr40  1  0.10001638  0.30112416  0.11138225  1
  Zr  Zr41  1  0.70372861  0.50404586  0.29873563  1
  Zr  Zr42  1  0.09653585  0.09772604  0.50012480  1
  Zr  Zr43  1  0.29974075  0.28909717  0.09609670  1
  Zr  Zr44  1  0.09768121  0.69584628  0.09710230  1
  Zr  Zr45  1  0.49834699  0.29953924  0.10255741  1
  Zr  Zr46  1  0.90149083  0.09918168  0.29764876  1
  Zr  Zr47  1  0.71122879  0.90142525  0.10452518  1
  Zr  Zr48  1  0.29314812  0.09615446  0.50368672  1
  Zr  Zr49  1  0.50142297  0.09355072  0.70637941  1
  Sc  Sc50  1  0.49199733  0.50199747  0.29442059  1
  Sc  Sc51  1  0.10471478  0.90236361  0.50175451  1
  Sc  Sc52  1  0.70706640  0.09925265  0.09380233  1
  Sc  Sc53  1  0.29877715  0.30026239  0.89517789  1
  Sc  Sc54  1  0.49898344  0.29525960  0.71395714  1
  Sc  Sc55  1  0.90334202  0.50122750  0.89559370  1
  Sc  Sc56  1  0.69428396  0.69907695  0.89839204  1
  Sc  Sc57  1  0.09329459  0.90408951  0.90294951  1
  Sc  Sc58  1  0.89360917  0.50405888  0.69769161  1
  Sc  Sc59  1  0.30650625  0.51235179  0.10593834  1
  Sc  Sc60  1  0.90643660  0.50560568  0.30659095  1
  Sc  Sc61  1  0.50137722  0.70538006  0.29220924  1
  Sc  Sc62  1  0.69580834  0.89380044  0.70132588  1
  Sc  Sc63  1  0.49688152  0.50408894  0.90132674  1
  Sc  Sc64  1  0.10092558  0.50403027  0.48988303  1
  Sc  Sc65  1  0.89692537  0.89832242  0.28845910  1
  Sc  Sc66  1  0.49190086  0.10511326  0.09789452  1
  Sc  Sc67  1  0.29901912  0.09832592  0.70402871  1
  Sc  Sc68  1  0.50205469  0.51314474  0.70568338  1
  Sc  Sc69  1  0.09633191  0.09623190  0.29663801  1
  Sc  Sc70  1  0.29162945  0.50023937  0.49667516  1
  Sc  Sc71  1  0.89843232  0.31359728  0.29921122  1
  Sc  Sc72  1  0.30222714  0.50679410  0.89930033  1
  Sc  Sc73  1  0.49341630  0.30480216  0.30294335  1
  Sc  Sc74  1  0.10232017  0.69684286  0.69641726  1
  Sc  Sc75  1  0.09616553  0.09570046  0.69775073  1
  Sc  Sc76  1  0.30009046  0.69185995  0.28957019  1
  Sc  Sc77  1  0.10297617  0.29779871  0.49599750  1
  Sc  Sc78  1  0.70262715  0.70961933  0.29638974  1
  Sc  Sc79  1  0.70072526  0.10091158  0.90424370  1
  Sc  Sc80  1  0.50082537  0.09509950  0.89767446  1
  Sc  Sc81  1  0.91000342  0.30426422  0.10508293  1
  Sc  Sc82  1  0.90199317  0.09195363  0.10193971  1
  Sc  Sc83  1  0.09754057  0.10586997  0.10278831  1
  Sc  Sc84  1  0.91338844  0.69647611  0.90135128  1
  Sc  Sc85  1  0.09811264  0.69273902  0.50529094  1
  Sc  Sc86  1  0.50180564  0.89779809  0.89602915  1
  Sc  Sc87  1  0.70535655  0.30348212  0.48745112  1
  Sc  Sc88  1  0.29664170  0.50825561  0.70892529  1
  Sc  Sc89  1  0.70115785  0.29144418  0.89716282  1
  Sc  Sc90  1  0.30286983  0.69931413  0.69654269  1
  Sc  Sc91  1  0.90056582  0.69486447  0.49423661  1
  Sc  Sc92  1  0.30210211  0.69898336  0.90249185  1
  Sc  Sc93  1  0.50387865  0.10795986  0.29767278  1
  Sc  Sc94  1  0.10094233  0.68775476  0.30148200  1
  Sc  Sc95  1  0.70075890  0.30248920  0.71339506  1
  Sc  Sc96  1  0.90537258  0.88448522  0.49490925  1
  Sc  Sc97  1  0.29232362  0.30579528  0.30094425  1
  Sc  Sc98  1  0.10036701  0.50572051  0.89499005  1
  Sc  Sc99  1  0.29268457  0.10246844  0.29951011  1
  Nb  Nb100  1  0.89689362  0.10517897  0.49962103  1
  Nb  Nb101  1  0.90296430  0.29812207  0.49870294  1
  Nb  Nb102  1  0.90561707  0.89998413  0.09836094  1
  Nb  Nb103  1  0.49386266  0.89409437  0.70384241  1
  Nb  Nb104  1  0.70273323  0.90263481  0.29916358  1
  Nb  Nb105  1  0.29284840  0.50614283  0.30603598  1
  Nb  Nb106  1  0.09573132  0.89601692  0.10151410  1
  Nb  Nb107  1  0.30174965  0.70081273  0.50012394  1
  Nb  Nb108  1  0.90005945  0.09531219  0.69121624  1
  Nb  Nb109  1  0.09470033  0.30495932  0.29650552  1
  Nb  Nb110  1  0.11406822  0.49230051  0.29986979  1
  Nb  Nb111  1  0.49818290  0.70557214  0.69689995  1
  Nb  Nb112  1  0.29789326  0.70554570  0.09606605  1
  Nb  Nb113  1  0.29921495  0.89786654  0.09890483  1
  Nb  Nb114  1  0.70738756  0.69785029  0.09876942  1
  Nb  Nb115  1  0.70128851  0.10044344  0.49973301  1
  Nb  Nb116  1  0.10100624  0.49643029  0.10894486  1
  Nb  Nb117  1  0.69674733  0.69996616  0.49697608  1
  Nb  Nb118  1  0.49928844  0.69834821  0.50825425  1
  Nb  Nb119  1  0.90382507  0.89898852  0.70225476  1
  Nb  Nb120  1  0.90161099  0.89947072  0.89980739  1
  Nb  Nb121  1  0.89837120  0.29873525  0.90392905  1
  Nb  Nb122  1  0.29560600  0.90155489  0.70237388  1
  Nb  Nb123  1  0.89670167  0.70146617  0.10273089  1
  Nb  Nb124  1  0.29856240  0.30392440  0.69897762  1
  Nb  Nb125  1  0.40030351  0.60601298  0.40466909  1
  Nb  Nb126  1  0.80878909  -0.00495768  0.79486227  1
  Nb  Nb127  1  0.20034720  0.39542866  0.60537354  1
  Nb  Nb128  1  0.00156459  0.39466149  0.59855058  1
  Nb  Nb129  1  0.80320631  0.40067125  -0.00171714  1
  Nb  Nb130  1  0.80082230  -0.00015058  0.59795562  1
  Nb  Nb131  1  0.39608627  0.39773613  0.60525854  1
  Nb  Nb132  1  0.79771572  0.00057219  0.40534893  1
  Nb  Nb133  1  0.40033856  -0.00307473  0.40159328  1
  Nb  Nb134  1  0.80813139  0.80373923  0.80375597  1
  Nb  Nb135  1  0.59590841  0.39623414  0.60040419  1
  Nb  Nb136  1  0.60263037  0.00160193  0.59747543  1
  Nb  Nb137  1  0.60118259  0.40404471  0.19395368  1
  Nb  Nb138  1  0.80062843  0.20244760  0.20164680  1
  Nb  Nb139  1  0.80634366  0.79760764  0.00271310  1
  Nb  Nb140  1  0.20184022  0.80710039  0.79842058  1
  Nb  Nb141  1  0.20578411  0.79606184  0.39717351  1
  Nb  Nb142  1  0.60424840  0.20035764  0.59773897  1
  Nb  Nb143  1  0.19425264  0.40337179  0.00681283  1
  Nb  Nb144  1  0.79915683  0.19551014  0.59640958  1
  Nb  Nb145  1  0.19875996  0.80026900  0.19378502  1
  Nb  Nb146  1  0.59627527  0.60703130  0.40543134  1
  Nb  Nb147  1  0.20025313  -0.01225439  0.19479142  1
  Nb  Nb148  1  0.60398639  -0.00200962  0.20108254  1
  Nb  Nb149  1  -0.00504261  0.20358208  0.40052565  1
  Pd  Pd150  1  0.00298213  0.59707517  0.20693514  1
  Pd  Pd151  1  0.19103470  -0.00542184  0.00743096  1
  Pd  Pd152  1  0.39731995  0.79338210  0.39752806  1
  Pd  Pd153  1  0.19576281  0.79549181  0.60106044  1
  Pd  Pd154  1  0.59984365  0.40815138  0.39559788  1
  Pd  Pd155  1  0.80661266  0.60752374  0.59812297  1
  Pd  Pd156  1  0.40134231  0.00929949  0.20636128  1
  Pd  Pd157  1  0.20014024  0.40461317  0.80492185  1
  Pd  Pd158  1  0.80462258  0.60095987  -0.01137521  1
  Pd  Pd159  1  0.39476266  0.19322839  0.39166900  1
  Pd  Pd160  1  0.39462176  0.19872676  0.20785697  1
  Pd  Pd161  1  0.59760232  0.20592974  0.40460341  1
  Pd  Pd162  1  0.59376759  0.00424062  0.01005737  1
  Pd  Pd163  1  0.80444916  0.61264752  0.80396349  1
  Pd  Pd164  1  0.59920997  0.80291791  0.60478703  1
  Pd  Pd165  1  0.40346400  0.40753544  0.79591072  1
  Pd  Pd166  1  0.39781792  0.19891971  0.80600228  1
  Pd  Pd167  1  0.20181724  0.59112917  0.00277999  1
  Pd  Pd168  1  0.80669202  0.39750490  0.80574625  1
  Pd  Pd169  1  0.00001537  0.40954710  0.00154820  1
  Pd  Pd170  1  0.39591260  0.40171199  0.20133503  1
  Pd  Pd171  1  0.39678143  -0.00460872  0.80507615  1
  Pd  Pd172  1  -0.00314387  0.18872875  0.80255822  1
  Pd  Pd173  1  -0.00644502  0.40568574  0.79213167  1
  Pd  Pd174  1  0.60557364  0.79683949  0.00590755  1
  Pd  Pd175  1  -0.00311316  0.80045370  0.00068189  1
  Pd  Pd176  1  0.39216312  0.59314073  0.59866776  1
  Pd  Pd177  1  0.80022924  0.40228935  0.39785081  1
  Pd  Pd178  1  0.60602977  0.80166561  0.19179915  1
  Pd  Pd179  1  0.00102400  0.59181144  0.00319235  1
  Pd  Pd180  1  -0.01010781  -0.00057542  0.40393489  1
  Pd  Pd181  1  0.20234492  0.19613686  0.80210242  1
  Pd  Pd182  1  -0.00650384  -0.00837671  0.58948280  1
  Pd  Pd183  1  0.80404512  0.60932967  0.21124175  1
  Pd  Pd184  1  0.40388893  0.79681423  -0.00209167  1
  Pd  Pd185  1  -0.00249205  0.00722939  0.80517621  1
  Pd  Pd186  1  0.21395876  0.40283513  0.19362042  1
  Pd  Pd187  1  0.40482377  0.20413085  0.60972842  1
  Pd  Pd188  1  0.38572889  0.40262398  0.00049449  1
  Pd  Pd189  1  0.79817095  0.38798029  0.60164506  1
  Pd  Pd190  1  0.18847273  0.20118982  0.39084720  1
  Pd  Pd191  1  0.00299303  0.60200929  0.79521865  1
  Pd  Pd192  1  0.19595921  0.19942864  0.60572144  1
  Pd  Pd193  1  0.20583870  -0.01190236  0.38961779  1
  Pd  Pd194  1  0.40350317  -0.00334190  0.59995009  1
  Pd  Pd195  1  0.59770234  0.00125550  0.39876863  1
  Pd  Pd196  1  0.80053305  0.80014766  0.60307569  1
  Pd  Pd197  1  -0.00214465  0.19815828  0.00745068  1
  Pd  Pd198  1  0.59793899  0.60329260  -0.00901714  1
  Pd  Pd199  1  0.59434737  0.19187173  -0.00239768  1
  Rh  Rh200  1  0.00603708  0.79842112  0.80046338  1
  Rh  Rh201  1  0.79325624  0.39404391  0.18804768  1
  Rh  Rh202  1  0.39836019  0.79943795  0.60879255  1
  Rh  Rh203  1  -0.00122362  0.20487721  0.59302633  1
  Rh  Rh204  1  0.00224398  0.79277197  0.19487712  1
  Rh  Rh205  1  -0.00570400  0.20302670  0.20955772  1
  Rh  Rh206  1  0.81110189  0.21123175  0.01003427  1
  Rh  Rh207  1  0.60145355  0.59804046  0.20736106  1
  Rh  Rh208  1  0.39071023  0.80215169  0.79430003  1
  Rh  Rh209  1  0.60935462  0.40516335  0.00188424  1
  Rh  Rh210  1  0.79941580  0.80216901  0.39608083  1
  Rh  Rh211  1  0.80783978  0.19824447  0.39489844  1
  Rh  Rh212  1  0.59520139  0.20070680  0.80673929  1
  Rh  Rh213  1  -0.00478249  0.59056200  0.59698358  1
  Rh  Rh214  1  0.39751333  0.79029704  0.19159262  1
  Rh  Rh215  1  0.19862054  0.00387909  0.60703125  1
  Rh  Rh216  1  0.00703387  -0.00129207  0.19291976  1
  Rh  Rh217  1  0.79463019  0.00764679  0.20645914  1
  Rh  Rh218  1  0.20427742  0.59462476  0.59693119  1
  Rh  Rh219  1  0.19777534  -0.00452519  0.79925478  1
  Rh  Rh220  1  0.20227392  0.61328614  0.80076351  1
  Rh  Rh221  1  0.19869700  0.39561748  0.40407570  1
  Rh  Rh222  1  0.00185961  0.00052498  0.00447495  1
  Rh  Rh223  1  0.60528116  0.19971427  0.19337326  1
  Rh  Rh224  1  0.59868310  0.59700135  0.59694328  1
  Rh  Rh225  1  0.19360248  0.21087465  -0.00301827  1
  Rh  Rh226  1  0.80555703  -0.00881021  -0.00612870  1
  Rh  Rh227  1  0.79365933  0.60760226  0.39860529  1
  Rh  Rh228  1  0.60402800  0.80001440  0.79346656  1
  Rh  Rh229  1  0.19840988  0.80304023  -0.00064555  1
  Rh  Rh230  1  0.80368375  0.79802439  0.19667623  1
  Rh  Rh231  1  0.60486759  -0.00757412  0.79543686  1
  Rh  Rh232  1  0.59334327  0.40114783  0.79554967  1
  Rh  Rh233  1  0.00103210  0.41057849  0.20859558  1
  Rh  Rh234  1  0.40451045  -0.00418679  -0.00307112  1
  Rh  Rh235  1  0.40347097  0.20071059  -0.00926800  1
  Rh  Rh236  1  0.19636328  0.19288065  0.20377503  1
  Rh  Rh237  1  0.40042627  0.60271077  0.20273262  1
  Rh  Rh238  1  0.00548846  0.80132640  0.59467612  1
  Rh  Rh239  1  0.00563341  0.59694724  0.39630417  1
  Rh  Rh240  1  0.01299942  0.79235361  0.40696892  1
  Rh  Rh241  1  0.39990034  0.60657178  0.80004963  1
  Rh  Rh242  1  0.00769385  0.39665050  0.40125991  1
  Rh  Rh243  1  0.38775198  0.40981457  0.40088432  1
  Rh  Rh244  1  0.19755934  0.60228506  0.19384420  1
  Rh  Rh245  1  0.80771028  0.19178529  0.79990415  1
  Rh  Rh246  1  0.40198417  0.60643084  -0.00185884  1
  Rh  Rh247  1  0.60000672  0.78936618  0.39743777  1
  Rh  Rh248  1  0.20554890  0.60875384  0.40136164  1
  Rh  Rh249  1  0.59688621  0.60321733  0.80153659  1
