# generated using pymatgen
data_ZrScNbPdRh
_symmetry_space_group_name_H-M   'P 1'
_cell_length_a   16.55990672
_cell_length_b   16.55858746
_cell_length_c   16.56112595
_cell_angle_alpha   90.00274707
_cell_angle_beta   90.07276549
_cell_angle_gamma   90.02194281
_symmetry_Int_Tables_number   1
_chemical_formula_structural   ZrScNbPdRh
_chemical_formula_sum   'Zr50 Sc50 Nb50 Pd50 Rh50'
_cell_volume   4541.20021610
_cell_formula_units_Z   50
loop_
 _symmetry_equiv_pos_site_id
 _symmetry_equiv_pos_as_xyz
  1  'x, y, z'
loop_
 _atom_site_type_symbol
 _atom_site_label
 _atom_site_symmetry_multiplicity
 _atom_site_fract_x
 _atom_site_fract_y
 _atom_site_fract_z
 _atom_site_occupancy
  Zr  Zr0  1  0.51044339  0.70120406  0.10223221  1
  Zr  Zr1  1  0.90111057  0.69676330  0.08678725  1
  Zr  Zr2  1  0.50718920  0.30080742  0.70143080  1
  Zr  Zr3  1  0.50574911  0.50234486  0.10037183  1
  Zr  Zr4  1  0.89487423  0.49851898  0.49296866  1
  Zr  Zr5  1  0.69802667  0.69256435  0.48959679  1
  Zr  Zr6  1  0.50435068  0.90123369  0.30454068  1
  Zr  Zr7  1  0.09903968  0.09485358  0.89667916  1
  Zr  Zr8  1  0.31043609  0.89938670  0.70289459  1
  Zr  Zr9  1  0.89385230  0.49949703  0.10110833  1
  Zr  Zr10  1  0.90814936  0.30723356  0.90206882  1
  Zr  Zr11  1  0.90062662  0.08410428  0.69679022  1
  Zr  Zr12  1  0.90006509  0.10131053  0.50014864  1
  Zr  Zr13  1  0.50447301  0.29650597  0.10590717  1
  Zr  Zr14  1  0.09892486  0.09593457  0.50247663  1
  Zr  Zr15  1  0.89908298  0.29890688  0.49740596  1
  Zr  Zr16  1  0.31458988  0.50474944  0.69764789  1
  Zr  Zr17  1  0.10247307  0.70248022  0.69438081  1
  Zr  Zr18  1  0.71184568  0.89785447  0.70051531  1
  Zr  Zr19  1  0.10161233  0.68825108  0.29610825  1
  Zr  Zr20  1  0.30061729  0.89863543  0.30339999  1
  Zr  Zr21  1  0.30628615  0.49661631  0.89935532  1
  Zr  Zr22  1  0.29676748  0.10019117  0.29525783  1
  Zr  Zr23  1  0.30033380  0.11090284  0.51005796  1
  Zr  Zr24  1  0.28827878  0.49955422  0.29687921  1
  Zr  Zr25  1  0.09771280  0.49412229  0.89206954  1
  Zr  Zr26  1  0.09949509  0.69858914  0.09423222  1
  Zr  Zr27  1  0.69509587  0.30432816  0.69797506  1
  Zr  Zr28  1  0.49457865  0.28787719  0.49706380  1
  Zr  Zr29  1  0.49500573  0.69853403  0.69951468  1
  Zr  Zr30  1  0.89664264  0.89799041  0.10500270  1
  Zr  Zr31  1  0.70339754  0.70105666  0.10345211  1
  Zr  Zr32  1  0.10494791  0.09531037  0.10387210  1
  Zr  Zr33  1  0.30753395  0.50026252  0.49916921  1
  Zr  Zr34  1  0.30435689  0.29698489  0.69099714  1
  Zr  Zr35  1  0.10283209  0.29900970  0.50806359  1
  Zr  Zr36  1  0.70898714  0.50401974  0.30291166  1
  Zr  Zr37  1  0.30140390  0.71250668  0.49646638  1
  Zr  Zr38  1  0.90404249  0.09782204  0.30499666  1
  Zr  Zr39  1  0.10165270  0.70389362  0.49815484  1
  Zr  Zr40  1  0.70068044  0.29614822  0.50457803  1
  Zr  Zr41  1  0.89473452  0.29632015  0.70211739  1
  Zr  Zr42  1  0.29819108  0.09583635  0.10415594  1
  Zr  Zr43  1  0.10552974  0.90011525  0.09142808  1
  Zr  Zr44  1  0.09746280  0.49903967  0.69196004  1
  Zr  Zr45  1  0.50718370  0.70119483  0.30127386  1
  Zr  Zr46  1  0.10544306  0.89271821  0.50418802  1
  Zr  Zr47  1  0.09740110  0.29892769  0.89764975  1
  Zr  Zr48  1  0.89455617  0.09543735  0.11218403  1
  Zr  Zr49  1  0.30090016  0.70522242  0.89412927  1
  Sc  Sc50  1  0.69167453  0.30824470  0.89046681  1
  Sc  Sc51  1  0.29934571  0.29247595  0.09590593  1
  Sc  Sc52  1  0.09327184  0.90232626  0.30459519  1
  Sc  Sc53  1  0.48952338  0.10348164  0.70607192  1
  Sc  Sc54  1  0.70182547  0.10941743  0.69547227  1
  Sc  Sc55  1  0.69649443  0.29797934  0.30015372  1
  Sc  Sc56  1  0.69954392  0.90086103  0.49379717  1
  Sc  Sc57  1  0.48769351  0.50015132  0.29560135  1
  Sc  Sc58  1  0.30401835  0.69521045  0.09490653  1
  Sc  Sc59  1  0.50418104  0.48990839  0.90704547  1
  Sc  Sc60  1  0.89489536  0.69451194  0.30209586  1
  Sc  Sc61  1  0.30516337  0.70217121  0.70575813  1
  Sc  Sc62  1  0.70524966  0.69910517  0.69738768  1
  Sc  Sc63  1  0.68985603  0.10597685  0.89916381  1
  Sc  Sc64  1  0.10321368  0.29779400  0.08888735  1
  Sc  Sc65  1  0.69733242  0.50255361  0.50749682  1
  Sc  Sc66  1  0.89969996  0.90283304  0.29561953  1
  Sc  Sc67  1  0.50411341  0.70455950  0.90486688  1
  Sc  Sc68  1  0.70397661  0.89096017  0.29510840  1
  Sc  Sc69  1  0.49642514  0.29518285  0.90166901  1
  Sc  Sc70  1  0.50411395  0.89143267  0.90422412  1
  Sc  Sc71  1  0.49885398  0.11120781  0.30097063  1
  Sc  Sc72  1  0.89929275  0.69816260  0.50165863  1
  Sc  Sc73  1  0.69898934  0.50244825  0.09628147  1
  Sc  Sc74  1  0.10012662  0.70899903  0.90339439  1
  Sc  Sc75  1  0.49902489  0.10472143  0.90083330  1
  Sc  Sc76  1  0.10423023  0.50641933  0.11054964  1
  Sc  Sc77  1  0.89186124  0.50178342  0.90543615  1
  Sc  Sc78  1  0.08925978  0.49416374  0.49900554  1
  Sc  Sc79  1  0.69661422  0.30630077  0.10606998  1
  Sc  Sc80  1  0.89246423  0.90216696  0.88932855  1
  Sc  Sc81  1  0.69321334  0.10753389  0.10342085  1
  Sc  Sc82  1  0.88970335  0.30071019  0.31309396  1
  Sc  Sc83  1  0.10329972  0.30373789  0.31181097  1
  Sc  Sc84  1  0.30686808  0.30498619  0.30731245  1
  Sc  Sc85  1  0.09480083  0.30968487  0.69738268  1
  Sc  Sc86  1  0.89652852  0.50148336  0.69023058  1
  Sc  Sc87  1  0.30326778  0.49551263  0.10265874  1
  Sc  Sc88  1  0.69923581  0.89301416  0.10038444  1
  Sc  Sc89  1  0.29973901  0.69510323  0.30777662  1
  Sc  Sc90  1  0.70169951  0.10015212  0.29626206  1
  Sc  Sc91  1  0.10315536  0.90828329  0.69661573  1
  Sc  Sc92  1  0.09486973  0.09754588  0.30381611  1
  Sc  Sc93  1  0.29996096  0.09524272  0.70259676  1
  Sc  Sc94  1  0.29914572  0.30298903  0.49846449  1
  Sc  Sc95  1  0.90436686  0.10542483  0.88748641  1
  Sc  Sc96  1  0.69884162  0.10420516  0.50264105  1
  Sc  Sc97  1  0.31053569  0.10031127  0.89716423  1
  Sc  Sc98  1  0.89091979  0.70016070  0.69019272  1
  Sc  Sc99  1  0.10535262  0.89830957  0.90259032  1
  Nb  Nb100  1  0.69849700  0.70105054  0.29693920  1
  Nb  Nb101  1  0.50911713  0.50332714  0.68902918  1
  Nb  Nb102  1  0.29949844  0.29960231  0.89701044  1
  Nb  Nb103  1  0.90205449  0.30127732  0.09621693  1
  Nb  Nb104  1  0.90664248  0.49542154  0.30304474  1
  Nb  Nb105  1  0.90334728  0.90828989  0.50899954  1
  Nb  Nb106  1  0.49242511  0.89681925  0.50330252  1
  Nb  Nb107  1  0.50061761  0.30566643  0.30660843  1
  Nb  Nb108  1  0.30116192  0.90180495  0.90806865  1
  Nb  Nb109  1  0.69706157  0.89706245  0.89693972  1
  Nb  Nb110  1  0.49714348  0.10055633  0.09784915  1
  Nb  Nb111  1  0.50367054  0.50959323  0.51147600  1
  Nb  Nb112  1  0.30208431  0.89890357  0.50217749  1
  Nb  Nb113  1  0.89805482  0.90135754  0.69564385  1
  Nb  Nb114  1  0.29637587  0.90449531  0.10255412  1
  Nb  Nb115  1  0.50022012  0.89761739  0.70089131  1
  Nb  Nb116  1  0.50279180  0.89746905  0.09998380  1
  Nb  Nb117  1  0.68771821  0.49559159  0.70001691  1
  Nb  Nb118  1  0.90063639  0.69944265  0.89685302  1
  Nb  Nb119  1  0.69760850  0.50245752  0.89394952  1
  Nb  Nb120  1  0.50044012  0.69955252  0.50035442  1
  Nb  Nb121  1  0.10175177  0.09780420  0.69929216  1
  Nb  Nb122  1  0.50152193  0.09661936  0.49932027  1
  Nb  Nb123  1  0.09038053  0.50132027  0.29454346  1
  Nb  Nb124  1  0.71189505  0.70230222  0.89812345  1
  Nb  Nb125  1  0.00345954  0.79361121  0.19419936  1
  Nb  Nb126  1  0.59919744  -0.00812966  0.79455405  1
  Nb  Nb127  1  0.59152394  -0.00587165  0.60156978  1
  Nb  Nb128  1  0.19926827  0.20535290  0.79849996  1
  Nb  Nb129  1  0.40004754  0.80610514  0.19630766  1
  Nb  Nb130  1  -0.00778207  0.79961341  0.79468284  1
  Nb  Nb131  1  0.59095113  -0.00024959  0.19321665  1
  Nb  Nb132  1  -0.00453394  0.39742541  0.20312370  1
  Nb  Nb133  1  -0.00409646  0.60778709  0.79926499  1
  Nb  Nb134  1  0.59142553  0.40091285  0.40407667  1
  Nb  Nb135  1  0.20168485  0.80085609  0.19705375  1
  Nb  Nb136  1  0.80505729  0.00066477  0.40187824  1
  Nb  Nb137  1  0.20373478  0.60138728  0.59684069  1
  Nb  Nb138  1  0.00020416  0.19458676  0.60283431  1
  Nb  Nb139  1  0.80537435  0.20321189  0.00159021  1
  Nb  Nb140  1  -0.00871293  0.00029732  0.00091336  1
  Nb  Nb141  1  0.60606510  0.59544682  0.79939548  1
  Nb  Nb142  1  0.40003820  0.00154774  0.40911935  1
  Nb  Nb143  1  -0.00493275  0.20975661  0.19931901  1
  Nb  Nb144  1  0.59243148  0.80193720  0.59678787  1
  Nb  Nb145  1  0.40374743  -0.00523376  0.01047844  1
  Nb  Nb146  1  0.20764299  -0.00271093  0.40888506  1
  Nb  Nb147  1  0.79694208  0.00555739  -0.00183691  1
  Nb  Nb148  1  0.20930766  0.39692367  0.79925792  1
  Nb  Nb149  1  0.20234346  0.59727338  -0.00795745  1
  Pd  Pd150  1  -0.00597529  0.18830112  0.00726273  1
  Pd  Pd151  1  0.20498329  0.00243261  0.80251972  1
  Pd  Pd152  1  0.80442081  0.39528025  0.20384209  1
  Pd  Pd153  1  0.78845267  0.00924496  0.80674312  1
  Pd  Pd154  1  0.20050820  0.19501393  0.39764084  1
  Pd  Pd155  1  0.79364054  0.20119657  0.80809712  1
  Pd  Pd156  1  0.19298327  0.39067088  0.19881186  1
  Pd  Pd157  1  0.60261934  0.00217315  0.39927252  1
  Pd  Pd158  1  0.39707729  0.80355761  0.00536556  1
  Pd  Pd159  1  0.60071192  0.40810896  0.21013489  1
  Pd  Pd160  1  0.79993867  0.80746904  -0.00547450  1
  Pd  Pd161  1  0.40386260  0.59855330  0.40061056  1
  Pd  Pd162  1  0.80067958  0.59602872  0.79380474  1
  Pd  Pd163  1  0.80316028  0.60246358  0.20106001  1
  Pd  Pd164  1  0.41779975  0.59665735  0.81120234  1
  Pd  Pd165  1  0.60618554  0.20921178  0.00052233  1
  Pd  Pd166  1  0.00717471  0.41048539  0.01124355  1
  Pd  Pd167  1  0.39991188  0.60031238  -0.00418461  1
  Pd  Pd168  1  0.19426807  0.59045686  0.40893627  1
  Pd  Pd169  1  0.60456417  0.20099412  0.39665108  1
  Pd  Pd170  1  0.60383601  0.79485341  0.79422681  1
  Pd  Pd171  1  0.19399478  0.59589696  0.79777388  1
  Pd  Pd172  1  0.19544361  0.80862065  0.79655039  1
  Pd  Pd173  1  0.19957654  0.40652044  -0.00115726  1
  Pd  Pd174  1  0.80736760  0.80584419  0.40212943  1
  Pd  Pd175  1  0.79319597  0.79927782  0.58696478  1
  Pd  Pd176  1  0.39695082  0.39413900  0.19625008  1
  Pd  Pd177  1  0.80275932  0.20871515  0.19984138  1
  Pd  Pd178  1  0.60080770  0.80188767  0.40562172  1
  Pd  Pd179  1  0.79776236  0.40372287  0.59931465  1
  Pd  Pd180  1  0.00630492  0.19984072  0.78863363  1
  Pd  Pd181  1  -0.00280465  0.60289265  0.40403129  1
  Pd  Pd182  1  0.60743488  0.60507446  -0.00889482  1
  Pd  Pd183  1  0.59464571  0.58875940  0.39286135  1
  Pd  Pd184  1  0.39647639  0.60837501  0.20078054  1
  Pd  Pd185  1  0.40754024  -0.00224002  0.20319035  1
  Pd  Pd186  1  0.80407162  0.40622670  0.79944883  1
  Pd  Pd187  1  0.60058880  -0.00283080  -0.00252132  1
  Pd  Pd188  1  0.20614785  0.19142655  -0.00912674  1
  Pd  Pd189  1  0.40148345  0.20716717  0.20348284  1
  Pd  Pd190  1  0.40856064  0.39494795  0.59398167  1
  Pd  Pd191  1  0.19541042  0.40721480  0.40414341  1
  Pd  Pd192  1  -0.00730290  0.80109926  0.39338271  1
  Pd  Pd193  1  0.78851796  0.39370468  -0.00391797  1
  Pd  Pd194  1  0.40192361  0.00497931  0.59957634  1
  Pd  Pd195  1  0.00650929  0.59125466  -0.00832043  1
  Pd  Pd196  1  0.40635291  0.39855302  0.79651745  1
  Pd  Pd197  1  0.40293778  0.39157976  0.00833377  1
  Pd  Pd198  1  -0.00446274  0.80124248  0.60454135  1
  Pd  Pd199  1  0.19021670  0.21045917  0.20622214  1
  Rh  Rh200  1  0.61034745  0.79511906  -0.00092579  1
  Rh  Rh201  1  0.00216360  0.39707353  0.39644343  1
  Rh  Rh202  1  0.19237053  -0.00741803  0.21279568  1
  Rh  Rh203  1  0.00572174  0.00010377  0.60035483  1
  Rh  Rh204  1  0.40582255  0.80165204  0.39493829  1
  Rh  Rh205  1  0.00856598  -0.00405425  0.19219454  1
  Rh  Rh206  1  0.40884825  0.40697154  0.40675024  1
  Rh  Rh207  1  0.40150060  0.79458254  0.60111055  1
  Rh  Rh208  1  0.19492108  0.80594816  0.38971480  1
  Rh  Rh209  1  0.60382569  0.59523250  0.20532685  1
  Rh  Rh210  1  0.20886341  0.41235229  0.60462712  1
  Rh  Rh211  1  -0.01141815  0.81266384  -0.00633152  1
  Rh  Rh212  1  0.40558138  0.19759992  0.60317821  1
  Rh  Rh213  1  0.79298906  0.59557555  0.59821980  1
  Rh  Rh214  1  -0.01198039  0.59841141  0.19894166  1
  Rh  Rh215  1  0.20788033  0.00808187  -0.00873059  1
  Rh  Rh216  1  0.41007924  -0.01025345  0.81611733  1
  Rh  Rh217  1  0.20895696  0.60465257  0.19363915  1
  Rh  Rh218  1  0.59793997  0.80365521  0.20069471  1
  Rh  Rh219  1  0.80721522  0.19830219  0.60290339  1
  Rh  Rh220  1  0.78936801  -0.00201020  0.59122020  1
  Rh  Rh221  1  0.21083017  0.79833261  0.60930861  1
  Rh  Rh222  1  0.59092845  0.40645597  0.80080682  1
  Rh  Rh223  1  0.20556465  -0.00249285  0.59812519  1
  Rh  Rh224  1  0.79265462  0.59900670  -0.00353427  1
  Rh  Rh225  1  0.80672807  0.79645492  0.79995159  1
  Rh  Rh226  1  -0.01162773  0.39170310  0.59920616  1
  Rh  Rh227  1  0.60518693  0.61265408  0.60697395  1
  Rh  Rh228  1  -0.00007604  -0.00863902  0.40806287  1
  Rh  Rh229  1  0.60196429  0.39766420  0.00068875  1
  Rh  Rh230  1  0.39740895  0.19594961  0.00194922  1
  Rh  Rh231  1  0.39368048  0.61070028  0.59274133  1
  Rh  Rh232  1  0.59466494  0.39421433  0.58962219  1
  Rh  Rh233  1  0.19104050  0.20068650  0.61130337  1
  Rh  Rh234  1  0.00442014  -0.01245829  0.80322998  1
  Rh  Rh235  1  0.59280430  0.19123644  0.60488098  1
  Rh  Rh236  1  0.79308381  0.19110498  0.39932546  1
  Rh  Rh237  1  -0.00828593  0.41243269  0.79406401  1
  Rh  Rh238  1  0.40224401  0.80554399  0.80632326  1
  Rh  Rh239  1  0.39583362  0.19429857  0.39741442  1
  Rh  Rh240  1  0.59688390  0.19326209  0.79652493  1
  Rh  Rh241  1  0.80146957  0.59895011  0.39899438  1
  Rh  Rh242  1  0.78159460  -0.00321065  0.20052683  1
  Rh  Rh243  1  0.80820966  0.79048168  0.20096579  1
  Rh  Rh244  1  0.39375931  0.20593475  0.79947314  1
  Rh  Rh245  1  0.00285838  0.20712871  0.40171158  1
  Rh  Rh246  1  0.78735832  0.40223941  0.40324003  1
  Rh  Rh247  1  0.21089129  0.79151858  0.00388028  1
  Rh  Rh248  1  0.00488822  0.60452315  0.60050798  1
  Rh  Rh249  1  0.59435574  0.19722539  0.20304066  1
