# generated using pymatgen
data_ZrScNbPdRh
_symmetry_space_group_name_H-M   'P 1'
_cell_length_a   16.55660099
_cell_length_b   16.55864723
_cell_length_c   16.56107604
_cell_angle_alpha   90.01833167
_cell_angle_beta   90.00217674
_cell_angle_gamma   89.98486035
_symmetry_Int_Tables_number   1
_chemical_formula_structural   ZrScNbPdRh
_chemical_formula_sum   'Zr50 Sc50 Nb50 Pd50 Rh50'
_cell_volume   4540.30000322
_cell_formula_units_Z   50
loop_
 _symmetry_equiv_pos_site_id
 _symmetry_equiv_pos_as_xyz
  1  'x, y, z'
loop_
 _atom_site_type_symbol
 _atom_site_label
 _atom_site_symmetry_multiplicity
 _atom_site_fract_x
 _atom_site_fract_y
 _atom_site_fract_z
 _atom_site_occupancy
  Zr  Zr0  1  0.50347095  0.50275495  0.29908399  1
  Zr  Zr1  1  0.70172958  0.09625581  0.50151166  1
  Zr  Zr2  1  0.09610504  0.49992695  0.49342806  1
  Zr  Zr3  1  0.09208733  0.69274997  0.70518367  1
  Zr  Zr4  1  0.89868704  0.49473804  0.50250998  1
  Zr  Zr5  1  0.90522470  0.50265582  0.30598918  1
  Zr  Zr6  1  0.29633755  0.69352003  0.90444671  1
  Zr  Zr7  1  0.90660885  0.89687566  0.09276663  1
  Zr  Zr8  1  0.70051921  0.70600707  0.09969435  1
  Zr  Zr9  1  0.09825072  0.90129867  0.09850637  1
  Zr  Zr10  1  0.70553889  0.89875765  0.49882525  1
  Zr  Zr11  1  0.89986547  0.30688036  0.69916151  1
  Zr  Zr12  1  0.69911029  0.89975547  0.70252948  1
  Zr  Zr13  1  0.28545160  0.90061049  0.50073767  1
  Zr  Zr14  1  0.49119860  0.90005530  0.28925750  1
  Zr  Zr15  1  0.49246259  0.48937376  0.10559879  1
  Zr  Zr16  1  0.10193313  0.09892352  0.51129238  1
  Zr  Zr17  1  0.90163429  0.70616912  0.70546266  1
  Zr  Zr18  1  0.69192842  0.69912335  0.49400744  1
  Zr  Zr19  1  0.49356448  0.90667106  0.70304883  1
  Zr  Zr20  1  0.90389196  0.90473223  0.51442553  1
  Zr  Zr21  1  0.90479342  0.10740596  0.30424801  1
  Zr  Zr22  1  0.30136820  0.70936783  0.29591785  1
  Zr  Zr23  1  0.90581251  0.70014661  0.90230509  1
  Zr  Zr24  1  0.50758973  0.70326108  0.30063015  1
  Zr  Zr25  1  0.50074387  0.69292943  0.69931117  1
  Zr  Zr26  1  0.10732103  0.89886643  0.29413629  1
  Zr  Zr27  1  0.90533711  0.50365105  0.09476564  1
  Zr  Zr28  1  0.49448900  0.09266250  0.70460216  1
  Zr  Zr29  1  0.28484596  0.68973591  0.69728141  1
  Zr  Zr30  1  0.90201425  0.10475373  0.50301996  1
  Zr  Zr31  1  0.30087066  0.09520691  0.29175916  1
  Zr  Zr32  1  0.29805103  0.11419552  0.10220542  1
  Zr  Zr33  1  0.10455054  0.50505179  0.69766160  1
  Zr  Zr34  1  0.49756169  0.48824678  0.70230160  1
  Zr  Zr35  1  0.90567202  0.50568008  0.69176224  1
  Zr  Zr36  1  0.70410884  0.49901677  0.10209644  1
  Zr  Zr37  1  0.09842562  0.70007245  0.09308546  1
  Zr  Zr38  1  0.49944722  0.10322371  0.09799905  1
  Zr  Zr39  1  0.70116486  0.69343536  0.70010694  1
  Zr  Zr40  1  0.69706341  0.09798006  0.91089962  1
  Zr  Zr41  1  0.70314823  0.30148828  0.89735745  1
  Zr  Zr42  1  0.91138660  0.09470433  0.69884909  1
  Zr  Zr43  1  0.89667583  0.70400911  0.30051236  1
  Zr  Zr44  1  0.50087349  0.90835226  0.89910977  1
  Zr  Zr45  1  0.90204757  0.30240948  0.30709491  1
  Zr  Zr46  1  0.70417575  0.49895020  0.50492095  1
  Zr  Zr47  1  0.30662698  0.29928663  0.69835760  1
  Zr  Zr48  1  0.50482709  0.29999688  0.90356424  1
  Zr  Zr49  1  0.29319162  0.90231164  0.29884489  1
  Sc  Sc50  1  0.90809794  0.70095801  0.09496846  1
  Sc  Sc51  1  0.29872728  0.69360084  0.09640709  1
  Sc  Sc52  1  0.71136180  0.69816165  0.90115420  1
  Sc  Sc53  1  0.30050360  0.49960547  0.89750651  1
  Sc  Sc54  1  0.90779348  0.30351565  0.90221187  1
  Sc  Sc55  1  0.70289410  0.30861719  0.09107564  1
  Sc  Sc56  1  0.70283260  0.49335062  0.69971370  1
  Sc  Sc57  1  0.69656484  0.90254948  0.09447409  1
  Sc  Sc58  1  0.29104097  0.30296832  0.90309831  1
  Sc  Sc59  1  0.10124075  0.69057066  0.28748122  1
  Sc  Sc60  1  0.49575155  0.49821299  0.89895923  1
  Sc  Sc61  1  0.49152426  0.70107781  0.10489836  1
  Sc  Sc62  1  0.29344903  0.09809187  0.51284515  1
  Sc  Sc63  1  0.50000770  0.09927523  0.29668501  1
  Sc  Sc64  1  0.08791702  0.90111086  0.69411735  1
  Sc  Sc65  1  0.68828502  0.09457438  0.70018825  1
  Sc  Sc66  1  0.90137423  0.30467180  0.08739722  1
  Sc  Sc67  1  0.69395163  0.49508811  0.30309445  1
  Sc  Sc68  1  0.90469838  0.89490461  0.29071525  1
  Sc  Sc69  1  0.28590835  0.30121067  0.30197003  1
  Sc  Sc70  1  0.49834314  0.30449320  0.50841863  1
  Sc  Sc71  1  0.09941131  0.29904148  0.70908838  1
  Sc  Sc72  1  0.29478730  0.09048509  0.69964706  1
  Sc  Sc73  1  0.90961705  0.29905640  0.49492286  1
  Sc  Sc74  1  0.10909611  0.30417312  0.08788659  1
  Sc  Sc75  1  0.70265748  0.89422968  0.90834158  1
  Sc  Sc76  1  0.70072284  0.30842597  0.30198130  1
  Sc  Sc77  1  0.50001902  0.89787829  0.50002309  1
  Sc  Sc78  1  0.69286413  0.10265573  0.30616524  1
  Sc  Sc79  1  0.50394779  0.09884782  0.50256194  1
  Sc  Sc80  1  0.50753133  0.49469881  0.49593373  1
  Sc  Sc81  1  0.90497411  0.10354261  0.08885827  1
  Sc  Sc82  1  0.90216821  0.50228434  0.90567225  1
  Sc  Sc83  1  0.89340770  0.69267046  0.49990108  1
  Sc  Sc84  1  0.10017459  0.49787689  0.89924059  1
  Sc  Sc85  1  0.70354286  0.49805987  0.90032990  1
  Sc  Sc86  1  0.29952695  0.89977194  0.10649812  1
  Sc  Sc87  1  0.48878038  0.69212418  0.90827862  1
  Sc  Sc88  1  0.50425911  0.30983711  0.30392589  1
  Sc  Sc89  1  0.91007069  0.10628365  0.90271253  1
  Sc  Sc90  1  0.10097594  0.29625284  0.89727655  1
  Sc  Sc91  1  0.69567031  0.30415537  0.50108614  1
  Sc  Sc92  1  0.29624987  0.90817919  0.90118585  1
  Sc  Sc93  1  0.50377930  0.89757942  0.09988779  1
  Sc  Sc94  1  0.11080268  0.09803732  0.29211904  1
  Sc  Sc95  1  0.10799360  0.70041160  0.51414716  1
  Sc  Sc96  1  0.29033046  0.50230078  0.29387870  1
  Sc  Sc97  1  0.29686860  0.49564003  0.48984254  1
  Sc  Sc98  1  0.28562284  0.10165818  0.89166300  1
  Sc  Sc99  1  0.69852354  0.88904546  0.29642868  1
  Nb  Nb100  1  0.69753464  0.30086586  0.70286254  1
  Nb  Nb101  1  0.10154175  0.10135085  0.89340360  1
  Nb  Nb102  1  0.10999762  0.29699345  0.48902786  1
  Nb  Nb103  1  0.48993349  0.29956907  0.09848918  1
  Nb  Nb104  1  0.09960694  0.10087909  0.71761573  1
  Nb  Nb105  1  0.89674122  0.89982144  0.70305071  1
  Nb  Nb106  1  0.09502934  0.30162828  0.30758574  1
  Nb  Nb107  1  0.09775401  0.90077970  0.49656725  1
  Nb  Nb108  1  0.29542052  0.49593707  0.69879746  1
  Nb  Nb109  1  0.30279706  0.70103752  0.50108074  1
  Nb  Nb110  1  0.10103501  0.50701894  0.11210028  1
  Nb  Nb111  1  0.10255607  0.70060504  0.89924287  1
  Nb  Nb112  1  0.10053993  0.49828605  0.29521761  1
  Nb  Nb113  1  0.49701492  0.69720749  0.50128475  1
  Nb  Nb114  1  0.31091127  0.30695041  0.09511734  1
  Nb  Nb115  1  0.70451027  0.10354989  0.10056915  1
  Nb  Nb116  1  0.29533653  0.29547647  0.49908813  1
  Nb  Nb117  1  0.70286944  0.70150385  0.30091796  1
  Nb  Nb118  1  0.29934102  0.48988606  0.09875034  1
  Nb  Nb119  1  0.09854535  0.10457507  0.08959615  1
  Nb  Nb120  1  0.10056991  0.90489569  0.90137791  1
  Nb  Nb121  1  0.30205668  0.90149108  0.70296618  1
  Nb  Nb122  1  0.50607972  0.29852795  0.70468745  1
  Nb  Nb123  1  0.89919643  0.89644534  0.89195677  1
  Nb  Nb124  1  0.50057118  0.09817947  0.89878868  1
  Nb  Nb125  1  0.79932316  0.80001796  0.60511666  1
  Nb  Nb126  1  0.80621114  0.00055248  0.80169220  1
  Nb  Nb127  1  0.00385808  0.80396460  0.40463628  1
  Nb  Nb128  1  0.20207761  0.39389290  0.59540348  1
  Nb  Nb129  1  0.00296141  0.20770464  0.19779247  1
  Nb  Nb130  1  0.39384021  0.79903818  0.79556106  1
  Nb  Nb131  1  0.40118810  0.01014406  -0.00090003  1
  Nb  Nb132  1  0.80035799  0.19897971  0.19614674  1
  Nb  Nb133  1  0.00765998  0.39970986  0.20269178  1
  Nb  Nb134  1  0.39324195  0.00223748  0.39906660  1
  Nb  Nb135  1  0.79765397  0.20213155  0.60864287  1
  Nb  Nb136  1  0.80141562  0.00856126  0.19943792  1
  Nb  Nb137  1  0.79896152  0.19670081  0.79521839  1
  Nb  Nb138  1  0.40224826  0.60837759  0.40298294  1
  Nb  Nb139  1  0.79895528  0.60386095  0.20374318  1
  Nb  Nb140  1  0.40669744  0.19943595  0.79932304  1
  Nb  Nb141  1  0.19762567  0.80108987  0.80205553  1
  Nb  Nb142  1  0.00348026  -0.00314985  0.40108191  1
  Nb  Nb143  1  0.39343128  0.19975857  0.40461239  1
  Nb  Nb144  1  0.60217372  0.20487175  0.19153867  1
  Nb  Nb145  1  0.39671947  0.59886550  0.59483671  1
  Nb  Nb146  1  0.59249703  0.79687613  0.80096279  1
  Nb  Nb147  1  0.39401180  0.79390783  0.60208642  1
  Nb  Nb148  1  0.59920392  0.59695325  0.00760711  1
  Nb  Nb149  1  0.80750062  -0.00188270  0.39587715  1
  Pd  Pd150  1  0.80064979  0.80393570  0.19136954  1
  Pd  Pd151  1  0.40072111  0.80452633  0.40569329  1
  Pd  Pd152  1  0.59170572  0.20558242  0.39637898  1
  Pd  Pd153  1  0.19766733  0.80692919  0.61087440  1
  Pd  Pd154  1  0.39451917  0.81061183  -0.00329267  1
  Pd  Pd155  1  0.20382320  0.18796195  0.39831241  1
  Pd  Pd156  1  0.00436405  0.20827737  0.60482849  1
  Pd  Pd157  1  0.79210729  0.59412470  0.39460294  1
  Pd  Pd158  1  0.39483135  0.59917950  0.79325757  1
  Pd  Pd159  1  0.19378812  0.20422386  0.61156354  1
  Pd  Pd160  1  0.40680273  0.21244326  0.21338232  1
  Pd  Pd161  1  0.60692245  0.60346490  0.19656716  1
  Pd  Pd162  1  -0.00219358  0.01076437  0.20122213  1
  Pd  Pd163  1  0.80540658  0.40192647  0.80257943  1
  Pd  Pd164  1  0.80646585  -0.00100053  -0.00061139  1
  Pd  Pd165  1  0.00816834  0.61308537  0.40415369  1
  Pd  Pd166  1  0.39272757  0.39339615  0.21349577  1
  Pd  Pd167  1  0.20216935  0.60617860  0.39897658  1
  Pd  Pd168  1  0.39658097  0.39186467  0.80775896  1
  Pd  Pd169  1  0.60102212  0.60110832  0.81442703  1
  Pd  Pd170  1  0.00048424  0.00065373  -0.00873928  1
  Pd  Pd171  1  0.59495257  0.58922344  0.59964664  1
  Pd  Pd172  1  0.80936966  0.40040145  0.20014772  1
  Pd  Pd173  1  0.19781677  0.58798440  0.00212089  1
  Pd  Pd174  1  0.79031608  0.20207890  0.40228007  1
  Pd  Pd175  1  0.59561466  0.80610456  0.39815280  1
  Pd  Pd176  1  0.40443483  0.19582429  0.60080532  1
  Pd  Pd177  1  0.39142502  0.19643987  -0.01406814  1
  Pd  Pd178  1  0.59752064  0.40613932  0.00149770  1
  Pd  Pd179  1  0.39438883  0.39946366  0.39686264  1
  Pd  Pd180  1  0.60810898  0.00476236  0.19884535  1
  Pd  Pd181  1  0.20375857  0.80492536  -0.00276134  1
  Pd  Pd182  1  0.60082871  0.20202889  0.60147164  1
  Pd  Pd183  1  0.39473394  0.40651312  0.59240209  1
  Pd  Pd184  1  0.59794003  -0.00838007  0.39436905  1
  Pd  Pd185  1  0.19293364  0.21195221  0.19329179  1
  Pd  Pd186  1  0.20539025  0.00600499  0.00498847  1
  Pd  Pd187  1  0.00900026  0.80568090  0.80526957  1
  Pd  Pd188  1  0.01376242  0.39013661  0.59499449  1
  Pd  Pd189  1  0.80641165  0.59150267  0.79972242  1
  Pd  Pd190  1  0.59823466  0.80216800  0.60535272  1
  Pd  Pd191  1  0.19601978  0.39235723  0.19660441  1
  Pd  Pd192  1  0.59503225  -0.00366894  0.59729056  1
  Pd  Pd193  1  0.60182338  0.20474368  0.00659439  1
  Pd  Pd194  1  0.60111823  0.19568643  0.79989575  1
  Pd  Pd195  1  0.19773584  0.40697486  -0.00157504  1
  Pd  Pd196  1  0.00145874  0.40509014  0.80219201  1
  Pd  Pd197  1  0.39395026  0.59880803  0.20442580  1
  Pd  Pd198  1  0.18813303  0.78723650  0.39742081  1
  Pd  Pd199  1  0.59462508  0.78870045  -0.00718696  1
  Rh  Rh200  1  0.00885806  0.20419348  -0.00071146  1
  Rh  Rh201  1  0.59507284  0.00115829  0.00416742  1
  Rh  Rh202  1  0.00218522  0.80277100  -0.00861561  1
  Rh  Rh203  1  0.39569418  -0.00862272  0.58761018  1
  Rh  Rh204  1  0.00908255  0.40563624  0.00585185  1
  Rh  Rh205  1  0.60000721  0.79953435  0.19877870  1
  Rh  Rh206  1  0.80400822  0.40176543  -0.00790306  1
  Rh  Rh207  1  0.19921131  0.00640947  0.40278426  1
  Rh  Rh208  1  0.19738757  0.79452459  0.19069149  1
  Rh  Rh209  1  0.19753236  0.00340591  0.18492197  1
  Rh  Rh210  1  -0.00306391  0.60495589  0.59375240  1
  Rh  Rh211  1  0.80975343  0.80814007  0.40949709  1
  Rh  Rh212  1  0.20645695  0.58340968  0.58960496  1
  Rh  Rh213  1  0.80038784  0.60580775  0.60291201  1
  Rh  Rh214  1  0.61359473  -0.00674474  0.81094471  1
  Rh  Rh215  1  0.40284347  0.58717880  0.01002248  1
  Rh  Rh216  1  0.20652385  0.60105999  0.19408931  1
  Rh  Rh217  1  0.20624244  0.20425626  0.79615114  1
  Rh  Rh218  1  -0.00447367  0.20197486  0.80299834  1
  Rh  Rh219  1  0.39787540  -0.00104474  0.19452572  1
  Rh  Rh220  1  0.00326203  0.40213381  0.39864369  1
  Rh  Rh221  1  0.79934410  0.39898611  0.40677355  1
  Rh  Rh222  1  -0.00777765  0.59730047  0.19972073  1
  Rh  Rh223  1  0.59806864  0.38830106  0.19294088  1
  Rh  Rh224  1  0.00991974  0.59759824  -0.00426134  1
  Rh  Rh225  1  0.20020200  0.40042533  0.79267579  1
  Rh  Rh226  1  0.80736270  0.80058961  0.00183322  1
  Rh  Rh227  1  0.19751879  0.40249459  0.40075673  1
  Rh  Rh228  1  0.79442515  0.60256832  0.00837130  1
  Rh  Rh229  1  0.18987467  -0.01049656  0.79466653  1
  Rh  Rh230  1  0.60123515  0.39877774  0.60579974  1
  Rh  Rh231  1  0.39767256  0.40116935  -0.00674981  1
  Rh  Rh232  1  0.19109163  -0.00427537  0.61111925  1
  Rh  Rh233  1  -0.00756562  0.79217264  0.59488510  1
  Rh  Rh234  1  0.60125255  0.40215242  0.79998769  1
  Rh  Rh235  1  -0.00072126  -0.00329535  0.80690520  1
  Rh  Rh236  1  0.80141649  0.20461872  -0.00479841  1
  Rh  Rh237  1  0.39754955  0.79950833  0.19421832  1
  Rh  Rh238  1  0.01782612  0.18823048  0.39556623  1
  Rh  Rh239  1  0.59881089  0.59843236  0.39892337  1
  Rh  Rh240  1  0.00596063  0.79570241  0.20391021  1
  Rh  Rh241  1  0.79608087  0.00142350  0.60475167  1
  Rh  Rh242  1  0.79893222  0.39013154  0.59653516  1
  Rh  Rh243  1  0.00846314  0.00329936  0.60148134  1
  Rh  Rh244  1  0.19715418  0.59816269  0.80838952  1
  Rh  Rh245  1  0.60220336  0.40027491  0.40544608  1
  Rh  Rh246  1  0.20075653  0.19945200  -0.00168784  1
  Rh  Rh247  1  0.39096593  0.00598875  0.81160220  1
  Rh  Rh248  1  0.79165441  0.80534839  0.79866546  1
  Rh  Rh249  1  -0.00090647  0.59482430  0.80660476  1
