# generated using pymatgen
data_ZrScNbPdRh
_symmetry_space_group_name_H-M   'P 1'
_cell_length_a   16.55373920
_cell_length_b   16.55572854
_cell_length_c   16.55569736
_cell_angle_alpha   90.05209817
_cell_angle_beta   90.03645899
_cell_angle_gamma   89.98530007
_symmetry_Int_Tables_number   1
_chemical_formula_structural   ZrScNbPdRh
_chemical_formula_sum   'Zr50 Sc50 Nb50 Pd50 Rh50'
_cell_volume   4537.23844098
_cell_formula_units_Z   50
loop_
 _symmetry_equiv_pos_site_id
 _symmetry_equiv_pos_as_xyz
  1  'x, y, z'
loop_
 _atom_site_type_symbol
 _atom_site_label
 _atom_site_symmetry_multiplicity
 _atom_site_fract_x
 _atom_site_fract_y
 _atom_site_fract_z
 _atom_site_occupancy
  Zr  Zr0  1  0.30012830  0.30247346  0.50094703  1
  Zr  Zr1  1  0.10375657  0.89348302  0.90193554  1
  Zr  Zr2  1  0.69794863  0.09033969  0.70252425  1
  Zr  Zr3  1  0.89786913  0.09687531  0.08996734  1
  Zr  Zr4  1  0.49495277  0.49854541  0.90611994  1
  Zr  Zr5  1  0.50920494  0.49686236  0.30058142  1
  Zr  Zr6  1  0.30521162  0.10184600  0.69717701  1
  Zr  Zr7  1  0.10599945  0.10287259  0.70010279  1
  Zr  Zr8  1  0.29525494  0.30316598  0.90426456  1
  Zr  Zr9  1  0.10069317  0.09951781  0.50175233  1
  Zr  Zr10  1  0.89564298  0.90387453  0.70203809  1
  Zr  Zr11  1  0.49647943  0.29282549  0.89882826  1
  Zr  Zr12  1  0.10169775  0.69789010  0.70097955  1
  Zr  Zr13  1  0.69737489  0.09570009  0.29110424  1
  Zr  Zr14  1  0.51702651  0.50084057  0.49753037  1
  Zr  Zr15  1  0.50162433  0.10329530  0.29804722  1
  Zr  Zr16  1  0.29313871  0.10470931  0.09961382  1
  Zr  Zr17  1  0.70234891  0.89851375  0.28780316  1
  Zr  Zr18  1  0.09018769  0.89344623  0.09834428  1
  Zr  Zr19  1  0.70828171  0.70079505  0.29957872  1
  Zr  Zr20  1  0.10220529  0.09554498  0.30041755  1
  Zr  Zr21  1  0.09521433  0.29884702  0.30662435  1
  Zr  Zr22  1  0.30027376  0.50278861  0.09847375  1
  Zr  Zr23  1  0.70219021  0.30429935  0.10104071  1
  Zr  Zr24  1  0.29914658  0.70516809  0.10352592  1
  Zr  Zr25  1  0.50120794  0.90529775  0.30530457  1
  Zr  Zr26  1  0.69872437  0.10104797  0.89648589  1
  Zr  Zr27  1  0.30577723  0.90037931  0.69959416  1
  Zr  Zr28  1  0.09466132  0.10001074  0.90009415  1
  Zr  Zr29  1  0.10088092  0.50201151  0.70143793  1
  Zr  Zr30  1  0.90223712  0.90429680  0.90951766  1
  Zr  Zr31  1  0.09622214  0.90637363  0.29184098  1
  Zr  Zr32  1  0.09771358  0.70474378  0.91120988  1
  Zr  Zr33  1  0.49573235  0.09506437  0.50191764  1
  Zr  Zr34  1  0.10216175  0.30427644  0.70562061  1
  Zr  Zr35  1  0.69760667  0.69912087  0.49928923  1
  Zr  Zr36  1  0.10343562  0.90791910  0.49468011  1
  Zr  Zr37  1  0.08971907  0.30016683  0.50553057  1
  Zr  Zr38  1  0.49927436  0.29376675  0.49380795  1
  Zr  Zr39  1  0.69841088  0.50329245  0.90248688  1
  Zr  Zr40  1  0.69556173  0.30653515  0.29780882  1
  Zr  Zr41  1  0.50375955  0.29861407  0.30063815  1
  Zr  Zr42  1  0.30744107  0.70799241  0.49722623  1
  Zr  Zr43  1  0.69770175  0.50228854  0.30299827  1
  Zr  Zr44  1  0.28874382  0.49988759  0.69929376  1
  Zr  Zr45  1  0.90411233  0.50775327  0.30598488  1
  Zr  Zr46  1  0.89844354  0.30941171  0.50053144  1
  Zr  Zr47  1  0.90128726  0.30174269  0.09343046  1
  Zr  Zr48  1  0.70882172  0.70020304  0.90341341  1
  Zr  Zr49  1  0.30177893  0.29802515  0.30268854  1
  Sc  Sc50  1  0.70064403  0.70305592  0.70307988  1
  Sc  Sc51  1  0.90322239  0.69854167  0.09759086  1
  Sc  Sc52  1  0.89838862  0.89373239  0.49270825  1
  Sc  Sc53  1  0.89644250  0.89575934  0.28811472  1
  Sc  Sc54  1  0.70060694  0.09040891  0.09143792  1
  Sc  Sc55  1  0.89563876  0.49410858  0.90356934  1
  Sc  Sc56  1  0.29354218  0.71190714  0.90087577  1
  Sc  Sc57  1  0.50234525  0.70431115  0.49873631  1
  Sc  Sc58  1  0.30895349  0.90658579  0.49561113  1
  Sc  Sc59  1  0.30122856  0.29418780  0.70623595  1
  Sc  Sc60  1  0.70479315  0.90226615  0.89153327  1
  Sc  Sc61  1  0.50547355  0.49034789  0.70156801  1
  Sc  Sc62  1  0.70222477  0.29838875  0.70421470  1
  Sc  Sc63  1  0.29360761  0.09811372  0.29482084  1
  Sc  Sc64  1  0.89450047  0.50189194  0.09994337  1
  Sc  Sc65  1  0.09897744  0.89754877  0.70024009  1
  Sc  Sc66  1  0.89280216  0.49527758  0.70188902  1
  Sc  Sc67  1  0.70062413  0.29970052  0.89720632  1
  Sc  Sc68  1  0.49975696  0.69521391  0.09951491  1
  Sc  Sc69  1  0.69946230  0.50344443  0.10476024  1
  Sc  Sc70  1  0.50345032  0.50708712  0.09811607  1
  Sc  Sc71  1  0.09945532  0.09816545  0.10910294  1
  Sc  Sc72  1  0.89866348  0.30211411  0.31448053  1
  Sc  Sc73  1  0.10114981  0.49903548  0.50460052  1
  Sc  Sc74  1  0.70729615  0.30080261  0.50166756  1
  Sc  Sc75  1  0.69846221  0.10331386  0.50768693  1
  Sc  Sc76  1  0.50131256  0.29977265  0.10040226  1
  Sc  Sc77  1  0.50496390  0.71136413  0.68999081  1
  Sc  Sc78  1  0.70283055  0.69553447  0.10075469  1
  Sc  Sc79  1  0.31253450  0.10716021  0.89848443  1
  Sc  Sc80  1  0.49824593  0.29378977  0.70164500  1
  Sc  Sc81  1  0.29774987  0.70268585  0.69970785  1
  Sc  Sc82  1  0.29667853  0.29436764  0.09496684  1
  Sc  Sc83  1  0.89817991  0.11076960  0.49608041  1
  Sc  Sc84  1  0.10185679  0.30267027  0.89991697  1
  Sc  Sc85  1  0.09339655  0.50476149  0.09829164  1
  Sc  Sc86  1  0.89804909  0.69068161  0.49790561  1
  Sc  Sc87  1  0.50138103  0.69896771  0.29652929  1
  Sc  Sc88  1  0.29451895  0.69546061  0.29416942  1
  Sc  Sc89  1  0.89600492  0.30504001  0.70700063  1
  Sc  Sc90  1  0.89473532  0.10173300  0.71089050  1
  Sc  Sc91  1  0.10757352  0.29462014  0.09434394  1
  Sc  Sc92  1  0.90682371  0.10000998  0.29341181  1
  Sc  Sc93  1  0.09001512  0.68769715  0.50822851  1
  Sc  Sc94  1  0.50044278  0.09917901  0.70369878  1
  Sc  Sc95  1  0.90239389  0.69503503  0.69498072  1
  Sc  Sc96  1  0.69739666  0.90635952  0.50290954  1
  Sc  Sc97  1  0.29958452  0.89674651  0.30071479  1
  Sc  Sc98  1  0.49987963  0.89852983  0.09280642  1
  Sc  Sc99  1  0.50283766  0.10121801  0.08601045  1
  Nb  Nb100  1  0.70590362  0.49969540  0.50788687  1
  Nb  Nb101  1  0.50527216  0.09237118  0.89554780  1
  Nb  Nb102  1  0.70630942  0.89811277  0.09340159  1
  Nb  Nb103  1  0.29242309  0.49951748  0.30512129  1
  Nb  Nb104  1  0.29705251  0.50082637  0.49995997  1
  Nb  Nb105  1  0.89841793  0.49644413  0.50162536  1
  Nb  Nb106  1  0.89574836  0.10246128  0.90278603  1
  Nb  Nb107  1  0.50631103  0.69856297  0.89843725  1
  Nb  Nb108  1  0.90330963  0.69893539  0.30230312  1
  Nb  Nb109  1  0.89397752  0.28857370  0.90201171  1
  Nb  Nb110  1  0.69796146  0.90252482  0.69557371  1
  Nb  Nb111  1  0.30244234  0.89958274  0.90153473  1
  Nb  Nb112  1  0.49816110  0.89112988  0.50201082  1
  Nb  Nb113  1  0.50978728  0.90031883  0.69791392  1
  Nb  Nb114  1  0.11049639  0.49813452  0.89818824  1
  Nb  Nb115  1  0.49778748  0.90711523  0.89679662  1
  Nb  Nb116  1  0.09935082  0.69985526  0.10549228  1
  Nb  Nb117  1  0.89393547  0.90521470  0.09724994  1
  Nb  Nb118  1  0.89811285  0.69915752  0.90092821  1
  Nb  Nb119  1  0.29631477  0.49896373  0.90169264  1
  Nb  Nb120  1  0.29181579  0.09782068  0.50694784  1
  Nb  Nb121  1  0.69967036  0.49529514  0.70007213  1
  Nb  Nb122  1  0.09212210  0.69212014  0.28910882  1
  Nb  Nb123  1  0.10213972  0.50964977  0.29897281  1
  Nb  Nb124  1  0.30186267  0.89964438  0.09523202  1
  Nb  Nb125  1  0.00204469  0.60075151  0.80884172  1
  Nb  Nb126  1  0.79692616  0.80345850  0.60104381  1
  Nb  Nb127  1  0.00543373  0.40308536  0.20624401  1
  Nb  Nb128  1  -0.00038200  0.00224530  0.59985311  1
  Nb  Nb129  1  0.19832059  0.60085273  0.00035426  1
  Nb  Nb130  1  0.59731925  0.59931299  0.80199659  1
  Nb  Nb131  1  0.40984867  0.80423357  0.80462029  1
  Nb  Nb132  1  0.20689490  -0.00248395  0.80602161  1
  Nb  Nb133  1  0.60283554  0.80608224  0.39759299  1
  Nb  Nb134  1  0.79966707  0.20256083  0.19547052  1
  Nb  Nb135  1  0.19845753  0.40612096  0.20649471  1
  Nb  Nb136  1  0.39833598  0.40546803  0.59318128  1
  Nb  Nb137  1  0.39371132  0.40390724  0.20630842  1
  Nb  Nb138  1  0.20435766  -0.00620445  -0.00262960  1
  Nb  Nb139  1  0.39727530  0.59161005  0.40300201  1
  Nb  Nb140  1  0.18674190  0.79631765  0.39858404  1
  Nb  Nb141  1  0.60129020  0.80170777  -0.00732415  1
  Nb  Nb142  1  0.39897635  -0.00006633  0.19405581  1
  Nb  Nb143  1  -0.00406183  0.79430804  0.80659266  1
  Nb  Nb144  1  0.00331227  0.79189654  0.39049631  1
  Nb  Nb145  1  0.40374012  0.60345531  0.80066852  1
  Nb  Nb146  1  0.79564375  -0.00098492  0.39259706  1
  Nb  Nb147  1  0.19892118  0.80240705  0.59213118  1
  Nb  Nb148  1  0.40032765  0.59253976  0.59895764  1
  Nb  Nb149  1  0.19879815  0.19818889  0.40595599  1
  Pd  Pd150  1  -0.00433154  0.40531357  0.60641052  1
  Pd  Pd151  1  0.40117806  0.59429940  0.20976536  1
  Pd  Pd152  1  0.80735841  0.79321538  0.18979039  1
  Pd  Pd153  1  0.39361003  0.40465833  0.79306612  1
  Pd  Pd154  1  0.60014545  0.20126556  0.60460784  1
  Pd  Pd155  1  0.19012293  0.39795945  0.40189251  1
  Pd  Pd156  1  0.59890608  0.39952158  0.00289366  1
  Pd  Pd157  1  0.20200254  0.60679340  0.80996967  1
  Pd  Pd158  1  0.00456465  -0.00489823  0.79655058  1
  Pd  Pd159  1  0.39320719  0.00682592  0.39340482  1
  Pd  Pd160  1  0.60438919  0.20264285  -0.00151578  1
  Pd  Pd161  1  0.40398021  0.80621386  0.20298038  1
  Pd  Pd162  1  0.79578543  0.40078620  -0.00422642  1
  Pd  Pd163  1  0.59981433  0.79917937  0.80360400  1
  Pd  Pd164  1  0.81246722  0.39765313  0.20655037  1
  Pd  Pd165  1  0.00049190  0.59527138  -0.00329130  1
  Pd  Pd166  1  0.79466911  0.19287268  0.38955338  1
  Pd  Pd167  1  0.40440571  0.40748451  0.40036497  1
  Pd  Pd168  1  0.79940272  0.60375744  0.60344545  1
  Pd  Pd169  1  0.80405422  0.20250610  0.60893100  1
  Pd  Pd170  1  0.00594769  0.20021740  0.00049060  1
  Pd  Pd171  1  0.39066002  0.61101790  -0.00896053  1
  Pd  Pd172  1  -0.00366508  0.40431239  0.80965444  1
  Pd  Pd173  1  0.60929697  0.19753978  0.40363076  1
  Pd  Pd174  1  0.60503630  -0.00162521  0.40633463  1
  Pd  Pd175  1  0.80005865  0.59537235  0.79672224  1
  Pd  Pd176  1  0.40767769  -0.00276207  0.60219743  1
  Pd  Pd177  1  0.79914969  0.59555516  0.40382776  1
  Pd  Pd178  1  0.59607214  0.79844768  0.19370258  1
  Pd  Pd179  1  0.80937141  -0.00180458  0.58880787  1
  Pd  Pd180  1  0.40807728  0.79428329  -0.00471811  1
  Pd  Pd181  1  0.19848700  0.80381077  0.20388963  1
  Pd  Pd182  1  0.20155887  0.20815890  0.60000106  1
  Pd  Pd183  1  -0.00353637  0.20412512  0.79974549  1
  Pd  Pd184  1  0.00482083  0.40045201  0.00080022  1
  Pd  Pd185  1  0.80651413  0.80049112  0.79479804  1
  Pd  Pd186  1  0.60514013  0.19615512  0.18891981  1
  Pd  Pd187  1  0.19899022  0.60922196  0.40629134  1
  Pd  Pd188  1  0.60191487  0.40068630  0.80245016  1
  Pd  Pd189  1  -0.01410410  -0.00250709  0.40146226  1
  Pd  Pd190  1  0.59815035  0.60047369  0.61188638  1
  Pd  Pd191  1  0.59993457  0.38808861  0.59836753  1
  Pd  Pd192  1  -0.00602229  0.20826614  0.19853480  1
  Pd  Pd193  1  0.40143596  0.19891543  0.19282531  1
  Pd  Pd194  1  0.59137439  -0.00094875  0.18534889  1
  Pd  Pd195  1  0.38972952  0.18620087  0.40298489  1
  Pd  Pd196  1  -0.01112426  0.19616399  0.60943115  1
  Pd  Pd197  1  0.39601992  0.00551469  0.00309726  1
  Pd  Pd198  1  0.40013078  0.39445666  0.00943986  1
  Pd  Pd199  1  -0.00214917  0.80527998  0.59608675  1
  Rh  Rh200  1  0.80167835  0.59861394  0.00358047  1
  Rh  Rh201  1  -0.00624602  0.59634825  0.19582886  1
  Rh  Rh202  1  0.59114848  0.40319469  0.19283610  1
  Rh  Rh203  1  0.59867566  0.19691706  0.79925743  1
  Rh  Rh204  1  -0.00770818  -0.00120620  0.19207561  1
  Rh  Rh205  1  0.60867023  0.80623198  0.59271327  1
  Rh  Rh206  1  0.79522322  0.40831782  0.40253292  1
  Rh  Rh207  1  0.19680066  -0.00794676  0.61023347  1
  Rh  Rh208  1  0.79437818  0.20088641  0.00210711  1
  Rh  Rh209  1  0.19730597  0.59562785  0.19038762  1
  Rh  Rh210  1  0.79877497  0.80076801  0.00356723  1
  Rh  Rh211  1  0.80415453  0.60276762  0.20103879  1
  Rh  Rh212  1  0.00349230  0.41389595  0.40002611  1
  Rh  Rh213  1  0.40495931  0.19840175  0.80262503  1
  Rh  Rh214  1  0.20891664  0.61070302  0.59213813  1
  Rh  Rh215  1  0.59938400  -0.00258391  0.79936254  1
  Rh  Rh216  1  0.79679358  0.40076381  0.60240123  1
  Rh  Rh217  1  0.20774741  -0.00855505  0.18943039  1
  Rh  Rh218  1  0.61186683  0.39609685  0.40947640  1
  Rh  Rh219  1  0.40126489  0.20277208  0.59751744  1
  Rh  Rh220  1  0.39653395  0.79942053  0.60704378  1
  Rh  Rh221  1  0.79874368  0.19909730  0.80135213  1
  Rh  Rh222  1  0.20304487  0.39388211  0.60276048  1
  Rh  Rh223  1  0.19696753  0.18890283  -0.00744045  1
  Rh  Rh224  1  0.19576364  0.40896123  0.00731389  1
  Rh  Rh225  1  0.79428936  -0.00135869  -0.00754896  1
  Rh  Rh226  1  0.79799174  0.80422916  0.40499482  1
  Rh  Rh227  1  0.20953933  0.00138502  0.39762379  1
  Rh  Rh228  1  -0.00773667  0.79685911  0.19892828  1
  Rh  Rh229  1  0.20156923  0.80674879  0.78864203  1
  Rh  Rh230  1  -0.01023186  0.79808883  0.00283281  1
  Rh  Rh231  1  0.60374241  0.60251411  0.19980985  1
  Rh  Rh232  1  0.00597802  0.00414427  0.00410345  1
  Rh  Rh233  1  0.00215575  0.60004924  0.40464515  1
  Rh  Rh234  1  0.19464897  0.20961182  0.20943155  1
  Rh  Rh235  1  0.79874868  0.00183252  0.80495583  1
  Rh  Rh236  1  0.79840363  0.39765867  0.80511304  1
  Rh  Rh237  1  0.20162751  0.79929747  0.01184988  1
  Rh  Rh238  1  0.40610606  0.79218792  0.39093932  1
  Rh  Rh239  1  0.40480103  0.19926777  -0.00305913  1
  Rh  Rh240  1  0.60539252  0.60687434  -0.00225582  1
  Rh  Rh241  1  0.59880473  0.61094356  0.39565427  1
  Rh  Rh242  1  0.20440196  0.39486198  0.79979141  1
  Rh  Rh243  1  0.40153347  -0.00382038  0.79711249  1
  Rh  Rh244  1  0.80421679  0.00658699  0.20018398  1
  Rh  Rh245  1  0.59247868  -0.00044963  0.59887830  1
  Rh  Rh246  1  0.20320265  0.19447955  0.80597359  1
  Rh  Rh247  1  0.60502324  -0.01066912  -0.00522471  1
  Rh  Rh248  1  0.00475755  0.19531572  0.40170050  1
  Rh  Rh249  1  -0.00874148  0.58719430  0.60875260  1
