# generated using pymatgen
data_ZrScNbPdRh
_symmetry_space_group_name_H-M   'P 1'
_cell_length_a   16.56151619
_cell_length_b   16.56238857
_cell_length_c   16.55976838
_cell_angle_alpha   90.00607574
_cell_angle_beta   89.98558165
_cell_angle_gamma   90.03188440
_symmetry_Int_Tables_number   1
_chemical_formula_structural   ZrScNbPdRh
_chemical_formula_sum   'Zr50 Sc50 Nb50 Pd50 Rh50'
_cell_volume   4542.31488538
_cell_formula_units_Z   50
loop_
 _symmetry_equiv_pos_site_id
 _symmetry_equiv_pos_as_xyz
  1  'x, y, z'
loop_
 _atom_site_type_symbol
 _atom_site_label
 _atom_site_symmetry_multiplicity
 _atom_site_fract_x
 _atom_site_fract_y
 _atom_site_fract_z
 _atom_site_occupancy
  Zr  Zr0  1  0.09256538  0.09485913  0.89959775  1
  Zr  Zr1  1  0.09507088  0.10792997  0.10538655  1
  Zr  Zr2  1  0.49936274  0.30183385  0.50641275  1
  Zr  Zr3  1  0.50292378  0.10345609  0.90105761  1
  Zr  Zr4  1  0.90652595  0.30548569  0.10471858  1
  Zr  Zr5  1  0.09751553  0.69625832  0.30689764  1
  Zr  Zr6  1  0.09783066  0.30021556  0.89772914  1
  Zr  Zr7  1  0.71287505  0.70863779  0.10454268  1
  Zr  Zr8  1  0.90120946  0.50551793  0.89370354  1
  Zr  Zr9  1  0.88617181  0.90148966  0.09812110  1
  Zr  Zr10  1  0.09799767  0.30219010  0.09858206  1
  Zr  Zr11  1  0.30060277  0.09831044  0.30817775  1
  Zr  Zr12  1  0.49618009  0.70044896  0.69855965  1
  Zr  Zr13  1  0.69588248  0.49929128  0.49769060  1
  Zr  Zr14  1  0.50990860  0.49612935  0.89732906  1
  Zr  Zr15  1  0.50232721  0.29239340  0.89605836  1
  Zr  Zr16  1  0.49561268  0.09079819  0.50159653  1
  Zr  Zr17  1  0.70189102  0.89687552  0.89816056  1
  Zr  Zr18  1  0.09374566  0.10543603  0.69939139  1
  Zr  Zr19  1  0.70232207  0.09475604  0.10238736  1
  Zr  Zr20  1  0.90307273  0.49784312  0.29431432  1
  Zr  Zr21  1  0.69695471  0.90043518  0.29528021  1
  Zr  Zr22  1  0.30516776  0.89951145  0.90296600  1
  Zr  Zr23  1  0.09941223  0.50822175  0.30846297  1
  Zr  Zr24  1  0.70027489  0.90244813  0.10234076  1
  Zr  Zr25  1  0.29955807  0.30049167  0.10356757  1
  Zr  Zr26  1  0.10444885  0.89890770  0.30587294  1
  Zr  Zr27  1  0.69657570  0.49658925  0.89500893  1
  Zr  Zr28  1  0.10289019  0.30543229  0.51444589  1
  Zr  Zr29  1  0.29838489  0.69469060  0.50749628  1
  Zr  Zr30  1  0.51013256  0.10110620  0.09967954  1
  Zr  Zr31  1  0.50529261  0.89911819  0.09259712  1
  Zr  Zr32  1  0.89458314  0.50440633  0.10646551  1
  Zr  Zr33  1  0.29533336  0.29261653  0.69294421  1
  Zr  Zr34  1  0.70622450  0.49866882  0.69623015  1
  Zr  Zr35  1  0.90098137  0.69625530  0.70772737  1
  Zr  Zr36  1  0.30320834  0.29634781  0.30133274  1
  Zr  Zr37  1  0.69709439  0.70162225  0.30518647  1
  Zr  Zr38  1  0.48995431  0.50573956  0.49943940  1
  Zr  Zr39  1  0.70069746  0.09986640  0.30299634  1
  Zr  Zr40  1  0.10807189  0.70395299  0.11182141  1
  Zr  Zr41  1  0.30257156  0.69917919  0.09723179  1
  Zr  Zr42  1  0.29834657  0.89362008  0.09717594  1
  Zr  Zr43  1  0.29824866  0.89543989  0.31134302  1
  Zr  Zr44  1  0.50269684  0.89796918  0.31250725  1
  Zr  Zr45  1  0.90195697  0.70413414  0.50286412  1
  Zr  Zr46  1  0.50173164  0.29468470  0.09922130  1
  Zr  Zr47  1  0.49498147  0.69488543  0.09861380  1
  Zr  Zr48  1  0.70465754  0.30675546  0.50409743  1
  Zr  Zr49  1  0.30799719  0.10292340  0.89751517  1
  Sc  Sc50  1  0.89993118  0.89709634  0.69604354  1
  Sc  Sc51  1  0.89208191  0.48977106  0.49819726  1
  Sc  Sc52  1  0.70509904  0.70217015  0.89465820  1
  Sc  Sc53  1  0.29793884  0.51205092  0.69133363  1
  Sc  Sc54  1  0.50300791  0.50217693  0.09883239  1
  Sc  Sc55  1  0.68985869  0.29432159  0.88878387  1
  Sc  Sc56  1  0.10452575  0.90519967  0.09067147  1
  Sc  Sc57  1  0.49875112  0.29868963  0.29918214  1
  Sc  Sc58  1  0.49435087  0.10072667  0.69350362  1
  Sc  Sc59  1  0.89879934  0.11477189  0.30572427  1
  Sc  Sc60  1  0.90095579  0.69147940  0.30022374  1
  Sc  Sc61  1  0.50100211  0.50193716  0.70123051  1
  Sc  Sc62  1  0.29623935  0.89312512  0.69619683  1
  Sc  Sc63  1  0.50003732  0.70240156  0.31133552  1
  Sc  Sc64  1  0.10011942  0.89105704  0.50547613  1
  Sc  Sc65  1  0.50270779  0.70200857  0.89839022  1
  Sc  Sc66  1  0.08704394  0.29136161  0.29498045  1
  Sc  Sc67  1  0.10580458  0.70294778  0.70323446  1
  Sc  Sc68  1  0.30253345  0.29284101  0.90001124  1
  Sc  Sc69  1  0.90059838  0.89878267  0.50733123  1
  Sc  Sc70  1  0.69275406  0.29426111  0.11124595  1
  Sc  Sc71  1  0.49265410  0.90540480  0.69569293  1
  Sc  Sc72  1  0.30439522  0.10512229  0.10041730  1
  Sc  Sc73  1  0.09276632  0.49346729  0.10104674  1
  Sc  Sc74  1  0.90251113  0.90479561  0.89377844  1
  Sc  Sc75  1  0.89481653  0.30709963  0.30197851  1
  Sc  Sc76  1  0.09796905  0.09620996  0.51056788  1
  Sc  Sc77  1  0.29977310  0.09754880  0.69276071  1
  Sc  Sc78  1  0.09706716  0.49684848  0.89714469  1
  Sc  Sc79  1  0.49525697  0.50381531  0.30303847  1
  Sc  Sc80  1  0.70646282  0.49388905  0.30209609  1
  Sc  Sc81  1  0.09601208  0.89665757  0.69484169  1
  Sc  Sc82  1  0.30048965  0.70433998  0.89344025  1
  Sc  Sc83  1  0.49954871  0.09836885  0.30786833  1
  Sc  Sc84  1  0.69710224  0.29372220  0.69358642  1
  Sc  Sc85  1  0.49782940  0.70260510  0.49246102  1
  Sc  Sc86  1  0.29567190  0.70051294  0.70384149  1
  Sc  Sc87  1  0.30586435  0.50931093  0.10710853  1
  Sc  Sc88  1  0.30102058  0.30584787  0.50005453  1
  Sc  Sc89  1  0.89064311  0.90218537  0.30637763  1
  Sc  Sc90  1  0.70216343  0.49949570  0.10215463  1
  Sc  Sc91  1  0.29359993  0.50274637  0.89520246  1
  Sc  Sc92  1  0.70883492  0.90995573  0.49942367  1
  Sc  Sc93  1  0.91101803  0.29899532  0.89430966  1
  Sc  Sc94  1  0.90049407  0.09456042  0.88658144  1
  Sc  Sc95  1  0.70393582  0.70352686  0.49557457  1
  Sc  Sc96  1  0.29770818  0.90144865  0.50099261  1
  Sc  Sc97  1  0.90220225  0.29636246  0.50170378  1
  Sc  Sc98  1  0.10357844  0.50153533  0.69694022  1
  Sc  Sc99  1  0.70899809  0.70687570  0.70476231  1
  Nb  Nb100  1  0.29094624  0.69378872  0.28523483  1
  Nb  Nb101  1  0.89901745  0.09998522  0.68936460  1
  Nb  Nb102  1  0.50467493  0.90347940  0.89609254  1
  Nb  Nb103  1  0.49391552  0.30306113  0.69997141  1
  Nb  Nb104  1  0.10235057  0.90068985  0.89572594  1
  Nb  Nb105  1  0.10930704  0.50738650  0.49922242  1
  Nb  Nb106  1  0.09978186  0.29591588  0.69853008  1
  Nb  Nb107  1  0.09965262  0.10001758  0.29989313  1
  Nb  Nb108  1  0.89733634  0.10002814  0.09453104  1
  Nb  Nb109  1  0.29450589  0.50228262  0.30251783  1
  Nb  Nb110  1  0.69805204  0.89514395  0.70228953  1
  Nb  Nb111  1  0.90274466  0.70061149  0.10130547  1
  Nb  Nb112  1  0.91181571  0.29989739  0.69660393  1
  Nb  Nb113  1  0.28514869  0.49951658  0.49443439  1
  Nb  Nb114  1  0.09843941  0.69999635  0.89257304  1
  Nb  Nb115  1  0.89697003  0.50249223  0.69936941  1
  Nb  Nb116  1  0.70447276  0.10371615  0.89229224  1
  Nb  Nb117  1  0.71083345  0.09491938  0.69492165  1
  Nb  Nb118  1  0.89174669  0.09417195  0.50773824  1
  Nb  Nb119  1  0.29721766  0.09922972  0.49427135  1
  Nb  Nb120  1  0.69700470  0.29687804  0.30301253  1
  Nb  Nb121  1  0.90568083  0.69631284  0.89742885  1
  Nb  Nb122  1  0.49836175  0.89566609  0.49787737  1
  Nb  Nb123  1  0.09286334  0.69208151  0.50030929  1
  Nb  Nb124  1  0.71140991  0.10491205  0.51199001  1
  Nb  Nb125  1  0.80072787  0.19844388  -0.00294707  1
  Nb  Nb126  1  0.20259703  0.40141088  0.20830222  1
  Nb  Nb127  1  0.60080119  0.60620451  0.59782540  1
  Nb  Nb128  1  0.39737986  0.80060222  0.20337800  1
  Nb  Nb129  1  0.39873741  -0.00782899  0.20271477  1
  Nb  Nb130  1  0.60766713  0.20021366  0.41031177  1
  Nb  Nb131  1  0.19510179  0.20068380  0.00024317  1
  Nb  Nb132  1  -0.00143967  0.59694102  0.59797175  1
  Nb  Nb133  1  0.60268317  0.60576823  0.20281087  1
  Nb  Nb134  1  0.19673252  -0.00262929  0.80480849  1
  Nb  Nb135  1  0.20151472  0.39133961  0.79299151  1
  Nb  Nb136  1  0.19628058  0.19565159  0.40209972  1
  Nb  Nb137  1  0.00023461  0.00144366  0.20300192  1
  Nb  Nb138  1  -0.00246637  0.80596336  0.19589643  1
  Nb  Nb139  1  0.60005986  0.80390684  0.59968376  1
  Nb  Nb140  1  0.19176936  0.60506567  -0.00114428  1
  Nb  Nb141  1  0.60691349  0.00219630  0.79713282  1
  Nb  Nb142  1  0.39857704  0.39549167  0.79817276  1
  Nb  Nb143  1  0.00018552  0.61034913  -0.00045927  1
  Nb  Nb144  1  0.20051960  0.00280828  0.20425933  1
  Nb  Nb145  1  0.00050912  0.79513627  -0.00158317  1
  Nb  Nb146  1  0.00022211  0.00494020  0.40020099  1
  Nb  Nb147  1  0.79980288  0.39243432  -0.00589636  1
  Nb  Nb148  1  0.40336972  0.39863866  -0.00547548  1
  Nb  Nb149  1  0.80583336  0.39869210  0.79493449  1
  Pd  Pd150  1  0.61100672  0.60796734  0.00730190  1
  Pd  Pd151  1  0.40359319  0.80363597  0.80059941  1
  Pd  Pd152  1  0.39933296  0.40647019  0.19595931  1
  Pd  Pd153  1  0.60618350  0.60753746  0.79054318  1
  Pd  Pd154  1  0.39893649  0.59313348  0.80313115  1
  Pd  Pd155  1  0.60084147  0.79318724  -0.00364505  1
  Pd  Pd156  1  0.00466657  0.40023929  0.40317768  1
  Pd  Pd157  1  0.39401135  0.59323439  -0.01156538  1
  Pd  Pd158  1  0.59980072  0.19563661  0.59984717  1
  Pd  Pd159  1  0.00494216  0.19441794  0.41274298  1
  Pd  Pd160  1  -0.00084467  0.80474411  0.80009262  1
  Pd  Pd161  1  0.80328544  0.20371739  0.19544009  1
  Pd  Pd162  1  0.40248927  0.00236638  0.00606384  1
  Pd  Pd163  1  0.79977377  0.59683886  -0.00364481  1
  Pd  Pd164  1  0.59022443  0.79416017  0.20029237  1
  Pd  Pd165  1  0.79704840  0.20426758  0.40525389  1
  Pd  Pd166  1  0.38890611  0.60465802  0.39574101  1
  Pd  Pd167  1  0.60450772  0.39117426  0.00467397  1
  Pd  Pd168  1  0.40232163  0.80167946  0.59735083  1
  Pd  Pd169  1  0.39524474  0.19728016  0.59446250  1
  Pd  Pd170  1  0.20191248  0.78863626  0.40911991  1
  Pd  Pd171  1  0.59870742  0.40899750  0.20523062  1
  Pd  Pd172  1  0.79991787  -0.00569880  0.79274560  1
  Pd  Pd173  1  0.60826872  0.00472372  0.40848889  1
  Pd  Pd174  1  -0.00638126  0.80691953  0.39596115  1
  Pd  Pd175  1  0.00424528  0.40546942  0.79057616  1
  Pd  Pd176  1  0.39829772  -0.00033281  0.79370411  1
  Pd  Pd177  1  0.80950358  0.00811160  0.20986360  1
  Pd  Pd178  1  0.19888938  0.19578426  0.80469303  1
  Pd  Pd179  1  0.59522662  0.39641284  0.39536680  1
  Pd  Pd180  1  0.60923201  0.00415426  -0.01031225  1
  Pd  Pd181  1  -0.00606301  -0.00721149  0.00419446  1
  Pd  Pd182  1  0.59629280  0.40805873  0.60374786  1
  Pd  Pd183  1  -0.00482378  0.19759504  -0.00484224  1
  Pd  Pd184  1  0.60316802  -0.00517103  0.60518273  1
  Pd  Pd185  1  0.20922636  0.40275140  -0.00047476  1
  Pd  Pd186  1  0.39157167  0.40936751  0.60499220  1
  Pd  Pd187  1  0.80453003  0.59616325  0.39961729  1
  Pd  Pd188  1  0.39963593  0.40056774  0.40087807  1
  Pd  Pd189  1  0.19029372  0.38700861  0.39242446  1
  Pd  Pd190  1  0.20342947  0.01120139  0.00079675  1
  Pd  Pd191  1  0.59710133  0.19034763  0.78233488  1
  Pd  Pd192  1  0.80837441  0.79918179  -0.01163980  1
  Pd  Pd193  1  0.00018361  0.41027055  0.59998824  1
  Pd  Pd194  1  0.40698715  0.18920425  0.20235802  1
  Pd  Pd195  1  0.80835628  0.20898558  0.79682842  1
  Pd  Pd196  1  0.80108924  0.80194969  0.40010093  1
  Pd  Pd197  1  0.19499692  0.79285334  -0.00964319  1
  Pd  Pd198  1  0.19964706  -0.00163636  0.60598581  1
  Pd  Pd199  1  0.79997161  0.60536585  0.59547372  1
  Rh  Rh200  1  0.80640544  0.00603381  0.40104872  1
  Rh  Rh201  1  -0.01170276  0.19579103  0.20044280  1
  Rh  Rh202  1  0.79695936  0.00845055  -0.00995073  1
  Rh  Rh203  1  0.40047527  -0.00509235  0.40370174  1
  Rh  Rh204  1  0.19552250  0.59426053  0.80501753  1
  Rh  Rh205  1  0.40283705  0.60097579  0.59901727  1
  Rh  Rh206  1  0.80805696  0.20691474  0.60571063  1
  Rh  Rh207  1  0.19273128  0.60520973  0.60050163  1
  Rh  Rh208  1  0.60238338  0.59469531  0.40124620  1
  Rh  Rh209  1  0.40974940  0.60692267  0.21049709  1
  Rh  Rh210  1  0.59682992  0.19447868  0.21504505  1
  Rh  Rh211  1  0.00726065  0.59710635  0.79404091  1
  Rh  Rh212  1  0.60877364  0.80938846  0.41294961  1
  Rh  Rh213  1  0.38846413  0.79105609  0.39767410  1
  Rh  Rh214  1  0.79192166  0.60498766  0.20732911  1
  Rh  Rh215  1  0.40863320  0.80019420  -0.00420986  1
  Rh  Rh216  1  0.59191731  0.80887114  0.79267111  1
  Rh  Rh217  1  0.80915525  0.80241860  0.80218585  1
  Rh  Rh218  1  -0.00960955  0.59072880  0.41343439  1
  Rh  Rh219  1  0.80240732  -0.00809549  0.60589410  1
  Rh  Rh220  1  0.79360145  0.80292236  0.60292748  1
  Rh  Rh221  1  0.19239432  0.58577192  0.19362861  1
  Rh  Rh222  1  0.20771263  0.60908142  0.40032614  1
  Rh  Rh223  1  -0.00566147  0.19531634  0.79453522  1
  Rh  Rh224  1  -0.00458308  -0.00019283  0.59617725  1
  Rh  Rh225  1  0.39622933  0.20520841  0.00588836  1
  Rh  Rh226  1  0.80734746  0.39120380  0.60855747  1
  Rh  Rh227  1  0.79986375  0.39568256  0.39770070  1
  Rh  Rh228  1  0.19639502  0.79341686  0.59762027  1
  Rh  Rh229  1  0.61385167  0.19651574  0.00037858  1
  Rh  Rh230  1  0.20071310  0.80952389  0.80128249  1
  Rh  Rh231  1  0.39241839  -0.00338853  0.59336526  1
  Rh  Rh232  1  0.00514672  -0.00236065  0.78879648  1
  Rh  Rh233  1  0.80963940  0.79653780  0.21070926  1
  Rh  Rh234  1  0.20272775  0.19604852  0.58997948  1
  Rh  Rh235  1  0.79485062  0.59628863  0.80333600  1
  Rh  Rh236  1  0.18939945  0.00812138  0.40380846  1
  Rh  Rh237  1  0.59100936  -0.00073239  0.20533398  1
  Rh  Rh238  1  0.40248011  0.20385223  0.40934743  1
  Rh  Rh239  1  0.20322882  0.40433337  0.60632813  1
  Rh  Rh240  1  0.59921782  0.39510207  0.78898636  1
  Rh  Rh241  1  -0.01360169  0.41228116  0.00128412  1
  Rh  Rh242  1  0.40393966  0.20145792  0.79006369  1
  Rh  Rh243  1  0.00391971  0.60416182  0.19484831  1
  Rh  Rh244  1  0.79323191  0.39279388  0.19611007  1
  Rh  Rh245  1  -0.00523093  0.19801413  0.59751446  1
  Rh  Rh246  1  0.00809852  0.40407111  0.20791336  1
  Rh  Rh247  1  0.20019860  0.20368197  0.20179259  1
  Rh  Rh248  1  0.00126418  0.78817896  0.60407481  1
  Rh  Rh249  1  0.19984905  0.81077526  0.20366186  1
