# generated using pymatgen
data_ZrScNbPdRh
_symmetry_space_group_name_H-M   'P 1'
_cell_length_a   16.56272276
_cell_length_b   16.56032020
_cell_length_c   16.55380289
_cell_angle_alpha   89.98581881
_cell_angle_beta   89.97206003
_cell_angle_gamma   90.00985633
_symmetry_Int_Tables_number   1
_chemical_formula_structural   ZrScNbPdRh
_chemical_formula_sum   'Zr50 Sc50 Nb50 Pd50 Rh50'
_cell_volume   4540.44239962
_cell_formula_units_Z   50
loop_
 _symmetry_equiv_pos_site_id
 _symmetry_equiv_pos_as_xyz
  1  'x, y, z'
loop_
 _atom_site_type_symbol
 _atom_site_label
 _atom_site_symmetry_multiplicity
 _atom_site_fract_x
 _atom_site_fract_y
 _atom_site_fract_z
 _atom_site_occupancy
  Zr  Zr0  1  0.30129678  0.49088001  0.50391241  1
  Zr  Zr1  1  0.69837955  0.30216908  0.50350585  1
  Zr  Zr2  1  0.70938465  0.49578941  0.10182112  1
  Zr  Zr3  1  0.10124107  0.70565724  0.30782107  1
  Zr  Zr4  1  0.09353550  0.90055510  0.70619093  1
  Zr  Zr5  1  0.09476237  0.29745493  0.49178715  1
  Zr  Zr6  1  0.30333831  0.90303243  0.91085478  1
  Zr  Zr7  1  0.90745770  0.50069804  0.70143718  1
  Zr  Zr8  1  0.90075810  0.29893318  0.69918192  1
  Zr  Zr9  1  0.29980320  0.30179339  0.70107229  1
  Zr  Zr10  1  0.68880352  0.89111944  0.70623249  1
  Zr  Zr11  1  0.70882847  0.30145346  0.69503656  1
  Zr  Zr12  1  0.30239304  0.70926041  0.90422829  1
  Zr  Zr13  1  0.30354482  0.09446847  0.29815895  1
  Zr  Zr14  1  0.50589756  0.49993882  0.49824335  1
  Zr  Zr15  1  0.50098345  0.09069054  0.70043684  1
  Zr  Zr16  1  0.30209048  0.69590560  0.70425978  1
  Zr  Zr17  1  0.89012740  0.29758270  0.90019199  1
  Zr  Zr18  1  0.09285503  0.69644601  0.50108045  1
  Zr  Zr19  1  0.29971024  0.49373150  0.29928065  1
  Zr  Zr20  1  0.49230025  0.10078964  0.50010435  1
  Zr  Zr21  1  0.89671572  0.69932073  0.30156544  1
  Zr  Zr22  1  0.69955296  0.30038224  0.90296604  1
  Zr  Zr23  1  0.89361554  0.09182179  0.10255623  1
  Zr  Zr24  1  0.89930850  0.09363972  0.50271694  1
  Zr  Zr25  1  0.09983837  0.50094180  0.30052065  1
  Zr  Zr26  1  0.70235909  0.49778218  0.90385886  1
  Zr  Zr27  1  0.29511035  0.89065595  0.69711752  1
  Zr  Zr28  1  0.90180081  0.31345584  0.11545281  1
  Zr  Zr29  1  0.90480194  0.51380651  0.09510899  1
  Zr  Zr30  1  0.49431849  0.49413714  0.30160102  1
  Zr  Zr31  1  0.69413952  0.70440640  0.89410994  1
  Zr  Zr32  1  0.49854417  0.89984669  0.90024220  1
  Zr  Zr33  1  0.30135841  0.29887818  0.89972771  1
  Zr  Zr34  1  0.70361527  0.70757318  0.09710401  1
  Zr  Zr35  1  0.90287022  0.29945941  0.50380797  1
  Zr  Zr36  1  0.50459465  0.29239094  0.09649084  1
  Zr  Zr37  1  0.89121945  0.89999443  0.10280339  1
  Zr  Zr38  1  0.88906450  0.90459044  0.29987712  1
  Zr  Zr39  1  0.90448217  0.09757489  0.69596176  1
  Zr  Zr40  1  0.70238556  0.09802841  0.50035065  1
  Zr  Zr41  1  0.10132882  0.09625016  0.90262957  1
  Zr  Zr42  1  0.51608644  0.69702429  0.68504172  1
  Zr  Zr43  1  0.90710833  0.50033301  0.89808405  1
  Zr  Zr44  1  0.30044192  0.89913068  0.10826979  1
  Zr  Zr45  1  0.70649811  0.10609943  0.90750326  1
  Zr  Zr46  1  0.08887324  0.29723288  0.28775643  1
  Zr  Zr47  1  0.29320622  0.30074462  0.09982328  1
  Zr  Zr48  1  0.29896684  0.29353370  0.29731231  1
  Zr  Zr49  1  0.50524331  0.30086776  0.49095024  1
  Sc  Sc50  1  0.49369591  0.29665711  0.30286503  1
  Sc  Sc51  1  0.89932352  0.49643951  0.28409986  1
  Sc  Sc52  1  0.90908057  0.50049083  0.50373387  1
  Sc  Sc53  1  0.30642233  0.28949422  0.50277632  1
  Sc  Sc54  1  0.29591864  0.50460111  0.10750480  1
  Sc  Sc55  1  0.49643942  0.09792595  0.29349310  1
  Sc  Sc56  1  0.49610303  0.89855580  0.29656751  1
  Sc  Sc57  1  0.48923151  0.50549346  0.69916638  1
  Sc  Sc58  1  0.49845188  0.89522085  0.10337465  1
  Sc  Sc59  1  0.10718966  0.50506488  0.09774765  1
  Sc  Sc60  1  0.10784298  0.90914026  0.10023762  1
  Sc  Sc61  1  0.10635163  0.89718712  0.49901244  1
  Sc  Sc62  1  0.89242622  0.09635776  0.90393248  1
  Sc  Sc63  1  0.10878642  0.69684130  0.09567921  1
  Sc  Sc64  1  0.10202222  0.29440342  0.69552057  1
  Sc  Sc65  1  0.49644102  0.89590114  0.49066113  1
  Sc  Sc66  1  0.29922276  0.90304743  0.49431234  1
  Sc  Sc67  1  0.30706967  0.51057620  0.89479972  1
  Sc  Sc68  1  0.70119756  0.89834317  0.10973590  1
  Sc  Sc69  1  0.31082748  0.09687202  0.09795220  1
  Sc  Sc70  1  0.89704261  0.69570920  0.90013179  1
  Sc  Sc71  1  0.11700868  0.29295835  0.90111692  1
  Sc  Sc72  1  0.50159739  0.30657524  0.90212496  1
  Sc  Sc73  1  0.10408409  0.70883236  0.70663761  1
  Sc  Sc74  1  0.69169635  0.30495290  0.30321375  1
  Sc  Sc75  1  0.69982813  0.29899768  0.08753148  1
  Sc  Sc76  1  0.30134708  0.70633620  0.09832127  1
  Sc  Sc77  1  0.68924429  0.08893527  0.29499388  1
  Sc  Sc78  1  0.89460011  0.90775756  0.49592685  1
  Sc  Sc79  1  0.11007702  0.90436401  0.29955415  1
  Sc  Sc80  1  0.49664539  0.30008390  0.69462586  1
  Sc  Sc81  1  0.10690667  0.70091997  0.90155061  1
  Sc  Sc82  1  0.89828899  0.90821318  0.89604239  1
  Sc  Sc83  1  0.30333055  0.09403930  0.49680336  1
  Sc  Sc84  1  0.49687954  0.89933801  0.70282013  1
  Sc  Sc85  1  0.68546268  0.69649275  0.49716031  1
  Sc  Sc86  1  0.29625708  0.71012776  0.29604583  1
  Sc  Sc87  1  0.89709401  0.90766470  0.70200026  1
  Sc  Sc88  1  0.09807830  0.09398096  0.50005757  1
  Sc  Sc89  1  0.49494346  0.09078839  0.90360186  1
  Sc  Sc90  1  0.70746041  0.50730194  0.30013525  1
  Sc  Sc91  1  0.30107702  0.89994547  0.29975723  1
  Sc  Sc92  1  0.30257342  0.09867718  0.68697891  1
  Sc  Sc93  1  0.09412215  0.50036628  0.50045374  1
  Sc  Sc94  1  0.70244697  0.70358529  0.30259384  1
  Sc  Sc95  1  0.70682955  0.09929832  0.69819242  1
  Sc  Sc96  1  0.28872522  0.70743518  0.49525892  1
  Sc  Sc97  1  0.50129713  0.50688676  0.90260779  1
  Sc  Sc98  1  0.09989235  0.10006920  0.29714383  1
  Sc  Sc99  1  0.09896119  0.09815674  0.69590152  1
  Nb  Nb100  1  0.69659948  0.10184821  0.09864910  1
  Nb  Nb101  1  0.49577297  0.70130168  0.30328377  1
  Nb  Nb102  1  0.89720778  0.10092650  0.29810883  1
  Nb  Nb103  1  0.70075623  0.90102845  0.30536372  1
  Nb  Nb104  1  0.50236962  0.70053178  0.10041648  1
  Nb  Nb105  1  0.49938564  0.50274845  0.10077367  1
  Nb  Nb106  1  0.10075460  0.89954396  0.90059898  1
  Nb  Nb107  1  0.09961145  0.30100860  0.09921872  1
  Nb  Nb108  1  0.09733128  0.50480508  0.89994229  1
  Nb  Nb109  1  0.90012816  0.69948607  0.50461260  1
  Nb  Nb110  1  0.50938056  0.09702306  0.10434757  1
  Nb  Nb111  1  0.70069259  0.90369755  0.49922159  1
  Nb  Nb112  1  0.09160376  0.10326072  0.10408692  1
  Nb  Nb113  1  0.70241562  0.49341880  0.50195350  1
  Nb  Nb114  1  0.49712915  0.69909480  0.49428478  1
  Nb  Nb115  1  0.69076495  0.90396403  0.90083463  1
  Nb  Nb116  1  0.90274207  0.70601175  0.09971212  1
  Nb  Nb117  1  0.89475531  0.69979831  0.69594073  1
  Nb  Nb118  1  0.69835200  0.50457571  0.69588158  1
  Nb  Nb119  1  0.09892350  0.50438401  0.70572885  1
  Nb  Nb120  1  0.70207010  0.69824168  0.69677509  1
  Nb  Nb121  1  0.90122143  0.30040185  0.30306612  1
  Nb  Nb122  1  0.50014271  0.70345498  0.92129306  1
  Nb  Nb123  1  0.29718876  0.10416848  0.89525385  1
  Nb  Nb124  1  0.30089004  0.49717545  0.70096761  1
  Nb  Nb125  1  0.20215762  -0.00125608  0.80564661  1
  Nb  Nb126  1  0.79694980  0.60267778  0.60078092  1
  Nb  Nb127  1  0.19988442  0.41236380  0.79541035  1
  Nb  Nb128  1  0.79989812  0.19846238  0.20594017  1
  Nb  Nb129  1  0.59941801  0.20212465  0.80108712  1
  Nb  Nb130  1  0.40278199  0.79289567  0.59518338  1
  Nb  Nb131  1  -0.00259240  0.80029733  0.19618837  1
  Nb  Nb132  1  0.40030738  0.40300194  0.00590114  1
  Nb  Nb133  1  0.19723666  0.39322350  0.39754048  1
  Nb  Nb134  1  -0.00050827  0.19820260  0.80806844  1
  Nb  Nb135  1  -0.00049327  0.80292788  0.00382765  1
  Nb  Nb136  1  0.40033599  0.19719570  0.80066669  1
  Nb  Nb137  1  0.00174713  0.20392868  0.00597178  1
  Nb  Nb138  1  0.79635701  0.79385510  0.60001770  1
  Nb  Nb139  1  0.59555795  0.40723856  0.19437540  1
  Nb  Nb140  1  0.19957986  0.59248642  0.60956148  1
  Nb  Nb141  1  0.60426913  0.40155000  0.79607211  1
  Nb  Nb142  1  0.40088919  0.60449460  0.40022164  1
  Nb  Nb143  1  0.00860254  0.39635985  -0.00227357  1
  Nb  Nb144  1  0.60408642  -0.00005544  0.00426814  1
  Nb  Nb145  1  0.60133275  -0.00518435  0.59536712  1
  Nb  Nb146  1  0.59236005  0.60213467  0.19687297  1
  Nb  Nb147  1  0.80466416  0.39552472  0.40213745  1
  Nb  Nb148  1  -0.01003260  0.79562225  0.59914730  1
  Nb  Nb149  1  0.80356753  0.20008233  0.39376877  1
  Pd  Pd150  1  -0.00235667  0.81061935  0.40035728  1
  Pd  Pd151  1  0.59809066  0.59562429  0.39228326  1
  Pd  Pd152  1  0.01421354  0.38664363  0.80855318  1
  Pd  Pd153  1  0.20256882  0.19124614  0.19326081  1
  Pd  Pd154  1  0.20062871  0.59931014  0.80220055  1
  Pd  Pd155  1  0.79561408  0.79788501  0.40974696  1
  Pd  Pd156  1  0.59752347  0.19300791  0.60667408  1
  Pd  Pd157  1  0.80363818  0.80575187  -0.01173502  1
  Pd  Pd158  1  0.79724138  0.60567519  -0.00266234  1
  Pd  Pd159  1  -0.00247264  -0.00304490  0.00035518  1
  Pd  Pd160  1  0.38989682  0.60657310  0.58947500  1
  Pd  Pd161  1  0.20260688  0.60771472  0.20257241  1
  Pd  Pd162  1  0.00432460  -0.00378006  0.39620613  1
  Pd  Pd163  1  0.00289686  0.61388153  0.79964272  1
  Pd  Pd164  1  0.40565285  0.19967457  -0.00396765  1
  Pd  Pd165  1  0.59412528  0.59770095  0.80157273  1
  Pd  Pd166  1  0.19775310  -0.00213093  0.60282839  1
  Pd  Pd167  1  0.19078863  0.40239218  0.59895553  1
  Pd  Pd168  1  0.79541500  0.40694509  0.79644460  1
  Pd  Pd169  1  0.59923474  0.79737020  0.20652966  1
  Pd  Pd170  1  0.00782811  0.39863752  0.60353110  1
  Pd  Pd171  1  0.19846172  0.18878573  0.01119634  1
  Pd  Pd172  1  0.39986225  0.60978010  0.20380261  1
  Pd  Pd173  1  0.38726788  0.00369314  0.79633650  1
  Pd  Pd174  1  0.60323430  0.19326041  0.39241025  1
  Pd  Pd175  1  0.00710327  0.60859409  0.19930396  1
  Pd  Pd176  1  0.80581598  0.59063121  0.40911052  1
  Pd  Pd177  1  0.20363610  0.00657278  0.00365073  1
  Pd  Pd178  1  0.79268367  0.00055366  0.79668501  1
  Pd  Pd179  1  0.59213954  0.40490563  0.60920674  1
  Pd  Pd180  1  -0.00298083  0.19061047  0.39932987  1
  Pd  Pd181  1  0.41103460  0.79026152  0.79391230  1
  Pd  Pd182  1  0.58762112  0.79171205  0.80491978  1
  Pd  Pd183  1  0.60004248  0.80329495  0.39622247  1
  Pd  Pd184  1  0.79896396  0.59694589  0.79631859  1
  Pd  Pd185  1  0.60534766  0.20693344  0.20417454  1
  Pd  Pd186  1  0.00309941  -0.00841586  0.20547764  1
  Pd  Pd187  1  0.19886790  0.19523242  0.59464723  1
  Pd  Pd188  1  0.60674030  0.59923582  0.00663222  1
  Pd  Pd189  1  -0.00940603  0.79693857  0.80464446  1
  Pd  Pd190  1  0.19950164  0.19924182  0.40092967  1
  Pd  Pd191  1  0.40757749  0.39601470  0.59704786  1
  Pd  Pd192  1  0.40389873  0.39111220  0.19148848  1
  Pd  Pd193  1  0.20772140  0.59248196  0.40687730  1
  Pd  Pd194  1  0.20402383  0.41285738  -0.00862898  1
  Pd  Pd195  1  0.41415971  0.61209358  0.80399776  1
  Pd  Pd196  1  0.59318123  -0.00178759  0.40239375  1
  Pd  Pd197  1  -0.01072646  0.59343552  0.39358636  1
  Pd  Pd198  1  0.80336746  0.80331338  0.80027764  1
  Pd  Pd199  1  0.39251132  0.59711768  0.00646852  1
  Rh  Rh200  1  0.00331652  -0.01277522  0.59459770  1
  Rh  Rh201  1  0.81311899  0.20644431  0.01854303  1
  Rh  Rh202  1  0.20245980  0.00791882  0.19731002  1
  Rh  Rh203  1  0.40390711  0.20055980  0.60266653  1
  Rh  Rh204  1  0.60813833  0.01116061  0.80494207  1
  Rh  Rh205  1  0.19486773  0.39801117  0.20598931  1
  Rh  Rh206  1  0.20176666  0.00391127  0.39777604  1
  Rh  Rh207  1  0.19936730  0.80570884  0.39879243  1
  Rh  Rh208  1  0.19219588  0.80083165  0.19890826  1
  Rh  Rh209  1  0.60635077  0.59214140  0.59383098  1
  Rh  Rh210  1  0.40142887  0.19665909  0.39721847  1
  Rh  Rh211  1  0.80678701  0.41230678  0.59588139  1
  Rh  Rh212  1  0.39841135  0.39556952  0.80695955  1
  Rh  Rh213  1  0.19706497  0.79326699  0.59833314  1
  Rh  Rh214  1  0.81440586  0.40282774  0.00199574  1
  Rh  Rh215  1  0.20366943  0.80923528  0.81015228  1
  Rh  Rh216  1  0.80151682  0.79700795  0.20720392  1
  Rh  Rh217  1  0.19328586  0.80271143  0.00072856  1
  Rh  Rh218  1  0.39625821  0.79455410  0.40139567  1
  Rh  Rh219  1  0.80495675  0.19729403  0.59401679  1
  Rh  Rh220  1  0.40250880  0.80340715  0.00817569  1
  Rh  Rh221  1  0.40698815  -0.01473085  0.59527110  1
  Rh  Rh222  1  0.01013864  0.41329552  0.19047842  1
  Rh  Rh223  1  0.78626659  0.39086111  0.20928338  1
  Rh  Rh224  1  0.59133427  0.18706254  -0.00905949  1
  Rh  Rh225  1  0.00395168  0.60839041  0.61032915  1
  Rh  Rh226  1  0.20643743  0.59973738  -0.00479553  1
  Rh  Rh227  1  0.00161665  0.19761128  0.60327000  1
  Rh  Rh228  1  0.80255355  0.19511715  0.79260040  1
  Rh  Rh229  1  -0.00877461  0.19455274  0.19404586  1
  Rh  Rh230  1  0.61086613  0.41018631  0.39213250  1
  Rh  Rh231  1  0.40099735  -0.00014851  0.39467640  1
  Rh  Rh232  1  0.59869479  0.80810594  0.59042885  1
  Rh  Rh233  1  0.40094293  0.19783051  0.19683895  1
  Rh  Rh234  1  -0.00096566  0.40534646  0.39419104  1
  Rh  Rh235  1  0.20403759  0.19289583  0.78925992  1
  Rh  Rh236  1  0.79351435  0.61148562  0.19589211  1
  Rh  Rh237  1  0.79513934  0.00804776  0.39331484  1
  Rh  Rh238  1  0.40849751  -0.00119132  0.00903466  1
  Rh  Rh239  1  0.78964400  0.00537958  0.20312308  1
  Rh  Rh240  1  0.59892337  -0.00819929  0.19500308  1
  Rh  Rh241  1  0.00632260  0.00818335  0.80244345  1
  Rh  Rh242  1  0.40124980  0.79693533  0.20013793  1
  Rh  Rh243  1  0.78928572  -0.01274867  0.60778405  1
  Rh  Rh244  1  0.78773800  -0.01011760  0.00193760  1
  Rh  Rh245  1  0.00503396  0.60513953  -0.00253376  1
  Rh  Rh246  1  0.59072693  0.40893147  -0.00024326  1
  Rh  Rh247  1  0.38976718  0.39590915  0.40423208  1
  Rh  Rh248  1  0.60082827  0.80859113  0.00109804  1
  Rh  Rh249  1  0.40316688  -0.00202763  0.19849089  1
