# generated using pymatgen
data_ZrScNbPdRh
_symmetry_space_group_name_H-M   'P 1'
_cell_length_a   16.55731012
_cell_length_b   16.56106353
_cell_length_c   16.56059747
_cell_angle_alpha   89.94251465
_cell_angle_beta   90.00493190
_cell_angle_gamma   90.00367109
_symmetry_Int_Tables_number   1
_chemical_formula_structural   ZrScNbPdRh
_chemical_formula_sum   'Zr50 Sc50 Nb50 Pd50 Rh50'
_cell_volume   4541.02388752
_cell_formula_units_Z   50
loop_
 _symmetry_equiv_pos_site_id
 _symmetry_equiv_pos_as_xyz
  1  'x, y, z'
loop_
 _atom_site_type_symbol
 _atom_site_label
 _atom_site_symmetry_multiplicity
 _atom_site_fract_x
 _atom_site_fract_y
 _atom_site_fract_z
 _atom_site_occupancy
  Zr  Zr0  1  0.50648105  0.09483363  0.29123487  1
  Zr  Zr1  1  0.89320476  0.09459510  0.30229286  1
  Zr  Zr2  1  0.90301509  0.69234722  0.10132607  1
  Zr  Zr3  1  0.10142240  0.49956040  0.50135551  1
  Zr  Zr4  1  0.09700206  0.30290214  0.09975157  1
  Zr  Zr5  1  0.29410190  0.89370799  0.30271237  1
  Zr  Zr6  1  0.29786623  0.30212899  0.69973051  1
  Zr  Zr7  1  0.69731446  0.49690347  0.30006424  1
  Zr  Zr8  1  0.70539406  0.29881547  0.10028252  1
  Zr  Zr9  1  0.09711975  0.69156022  0.70552526  1
  Zr  Zr10  1  0.10113473  0.29540911  0.29393070  1
  Zr  Zr11  1  0.30191871  0.50871415  0.30052138  1
  Zr  Zr12  1  0.71524772  0.30497230  0.69977948  1
  Zr  Zr13  1  0.10186012  0.89374605  0.69754366  1
  Zr  Zr14  1  0.70103427  0.29222251  0.49725381  1
  Zr  Zr15  1  0.29537104  0.70031693  0.89761720  1
  Zr  Zr16  1  0.69676127  0.49860222  0.90092167  1
  Zr  Zr17  1  0.30750395  0.90306739  0.10122498  1
  Zr  Zr18  1  0.50575041  0.29791010  0.09717241  1
  Zr  Zr19  1  0.29502106  0.89989598  0.89252643  1
  Zr  Zr20  1  0.09422783  0.90333388  0.90297609  1
  Zr  Zr21  1  0.90486456  0.50410786  0.29784460  1
  Zr  Zr22  1  0.70868022  0.90228605  0.29522437  1
  Zr  Zr23  1  0.09296619  0.09531895  0.50047036  1
  Zr  Zr24  1  0.30576723  0.89854707  0.69910629  1
  Zr  Zr25  1  0.10090453  0.10504287  0.89644351  1
  Zr  Zr26  1  0.30085808  0.70362322  0.30952121  1
  Zr  Zr27  1  0.09621907  0.69532170  0.89581391  1
  Zr  Zr28  1  0.09709657  0.30240098  0.90372411  1
  Zr  Zr29  1  0.50371609  0.30805953  0.89956876  1
  Zr  Zr30  1  0.70164376  0.70512787  0.29269148  1
  Zr  Zr31  1  0.09542567  0.49974325  0.10364478  1
  Zr  Zr32  1  0.90160572  0.30009820  0.29867643  1
  Zr  Zr33  1  0.29331198  0.30471086  0.09755380  1
  Zr  Zr34  1  0.49022175  0.90511826  0.90465936  1
  Zr  Zr35  1  0.29593481  0.10433150  0.30253375  1
  Zr  Zr36  1  0.69921710  0.69608173  0.10272413  1
  Zr  Zr37  1  0.08931368  0.89685604  0.10767610  1
  Zr  Zr38  1  0.29541173  0.49700835  0.49689521  1
  Zr  Zr39  1  0.09241719  0.49325148  0.30962745  1
  Zr  Zr40  1  0.50289603  0.10072000  0.49554898  1
  Zr  Zr41  1  0.70619388  0.29725938  0.89474091  1
  Zr  Zr42  1  0.49995120  0.91316054  0.10193811  1
  Zr  Zr43  1  0.90145514  0.29989012  0.09733687  1
  Zr  Zr44  1  0.30015754  0.70274962  0.12044749  1
  Zr  Zr45  1  0.70194851  0.49973818  0.50867317  1
  Zr  Zr46  1  0.30372152  0.30497862  0.49972131  1
  Zr  Zr47  1  0.90638681  0.70289294  0.70024458  1
  Zr  Zr48  1  0.49984829  0.49772645  0.90379058  1
  Zr  Zr49  1  0.89804039  0.69873918  0.30100507  1
  Sc  Sc50  1  0.09924809  0.89730867  0.49601503  1
  Sc  Sc51  1  0.89256090  0.49237134  0.69606500  1
  Sc  Sc52  1  0.49583220  0.69500071  0.89759056  1
  Sc  Sc53  1  0.69847589  0.29070492  0.29497025  1
  Sc  Sc54  1  0.09233298  0.50239580  0.89483152  1
  Sc  Sc55  1  0.69757994  0.11166462  0.70472561  1
  Sc  Sc56  1  0.29778679  0.30704810  0.90004882  1
  Sc  Sc57  1  0.89693301  0.28994813  0.50973992  1
  Sc  Sc58  1  0.91177991  0.89990766  0.48774057  1
  Sc  Sc59  1  0.70626863  0.50441019  0.09724801  1
  Sc  Sc60  1  0.70542048  0.89674230  0.10358567  1
  Sc  Sc61  1  0.29852163  0.10985591  0.50006506  1
  Sc  Sc62  1  0.49586907  0.70012199  0.29384292  1
  Sc  Sc63  1  0.29061814  0.70111633  0.70298583  1
  Sc  Sc64  1  0.50342465  0.50427419  0.70804996  1
  Sc  Sc65  1  0.89648877  0.10658018  0.10310381  1
  Sc  Sc66  1  0.90347680  0.10753906  0.68556324  1
  Sc  Sc67  1  0.49446627  0.48482812  0.49275754  1
  Sc  Sc68  1  0.09307859  0.11508685  0.10144301  1
  Sc  Sc69  1  0.70284016  0.10072900  0.90433625  1
  Sc  Sc70  1  0.29385978  0.29558775  0.30558972  1
  Sc  Sc71  1  0.90707146  0.69995824  0.49485313  1
  Sc  Sc72  1  0.50526936  0.70124829  0.69193059  1
  Sc  Sc73  1  0.51190199  0.90173223  0.29827626  1
  Sc  Sc74  1  0.69365931  0.69175740  0.68812044  1
  Sc  Sc75  1  0.50358076  0.30302602  0.30713616  1
  Sc  Sc76  1  0.69152644  0.10674689  0.10790871  1
  Sc  Sc77  1  0.30022298  0.88811277  0.50155508  1
  Sc  Sc78  1  0.29170089  0.09903600  0.89135534  1
  Sc  Sc79  1  0.49317866  0.29601066  0.49945529  1
  Sc  Sc80  1  0.70729240  0.89971918  0.70757509  1
  Sc  Sc81  1  0.10435340  0.70584126  0.29630227  1
  Sc  Sc82  1  0.69670831  0.69851414  0.49877239  1
  Sc  Sc83  1  0.89662010  0.10008773  0.49653375  1
  Sc  Sc84  1  0.10648470  0.30539181  0.49452679  1
  Sc  Sc85  1  0.89818306  0.89892191  0.70877853  1
  Sc  Sc86  1  0.90683814  0.50215644  0.49283854  1
  Sc  Sc87  1  0.70675502  0.69682665  0.90899432  1
  Sc  Sc88  1  0.10460658  0.09951275  0.69420360  1
  Sc  Sc89  1  0.90234695  0.50057406  0.90631440  1
  Sc  Sc90  1  0.89569778  0.10270396  0.91198955  1
  Sc  Sc91  1  0.29336720  0.09776940  0.69935052  1
  Sc  Sc92  1  0.49306300  0.88657591  0.50623047  1
  Sc  Sc93  1  0.90261694  0.69945977  0.90136545  1
  Sc  Sc94  1  0.49814644  0.10277199  0.69803835  1
  Sc  Sc95  1  0.51391622  0.49952489  0.09501653  1
  Sc  Sc96  1  0.09629011  0.70382007  0.50374840  1
  Sc  Sc97  1  0.30804829  0.49719799  0.89489445  1
  Sc  Sc98  1  0.29296564  0.49857072  0.69920049  1
  Sc  Sc99  1  0.69187912  0.89713859  0.48345872  1
  Nb  Nb100  1  0.49931727  0.69739073  0.50223620  1
  Nb  Nb101  1  0.10047896  0.49983294  0.69853920  1
  Nb  Nb102  1  0.69917005  0.09265890  0.31326125  1
  Nb  Nb103  1  0.70333104  0.09454343  0.49054367  1
  Nb  Nb104  1  0.50259919  0.10033821  0.90479926  1
  Nb  Nb105  1  0.30194271  0.50116828  0.10085339  1
  Nb  Nb106  1  0.50183506  0.90314669  0.70098900  1
  Nb  Nb107  1  0.10216466  0.10122030  0.30291715  1
  Nb  Nb108  1  0.89806356  0.30166370  0.89648249  1
  Nb  Nb109  1  0.09492030  0.90630535  0.30505591  1
  Nb  Nb110  1  0.90638893  0.90057971  0.28973489  1
  Nb  Nb111  1  0.31265214  0.70402053  0.49537962  1
  Nb  Nb112  1  0.90066517  0.90092911  0.09986978  1
  Nb  Nb113  1  0.90057903  0.29908123  0.69906557  1
  Nb  Nb114  1  0.70701717  0.89959131  0.89795296  1
  Nb  Nb115  1  0.50636136  0.29612810  0.70372150  1
  Nb  Nb116  1  0.30577268  0.09508499  0.10393022  1
  Nb  Nb117  1  0.09830434  0.30185958  0.70427242  1
  Nb  Nb118  1  0.88687910  0.90749956  0.90696515  1
  Nb  Nb119  1  0.50506616  0.70689955  0.09746810  1
  Nb  Nb120  1  0.10141605  0.70000988  0.09533213  1
  Nb  Nb121  1  0.90432324  0.50304152  0.10330441  1
  Nb  Nb122  1  0.49434337  0.09571659  0.09727983  1
  Nb  Nb123  1  0.50143498  0.49075855  0.30294448  1
  Nb  Nb124  1  0.70195161  0.50035477  0.69671157  1
  Nb  Nb125  1  0.39520679  0.60206543  0.01194832  1
  Nb  Nb126  1  0.60305054  0.39517419  0.60609504  1
  Nb  Nb127  1  0.20364595  0.60292032  0.00646741  1
  Nb  Nb128  1  0.40619788  0.20412198  0.80417774  1
  Nb  Nb129  1  0.40226405  0.19419911  -0.00041995  1
  Nb  Nb130  1  0.59766259  -0.00412685  0.80226191  1
  Nb  Nb131  1  0.60151820  0.80825455  0.80617356  1
  Nb  Nb132  1  0.79214010  -0.00323066  0.59313822  1
  Nb  Nb133  1  0.79987707  0.39845548  0.39996838  1
  Nb  Nb134  1  0.40191064  0.20077317  0.19296362  1
  Nb  Nb135  1  0.40046574  -0.00080161  0.39906825  1
  Nb  Nb136  1  0.00399079  0.39553992  0.60709170  1
  Nb  Nb137  1  0.19453502  0.00207010  0.20137560  1
  Nb  Nb138  1  0.60387342  -0.00209615  0.60225732  1
  Nb  Nb139  1  0.00306706  0.19679876  0.39595868  1
  Nb  Nb140  1  -0.00512543  0.00513668  0.80382844  1
  Nb  Nb141  1  0.40032934  0.40179447  0.19826948  1
  Nb  Nb142  1  0.59856296  0.80550462  -0.00379997  1
  Nb  Nb143  1  0.79639181  0.59507527  0.79524825  1
  Nb  Nb144  1  0.19857898  -0.00195569  0.00928661  1
  Nb  Nb145  1  0.59428690  0.59607441  0.39875888  1
  Nb  Nb146  1  0.39842551  0.60223646  0.59166316  1
  Nb  Nb147  1  0.19697537  0.79884414  0.00662928  1
  Nb  Nb148  1  -0.00181335  0.20602480  0.79732870  1
  Nb  Nb149  1  0.80172660  0.80570543  0.59651060  1
  Pd  Pd150  1  0.60132637  0.19964055  -0.00355204  1
  Pd  Pd151  1  0.20648433  -0.00491730  0.59237815  1
  Pd  Pd152  1  0.19102253  0.59659565  0.20216628  1
  Pd  Pd153  1  0.59480358  0.59724458  0.20526904  1
  Pd  Pd154  1  0.40989126  0.80852699  0.20687166  1
  Pd  Pd155  1  -0.00485904  0.59100373  0.60268405  1
  Pd  Pd156  1  0.40939000  0.59738439  0.40354667  1
  Pd  Pd157  1  0.39785309  0.19801545  0.60800047  1
  Pd  Pd158  1  -0.00510725  0.80000641  -0.00376921  1
  Pd  Pd159  1  0.80292793  0.01220986  0.79255875  1
  Pd  Pd160  1  0.40908529  0.40753866  0.61084388  1
  Pd  Pd161  1  0.60452718  0.19868359  0.59867968  1
  Pd  Pd162  1  0.81039353  0.60799188  0.59972286  1
  Pd  Pd163  1  0.20006803  0.79331023  0.59725059  1
  Pd  Pd164  1  0.60732154  0.61006530  0.80530566  1
  Pd  Pd165  1  0.20849259  0.19271079  0.00202849  1
  Pd  Pd166  1  0.19290885  0.60885021  0.40498787  1
  Pd  Pd167  1  0.80595297  0.80314871  0.40436020  1
  Pd  Pd168  1  0.81161881  0.19023733  0.79956126  1
  Pd  Pd169  1  -0.00720845  0.40174342  0.79625790  1
  Pd  Pd170  1  0.19542165  0.20444641  0.59720503  1
  Pd  Pd171  1  0.61178568  -0.00419290  -0.00169949  1
  Pd  Pd172  1  0.00221142  0.01015079  0.19854182  1
  Pd  Pd173  1  0.80240682  0.40320170  0.20422546  1
  Pd  Pd174  1  0.19664415  0.41465469  -0.00847382  1
  Pd  Pd175  1  0.80066737  0.79770459  0.00696516  1
  Pd  Pd176  1  0.19948323  0.40518578  0.80432332  1
  Pd  Pd177  1  0.60459442  0.40035567  0.79310615  1
  Pd  Pd178  1  0.39625588  0.60233169  0.79183552  1
  Pd  Pd179  1  0.59897793  0.39860369  0.19667788  1
  Pd  Pd180  1  0.40277043  0.01183137  0.79948192  1
  Pd  Pd181  1  0.79283801  0.00531258  0.01265580  1
  Pd  Pd182  1  0.60951123  0.81038476  0.60524571  1
  Pd  Pd183  1  0.41527737  0.59138218  0.19534653  1
  Pd  Pd184  1  -0.00280012  0.79278139  0.20345287  1
  Pd  Pd185  1  0.59337573  0.79089626  0.39484588  1
  Pd  Pd186  1  0.79644285  0.00577191  0.19353244  1
  Pd  Pd187  1  0.79203347  0.78512001  0.79404265  1
  Pd  Pd188  1  0.59728144  0.20109176  0.39538821  1
  Pd  Pd189  1  0.79235345  0.59664608  0.40151752  1
  Pd  Pd190  1  -0.00963549  -0.00922113  0.60575239  1
  Pd  Pd191  1  0.39845700  0.79187236  0.00265723  1
  Pd  Pd192  1  0.20472364  0.40439916  0.20803846  1
  Pd  Pd193  1  0.40846205  0.79175296  0.79162215  1
  Pd  Pd194  1  0.00039667  0.00754095  0.00087502  1
  Pd  Pd195  1  0.20655217  -0.00157335  0.40432882  1
  Pd  Pd196  1  0.80282377  0.40309293  -0.00112153  1
  Pd  Pd197  1  -0.00617145  0.80958245  0.80933800  1
  Pd  Pd198  1  0.40194664  0.00207872  0.59127937  1
  Pd  Pd199  1  0.20721657  0.60664376  0.59461841  1
  Rh  Rh200  1  0.18935920  -0.00529674  0.79685994  1
  Rh  Rh201  1  0.40861558  0.80634241  0.39425877  1
  Rh  Rh202  1  0.00796988  0.60922125  0.39566807  1
  Rh  Rh203  1  0.80649236  0.59723954  -0.00307331  1
  Rh  Rh204  1  0.19351551  0.80224069  0.80196077  1
  Rh  Rh205  1  0.19969631  0.59205508  0.80703255  1
  Rh  Rh206  1  -0.00143780  0.00471530  0.39483072  1
  Rh  Rh207  1  0.80295166  0.40871635  0.80461122  1
  Rh  Rh208  1  0.40057038  0.40457104  0.00844067  1
  Rh  Rh209  1  0.00424858  0.59697221  0.00224658  1
  Rh  Rh210  1  0.39253713  0.00295036  0.21506336  1
  Rh  Rh211  1  0.40570939  0.19415012  0.39042682  1
  Rh  Rh212  1  0.19246157  0.39766665  0.60321051  1
  Rh  Rh213  1  0.80048271  0.59712034  0.19858402  1
  Rh  Rh214  1  0.19067817  0.19888935  0.40897958  1
  Rh  Rh215  1  0.59688558  0.19731927  0.20359828  1
  Rh  Rh216  1  0.20006310  0.20706997  0.79764968  1
  Rh  Rh217  1  0.38639548  0.01008626  -0.01281750  1
  Rh  Rh218  1  -0.00571360  0.80443179  0.59942371  1
  Rh  Rh219  1  0.79490516  0.19296861  0.20657766  1
  Rh  Rh220  1  0.59012913  -0.00489231  0.40755203  1
  Rh  Rh221  1  0.01076407  0.20967100  0.59780077  1
  Rh  Rh222  1  0.59884565  0.80444632  0.19164238  1
  Rh  Rh223  1  -0.00363359  0.40025912  0.00277889  1
  Rh  Rh224  1  0.81006025  0.80066198  0.19459969  1
  Rh  Rh225  1  0.59491747  0.19525263  0.80665254  1
  Rh  Rh226  1  0.20540428  0.19443999  0.19242066  1
  Rh  Rh227  1  -0.01207043  0.38527309  0.41294409  1
  Rh  Rh228  1  0.19313272  0.80996223  0.19898194  1
  Rh  Rh229  1  0.79776210  0.20167385  0.00206540  1
  Rh  Rh230  1  0.40104932  0.39343052  0.79245218  1
  Rh  Rh231  1  0.19397545  0.79702197  0.40463115  1
  Rh  Rh232  1  0.80552172  -0.01111173  0.40239388  1
  Rh  Rh233  1  0.80540142  0.20444134  0.39491547  1
  Rh  Rh234  1  0.00603869  0.60386603  0.20314603  1
  Rh  Rh235  1  0.80321618  0.39826896  0.59145825  1
  Rh  Rh236  1  0.79204709  0.18841286  0.59799705  1
  Rh  Rh237  1  0.61129702  0.40238854  0.41021557  1
  Rh  Rh238  1  0.58369337  0.58307632  0.58741644  1
  Rh  Rh239  1  -0.00308686  0.40041221  0.19543392  1
  Rh  Rh240  1  0.59166988  0.60995045  -0.00250903  1
  Rh  Rh241  1  0.39139967  0.39432747  0.38800851  1
  Rh  Rh242  1  0.00321798  0.79979767  0.39096733  1
  Rh  Rh243  1  -0.01210347  0.59037183  0.79258450  1
  Rh  Rh244  1  0.39757970  0.79012542  0.60993473  1
  Rh  Rh245  1  -0.00442148  0.19655096  0.20834966  1
  Rh  Rh246  1  0.61091903  0.00020266  0.19779780  1
  Rh  Rh247  1  0.20444016  0.40064345  0.39375771  1
  Rh  Rh248  1  0.61281440  0.39643178  0.00197818  1
  Rh  Rh249  1  -0.00636903  0.20664646  -0.00712848  1
