# generated using pymatgen
data_ZrScNbPdRh
_symmetry_space_group_name_H-M   'P 1'
_cell_length_a   16.55384311
_cell_length_b   16.55304012
_cell_length_c   16.55327167
_cell_angle_alpha   89.99479057
_cell_angle_beta   90.01193014
_cell_angle_gamma   90.01693629
_symmetry_Int_Tables_number   1
_chemical_formula_structural   ZrScNbPdRh
_chemical_formula_sum   'Zr50 Sc50 Nb50 Pd50 Rh50'
_cell_volume   4535.86807698
_cell_formula_units_Z   50
loop_
 _symmetry_equiv_pos_site_id
 _symmetry_equiv_pos_as_xyz
  1  'x, y, z'
loop_
 _atom_site_type_symbol
 _atom_site_label
 _atom_site_symmetry_multiplicity
 _atom_site_fract_x
 _atom_site_fract_y
 _atom_site_fract_z
 _atom_site_occupancy
  Zr  Zr0  1  0.48857601  0.30434878  0.70200582  1
  Zr  Zr1  1  0.29736225  0.89339809  0.50143000  1
  Zr  Zr2  1  0.47875898  0.09981977  0.69664633  1
  Zr  Zr3  1  0.71076095  0.30011124  0.70038593  1
  Zr  Zr4  1  0.89588997  0.30186086  0.09846289  1
  Zr  Zr5  1  0.49643366  0.49242666  0.49994204  1
  Zr  Zr6  1  0.70209806  0.50363997  0.29472849  1
  Zr  Zr7  1  0.30313221  0.49810635  0.30574192  1
  Zr  Zr8  1  0.50713340  0.50552100  0.30310032  1
  Zr  Zr9  1  0.90180349  0.10323273  0.50008939  1
  Zr  Zr10  1  0.90009326  0.88571778  0.50438581  1
  Zr  Zr11  1  0.90217360  0.30398741  0.29589608  1
  Zr  Zr12  1  0.69331334  0.69742076  0.30457653  1
  Zr  Zr13  1  0.69579003  0.49934117  0.49664462  1
  Zr  Zr14  1  0.10006391  0.10354935  0.29487076  1
  Zr  Zr15  1  0.08915312  0.70596960  0.50239751  1
  Zr  Zr16  1  0.10741619  0.49310777  0.70784289  1
  Zr  Zr17  1  0.50219689  0.69643748  0.09594388  1
  Zr  Zr18  1  0.70365487  0.49424170  0.69942215  1
  Zr  Zr19  1  0.70235380  0.29635212  0.09637276  1
  Zr  Zr20  1  0.50060862  0.48961436  0.89945442  1
  Zr  Zr21  1  0.09716389  0.69876916  0.30251795  1
  Zr  Zr22  1  0.09924983  0.30408865  0.50780894  1
  Zr  Zr23  1  0.49473361  0.49611713  0.09496576  1
  Zr  Zr24  1  0.10057877  0.11352240  0.70640837  1
  Zr  Zr25  1  0.29410990  0.69231268  0.30682868  1
  Zr  Zr26  1  0.68283305  0.10123210  0.29886316  1
  Zr  Zr27  1  0.09737390  0.30129422  0.30362647  1
  Zr  Zr28  1  0.09868286  0.10821823  0.50143886  1
  Zr  Zr29  1  0.50583533  0.90047490  0.30363624  1
  Zr  Zr30  1  0.29867431  0.11097482  0.09698994  1
  Zr  Zr31  1  0.90080831  0.49827543  0.50128511  1
  Zr  Zr32  1  0.90082698  0.89991605  0.29103893  1
  Zr  Zr33  1  0.90133581  0.10681348  0.70446504  1
  Zr  Zr34  1  0.69819204  0.89541393  0.29917862  1
  Zr  Zr35  1  0.50164851  0.50026504  0.70029358  1
  Zr  Zr36  1  0.09962750  0.89014898  0.50126849  1
  Zr  Zr37  1  0.30065140  0.50533709  0.49612541  1
  Zr  Zr38  1  0.49073404  0.10003304  0.90482548  1
  Zr  Zr39  1  0.10185837  0.09595146  0.89680723  1
  Zr  Zr40  1  0.71318994  0.10188946  0.70339711  1
  Zr  Zr41  1  0.90220031  0.90041783  0.09369160  1
  Zr  Zr42  1  0.89650496  0.69747254  0.90171404  1
  Zr  Zr43  1  0.50330867  0.69629647  0.89835479  1
  Zr  Zr44  1  0.29411083  0.29734245  0.70108708  1
  Zr  Zr45  1  0.49371346  0.69752552  0.71108825  1
  Zr  Zr46  1  0.09023505  0.49145181  0.90368206  1
  Zr  Zr47  1  0.69809032  0.69721703  0.90272357  1
  Zr  Zr48  1  0.70374794  0.89857621  0.69902245  1
  Zr  Zr49  1  0.29961528  0.70190935  0.89509178  1
  Sc  Sc50  1  0.70055634  0.69851004  0.09493336  1
  Sc  Sc51  1  0.90194926  0.30905752  0.89929596  1
  Sc  Sc52  1  0.09837887  0.49572978  0.50198670  1
  Sc  Sc53  1  0.50328521  0.90068726  0.09187321  1
  Sc  Sc54  1  0.89916055  0.50117379  0.29488598  1
  Sc  Sc55  1  0.90045466  0.10129449  0.89502717  1
  Sc  Sc56  1  0.49344569  0.89823476  0.70431609  1
  Sc  Sc57  1  0.89768295  0.09814950  0.09625828  1
  Sc  Sc58  1  0.10337706  0.09914689  0.09581954  1
  Sc  Sc59  1  0.50003666  0.29008835  0.30120453  1
  Sc  Sc60  1  0.31632774  0.10158389  0.50496524  1
  Sc  Sc61  1  0.30602983  0.90716594  0.70541495  1
  Sc  Sc62  1  0.10909803  0.29911209  0.08781634  1
  Sc  Sc63  1  0.29311395  0.49475420  0.89423818  1
  Sc  Sc64  1  0.09330168  0.69817272  0.89769197  1
  Sc  Sc65  1  0.91434560  0.89985579  0.90341637  1
  Sc  Sc66  1  0.70292091  0.90040116  0.09791980  1
  Sc  Sc67  1  0.10293477  0.30173558  0.89146231  1
  Sc  Sc68  1  0.89799963  0.69778223  0.09205231  1
  Sc  Sc69  1  0.68679867  0.70037142  0.70085862  1
  Sc  Sc70  1  0.30109741  0.29595806  0.90522311  1
  Sc  Sc71  1  0.69210491  0.90142206  0.91029130  1
  Sc  Sc72  1  0.10285704  0.51247874  0.29987688  1
  Sc  Sc73  1  0.89916591  0.69478652  0.30228633  1
  Sc  Sc74  1  0.30434516  0.49620573  0.70169716  1
  Sc  Sc75  1  0.70731775  0.10612243  0.90572547  1
  Sc  Sc76  1  0.29690563  0.09829140  0.89907071  1
  Sc  Sc77  1  0.90677681  0.30311509  0.49432928  1
  Sc  Sc78  1  0.30559294  0.31152799  0.49794065  1
  Sc  Sc79  1  0.30559086  0.10993700  0.29702000  1
  Sc  Sc80  1  0.69857143  0.10012465  0.09613827  1
  Sc  Sc81  1  0.30250844  0.89823775  0.08533864  1
  Sc  Sc82  1  0.90494259  0.10851326  0.29322722  1
  Sc  Sc83  1  0.50690871  0.70572680  0.29755394  1
  Sc  Sc84  1  0.49255596  0.90279177  0.90094270  1
  Sc  Sc85  1  0.89978593  0.90321317  0.70566289  1
  Sc  Sc86  1  0.50321256  0.10141546  0.09922999  1
  Sc  Sc87  1  0.49253060  0.29848821  0.09134557  1
  Sc  Sc88  1  0.89701929  0.50063269  0.09113496  1
  Sc  Sc89  1  0.90618112  0.70185952  0.70452436  1
  Sc  Sc90  1  0.70178888  0.29532505  0.29651414  1
  Sc  Sc91  1  0.09495828  0.70638751  0.70297673  1
  Sc  Sc92  1  0.30796434  0.88669511  0.30825170  1
  Sc  Sc93  1  0.49527958  0.90257051  0.49809851  1
  Sc  Sc94  1  0.70239518  0.88613577  0.50393395  1
  Sc  Sc95  1  0.70245831  0.10525080  0.49519679  1
  Sc  Sc96  1  0.49586031  0.29742331  0.49620906  1
  Sc  Sc97  1  0.70304586  0.30286485  0.49707188  1
  Sc  Sc98  1  0.51096544  0.69328930  0.50439265  1
  Sc  Sc99  1  0.30276113  0.70106680  0.09671058  1
  Nb  Nb100  1  0.10637213  0.90815816  0.90321069  1
  Nb  Nb101  1  0.89831076  0.70021710  0.50872637  1
  Nb  Nb102  1  0.49896899  0.29803784  0.89630671  1
  Nb  Nb103  1  0.29642136  0.69763880  0.70645490  1
  Nb  Nb104  1  0.29979606  0.29773892  0.29518230  1
  Nb  Nb105  1  0.09992850  0.89883792  0.30054886  1
  Nb  Nb106  1  0.30178673  0.49460904  0.10190365  1
  Nb  Nb107  1  0.10131365  0.69038053  0.10961894  1
  Nb  Nb108  1  0.69571875  0.29856211  0.90059032  1
  Nb  Nb109  1  0.71063284  0.70075362  0.50447203  1
  Nb  Nb110  1  0.30122529  0.30115508  0.10615601  1
  Nb  Nb111  1  0.09798598  0.90785231  0.70875859  1
  Nb  Nb112  1  0.69919782  0.49647749  0.10238045  1
  Nb  Nb113  1  0.10251889  0.90041884  0.09338225  1
  Nb  Nb114  1  0.28992282  0.70216890  0.50252194  1
  Nb  Nb115  1  0.50266510  0.10191575  0.49764630  1
  Nb  Nb116  1  0.89552829  0.49409080  0.70545082  1
  Nb  Nb117  1  0.29911178  0.10035018  0.70102167  1
  Nb  Nb118  1  0.70398638  0.49966494  0.89997609  1
  Nb  Nb119  1  0.50264088  0.09797236  0.31194379  1
  Nb  Nb120  1  0.09886282  0.29834508  0.69937663  1
  Nb  Nb121  1  0.90518693  0.30157202  0.70222872  1
  Nb  Nb122  1  0.10178275  0.50298588  0.10385925  1
  Nb  Nb123  1  0.29174150  0.90491645  0.90089473  1
  Nb  Nb124  1  0.89648494  0.50659189  0.89285658  1
  Nb  Nb125  1  0.20419534  0.40103863  0.19745447  1
  Nb  Nb126  1  0.19805458  0.80973233  0.80466085  1
  Nb  Nb127  1  0.59690439  0.20137943  0.79883729  1
  Nb  Nb128  1  0.00767173  0.80022586  0.19408322  1
  Nb  Nb129  1  0.20268346  0.60753667  0.60315627  1
  Nb  Nb130  1  0.79760420  0.79855825  0.80700533  1
  Nb  Nb131  1  0.19438557  0.80289132  0.19609944  1
  Nb  Nb132  1  0.20351740  0.20183367  0.39937685  1
  Nb  Nb133  1  0.59556922  0.19409438  0.60673782  1
  Nb  Nb134  1  0.00535970  0.00079595  0.60027571  1
  Nb  Nb135  1  0.19598158  0.59485186  0.00522458  1
  Nb  Nb136  1  0.20463484  -0.00875754  0.20318321  1
  Nb  Nb137  1  0.39989701  -0.00036870  0.20366000  1
  Nb  Nb138  1  0.00076833  -0.00386314  0.40117204  1
  Nb  Nb139  1  0.80355137  0.60041817  0.59980698  1
  Nb  Nb140  1  0.19717373  0.00269327  0.60226377  1
  Nb  Nb141  1  0.59912325  0.01168291  0.79444370  1
  Nb  Nb142  1  0.60295481  0.40153182  0.19375043  1
  Nb  Nb143  1  0.59805175  0.00864444  0.60388718  1
  Nb  Nb144  1  0.00087640  0.20200835  -0.00472889  1
  Nb  Nb145  1  0.80467153  -0.00260848  0.39589378  1
  Nb  Nb146  1  0.00946538  0.40394351  0.19242263  1
  Nb  Nb147  1  0.19748054  0.00223551  0.39965038  1
  Nb  Nb148  1  0.40015774  0.59678611  0.19880313  1
  Nb  Nb149  1  0.39126652  0.78830575  0.60289122  1
  Pd  Pd150  1  0.59777766  0.38825343  0.59903817  1
  Pd  Pd151  1  0.80006732  0.40332045  -0.00617938  1
  Pd  Pd152  1  0.40471315  0.40078202  0.20767150  1
  Pd  Pd153  1  0.60292344  0.80276563  0.19036114  1
  Pd  Pd154  1  0.79989155  0.19604182  0.39251896  1
  Pd  Pd155  1  0.39511198  0.79971561  0.19624460  1
  Pd  Pd156  1  0.40338709  0.80151697  -0.00639549  1
  Pd  Pd157  1  0.00217924  0.59644271  0.79603416  1
  Pd  Pd158  1  0.00219146  0.59827994  0.00274710  1
  Pd  Pd159  1  0.79429868  0.00884616  0.20332099  1
  Pd  Pd160  1  0.79669635  -0.01072098  0.81348055  1
  Pd  Pd161  1  0.59321618  -0.00153763  0.19306259  1
  Pd  Pd162  1  0.40997089  0.60965056  0.39848544  1
  Pd  Pd163  1  0.00789172  0.20864234  0.18407799  1
  Pd  Pd164  1  0.39748882  0.59003699  0.80648897  1
  Pd  Pd165  1  0.80190268  0.60031651  0.40562099  1
  Pd  Pd166  1  0.61127782  -0.00760648  0.41371938  1
  Pd  Pd167  1  0.60186829  0.39731460  0.00305833  1
  Pd  Pd168  1  0.41020606  0.78625621  0.41025755  1
  Pd  Pd169  1  0.60143819  0.81200708  0.80572479  1
  Pd  Pd170  1  0.59785838  0.19791713  -0.00408474  1
  Pd  Pd171  1  0.19854429  0.39777030  0.39570631  1
  Pd  Pd172  1  -0.00059803  0.59625816  0.40245669  1
  Pd  Pd173  1  0.80041992  -0.00202502  0.58919291  1
  Pd  Pd174  1  0.19249059  0.78937598  -0.00141223  1
  Pd  Pd175  1  0.80279080  -0.00189758  -0.00610446  1
  Pd  Pd176  1  -0.00242178  0.40101821  0.60768568  1
  Pd  Pd177  1  0.00645907  -0.00287568  0.19599157  1
  Pd  Pd178  1  0.41108220  0.19366923  0.20041815  1
  Pd  Pd179  1  0.80231706  0.60530089  0.19272861  1
  Pd  Pd180  1  0.58770441  0.80679629  0.59928499  1
  Pd  Pd181  1  0.79460787  0.60868576  0.79053097  1
  Pd  Pd182  1  0.20258130  0.80278356  0.61684823  1
  Pd  Pd183  1  0.39180738  0.00323203  0.39403831  1
  Pd  Pd184  1  0.60468376  0.59251852  -0.00093238  1
  Pd  Pd185  1  0.80328797  0.20924400  0.59279682  1
  Pd  Pd186  1  0.38964725  0.59465768  -0.00259180  1
  Pd  Pd187  1  0.21186507  0.19827422  0.59185652  1
  Pd  Pd188  1  0.00159713  0.59463389  0.60958575  1
  Pd  Pd189  1  0.80406523  0.79040601  0.19527052  1
  Pd  Pd190  1  0.60337424  0.39570916  0.79887128  1
  Pd  Pd191  1  0.80073859  0.39661208  0.80837231  1
  Pd  Pd192  1  0.20386768  0.40267444  0.00133430  1
  Pd  Pd193  1  0.79581557  0.19233483  0.20068980  1
  Pd  Pd194  1  0.80107932  0.40093986  0.39503074  1
  Pd  Pd195  1  0.59971273  0.39058332  0.39004894  1
  Pd  Pd196  1  0.00826206  0.79511446  0.00292228  1
  Pd  Pd197  1  0.60543391  0.59704858  0.60056182  1
  Pd  Pd198  1  0.39312342  0.60325438  0.60095229  1
  Pd  Pd199  1  0.80357084  0.79883394  0.39380504  1
  Rh  Rh200  1  0.19390522  0.60753510  0.80210883  1
  Rh  Rh201  1  0.80758823  0.40199484  0.59757145  1
  Rh  Rh202  1  0.19645508  0.19833097  -0.00611956  1
  Rh  Rh203  1  0.39433040  0.39465549  -0.00614570  1
  Rh  Rh204  1  0.19735359  0.20577251  0.20339979  1
  Rh  Rh205  1  -0.00128761  0.00167688  0.79763043  1
  Rh  Rh206  1  0.80073916  0.21061385  0.80846097  1
  Rh  Rh207  1  0.20455316  0.00011586  0.79413220  1
  Rh  Rh208  1  0.39829844  -0.01014834  0.59595198  1
  Rh  Rh209  1  0.20196175  0.39286777  0.79890399  1
  Rh  Rh210  1  -0.00319351  0.20919030  0.80599634  1
  Rh  Rh211  1  0.80177994  0.78707176  0.61735659  1
  Rh  Rh212  1  -0.00297943  0.39989040  0.79510479  1
  Rh  Rh213  1  -0.01063379  0.59879407  0.19530066  1
  Rh  Rh214  1  0.59988949  0.20318375  0.40823814  1
  Rh  Rh215  1  0.19768705  0.79893199  0.39141654  1
  Rh  Rh216  1  0.00195025  0.00999108  0.00000519  1
  Rh  Rh217  1  0.59592646  0.79927943  0.00092034  1
  Rh  Rh218  1  -0.01041946  0.80009362  0.39022336  1
  Rh  Rh219  1  0.79547599  0.59132644  -0.00039267  1
  Rh  Rh220  1  0.39139060  0.80441146  0.80082293  1
  Rh  Rh221  1  0.39713096  0.00020641  0.80772888  1
  Rh  Rh222  1  0.39537159  0.20129040  0.80502146  1
  Rh  Rh223  1  0.00225657  0.80743945  0.80338160  1
  Rh  Rh224  1  -0.00111882  0.40765706  0.38956049  1
  Rh  Rh225  1  0.59948653  0.00538858  -0.00599950  1
  Rh  Rh226  1  0.39747115  0.40189165  0.59943354  1
  Rh  Rh227  1  0.59507347  0.59474895  0.19102619  1
  Rh  Rh228  1  0.79925863  0.40200287  0.19849106  1
  Rh  Rh229  1  0.60227234  0.58839806  0.80361920  1
  Rh  Rh230  1  0.80861059  0.20320549  -0.00498072  1
  Rh  Rh231  1  0.80013351  0.80379509  -0.00721657  1
  Rh  Rh232  1  0.60117130  0.79744402  0.40798333  1
  Rh  Rh233  1  0.20496392  0.20260757  0.80240803  1
  Rh  Rh234  1  0.00366667  0.20036467  0.40069943  1
  Rh  Rh235  1  0.39732401  0.20323532  -0.00081553  1
  Rh  Rh236  1  0.18674849  0.60307910  0.41591271  1
  Rh  Rh237  1  0.39418484  0.00289124  0.00576408  1
  Rh  Rh238  1  0.39421214  0.39805030  0.80534803  1
  Rh  Rh239  1  0.21508259  0.60000194  0.19205804  1
  Rh  Rh240  1  -0.00125637  0.39623880  0.00544672  1
  Rh  Rh241  1  0.59611382  0.20578765  0.19568440  1
  Rh  Rh242  1  0.60291571  0.60350403  0.40644903  1
  Rh  Rh243  1  0.40474225  0.39571981  0.39363548  1
  Rh  Rh244  1  -0.00459212  0.80748749  0.61422610  1
  Rh  Rh245  1  0.20374567  0.40805999  0.60270866  1
  Rh  Rh246  1  0.39540659  0.20236278  0.40092278  1
  Rh  Rh247  1  0.39940732  0.20757798  0.59515701  1
  Rh  Rh248  1  -0.00790214  0.20358505  0.60347588  1
  Rh  Rh249  1  0.20394054  0.00589698  0.00739218  1
