# generated using pymatgen
data_ZrScNbPdRh
_symmetry_space_group_name_H-M   'P 1'
_cell_length_a   16.56290850
_cell_length_b   16.55962361
_cell_length_c   16.56484923
_cell_angle_alpha   89.96933009
_cell_angle_beta   90.00334639
_cell_angle_gamma   89.99375505
_symmetry_Int_Tables_number   1
_chemical_formula_structural   ZrScNbPdRh
_chemical_formula_sum   'Zr50 Sc50 Nb50 Pd50 Rh50'
_cell_volume   4543.33212779
_cell_formula_units_Z   50
loop_
 _symmetry_equiv_pos_site_id
 _symmetry_equiv_pos_as_xyz
  1  'x, y, z'
loop_
 _atom_site_type_symbol
 _atom_site_label
 _atom_site_symmetry_multiplicity
 _atom_site_fract_x
 _atom_site_fract_y
 _atom_site_fract_z
 _atom_site_occupancy
  Zr  Zr0  1  0.30376891  0.91056088  0.50077425  1
  Zr  Zr1  1  0.30759727  0.70672558  0.89856975  1
  Zr  Zr2  1  0.70189324  0.08989728  0.29686952  1
  Zr  Zr3  1  0.49788531  0.50252230  0.89758598  1
  Zr  Zr4  1  0.49842239  0.89729445  0.10607953  1
  Zr  Zr5  1  0.10136168  0.89803197  0.90249739  1
  Zr  Zr6  1  0.30011603  0.50061121  0.10094221  1
  Zr  Zr7  1  0.90431281  0.90212526  0.89614843  1
  Zr  Zr8  1  0.50705505  0.69678739  0.89741591  1
  Zr  Zr9  1  0.90003391  0.90890348  0.70530685  1
  Zr  Zr10  1  0.10633078  0.10514398  0.48668719  1
  Zr  Zr11  1  0.70286492  0.09657426  0.51148162  1
  Zr  Zr12  1  0.29191530  0.29788391  0.50026431  1
  Zr  Zr13  1  0.70385230  0.30053874  0.28326310  1
  Zr  Zr14  1  0.30607569  0.89718793  0.08479868  1
  Zr  Zr15  1  0.89805046  0.89347951  0.29954766  1
  Zr  Zr16  1  0.90037698  0.69947426  0.48391324  1
  Zr  Zr17  1  0.50462158  0.30817640  0.50032841  1
  Zr  Zr18  1  0.90356705  0.29548203  0.90467867  1
  Zr  Zr19  1  0.50366532  0.30771270  0.29612525  1
  Zr  Zr20  1  0.50339129  0.08832483  0.49800272  1
  Zr  Zr21  1  0.50084333  0.29374307  0.10193849  1
  Zr  Zr22  1  0.30311764  0.30218635  0.28794264  1
  Zr  Zr23  1  0.89958959  0.50381239  0.09988125  1
  Zr  Zr24  1  0.88285836  0.29960393  0.10142209  1
  Zr  Zr25  1  0.50504589  0.29847073  0.89562270  1
  Zr  Zr26  1  0.50525502  0.50105837  0.69701261  1
  Zr  Zr27  1  0.29807651  0.50479839  0.28566165  1
  Zr  Zr28  1  0.70134088  0.09722998  0.69961964  1
  Zr  Zr29  1  0.29606005  0.89041514  0.69557735  1
  Zr  Zr30  1  0.49854145  0.09481588  0.08907752  1
  Zr  Zr31  1  0.29853729  0.29743536  0.69562774  1
  Zr  Zr32  1  0.09702940  0.29565311  0.08077664  1
  Zr  Zr33  1  0.09811440  0.90272304  0.09495745  1
  Zr  Zr34  1  0.29597668  0.11400511  0.10432232  1
  Zr  Zr35  1  0.69771139  0.89691638  0.30213770  1
  Zr  Zr36  1  0.10097958  0.50363020  0.29443757  1
  Zr  Zr37  1  0.30545864  0.90337948  0.29608199  1
  Zr  Zr38  1  0.70052749  0.70382454  0.30593200  1
  Zr  Zr39  1  0.90312932  0.70231760  0.29598373  1
  Zr  Zr40  1  0.09977030  0.09976269  0.09947942  1
  Zr  Zr41  1  0.70216739  0.10768642  0.09895260  1
  Zr  Zr42  1  0.70687494  0.91554130  0.10671580  1
  Zr  Zr43  1  0.69984447  0.29990073  0.50295969  1
  Zr  Zr44  1  0.09807417  0.90982082  0.29856858  1
  Zr  Zr45  1  0.08602510  0.49868783  0.50043197  1
  Zr  Zr46  1  0.69040306  0.50026006  0.29942300  1
  Zr  Zr47  1  0.30590110  0.69139994  0.10465672  1
  Zr  Zr48  1  0.50513315  0.50457067  0.50191642  1
  Zr  Zr49  1  0.91672072  0.09784823  0.31244895  1
  Sc  Sc50  1  0.11058409  0.29172848  0.70458866  1
  Sc  Sc51  1  0.10377584  0.50182144  0.09369056  1
  Sc  Sc52  1  0.50797742  0.70004382  0.50683479  1
  Sc  Sc53  1  0.10553165  0.30472239  0.50333607  1
  Sc  Sc54  1  0.50388938  0.30291135  0.70487821  1
  Sc  Sc55  1  0.28950068  0.29950217  0.89002295  1
  Sc  Sc56  1  0.50219297  0.51198762  0.09857650  1
  Sc  Sc57  1  0.50283198  0.89809497  0.50007497  1
  Sc  Sc58  1  0.49690715  0.08605304  0.29859146  1
  Sc  Sc59  1  0.90716774  0.69099468  0.71758457  1
  Sc  Sc60  1  0.28489564  0.70837362  0.50324252  1
  Sc  Sc61  1  0.09791155  0.69814060  0.30254461  1
  Sc  Sc62  1  0.30318696  0.10519402  0.90505256  1
  Sc  Sc63  1  0.69021057  0.50122107  0.49937700  1
  Sc  Sc64  1  0.09591923  0.69977919  0.89254347  1
  Sc  Sc65  1  0.70224503  0.30024698  0.90541957  1
  Sc  Sc66  1  0.09921531  0.30016895  0.31589627  1
  Sc  Sc67  1  0.09762774  0.11206830  0.90683875  1
  Sc  Sc68  1  0.48827998  0.89674314  0.91023444  1
  Sc  Sc69  1  0.50599271  0.10335690  0.70149627  1
  Sc  Sc70  1  0.70313906  0.29633115  0.70240141  1
  Sc  Sc71  1  0.29628884  0.49796362  0.50903573  1
  Sc  Sc72  1  0.50223675  0.88787027  0.69231131  1
  Sc  Sc73  1  0.49895224  0.69983822  0.09813703  1
  Sc  Sc74  1  0.70122808  0.49209868  0.09698904  1
  Sc  Sc75  1  0.09047140  0.69595890  0.09768975  1
  Sc  Sc76  1  0.69687188  0.70819395  0.71343751  1
  Sc  Sc77  1  0.70062116  0.10200588  0.90420625  1
  Sc  Sc78  1  0.09572349  0.70097294  0.49235690  1
  Sc  Sc79  1  0.09612169  0.89546665  0.70608490  1
  Sc  Sc80  1  0.91142574  0.30782708  0.49905579  1
  Sc  Sc81  1  0.88788276  0.50363926  0.90352370  1
  Sc  Sc82  1  0.89207948  0.09529101  0.70060053  1
  Sc  Sc83  1  0.69757558  0.70065204  0.49503888  1
  Sc  Sc84  1  0.29463428  0.50622652  0.90004750  1
  Sc  Sc85  1  0.69511879  0.50367470  0.90284340  1
  Sc  Sc86  1  0.50558246  0.89889980  0.29832422  1
  Sc  Sc87  1  0.90209746  0.09699263  0.89655289  1
  Sc  Sc88  1  0.70219139  0.89685590  0.70156930  1
  Sc  Sc89  1  0.30650213  0.50221045  0.70500020  1
  Sc  Sc90  1  0.90560253  0.50333494  0.30614441  1
  Sc  Sc91  1  0.50177941  0.10659061  0.90097190  1
  Sc  Sc92  1  0.49752886  0.69797805  0.70371049  1
  Sc  Sc93  1  0.69103995  0.69407744  0.10519944  1
  Sc  Sc94  1  0.69104646  0.89553906  0.50340517  1
  Sc  Sc95  1  0.10791887  0.89582688  0.50500667  1
  Sc  Sc96  1  0.09642164  0.09691221  0.70491134  1
  Sc  Sc97  1  0.29896963  0.70280929  0.70635352  1
  Sc  Sc98  1  0.29290140  0.10208523  0.69306402  1
  Sc  Sc99  1  0.50768540  0.70301164  0.28610105  1
  Nb  Nb100  1  0.70381688  0.70875853  0.89997786  1
  Nb  Nb101  1  0.10007762  0.48767310  0.89625454  1
  Nb  Nb102  1  0.70085510  0.29639520  0.10023781  1
  Nb  Nb103  1  0.89947907  0.69924657  0.09942501  1
  Nb  Nb104  1  0.09372308  0.69714937  0.70056766  1
  Nb  Nb105  1  0.90308040  0.49613400  0.69397279  1
  Nb  Nb106  1  0.90199677  0.89979701  0.09921869  1
  Nb  Nb107  1  0.09612134  0.30358503  0.89566675  1
  Nb  Nb108  1  0.49984204  0.50274895  0.30602928  1
  Nb  Nb109  1  0.90156557  0.50068066  0.50673263  1
  Nb  Nb110  1  0.89935076  0.89964672  0.50445503  1
  Nb  Nb111  1  0.70454368  0.89278234  0.89302574  1
  Nb  Nb112  1  0.71180123  0.49536459  0.69785966  1
  Nb  Nb113  1  0.88956771  0.70332846  0.90704474  1
  Nb  Nb114  1  0.30640529  0.30485199  0.10250460  1
  Nb  Nb115  1  0.89952893  0.09956579  0.50819127  1
  Nb  Nb116  1  0.89829015  0.30250778  0.70032605  1
  Nb  Nb117  1  0.10668137  0.10133655  0.29783171  1
  Nb  Nb118  1  0.30312511  0.09930228  0.49375262  1
  Nb  Nb119  1  0.29808320  0.69848559  0.29715661  1
  Nb  Nb120  1  0.28790365  0.09996447  0.30900947  1
  Nb  Nb121  1  0.29861131  0.89545907  0.89606787  1
  Nb  Nb122  1  0.89760488  0.09363553  0.09667904  1
  Nb  Nb123  1  0.08345111  0.51382891  0.70308037  1
  Nb  Nb124  1  0.90039284  0.30032920  0.30010527  1
  Nb  Nb125  1  0.20632124  -0.00519846  0.80570893  1
  Nb  Nb126  1  0.18604635  0.59993078  0.60881683  1
  Nb  Nb127  1  0.80269671  0.19987232  0.40234427  1
  Nb  Nb128  1  0.80503965  0.00085617  0.40814128  1
  Nb  Nb129  1  -0.00345387  0.39139771  0.19907716  1
  Nb  Nb130  1  0.80316806  0.60298706  0.20221035  1
  Nb  Nb131  1  0.80737741  0.59762385  0.60295740  1
  Nb  Nb132  1  -0.00049565  0.40177206  0.79895528  1
  Nb  Nb133  1  0.80204073  0.80125425  0.00325250  1
  Nb  Nb134  1  0.39968093  0.19828684  0.58938083  1
  Nb  Nb135  1  0.39880387  0.39648705  0.00233480  1
  Nb  Nb136  1  0.60270921  0.19852951  0.39782910  1
  Nb  Nb137  1  0.40060084  0.20008540  0.40032412  1
  Nb  Nb138  1  0.80075276  0.39704267  0.39788352  1
  Nb  Nb139  1  -0.00828051  0.79645336  0.60181675  1
  Nb  Nb140  1  0.61090073  0.80427954  -0.00362736  1
  Nb  Nb141  1  0.39770670  0.60290162  0.39679503  1
  Nb  Nb142  1  0.59704093  -0.00769266  0.80548056  1
  Nb  Nb143  1  0.39621716  0.79245972  0.39464462  1
  Nb  Nb144  1  -0.00384996  0.19753678  0.59897335  1
  Nb  Nb145  1  -0.00021221  0.20052119  0.20111108  1
  Nb  Nb146  1  0.81030394  0.79276470  0.60167066  1
  Nb  Nb147  1  0.39670137  -0.00540702  0.79939066  1
  Nb  Nb148  1  0.20394063  0.80049543  0.19783229  1
  Nb  Nb149  1  0.40064954  0.40498743  0.39592295  1
  Pd  Pd150  1  0.79604616  0.59825683  0.79530239  1
  Pd  Pd151  1  0.00870955  0.00122582  0.59694555  1
  Pd  Pd152  1  0.18960244  0.41307618  0.61352394  1
  Pd  Pd153  1  -0.00469624  0.00414079  0.19565648  1
  Pd  Pd154  1  0.39618857  0.19229204  0.78970627  1
  Pd  Pd155  1  0.20789575  0.40916500  0.39751561  1
  Pd  Pd156  1  0.79905689  0.19810483  0.80301717  1
  Pd  Pd157  1  -0.00699559  0.59292216  0.81761193  1
  Pd  Pd158  1  0.39176730  0.00760974  0.19615454  1
  Pd  Pd159  1  0.59236151  0.20239642  0.59940948  1
  Pd  Pd160  1  0.39632611  0.40056473  0.80669277  1
  Pd  Pd161  1  0.20377943  0.59358096  0.40889972  1
  Pd  Pd162  1  0.39913952  0.79079869  0.59002642  1
  Pd  Pd163  1  0.61508414  0.60587354  0.61071321  1
  Pd  Pd164  1  0.80366527  0.39885244  0.80640058  1
  Pd  Pd165  1  0.59397818  0.39773903  0.00348843  1
  Pd  Pd166  1  0.20817297  -0.00481719  0.19229404  1
  Pd  Pd167  1  0.80318870  -0.00174231  -0.00744488  1
  Pd  Pd168  1  0.40587477  0.18863579  0.20936650  1
  Pd  Pd169  1  0.20196212  0.80668605  0.39090426  1
  Pd  Pd170  1  0.81182489  0.18550825  0.20753338  1
  Pd  Pd171  1  0.79427093  0.79396210  0.19072828  1
  Pd  Pd172  1  0.38750836  0.60998090  0.59376278  1
  Pd  Pd173  1  0.00303525  0.59658814  -0.00963328  1
  Pd  Pd174  1  0.79687081  0.58792787  0.40063963  1
  Pd  Pd175  1  0.40539355  0.00542877  0.61149203  1
  Pd  Pd176  1  0.19214790  0.00387290  0.60555791  1
  Pd  Pd177  1  0.00957034  0.79894465  0.19830403  1
  Pd  Pd178  1  0.78958078  0.60586785  0.00814745  1
  Pd  Pd179  1  -0.00514360  0.79753090  -0.00234581  1
  Pd  Pd180  1  0.18813304  0.21206001  0.20259894  1
  Pd  Pd181  1  0.00206216  -0.00837787  0.41287752  1
  Pd  Pd182  1  0.19523085  0.60573614  -0.00611367  1
  Pd  Pd183  1  0.59192813  0.18884669  0.20349383  1
  Pd  Pd184  1  0.39600150  0.21050175  -0.00624251  1
  Pd  Pd185  1  -0.00241606  0.20254635  0.79132479  1
  Pd  Pd186  1  0.40061290  0.39646606  0.59795486  1
  Pd  Pd187  1  0.20974915  0.39593386  -0.00200247  1
  Pd  Pd188  1  0.60867054  0.59559837  0.79522569  1
  Pd  Pd189  1  0.79753942  0.40074128  0.59207433  1
  Pd  Pd190  1  0.59338840  0.40773660  0.18785955  1
  Pd  Pd191  1  0.60062587  -0.00731100  -0.00831934  1
  Pd  Pd192  1  -0.00756240  0.40544944  -0.00120128  1
  Pd  Pd193  1  0.20320793  0.00796348  -0.00582274  1
  Pd  Pd194  1  0.19998046  0.60195479  0.79840567  1
  Pd  Pd195  1  0.19516839  0.40714676  0.78947106  1
  Pd  Pd196  1  0.61041548  0.40177779  0.79646560  1
  Pd  Pd197  1  0.01007406  0.38787198  0.61287419  1
  Pd  Pd198  1  0.18382271  0.38992617  0.19343720  1
  Pd  Pd199  1  0.19832391  0.78740324  0.00503673  1
  Rh  Rh200  1  0.81377177  0.00325377  0.21001002  1
  Rh  Rh201  1  0.81161948  0.79975734  0.79808412  1
  Rh  Rh202  1  0.58829793  0.79742227  0.39915836  1
  Rh  Rh203  1  0.39441871  0.79690421  0.20321349  1
  Rh  Rh204  1  -0.00498874  0.61202647  0.59315374  1
  Rh  Rh205  1  0.19858469  -0.00500145  0.40051309  1
  Rh  Rh206  1  0.40947115  0.59918532  0.20528252  1
  Rh  Rh207  1  -0.00327489  0.59479569  0.19875855  1
  Rh  Rh208  1  0.40943102  0.41083501  0.19411014  1
  Rh  Rh209  1  0.60415921  0.60696772  -0.00272774  1
  Rh  Rh210  1  0.19894927  0.18994045  0.80431404  1
  Rh  Rh211  1  0.80116956  0.19700955  -0.00286873  1
  Rh  Rh212  1  0.61063208  0.79279595  0.60348386  1
  Rh  Rh213  1  0.59548524  0.00222790  0.19453279  1
  Rh  Rh214  1  0.20589740  0.20768001  -0.00370505  1
  Rh  Rh215  1  0.59982563  -0.00752740  0.61316275  1
  Rh  Rh216  1  0.19673677  0.19148559  0.59636760  1
  Rh  Rh217  1  -0.00100119  0.20421847  0.40629636  1
  Rh  Rh218  1  0.01326008  0.00379012  0.80937329  1
  Rh  Rh219  1  0.40671737  0.79097966  0.00056835  1
  Rh  Rh220  1  0.78928705  0.00418873  0.80374148  1
  Rh  Rh221  1  0.60514767  0.39252270  0.39626309  1
  Rh  Rh222  1  0.40489868  0.80432980  0.79873564  1
  Rh  Rh223  1  -0.00450418  0.40356289  0.39495396  1
  Rh  Rh224  1  0.40058624  0.60004394  0.80001638  1
  Rh  Rh225  1  0.80757496  0.41448964  0.20657436  1
  Rh  Rh226  1  0.19495908  0.80055607  0.79795181  1
  Rh  Rh227  1  0.60420909  0.20474519  0.00015789  1
  Rh  Rh228  1  0.58911464  0.80842411  0.80805372  1
  Rh  Rh229  1  0.58973133  0.61006131  0.39560253  1
  Rh  Rh230  1  0.60387673  0.59663799  0.20058437  1
  Rh  Rh231  1  0.60884445  0.00066972  0.40256629  1
  Rh  Rh232  1  0.60632783  0.19398196  0.80347232  1
  Rh  Rh233  1  0.39936567  0.59516465  -0.00515037  1
  Rh  Rh234  1  0.81357367  0.21140092  0.59697471  1
  Rh  Rh235  1  0.79523981  -0.01365078  0.59730403  1
  Rh  Rh236  1  -0.01068778  0.19405174  0.00640768  1
  Rh  Rh237  1  0.60651688  0.40129251  0.61221474  1
  Rh  Rh238  1  0.39925634  -0.00448350  0.39624944  1
  Rh  Rh239  1  0.00214843  0.59620787  0.39773070  1
  Rh  Rh240  1  0.18915311  0.61148102  0.19371719  1
  Rh  Rh241  1  0.79665451  0.81147147  0.40972602  1
  Rh  Rh242  1  -0.00172699  0.00305707  -0.00087567  1
  Rh  Rh243  1  0.79559987  0.39873543  -0.00257639  1
  Rh  Rh244  1  0.39511763  0.00465294  -0.00535397  1
  Rh  Rh245  1  0.60701339  0.80561777  0.19085686  1
  Rh  Rh246  1  -0.00414373  0.79876299  0.79979041  1
  Rh  Rh247  1  0.20541687  0.20539376  0.39627215  1
  Rh  Rh248  1  0.18655202  0.79025698  0.60787070  1
  Rh  Rh249  1  0.00655730  0.80867195  0.40317232  1
