# generated using pymatgen
data_ZrScNbPdRh
_symmetry_space_group_name_H-M   'P 1'
_cell_length_a   16.55445500
_cell_length_b   16.55520141
_cell_length_c   16.55501392
_cell_angle_alpha   89.98940077
_cell_angle_beta   90.00395788
_cell_angle_gamma   90.05927050
_symmetry_Int_Tables_number   1
_chemical_formula_structural   ZrScNbPdRh
_chemical_formula_sum   'Zr50 Sc50 Nb50 Pd50 Rh50'
_cell_volume   4537.10328572
_cell_formula_units_Z   50
loop_
 _symmetry_equiv_pos_site_id
 _symmetry_equiv_pos_as_xyz
  1  'x, y, z'
loop_
 _atom_site_type_symbol
 _atom_site_label
 _atom_site_symmetry_multiplicity
 _atom_site_fract_x
 _atom_site_fract_y
 _atom_site_fract_z
 _atom_site_occupancy
  Zr  Zr0  1  0.90212009  0.09890970  0.29453918  1
  Zr  Zr1  1  0.29446061  0.09654962  0.90199822  1
  Zr  Zr2  1  0.30832332  0.30439124  0.50311493  1
  Zr  Zr3  1  0.09848671  0.50042563  0.11246613  1
  Zr  Zr4  1  0.50444225  0.89707872  0.49739619  1
  Zr  Zr5  1  0.90375151  0.50220713  0.30317732  1
  Zr  Zr6  1  0.50302114  0.90136084  0.70836967  1
  Zr  Zr7  1  0.30521547  0.70248428  0.70069880  1
  Zr  Zr8  1  0.69405776  0.70205709  0.31062897  1
  Zr  Zr9  1  0.69957389  0.49882720  0.30500655  1
  Zr  Zr10  1  0.30781700  0.11163866  0.29447890  1
  Zr  Zr11  1  0.69414617  0.09415277  0.70478099  1
  Zr  Zr12  1  0.69096476  0.10971495  0.90284906  1
  Zr  Zr13  1  0.90389224  0.30595928  0.69970239  1
  Zr  Zr14  1  0.09646202  0.08941101  0.70257652  1
  Zr  Zr15  1  0.30274334  0.89454432  0.70265806  1
  Zr  Zr16  1  0.69998994  0.29290329  0.09167045  1
  Zr  Zr17  1  0.49486368  0.50093653  0.09676898  1
  Zr  Zr18  1  0.89073315  0.30168027  0.90512078  1
  Zr  Zr19  1  0.89436866  0.29491117  0.10199260  1
  Zr  Zr20  1  0.10257906  0.30833488  0.29452623  1
  Zr  Zr21  1  0.49795041  0.10507036  0.49609843  1
  Zr  Zr22  1  0.10127393  0.69671124  0.30980779  1
  Zr  Zr23  1  0.49941747  0.49706981  0.90463911  1
  Zr  Zr24  1  0.89521236  0.49945732  0.89588373  1
  Zr  Zr25  1  0.50102415  0.69978582  0.69628996  1
  Zr  Zr26  1  0.69556020  0.89373727  0.69542527  1
  Zr  Zr27  1  0.70222982  0.10226399  0.49130286  1
  Zr  Zr28  1  0.10007650  0.91223584  0.89138645  1
  Zr  Zr29  1  0.50122885  0.70186304  0.09209303  1
  Zr  Zr30  1  0.69941846  0.48813937  0.10347833  1
  Zr  Zr31  1  0.90713628  0.89609334  0.49368625  1
  Zr  Zr32  1  0.50584655  0.50088581  0.70273134  1
  Zr  Zr33  1  0.70463192  0.10160917  0.30022634  1
  Zr  Zr34  1  0.90062722  0.10624516  0.49403843  1
  Zr  Zr35  1  0.30154702  0.69904460  0.89728291  1
  Zr  Zr36  1  0.29957104  0.90384397  0.89849282  1
  Zr  Zr37  1  0.69571877  0.49867903  0.49832388  1
  Zr  Zr38  1  0.10398988  0.89964576  0.69988238  1
  Zr  Zr39  1  0.69520277  0.50849780  0.69701175  1
  Zr  Zr40  1  0.30345120  0.50024299  0.09620451  1
  Zr  Zr41  1  0.10002642  0.49458445  0.70303357  1
  Zr  Zr42  1  0.31486372  0.10661927  0.70036413  1
  Zr  Zr43  1  0.10380404  0.69630608  0.70414252  1
  Zr  Zr44  1  0.10974261  0.90189858  0.49525736  1
  Zr  Zr45  1  0.89534140  0.50111569  0.49869235  1
  Zr  Zr46  1  0.30302176  0.71049349  0.49569627  1
  Zr  Zr47  1  0.50001369  0.69789776  0.49358080  1
  Zr  Zr48  1  0.69841525  0.89941158  0.30188755  1
  Zr  Zr49  1  0.69352634  0.29759070  0.30411463  1
  Sc  Sc50  1  0.30143933  0.09466102  0.49144585  1
  Sc  Sc51  1  0.29973045  0.50225882  0.90406420  1
  Sc  Sc52  1  0.90558262  0.90140597  0.70999134  1
  Sc  Sc53  1  0.29174587  0.70420842  0.09419310  1
  Sc  Sc54  1  0.29602325  0.90181185  0.31118731  1
  Sc  Sc55  1  0.11313667  0.69591128  0.89882483  1
  Sc  Sc56  1  0.70291660  0.70666758  0.09862215  1
  Sc  Sc57  1  0.10962040  0.89783886  0.10210419  1
  Sc  Sc58  1  0.09526768  0.50350724  0.48620849  1
  Sc  Sc59  1  0.49971993  0.09789973  0.30223669  1
  Sc  Sc60  1  0.89330355  0.30048668  0.49811920  1
  Sc  Sc61  1  0.30171198  0.49126408  0.50109279  1
  Sc  Sc62  1  0.90286658  0.90523968  0.29518497  1
  Sc  Sc63  1  0.09269404  0.10325631  0.29618131  1
  Sc  Sc64  1  0.89949599  0.09783842  0.10592776  1
  Sc  Sc65  1  0.09620596  0.10463443  0.09737145  1
  Sc  Sc66  1  0.09951887  0.09010463  0.49390770  1
  Sc  Sc67  1  0.69683605  0.30555931  0.69887956  1
  Sc  Sc68  1  0.50025088  0.10181055  0.88287039  1
  Sc  Sc69  1  0.29701784  0.29898657  0.11110089  1
  Sc  Sc70  1  0.50158244  0.69539873  0.89657655  1
  Sc  Sc71  1  0.09971828  0.30274635  0.90609797  1
  Sc  Sc72  1  0.49774489  0.30560827  0.49635692  1
  Sc  Sc73  1  0.89477441  0.89599110  0.90314146  1
  Sc  Sc74  1  0.89528447  0.70454929  0.89463743  1
  Sc  Sc75  1  0.89779685  0.50093622  0.69925263  1
  Sc  Sc76  1  0.69976798  0.89822413  0.89950914  1
  Sc  Sc77  1  0.49314527  0.28897467  0.69701168  1
  Sc  Sc78  1  0.09600846  0.90652747  0.30386106  1
  Sc  Sc79  1  0.70643133  0.10123710  0.10020559  1
  Sc  Sc80  1  0.49156302  0.30233431  0.30469286  1
  Sc  Sc81  1  0.49834862  0.49773519  0.49806151  1
  Sc  Sc82  1  0.11043429  0.50279574  0.89699606  1
  Sc  Sc83  1  0.89656545  0.69560802  0.49615302  1
  Sc  Sc84  1  0.29524239  0.30438624  0.90837545  1
  Sc  Sc85  1  0.69704352  0.70573067  0.90390648  1
  Sc  Sc86  1  0.69953684  0.89517209  0.10098914  1
  Sc  Sc87  1  0.89607953  0.49944607  0.11802779  1
  Sc  Sc88  1  0.89717964  0.69341976  0.30156526  1
  Sc  Sc89  1  0.69303818  0.49633827  0.89342385  1
  Sc  Sc90  1  0.10263223  0.29970925  0.10736189  1
  Sc  Sc91  1  0.30467676  0.49359284  0.30134133  1
  Sc  Sc92  1  0.09327558  0.30847391  0.49133153  1
  Sc  Sc93  1  0.90860477  0.29143272  0.30227761  1
  Sc  Sc94  1  0.90391005  0.09019572  0.90835058  1
  Sc  Sc95  1  0.29646409  0.49266938  0.69660483  1
  Sc  Sc96  1  0.50110335  0.30820014  0.09482291  1
  Sc  Sc97  1  0.89644345  0.69234305  0.69879002  1
  Sc  Sc98  1  0.69339086  0.30095004  0.90451260  1
  Sc  Sc99  1  0.89349208  0.90440684  0.10155705  1
  Nb  Nb100  1  0.29645407  0.29910193  0.30326507  1
  Nb  Nb101  1  0.30433702  0.69929348  0.29715481  1
  Nb  Nb102  1  0.70464559  0.89177340  0.50140845  1
  Nb  Nb103  1  0.30763342  0.09952745  0.10351515  1
  Nb  Nb104  1  0.29643185  0.30319114  0.69621405  1
  Nb  Nb105  1  0.50955915  0.89235082  0.29412994  1
  Nb  Nb106  1  0.69386243  0.29674023  0.49422279  1
  Nb  Nb107  1  0.49738386  0.90526067  0.10371661  1
  Nb  Nb108  1  0.89725616  0.10181301  0.69566664  1
  Nb  Nb109  1  0.90281455  0.69879264  0.10041891  1
  Nb  Nb110  1  0.50192944  0.50919050  0.30177142  1
  Nb  Nb111  1  0.10345515  0.30139685  0.70260572  1
  Nb  Nb112  1  0.10133838  0.10222938  0.89512079  1
  Nb  Nb113  1  0.30307243  0.90307220  0.50619827  1
  Nb  Nb114  1  0.50501578  0.29635695  0.90097390  1
  Nb  Nb115  1  0.10209020  0.69787231  0.10295266  1
  Nb  Nb116  1  0.50044053  0.89736838  0.90200576  1
  Nb  Nb117  1  0.09895962  0.70126757  0.49791326  1
  Nb  Nb118  1  0.69551916  0.69674921  0.68648740  1
  Nb  Nb119  1  0.30542403  0.90716570  0.10012378  1
  Nb  Nb120  1  0.49142666  0.09777824  0.10631137  1
  Nb  Nb121  1  0.50426153  0.09861477  0.69640871  1
  Nb  Nb122  1  0.09769257  0.49748879  0.29950269  1
  Nb  Nb123  1  0.49586571  0.69773429  0.30117952  1
  Nb  Nb124  1  0.70053961  0.70578775  0.50801025  1
  Nb  Nb125  1  0.19572420  0.20218338  0.79473429  1
  Nb  Nb126  1  0.19671947  0.20421567  0.60063892  1
  Nb  Nb127  1  0.60243934  0.19623378  0.59532554  1
  Nb  Nb128  1  -0.00261797  0.60125905  0.00591604  1
  Nb  Nb129  1  0.79835835  -0.00334609  0.59651870  1
  Nb  Nb130  1  0.00813568  0.79675258  0.59642608  1
  Nb  Nb131  1  0.40073625  0.39295511  0.80107238  1
  Nb  Nb132  1  0.00497258  0.20050765  0.60623198  1
  Nb  Nb133  1  0.59400882  0.59977892  0.20461639  1
  Nb  Nb134  1  0.58852547  0.00029128  0.00477387  1
  Nb  Nb135  1  0.40042292  0.80306803  0.20113596  1
  Nb  Nb136  1  0.40157479  0.81161016  0.00448846  1
  Nb  Nb137  1  0.59512320  0.19935304  0.19577020  1
  Nb  Nb138  1  0.20233098  0.20647369  0.39988014  1
  Nb  Nb139  1  0.00341953  0.79215977  0.19486024  1
  Nb  Nb140  1  0.00436392  0.79292609  0.00523710  1
  Nb  Nb141  1  -0.00549556  0.40824973  0.00512596  1
  Nb  Nb142  1  0.40491621  -0.00296427  0.59953388  1
  Nb  Nb143  1  0.20107829  0.60306464  0.20817844  1
  Nb  Nb144  1  0.80614360  0.19684476  0.79659664  1
  Nb  Nb145  1  0.40217366  0.19421119  0.00352697  1
  Nb  Nb146  1  -0.00015699  0.19774403  0.79813572  1
  Nb  Nb147  1  0.80552886  0.59761046  0.00361144  1
  Nb  Nb148  1  0.21053613  0.00489441  0.19611322  1
  Nb  Nb149  1  0.19621489  0.60531155  0.59384747  1
  Pd  Pd150  1  0.39739985  0.60751057  0.19440206  1
  Pd  Pd151  1  0.80332797  0.38881144  0.21090265  1
  Pd  Pd152  1  0.40682764  0.00430040  -0.00941459  1
  Pd  Pd153  1  0.79035175  0.60644530  0.80481499  1
  Pd  Pd154  1  0.39725239  -0.00882582  0.21544238  1
  Pd  Pd155  1  0.60287637  0.79445739  0.80157589  1
  Pd  Pd156  1  0.80769640  0.79931916  0.20527874  1
  Pd  Pd157  1  -0.00171848  0.20500757  -0.00213484  1
  Pd  Pd158  1  0.39291763  0.59403815  0.59631057  1
  Pd  Pd159  1  0.39244292  0.59409263  0.40380234  1
  Pd  Pd160  1  0.40290712  0.80799668  0.39265029  1
  Pd  Pd161  1  0.00165812  0.60210969  0.80924369  1
  Pd  Pd162  1  0.80299487  0.39278772  0.39535380  1
  Pd  Pd163  1  0.19911981  0.80546337  -0.00527301  1
  Pd  Pd164  1  0.00360164  0.79401887  0.80279749  1
  Pd  Pd165  1  0.40092769  0.39688045  0.20285977  1
  Pd  Pd166  1  0.80641369  0.79863138  0.39322964  1
  Pd  Pd167  1  0.19362650  0.00424601  0.00898159  1
  Pd  Pd168  1  -0.00786896  -0.00363845  0.59731305  1
  Pd  Pd169  1  0.00243177  0.39971529  0.59377299  1
  Pd  Pd170  1  0.79471728  0.40154149  0.59970605  1
  Pd  Pd171  1  0.20171213  0.80343662  0.20804703  1
  Pd  Pd172  1  0.21067211  0.59403134  0.40086223  1
  Pd  Pd173  1  0.19700505  0.79513302  0.59899976  1
  Pd  Pd174  1  0.40388279  -0.00720714  0.39738507  1
  Pd  Pd175  1  0.20416596  0.19940123  0.00168769  1
  Pd  Pd176  1  0.80168812  0.00276758  0.79905380  1
  Pd  Pd177  1  0.00433232  -0.00997972  0.00693118  1
  Pd  Pd178  1  0.59723148  0.79205860  0.19598335  1
  Pd  Pd179  1  0.19297141  0.40243176  0.00546481  1
  Pd  Pd180  1  0.60052185  -0.00313737  0.39918586  1
  Pd  Pd181  1  0.78911070  -0.00009848  0.00053991  1
  Pd  Pd182  1  0.21245380  0.00921455  0.60378669  1
  Pd  Pd183  1  0.39678912  0.58874427  0.79936007  1
  Pd  Pd184  1  0.61258971  0.59559914  0.00477728  1
  Pd  Pd185  1  0.81502640  0.80460656  0.60741249  1
  Pd  Pd186  1  0.60591186  0.00755268  0.19552495  1
  Pd  Pd187  1  0.78979290  0.39605345  0.79748502  1
  Pd  Pd188  1  0.60132484  0.00241889  0.59207308  1
  Pd  Pd189  1  0.00338665  0.60217161  0.59714972  1
  Pd  Pd190  1  0.59137751  0.39811671  0.20496270  1
  Pd  Pd191  1  0.20134734  0.80291332  0.39613357  1
  Pd  Pd192  1  0.18962262  0.40317644  0.59007197  1
  Pd  Pd193  1  0.79543562  0.19829262  0.60348075  1
  Pd  Pd194  1  0.78746887  0.60517548  0.19749648  1
  Pd  Pd195  1  0.39240753  0.20945321  0.81114036  1
  Pd  Pd196  1  0.59417651  0.39079365  0.59956517  1
  Pd  Pd197  1  0.79354546  0.79412736  0.79274174  1
  Pd  Pd198  1  0.80435150  -0.00479649  0.40152612  1
  Pd  Pd199  1  0.00478011  0.39802106  0.81096181  1
  Rh  Rh200  1  -0.00633720  0.39374923  0.19865568  1
  Rh  Rh201  1  0.39519509  0.20550052  0.40224430  1
  Rh  Rh202  1  0.40222692  0.40430385  0.39514219  1
  Rh  Rh203  1  0.59339156  0.20353324  0.39772570  1
  Rh  Rh204  1  0.40113689  0.19594562  0.59212036  1
  Rh  Rh205  1  0.59505995  0.81043524  0.00187511  1
  Rh  Rh206  1  0.19711776  0.19229183  0.20572168  1
  Rh  Rh207  1  0.19694002  0.59349665  0.00955931  1
  Rh  Rh208  1  0.40756751  0.80764880  0.59882160  1
  Rh  Rh209  1  0.60165920  0.60121307  0.40214554  1
  Rh  Rh210  1  0.00836768  0.19922550  0.40744449  1
  Rh  Rh211  1  0.59352322  0.40252085  0.39807077  1
  Rh  Rh212  1  0.59406608  0.79668650  0.59665016  1
  Rh  Rh213  1  0.40259607  -0.00157298  0.79666212  1
  Rh  Rh214  1  0.00789081  0.60553813  0.20553912  1
  Rh  Rh215  1  0.58981408  0.39279157  0.79871036  1
  Rh  Rh216  1  0.20814187  0.00590334  0.79199823  1
  Rh  Rh217  1  0.80349808  0.20587925  0.39406384  1
  Rh  Rh218  1  -0.00137647  0.79742120  0.39741485  1
  Rh  Rh219  1  0.60065601  0.40343312  -0.00256525  1
  Rh  Rh220  1  0.60512946  0.60887209  0.79913616  1
  Rh  Rh221  1  0.40826549  0.21129844  0.19326596  1
  Rh  Rh222  1  0.20800565  0.59467676  0.78762011  1
  Rh  Rh223  1  -0.00394880  0.60072100  0.39983534  1
  Rh  Rh224  1  0.20829992  0.39518551  0.80477426  1
  Rh  Rh225  1  0.39471762  0.61168258  -0.00008418  1
  Rh  Rh226  1  0.40261621  0.38819489  -0.00855272  1
  Rh  Rh227  1  0.80168709  0.41064153  0.00007268  1
  Rh  Rh228  1  0.60000415  -0.00481937  0.81045132  1
  Rh  Rh229  1  0.40849356  0.40355458  0.61204356  1
  Rh  Rh230  1  0.79407297  0.20203286  0.20385711  1
  Rh  Rh231  1  0.20200375  0.39694918  0.39834311  1
  Rh  Rh232  1  -0.00196590  0.00263426  0.39654824  1
  Rh  Rh233  1  0.20199274  0.01303118  0.38664159  1
  Rh  Rh234  1  -0.00856643  0.00355414  0.80477531  1
  Rh  Rh235  1  0.80626024  0.79464941  -0.00006690  1
  Rh  Rh236  1  0.79360801  -0.00295604  0.20064397  1
  Rh  Rh237  1  0.59981706  0.79840185  0.40455686  1
  Rh  Rh238  1  0.58615098  0.19010383  0.00991632  1
  Rh  Rh239  1  0.40390721  0.79911655  0.80928572  1
  Rh  Rh240  1  0.79724156  0.59788658  0.59707269  1
  Rh  Rh241  1  0.19902713  0.80212070  0.80517255  1
  Rh  Rh242  1  0.01085091  -0.00851613  0.19258043  1
  Rh  Rh243  1  0.80590231  0.19024783  -0.00857075  1
  Rh  Rh244  1  0.59806502  0.60313961  0.59031523  1
  Rh  Rh245  1  0.20705562  0.40945607  0.20329684  1
  Rh  Rh246  1  0.00140695  0.20080029  0.19418662  1
  Rh  Rh247  1  0.79319259  0.60194170  0.40673396  1
  Rh  Rh248  1  0.60641315  0.20716342  0.78814211  1
  Rh  Rh249  1  -0.00665951  0.40159988  0.39814410  1
