# generated using pymatgen
data_ZrScNbPdRh
_symmetry_space_group_name_H-M   'P 1'
_cell_length_a   16.56088934
_cell_length_b   16.56063836
_cell_length_c   16.56297962
_cell_angle_alpha   90.01645919
_cell_angle_beta   89.98065607
_cell_angle_gamma   89.99873317
_symmetry_Int_Tables_number   1
_chemical_formula_structural   ZrScNbPdRh
_chemical_formula_sum   'Zr50 Sc50 Nb50 Pd50 Rh50'
_cell_volume   4542.54411056
_cell_formula_units_Z   50
loop_
 _symmetry_equiv_pos_site_id
 _symmetry_equiv_pos_as_xyz
  1  'x, y, z'
loop_
 _atom_site_type_symbol
 _atom_site_label
 _atom_site_symmetry_multiplicity
 _atom_site_fract_x
 _atom_site_fract_y
 _atom_site_fract_z
 _atom_site_occupancy
  Zr  Zr0  1  0.30253435  0.50279271  0.50239239  1
  Zr  Zr1  1  0.10499870  0.50590191  0.70429591  1
  Zr  Zr2  1  0.69393817  0.70138844  0.29621005  1
  Zr  Zr3  1  0.70102337  0.49549771  0.89704929  1
  Zr  Zr4  1  0.90419310  0.90191043  0.70679345  1
  Zr  Zr5  1  0.09813778  0.29469907  0.49966740  1
  Zr  Zr6  1  0.49875698  0.09905421  0.49542432  1
  Zr  Zr7  1  0.49663588  0.69938049  0.49716998  1
  Zr  Zr8  1  0.30293515  0.30074097  0.28841196  1
  Zr  Zr9  1  0.10537363  0.28910108  0.30441519  1
  Zr  Zr10  1  0.10002497  0.51113634  0.30014203  1
  Zr  Zr11  1  0.10845644  0.90083584  0.10607843  1
  Zr  Zr12  1  0.89587174  0.90590703  0.49369992  1
  Zr  Zr13  1  0.10193272  0.69814999  0.89722861  1
  Zr  Zr14  1  0.70344992  0.70420940  0.89824616  1
  Zr  Zr15  1  0.69868419  0.89979764  0.10898028  1
  Zr  Zr16  1  0.30275212  0.49635785  0.10449891  1
  Zr  Zr17  1  0.10805576  0.29095688  0.09842413  1
  Zr  Zr18  1  0.70289400  0.09594824  0.50559695  1
  Zr  Zr19  1  0.29441287  0.29699190  0.50214335  1
  Zr  Zr20  1  0.90282421  0.49902096  0.30105687  1
  Zr  Zr21  1  0.30235904  0.10706917  0.09326059  1
  Zr  Zr22  1  0.09131823  0.70132448  0.29757438  1
  Zr  Zr23  1  0.10015896  0.30259792  0.69500773  1
  Zr  Zr24  1  0.69463226  0.29153446  0.09528647  1
  Zr  Zr25  1  0.49610654  0.50056095  0.09485998  1
  Zr  Zr26  1  0.09829660  0.09915756  0.48791755  1
  Zr  Zr27  1  0.50895673  0.50923266  0.30392020  1
  Zr  Zr28  1  0.49845591  0.09574373  0.69717165  1
  Zr  Zr29  1  0.90295347  0.70240421  0.89300924  1
  Zr  Zr30  1  0.90286664  0.49214306  0.08970672  1
  Zr  Zr31  1  0.89810607  0.70056038  0.70398605  1
  Zr  Zr32  1  0.09541054  0.09718867  0.69503591  1
  Zr  Zr33  1  0.89089177  0.09299907  0.90410523  1
  Zr  Zr34  1  0.09713739  0.29936576  0.89640093  1
  Zr  Zr35  1  0.89987449  0.29735522  0.30575919  1
  Zr  Zr36  1  0.49712458  0.89741359  0.69639114  1
  Zr  Zr37  1  0.08643298  0.50174048  0.90193291  1
  Zr  Zr38  1  0.89806582  0.29851669  0.50357625  1
  Zr  Zr39  1  0.29425337  0.70088833  0.29452183  1
  Zr  Zr40  1  0.50850919  0.49850177  0.89575422  1
  Zr  Zr41  1  0.70447447  0.29872108  0.68549768  1
  Zr  Zr42  1  0.50435431  0.49604510  0.70451335  1
  Zr  Zr43  1  0.70846478  0.09613128  0.09682549  1
  Zr  Zr44  1  0.89347821  0.29194106  0.10307675  1
  Zr  Zr45  1  0.90275535  0.29848191  0.69976740  1
  Zr  Zr46  1  0.69460462  0.10066115  0.91085681  1
  Zr  Zr47  1  0.09806982  0.50450129  0.09820017  1
  Zr  Zr48  1  0.90478884  0.30996879  0.90287496  1
  Zr  Zr49  1  0.49252391  0.69681152  0.90178088  1
  Sc  Sc50  1  0.29216611  0.50074710  0.30144015  1
  Sc  Sc51  1  0.69851085  0.49128705  0.09991676  1
  Sc  Sc52  1  0.69751525  0.30336314  0.90718625  1
  Sc  Sc53  1  0.30927186  0.28982828  0.90340670  1
  Sc  Sc54  1  0.69817401  0.49555078  0.30124962  1
  Sc  Sc55  1  0.10413780  0.49633105  0.50028561  1
  Sc  Sc56  1  0.50065883  0.70899824  0.70014612  1
  Sc  Sc57  1  0.49618472  0.89597148  0.49679724  1
  Sc  Sc58  1  0.10220079  0.10203454  0.10718931  1
  Sc  Sc59  1  0.10126125  0.70100807  0.70528515  1
  Sc  Sc60  1  0.49054979  0.89549482  0.10456825  1
  Sc  Sc61  1  0.30134199  0.90361577  0.50360253  1
  Sc  Sc62  1  0.31527309  0.50896776  0.89553952  1
  Sc  Sc63  1  0.50127255  0.71067395  0.30131653  1
  Sc  Sc64  1  0.10148708  0.10603979  0.90954668  1
  Sc  Sc65  1  0.09682425  0.90813264  0.50118256  1
  Sc  Sc66  1  0.70285439  0.90550185  0.90462100  1
  Sc  Sc67  1  0.90252878  0.70718622  0.10267558  1
  Sc  Sc68  1  0.88784139  0.90527205  0.11298492  1
  Sc  Sc69  1  0.49827551  0.10889921  0.09972646  1
  Sc  Sc70  1  0.29832382  0.50624355  0.69746263  1
  Sc  Sc71  1  0.49713678  0.10044612  0.90705325  1
  Sc  Sc72  1  0.49926177  0.29632362  0.70025452  1
  Sc  Sc73  1  0.30520005  0.70330186  0.50386115  1
  Sc  Sc74  1  0.29982532  0.09479108  0.29986196  1
  Sc  Sc75  1  0.10481946  0.70305019  0.10647223  1
  Sc  Sc76  1  0.50138445  0.89398192  0.90183793  1
  Sc  Sc77  1  0.69187177  0.09875429  0.30598445  1
  Sc  Sc78  1  0.69723713  0.48278387  0.49842592  1
  Sc  Sc79  1  0.09764546  0.89894939  0.69706965  1
  Sc  Sc80  1  0.89139318  0.49777668  0.70705398  1
  Sc  Sc81  1  0.10493634  0.09424668  0.29966155  1
  Sc  Sc82  1  0.89790713  0.09292647  0.69381438  1
  Sc  Sc83  1  0.31159752  0.10471917  0.68619517  1
  Sc  Sc84  1  0.50244629  0.70711854  0.10466894  1
  Sc  Sc85  1  0.69996851  0.29926998  0.30297861  1
  Sc  Sc86  1  0.30070078  0.89692018  0.09881525  1
  Sc  Sc87  1  0.89828617  0.49305026  0.49716849  1
  Sc  Sc88  1  0.69607969  0.71026012  0.10638936  1
  Sc  Sc89  1  0.89945835  0.70725639  0.49710497  1
  Sc  Sc90  1  0.70262762  0.71420099  0.50170880  1
  Sc  Sc91  1  0.70244325  0.49847516  0.70145001  1
  Sc  Sc92  1  0.30483505  0.90814959  0.29142349  1
  Sc  Sc93  1  0.29539120  0.70559603  0.70309367  1
  Sc  Sc94  1  0.70540955  0.70175689  0.69734109  1
  Sc  Sc95  1  0.70325495  0.89636758  0.30503205  1
  Sc  Sc96  1  0.09363940  0.70210424  0.49621289  1
  Sc  Sc97  1  0.29966570  0.09704036  0.49621101  1
  Sc  Sc98  1  0.50488197  0.30404236  0.90273787  1
  Sc  Sc99  1  0.70049553  0.08743534  0.69344565  1
  Nb  Nb100  1  0.10221322  0.90087532  0.90468007  1
  Nb  Nb101  1  0.90111729  0.50311624  0.90338722  1
  Nb  Nb102  1  0.30704472  0.30078191  0.10263813  1
  Nb  Nb103  1  0.89959998  0.70094590  0.30457037  1
  Nb  Nb104  1  0.29172254  0.89642496  0.90400227  1
  Nb  Nb105  1  0.10552981  0.90150898  0.29739947  1
  Nb  Nb106  1  0.89394609  0.09635339  0.10386250  1
  Nb  Nb107  1  0.48565699  0.30125149  0.10726437  1
  Nb  Nb108  1  0.90031732  0.89782717  0.30162552  1
  Nb  Nb109  1  0.50184893  0.49915298  0.50047362  1
  Nb  Nb110  1  0.49894562  0.29522297  0.29618387  1
  Nb  Nb111  1  0.90648292  0.89882283  0.89759462  1
  Nb  Nb112  1  0.90068324  0.09108483  0.29912481  1
  Nb  Nb113  1  0.30069227  0.09620554  0.89925286  1
  Nb  Nb114  1  0.90218667  0.09468615  0.49380099  1
  Nb  Nb115  1  0.30538935  0.70314783  0.09732176  1
  Nb  Nb116  1  0.51320094  0.30746990  0.49856900  1
  Nb  Nb117  1  0.69315417  0.89829574  0.68543499  1
  Nb  Nb118  1  0.30028552  0.90282025  0.70101083  1
  Nb  Nb119  1  0.49461116  0.91316276  0.30052426  1
  Nb  Nb120  1  0.29712181  0.70683792  0.90794280  1
  Nb  Nb121  1  0.30059659  0.29901579  0.69597513  1
  Nb  Nb122  1  0.69974642  0.90151780  0.50335109  1
  Nb  Nb123  1  0.70178559  0.29617383  0.49923679  1
  Nb  Nb124  1  0.49606826  0.09710416  0.30163190  1
  Nb  Nb125  1  0.80104086  0.60428228  0.39354291  1
  Nb  Nb126  1  0.00325484  0.39447187  0.20113847  1
  Nb  Nb127  1  0.00218212  0.81080683  -0.00360305  1
  Nb  Nb128  1  0.80335738  0.19467926  0.40731158  1
  Nb  Nb129  1  0.60422151  0.60115447  -0.00322891  1
  Nb  Nb130  1  0.40912748  0.39752786  0.40178565  1
  Nb  Nb131  1  0.19675410  0.80578352  0.39335009  1
  Nb  Nb132  1  0.80016870  0.60081425  0.00044071  1
  Nb  Nb133  1  0.39005338  -0.00510147  0.80383577  1
  Nb  Nb134  1  0.40310902  0.39808687  0.59372041  1
  Nb  Nb135  1  -0.00486846  0.60040912  0.60201930  1
  Nb  Nb136  1  -0.00470158  -0.00499694  0.00393035  1
  Nb  Nb137  1  0.58919412  0.39206354  0.19914687  1
  Nb  Nb138  1  0.20628209  0.00210143  0.80289610  1
  Nb  Nb139  1  0.20449503  0.40188071  -0.00360227  1
  Nb  Nb140  1  0.20423080  0.39425413  0.80302358  1
  Nb  Nb141  1  0.40786076  0.20756457  0.39777462  1
  Nb  Nb142  1  0.20729106  0.60095587  -0.00042198  1
  Nb  Nb143  1  0.20616452  0.19720444  0.79563188  1
  Nb  Nb144  1  0.60773302  0.19516270  0.79901635  1
  Nb  Nb145  1  0.80148845  0.60052249  0.20030462  1
  Nb  Nb146  1  0.59701263  0.59737774  0.59553742  1
  Nb  Nb147  1  0.79696137  0.19771732  0.80083536  1
  Nb  Nb148  1  0.59287971  0.00198419  0.20452595  1
  Nb  Nb149  1  0.39939400  0.60254324  0.19833288  1
  Pd  Pd150  1  0.79676855  0.59394412  0.58702613  1
  Pd  Pd151  1  0.79124702  -0.00250576  0.79699350  1
  Pd  Pd152  1  0.59954923  0.19727810  0.19838164  1
  Pd  Pd153  1  0.20169854  0.39869618  0.39868130  1
  Pd  Pd154  1  0.59808904  0.80848190  0.39953013  1
  Pd  Pd155  1  0.39431138  0.80288384  0.80390743  1
  Pd  Pd156  1  0.59061860  -0.00503862  0.01269582  1
  Pd  Pd157  1  -0.00070096  -0.00187529  0.19876329  1
  Pd  Pd158  1  -0.00474704  0.80793325  0.19594620  1
  Pd  Pd159  1  -0.00758669  0.19167384  0.00412072  1
  Pd  Pd160  1  0.19094831  0.39985275  0.19638024  1
  Pd  Pd161  1  0.79481795  0.19075178  0.21239410  1
  Pd  Pd162  1  0.40710558  0.59959192  0.60965467  1
  Pd  Pd163  1  0.59126135  -0.00560224  0.59019476  1
  Pd  Pd164  1  0.79385576  0.00218588  0.39462364  1
  Pd  Pd165  1  0.38960078  0.80807017  0.39487664  1
  Pd  Pd166  1  0.00913926  0.40169819  0.39602049  1
  Pd  Pd167  1  0.19840814  0.19088380  0.60100077  1
  Pd  Pd168  1  0.20020691  0.61118960  0.40856407  1
  Pd  Pd169  1  0.59404160  0.00088132  0.80356235  1
  Pd  Pd170  1  0.59768224  0.79814526  0.00155183  1
  Pd  Pd171  1  0.01044402  0.00586894  0.80916195  1
  Pd  Pd172  1  0.20228336  0.00383151  0.60293357  1
  Pd  Pd173  1  -0.00455764  0.18992052  0.80088633  1
  Pd  Pd174  1  0.39485147  0.39532304  0.79419031  1
  Pd  Pd175  1  0.19636431  0.80709874  0.79763141  1
  Pd  Pd176  1  0.19226314  0.60978699  0.59394184  1
  Pd  Pd177  1  -0.00272923  0.41132898  0.60471501  1
  Pd  Pd178  1  0.79012937  0.81345775  0.79470943  1
  Pd  Pd179  1  0.00517177  0.80965807  0.39982993  1
  Pd  Pd180  1  0.19849115  0.79976624  0.59099458  1
  Pd  Pd181  1  0.80785937  0.80140860  0.00238189  1
  Pd  Pd182  1  0.39627740  0.39694067  -0.00883576  1
  Pd  Pd183  1  0.60248940  0.20027993  0.40126968  1
  Pd  Pd184  1  0.79755093  0.40231851  0.20057896  1
  Pd  Pd185  1  0.39649743  0.60967894  0.79119260  1
  Pd  Pd186  1  0.80633650  0.80731984  0.60195401  1
  Pd  Pd187  1  -0.00061317  0.19723012  0.20535852  1
  Pd  Pd188  1  -0.00476748  0.19201646  0.59588026  1
  Pd  Pd189  1  0.59684043  0.19751510  0.60393797  1
  Pd  Pd190  1  0.60593559  0.60793636  0.79528583  1
  Pd  Pd191  1  0.79631240  0.39138138  0.80161911  1
  Pd  Pd192  1  -0.00949150  0.59807614  0.19264613  1
  Pd  Pd193  1  -0.00090097  0.79739838  0.60034777  1
  Pd  Pd194  1  0.39593141  0.59763471  0.39189950  1
  Pd  Pd195  1  0.61456757  0.60287846  0.41366666  1
  Pd  Pd196  1  0.19577951  0.00501731  0.00207279  1
  Pd  Pd197  1  0.60655348  0.80415852  0.79846042  1
  Pd  Pd198  1  0.40349153  -0.00632894  -0.00145220  1
  Pd  Pd199  1  0.40361731  0.19384560  0.80154272  1
  Rh  Rh200  1  0.59229725  0.81639283  0.20831517  1
  Rh  Rh201  1  0.21032887  0.19634428  0.39553685  1
  Rh  Rh202  1  0.20658034  0.00271149  0.19533607  1
  Rh  Rh203  1  0.79842519  0.40023731  -0.00206984  1
  Rh  Rh204  1  0.39940198  0.79649389  0.20492899  1
  Rh  Rh205  1  0.80597717  0.19325370  0.59736346  1
  Rh  Rh206  1  -0.00749523  0.59632886  0.79054762  1
  Rh  Rh207  1  0.19488425  0.79265901  0.00482589  1
  Rh  Rh208  1  0.20805332  0.60535017  0.18964215  1
  Rh  Rh209  1  0.59973664  0.58881016  0.18620999  1
  Rh  Rh210  1  0.20744512  0.20590972  -0.00486305  1
  Rh  Rh211  1  0.80543386  -0.01050529  0.00244166  1
  Rh  Rh212  1  -0.00348129  -0.00043728  0.59436938  1
  Rh  Rh213  1  0.40766474  0.41362757  0.21300330  1
  Rh  Rh214  1  0.01007226  0.80244971  0.80215942  1
  Rh  Rh215  1  0.80361407  0.79383094  0.20952073  1
  Rh  Rh216  1  0.20099280  -0.00836384  0.39870699  1
  Rh  Rh217  1  0.40260519  0.60782922  0.00650995  1
  Rh  Rh218  1  0.40796268  0.21009318  0.58579477  1
  Rh  Rh219  1  0.39733228  0.00431190  0.40321859  1
  Rh  Rh220  1  0.59545091  0.39930804  0.01098660  1
  Rh  Rh221  1  0.60060267  -0.00662351  0.39901601  1
  Rh  Rh222  1  0.60703730  0.38402745  0.79120833  1
  Rh  Rh223  1  0.59735818  0.79522072  0.59619572  1
  Rh  Rh224  1  0.00258192  0.40771980  0.79194854  1
  Rh  Rh225  1  0.20772876  0.19313631  0.20106856  1
  Rh  Rh226  1  -0.00866690  0.59786826  0.41327623  1
  Rh  Rh227  1  0.59899589  0.39495284  0.39001517  1
  Rh  Rh228  1  0.20524900  0.80289827  0.20341150  1
  Rh  Rh229  1  -0.00310240  0.61806011  0.00186741  1
  Rh  Rh230  1  0.39571503  0.19046712  0.20559298  1
  Rh  Rh231  1  0.59833913  0.40489035  0.60570861  1
  Rh  Rh232  1  0.40333622  0.00665965  0.19152385  1
  Rh  Rh233  1  0.00806891  0.38858701  0.01163412  1
  Rh  Rh234  1  0.80648252  0.20480139  -0.00801064  1
  Rh  Rh235  1  0.40108840  -0.00572531  0.60082045  1
  Rh  Rh236  1  0.79081205  0.00443490  0.21091267  1
  Rh  Rh237  1  0.58936768  0.20529596  -0.00133385  1
  Rh  Rh238  1  0.80539259  -0.00882066  0.60162201  1
  Rh  Rh239  1  0.39977587  0.80282695  -0.00250208  1
  Rh  Rh240  1  0.00233602  -0.00366435  0.39145857  1
  Rh  Rh241  1  0.79989218  0.59842359  0.80827729  1
  Rh  Rh242  1  -0.00694715  0.19027660  0.39462411  1
  Rh  Rh243  1  0.20740136  0.59443960  0.81199828  1
  Rh  Rh244  1  0.79954392  0.79832831  0.39671949  1
  Rh  Rh245  1  0.20780542  0.40292849  0.60682939  1
  Rh  Rh246  1  0.80157229  0.40284268  0.59749249  1
  Rh  Rh247  1  0.39651482  0.80060774  0.60131096  1
  Rh  Rh248  1  0.79563410  0.39341524  0.40213385  1
  Rh  Rh249  1  0.40310766  0.20258186  -0.00103469  1
