# generated using pymatgen
data_ZrScNbPdRh
_symmetry_space_group_name_H-M   'P 1'
_cell_length_a   16.55637253
_cell_length_b   16.56075450
_cell_length_c   16.56364298
_cell_angle_alpha   89.99918662
_cell_angle_beta   89.98359101
_cell_angle_gamma   90.01176069
_symmetry_Int_Tables_number   1
_chemical_formula_structural   ZrScNbPdRh
_chemical_formula_sum   'Zr50 Sc50 Nb50 Pd50 Rh50'
_cell_volume   4541.51907643
_cell_formula_units_Z   50
loop_
 _symmetry_equiv_pos_site_id
 _symmetry_equiv_pos_as_xyz
  1  'x, y, z'
loop_
 _atom_site_type_symbol
 _atom_site_label
 _atom_site_symmetry_multiplicity
 _atom_site_fract_x
 _atom_site_fract_y
 _atom_site_fract_z
 _atom_site_occupancy
  Zr  Zr0  1  0.89609695  0.30497941  0.70079156  1
  Zr  Zr1  1  0.09963954  0.49476695  0.49905041  1
  Zr  Zr2  1  0.50795798  0.90881759  0.90649697  1
  Zr  Zr3  1  0.29571471  0.50517167  0.29125304  1
  Zr  Zr4  1  0.70432992  0.89236299  0.29540025  1
  Zr  Zr5  1  0.90556249  0.89973918  0.70039885  1
  Zr  Zr6  1  0.69541404  0.89705547  0.08952659  1
  Zr  Zr7  1  0.09321903  0.50403592  0.70419645  1
  Zr  Zr8  1  0.30382871  0.89265888  0.90322011  1
  Zr  Zr9  1  0.69194446  0.69079250  0.49636677  1
  Zr  Zr10  1  0.09161770  0.10479892  0.91268142  1
  Zr  Zr11  1  0.70582064  0.10066274  0.29658237  1
  Zr  Zr12  1  0.50292003  0.30171533  0.89511840  1
  Zr  Zr13  1  0.69758134  0.49346566  0.30882410  1
  Zr  Zr14  1  0.89541648  0.09882824  0.90000211  1
  Zr  Zr15  1  0.91089955  0.30131125  0.49469903  1
  Zr  Zr16  1  0.10344353  0.49617454  0.88873676  1
  Zr  Zr17  1  0.69972843  0.08955213  0.90593148  1
  Zr  Zr18  1  0.09873828  0.30502274  0.69591437  1
  Zr  Zr19  1  0.29668188  0.30722195  0.29926529  1
  Zr  Zr20  1  0.31228494  0.49908788  0.10326244  1
  Zr  Zr21  1  0.29253152  0.49809714  0.49773837  1
  Zr  Zr22  1  0.30840683  0.29617835  0.69036623  1
  Zr  Zr23  1  0.09667942  0.50814288  0.09967883  1
  Zr  Zr24  1  0.89305102  0.50272855  0.71131813  1
  Zr  Zr25  1  0.09418609  0.70263005  0.69459106  1
  Zr  Zr26  1  0.50329516  0.48776517  0.70275737  1
  Zr  Zr27  1  0.29590328  0.49820556  0.70998724  1
  Zr  Zr28  1  0.10431317  0.89641243  0.69408434  1
  Zr  Zr29  1  0.70952971  0.89888533  0.49603189  1
  Zr  Zr30  1  0.90610897  0.09979301  0.30170460  1
  Zr  Zr31  1  0.29915197  0.70331810  0.49491538  1
  Zr  Zr32  1  0.69804747  0.49328927  0.49743233  1
  Zr  Zr33  1  0.89855064  0.50156814  0.30331688  1
  Zr  Zr34  1  0.69739895  0.50106796  0.10723020  1
  Zr  Zr35  1  0.70850134  0.09456230  0.50527661  1
  Zr  Zr36  1  0.88799587  0.89656962  0.89630458  1
  Zr  Zr37  1  0.70395155  0.71218407  0.90420909  1
  Zr  Zr38  1  0.29972325  0.90995256  0.70477608  1
  Zr  Zr39  1  0.70618106  0.30173173  0.10057327  1
  Zr  Zr40  1  0.90479573  0.50736904  0.89830870  1
  Zr  Zr41  1  0.09690430  0.09691021  0.50161617  1
  Zr  Zr42  1  0.49813954  0.10542059  0.29846130  1
  Zr  Zr43  1  0.50067110  0.69713982  0.49458049  1
  Zr  Zr44  1  0.48810264  0.09964197  0.70361879  1
  Zr  Zr45  1  0.50192219  0.89575609  0.29990119  1
  Zr  Zr46  1  0.10928310  0.49948010  0.29995744  1
  Zr  Zr47  1  0.90063080  0.70097097  0.70924393  1
  Zr  Zr48  1  0.69917891  0.70374934  0.10125272  1
  Zr  Zr49  1  0.29688123  0.09779610  0.69944849  1
  Sc  Sc50  1  0.09331983  0.29727975  0.30440968  1
  Sc  Sc51  1  0.89047528  0.50691001  0.09823594  1
  Sc  Sc52  1  0.70326126  0.90293946  0.70796426  1
  Sc  Sc53  1  0.70419433  0.10855212  0.09584411  1
  Sc  Sc54  1  0.90576734  0.29491319  0.29820119  1
  Sc  Sc55  1  0.90261490  0.70271075  0.49359161  1
  Sc  Sc56  1  0.30259947  0.70357997  0.09182434  1
  Sc  Sc57  1  0.90232417  0.89782512  0.30679428  1
  Sc  Sc58  1  0.49654287  0.89839755  0.09528407  1
  Sc  Sc59  1  0.09926703  0.09562259  0.29679426  1
  Sc  Sc60  1  0.89812648  0.70461580  0.29928301  1
  Sc  Sc61  1  0.70764466  0.50100461  0.89627270  1
  Sc  Sc62  1  0.10201364  0.69976462  0.29856775  1
  Sc  Sc63  1  0.70264126  0.09535156  0.70679583  1
  Sc  Sc64  1  0.30438949  0.10580301  0.51515011  1
  Sc  Sc65  1  0.69552727  0.69641615  0.70111665  1
  Sc  Sc66  1  0.30259753  0.29799571  0.09989791  1
  Sc  Sc67  1  0.09830755  0.09042285  0.69449523  1
  Sc  Sc68  1  0.30222084  0.90766324  0.09052661  1
  Sc  Sc69  1  0.09542277  0.29902743  0.89257707  1
  Sc  Sc70  1  0.50419505  0.50399873  0.50220391  1
  Sc  Sc71  1  0.10151867  0.89900676  0.90582632  1
  Sc  Sc72  1  0.50698531  0.10635681  0.90110254  1
  Sc  Sc73  1  0.49915531  0.88340061  0.49928224  1
  Sc  Sc74  1  0.30196442  0.10467616  0.29637387  1
  Sc  Sc75  1  0.30762910  0.09766218  0.89598822  1
  Sc  Sc76  1  0.90462882  0.89513874  0.10728949  1
  Sc  Sc77  1  0.29841579  0.90091709  0.31353432  1
  Sc  Sc78  1  0.29477911  0.70260718  0.69302127  1
  Sc  Sc79  1  0.49939721  0.30169352  0.29902829  1
  Sc  Sc80  1  0.09715624  0.70542237  0.90119524  1
  Sc  Sc81  1  0.69658728  0.28843644  0.90116788  1
  Sc  Sc82  1  0.89373852  0.49405944  0.49568655  1
  Sc  Sc83  1  0.89924979  0.09287867  0.69986397  1
  Sc  Sc84  1  0.89910507  0.29035432  0.90051240  1
  Sc  Sc85  1  0.90856209  0.10756843  0.10196746  1
  Sc  Sc86  1  0.30510653  0.69841800  0.89954967  1
  Sc  Sc87  1  0.69958899  0.69598631  0.30406304  1
  Sc  Sc88  1  0.29098213  0.89755227  0.50277285  1
  Sc  Sc89  1  0.10254358  0.28042976  0.09509195  1
  Sc  Sc90  1  0.49864538  0.49753654  0.28594948  1
  Sc  Sc91  1  0.30623454  0.30021506  0.89847912  1
  Sc  Sc92  1  0.90030578  0.70257904  0.90084233  1
  Sc  Sc93  1  0.50273264  0.69372199  0.09603096  1
  Sc  Sc94  1  0.49946216  0.69463199  0.68388194  1
  Sc  Sc95  1  0.90245078  0.08866045  0.50299261  1
  Sc  Sc96  1  0.49116639  0.30554068  0.50632027  1
  Sc  Sc97  1  0.09086330  0.70745420  0.09390167  1
  Sc  Sc98  1  0.49794760  0.29571622  0.09716700  1
  Sc  Sc99  1  0.50751429  0.70365657  0.30184776  1
  Nb  Nb100  1  0.69782908  0.90223572  0.90333145  1
  Nb  Nb101  1  0.29329653  0.10256945  0.10103909  1
  Nb  Nb102  1  0.09301903  0.89588392  0.49030072  1
  Nb  Nb103  1  0.10152949  0.70026306  0.50036630  1
  Nb  Nb104  1  0.10062746  0.90351556  0.30427371  1
  Nb  Nb105  1  0.10149580  0.29871210  0.50082728  1
  Nb  Nb106  1  0.50471676  0.10194361  0.50107508  1
  Nb  Nb107  1  0.50181734  0.90281993  0.70498020  1
  Nb  Nb108  1  0.69967901  0.49369486  0.69965393  1
  Nb  Nb109  1  0.90310530  0.30272095  0.09893226  1
  Nb  Nb110  1  0.70178494  0.30830075  0.49898112  1
  Nb  Nb111  1  0.49976388  0.69844132  0.90120400  1
  Nb  Nb112  1  0.30275153  0.49968233  0.90213832  1
  Nb  Nb113  1  0.11083254  0.09174167  0.09939558  1
  Nb  Nb114  1  0.48927806  0.50465121  0.90550934  1
  Nb  Nb115  1  0.50715062  0.30002059  0.70257059  1
  Nb  Nb116  1  0.69086831  0.31638113  0.69701234  1
  Nb  Nb117  1  0.29388501  0.30214087  0.50299854  1
  Nb  Nb118  1  0.49569000  0.09813312  0.10399544  1
  Nb  Nb119  1  0.89934717  0.89919729  0.49543704  1
  Nb  Nb120  1  0.10831406  0.90529835  0.10380868  1
  Nb  Nb121  1  0.90290669  0.69611250  0.09575921  1
  Nb  Nb122  1  0.49705871  0.49888432  0.09249619  1
  Nb  Nb123  1  0.69594605  0.30309374  0.30815195  1
  Nb  Nb124  1  0.30164773  0.69832584  0.29490383  1
  Nb  Nb125  1  0.19952339  0.80916812  0.19884271  1
  Nb  Nb126  1  -0.00095583  0.39952988  0.19109771  1
  Nb  Nb127  1  0.79680287  0.59865893  0.60229441  1
  Nb  Nb128  1  0.59389332  0.79957721  0.80418745  1
  Nb  Nb129  1  0.59900398  0.00335721  0.39995445  1
  Nb  Nb130  1  0.59412316  0.00104871  0.59772614  1
  Nb  Nb131  1  0.00772894  0.59961744  0.40237753  1
  Nb  Nb132  1  0.00073002  0.40018107  0.00442290  1
  Nb  Nb133  1  0.59291020  0.59947205  0.80607935  1
  Nb  Nb134  1  0.79263610  0.21265689  0.59805557  1
  Nb  Nb135  1  0.20228584  0.59194973  -0.00424424  1
  Nb  Nb136  1  0.19938385  0.20490678  0.41004667  1
  Nb  Nb137  1  0.59852696  0.00281112  0.19988504  1
  Nb  Nb138  1  0.60554924  0.20186833  0.40715696  1
  Nb  Nb139  1  0.19917232  0.40516792  -0.00242508  1
  Nb  Nb140  1  0.41066000  0.80189828  0.79872439  1
  Nb  Nb141  1  0.39366556  0.59826027  0.39303550  1
  Nb  Nb142  1  0.40850617  0.00536749  0.40558150  1
  Nb  Nb143  1  0.39054971  0.40540254  0.39960884  1
  Nb  Nb144  1  0.80242137  0.79694328  0.59917088  1
  Nb  Nb145  1  0.59474765  0.40807625  -0.00075604  1
  Nb  Nb146  1  0.19982614  0.19828739  0.79404514  1
  Nb  Nb147  1  0.39377580  0.79950731  0.20335538  1
  Nb  Nb148  1  0.79569770  0.20359096  0.40431757  1
  Nb  Nb149  1  0.60290053  0.20323028  0.60105576  1
  Pd  Pd150  1  -0.00525858  0.80221642  0.59278217  1
  Pd  Pd151  1  0.40389479  0.60816353  0.79177665  1
  Pd  Pd152  1  0.39640710  -0.00744170  0.20543229  1
  Pd  Pd153  1  0.80364677  0.20708901  0.20473810  1
  Pd  Pd154  1  -0.00643195  -0.00616388  0.00629936  1
  Pd  Pd155  1  0.79182311  0.20303695  0.79148797  1
  Pd  Pd156  1  0.18957711  0.38913290  0.18620229  1
  Pd  Pd157  1  0.39576765  0.59250459  0.59597357  1
  Pd  Pd158  1  0.19181499  0.00686840  0.81158290  1
  Pd  Pd159  1  -0.00718110  0.19597816  0.60385044  1
  Pd  Pd160  1  -0.01176867  0.59489257  0.59138231  1
  Pd  Pd161  1  0.00503236  0.19409581  0.79058129  1
  Pd  Pd162  1  0.39455278  0.80624238  0.60622491  1
  Pd  Pd163  1  0.00632321  -0.00368303  0.80468812  1
  Pd  Pd164  1  0.19511396  0.20044644  0.20900380  1
  Pd  Pd165  1  0.79929046  0.60648490  0.20361636  1
  Pd  Pd166  1  0.60954300  0.80765937  0.60671742  1
  Pd  Pd167  1  0.80867789  0.00001142  0.01134617  1
  Pd  Pd168  1  0.19916402  0.61165460  0.80429288  1
  Pd  Pd169  1  0.79822103  -0.00211266  0.19313865  1
  Pd  Pd170  1  -0.00307399  0.80828421  -0.00148309  1
  Pd  Pd171  1  0.39680308  0.20468092  0.19616060  1
  Pd  Pd172  1  0.00177558  0.00000580  0.19746226  1
  Pd  Pd173  1  0.39916679  0.19443307  0.00114391  1
  Pd  Pd174  1  0.20738358  0.20357779  -0.01076743  1
  Pd  Pd175  1  0.40206922  0.00935063  -0.00218095  1
  Pd  Pd176  1  0.59491442  0.39381494  0.19208442  1
  Pd  Pd177  1  -0.00673455  0.40923782  0.60176404  1
  Pd  Pd178  1  0.80637099  0.39543026  0.20776376  1
  Pd  Pd179  1  0.79614714  0.60431780  -0.00077143  1
  Pd  Pd180  1  0.40630762  -0.01129006  0.59034868  1
  Pd  Pd181  1  0.59719575  0.60204471  0.20395871  1
  Pd  Pd182  1  0.79667825  0.39136589  0.81204995  1
  Pd  Pd183  1  0.19939811  0.40373573  0.60678455  1
  Pd  Pd184  1  0.80323732  0.79548659  0.19636392  1
  Pd  Pd185  1  0.20567684  0.79555137  0.80149717  1
  Pd  Pd186  1  0.00753034  0.80238309  0.20609482  1
  Pd  Pd187  1  0.39782629  0.39552312  0.79981176  1
  Pd  Pd188  1  0.19520729  0.79631012  0.39393622  1
  Pd  Pd189  1  -0.00324595  0.60021305  0.20643260  1
  Pd  Pd190  1  0.39682425  0.20401807  0.40794328  1
  Pd  Pd191  1  0.20011740  0.59989640  0.60075068  1
  Pd  Pd192  1  0.60649450  0.59438860  -0.00671701  1
  Pd  Pd193  1  0.60548974  0.19471858  0.79321975  1
  Pd  Pd194  1  0.79988841  0.39723317  -0.00701804  1
  Pd  Pd195  1  0.21083888  -0.00483808  0.20466847  1
  Pd  Pd196  1  0.60140843  0.20122920  0.19921425  1
  Pd  Pd197  1  0.20460948  0.00326092  -0.00787338  1
  Pd  Pd198  1  0.19856213  0.61635484  0.18480686  1
  Pd  Pd199  1  0.20969188  0.01406960  0.40673108  1
  Rh  Rh200  1  0.00151952  -0.01042310  0.59377852  1
  Rh  Rh201  1  0.40828921  0.20392347  0.60051240  1
  Rh  Rh202  1  0.60055686  0.40871126  0.81374180  1
  Rh  Rh203  1  0.80724474  0.39038041  0.39260555  1
  Rh  Rh204  1  0.79962666  -0.00107151  0.80047344  1
  Rh  Rh205  1  0.00281443  0.19291079  0.40324705  1
  Rh  Rh206  1  0.58434536  0.39670216  0.40238133  1
  Rh  Rh207  1  0.60914182  0.80307718  0.40154377  1
  Rh  Rh208  1  0.80493124  0.40313493  0.60103994  1
  Rh  Rh209  1  0.00477897  0.40660354  0.39053477  1
  Rh  Rh210  1  0.19428741  -0.00675563  0.59131713  1
  Rh  Rh211  1  0.19758150  0.79478442  0.00672633  1
  Rh  Rh212  1  0.80702025  0.60305434  0.40599036  1
  Rh  Rh213  1  0.80987107  0.79979457  0.00864980  1
  Rh  Rh214  1  0.79859719  0.79402494  0.40463350  1
  Rh  Rh215  1  0.59262504  0.80476934  0.19110489  1
  Rh  Rh216  1  0.59386415  0.79726396  -0.00232157  1
  Rh  Rh217  1  0.58835158  0.58998889  0.38991664  1
  Rh  Rh218  1  0.39682665  0.20395525  0.79803222  1
  Rh  Rh219  1  0.00303568  0.80481081  0.80544770  1
  Rh  Rh220  1  0.40552358  0.79727124  0.00018520  1
  Rh  Rh221  1  0.60037563  -0.00041602  0.79652754  1
  Rh  Rh222  1  0.19798464  0.80302951  0.59683182  1
  Rh  Rh223  1  0.78892942  0.60523809  0.79585360  1
  Rh  Rh224  1  0.59420512  0.39978636  0.59289073  1
  Rh  Rh225  1  -0.00181298  -0.00262924  0.39934672  1
  Rh  Rh226  1  0.39911306  0.40477421  0.59755161  1
  Rh  Rh227  1  0.00302148  0.59761547  -0.00527008  1
  Rh  Rh228  1  0.80456030  0.19858014  0.00024437  1
  Rh  Rh229  1  0.40779208  0.61111624  0.20058001  1
  Rh  Rh230  1  -0.00359827  0.20246959  0.00351389  1
  Rh  Rh231  1  0.79290047  0.80039768  0.79529610  1
  Rh  Rh232  1  0.59868803  0.01100457  0.01270456  1
  Rh  Rh233  1  0.19225541  0.19971154  0.60203345  1
  Rh  Rh234  1  0.19831502  0.60904946  0.40319004  1
  Rh  Rh235  1  0.39387681  0.60331103  0.00174628  1
  Rh  Rh236  1  0.39739188  0.79595196  0.39445326  1
  Rh  Rh237  1  0.00670269  0.19905515  0.19575338  1
  Rh  Rh238  1  0.00470714  0.79500914  0.39726066  1
  Rh  Rh239  1  0.40531700  0.39450711  0.20090785  1
  Rh  Rh240  1  0.60767158  0.59073103  0.60953243  1
  Rh  Rh241  1  0.19898595  0.39012310  0.40059132  1
  Rh  Rh242  1  0.80447277  0.00318723  0.39108166  1
  Rh  Rh243  1  -0.01025174  0.39477588  0.80726508  1
  Rh  Rh244  1  0.80156149  -0.01049956  0.60827060  1
  Rh  Rh245  1  0.40085787  0.39701522  0.00053844  1
  Rh  Rh246  1  0.59780885  0.20268286  0.00616655  1
  Rh  Rh247  1  0.40340804  -0.00523569  0.80878349  1
  Rh  Rh248  1  0.20950815  0.38765041  0.80118089  1
  Rh  Rh249  1  0.00651677  0.60932190  0.80463462  1
