# generated using pymatgen
data_ZrScNbPdRh
_symmetry_space_group_name_H-M   'P 1'
_cell_length_a   16.56031508
_cell_length_b   16.56435837
_cell_length_c   16.55981336
_cell_angle_alpha   89.99095934
_cell_angle_beta   90.01350925
_cell_angle_gamma   89.99087957
_symmetry_Int_Tables_number   1
_chemical_formula_structural   ZrScNbPdRh
_chemical_formula_sum   'Zr50 Sc50 Nb50 Pd50 Rh50'
_cell_volume   4542.53861941
_cell_formula_units_Z   50
loop_
 _symmetry_equiv_pos_site_id
 _symmetry_equiv_pos_as_xyz
  1  'x, y, z'
loop_
 _atom_site_type_symbol
 _atom_site_label
 _atom_site_symmetry_multiplicity
 _atom_site_fract_x
 _atom_site_fract_y
 _atom_site_fract_z
 _atom_site_occupancy
  Zr  Zr0  1  0.30043048  0.69670909  0.69667171  1
  Zr  Zr1  1  0.29896897  0.29734580  0.09270532  1
  Zr  Zr2  1  0.50105612  0.49881645  0.49870462  1
  Zr  Zr3  1  0.29870231  0.10022806  0.69920337  1
  Zr  Zr4  1  0.09633752  0.50433787  0.90460217  1
  Zr  Zr5  1  0.89910110  0.29773420  0.29879194  1
  Zr  Zr6  1  0.29785010  0.69774163  0.89478542  1
  Zr  Zr7  1  0.49727707  0.89797170  0.50808588  1
  Zr  Zr8  1  0.89770129  0.09075925  0.49714586  1
  Zr  Zr9  1  0.10448187  0.89779919  0.89885798  1
  Zr  Zr10  1  0.70138080  0.49599826  0.69306315  1
  Zr  Zr11  1  0.50129238  0.10206060  0.08870231  1
  Zr  Zr12  1  0.10434878  0.30163671  0.09805585  1
  Zr  Zr13  1  0.49897979  0.90220655  0.70498161  1
  Zr  Zr14  1  0.08889279  0.69315279  0.10895842  1
  Zr  Zr15  1  0.30295598  0.50324913  0.70317012  1
  Zr  Zr16  1  0.90278653  0.90411365  0.70020136  1
  Zr  Zr17  1  0.49773232  0.49926457  0.09235993  1
  Zr  Zr18  1  0.29670720  0.10471560  0.29709258  1
  Zr  Zr19  1  0.50800454  0.09783534  0.89093939  1
  Zr  Zr20  1  0.50012012  0.28939404  0.49628746  1
  Zr  Zr21  1  0.69355486  0.69478835  0.69818082  1
  Zr  Zr22  1  0.89703411  0.69873661  0.70456001  1
  Zr  Zr23  1  0.69647993  0.70051705  0.49935295  1
  Zr  Zr24  1  0.30350550  0.09694872  0.09500903  1
  Zr  Zr25  1  0.70561502  0.29279577  0.89798599  1
  Zr  Zr26  1  0.50643667  0.29575071  0.69438984  1
  Zr  Zr27  1  0.70008710  0.89422185  0.29476694  1
  Zr  Zr28  1  0.31199000  0.90006598  0.29239132  1
  Zr  Zr29  1  0.10612125  0.29691506  0.30055854  1
  Zr  Zr30  1  0.50132158  0.30019936  0.91127509  1
  Zr  Zr31  1  0.09364786  0.70103912  0.90296379  1
  Zr  Zr32  1  0.29533858  0.30317132  0.70330586  1
  Zr  Zr33  1  0.30239703  0.50093438  0.89854551  1
  Zr  Zr34  1  0.69556589  0.30777536  0.50951537  1
  Zr  Zr35  1  0.09954289  0.70338350  0.49852403  1
  Zr  Zr36  1  0.50586780  0.69437615  0.50167852  1
  Zr  Zr37  1  0.30270169  0.29774774  0.30221332  1
  Zr  Zr38  1  0.49162145  0.10130392  0.69608448  1
  Zr  Zr39  1  0.09441526  0.50884112  0.50365881  1
  Zr  Zr40  1  0.10099468  0.49999766  0.09810156  1
  Zr  Zr41  1  0.89195110  0.30213211  0.89498477  1
  Zr  Zr42  1  0.09690161  0.09875059  0.89505917  1
  Zr  Zr43  1  0.30923456  0.10214858  0.50085205  1
  Zr  Zr44  1  0.29826603  0.70574319  0.50833909  1
  Zr  Zr45  1  0.89300599  0.50690891  0.09678075  1
  Zr  Zr46  1  0.70060351  0.09542963  0.30003786  1
  Zr  Zr47  1  0.10048138  0.89535533  0.49682873  1
  Zr  Zr48  1  0.68726676  0.10747179  0.71604187  1
  Zr  Zr49  1  0.70077605  0.50012154  0.50019370  1
  Sc  Sc50  1  0.10511169  0.50826396  0.29342218  1
  Sc  Sc51  1  0.29636015  0.50052635  0.09717112  1
  Sc  Sc52  1  0.10481515  0.29607973  0.89802445  1
  Sc  Sc53  1  0.29843760  0.89965780  0.51094400  1
  Sc  Sc54  1  0.89201338  0.29294681  0.09892847  1
  Sc  Sc55  1  0.89992534  0.30756344  0.50600126  1
  Sc  Sc56  1  0.10208695  0.90741832  0.69979184  1
  Sc  Sc57  1  0.50126804  0.69210404  0.90216758  1
  Sc  Sc58  1  0.30573839  0.50080214  0.30630356  1
  Sc  Sc59  1  0.90662356  0.70178761  0.50423888  1
  Sc  Sc60  1  0.70792914  0.89467520  0.49118423  1
  Sc  Sc61  1  0.29770594  0.30133336  0.89887665  1
  Sc  Sc62  1  0.89992547  0.89901899  0.49817905  1
  Sc  Sc63  1  0.48784803  0.89979172  0.10486296  1
  Sc  Sc64  1  0.49668537  0.50573186  0.69999020  1
  Sc  Sc65  1  0.89902824  0.09952911  0.29788221  1
  Sc  Sc66  1  0.91590494  0.10139904  0.70368752  1
  Sc  Sc67  1  0.90366907  0.70445153  0.29294667  1
  Sc  Sc68  1  0.89909349  0.88625104  0.90348554  1
  Sc  Sc69  1  0.69155081  0.10760201  0.49703269  1
  Sc  Sc70  1  0.49520403  0.51851675  0.30390045  1
  Sc  Sc71  1  0.70089636  0.29585051  0.29913138  1
  Sc  Sc72  1  0.89241367  0.90064272  0.30432097  1
  Sc  Sc73  1  0.70815909  0.89603166  0.90224480  1
  Sc  Sc74  1  0.09982996  0.49468931  0.69643184  1
  Sc  Sc75  1  0.70472253  0.09865552  0.10866812  1
  Sc  Sc76  1  0.49709616  0.90416756  0.90313000  1
  Sc  Sc77  1  0.90053158  0.49746126  0.70304946  1
  Sc  Sc78  1  0.09946729  0.69570988  0.69347439  1
  Sc  Sc79  1  0.30692032  0.50592611  0.50283686  1
  Sc  Sc80  1  0.89088834  0.49738106  0.29739233  1
  Sc  Sc81  1  0.31254972  0.69994215  0.09746763  1
  Sc  Sc82  1  0.09298416  0.09741653  0.50018136  1
  Sc  Sc83  1  0.89417677  0.70193685  0.09982314  1
  Sc  Sc84  1  0.09908194  0.09787658  0.70344643  1
  Sc  Sc85  1  0.70466188  0.50790799  0.09565824  1
  Sc  Sc86  1  0.50206359  0.69138646  0.10808695  1
  Sc  Sc87  1  0.69471856  0.88856970  0.70527108  1
  Sc  Sc88  1  0.70594281  0.50011075  0.29465817  1
  Sc  Sc89  1  0.09323234  0.10839861  0.29801717  1
  Sc  Sc90  1  0.50029309  0.29330872  0.09175224  1
  Sc  Sc91  1  0.30287791  0.30859213  0.49129024  1
  Sc  Sc92  1  0.70611434  0.69370016  0.89525754  1
  Sc  Sc93  1  0.09968046  0.11153857  0.09772422  1
  Sc  Sc94  1  0.49591984  0.10707653  0.30020309  1
  Sc  Sc95  1  0.31612213  0.69530801  0.29451664  1
  Sc  Sc96  1  0.89527541  0.10337681  0.10671899  1
  Sc  Sc97  1  0.29725891  0.10042181  0.90002154  1
  Sc  Sc98  1  0.09804907  0.88815795  0.08912304  1
  Sc  Sc99  1  0.49985821  0.50074565  0.90254918  1
  Nb  Nb100  1  0.70487987  0.30122925  0.70219056  1
  Nb  Nb101  1  0.70099180  0.09713913  0.89923675  1
  Nb  Nb102  1  0.89991970  0.68520396  0.89922490  1
  Nb  Nb103  1  0.71249470  0.49471663  0.89815162  1
  Nb  Nb104  1  0.89974409  0.09953389  0.89843106  1
  Nb  Nb105  1  0.30207082  0.89707529  0.70085705  1
  Nb  Nb106  1  0.30094225  0.89969004  0.09437318  1
  Nb  Nb107  1  0.89143675  0.50227991  0.90203393  1
  Nb  Nb108  1  0.69389086  0.70348130  0.30309565  1
  Nb  Nb109  1  0.10031308  0.30772887  0.50075965  1
  Nb  Nb110  1  0.69564940  0.29728314  0.09608232  1
  Nb  Nb111  1  0.89602799  0.50156066  0.49205906  1
  Nb  Nb112  1  0.89057141  0.89845610  0.10254136  1
  Nb  Nb113  1  0.89658243  0.29954759  0.70161142  1
  Nb  Nb114  1  0.29747410  0.89416234  0.91195820  1
  Nb  Nb115  1  0.50999254  0.70618393  0.30606837  1
  Nb  Nb116  1  0.49922184  0.30360737  0.30122188  1
  Nb  Nb117  1  0.10203324  0.70852581  0.30041381  1
  Nb  Nb118  1  0.50297221  0.89699171  0.30395101  1
  Nb  Nb119  1  0.50233478  0.70745183  0.69977212  1
  Nb  Nb120  1  0.70496664  0.70820333  0.10940290  1
  Nb  Nb121  1  0.50039468  0.10156869  0.50393949  1
  Nb  Nb122  1  0.71057678  0.89718157  0.09992357  1
  Nb  Nb123  1  0.10177724  0.89222281  0.29544801  1
  Nb  Nb124  1  0.09414931  0.30000642  0.68929368  1
  Nb  Nb125  1  0.00333142  0.40189318  0.39801771  1
  Nb  Nb126  1  0.00021835  0.39856618  0.19736415  1
  Nb  Nb127  1  0.19633744  -0.00801743  0.19717690  1
  Nb  Nb128  1  0.60120657  0.00187936  0.59906820  1
  Nb  Nb129  1  0.80013326  0.19888322  0.60711007  1
  Nb  Nb130  1  0.79196314  0.00751173  0.60797207  1
  Nb  Nb131  1  0.60844537  0.80196228  0.00923506  1
  Nb  Nb132  1  0.40941660  0.79982113  0.39905154  1
  Nb  Nb133  1  0.39402237  0.80145018  0.79995177  1
  Nb  Nb134  1  0.60831466  0.39805886  0.80178692  1
  Nb  Nb135  1  0.60940051  -0.00515870  0.00370938  1
  Nb  Nb136  1  0.79972205  0.20310221  0.40780371  1
  Nb  Nb137  1  -0.00734324  -0.00025369  0.00183635  1
  Nb  Nb138  1  0.20241412  0.80125412  0.19955977  1
  Nb  Nb139  1  0.59491952  0.39799999  0.19880742  1
  Nb  Nb140  1  0.19975589  -0.00492171  0.39110049  1
  Nb  Nb141  1  0.80252141  0.00496478  0.80041686  1
  Nb  Nb142  1  0.00340658  -0.01045716  0.19284500  1
  Nb  Nb143  1  0.79867104  0.60469494  0.40088786  1
  Nb  Nb144  1  0.59635904  0.39940987  0.39307175  1
  Nb  Nb145  1  -0.00671684  0.40311872  0.00037883  1
  Nb  Nb146  1  0.59234381  -0.00196856  0.40196094  1
  Nb  Nb147  1  0.19723810  0.61243555  0.39952086  1
  Nb  Nb148  1  0.19313206  0.20943683  0.59764826  1
  Nb  Nb149  1  0.40682942  0.39751541  0.20093974  1
  Pd  Pd150  1  0.20349809  0.60760242  0.00401686  1
  Pd  Pd151  1  -0.00128641  0.19880115  0.59472075  1
  Pd  Pd152  1  -0.00844850  0.80208502  0.39643757  1
  Pd  Pd153  1  0.59225264  0.80007176  0.81619645  1
  Pd  Pd154  1  0.19483561  0.41565400  0.40106648  1
  Pd  Pd155  1  0.38730999  -0.00684722  0.80855189  1
  Pd  Pd156  1  0.00238692  0.79981448  0.79624306  1
  Pd  Pd157  1  0.41221607  0.39677113  0.80269530  1
  Pd  Pd158  1  0.59909624  0.20439130  0.19887462  1
  Pd  Pd159  1  0.80721061  0.60052102  0.59548898  1
  Pd  Pd160  1  0.40069888  -0.00307255  0.40267054  1
  Pd  Pd161  1  0.39975279  0.20559457  0.80422967  1
  Pd  Pd162  1  0.79776802  0.80580044  0.60058350  1
  Pd  Pd163  1  -0.00968617  0.79641765  0.00281661  1
  Pd  Pd164  1  0.40313768  0.20530604  0.19571189  1
  Pd  Pd165  1  0.21010390  0.60865634  0.20409700  1
  Pd  Pd166  1  0.40356276  0.00637774  0.19817234  1
  Pd  Pd167  1  0.79622737  0.19293276  0.00333751  1
  Pd  Pd168  1  0.19027211  0.59740368  0.79574095  1
  Pd  Pd169  1  -0.00306468  0.59642068  0.39013165  1
  Pd  Pd170  1  0.59356296  -0.00420764  0.19804345  1
  Pd  Pd171  1  0.20070668  0.78652347  0.00993514  1
  Pd  Pd172  1  -0.00769248  0.20830799  0.40847260  1
  Pd  Pd173  1  -0.00835882  0.40803347  0.59639770  1
  Pd  Pd174  1  0.20107137  0.80034850  0.79382691  1
  Pd  Pd175  1  0.80264478  0.00389068  -0.00389717  1
  Pd  Pd176  1  0.61071736  0.40276283  -0.00026745  1
  Pd  Pd177  1  0.20528018  0.40293984  0.59485933  1
  Pd  Pd178  1  0.00281992  0.20852333  0.80126139  1
  Pd  Pd179  1  0.20610701  0.40217154  0.20377294  1
  Pd  Pd180  1  0.00674284  -0.00499521  0.38847426  1
  Pd  Pd181  1  0.41121557  0.79515999  -0.00446580  1
  Pd  Pd182  1  0.00361811  0.80344766  0.60576327  1
  Pd  Pd183  1  -0.00537764  0.20157861  -0.00091006  1
  Pd  Pd184  1  0.19698277  0.19223303  0.41113312  1
  Pd  Pd185  1  0.19019155  0.00443600  0.00567583  1
  Pd  Pd186  1  0.00245195  0.59615640  0.79416302  1
  Pd  Pd187  1  0.19147973  0.40102302  0.80178676  1
  Pd  Pd188  1  0.40239089  0.39654318  0.59936092  1
  Pd  Pd189  1  0.59969035  0.59025014  0.80082105  1
  Pd  Pd190  1  0.21631160  0.80040584  0.39089684  1
  Pd  Pd191  1  0.19756937  0.00713199  0.59342788  1
  Pd  Pd192  1  0.79510084  0.39386957  0.19127994  1
  Pd  Pd193  1  -0.00790840  0.59352994  0.20739735  1
  Pd  Pd194  1  0.61081186  0.60734658  -0.00015632  1
  Pd  Pd195  1  0.60384839  0.59319677  0.20177612  1
  Pd  Pd196  1  0.00246470  0.39655110  0.80652576  1
  Pd  Pd197  1  0.80087163  0.79850250  0.80182532  1
  Pd  Pd198  1  0.20755468  -0.00269918  0.80272799  1
  Pd  Pd199  1  0.59283950  0.80494523  0.19144122  1
  Rh  Rh200  1  0.60602397  0.19404178  0.60292870  1
  Rh  Rh201  1  0.61053374  0.18887321  -0.00064546  1
  Rh  Rh202  1  0.79805334  0.40428639  0.79380610  1
  Rh  Rh203  1  0.59739190  0.80865458  0.40621715  1
  Rh  Rh204  1  0.80867942  0.39761009  0.60429692  1
  Rh  Rh205  1  0.20094893  0.59516106  0.59613520  1
  Rh  Rh206  1  0.61193709  0.59164812  0.39192044  1
  Rh  Rh207  1  0.59133921  0.40263892  0.60243851  1
  Rh  Rh208  1  0.80409243  0.78720129  0.39627650  1
  Rh  Rh209  1  -0.00687381  -0.01013062  0.81418900  1
  Rh  Rh210  1  0.60216860  0.20010803  0.39547597  1
  Rh  Rh211  1  0.79469323  0.61197341  0.20918618  1
  Rh  Rh212  1  0.79498368  0.60782197  -0.00046412  1
  Rh  Rh213  1  0.61085222  -0.01204240  0.80507411  1
  Rh  Rh214  1  0.20223639  0.19702394  -0.00418540  1
  Rh  Rh215  1  0.81016091  0.19032870  0.79258506  1
  Rh  Rh216  1  0.40813287  0.40335692  0.39372204  1
  Rh  Rh217  1  0.39776808  0.59853872  -0.00274013  1
  Rh  Rh218  1  0.79856277  0.59666132  0.79630772  1
  Rh  Rh219  1  0.39199539  0.40287881  0.00344280  1
  Rh  Rh220  1  -0.00674135  0.59750464  -0.00010003  1
  Rh  Rh221  1  0.38719513  0.20917817  0.59838473  1
  Rh  Rh222  1  0.80836206  -0.00211755  0.20418842  1
  Rh  Rh223  1  0.40556745  0.60326608  0.60229688  1
  Rh  Rh224  1  0.40139445  0.19910715  0.39924284  1
  Rh  Rh225  1  -0.00367634  -0.00422975  0.59608550  1
  Rh  Rh226  1  0.40191096  -0.00174474  0.60273335  1
  Rh  Rh227  1  -0.00765622  0.59783579  0.60444434  1
  Rh  Rh228  1  0.39582458  0.19500807  -0.00960122  1
  Rh  Rh229  1  0.40466124  0.79615612  0.20300479  1
  Rh  Rh230  1  0.60457482  0.80488450  0.59674307  1
  Rh  Rh231  1  0.39407351  0.61318003  0.40858364  1
  Rh  Rh232  1  0.80379861  0.79848777  0.20671061  1
  Rh  Rh233  1  0.78902349  0.00714490  0.40538795  1
  Rh  Rh234  1  0.40614758  0.60944356  0.79732030  1
  Rh  Rh235  1  0.80078513  0.39851229  0.00482126  1
  Rh  Rh236  1  0.19452279  0.20161115  0.78987592  1
  Rh  Rh237  1  0.19247464  0.80449309  0.60893745  1
  Rh  Rh238  1  0.79493695  0.20169101  0.20673835  1
  Rh  Rh239  1  0.59388700  0.21239541  0.80693721  1
  Rh  Rh240  1  0.40293115  0.79744716  0.60479979  1
  Rh  Rh241  1  0.40107256  0.59125130  0.19448048  1
  Rh  Rh242  1  0.79699731  0.40085722  0.40370420  1
  Rh  Rh243  1  0.79747302  0.78823288  -0.00250266  1
  Rh  Rh244  1  0.19682643  0.40130824  -0.00855367  1
  Rh  Rh245  1  0.20169324  0.19546663  0.19553754  1
  Rh  Rh246  1  0.40479846  0.00100675  -0.00582117  1
  Rh  Rh247  1  0.00174127  0.20380010  0.19717992  1
  Rh  Rh248  1  0.59459968  0.59878680  0.60637029  1
  Rh  Rh249  1  -0.00042970  0.80619831  0.19669178  1
