# generated using pymatgen
data_ZrScNbPdRh
_symmetry_space_group_name_H-M   'P 1'
_cell_length_a   16.56296922
_cell_length_b   16.56747409
_cell_length_c   16.56246389
_cell_angle_alpha   90.00498453
_cell_angle_beta   89.98452612
_cell_angle_gamma   90.01066403
_symmetry_Int_Tables_number   1
_chemical_formula_structural   ZrScNbPdRh
_chemical_formula_sum   'Zr50 Sc50 Nb50 Pd50 Rh50'
_cell_volume   4544.84853446
_cell_formula_units_Z   50
loop_
 _symmetry_equiv_pos_site_id
 _symmetry_equiv_pos_as_xyz
  1  'x, y, z'
loop_
 _atom_site_type_symbol
 _atom_site_label
 _atom_site_symmetry_multiplicity
 _atom_site_fract_x
 _atom_site_fract_y
 _atom_site_fract_z
 _atom_site_occupancy
  Zr  Zr0  1  0.69541626  0.69570672  0.49900956  1
  Zr  Zr1  1  0.29873637  0.09763002  0.90357269  1
  Zr  Zr2  1  0.09552079  0.29771686  0.09657388  1
  Zr  Zr3  1  0.69570461  0.30713475  0.89049084  1
  Zr  Zr4  1  0.70594376  0.09822494  0.50235035  1
  Zr  Zr5  1  0.90647595  0.89948149  0.09334521  1
  Zr  Zr6  1  0.90059469  0.68962557  0.50030970  1
  Zr  Zr7  1  0.50577847  0.09274263  0.09863781  1
  Zr  Zr8  1  0.68869083  0.31009851  0.50375743  1
  Zr  Zr9  1  0.29651271  0.50033258  0.49453360  1
  Zr  Zr10  1  0.10301112  0.89387893  0.70488933  1
  Zr  Zr11  1  0.49618339  0.69200461  0.89741156  1
  Zr  Zr12  1  0.49746392  0.10436890  0.50407166  1
  Zr  Zr13  1  0.69455744  0.90308553  0.10721860  1
  Zr  Zr14  1  0.69372667  0.69646057  0.30031557  1
  Zr  Zr15  1  0.10082634  0.50057136  0.50082985  1
  Zr  Zr16  1  0.30220606  0.89669663  0.30459124  1
  Zr  Zr17  1  0.90179665  0.50313998  0.69710307  1
  Zr  Zr18  1  0.50370996  0.30161712  0.69415236  1
  Zr  Zr19  1  0.70028002  0.10105120  0.10064995  1
  Zr  Zr20  1  0.70233270  0.69304972  0.89500838  1
  Zr  Zr21  1  0.70224188  0.09623606  0.90355337  1
  Zr  Zr22  1  0.88279374  0.50057987  0.90453853  1
  Zr  Zr23  1  0.49522983  0.69807592  0.50224995  1
  Zr  Zr24  1  0.69301893  0.90042180  0.69677746  1
  Zr  Zr25  1  0.30397984  0.69452492  0.30811550  1
  Zr  Zr26  1  0.09589535  0.90530249  0.90277543  1
  Zr  Zr27  1  0.10361571  0.90489708  0.29959680  1
  Zr  Zr28  1  0.89486018  0.29798999  0.70491638  1
  Zr  Zr29  1  0.49473652  0.70151584  0.69670099  1
  Zr  Zr30  1  0.69832711  0.09436148  0.29432078  1
  Zr  Zr31  1  0.70884642  0.89726696  0.90021878  1
  Zr  Zr32  1  0.30397954  0.30409704  0.30553524  1
  Zr  Zr33  1  0.10736648  0.49988560  0.30341518  1
  Zr  Zr34  1  0.49629117  0.10489669  0.30446610  1
  Zr  Zr35  1  0.50152186  0.49195495  0.50037996  1
  Zr  Zr36  1  0.50514799  0.29483644  0.10207367  1
  Zr  Zr37  1  0.49062641  0.89715939  0.89803268  1
  Zr  Zr38  1  0.90278349  0.10468044  0.30198332  1
  Zr  Zr39  1  0.09077088  0.70274975  0.89771710  1
  Zr  Zr40  1  0.90115149  0.68845824  0.30243746  1
  Zr  Zr41  1  0.89974646  0.28792061  0.90400241  1
  Zr  Zr42  1  0.29666854  0.88627685  0.49890810  1
  Zr  Zr43  1  0.50354415  0.69794706  0.09882111  1
  Zr  Zr44  1  0.90172953  0.90579076  0.90065858  1
  Zr  Zr45  1  0.09708644  0.69331451  0.29343897  1
  Zr  Zr46  1  0.29855507  0.90248855  0.90359264  1
  Zr  Zr47  1  0.10254796  0.69789611  0.69936711  1
  Zr  Zr48  1  0.29824660  0.30317743  0.89734954  1
  Zr  Zr49  1  0.30013807  0.49848970  0.09783330  1
  Sc  Sc50  1  0.89891139  0.70307663  0.90379197  1
  Sc  Sc51  1  0.29982609  0.89081954  0.70920929  1
  Sc  Sc52  1  0.90215401  0.31058640  0.49391154  1
  Sc  Sc53  1  0.49493345  0.50401806  0.70158782  1
  Sc  Sc54  1  0.90393899  0.29616480  0.09755635  1
  Sc  Sc55  1  0.69734950  0.69270776  0.10874368  1
  Sc  Sc56  1  0.10607861  0.31195328  0.50125180  1
  Sc  Sc57  1  0.90563143  0.69256318  0.09806275  1
  Sc  Sc58  1  0.10338821  0.49558722  0.90058823  1
  Sc  Sc59  1  0.30533815  0.69823666  0.50181473  1
  Sc  Sc60  1  0.50698549  0.09647194  0.70538336  1
  Sc  Sc61  1  0.30482321  0.11457284  0.49973456  1
  Sc  Sc62  1  0.10278505  0.09733587  0.10104207  1
  Sc  Sc63  1  0.90155820  0.10499249  0.09882238  1
  Sc  Sc64  1  0.09816313  0.09836781  0.90113117  1
  Sc  Sc65  1  0.10246445  0.29638512  0.90246596  1
  Sc  Sc66  1  0.31194437  0.69986324  0.89823015  1
  Sc  Sc67  1  0.31185765  0.69735665  0.09337498  1
  Sc  Sc68  1  0.69408457  0.10387569  0.69933252  1
  Sc  Sc69  1  0.50344628  0.90645458  0.30053327  1
  Sc  Sc70  1  0.29942923  0.50088033  0.70039831  1
  Sc  Sc71  1  0.30437176  0.91518985  0.09440624  1
  Sc  Sc72  1  0.90200316  0.50302086  0.49452254  1
  Sc  Sc73  1  0.89319114  0.10467826  0.70403799  1
  Sc  Sc74  1  0.69659462  0.50437531  0.49750941  1
  Sc  Sc75  1  0.09812621  0.49410583  0.10076829  1
  Sc  Sc76  1  0.49788829  0.89456656  0.50609317  1
  Sc  Sc77  1  0.90529720  0.91235484  0.29567826  1
  Sc  Sc78  1  0.28914128  0.29655382  0.09330912  1
  Sc  Sc79  1  0.30377070  0.30208710  0.50785689  1
  Sc  Sc80  1  0.50586825  0.09796433  0.89887440  1
  Sc  Sc81  1  0.68861228  0.50414817  0.30418872  1
  Sc  Sc82  1  0.09511346  0.09891086  0.29599155  1
  Sc  Sc83  1  0.90124747  0.90237794  0.70974017  1
  Sc  Sc84  1  0.69205814  0.69549222  0.70105900  1
  Sc  Sc85  1  0.09737009  0.30391613  0.29414962  1
  Sc  Sc86  1  0.50076815  0.49650832  0.10876757  1
  Sc  Sc87  1  0.69664054  0.91096425  0.50235826  1
  Sc  Sc88  1  0.50164926  0.89724815  0.70045189  1
  Sc  Sc89  1  0.50324461  0.68855706  0.29681461  1
  Sc  Sc90  1  0.29140600  0.30032793  0.69660450  1
  Sc  Sc91  1  0.11245818  0.69643220  0.50250071  1
  Sc  Sc92  1  0.29993312  0.09417798  0.29926688  1
  Sc  Sc93  1  0.10364115  0.50391316  0.69570398  1
  Sc  Sc94  1  0.90621819  0.69442609  0.70403838  1
  Sc  Sc95  1  0.30362457  0.50072617  0.89294230  1
  Sc  Sc96  1  0.89279334  0.91731368  0.49552971  1
  Sc  Sc97  1  0.11200135  0.11183023  0.70596950  1
  Sc  Sc98  1  0.90682804  0.30435991  0.29947345  1
  Sc  Sc99  1  0.69681129  0.29411273  0.10031861  1
  Nb  Nb100  1  0.90442462  0.50104732  0.30317816  1
  Nb  Nb101  1  0.49554388  0.29905123  0.49518415  1
  Nb  Nb102  1  0.48914339  0.49133332  0.30229814  1
  Nb  Nb103  1  0.70520921  0.49684083  0.71519993  1
  Nb  Nb104  1  0.30476851  0.49931696  0.30113597  1
  Nb  Nb105  1  0.69941460  0.30449717  0.69996264  1
  Nb  Nb106  1  0.69757598  0.29880177  0.30033909  1
  Nb  Nb107  1  0.49717088  0.49713276  0.89809051  1
  Nb  Nb108  1  0.10073102  0.10251455  0.49867035  1
  Nb  Nb109  1  0.89905600  0.09599333  0.90831752  1
  Nb  Nb110  1  0.30634936  0.10323968  0.09771426  1
  Nb  Nb111  1  0.30080993  0.69677089  0.69306913  1
  Nb  Nb112  1  0.49770968  0.30232488  0.89468479  1
  Nb  Nb113  1  0.09794669  0.30005257  0.69865669  1
  Nb  Nb114  1  0.09842044  0.70381560  0.09759765  1
  Nb  Nb115  1  0.30175428  0.11009596  0.69593884  1
  Nb  Nb116  1  0.50177763  0.30521052  0.30048472  1
  Nb  Nb117  1  0.69705057  0.50109708  0.89920020  1
  Nb  Nb118  1  0.90312116  0.10771577  0.49854646  1
  Nb  Nb119  1  0.70321741  0.89924711  0.30214888  1
  Nb  Nb120  1  0.88695138  0.49729979  0.09980213  1
  Nb  Nb121  1  0.70609410  0.49902968  0.09107449  1
  Nb  Nb122  1  0.10314501  0.90245430  0.50173126  1
  Nb  Nb123  1  0.09702059  0.89610631  0.10034624  1
  Nb  Nb124  1  0.50125745  0.89363920  0.09945674  1
  Nb  Nb125  1  0.59842718  0.79511032  -0.00043032  1
  Nb  Nb126  1  0.60143063  0.59163348  -0.00452530  1
  Nb  Nb127  1  0.80388248  0.79989317  0.59461693  1
  Nb  Nb128  1  0.20210883  0.79901547  0.19236085  1
  Nb  Nb129  1  -0.00096637  0.80335079  0.40515493  1
  Nb  Nb130  1  0.00213293  0.19867103  0.59572249  1
  Nb  Nb131  1  0.19712525  0.20139917  0.40099964  1
  Nb  Nb132  1  0.20187234  0.00296582  0.59801502  1
  Nb  Nb133  1  0.79388375  0.20394405  0.39970651  1
  Nb  Nb134  1  0.60020340  0.20758397  0.39920174  1
  Nb  Nb135  1  0.38954355  0.00259288  0.60415648  1
  Nb  Nb136  1  0.80072356  0.80209378  0.39874897  1
  Nb  Nb137  1  0.19676703  0.60822511  0.00152673  1
  Nb  Nb138  1  0.80040076  0.80052645  0.20776080  1
  Nb  Nb139  1  -0.00124724  0.80777385  0.59148092  1
  Nb  Nb140  1  0.60586997  0.80012525  0.39731272  1
  Nb  Nb141  1  0.39968392  0.20326299  0.80010260  1
  Nb  Nb142  1  0.79883303  0.40678808  0.20045686  1
  Nb  Nb143  1  0.19584280  0.79893048  0.00573428  1
  Nb  Nb144  1  -0.00381297  0.39617020  0.79877273  1
  Nb  Nb145  1  0.39969628  0.80341211  0.19953685  1
  Nb  Nb146  1  0.39940232  0.19906213  0.19650029  1
  Nb  Nb147  1  0.00784684  0.00609329  0.59709701  1
  Nb  Nb148  1  0.79335208  0.40151441  0.60834613  1
  Nb  Nb149  1  0.40682993  0.39591412  -0.00567354  1
  Pd  Pd150  1  0.60045935  0.59161134  0.60745352  1
  Pd  Pd151  1  0.20605622  0.79042507  0.81012044  1
  Pd  Pd152  1  0.59807753  -0.01145623  -0.00623971  1
  Pd  Pd153  1  0.79668197  0.38581892  0.00431608  1
  Pd  Pd154  1  0.00521749  0.21055501  0.40407925  1
  Pd  Pd155  1  0.80452463  0.79338859  0.78900256  1
  Pd  Pd156  1  0.39962578  0.60245143  0.20074134  1
  Pd  Pd157  1  -0.00676746  0.40560666  0.19831832  1
  Pd  Pd158  1  0.39626821  -0.00266035  0.41292907  1
  Pd  Pd159  1  0.79335464  0.79161754  0.01400156  1
  Pd  Pd160  1  0.20102486  -0.00264656  0.19374968  1
  Pd  Pd161  1  0.20455870  0.19779620  0.20733135  1
  Pd  Pd162  1  0.20604873  0.60482116  0.80711912  1
  Pd  Pd163  1  0.19421966  0.19361631  -0.00257020  1
  Pd  Pd164  1  0.79363577  0.59768041  0.60598397  1
  Pd  Pd165  1  0.00204848  0.19823121  0.79744206  1
  Pd  Pd166  1  0.59712675  -0.00043608  0.40371403  1
  Pd  Pd167  1  0.00282099  0.01279414  0.79082702  1
  Pd  Pd168  1  0.20741620  0.01014096  0.40786900  1
  Pd  Pd169  1  0.39721857  0.00820527  0.79331258  1
  Pd  Pd170  1  0.39349698  0.38949323  0.18948902  1
  Pd  Pd171  1  0.00134740  -0.00167460  0.40337695  1
  Pd  Pd172  1  -0.00007400  0.58786139  0.19132821  1
  Pd  Pd173  1  0.80716626  -0.00300237  0.19457167  1
  Pd  Pd174  1  0.00238241  0.59014695  0.00126932  1
  Pd  Pd175  1  0.39521132  0.40192250  0.60367628  1
  Pd  Pd176  1  0.80806072  -0.00224845  0.60973215  1
  Pd  Pd177  1  0.79702012  0.59656833  0.20486284  1
  Pd  Pd178  1  0.59893291  0.19897847  0.59791559  1
  Pd  Pd179  1  0.59593134  0.40315980  0.00137248  1
  Pd  Pd180  1  0.20320751  0.00489727  0.79385195  1
  Pd  Pd181  1  0.19144395  0.39937014  0.79519170  1
  Pd  Pd182  1  -0.00382003  0.80093804  0.20842722  1
  Pd  Pd183  1  0.59712044  0.80082391  0.80625980  1
  Pd  Pd184  1  0.20214375  0.39663820  0.19963267  1
  Pd  Pd185  1  0.79532681  0.00632327  0.79386417  1
  Pd  Pd186  1  0.79695825  0.40256662  0.39689335  1
  Pd  Pd187  1  0.80633869  0.21090333  0.20475443  1
  Pd  Pd188  1  0.40428917  0.20210685  -0.00188802  1
  Pd  Pd189  1  0.79177651  0.19403599  0.80440872  1
  Pd  Pd190  1  0.80506253  0.21160905  0.59059428  1
  Pd  Pd191  1  0.19046306  0.79131871  0.39286228  1
  Pd  Pd192  1  0.60365343  0.20258005  -0.00876962  1
  Pd  Pd193  1  -0.00592634  0.39605319  0.60437789  1
  Pd  Pd194  1  0.40426333  -0.00061220  0.19877636  1
  Pd  Pd195  1  -0.00296174  0.58850470  0.80829822  1
  Pd  Pd196  1  0.60870923  0.40429279  0.20087740  1
  Pd  Pd197  1  -0.00500570  0.40339507  -0.00812151  1
  Pd  Pd198  1  0.59267083  0.40550767  0.79415001  1
  Pd  Pd199  1  0.20468978  0.60469020  0.19135765  1
  Rh  Rh200  1  0.80320016  0.00317427  0.00645426  1
  Rh  Rh201  1  0.20560835  0.20274622  0.80556208  1
  Rh  Rh202  1  0.00368976  0.19322429  0.00133728  1
  Rh  Rh203  1  0.39570691  0.59649907  0.59836539  1
  Rh  Rh204  1  0.20522608  0.59833848  0.59993109  1
  Rh  Rh205  1  0.39427813  0.80516968  0.60719293  1
  Rh  Rh206  1  0.19959676  0.80097776  0.60423466  1
  Rh  Rh207  1  0.58651907  0.59831748  0.40140253  1
  Rh  Rh208  1  0.00914044  0.60030079  0.40357205  1
  Rh  Rh209  1  0.00126094  0.80181496  -0.00497568  1
  Rh  Rh210  1  0.39949184  0.20710887  0.39255587  1
  Rh  Rh211  1  0.60828922  0.80243020  0.59159020  1
  Rh  Rh212  1  0.39815270  0.80867463  0.00682282  1
  Rh  Rh213  1  0.59835793  0.80692256  0.20327874  1
  Rh  Rh214  1  0.20739507  0.40958302  -0.00382910  1
  Rh  Rh215  1  0.00187256  0.19991445  0.19617884  1
  Rh  Rh216  1  0.40161188  0.39416529  0.79930811  1
  Rh  Rh217  1  0.40119633  0.58294151  -0.00154778  1
  Rh  Rh218  1  0.59835142  0.20230598  0.80126364  1
  Rh  Rh219  1  0.60560414  -0.00676656  0.80416274  1
  Rh  Rh220  1  0.20159682  0.60048374  0.40004851  1
  Rh  Rh221  1  0.40681094  0.00260801  -0.00091047  1
  Rh  Rh222  1  0.19582886  -0.00154139  0.00523832  1
  Rh  Rh223  1  0.80585447  0.39947781  0.79999881  1
  Rh  Rh224  1  0.59563835  -0.00114961  0.20287166  1
  Rh  Rh225  1  0.79874272  0.59441430  0.39475336  1
  Rh  Rh226  1  0.39806583  0.39980958  0.40541965  1
  Rh  Rh227  1  0.59450016  0.39963149  0.39545213  1
  Rh  Rh228  1  -0.00646308  0.80083794  0.79730072  1
  Rh  Rh229  1  0.39823359  0.60083400  0.79306628  1
  Rh  Rh230  1  0.79378376  0.60694601  0.00138048  1
  Rh  Rh231  1  0.79506288  0.19961920  -0.00228251  1
  Rh  Rh232  1  0.59555536  0.59377637  0.80152993  1
  Rh  Rh233  1  0.00067921  0.00478286  0.19386799  1
  Rh  Rh234  1  0.00569257  0.40501469  0.39606262  1
  Rh  Rh235  1  0.40335215  0.59272671  0.40274892  1
  Rh  Rh236  1  0.39784512  0.79430728  0.79484194  1
  Rh  Rh237  1  0.60599729  0.41067685  0.60980409  1
  Rh  Rh238  1  0.59209518  0.19836004  0.20789038  1
  Rh  Rh239  1  0.00902384  0.60674237  0.59586085  1
  Rh  Rh240  1  0.20267293  0.39524764  0.39776302  1
  Rh  Rh241  1  0.40864585  0.19867402  0.61018890  1
  Rh  Rh242  1  0.80360507  0.60403590  0.79840785  1
  Rh  Rh243  1  0.58776558  0.00032129  0.60157663  1
  Rh  Rh244  1  0.59790274  0.58504289  0.19527104  1
  Rh  Rh245  1  0.00083019  0.00540739  0.00390263  1
  Rh  Rh246  1  0.19060803  0.20196622  0.59119135  1
  Rh  Rh247  1  0.80072361  0.00794367  0.39563967  1
  Rh  Rh248  1  0.41679050  0.79572404  0.38818164  1
  Rh  Rh249  1  0.20233806  0.40332449  0.60317553  1
