# generated using pymatgen
data_ZrScNbPdRh
_symmetry_space_group_name_H-M   'P 1'
_cell_length_a   16.55855843
_cell_length_b   16.55469810
_cell_length_c   16.55585532
_cell_angle_alpha   90.05827375
_cell_angle_beta   89.95382678
_cell_angle_gamma   90.02161857
_symmetry_Int_Tables_number   1
_chemical_formula_structural   ZrScNbPdRh
_chemical_formula_sum   'Zr50 Sc50 Nb50 Pd50 Rh50'
_cell_volume   4538.31896528
_cell_formula_units_Z   50
loop_
 _symmetry_equiv_pos_site_id
 _symmetry_equiv_pos_as_xyz
  1  'x, y, z'
loop_
 _atom_site_type_symbol
 _atom_site_label
 _atom_site_symmetry_multiplicity
 _atom_site_fract_x
 _atom_site_fract_y
 _atom_site_fract_z
 _atom_site_occupancy
  Zr  Zr0  1  0.30201117  0.69836422  0.30886276  1
  Zr  Zr1  1  0.49436011  0.50051777  0.70005927  1
  Zr  Zr2  1  0.49843302  0.10380912  0.70295247  1
  Zr  Zr3  1  0.70285868  0.90286252  0.89325738  1
  Zr  Zr4  1  0.31160310  0.50104360  0.90215006  1
  Zr  Zr5  1  0.10352154  0.49917880  0.30669965  1
  Zr  Zr6  1  0.09222999  0.29764273  0.50055134  1
  Zr  Zr7  1  0.69242176  0.89825413  0.30551310  1
  Zr  Zr8  1  0.49714617  0.10531005  0.90060179  1
  Zr  Zr9  1  0.69818978  0.68802531  0.90562855  1
  Zr  Zr10  1  0.30480966  0.50034340  0.49680422  1
  Zr  Zr11  1  0.31677908  0.70367077  0.90124323  1
  Zr  Zr12  1  0.49500250  0.50017495  0.09706588  1
  Zr  Zr13  1  0.89438746  0.50801082  0.49484882  1
  Zr  Zr14  1  0.09960319  0.49938787  0.50604596  1
  Zr  Zr15  1  0.70300761  0.10458841  0.50092065  1
  Zr  Zr16  1  0.90895460  0.49738076  0.90143382  1
  Zr  Zr17  1  0.30316302  0.30723344  0.29895159  1
  Zr  Zr18  1  0.89979958  0.69992726  0.10431824  1
  Zr  Zr19  1  0.89515969  0.09844881  0.70666083  1
  Zr  Zr20  1  0.09309358  0.30341361  0.29629931  1
  Zr  Zr21  1  0.29742213  0.90109057  0.90289230  1
  Zr  Zr22  1  0.10562051  0.69641320  0.29385017  1
  Zr  Zr23  1  0.90248855  0.88869680  0.49759466  1
  Zr  Zr24  1  0.70178621  0.29689674  0.70161611  1
  Zr  Zr25  1  0.90872712  0.09778850  0.29984496  1
  Zr  Zr26  1  0.29963499  0.29758161  0.50030931  1
  Zr  Zr27  1  0.49949489  0.49394254  0.50660323  1
  Zr  Zr28  1  0.69964872  0.29739714  0.49785598  1
  Zr  Zr29  1  0.29877035  0.10076996  0.90047899  1
  Zr  Zr30  1  0.90559750  0.90538721  0.88950816  1
  Zr  Zr31  1  0.10288514  0.10328152  0.90135355  1
  Zr  Zr32  1  0.70301622  0.30000172  0.29929492  1
  Zr  Zr33  1  0.10054098  0.89947230  0.09919697  1
  Zr  Zr34  1  0.30470819  0.49715367  0.69576223  1
  Zr  Zr35  1  0.90213933  0.09793641  0.09675852  1
  Zr  Zr36  1  0.70100231  0.70630653  0.29530314  1
  Zr  Zr37  1  0.69593045  0.09934582  0.10365144  1
  Zr  Zr38  1  0.09947549  0.09416268  0.49363118  1
  Zr  Zr39  1  0.70892907  0.69786388  0.50219521  1
  Zr  Zr40  1  0.30419892  0.10048909  0.30057652  1
  Zr  Zr41  1  0.50140410  0.51219204  0.89797891  1
  Zr  Zr42  1  0.89587806  0.49384390  0.29789682  1
  Zr  Zr43  1  0.49908524  0.70226923  0.50629999  1
  Zr  Zr44  1  0.89650725  0.90393524  0.70369858  1
  Zr  Zr45  1  0.70340131  0.69929078  0.69244956  1
  Zr  Zr46  1  0.70272883  0.50646396  0.09688769  1
  Zr  Zr47  1  0.29020728  0.09878126  0.50586848  1
  Zr  Zr48  1  0.70196910  0.09643660  0.30441827  1
  Zr  Zr49  1  0.10203459  0.69184080  0.70034215  1
  Sc  Sc50  1  0.30468719  0.30580446  0.09614130  1
  Sc  Sc51  1  0.09042556  0.49578472  0.70127946  1
  Sc  Sc52  1  0.09248657  0.29492928  0.70401173  1
  Sc  Sc53  1  0.49896759  0.10637151  0.10041475  1
  Sc  Sc54  1  0.70932828  0.29870486  0.09231225  1
  Sc  Sc55  1  0.88916809  0.30350515  0.89617753  1
  Sc  Sc56  1  0.70862119  0.49979036  0.29734809  1
  Sc  Sc57  1  0.30383106  0.70024631  0.69698131  1
  Sc  Sc58  1  0.10127291  0.89444195  0.70327623  1
  Sc  Sc59  1  0.89800793  0.69939005  0.30466300  1
  Sc  Sc60  1  0.89652406  0.49586681  0.09824728  1
  Sc  Sc61  1  0.90068443  0.70310231  0.69675093  1
  Sc  Sc62  1  0.69652675  0.11253336  0.89564556  1
  Sc  Sc63  1  0.89464484  0.10665284  0.49932066  1
  Sc  Sc64  1  0.50578743  0.69915033  0.10009966  1
  Sc  Sc65  1  0.90698331  0.49445862  0.69867680  1
  Sc  Sc66  1  0.90234221  0.29665250  0.69752277  1
  Sc  Sc67  1  0.69846859  0.89707285  0.11293749  1
  Sc  Sc68  1  0.90833606  0.90170303  0.10484308  1
  Sc  Sc69  1  0.10603308  0.10524569  0.70011599  1
  Sc  Sc70  1  0.50620593  0.90208095  0.69643058  1
  Sc  Sc71  1  0.69990629  0.90194205  0.50016504  1
  Sc  Sc72  1  0.09522303  0.49215897  0.09479980  1
  Sc  Sc73  1  0.50498618  0.70427263  0.31126804  1
  Sc  Sc74  1  0.50099445  0.90395485  0.09936167  1
  Sc  Sc75  1  0.70226572  0.10102059  0.69403034  1
  Sc  Sc76  1  0.09716179  0.90593161  0.89538812  1
  Sc  Sc77  1  0.49082022  0.49411842  0.30755104  1
  Sc  Sc78  1  0.29675721  0.70347455  0.10559872  1
  Sc  Sc79  1  0.69164413  0.49463918  0.69584634  1
  Sc  Sc80  1  0.30545748  0.90364486  0.09685120  1
  Sc  Sc81  1  0.90645787  0.69901355  0.89645215  1
  Sc  Sc82  1  0.29935386  0.28999948  0.90576830  1
  Sc  Sc83  1  0.08774388  0.69639020  0.89909971  1
  Sc  Sc84  1  0.50400422  0.10674336  0.29309551  1
  Sc  Sc85  1  0.29453915  0.89990235  0.50531782  1
  Sc  Sc86  1  0.49747395  0.30482066  0.69509066  1
  Sc  Sc87  1  0.09417016  0.09198915  0.09586140  1
  Sc  Sc88  1  0.50741819  0.89365120  0.49959830  1
  Sc  Sc89  1  0.70588199  0.90516641  0.69436209  1
  Sc  Sc90  1  0.50905419  0.10567386  0.49755284  1
  Sc  Sc91  1  0.69914336  0.69635904  0.10861166  1
  Sc  Sc92  1  0.09328476  0.69631980  0.10334356  1
  Sc  Sc93  1  0.09076758  0.90719052  0.30446006  1
  Sc  Sc94  1  0.50381813  0.30398379  0.49369921  1
  Sc  Sc95  1  0.29438811  0.49720620  0.30635873  1
  Sc  Sc96  1  0.48889994  0.90428716  0.90068839  1
  Sc  Sc97  1  0.08967864  0.70086156  0.50459707  1
  Sc  Sc98  1  0.29108845  0.90024845  0.70208941  1
  Sc  Sc99  1  0.30431040  0.69626734  0.50532919  1
  Nb  Nb100  1  0.29289789  0.29272197  0.69772991  1
  Nb  Nb101  1  0.10183326  0.10085464  0.30047694  1
  Nb  Nb102  1  0.50586325  0.29587762  0.90566695  1
  Nb  Nb103  1  0.90379352  0.30200610  0.10342521  1
  Nb  Nb104  1  0.10111110  0.30687703  0.90719679  1
  Nb  Nb105  1  0.70450328  0.49302985  0.90198413  1
  Nb  Nb106  1  0.49849045  0.89535627  0.30846968  1
  Nb  Nb107  1  0.50037814  0.70192304  0.89907881  1
  Nb  Nb108  1  0.09846281  0.49719369  0.89879674  1
  Nb  Nb109  1  0.29154385  0.10193054  0.09551964  1
  Nb  Nb110  1  0.50151169  0.30157982  0.10348320  1
  Nb  Nb111  1  0.89863286  0.29990570  0.29737145  1
  Nb  Nb112  1  0.49713279  0.30040284  0.28686561  1
  Nb  Nb113  1  0.88970468  0.89758392  0.29946732  1
  Nb  Nb114  1  0.10397257  0.90478858  0.50176756  1
  Nb  Nb115  1  0.89706179  0.29896045  0.49398659  1
  Nb  Nb116  1  0.69972875  0.30957144  0.89756443  1
  Nb  Nb117  1  0.50430205  0.69983648  0.70301962  1
  Nb  Nb118  1  0.70252033  0.49855441  0.49879243  1
  Nb  Nb119  1  0.90211904  0.09584638  0.89852229  1
  Nb  Nb120  1  0.88963726  0.69990234  0.50248954  1
  Nb  Nb121  1  0.30804793  0.50323834  0.09701794  1
  Nb  Nb122  1  0.29758078  0.11312551  0.69744157  1
  Nb  Nb123  1  0.09907429  0.29747451  0.09348323  1
  Nb  Nb124  1  0.30080095  0.90044494  0.30402410  1
  Nb  Nb125  1  0.80028180  0.39821426  0.59035753  1
  Nb  Nb126  1  0.19963434  0.79536962  -0.00270544  1
  Nb  Nb127  1  0.40095760  0.80194724  0.20953000  1
  Nb  Nb128  1  0.60307693  0.79895280  -0.00791871  1
  Nb  Nb129  1  0.20091494  0.59202754  0.80700934  1
  Nb  Nb130  1  0.19944615  0.39845551  0.80275045  1
  Nb  Nb131  1  0.19669383  0.80501353  0.40002670  1
  Nb  Nb132  1  0.20098937  0.39564401  0.60517340  1
  Nb  Nb133  1  0.80049518  -0.00117316  -0.00333004  1
  Nb  Nb134  1  0.20211493  0.59857461  -0.00480821  1
  Nb  Nb135  1  0.80820164  0.20068608  0.20082497  1
  Nb  Nb136  1  0.39683347  0.60281231  0.20382363  1
  Nb  Nb137  1  0.39581444  0.00787461  0.59923176  1
  Nb  Nb138  1  0.60591531  0.59577523  0.40745541  1
  Nb  Nb139  1  0.60042809  0.39866837  -0.00374983  1
  Nb  Nb140  1  0.20311378  0.00525509  0.20358641  1
  Nb  Nb141  1  0.59669113  0.39615984  0.19376602  1
  Nb  Nb142  1  0.19584443  0.19824030  0.19724386  1
  Nb  Nb143  1  0.59860423  0.79342956  0.80326863  1
  Nb  Nb144  1  0.79740902  0.59189136  0.80181436  1
  Nb  Nb145  1  0.19493631  0.19956913  0.39211840  1
  Nb  Nb146  1  0.00222953  -0.00343283  0.59639636  1
  Nb  Nb147  1  0.40122254  -0.00291935  0.40176692  1
  Nb  Nb148  1  -0.00177148  0.20611460  -0.00133030  1
  Nb  Nb149  1  0.79902797  0.80418464  -0.00145381  1
  Pd  Pd150  1  -0.00377841  0.19080548  0.59964516  1
  Pd  Pd151  1  0.40831031  0.19959566  0.59451675  1
  Pd  Pd152  1  0.40076138  0.00736923  0.00390855  1
  Pd  Pd153  1  0.20083205  0.40005944  0.19046546  1
  Pd  Pd154  1  0.40034632  -0.00326552  0.20288115  1
  Pd  Pd155  1  0.60461275  -0.00497428  -0.00270756  1
  Pd  Pd156  1  0.20605068  0.40621866  -0.00125623  1
  Pd  Pd157  1  -0.00499226  0.40233747  0.40251086  1
  Pd  Pd158  1  0.81147082  0.60382349  -0.00374893  1
  Pd  Pd159  1  0.59644183  0.20155163  0.39313592  1
  Pd  Pd160  1  0.39678392  0.38763167  0.80539662  1
  Pd  Pd161  1  0.00127254  0.40625812  0.19693653  1
  Pd  Pd162  1  0.80388677  -0.00285019  0.40608865  1
  Pd  Pd163  1  0.39994419  0.20890226  0.80209754  1
  Pd  Pd164  1  0.60093303  -0.00190853  0.79892820  1
  Pd  Pd165  1  -0.00198527  0.20413608  0.80984550  1
  Pd  Pd166  1  0.19519052  0.60991483  0.41254904  1
  Pd  Pd167  1  0.58998258  0.58971662  0.21442550  1
  Pd  Pd168  1  0.40683403  0.80716669  0.79004486  1
  Pd  Pd169  1  0.60259064  0.40485234  0.38993528  1
  Pd  Pd170  1  0.40668832  0.39242890  -0.00667151  1
  Pd  Pd171  1  0.00124265  0.80361393  0.60580690  1
  Pd  Pd172  1  0.00221862  0.19744998  0.19253382  1
  Pd  Pd173  1  0.59472112  0.00233184  0.59621282  1
  Pd  Pd174  1  0.59282062  0.39914933  0.80314472  1
  Pd  Pd175  1  -0.00284473  0.80366489  0.21068965  1
  Pd  Pd176  1  0.39195694  0.20111203  0.19003724  1
  Pd  Pd177  1  0.59902318  0.59767173  0.59643666  1
  Pd  Pd178  1  0.19535368  0.78757789  0.80946844  1
  Pd  Pd179  1  0.20006709  0.00558136  0.79527390  1
  Pd  Pd180  1  0.00543101  0.79509534  0.39427411  1
  Pd  Pd181  1  0.20552101  0.81047625  0.20000143  1
  Pd  Pd182  1  0.79622217  0.78811129  0.80390959  1
  Pd  Pd183  1  0.59993644  0.20350668  0.79523853  1
  Pd  Pd184  1  -0.00116645  0.60568541  0.39940764  1
  Pd  Pd185  1  0.80355466  0.40501252  0.78856891  1
  Pd  Pd186  1  0.60246226  0.20551075  0.00434622  1
  Pd  Pd187  1  0.40011571  0.19724524  0.40237173  1
  Pd  Pd188  1  0.80272124  0.00085706  0.19557195  1
  Pd  Pd189  1  0.20436023  0.58923512  0.19149041  1
  Pd  Pd190  1  0.60611992  0.59996618  0.79565408  1
  Pd  Pd191  1  0.59097562  -0.00235886  0.20558387  1
  Pd  Pd192  1  -0.00053738  0.80284015  -0.00323657  1
  Pd  Pd193  1  -0.00884032  -0.00258151  0.40472395  1
  Pd  Pd194  1  -0.00256695  0.59062397  0.19872357  1
  Pd  Pd195  1  0.39336126  -0.00136076  0.78989760  1
  Pd  Pd196  1  0.19783759  0.79526458  0.59349772  1
  Pd  Pd197  1  0.39930667  0.81026124  0.60546510  1
  Pd  Pd198  1  -0.00849892  0.60171320  0.60078421  1
  Pd  Pd199  1  0.80580557  0.19685271  -0.00135384  1
  Rh  Rh200  1  0.80488648  0.80157113  0.19658523  1
  Rh  Rh201  1  0.80705052  0.60079195  0.20269185  1
  Rh  Rh202  1  0.39166841  0.80661278  0.40296095  1
  Rh  Rh203  1  0.00348198  -0.00494185  0.20438351  1
  Rh  Rh204  1  0.59745504  0.20373457  0.60356112  1
  Rh  Rh205  1  0.40428748  0.79815993  0.01227686  1
  Rh  Rh206  1  -0.00057177  0.20152376  0.39842797  1
  Rh  Rh207  1  0.19923273  0.20705075  0.80494209  1
  Rh  Rh208  1  0.79740921  0.80083028  0.39854001  1
  Rh  Rh209  1  0.60830160  0.79226152  0.40711118  1
  Rh  Rh210  1  0.58854640  0.80555444  0.19424533  1
  Rh  Rh211  1  0.39389431  0.39213577  0.59784826  1
  Rh  Rh212  1  -0.00411980  0.00283178  -0.00526790  1
  Rh  Rh213  1  0.80550916  0.20078388  0.39081740  1
  Rh  Rh214  1  0.20560184  -0.00190804  0.39333380  1
  Rh  Rh215  1  0.19801068  0.00051870  0.61102172  1
  Rh  Rh216  1  0.19748729  0.39334913  0.41065768  1
  Rh  Rh217  1  0.19337649  0.19902667  0.00522116  1
  Rh  Rh218  1  0.20005671  -0.00833996  0.00484363  1
  Rh  Rh219  1  0.39825963  0.61276386  0.01258872  1
  Rh  Rh220  1  0.19079092  0.20619826  0.59458816  1
  Rh  Rh221  1  0.40443855  0.60387612  0.60289126  1
  Rh  Rh222  1  0.60594723  0.39462663  0.59934077  1
  Rh  Rh223  1  0.40971655  0.59960994  0.40011637  1
  Rh  Rh224  1  0.79924832  0.80602590  0.59825361  1
  Rh  Rh225  1  0.00913746  0.00479530  0.78835895  1
  Rh  Rh226  1  0.59848945  0.59823466  0.00105357  1
  Rh  Rh227  1  0.19992058  0.59168115  0.60555898  1
  Rh  Rh228  1  0.40119955  0.40881553  0.20036425  1
  Rh  Rh229  1  0.79854173  0.20004050  0.80212264  1
  Rh  Rh230  1  0.00243410  0.79824764  0.79423200  1
  Rh  Rh231  1  0.79981425  0.40056674  0.00276216  1
  Rh  Rh232  1  0.81088078  -0.00175515  0.59358464  1
  Rh  Rh233  1  0.40233632  0.19822460  0.00452761  1
  Rh  Rh234  1  0.80484445  0.58769006  0.61040744  1
  Rh  Rh235  1  0.60515489  0.80139420  0.60613686  1
  Rh  Rh236  1  0.39760131  0.60591217  0.79042846  1
  Rh  Rh237  1  0.80221966  0.39690683  0.40378433  1
  Rh  Rh238  1  0.79084885  0.01315280  0.80554629  1
  Rh  Rh239  1  0.59267312  0.00283093  0.39928159  1
  Rh  Rh240  1  -0.00438253  0.39560666  0.59349060  1
  Rh  Rh241  1  0.00303648  0.39190999  0.80431902  1
  Rh  Rh242  1  -0.00155236  0.59945334  0.79555556  1
  Rh  Rh243  1  0.80243459  0.20746243  0.60049018  1
  Rh  Rh244  1  -0.00714018  0.39269714  -0.00187999  1
  Rh  Rh245  1  0.00365681  0.59664605  0.00519483  1
  Rh  Rh246  1  0.79485107  0.39262960  0.19384929  1
  Rh  Rh247  1  0.61039293  0.20760154  0.19679455  1
  Rh  Rh248  1  0.79453307  0.60404847  0.39310377  1
  Rh  Rh249  1  0.40164516  0.39501830  0.40059079  1
