# generated using pymatgen
data_ZrScNbPdRh
_symmetry_space_group_name_H-M   'P 1'
_cell_length_a   16.55637158
_cell_length_b   16.55493955
_cell_length_c   16.55598148
_cell_angle_alpha   90.00385550
_cell_angle_beta   90.02350448
_cell_angle_gamma   89.99742156
_symmetry_Int_Tables_number   1
_chemical_formula_structural   ZrScNbPdRh
_chemical_formula_sum   'Zr50 Sc50 Nb50 Pd50 Rh50'
_cell_volume   4537.82410997
_cell_formula_units_Z   50
loop_
 _symmetry_equiv_pos_site_id
 _symmetry_equiv_pos_as_xyz
  1  'x, y, z'
loop_
 _atom_site_type_symbol
 _atom_site_label
 _atom_site_symmetry_multiplicity
 _atom_site_fract_x
 _atom_site_fract_y
 _atom_site_fract_z
 _atom_site_occupancy
  Zr  Zr0  1  0.09920536  0.50111974  0.30091111  1
  Zr  Zr1  1  0.10717275  0.30165791  0.90414066  1
  Zr  Zr2  1  0.10198044  0.29853191  0.10155277  1
  Zr  Zr3  1  0.09467989  0.69224401  0.30053818  1
  Zr  Zr4  1  0.89535600  0.49202457  0.50115693  1
  Zr  Zr5  1  0.29289593  0.90790093  0.90874457  1
  Zr  Zr6  1  0.70976610  0.89277873  0.10982929  1
  Zr  Zr7  1  0.69254210  0.49501573  0.49397874  1
  Zr  Zr8  1  0.10303568  0.29540015  0.29910725  1
  Zr  Zr9  1  0.50313128  0.10368198  0.09975172  1
  Zr  Zr10  1  0.29730959  0.89495669  0.10370006  1
  Zr  Zr11  1  0.50259888  0.49940401  0.89707819  1
  Zr  Zr12  1  0.91010307  0.09773815  0.49521960  1
  Zr  Zr13  1  0.29959108  0.50004028  0.49333662  1
  Zr  Zr14  1  0.90382461  0.30307504  0.68988418  1
  Zr  Zr15  1  0.70141700  0.30535095  0.50184776  1
  Zr  Zr16  1  0.90845109  0.90067976  0.10528197  1
  Zr  Zr17  1  0.50279870  0.89769514  0.50546825  1
  Zr  Zr18  1  0.29716060  0.10248955  0.49784544  1
  Zr  Zr19  1  0.69811784  0.29370614  0.69397974  1
  Zr  Zr20  1  0.89983920  0.69714787  0.30509284  1
  Zr  Zr21  1  0.29538713  0.69795342  0.50075532  1
  Zr  Zr22  1  0.29532157  0.90133972  0.30452656  1
  Zr  Zr23  1  0.10017481  0.89538853  0.09533713  1
  Zr  Zr24  1  0.30822139  0.49051393  0.29923127  1
  Zr  Zr25  1  0.89551335  0.90606868  0.29870633  1
  Zr  Zr26  1  0.30769612  0.90314941  0.70610160  1
  Zr  Zr27  1  0.50167688  0.70304764  0.70406904  1
  Zr  Zr28  1  0.30482255  0.29258321  0.30480013  1
  Zr  Zr29  1  0.51790236  0.29479568  0.09129756  1
  Zr  Zr30  1  0.30185891  0.10016608  0.09354250  1
  Zr  Zr31  1  0.10158131  0.49835616  0.89136733  1
  Zr  Zr32  1  0.69774770  0.09630397  0.70312219  1
  Zr  Zr33  1  0.08792017  0.70127920  0.69437935  1
  Zr  Zr34  1  0.89296302  0.30962583  0.09685225  1
  Zr  Zr35  1  0.09976548  0.69746889  0.50567501  1
  Zr  Zr36  1  0.69978298  0.70554570  0.29595489  1
  Zr  Zr37  1  0.49049632  0.90233044  0.89343857  1
  Zr  Zr38  1  0.10263119  0.30329558  0.69960965  1
  Zr  Zr39  1  0.29417016  0.69998123  0.09269470  1
  Zr  Zr40  1  0.30823803  0.29447751  0.89587594  1
  Zr  Zr41  1  0.09542384  0.91014180  0.89761859  1
  Zr  Zr42  1  0.89842602  0.10064700  0.69988593  1
  Zr  Zr43  1  0.90807572  0.89594051  0.70323531  1
  Zr  Zr44  1  0.09369585  0.09149350  0.70508455  1
  Zr  Zr45  1  0.50254590  0.49693588  0.30356818  1
  Zr  Zr46  1  0.70593809  0.89547649  0.30423284  1
  Zr  Zr47  1  0.50957981  0.70228413  0.49554745  1
  Zr  Zr48  1  0.69325371  0.10863643  0.50353426  1
  Zr  Zr49  1  0.30788779  0.50396368  0.09886208  1
  Sc  Sc50  1  0.09627046  0.50704056  0.08730067  1
  Sc  Sc51  1  0.89044193  0.29720805  0.90322182  1
  Sc  Sc52  1  0.09765640  0.29811468  0.50182048  1
  Sc  Sc53  1  0.69788585  0.30523292  0.29338911  1
  Sc  Sc54  1  0.49930100  0.11914378  0.30329448  1
  Sc  Sc55  1  0.70954437  0.90143608  0.89293909  1
  Sc  Sc56  1  0.30642976  0.69869319  0.90040118  1
  Sc  Sc57  1  0.69364027  0.90244082  0.69790736  1
  Sc  Sc58  1  0.50630829  0.69647160  0.29995749  1
  Sc  Sc59  1  0.09804478  0.70096256  0.10202525  1
  Sc  Sc60  1  0.90486205  0.70605003  0.10375498  1
  Sc  Sc61  1  0.70358508  0.48810977  0.10418085  1
  Sc  Sc62  1  0.70437789  0.70652802  0.50315803  1
  Sc  Sc63  1  0.30085036  0.29336049  0.09671615  1
  Sc  Sc64  1  0.10223045  0.09745814  0.10703399  1
  Sc  Sc65  1  0.70345440  0.09983638  0.29818856  1
  Sc  Sc66  1  0.50488022  0.30078181  0.49986291  1
  Sc  Sc67  1  0.70594110  0.69749957  0.69817668  1
  Sc  Sc68  1  0.29594148  0.69891140  0.70419132  1
  Sc  Sc69  1  0.29980176  0.69445049  0.29839796  1
  Sc  Sc70  1  0.69663311  0.50364718  0.88814694  1
  Sc  Sc71  1  0.48940085  0.30299170  0.70366416  1
  Sc  Sc72  1  0.89641201  0.89930061  0.49752398  1
  Sc  Sc73  1  0.70158336  0.50407217  0.29938746  1
  Sc  Sc74  1  0.49142678  0.70095745  0.10408909  1
  Sc  Sc75  1  0.50465266  0.49609498  0.49502718  1
  Sc  Sc76  1  0.90398125  0.50320071  0.89808820  1
  Sc  Sc77  1  0.49139217  0.89342787  0.10138517  1
  Sc  Sc78  1  0.29627493  0.50463454  0.89847197  1
  Sc  Sc79  1  0.50280070  0.49731529  0.70238783  1
  Sc  Sc80  1  0.89900912  0.50271629  0.29338103  1
  Sc  Sc81  1  0.29720715  0.29757341  0.50512318  1
  Sc  Sc82  1  0.10174360  0.10243485  0.49759074  1
  Sc  Sc83  1  0.09911641  0.90681472  0.29232708  1
  Sc  Sc84  1  0.10449468  0.50000972  0.50127700  1
  Sc  Sc85  1  0.50075454  0.88074589  0.29979558  1
  Sc  Sc86  1  0.49839746  0.10603395  0.51010174  1
  Sc  Sc87  1  0.91182236  0.30804419  0.29493534  1
  Sc  Sc88  1  0.50104308  0.49831029  0.10631124  1
  Sc  Sc89  1  0.30691413  0.10427709  0.69633970  1
  Sc  Sc90  1  0.70349446  0.09763844  0.89465235  1
  Sc  Sc91  1  0.10465041  0.69599211  0.90594223  1
  Sc  Sc92  1  0.90184832  0.09601757  0.89036144  1
  Sc  Sc93  1  0.29442149  0.49343549  0.70465346  1
  Sc  Sc94  1  0.10293652  0.10339906  0.30482341  1
  Sc  Sc95  1  0.49542086  0.30637197  0.29674482  1
  Sc  Sc96  1  0.89040622  0.70763094  0.88733400  1
  Sc  Sc97  1  0.69688842  0.50496278  0.69535506  1
  Sc  Sc98  1  0.30024054  0.30086907  0.69969755  1
  Sc  Sc99  1  0.48673827  0.10201429  0.90557770  1
  Nb  Nb100  1  0.29180852  0.10188443  0.90612117  1
  Nb  Nb101  1  0.89539244  0.69574743  0.68751896  1
  Nb  Nb102  1  0.89980985  0.29886552  0.49717144  1
  Nb  Nb103  1  0.90261176  0.50406226  0.70522095  1
  Nb  Nb104  1  0.70081180  0.89791404  0.49920857  1
  Nb  Nb105  1  0.89721983  0.09766257  0.10529003  1
  Nb  Nb106  1  0.69724384  0.10189770  0.10010997  1
  Nb  Nb107  1  0.89583288  0.90113181  0.90522593  1
  Nb  Nb108  1  0.10411284  0.09753776  0.90023507  1
  Nb  Nb109  1  0.70266347  0.29021839  0.08878640  1
  Nb  Nb110  1  0.70030709  0.70192719  0.89909113  1
  Nb  Nb111  1  0.49831779  0.90587426  0.70215278  1
  Nb  Nb112  1  0.90132128  0.09989013  0.29724371  1
  Nb  Nb113  1  0.70230593  0.70549951  0.09632198  1
  Nb  Nb114  1  0.30053252  0.90292928  0.50241680  1
  Nb  Nb115  1  0.50355026  0.30173101  0.89901522  1
  Nb  Nb116  1  0.90053631  0.70316549  0.50972944  1
  Nb  Nb117  1  0.10007578  0.89920407  0.50677700  1
  Nb  Nb118  1  0.89659783  0.50281921  0.09677454  1
  Nb  Nb119  1  0.10098061  0.89923862  0.69945330  1
  Nb  Nb120  1  0.50431720  0.09119794  0.70499507  1
  Nb  Nb121  1  0.50335399  0.69619336  0.89837128  1
  Nb  Nb122  1  0.68804356  0.30239155  0.91017690  1
  Nb  Nb123  1  0.08615862  0.49339068  0.70723310  1
  Nb  Nb124  1  0.29893737  0.10111921  0.30526938  1
  Nb  Nb125  1  0.59551263  0.80061689  0.80431522  1
  Nb  Nb126  1  0.00365415  0.79982610  0.40626372  1
  Nb  Nb127  1  0.59551596  -0.00231927  0.39754674  1
  Nb  Nb128  1  -0.00130622  0.19562016  0.00228487  1
  Nb  Nb129  1  0.40214638  0.80062212  0.60148381  1
  Nb  Nb130  1  0.19462293  0.80824110  0.79800930  1
  Nb  Nb131  1  0.40288063  0.00104266  0.39779227  1
  Nb  Nb132  1  0.20252854  0.40039976  0.19951453  1
  Nb  Nb133  1  0.40109730  0.00386329  0.20979676  1
  Nb  Nb134  1  0.40793868  0.39615569  -0.00419037  1
  Nb  Nb135  1  0.79931330  0.39855443  0.79424920  1
  Nb  Nb136  1  0.19867795  0.19325811  0.80473657  1
  Nb  Nb137  1  0.60300927  0.79833659  -0.00545400  1
  Nb  Nb138  1  0.60519409  -0.00563808  0.00511184  1
  Nb  Nb139  1  0.59617150  -0.00111964  0.20230454  1
  Nb  Nb140  1  0.80228699  -0.00109481  0.00697285  1
  Nb  Nb141  1  0.59334773  0.20064733  0.80282226  1
  Nb  Nb142  1  0.79377986  0.60555460  0.00079174  1
  Nb  Nb143  1  0.40056955  0.60350802  0.59750037  1
  Nb  Nb144  1  0.79883377  0.00096658  0.59749048  1
  Nb  Nb145  1  0.19850352  -0.00659322  0.60123496  1
  Nb  Nb146  1  0.60499478  0.60786323  -0.00030803  1
  Nb  Nb147  1  0.80238956  0.19945170  0.19512714  1
  Nb  Nb148  1  0.19365022  0.80347780  0.40733427  1
  Nb  Nb149  1  0.80961944  0.20330773  0.39605972  1
  Pd  Pd150  1  0.00609495  0.41133925  0.19109754  1
  Pd  Pd151  1  0.39906744  0.20041910  0.19584308  1
  Pd  Pd152  1  0.79950172  0.60219812  0.19118653  1
  Pd  Pd153  1  0.00433525  0.79537621  0.80658320  1
  Pd  Pd154  1  -0.01175475  0.60971415  -0.00478277  1
  Pd  Pd155  1  0.40237587  0.40792095  0.59648486  1
  Pd  Pd156  1  0.39336478  0.80028341  0.40274040  1
  Pd  Pd157  1  0.60339722  0.39753257  0.19749350  1
  Pd  Pd158  1  0.79216295  0.41363067  -0.01214380  1
  Pd  Pd159  1  0.19438815  0.60727623  0.79464230  1
  Pd  Pd160  1  0.21177345  0.40465809  0.00395170  1
  Pd  Pd161  1  -0.00157921  0.58758613  0.59599525  1
  Pd  Pd162  1  0.19930236  0.39458021  0.39703372  1
  Pd  Pd163  1  0.19882760  0.59237833  0.19722878  1
  Pd  Pd164  1  0.19546932  0.79416048  0.20872477  1
  Pd  Pd165  1  -0.00305213  0.79261561  -0.00904051  1
  Pd  Pd166  1  0.79809256  0.40688092  0.60695638  1
  Pd  Pd167  1  0.60589274  0.39268790  0.79153176  1
  Pd  Pd168  1  0.79151548  0.20880338  0.80497749  1
  Pd  Pd169  1  0.39755828  0.59397028  0.79250421  1
  Pd  Pd170  1  0.20112834  0.58969050  0.61164974  1
  Pd  Pd171  1  -0.00615649  0.59893727  0.41125483  1
  Pd  Pd172  1  0.00859799  -0.00598434  0.39693722  1
  Pd  Pd173  1  0.40211245  0.79709175  -0.00334635  1
  Pd  Pd174  1  0.79426870  0.80328280  0.78885466  1
  Pd  Pd175  1  0.80504594  0.18826756  -0.00160619  1
  Pd  Pd176  1  -0.00430315  0.19644854  0.19593319  1
  Pd  Pd177  1  0.60356915  0.60117651  0.19225408  1
  Pd  Pd178  1  0.80295836  0.39471767  0.38776830  1
  Pd  Pd179  1  0.20741173  0.80422016  0.60491961  1
  Pd  Pd180  1  0.40454843  0.60081198  0.40213144  1
  Pd  Pd181  1  0.60702656  0.20405201  0.39329327  1
  Pd  Pd182  1  0.19693429  0.40482580  0.60171377  1
  Pd  Pd183  1  0.00421395  0.20637871  0.80856489  1
  Pd  Pd184  1  0.79639001  0.60324020  0.40742671  1
  Pd  Pd185  1  -0.01019708  0.39032686  0.80733961  1
  Pd  Pd186  1  0.59639625  0.59957444  0.59876280  1
  Pd  Pd187  1  -0.00406236  0.00884723  0.00034624  1
  Pd  Pd188  1  0.00214961  0.40068910  0.40345452  1
  Pd  Pd189  1  0.39198304  0.01188969  0.80493594  1
  Pd  Pd190  1  0.60429397  -0.00141105  0.59413956  1
  Pd  Pd191  1  0.79189916  0.01013666  0.40769735  1
  Pd  Pd192  1  0.80614225  0.19358302  0.59159910  1
  Pd  Pd193  1  -0.00216477  0.39670036  -0.00451681  1
  Pd  Pd194  1  0.40323402  0.20248170  0.60278377  1
  Pd  Pd195  1  0.40310145  0.60525644  0.20395689  1
  Pd  Pd196  1  0.00607877  0.19900450  0.59767263  1
  Pd  Pd197  1  0.20416065  0.00603021  0.19846567  1
  Pd  Pd198  1  -0.00436309  0.61117765  0.80452527  1
  Pd  Pd199  1  0.79723862  0.59364152  0.59463523  1
  Rh  Rh200  1  0.20143737  -0.00320395  0.40804072  1
  Rh  Rh201  1  0.59828285  0.80253481  0.61021353  1
  Rh  Rh202  1  0.80112675  0.80956735  0.60307003  1
  Rh  Rh203  1  0.39367183  0.79618209  0.20464649  1
  Rh  Rh204  1  -0.00633726  -0.00303268  0.80250598  1
  Rh  Rh205  1  0.40980934  0.59222119  -0.00001568  1
  Rh  Rh206  1  0.40087093  0.19908546  0.40810135  1
  Rh  Rh207  1  0.00100741  0.40442513  0.59575254  1
  Rh  Rh208  1  0.39633328  0.40485199  0.80723999  1
  Rh  Rh209  1  0.20602189  0.00381961  0.79213201  1
  Rh  Rh210  1  0.19363467  0.19022270  0.61082080  1
  Rh  Rh211  1  0.19070753  0.19449995  -0.00191422  1
  Rh  Rh212  1  0.80343626  0.59471870  0.80013695  1
  Rh  Rh213  1  0.00415014  0.00380989  0.20293871  1
  Rh  Rh214  1  0.60826753  0.80147978  0.39999810  1
  Rh  Rh215  1  0.40039363  0.19463138  0.79896793  1
  Rh  Rh216  1  0.80708993  -0.00662195  0.79539588  1
  Rh  Rh217  1  0.59503001  0.00126105  0.81107759  1
  Rh  Rh218  1  0.59938431  0.39611226  0.39436837  1
  Rh  Rh219  1  0.00014150  0.80107049  0.21195603  1
  Rh  Rh220  1  0.20162627  0.39342321  0.79811624  1
  Rh  Rh221  1  0.39598448  0.39116075  0.18696144  1
  Rh  Rh222  1  0.20521429  0.20219241  0.20268772  1
  Rh  Rh223  1  0.40143865  -0.00308204  0.01008196  1
  Rh  Rh224  1  0.59943895  0.41184380  0.00194885  1
  Rh  Rh225  1  0.58617903  0.20333942  0.61561817  1
  Rh  Rh226  1  0.20019541  0.60013928  -0.00121795  1
  Rh  Rh227  1  -0.00330317  0.20391919  0.39631088  1
  Rh  Rh228  1  -0.00729677  0.80512396  0.59519151  1
  Rh  Rh229  1  0.59626149  0.39863779  0.60277610  1
  Rh  Rh230  1  -0.00269350  0.59503571  0.19202268  1
  Rh  Rh231  1  0.19983861  0.60282739  0.39557280  1
  Rh  Rh232  1  0.19453511  0.00188916  0.00883181  1
  Rh  Rh233  1  0.19703639  0.79908674  -0.00834106  1
  Rh  Rh234  1  0.79869540  0.39517089  0.19991234  1
  Rh  Rh235  1  -0.00096339  -0.00310241  0.59961757  1
  Rh  Rh236  1  0.60194440  0.18631336  -0.01389363  1
  Rh  Rh237  1  0.81109447  0.79206321  0.20383626  1
  Rh  Rh238  1  0.79418630  0.00832438  0.19732937  1
  Rh  Rh239  1  0.39939226  0.79727113  0.79798411  1
  Rh  Rh240  1  0.40103651  0.39321984  0.40972587  1
  Rh  Rh241  1  0.80744325  0.79336762  0.40533755  1
  Rh  Rh242  1  0.80233788  0.80321090  0.00056187  1
  Rh  Rh243  1  0.19791002  0.20352235  0.40285829  1
  Rh  Rh244  1  0.61060906  0.20034906  0.20377900  1
  Rh  Rh245  1  0.60832682  0.60251369  0.39790344  1
  Rh  Rh246  1  0.40409388  0.20770226  0.00021866  1
  Rh  Rh247  1  0.59591507  0.80141098  0.19218107  1
  Rh  Rh248  1  0.39773765  -0.00252230  0.59566016  1
  Rh  Rh249  1  0.60394952  0.60837879  0.79997030  1
