# generated using pymatgen
data_ZrScNbPdRh
_symmetry_space_group_name_H-M   'P 1'
_cell_length_a   16.56472470
_cell_length_b   16.55870686
_cell_length_c   16.56165189
_cell_angle_alpha   90.02676358
_cell_angle_beta   89.98537689
_cell_angle_gamma   90.05491165
_symmetry_Int_Tables_number   1
_chemical_formula_structural   ZrScNbPdRh
_chemical_formula_sum   'Zr50 Sc50 Nb50 Pd50 Rh50'
_cell_volume   4542.69973067
_cell_formula_units_Z   50
loop_
 _symmetry_equiv_pos_site_id
 _symmetry_equiv_pos_as_xyz
  1  'x, y, z'
loop_
 _atom_site_type_symbol
 _atom_site_label
 _atom_site_symmetry_multiplicity
 _atom_site_fract_x
 _atom_site_fract_y
 _atom_site_fract_z
 _atom_site_occupancy
  Zr  Zr0  1  0.69192659  0.90562861  0.70332969  1
  Zr  Zr1  1  0.89104677  0.90182450  0.89661363  1
  Zr  Zr2  1  0.89435913  0.50252443  0.70994138  1
  Zr  Zr3  1  0.90070486  0.10225209  0.50058547  1
  Zr  Zr4  1  0.10282758  0.30084601  0.89338513  1
  Zr  Zr5  1  0.09899577  0.10011719  0.70634170  1
  Zr  Zr6  1  0.10619663  0.49753164  0.70118266  1
  Zr  Zr7  1  0.50120619  0.50020355  0.91407698  1
  Zr  Zr8  1  0.30044989  0.69795584  0.30370187  1
  Zr  Zr9  1  0.50655622  0.69065285  0.09176581  1
  Zr  Zr10  1  0.69233042  0.50135928  0.10460674  1
  Zr  Zr11  1  0.30581525  0.89099968  0.89454267  1
  Zr  Zr12  1  0.09153428  0.10286618  0.09845898  1
  Zr  Zr13  1  0.69726254  0.90104605  0.29216628  1
  Zr  Zr14  1  0.49818253  0.89713389  0.90237749  1
  Zr  Zr15  1  0.70049236  0.69361920  0.69360153  1
  Zr  Zr16  1  0.89658792  0.69903683  0.90126795  1
  Zr  Zr17  1  0.90664890  0.88857787  0.10379839  1
  Zr  Zr18  1  0.29572209  0.50380147  0.49932188  1
  Zr  Zr19  1  0.30417777  0.90245360  0.31528722  1
  Zr  Zr20  1  0.10058026  0.89152306  0.90308285  1
  Zr  Zr21  1  0.29580300  0.69566675  0.10072317  1
  Zr  Zr22  1  0.50708093  0.30162206  0.89778420  1
  Zr  Zr23  1  0.69959341  0.70355948  0.90451087  1
  Zr  Zr24  1  0.89762869  0.70441455  0.69533441  1
  Zr  Zr25  1  0.69975924  0.29160851  0.89651357  1
  Zr  Zr26  1  0.09689992  0.09543322  0.30798437  1
  Zr  Zr27  1  0.10302555  0.49703279  0.30032389  1
  Zr  Zr28  1  0.90471093  0.09908046  0.10406993  1
  Zr  Zr29  1  0.09471054  0.71144335  0.09160056  1
  Zr  Zr30  1  0.31022811  0.10394588  0.10677106  1
  Zr  Zr31  1  0.09724494  0.10489578  0.49704471  1
  Zr  Zr32  1  0.10419534  0.70097501  0.70356694  1
  Zr  Zr33  1  0.29749509  0.09242879  0.69772806  1
  Zr  Zr34  1  0.90316991  0.09980925  0.89787243  1
  Zr  Zr35  1  0.50543744  0.29609310  0.70609201  1
  Zr  Zr36  1  0.90662412  0.89821624  0.49935188  1
  Zr  Zr37  1  0.29926972  0.29717769  0.49873807  1
  Zr  Zr38  1  0.50898467  0.10370908  0.49317738  1
  Zr  Zr39  1  0.30785836  0.70800179  0.49065591  1
  Zr  Zr40  1  0.70079237  0.29730025  0.70915393  1
  Zr  Zr41  1  0.90135461  0.30208723  0.89766773  1
  Zr  Zr42  1  0.29728965  0.50737109  0.29597854  1
  Zr  Zr43  1  0.10294296  0.89990102  0.70490209  1
  Zr  Zr44  1  0.29526679  0.50442788  0.69622359  1
  Zr  Zr45  1  0.50384006  0.90311650  0.10043890  1
  Zr  Zr46  1  0.09614553  0.09966449  0.89787360  1
  Zr  Zr47  1  0.50482048  0.09646801  0.70238854  1
  Zr  Zr48  1  0.10487675  0.70227736  0.29865607  1
  Zr  Zr49  1  0.10657073  0.70103633  0.89692482  1
  Sc  Sc50  1  0.29740267  0.10383657  0.89367311  1
  Sc  Sc51  1  0.31235928  0.90120575  0.08969429  1
  Sc  Sc52  1  0.30103644  0.30699896  0.71117886  1
  Sc  Sc53  1  0.49886586  0.29353493  0.09324116  1
  Sc  Sc54  1  0.30017133  0.29758404  0.30383612  1
  Sc  Sc55  1  0.70005021  0.11032528  0.50056469  1
  Sc  Sc56  1  0.89750701  0.70661161  0.29991197  1
  Sc  Sc57  1  0.89584017  0.29473914  0.49746076  1
  Sc  Sc58  1  0.69511523  0.30214902  0.10661357  1
  Sc  Sc59  1  0.29677029  0.08885873  0.49243353  1
  Sc  Sc60  1  0.30026576  0.49701914  0.09788876  1
  Sc  Sc61  1  0.49317375  0.50241805  0.69752556  1
  Sc  Sc62  1  0.50279265  0.30120070  0.49108681  1
  Sc  Sc63  1  0.70045541  0.70344805  0.09949242  1
  Sc  Sc64  1  0.51085254  0.10295263  0.90617139  1
  Sc  Sc65  1  0.70121783  0.10395142  0.69734442  1
  Sc  Sc66  1  0.09388416  0.30843040  0.49850898  1
  Sc  Sc67  1  0.10777445  0.49309106  0.10480015  1
  Sc  Sc68  1  0.50103253  0.70386073  0.49574826  1
  Sc  Sc69  1  0.29646065  0.49917049  0.90150297  1
  Sc  Sc70  1  0.10200291  0.30495090  0.30263783  1
  Sc  Sc71  1  0.69246566  0.09407368  0.10015347  1
  Sc  Sc72  1  0.30133754  0.69971020  0.90134164  1
  Sc  Sc73  1  0.49508174  0.89623708  0.50023442  1
  Sc  Sc74  1  0.89878964  0.48912312  0.49614770  1
  Sc  Sc75  1  0.69916555  0.30313115  0.30858331  1
  Sc  Sc76  1  0.69919030  0.69826557  0.29770957  1
  Sc  Sc77  1  0.89682665  0.29135482  0.70211381  1
  Sc  Sc78  1  0.70321066  0.90315779  0.10451421  1
  Sc  Sc79  1  0.89820622  0.90158769  0.69381138  1
  Sc  Sc80  1  0.70608361  0.50236647  0.49120527  1
  Sc  Sc81  1  0.69192180  0.09970191  0.30009991  1
  Sc  Sc82  1  0.90247745  0.90198428  0.29027003  1
  Sc  Sc83  1  0.49828749  0.69673873  0.30040358  1
  Sc  Sc84  1  0.69757046  0.69843835  0.49831223  1
  Sc  Sc85  1  0.50075362  0.10327342  0.10448421  1
  Sc  Sc86  1  0.09717176  0.90554240  0.48950864  1
  Sc  Sc87  1  0.09486716  0.71564698  0.49693118  1
  Sc  Sc88  1  0.30579063  0.10059828  0.30730050  1
  Sc  Sc89  1  0.89706225  0.30699559  0.30287839  1
  Sc  Sc90  1  0.49138569  0.49451773  0.49588980  1
  Sc  Sc91  1  0.70114209  0.49127525  0.89320207  1
  Sc  Sc92  1  0.49455140  0.70195404  0.69300934  1
  Sc  Sc93  1  0.68355622  0.90307540  0.49468663  1
  Sc  Sc94  1  0.30779417  0.30689520  0.90406256  1
  Sc  Sc95  1  0.70083021  0.48946660  0.29791622  1
  Sc  Sc96  1  0.09181326  0.30570359  0.10720998  1
  Sc  Sc97  1  0.89428064  0.70341575  0.50005334  1
  Sc  Sc98  1  0.88982950  0.49215702  0.30678627  1
  Sc  Sc99  1  0.30162008  0.69719725  0.70523215  1
  Nb  Nb100  1  0.69617580  0.91127289  0.89936806  1
  Nb  Nb101  1  0.50471308  0.49769960  0.10796743  1
  Nb  Nb102  1  0.09914506  0.89566696  0.29772958  1
  Nb  Nb103  1  0.89957426  0.69585009  0.09847383  1
  Nb  Nb104  1  0.69566857  0.49921566  0.69788408  1
  Nb  Nb105  1  0.89985275  0.09964982  0.69364771  1
  Nb  Nb106  1  0.90057566  0.49260913  0.10349148  1
  Nb  Nb107  1  0.09238814  0.49866018  0.89635163  1
  Nb  Nb108  1  0.50339371  0.70166871  0.89902693  1
  Nb  Nb109  1  0.10923277  0.29937478  0.70045591  1
  Nb  Nb110  1  0.90342241  0.49763080  0.90258990  1
  Nb  Nb111  1  0.89429620  0.10121315  0.30375189  1
  Nb  Nb112  1  0.70463272  0.09144262  0.90253380  1
  Nb  Nb113  1  0.90017302  0.30040253  0.10311156  1
  Nb  Nb114  1  0.50282504  0.30177651  0.30105639  1
  Nb  Nb115  1  0.30215476  0.29813057  0.10542782  1
  Nb  Nb116  1  0.69844853  0.29566403  0.50545624  1
  Nb  Nb117  1  0.50631515  0.49519152  0.29574415  1
  Nb  Nb118  1  0.49094656  0.89960993  0.70548914  1
  Nb  Nb119  1  0.49858074  0.10172831  0.29895187  1
  Nb  Nb120  1  0.09395277  0.50058567  0.50358169  1
  Nb  Nb121  1  0.31125161  0.90128948  0.69495619  1
  Nb  Nb122  1  0.50840942  0.90417014  0.30498225  1
  Nb  Nb123  1  0.30254773  0.89913963  0.50209385  1
  Nb  Nb124  1  0.10149088  0.89940919  0.10124243  1
  Nb  Nb125  1  0.60647821  0.39887771  0.60035102  1
  Nb  Nb126  1  0.80689475  0.59709193  0.19349087  1
  Nb  Nb127  1  0.59688745  0.59245217  0.39443873  1
  Nb  Nb128  1  0.80408307  0.19887198  0.19822822  1
  Nb  Nb129  1  0.79094460  0.39791577  0.60608722  1
  Nb  Nb130  1  0.20955591  0.81025499  0.59882556  1
  Nb  Nb131  1  0.80104318  0.00040006  0.39824351  1
  Nb  Nb132  1  0.19980067  0.20041864  0.00746986  1
  Nb  Nb133  1  -0.00515008  0.59834590  0.19697231  1
  Nb  Nb134  1  0.79500626  0.81034539  0.39675241  1
  Nb  Nb135  1  0.80685740  0.39839899  0.00299393  1
  Nb  Nb136  1  0.59862735  0.60498248  0.80134797  1
  Nb  Nb137  1  0.20020068  0.19493512  0.19778347  1
  Nb  Nb138  1  0.20452128  0.80940770  0.19966913  1
  Nb  Nb139  1  -0.00505312  0.59225240  0.00034999  1
  Nb  Nb140  1  0.19863909  0.00233006  0.00531791  1
  Nb  Nb141  1  0.20162584  0.20094384  0.60343096  1
  Nb  Nb142  1  0.00011582  0.59775677  0.39992013  1
  Nb  Nb143  1  0.00252690  0.59620818  0.59658200  1
  Nb  Nb144  1  0.19842189  -0.00283554  0.19753611  1
  Nb  Nb145  1  0.59664182  0.80021874  0.80152979  1
  Nb  Nb146  1  0.40668179  0.39967369  0.20004053  1
  Nb  Nb147  1  0.39691674  0.19718794  0.60062198  1
  Nb  Nb148  1  0.40067351  0.80121206  0.20190111  1
  Nb  Nb149  1  0.80326135  0.20084279  0.00494602  1
  Pd  Pd150  1  0.00084810  0.60257680  0.79925457  1
  Pd  Pd151  1  -0.01024181  0.39983203  0.60789311  1
  Pd  Pd152  1  0.20391258  -0.00729092  0.80842588  1
  Pd  Pd153  1  0.19320958  -0.00103942  0.59410775  1
  Pd  Pd154  1  0.79848849  0.58889694  0.00300566  1
  Pd  Pd155  1  0.18947648  0.60355615  0.41212575  1
  Pd  Pd156  1  0.40292543  0.40920644  0.80187893  1
  Pd  Pd157  1  0.79117241  0.59843857  0.80533225  1
  Pd  Pd158  1  -0.00164123  0.20996143  0.39488105  1
  Pd  Pd159  1  0.39543047  0.40426826  0.39035592  1
  Pd  Pd160  1  -0.00040145  0.20716699  0.21313972  1
  Pd  Pd161  1  0.39898089  0.01092643  -0.00873921  1
  Pd  Pd162  1  0.59657532  0.00054703  0.59779067  1
  Pd  Pd163  1  0.40066711  -0.00670747  0.20803924  1
  Pd  Pd164  1  0.00630883  0.20801459  0.60299186  1
  Pd  Pd165  1  0.60394394  0.20295732  0.20365979  1
  Pd  Pd166  1  0.59237615  0.58994976  0.59220863  1
  Pd  Pd167  1  0.78838737  0.81006411  0.59000595  1
  Pd  Pd168  1  0.40168267  0.19823658  0.40301004  1
  Pd  Pd169  1  0.80283933  0.00192104  0.01038884  1
  Pd  Pd170  1  0.39860215  0.19631526  0.79885804  1
  Pd  Pd171  1  0.00511610  -0.00086522  0.60268168  1
  Pd  Pd172  1  0.60692261  0.39601664  0.00222710  1
  Pd  Pd173  1  0.20176863  0.39319537  0.59764704  1
  Pd  Pd174  1  0.80303388  0.00612340  0.79040102  1
  Pd  Pd175  1  0.59633669  0.80225689  0.60524208  1
  Pd  Pd176  1  0.19046219  0.59326492  -0.00050154  1
  Pd  Pd177  1  0.40774596  0.00686342  0.59005304  1
  Pd  Pd178  1  0.79220004  -0.00093462  0.59017976  1
  Pd  Pd179  1  0.39819357  0.19914053  -0.00671138  1
  Pd  Pd180  1  0.40527013  0.00798145  0.80875392  1
  Pd  Pd181  1  0.40484866  0.59905100  0.80446827  1
  Pd  Pd182  1  0.00216743  0.40027585  0.00261514  1
  Pd  Pd183  1  0.20160554  0.40001219  0.40193414  1
  Pd  Pd184  1  -0.00637123  0.80238801  0.79968202  1
  Pd  Pd185  1  0.00257480  -0.00115248  0.20523747  1
  Pd  Pd186  1  0.19827957  0.39311618  -0.00000604  1
  Pd  Pd187  1  0.59297108  0.79298931  0.20044755  1
  Pd  Pd188  1  -0.00023839  -0.01070411  -0.00265070  1
  Pd  Pd189  1  0.79091031  0.80348415  0.79585574  1
  Pd  Pd190  1  0.39747493  0.59827904  0.00065985  1
  Pd  Pd191  1  0.40201000  0.60534432  0.59248216  1
  Pd  Pd192  1  0.40635845  0.38962794  0.60223850  1
  Pd  Pd193  1  0.79564215  0.80699070  0.00419950  1
  Pd  Pd194  1  0.80841352  0.59065086  0.59028158  1
  Pd  Pd195  1  0.40478717  0.59858784  0.19906560  1
  Pd  Pd196  1  0.60567686  0.80856057  -0.00089467  1
  Pd  Pd197  1  0.19474401  0.61553262  0.58956004  1
  Pd  Pd198  1  -0.00212374  0.20129336  0.79424424  1
  Pd  Pd199  1  -0.00050919  0.39513109  0.78889933  1
  Rh  Rh200  1  0.59218167  0.20684948  0.60087736  1
  Rh  Rh201  1  0.79915009  0.00993934  0.20442681  1
  Rh  Rh202  1  0.19678618  -0.00320405  0.39738113  1
  Rh  Rh203  1  0.79419566  0.39006494  0.41241407  1
  Rh  Rh204  1  0.79810071  0.39626136  0.19408398  1
  Rh  Rh205  1  0.60142915  0.00482766  0.39701500  1
  Rh  Rh206  1  -0.00848127  -0.00446894  0.79448612  1
  Rh  Rh207  1  0.19608223  0.20120564  0.40184134  1
  Rh  Rh208  1  0.40870376  0.59246587  0.39876064  1
  Rh  Rh209  1  0.79873909  0.61059758  0.38969838  1
  Rh  Rh210  1  0.60118362  0.20378775  0.39350213  1
  Rh  Rh211  1  -0.00342342  0.40506712  0.20822185  1
  Rh  Rh212  1  0.21229702  0.80410529  0.78937197  1
  Rh  Rh213  1  -0.00803236  0.79913205  -0.00844256  1
  Rh  Rh214  1  0.00948645  0.79591630  0.60691197  1
  Rh  Rh215  1  0.18905504  0.60819759  0.19022520  1
  Rh  Rh216  1  0.59706274  -0.00169787  0.80314935  1
  Rh  Rh217  1  -0.00891939  0.80039211  0.39296321  1
  Rh  Rh218  1  -0.00092190  0.40474728  0.39684583  1
  Rh  Rh219  1  0.39582541  0.79705619  0.60198906  1
  Rh  Rh220  1  0.40131288  0.78783378  0.00745798  1
  Rh  Rh221  1  0.60777060  0.60073414  0.20702071  1
  Rh  Rh222  1  0.00478992  0.79299780  0.20340852  1
  Rh  Rh223  1  0.20524785  0.20659030  0.80080403  1
  Rh  Rh224  1  0.59270476  0.38997991  0.19930435  1
  Rh  Rh225  1  0.79501594  0.19574061  0.39366928  1
  Rh  Rh226  1  0.41183966  -0.00005336  0.40295008  1
  Rh  Rh227  1  0.60968252  0.19650579  -0.00042429  1
  Rh  Rh228  1  0.21231879  0.39087428  0.20263080  1
  Rh  Rh229  1  0.79962451  0.18789171  0.80453126  1
  Rh  Rh230  1  0.40282209  0.40114989  0.01041802  1
  Rh  Rh231  1  0.00155994  0.21044348  -0.00452401  1
  Rh  Rh232  1  0.79915599  0.79253013  0.20043915  1
  Rh  Rh233  1  0.80231059  0.20399529  0.60176454  1
  Rh  Rh234  1  0.21010116  0.80824768  0.00512413  1
  Rh  Rh235  1  0.40103828  0.20999641  0.21018882  1
  Rh  Rh236  1  0.58948510  0.41363776  0.79339870  1
  Rh  Rh237  1  0.60280248  0.40372067  0.40744093  1
  Rh  Rh238  1  0.59294834  0.00451734  0.20018926  1
  Rh  Rh239  1  0.40421680  0.79303595  0.79666480  1
  Rh  Rh240  1  0.59913630  -0.00167718  0.00297300  1
  Rh  Rh241  1  0.60166008  0.79025111  0.39623991  1
  Rh  Rh242  1  -0.00911821  -0.00385557  0.39372901  1
  Rh  Rh243  1  0.41101418  0.80503531  0.39295725  1
  Rh  Rh244  1  0.20090160  0.59446467  0.80756637  1
  Rh  Rh245  1  0.60718357  0.18537141  0.80428307  1
  Rh  Rh246  1  0.19912455  0.80752119  0.40247260  1
  Rh  Rh247  1  0.20230459  0.40512263  0.80507014  1
  Rh  Rh248  1  0.60732798  0.59635799  -0.00595950  1
  Rh  Rh249  1  0.80171410  0.40131464  0.80052981  1
