# generated using pymatgen
data_ZrScNbPdRh
_symmetry_space_group_name_H-M   'P 1'
_cell_length_a   16.55537615
_cell_length_b   16.55848701
_cell_length_c   16.55447766
_cell_angle_alpha   90.01913987
_cell_angle_beta   90.02141329
_cell_angle_gamma   89.98270932
_symmetry_Int_Tables_number   1
_chemical_formula_structural   ZrScNbPdRh
_chemical_formula_sum   'Zr50 Sc50 Nb50 Pd50 Rh50'
_cell_volume   4538.11097796
_cell_formula_units_Z   50
loop_
 _symmetry_equiv_pos_site_id
 _symmetry_equiv_pos_as_xyz
  1  'x, y, z'
loop_
 _atom_site_type_symbol
 _atom_site_label
 _atom_site_symmetry_multiplicity
 _atom_site_fract_x
 _atom_site_fract_y
 _atom_site_fract_z
 _atom_site_occupancy
  Zr  Zr0  1  0.09593945  0.10103528  0.70025125  1
  Zr  Zr1  1  0.50139293  0.69498280  0.49916160  1
  Zr  Zr2  1  0.10054746  0.50548206  0.09423954  1
  Zr  Zr3  1  0.89920241  0.89712754  0.09069553  1
  Zr  Zr4  1  0.30565076  0.50749594  0.70088159  1
  Zr  Zr5  1  0.09973007  0.89129904  0.69501054  1
  Zr  Zr6  1  0.50791232  0.09643352  0.69631576  1
  Zr  Zr7  1  0.69572501  0.10856266  0.70129265  1
  Zr  Zr8  1  0.30286423  0.50175606  0.50010402  1
  Zr  Zr9  1  0.69468040  0.69284355  0.90519369  1
  Zr  Zr10  1  0.89602058  0.90084116  0.89689808  1
  Zr  Zr11  1  0.90162731  0.09560458  0.89696490  1
  Zr  Zr12  1  0.49889160  0.50183837  0.49824391  1
  Zr  Zr13  1  0.50217774  0.50276143  0.89887936  1
  Zr  Zr14  1  0.09642039  0.11253701  0.89759000  1
  Zr  Zr15  1  0.30647026  0.30190002  0.10085176  1
  Zr  Zr16  1  0.70109451  0.70842073  0.70843438  1
  Zr  Zr17  1  0.89725416  0.30117093  0.10061519  1
  Zr  Zr18  1  0.70095882  0.50584164  0.49460752  1
  Zr  Zr19  1  0.09678759  0.69376987  0.09882499  1
  Zr  Zr20  1  0.89433394  0.70810659  0.90395268  1
  Zr  Zr21  1  0.89845900  0.49871271  0.50264905  1
  Zr  Zr22  1  0.70197643  0.09404262  0.29051002  1
  Zr  Zr23  1  0.49333002  0.30193039  0.49647049  1
  Zr  Zr24  1  0.29861287  0.90207789  0.30275086  1
  Zr  Zr25  1  0.30525057  0.48858710  0.89367452  1
  Zr  Zr26  1  0.49121432  0.30472438  0.90623437  1
  Zr  Zr27  1  0.49297781  0.30284956  0.30261284  1
  Zr  Zr28  1  0.70146735  0.29827239  0.90064800  1
  Zr  Zr29  1  0.09421593  0.29761457  0.69954817  1
  Zr  Zr30  1  0.29239243  0.89094658  0.09813866  1
  Zr  Zr31  1  0.90494830  0.70588893  0.71007009  1
  Zr  Zr32  1  0.09924859  0.30052708  0.08513848  1
  Zr  Zr33  1  0.89610279  0.90318607  0.69625522  1
  Zr  Zr34  1  0.30110525  0.89414230  0.89865673  1
  Zr  Zr35  1  0.49559178  0.10256188  0.50646026  1
  Zr  Zr36  1  0.09669568  0.90463773  0.10521912  1
  Zr  Zr37  1  0.30132803  0.89964385  0.50398441  1
  Zr  Zr38  1  0.50779977  0.90487695  0.29513638  1
  Zr  Zr39  1  0.29896987  0.10540275  0.89808787  1
  Zr  Zr40  1  0.89625769  0.68816813  0.10388806  1
  Zr  Zr41  1  0.09823809  0.50551141  0.70117240  1
  Zr  Zr42  1  0.90015791  0.29614263  0.29033516  1
  Zr  Zr43  1  0.09003633  0.69274242  0.89139100  1
  Zr  Zr44  1  0.29287368  0.70564269  0.69917475  1
  Zr  Zr45  1  0.08909032  0.09958701  0.29261857  1
  Zr  Zr46  1  0.09932767  0.48774305  0.90114800  1
  Zr  Zr47  1  0.49611183  0.29740728  0.10050250  1
  Zr  Zr48  1  0.10262899  0.70258592  0.50860671  1
  Zr  Zr49  1  0.30373150  0.70074742  0.50459419  1
  Sc  Sc50  1  0.69749691  0.89450526  0.90518241  1
  Sc  Sc51  1  0.09968882  0.90283501  0.50231894  1
  Sc  Sc52  1  0.09121903  0.89854416  0.90420237  1
  Sc  Sc53  1  0.50175647  0.09868223  0.30095457  1
  Sc  Sc54  1  0.50268001  0.28506044  0.70201855  1
  Sc  Sc55  1  0.30908089  0.50367769  0.29781309  1
  Sc  Sc56  1  0.89586296  0.31114630  0.69558484  1
  Sc  Sc57  1  0.69825905  0.90255444  0.30171338  1
  Sc  Sc58  1  0.69903244  0.90242551  0.69363708  1
  Sc  Sc59  1  0.90628501  0.50098247  0.88972504  1
  Sc  Sc60  1  0.70435151  0.69974781  0.09629665  1
  Sc  Sc61  1  0.29160970  0.29625853  0.90543140  1
  Sc  Sc62  1  0.30238263  0.29235006  0.71008254  1
  Sc  Sc63  1  0.89503854  0.51054350  0.29831019  1
  Sc  Sc64  1  0.50052471  0.69571183  0.30121755  1
  Sc  Sc65  1  0.90027836  0.09846597  0.10660241  1
  Sc  Sc66  1  0.89775336  0.09334543  0.50181196  1
  Sc  Sc67  1  0.89370574  0.91780889  0.30334426  1
  Sc  Sc68  1  0.70836023  0.49953703  0.30558982  1
  Sc  Sc69  1  0.50449362  0.70189524  0.89954668  1
  Sc  Sc70  1  0.89442660  0.69923598  0.49766995  1
  Sc  Sc71  1  0.49295293  0.49522350  0.09970886  1
  Sc  Sc72  1  0.70385827  0.29072550  0.10207759  1
  Sc  Sc73  1  0.29842837  0.11576864  0.10384816  1
  Sc  Sc74  1  0.69081950  0.90035107  0.10179811  1
  Sc  Sc75  1  0.50852227  0.90045042  0.49746673  1
  Sc  Sc76  1  0.50527675  0.10227972  0.09935965  1
  Sc  Sc77  1  0.71109299  0.30641877  0.50583619  1
  Sc  Sc78  1  0.09671503  0.69294314  0.29888074  1
  Sc  Sc79  1  0.50410616  0.89396789  0.90475233  1
  Sc  Sc80  1  0.29575010  0.69616285  0.10005222  1
  Sc  Sc81  1  0.49736798  0.50356172  0.31043275  1
  Sc  Sc82  1  0.30388486  0.69919513  0.30066083  1
  Sc  Sc83  1  0.50225395  0.69917761  0.09282932  1
  Sc  Sc84  1  0.70698530  0.50340617  0.09641684  1
  Sc  Sc85  1  0.90133346  0.30157744  0.50815326  1
  Sc  Sc86  1  0.50597500  0.09751589  0.89694798  1
  Sc  Sc87  1  0.49535329  0.69757110  0.70432602  1
  Sc  Sc88  1  0.09625042  0.50448189  0.50781334  1
  Sc  Sc89  1  0.10598129  0.28880308  0.30759020  1
  Sc  Sc90  1  0.70121434  0.70976682  0.49687304  1
  Sc  Sc91  1  0.10107048  0.90561193  0.29785156  1
  Sc  Sc92  1  0.09915201  0.11083082  0.50310668  1
  Sc  Sc93  1  0.71329587  0.49527358  0.71329968  1
  Sc  Sc94  1  0.70266714  0.09574452  0.51104539  1
  Sc  Sc95  1  0.69785526  0.09518716  0.90566679  1
  Sc  Sc96  1  0.70585160  0.69785131  0.29852841  1
  Sc  Sc97  1  0.30002509  0.70479450  0.89567735  1
  Sc  Sc98  1  0.30966461  0.09737416  0.69152609  1
  Sc  Sc99  1  0.50270535  0.90060961  0.70374806  1
  Nb  Nb100  1  0.10599432  0.30566442  0.50198427  1
  Nb  Nb101  1  0.09729756  0.09594673  0.09852312  1
  Nb  Nb102  1  0.30117785  0.29201213  0.30192953  1
  Nb  Nb103  1  0.69602583  0.09976331  0.09938828  1
  Nb  Nb104  1  0.90152118  0.10534377  0.30022722  1
  Nb  Nb105  1  0.10215086  0.70168121  0.70059441  1
  Nb  Nb106  1  0.90121557  0.69994712  0.29626873  1
  Nb  Nb107  1  0.09322021  0.29895735  0.89644629  1
  Nb  Nb108  1  0.90210426  0.49696297  0.69496936  1
  Nb  Nb109  1  0.70349205  0.30046496  0.70349213  1
  Nb  Nb110  1  0.90347077  0.49644723  0.10329424  1
  Nb  Nb111  1  0.49614844  0.89880256  0.09680968  1
  Nb  Nb112  1  0.29692997  0.50124045  0.09801009  1
  Nb  Nb113  1  0.10094884  0.49813792  0.30067235  1
  Nb  Nb114  1  0.69883426  0.49543670  0.90183301  1
  Nb  Nb115  1  0.71549982  0.90260365  0.50322975  1
  Nb  Nb116  1  0.90988724  0.30217437  0.89786569  1
  Nb  Nb117  1  0.88580727  0.89995954  0.49959799  1
  Nb  Nb118  1  0.29713922  0.29079122  0.48777208  1
  Nb  Nb119  1  0.30377034  0.10371878  0.49448151  1
  Nb  Nb120  1  0.29342653  0.89943854  0.70538579  1
  Nb  Nb121  1  0.29691402  0.11156371  0.30218058  1
  Nb  Nb122  1  0.89733225  0.10260762  0.70283442  1
  Nb  Nb123  1  0.49546234  0.49645840  0.70252420  1
  Nb  Nb124  1  0.70449407  0.29980467  0.29522786  1
  Nb  Nb125  1  0.39819311  0.39550766  0.59990857  1
  Nb  Nb126  1  0.80552524  0.40032823  -0.00505463  1
  Nb  Nb127  1  0.20574807  0.39420646  0.59625549  1
  Nb  Nb128  1  0.39548989  0.59496686  -0.00234759  1
  Nb  Nb129  1  0.79831786  0.60080706  0.60732575  1
  Nb  Nb130  1  0.39425702  -0.00335660  0.00582609  1
  Nb  Nb131  1  -0.00756768  0.79801417  0.20428032  1
  Nb  Nb132  1  0.00601181  0.40094122  0.39684293  1
  Nb  Nb133  1  0.60327214  0.39966027  0.20396359  1
  Nb  Nb134  1  -0.00776164  0.80211893  0.39574243  1
  Nb  Nb135  1  0.60106696  0.39808216  0.79928084  1
  Nb  Nb136  1  0.19950672  0.00539907  -0.00078937  1
  Nb  Nb137  1  0.60466989  0.59389468  0.60691409  1
  Nb  Nb138  1  0.39582472  -0.00178886  0.19593147  1
  Nb  Nb139  1  0.60001939  0.59248821  0.19907374  1
  Nb  Nb140  1  0.40280882  0.80697995  0.19671945  1
  Nb  Nb141  1  0.20193279  -0.00250003  0.79952019  1
  Nb  Nb142  1  0.20597941  0.01092849  0.39996055  1
  Nb  Nb143  1  0.60971125  0.20409618  0.39803332  1
  Nb  Nb144  1  0.00759036  0.40340489  0.20311113  1
  Nb  Nb145  1  0.59835857  0.40444530  0.60914892  1
  Nb  Nb146  1  0.20017806  0.40102512  0.20237535  1
  Nb  Nb147  1  0.79848188  0.19726569  0.39170523  1
  Nb  Nb148  1  0.80464323  0.20235801  0.79937730  1
  Nb  Nb149  1  0.19780888  0.59736689  0.40293509  1
  Pd  Pd150  1  -0.00706439  0.20632891  0.40758474  1
  Pd  Pd151  1  0.59577607  0.20447084  0.20538096  1
  Pd  Pd152  1  0.59630487  0.78934875  0.19779282  1
  Pd  Pd153  1  0.59938958  0.79693422  0.60017065  1
  Pd  Pd154  1  -0.00966474  0.80007177  0.59047316  1
  Pd  Pd155  1  0.80736121  0.58980067  -0.00651110  1
  Pd  Pd156  1  0.20743540  0.59984003  -0.01329986  1
  Pd  Pd157  1  0.80039798  -0.00323546  0.19180925  1
  Pd  Pd158  1  0.60574383  0.21136993  0.58911667  1
  Pd  Pd159  1  0.20286067  0.59984339  0.80583418  1
  Pd  Pd160  1  0.39754425  0.00434589  0.39491298  1
  Pd  Pd161  1  0.80591158  0.59947993  0.80191509  1
  Pd  Pd162  1  0.40594168  0.19613111  0.80283008  1
  Pd  Pd163  1  0.79436862  0.00022004  0.00555186  1
  Pd  Pd164  1  0.60818657  0.00708945  0.40904942  1
  Pd  Pd165  1  -0.00818790  0.19336505  0.00557943  1
  Pd  Pd166  1  0.40379073  -0.00925665  0.60073158  1
  Pd  Pd167  1  0.80673606  0.19960257  -0.00433120  1
  Pd  Pd168  1  -0.00860804  0.20109290  0.59873995  1
  Pd  Pd169  1  -0.00243307  -0.00030416  0.59438991  1
  Pd  Pd170  1  0.40582239  0.80675754  0.60507487  1
  Pd  Pd171  1  0.00339936  0.60058978  0.40097986  1
  Pd  Pd172  1  0.20734997  0.00942666  0.19897744  1
  Pd  Pd173  1  0.59741873  0.19685043  -0.00302265  1
  Pd  Pd174  1  0.80356403  0.80737582  0.20172712  1
  Pd  Pd175  1  0.39920527  0.40388752  0.20439647  1
  Pd  Pd176  1  0.00156502  0.79414875  0.00589845  1
  Pd  Pd177  1  0.20052726  0.40600894  0.39841861  1
  Pd  Pd178  1  0.78884950  0.00309656  0.79674577  1
  Pd  Pd179  1  0.18873728  0.79738043  -0.00672705  1
  Pd  Pd180  1  0.40620716  0.79907882  0.79790826  1
  Pd  Pd181  1  0.00686514  -0.00539013  0.79776325  1
  Pd  Pd182  1  0.40708170  0.79886719  0.39442683  1
  Pd  Pd183  1  0.19560961  0.79066318  0.20789918  1
  Pd  Pd184  1  -0.00850628  0.60775718  0.60464838  1
  Pd  Pd185  1  0.60381551  0.79982401  0.39817515  1
  Pd  Pd186  1  0.60593928  -0.00720233  0.80238317  1
  Pd  Pd187  1  0.20065721  0.00486310  0.59875231  1
  Pd  Pd188  1  0.60092717  0.59350942  0.79406288  1
  Pd  Pd189  1  0.81275298  0.39224152  0.39782841  1
  Pd  Pd190  1  0.19846255  0.39360686  0.79225794  1
  Pd  Pd191  1  0.39871754  -0.00148490  0.80578351  1
  Pd  Pd192  1  0.18952906  0.79876489  0.39680573  1
  Pd  Pd193  1  0.60801519  0.40166726  0.00729705  1
  Pd  Pd194  1  0.19132069  0.20746253  0.19547069  1
  Pd  Pd195  1  0.60634486  0.39415766  0.39856484  1
  Pd  Pd196  1  0.20338911  0.59739917  0.20868176  1
  Pd  Pd197  1  0.20758558  0.20305589  0.60349818  1
  Pd  Pd198  1  0.00402938  -0.00341880  0.40565308  1
  Pd  Pd199  1  0.80325680  0.80128229  0.38958315  1
  Rh  Rh200  1  0.60413081  0.20495857  0.80721540  1
  Rh  Rh201  1  0.80259819  0.79448778  0.60394577  1
  Rh  Rh202  1  -0.00209760  0.59721034  0.79601030  1
  Rh  Rh203  1  0.40766277  0.19313195  0.39622711  1
  Rh  Rh204  1  0.00276958  0.80609974  0.80037973  1
  Rh  Rh205  1  0.59455741  -0.00091773  0.00367338  1
  Rh  Rh206  1  0.80405525  0.19658641  0.60441759  1
  Rh  Rh207  1  0.00318626  0.00622999  -0.00038350  1
  Rh  Rh208  1  0.60053967  0.80225779  0.80122940  1
  Rh  Rh209  1  0.59395593  0.59400883  0.00700714  1
  Rh  Rh210  1  0.79856257  0.19068861  0.19970821  1
  Rh  Rh211  1  0.79386662  0.80038109  0.00148792  1
  Rh  Rh212  1  0.39757446  0.60714393  0.80682994  1
  Rh  Rh213  1  0.40092296  0.79411797  0.00459135  1
  Rh  Rh214  1  0.19656032  0.19857323  0.00105950  1
  Rh  Rh215  1  0.40726670  0.59873958  0.60401814  1
  Rh  Rh216  1  0.60038737  -0.00632664  0.59653987  1
  Rh  Rh217  1  0.79512621  0.80802261  0.80265311  1
  Rh  Rh218  1  0.40813989  0.38936261  0.79210686  1
  Rh  Rh219  1  0.19921708  0.59804719  0.59786030  1
  Rh  Rh220  1  -0.00711076  0.40486465  0.00262369  1
  Rh  Rh221  1  0.40475849  0.19233089  -0.00275995  1
  Rh  Rh222  1  0.39351207  0.20633787  0.59655122  1
  Rh  Rh223  1  0.00630402  0.20478221  0.19219009  1
  Rh  Rh224  1  0.38748780  0.39850807  0.39984517  1
  Rh  Rh225  1  0.00030110  0.39885954  0.79294581  1
  Rh  Rh226  1  0.79271391  0.41112838  0.60048080  1
  Rh  Rh227  1  0.59659151  0.00247979  0.19158313  1
  Rh  Rh228  1  0.39258908  0.60570384  0.40092942  1
  Rh  Rh229  1  -0.00827425  -0.00500494  0.19760678  1
  Rh  Rh230  1  0.80030137  0.60780548  0.40517500  1
  Rh  Rh231  1  0.19516927  0.19260383  0.40135984  1
  Rh  Rh232  1  0.80069183  0.00521793  0.60643508  1
  Rh  Rh233  1  0.40551777  0.19355544  0.20514951  1
  Rh  Rh234  1  0.60306715  0.79745136  0.00187006  1
  Rh  Rh235  1  -0.00069610  0.59666180  0.20079161  1
  Rh  Rh236  1  0.79526424  0.01028582  0.40175544  1
  Rh  Rh237  1  0.60474401  0.60764648  0.39609490  1
  Rh  Rh238  1  0.20251374  0.80227775  0.59867271  1
  Rh  Rh239  1  0.79899615  0.40573408  0.19246734  1
  Rh  Rh240  1  0.80176716  0.39324588  0.80909407  1
  Rh  Rh241  1  0.20388693  0.39758137  0.00186666  1
  Rh  Rh242  1  -0.00612980  0.59577716  -0.00631210  1
  Rh  Rh243  1  0.19774138  0.19499359  0.79455728  1
  Rh  Rh244  1  0.79295600  0.59611683  0.20081141  1
  Rh  Rh245  1  0.39297521  0.40449146  0.00248908  1
  Rh  Rh246  1  -0.00999464  0.20726563  0.79191744  1
  Rh  Rh247  1  0.00895328  0.40030728  0.59631712  1
  Rh  Rh248  1  0.19048395  0.80371695  0.80340204  1
  Rh  Rh249  1  0.40685482  0.60847973  0.18828212  1
