# generated using pymatgen
data_ZrScNbPdRh
_symmetry_space_group_name_H-M   'P 1'
_cell_length_a   16.55308268
_cell_length_b   16.55675046
_cell_length_c   16.55301921
_cell_angle_alpha   89.98648852
_cell_angle_beta   89.97661186
_cell_angle_gamma   90.01181144
_symmetry_Int_Tables_number   1
_chemical_formula_structural   ZrScNbPdRh
_chemical_formula_sum   'Zr50 Sc50 Nb50 Pd50 Rh50'
_cell_volume   4536.60689991
_cell_formula_units_Z   50
loop_
 _symmetry_equiv_pos_site_id
 _symmetry_equiv_pos_as_xyz
  1  'x, y, z'
loop_
 _atom_site_type_symbol
 _atom_site_label
 _atom_site_symmetry_multiplicity
 _atom_site_fract_x
 _atom_site_fract_y
 _atom_site_fract_z
 _atom_site_occupancy
  Zr  Zr0  1  0.11066030  0.09798313  0.30026362  1
  Zr  Zr1  1  0.29065863  0.69663669  0.30673619  1
  Zr  Zr2  1  0.29788273  0.50286381  0.49904348  1
  Zr  Zr3  1  0.50547897  0.29965012  0.30895391  1
  Zr  Zr4  1  0.09330363  0.70251332  0.69051275  1
  Zr  Zr5  1  0.31015753  0.29554860  0.49841168  1
  Zr  Zr6  1  0.90280326  0.29999971  0.30174229  1
  Zr  Zr7  1  0.29853389  0.29059623  0.09108350  1
  Zr  Zr8  1  0.49648242  0.50098883  0.90580082  1
  Zr  Zr9  1  0.50254331  0.48944962  0.29521994  1
  Zr  Zr10  1  0.09593244  0.70230965  0.90306028  1
  Zr  Zr11  1  0.70076918  0.69731803  0.50763447  1
  Zr  Zr12  1  0.89782698  0.49327168  0.09656397  1
  Zr  Zr13  1  0.29250733  0.10465814  0.90955518  1
  Zr  Zr14  1  0.10240480  0.29495890  0.49922976  1
  Zr  Zr15  1  0.29356810  0.70342948  0.89214187  1
  Zr  Zr16  1  0.09685669  0.09635574  0.89812070  1
  Zr  Zr17  1  0.89999341  0.69494951  0.52257726  1
  Zr  Zr18  1  0.69881296  0.89937081  0.29697228  1
  Zr  Zr19  1  0.09652553  0.89458218  0.30200872  1
  Zr  Zr20  1  0.89922271  0.09935018  0.28734385  1
  Zr  Zr21  1  0.10341825  0.09687986  0.49861086  1
  Zr  Zr22  1  0.49411288  0.91253842  0.70536774  1
  Zr  Zr23  1  0.10673549  0.90160710  0.49782435  1
  Zr  Zr24  1  0.29809878  0.69760374  0.68991084  1
  Zr  Zr25  1  0.49155079  0.50502090  0.09704463  1
  Zr  Zr26  1  0.70620429  0.10381301  0.70021865  1
  Zr  Zr27  1  0.89547863  0.29744194  0.70107844  1
  Zr  Zr28  1  0.10163722  0.90033239  0.09673185  1
  Zr  Zr29  1  0.29101972  0.90560822  0.89995476  1
  Zr  Zr30  1  0.09852836  0.49908588  0.08886041  1
  Zr  Zr31  1  0.90293168  0.49071540  0.30033256  1
  Zr  Zr32  1  0.50166543  0.69654417  0.50853421  1
  Zr  Zr33  1  0.50181787  0.69968611  0.10211031  1
  Zr  Zr34  1  0.30383815  0.29949344  0.69609511  1
  Zr  Zr35  1  0.70149957  0.29328712  0.09437358  1
  Zr  Zr36  1  0.50351630  0.70046455  0.91211975  1
  Zr  Zr37  1  0.11121451  0.70292596  0.49620386  1
  Zr  Zr38  1  0.30212328  0.90195038  0.70092138  1
  Zr  Zr39  1  0.29678185  0.50054963  0.69944037  1
  Zr  Zr40  1  0.90218908  0.29734766  0.10615648  1
  Zr  Zr41  1  0.29731294  0.09791903  0.48996970  1
  Zr  Zr42  1  0.50239082  0.29659277  0.69993244  1
  Zr  Zr43  1  0.90669261  0.89807658  0.29281632  1
  Zr  Zr44  1  0.90361031  0.91242119  0.10062586  1
  Zr  Zr45  1  0.49887501  0.29473774  0.10495052  1
  Zr  Zr46  1  0.49996917  0.69935777  0.70095083  1
  Zr  Zr47  1  0.69590876  0.51054907  0.10636964  1
  Zr  Zr48  1  0.29414696  0.49692532  0.90979005  1
  Zr  Zr49  1  0.49831452  0.29935729  0.89917018  1
  Sc  Sc50  1  0.10211057  0.70068359  0.30219613  1
  Sc  Sc51  1  0.30575319  0.91091277  0.29726698  1
  Sc  Sc52  1  0.49949506  0.89946271  0.89531244  1
  Sc  Sc53  1  0.90433533  0.90141769  0.50308865  1
  Sc  Sc54  1  0.10114433  0.49311778  0.70139990  1
  Sc  Sc55  1  0.70084798  0.70494043  0.89943465  1
  Sc  Sc56  1  0.31148109  0.30474619  0.30198391  1
  Sc  Sc57  1  0.70007775  0.09859005  0.30387435  1
  Sc  Sc58  1  0.09662242  0.90394508  0.89952584  1
  Sc  Sc59  1  0.89737500  0.09511904  0.69931251  1
  Sc  Sc60  1  0.49007724  0.09977229  0.49464635  1
  Sc  Sc61  1  0.70899119  0.10009631  0.49595043  1
  Sc  Sc62  1  0.29849227  0.30048483  0.90065996  1
  Sc  Sc63  1  0.69329709  0.89951299  0.10064575  1
  Sc  Sc64  1  0.69452549  0.90079130  0.89730814  1
  Sc  Sc65  1  0.89392532  0.10009898  0.50222700  1
  Sc  Sc66  1  0.70498084  0.10482058  0.10414606  1
  Sc  Sc67  1  0.09793675  0.29762642  0.09860932  1
  Sc  Sc68  1  0.50494555  0.49680787  0.50591225  1
  Sc  Sc69  1  0.89741041  0.50288968  0.69651735  1
  Sc  Sc70  1  0.50010170  0.89704218  0.11652054  1
  Sc  Sc71  1  0.89824814  0.29864184  0.49224174  1
  Sc  Sc72  1  0.70421830  0.10530624  0.90119486  1
  Sc  Sc73  1  0.89582949  0.89466943  0.70403891  1
  Sc  Sc74  1  0.09177111  0.10143337  0.70112119  1
  Sc  Sc75  1  0.50996005  0.90366280  0.30376055  1
  Sc  Sc76  1  0.49677124  0.10592491  0.88869296  1
  Sc  Sc77  1  0.69362937  0.49802722  0.50418783  1
  Sc  Sc78  1  0.70937451  0.49315310  0.90092649  1
  Sc  Sc79  1  0.10072761  0.69671694  0.10185619  1
  Sc  Sc80  1  0.31006486  0.09917431  0.69656849  1
  Sc  Sc81  1  0.09681696  0.30168442  0.29045244  1
  Sc  Sc82  1  0.11337207  0.10445467  0.10436093  1
  Sc  Sc83  1  0.70376026  0.29970471  0.89074740  1
  Sc  Sc84  1  0.89856369  0.08259588  0.90074206  1
  Sc  Sc85  1  0.09420249  0.29629932  0.70143769  1
  Sc  Sc86  1  0.90312017  0.69047808  0.09421151  1
  Sc  Sc87  1  0.10142752  0.49234132  0.50281965  1
  Sc  Sc88  1  0.50280990  0.49517149  0.69403848  1
  Sc  Sc89  1  0.49964229  0.10110230  0.29519331  1
  Sc  Sc90  1  0.69083649  0.69832700  0.09616014  1
  Sc  Sc91  1  0.30339515  0.49988519  0.29834720  1
  Sc  Sc92  1  0.90816131  0.70101151  0.29264429  1
  Sc  Sc93  1  0.09877390  0.30133523  0.89753644  1
  Sc  Sc94  1  0.90036670  0.49943307  0.90729750  1
  Sc  Sc95  1  0.10716279  0.49805060  0.30454293  1
  Sc  Sc96  1  0.69816195  0.49628960  0.69902608  1
  Sc  Sc97  1  0.70152642  0.90895747  0.49202429  1
  Sc  Sc98  1  0.89240132  0.30965962  0.90588582  1
  Sc  Sc99  1  0.30329073  0.68752917  0.10856522  1
  Nb  Nb100  1  0.71305552  0.70380521  0.70140407  1
  Nb  Nb101  1  0.29918352  0.90729191  0.10134489  1
  Nb  Nb102  1  0.30122119  0.49439640  0.09918031  1
  Nb  Nb103  1  0.69546551  0.30258212  0.30987567  1
  Nb  Nb104  1  0.69776863  0.29465050  0.49552572  1
  Nb  Nb105  1  0.69876170  0.50481905  0.29661673  1
  Nb  Nb106  1  0.89706133  0.49724665  0.49678066  1
  Nb  Nb107  1  0.09649580  0.50319831  0.90226672  1
  Nb  Nb108  1  0.89835063  0.70917671  0.88844789  1
  Nb  Nb109  1  0.50168791  0.10216328  0.69542717  1
  Nb  Nb110  1  0.50485602  0.29994009  0.49702969  1
  Nb  Nb111  1  0.29783835  0.10142714  0.29191643  1
  Nb  Nb112  1  0.89703153  0.10352681  0.09743288  1
  Nb  Nb113  1  0.30058726  0.70088725  0.49956678  1
  Nb  Nb114  1  0.30267210  0.09585830  0.10934559  1
  Nb  Nb115  1  0.50207955  0.90256250  0.50290149  1
  Nb  Nb116  1  0.49712564  0.10589308  0.09766875  1
  Nb  Nb117  1  0.69585298  0.90320227  0.69864990  1
  Nb  Nb118  1  0.50162013  0.70809818  0.30137591  1
  Nb  Nb119  1  0.30502206  0.90059483  0.50066218  1
  Nb  Nb120  1  0.70273214  0.69631187  0.29415832  1
  Nb  Nb121  1  0.89179507  0.70096736  0.70642230  1
  Nb  Nb122  1  0.70168121  0.29826899  0.69602911  1
  Nb  Nb123  1  0.90369723  0.89643022  0.90463689  1
  Nb  Nb124  1  0.09688842  0.90618455  0.69404079  1
  Nb  Nb125  1  0.20440902  0.80527263  0.19930950  1
  Nb  Nb126  1  0.59955555  0.20034247  0.59815660  1
  Nb  Nb127  1  0.58890193  0.00775327  0.00418829  1
  Nb  Nb128  1  0.40710842  0.60710974  0.40177799  1
  Nb  Nb129  1  -0.00629396  0.59593705  0.40503954  1
  Nb  Nb130  1  0.78929623  0.39930765  0.20673398  1
  Nb  Nb131  1  -0.00369537  0.60708885  0.80173728  1
  Nb  Nb132  1  0.59739863  0.00339686  0.60213902  1
  Nb  Nb133  1  0.80825792  0.80459729  -0.00146096  1
  Nb  Nb134  1  0.40066638  0.59953657  0.80134974  1
  Nb  Nb135  1  -0.00722394  0.19325412  0.00311145  1
  Nb  Nb136  1  0.59817092  0.39914252  0.00319282  1
  Nb  Nb137  1  0.59931602  0.60260199  0.79975773  1
  Nb  Nb138  1  0.80142418  0.79726090  0.19719961  1
  Nb  Nb139  1  0.60159160  0.60364703  0.39024306  1
  Nb  Nb140  1  0.80056376  0.60007776  0.39718556  1
  Nb  Nb141  1  0.80029138  0.79086377  0.39529772  1
  Nb  Nb142  1  0.40045929  0.00170624  0.00778039  1
  Nb  Nb143  1  0.00120506  0.59112860  0.20263201  1
  Nb  Nb144  1  0.00214514  0.19500488  0.39574530  1
  Nb  Nb145  1  0.40057545  0.79959179  0.40785222  1
  Nb  Nb146  1  0.20624335  0.40263028  0.18999146  1
  Nb  Nb147  1  0.60242877  0.80943507  0.60559616  1
  Nb  Nb148  1  0.79655651  0.39270649  0.59519693  1
  Nb  Nb149  1  0.39367389  0.80695846  0.00691417  1
  Pd  Pd150  1  0.19904046  0.39339879  0.60118864  1
  Pd  Pd151  1  -0.00548235  -0.00077073  0.60193490  1
  Pd  Pd152  1  0.19801242  0.39528433  0.80174445  1
  Pd  Pd153  1  0.40021242  0.79810997  0.80687500  1
  Pd  Pd154  1  0.39668609  0.40630822  0.80039442  1
  Pd  Pd155  1  0.20053296  0.80651014  0.60226842  1
  Pd  Pd156  1  0.80843150  0.19836610  0.80766950  1
  Pd  Pd157  1  0.20404782  0.00565175  0.60515627  1
  Pd  Pd158  1  0.40459957  0.80550818  0.59848802  1
  Pd  Pd159  1  0.20163527  0.19488342  0.60791213  1
  Pd  Pd160  1  -0.00530628  0.00759234  0.40211011  1
  Pd  Pd161  1  0.60525143  0.39268341  0.19340208  1
  Pd  Pd162  1  0.80897428  -0.00593461  0.39511292  1
  Pd  Pd163  1  -0.00552722  0.19819707  0.59267910  1
  Pd  Pd164  1  0.40326308  0.60012096  0.21053243  1
  Pd  Pd165  1  0.78930183  0.40481291  0.40189225  1
  Pd  Pd166  1  0.19813123  0.00700680  0.79066938  1
  Pd  Pd167  1  0.79764592  0.60959152  -0.00597039  1
  Pd  Pd168  1  -0.01207674  0.19803158  0.81178028  1
  Pd  Pd169  1  0.18816410  0.80495752  0.79035667  1
  Pd  Pd170  1  0.39304520  0.80169848  0.20589553  1
  Pd  Pd171  1  0.40407024  -0.00223657  0.39284558  1
  Pd  Pd172  1  0.79546987  0.81261298  0.59508533  1
  Pd  Pd173  1  0.20825799  0.79283321  0.01135706  1
  Pd  Pd174  1  0.60384078  0.79486184  0.79498883  1
  Pd  Pd175  1  0.39888776  0.20292214  0.20717925  1
  Pd  Pd176  1  0.80004392  -0.00770953  0.80168048  1
  Pd  Pd177  1  0.20041725  0.20960555  0.39027605  1
  Pd  Pd178  1  0.40249000  0.40136041  0.59678290  1
  Pd  Pd179  1  0.60393050  0.40441213  0.80521123  1
  Pd  Pd180  1  0.60178772  0.01061772  0.19526526  1
  Pd  Pd181  1  0.78647386  -0.00422526  0.00231788  1
  Pd  Pd182  1  0.60292255  0.01045075  0.80433849  1
  Pd  Pd183  1  0.79064074  0.20592724  0.20937485  1
  Pd  Pd184  1  0.79922261  0.59366128  0.80216572  1
  Pd  Pd185  1  0.00551934  0.80404344  0.79342032  1
  Pd  Pd186  1  0.19355331  0.59864408  0.79697086  1
  Pd  Pd187  1  0.00573379  0.59026482  0.60178229  1
  Pd  Pd188  1  0.20209562  0.39408344  0.39199834  1
  Pd  Pd189  1  0.20114429  0.19919359  0.79387496  1
  Pd  Pd190  1  -0.00516741  0.79665088  0.00654040  1
  Pd  Pd191  1  0.01113607  0.00913790  0.19366051  1
  Pd  Pd192  1  -0.00795223  0.39602192  0.59764217  1
  Pd  Pd193  1  0.39401053  0.19829750  0.80054761  1
  Pd  Pd194  1  0.20273075  0.60594397  0.00354912  1
  Pd  Pd195  1  -0.00558219  0.40840428  0.80356630  1
  Pd  Pd196  1  0.59859665  0.18842029  0.40440957  1
  Pd  Pd197  1  -0.00960465  0.78870317  0.41073228  1
  Pd  Pd198  1  0.60092251  0.19933017  -0.00725182  1
  Pd  Pd199  1  0.60302043  0.79703833  0.40645469  1
  Rh  Rh200  1  0.20912350  0.21104609  0.20402467  1
  Rh  Rh201  1  0.39357103  0.39482935  0.19188134  1
  Rh  Rh202  1  0.21199463  0.81221843  0.39372545  1
  Rh  Rh203  1  0.40582643  0.40787378  0.40825567  1
  Rh  Rh204  1  0.39288646  0.00734083  0.80947360  1
  Rh  Rh205  1  0.00346091  0.78987533  0.19131486  1
  Rh  Rh206  1  -0.00125995  -0.00826402  0.79513042  1
  Rh  Rh207  1  0.60083919  0.40802388  0.40407553  1
  Rh  Rh208  1  0.79463085  -0.00463332  0.19718805  1
  Rh  Rh209  1  0.19521237  0.39590214  0.00027586  1
  Rh  Rh210  1  0.60791622  0.79460519  0.19885442  1
  Rh  Rh211  1  0.00877718  0.40750864  0.19514831  1
  Rh  Rh212  1  0.00107204  0.80887698  0.60176914  1
  Rh  Rh213  1  0.81190660  0.59771272  0.20388811  1
  Rh  Rh214  1  0.18787032  0.20103727  -0.00332849  1
  Rh  Rh215  1  0.59671675  0.00538074  0.40689426  1
  Rh  Rh216  1  0.39952056  0.19357147  -0.00290798  1
  Rh  Rh217  1  0.79550809  0.81046518  0.80683663  1
  Rh  Rh218  1  0.61001940  0.60823448  0.61315745  1
  Rh  Rh219  1  0.78948818  0.39917786  0.01140236  1
  Rh  Rh220  1  0.79488191  -0.00317111  0.60243410  1
  Rh  Rh221  1  0.79524590  0.58701179  0.60057845  1
  Rh  Rh222  1  0.60550458  0.38632925  0.59597260  1
  Rh  Rh223  1  0.00997939  0.39466020  0.40662451  1
  Rh  Rh224  1  0.80925006  0.19728952  -0.00707494  1
  Rh  Rh225  1  0.40006199  0.00309457  0.59589847  1
  Rh  Rh226  1  0.00387087  0.19197277  0.19815490  1
  Rh  Rh227  1  0.40685145  0.00404081  0.19952609  1
  Rh  Rh228  1  0.00347810  0.38894776  -0.00436001  1
  Rh  Rh229  1  0.19452628  0.59755229  0.59686096  1
  Rh  Rh230  1  0.80315542  0.40241883  0.78720508  1
  Rh  Rh231  1  0.61187828  0.58889901  -0.01232622  1
  Rh  Rh232  1  0.59121015  0.81485760  0.00523752  1
  Rh  Rh233  1  0.79673085  0.20515649  0.59556643  1
  Rh  Rh234  1  0.19693988  -0.00804576  0.20426036  1
  Rh  Rh235  1  0.38660679  0.61182864  -0.00744356  1
  Rh  Rh236  1  0.60269249  0.19925296  0.79358798  1
  Rh  Rh237  1  0.58789544  0.60560454  0.20630370  1
  Rh  Rh238  1  0.20021850  0.00501201  0.00470088  1
  Rh  Rh239  1  0.39941044  0.19744719  0.39499507  1
  Rh  Rh240  1  0.80663448  0.19749040  0.39405983  1
  Rh  Rh241  1  0.40625466  0.19848730  0.59435088  1
  Rh  Rh242  1  0.20570760  -0.00555114  0.39596313  1
  Rh  Rh243  1  0.19158484  0.59167967  0.19647602  1
  Rh  Rh244  1  -0.00281955  0.60391999  -0.00773635  1
  Rh  Rh245  1  0.40601594  0.39144369  0.00468022  1
  Rh  Rh246  1  0.19820759  0.59424717  0.40518746  1
  Rh  Rh247  1  0.00712231  0.00829523  0.00385682  1
  Rh  Rh248  1  0.39479999  0.59233854  0.60134513  1
  Rh  Rh249  1  0.60344806  0.20007463  0.20721844  1
