# generated using pymatgen
data_ZrScNbPdRh
_symmetry_space_group_name_H-M   'P 1'
_cell_length_a   16.55559915
_cell_length_b   16.55012801
_cell_length_c   16.55511452
_cell_angle_alpha   89.95697898
_cell_angle_beta   90.01271896
_cell_angle_gamma   89.96499884
_symmetry_Int_Tables_number   1
_chemical_formula_structural   ZrScNbPdRh
_chemical_formula_sum   'Zr50 Sc50 Nb50 Pd50 Rh50'
_cell_volume   4536.05419551
_cell_formula_units_Z   50
loop_
 _symmetry_equiv_pos_site_id
 _symmetry_equiv_pos_as_xyz
  1  'x, y, z'
loop_
 _atom_site_type_symbol
 _atom_site_label
 _atom_site_symmetry_multiplicity
 _atom_site_fract_x
 _atom_site_fract_y
 _atom_site_fract_z
 _atom_site_occupancy
  Zr  Zr0  1  0.10721066  0.70210084  0.09719758  1
  Zr  Zr1  1  0.49019611  0.49231849  0.50192277  1
  Zr  Zr2  1  0.89674600  0.49368996  0.49824799  1
  Zr  Zr3  1  0.69745393  0.90375885  0.49156084  1
  Zr  Zr4  1  0.09470557  0.69841737  0.70409323  1
  Zr  Zr5  1  0.11047438  0.49625338  0.50642597  1
  Zr  Zr6  1  0.11037055  0.09646221  0.90135036  1
  Zr  Zr7  1  0.30379665  0.90739499  0.49679151  1
  Zr  Zr8  1  0.88843955  0.29381621  0.10258813  1
  Zr  Zr9  1  0.10321792  0.89585944  0.49111918  1
  Zr  Zr10  1  0.10167059  0.70197218  0.89985269  1
  Zr  Zr11  1  0.69438299  0.30883516  0.90087125  1
  Zr  Zr12  1  0.69281217  0.89079931  0.89069144  1
  Zr  Zr13  1  0.89279616  0.69547178  0.89792660  1
  Zr  Zr14  1  0.10352643  0.50746007  0.90241230  1
  Zr  Zr15  1  0.69437447  0.69567422  0.09108302  1
  Zr  Zr16  1  0.69586343  0.70622051  0.70502106  1
  Zr  Zr17  1  0.49636260  0.29774196  0.89973628  1
  Zr  Zr18  1  0.30107207  0.10144081  0.70288551  1
  Zr  Zr19  1  0.90032662  0.29964725  0.49930591  1
  Zr  Zr20  1  0.30693044  0.49384972  0.30089941  1
  Zr  Zr21  1  0.49719614  0.90507852  0.09858504  1
  Zr  Zr22  1  0.30941650  0.28764076  0.49988710  1
  Zr  Zr23  1  0.49947207  0.70583575  0.50614306  1
  Zr  Zr24  1  0.90245073  0.08981009  0.09849328  1
  Zr  Zr25  1  0.10537807  0.70682305  0.30272012  1
  Zr  Zr26  1  0.89908815  0.90369575  0.29998013  1
  Zr  Zr27  1  0.89442648  0.30583410  0.89677374  1
  Zr  Zr28  1  0.09830115  0.30355451  0.69408626  1
  Zr  Zr29  1  0.09924644  0.50555786  0.30779146  1
  Zr  Zr30  1  0.10442968  0.30016999  0.89956458  1
  Zr  Zr31  1  0.90434262  0.30820408  0.69768870  1
  Zr  Zr32  1  0.89613451  0.29649462  0.30498022  1
  Zr  Zr33  1  0.30099630  0.90398161  0.90531768  1
  Zr  Zr34  1  0.49652269  0.90326175  0.50064985  1
  Zr  Zr35  1  0.29830615  0.49649591  0.50202940  1
  Zr  Zr36  1  0.89897455  0.09893642  0.90373111  1
  Zr  Zr37  1  0.69177592  0.09601420  0.89651555  1
  Zr  Zr38  1  0.10526752  0.09638743  0.29212854  1
  Zr  Zr39  1  0.50040005  0.70686316  0.30114281  1
  Zr  Zr40  1  0.10523543  0.11033531  0.49647311  1
  Zr  Zr41  1  0.29847686  0.90020461  0.29793643  1
  Zr  Zr42  1  0.89014094  0.69768522  0.09974071  1
  Zr  Zr43  1  0.49830718  0.90228810  0.30002879  1
  Zr  Zr44  1  0.10241701  0.91433785  0.09956415  1
  Zr  Zr45  1  0.29798580  0.49456480  0.10251818  1
  Zr  Zr46  1  0.69280779  0.29476577  0.50877570  1
  Zr  Zr47  1  0.89928172  0.69402843  0.50031562  1
  Zr  Zr48  1  0.89454522  0.10498328  0.48803200  1
  Zr  Zr49  1  0.69769669  0.10117253  0.10305831  1
  Sc  Sc50  1  0.31393644  0.90638577  0.70256650  1
  Sc  Sc51  1  0.10591418  0.50382827  0.09621313  1
  Sc  Sc52  1  0.50056305  0.89552986  0.70472726  1
  Sc  Sc53  1  0.49862152  0.89576545  0.90120750  1
  Sc  Sc54  1  0.69212692  0.49938890  0.09962116  1
  Sc  Sc55  1  0.69822707  0.70058675  0.29118580  1
  Sc  Sc56  1  0.89529600  0.49763293  0.30617653  1
  Sc  Sc57  1  0.70200156  0.88995044  0.09491057  1
  Sc  Sc58  1  0.50589746  0.50184998  0.89869843  1
  Sc  Sc59  1  0.30308339  0.69528333  0.50394692  1
  Sc  Sc60  1  0.68853905  0.90197854  0.30014521  1
  Sc  Sc61  1  0.10626704  0.11212061  0.70380483  1
  Sc  Sc62  1  0.69978259  0.69630563  0.90156741  1
  Sc  Sc63  1  0.30498229  0.70498869  0.90801571  1
  Sc  Sc64  1  0.50335577  0.29257314  0.10723355  1
  Sc  Sc65  1  0.69542983  0.50112876  0.70023364  1
  Sc  Sc66  1  0.70266071  0.49613139  0.50279826  1
  Sc  Sc67  1  0.10769491  0.29618323  0.30187419  1
  Sc  Sc68  1  0.30006498  0.89754067  0.09871634  1
  Sc  Sc69  1  0.90131710  0.88249591  0.70033824  1
  Sc  Sc70  1  0.69509581  0.30041343  0.10317613  1
  Sc  Sc71  1  0.69911215  0.49256559  0.29765779  1
  Sc  Sc72  1  0.69714345  0.29808166  0.29112535  1
  Sc  Sc73  1  0.10654252  0.90461945  0.90475386  1
  Sc  Sc74  1  0.30396445  0.10099466  0.09798382  1
  Sc  Sc75  1  0.49505363  0.10057782  0.70864171  1
  Sc  Sc76  1  0.11237455  0.90149789  0.29753377  1
  Sc  Sc77  1  0.30401203  0.10508211  0.89859483  1
  Sc  Sc78  1  0.50030925  0.70243802  0.89975318  1
  Sc  Sc79  1  0.69706914  0.69632841  0.50647801  1
  Sc  Sc80  1  0.30139195  0.50707413  0.90141895  1
  Sc  Sc81  1  0.10209687  0.69432171  0.49435879  1
  Sc  Sc82  1  0.10516102  0.30156476  0.50042689  1
  Sc  Sc83  1  0.89957275  0.89581157  0.50006167  1
  Sc  Sc84  1  0.49403668  0.29293452  0.29656371  1
  Sc  Sc85  1  0.30285235  0.29541103  0.70421864  1
  Sc  Sc86  1  0.50332471  0.09861581  0.29196739  1
  Sc  Sc87  1  0.49648825  0.50264789  0.70112772  1
  Sc  Sc88  1  0.50210108  0.30567813  0.70028808  1
  Sc  Sc89  1  0.90325305  0.68726354  0.30064693  1
  Sc  Sc90  1  0.89485143  0.69733013  0.70666223  1
  Sc  Sc91  1  0.29976627  0.50523786  0.69156485  1
  Sc  Sc92  1  0.31006101  0.69891820  0.69817088  1
  Sc  Sc93  1  0.30120043  0.09940443  0.30094539  1
  Sc  Sc94  1  0.30043137  0.29544223  0.90648721  1
  Sc  Sc95  1  0.90823701  0.11375252  0.69356687  1
  Sc  Sc96  1  0.49657249  0.09937388  0.91060342  1
  Sc  Sc97  1  0.70026073  0.09547408  0.30692199  1
  Sc  Sc98  1  0.12191573  0.30578662  0.10312221  1
  Sc  Sc99  1  0.89523732  0.89583159  0.90088623  1
  Nb  Nb100  1  0.30618682  0.09934415  0.50729074  1
  Nb  Nb101  1  0.69698713  0.90788377  0.70105225  1
  Nb  Nb102  1  0.90406630  0.50115208  0.09840488  1
  Nb  Nb103  1  0.09894597  0.90006114  0.70060779  1
  Nb  Nb104  1  0.30020464  0.70737447  0.29141633  1
  Nb  Nb105  1  0.90111472  0.10244506  0.29786891  1
  Nb  Nb106  1  0.49999974  0.69592628  0.09397790  1
  Nb  Nb107  1  0.30454870  0.30631971  0.10604516  1
  Nb  Nb108  1  0.48805057  0.11486054  0.49864195  1
  Nb  Nb109  1  0.49680442  0.70410802  0.69763471  1
  Nb  Nb110  1  0.90528601  0.49554309  0.70152433  1
  Nb  Nb111  1  0.90358840  0.90035284  0.09846639  1
  Nb  Nb112  1  0.49950223  0.29501778  0.49865834  1
  Nb  Nb113  1  0.49963257  0.50206741  0.10686555  1
  Nb  Nb114  1  0.09589667  0.09736336  0.09876972  1
  Nb  Nb115  1  0.70643655  0.50396208  0.90138735  1
  Nb  Nb116  1  0.88957329  0.50039890  0.89975301  1
  Nb  Nb117  1  0.50110056  0.09369464  0.10110592  1
  Nb  Nb118  1  0.10341228  0.49816946  0.69702088  1
  Nb  Nb119  1  0.30234428  0.70151871  0.10054456  1
  Nb  Nb120  1  0.49928221  0.49805625  0.30032416  1
  Nb  Nb121  1  0.69657656  0.09865220  0.50561280  1
  Nb  Nb122  1  0.69704050  0.10080793  0.69863546  1
  Nb  Nb123  1  0.69719744  0.29364287  0.70008860  1
  Nb  Nb124  1  0.29793653  0.29948665  0.27589702  1
  Nb  Nb125  1  0.79184191  0.20125673  0.79511229  1
  Nb  Nb126  1  0.80050897  0.00419020  0.78958989  1
  Nb  Nb127  1  0.00431923  0.20415381  0.00623244  1
  Nb  Nb128  1  -0.00096163  -0.00144618  0.79332419  1
  Nb  Nb129  1  0.19866932  -0.00025205  0.59929397  1
  Nb  Nb130  1  -0.00639191  0.40029868  0.00302325  1
  Nb  Nb131  1  -0.00188329  0.39759114  0.19416746  1
  Nb  Nb132  1  0.00303552  -0.00002602  0.59839513  1
  Nb  Nb133  1  0.40205274  0.39963958  0.00900383  1
  Nb  Nb134  1  0.40204364  0.60452990  0.19920285  1
  Nb  Nb135  1  0.79860999  0.79827386  0.39882133  1
  Nb  Nb136  1  0.00001547  0.58980292  0.60483445  1
  Nb  Nb137  1  0.00117364  0.00523824  0.40038591  1
  Nb  Nb138  1  -0.00125744  0.80311538  0.19366900  1
  Nb  Nb139  1  0.60146621  0.00853740  0.59810594  1
  Nb  Nb140  1  0.80369442  -0.00135564  0.19791316  1
  Nb  Nb141  1  0.59042807  0.59278160  0.39900269  1
  Nb  Nb142  1  0.19643778  0.40514437  0.79694681  1
  Nb  Nb143  1  0.20127039  0.80446674  0.79463066  1
  Nb  Nb144  1  0.58988650  0.39803052  0.40330339  1
  Nb  Nb145  1  0.79818921  0.00314570  0.60295335  1
  Nb  Nb146  1  -0.00263898  0.80106048  0.00606053  1
  Nb  Nb147  1  0.20943773  0.60516083  0.20311333  1
  Nb  Nb148  1  0.00132032  0.20006832  0.19433738  1
  Nb  Nb149  1  0.19965088  0.80637488  0.60521174  1
  Pd  Pd150  1  0.79553699  0.59072193  0.19877493  1
  Pd  Pd151  1  0.60342611  -0.00695405  0.00048009  1
  Pd  Pd152  1  0.80260408  0.80429049  0.20668131  1
  Pd  Pd153  1  0.80295303  0.19825634  0.60368730  1
  Pd  Pd154  1  0.59688621  0.59890948  0.20544547  1
  Pd  Pd155  1  0.60144126  0.40533865  0.79692384  1
  Pd  Pd156  1  0.00444799  0.39759948  0.39587295  1
  Pd  Pd157  1  0.39637956  0.39344390  0.60679788  1
  Pd  Pd158  1  0.59692795  0.80347965  0.19172143  1
  Pd  Pd159  1  0.79397152  0.80396633  0.59543426  1
  Pd  Pd160  1  0.00489842  0.79300301  0.59606233  1
  Pd  Pd161  1  0.79758286  0.40660793  0.00853539  1
  Pd  Pd162  1  0.40468670  0.80022933  0.19214487  1
  Pd  Pd163  1  0.40684470  0.00099400  0.80846724  1
  Pd  Pd164  1  0.40510276  0.00967126  0.39427091  1
  Pd  Pd165  1  0.60099078  0.80964902  0.60236972  1
  Pd  Pd166  1  -0.00692616  0.80178359  0.39115477  1
  Pd  Pd167  1  0.80287481  0.40606500  0.19812019  1
  Pd  Pd168  1  -0.00265423  0.19609137  0.80738412  1
  Pd  Pd169  1  0.40294801  0.59458585  0.00276198  1
  Pd  Pd170  1  0.40102165  0.19037380  0.19702486  1
  Pd  Pd171  1  0.20239040  0.19683740  0.00729034  1
  Pd  Pd172  1  0.60104329  0.20172091  0.39455172  1
  Pd  Pd173  1  0.21071379  0.20163113  0.39402803  1
  Pd  Pd174  1  0.40080959  0.60328601  0.80055892  1
  Pd  Pd175  1  0.59755403  0.20124864  0.00362448  1
  Pd  Pd176  1  0.80374127  0.59635748  0.60912994  1
  Pd  Pd177  1  0.79053648  -0.00943247  -0.00269453  1
  Pd  Pd178  1  0.21091519  0.60548267  0.39619315  1
  Pd  Pd179  1  0.78574548  0.60411290  0.39600395  1
  Pd  Pd180  1  0.21092780  0.60388390  0.79536387  1
  Pd  Pd181  1  0.00617004  0.40911432  0.80946584  1
  Pd  Pd182  1  0.59939081  0.60379030  0.80298726  1
  Pd  Pd183  1  0.58739016  0.01218613  0.40656824  1
  Pd  Pd184  1  0.79517915  0.20049662  -0.00723182  1
  Pd  Pd185  1  0.78631564  0.20470251  0.39631650  1
  Pd  Pd186  1  -0.00453078  0.60096507  -0.00120112  1
  Pd  Pd187  1  0.20984706  0.38859829  0.39630504  1
  Pd  Pd188  1  0.39356996  0.79728429  0.40386707  1
  Pd  Pd189  1  0.40044176  0.60721509  0.39679791  1
  Pd  Pd190  1  0.39031154  0.40234665  0.80807785  1
  Pd  Pd191  1  0.79359351  0.40019188  0.60598937  1
  Pd  Pd192  1  0.00722986  0.59945786  0.19972995  1
  Pd  Pd193  1  0.59637836  0.19927071  0.80074179  1
  Pd  Pd194  1  0.39864119  0.38483863  0.39361295  1
  Pd  Pd195  1  -0.00510266  0.59290814  0.79852955  1
  Pd  Pd196  1  0.59180612  0.40444147  0.00423190  1
  Pd  Pd197  1  0.79072834  0.40058836  0.79025367  1
  Pd  Pd198  1  0.58706147  0.19456222  0.60717497  1
  Pd  Pd199  1  0.59381368  0.59384367  0.59578810  1
  Rh  Rh200  1  0.00617154  0.19836037  0.39110595  1
  Rh  Rh201  1  0.40281295  0.20097008  0.80364725  1
  Rh  Rh202  1  0.39669335  0.79700399  0.80141142  1
  Rh  Rh203  1  0.79612203  0.59398958  0.79592059  1
  Rh  Rh204  1  0.39831795  0.00038501  0.19960817  1
  Rh  Rh205  1  0.20785891  0.40322447  -0.01144323  1
  Rh  Rh206  1  -0.00332622  -0.00052709  0.20973483  1
  Rh  Rh207  1  0.59720057  0.39925686  0.59776073  1
  Rh  Rh208  1  0.18839824  0.41152247  0.20867949  1
  Rh  Rh209  1  0.80498823  -0.00537468  0.39901118  1
  Rh  Rh210  1  0.19941957  0.19343143  0.19334884  1
  Rh  Rh211  1  0.40647230  0.00562458  0.59996860  1
  Rh  Rh212  1  0.00195112  0.20341500  0.59234228  1
  Rh  Rh213  1  0.80276823  0.79911747  -0.00450593  1
  Rh  Rh214  1  0.79545214  0.59350458  0.00310705  1
  Rh  Rh215  1  0.78482059  0.39046691  0.40286051  1
  Rh  Rh216  1  0.40501040  0.20190116  0.60983461  1
  Rh  Rh217  1  0.60689473  -0.00253130  0.19508024  1
  Rh  Rh218  1  0.21151713  0.79474956  0.40746557  1
  Rh  Rh219  1  0.61038577  0.78562528  0.40169142  1
  Rh  Rh220  1  0.19298398  0.61094100  0.60384195  1
  Rh  Rh221  1  0.60149319  0.19376608  0.20106146  1
  Rh  Rh222  1  0.59426176  0.79616691  0.00026697  1
  Rh  Rh223  1  0.21085123  0.00334586  0.19340082  1
  Rh  Rh224  1  0.79852338  0.18900311  0.20355161  1
  Rh  Rh225  1  0.41050125  0.40189517  0.19610236  1
  Rh  Rh226  1  0.39530675  0.20040172  0.39005677  1
  Rh  Rh227  1  0.19929405  0.00763296  0.40625630  1
  Rh  Rh228  1  0.19882859  0.80029473  -0.00494899  1
  Rh  Rh229  1  0.59878893  0.59579810  -0.00510743  1
  Rh  Rh230  1  0.20333478  0.21013774  0.79929672  1
  Rh  Rh231  1  0.00183692  -0.00191343  -0.01394387  1
  Rh  Rh232  1  0.40380535  0.80197462  0.00378184  1
  Rh  Rh233  1  0.59716322  -0.00039270  0.79762767  1
  Rh  Rh234  1  0.79472770  0.80269290  0.79827952  1
  Rh  Rh235  1  0.19583528  0.80119265  0.19506453  1
  Rh  Rh236  1  0.59473966  0.79430734  0.79728075  1
  Rh  Rh237  1  0.40630212  0.60009073  0.60063004  1
  Rh  Rh238  1  0.59426124  0.39701182  0.20708888  1
  Rh  Rh239  1  -0.00117248  0.59241452  0.41199723  1
  Rh  Rh240  1  0.40335789  0.20515251  0.00760906  1
  Rh  Rh241  1  0.19585396  -0.00387586  0.79139016  1
  Rh  Rh242  1  0.00789852  0.80924169  0.81642072  1
  Rh  Rh243  1  0.20847463  0.60364439  0.00543259  1
  Rh  Rh244  1  0.39569335  0.80301328  0.60287925  1
  Rh  Rh245  1  0.21031005  0.39236390  0.60661628  1
  Rh  Rh246  1  0.20392342  0.19852157  0.60131022  1
  Rh  Rh247  1  0.39861966  0.00102907  0.00089382  1
  Rh  Rh248  1  0.20905489  0.00671291  0.00411462  1
  Rh  Rh249  1  0.00102480  0.40297890  0.59239378  1
