# generated using pymatgen
data_ZrScNbPdRh
_symmetry_space_group_name_H-M   'P 1'
_cell_length_a   16.55606457
_cell_length_b   16.55583778
_cell_length_c   16.55472739
_cell_angle_alpha   89.98580630
_cell_angle_beta   89.99908181
_cell_angle_gamma   90.00401781
_symmetry_Int_Tables_number   1
_chemical_formula_structural   ZrScNbPdRh
_chemical_formula_sum   'Zr50 Sc50 Nb50 Pd50 Rh50'
_cell_volume   4537.64266736
_cell_formula_units_Z   50
loop_
 _symmetry_equiv_pos_site_id
 _symmetry_equiv_pos_as_xyz
  1  'x, y, z'
loop_
 _atom_site_type_symbol
 _atom_site_label
 _atom_site_symmetry_multiplicity
 _atom_site_fract_x
 _atom_site_fract_y
 _atom_site_fract_z
 _atom_site_occupancy
  Zr  Zr0  1  0.70411617  0.69804528  0.10074765  1
  Zr  Zr1  1  0.50059308  0.90511214  0.29604174  1
  Zr  Zr2  1  0.90123932  0.90066823  0.70417032  1
  Zr  Zr3  1  0.09758882  0.50010901  0.50348039  1
  Zr  Zr4  1  0.89622675  0.30340505  0.69984971  1
  Zr  Zr5  1  0.10597249  0.69612858  0.50887658  1
  Zr  Zr6  1  0.30582591  0.89687545  0.71110637  1
  Zr  Zr7  1  0.70313428  0.90478427  0.90046462  1
  Zr  Zr8  1  0.50974681  0.90487244  0.10286810  1
  Zr  Zr9  1  0.70468404  0.69808730  0.89668773  1
  Zr  Zr10  1  0.29485349  0.29685101  0.29458125  1
  Zr  Zr11  1  0.49348982  0.50895896  0.50431820  1
  Zr  Zr12  1  0.89669120  0.49996043  0.89211572  1
  Zr  Zr13  1  0.70925219  0.50335373  0.30040861  1
  Zr  Zr14  1  0.49885015  0.69755078  0.10497803  1
  Zr  Zr15  1  0.10131688  0.89316034  0.30187483  1
  Zr  Zr16  1  0.50642934  0.70644298  0.30219811  1
  Zr  Zr17  1  0.10387876  0.10793924  0.69713786  1
  Zr  Zr18  1  0.70553723  0.30289933  0.10098325  1
  Zr  Zr19  1  0.29511300  0.10631706  0.09809050  1
  Zr  Zr20  1  0.30521748  0.50240556  0.10118348  1
  Zr  Zr21  1  0.48659681  0.50212544  0.89296158  1
  Zr  Zr22  1  0.69986096  0.11077314  0.69437217  1
  Zr  Zr23  1  0.50311329  0.50268871  0.09562238  1
  Zr  Zr24  1  0.50134944  0.70525125  0.50326711  1
  Zr  Zr25  1  0.50134330  0.10521449  0.89634587  1
  Zr  Zr26  1  0.30329439  0.50007580  0.70313501  1
  Zr  Zr27  1  0.70492594  0.09904920  0.90301182  1
  Zr  Zr28  1  0.49284993  0.29925144  0.09789648  1
  Zr  Zr29  1  0.89113622  0.89998863  0.30384809  1
  Zr  Zr30  1  0.09779247  0.28959281  0.50404908  1
  Zr  Zr31  1  0.90089414  0.09015582  0.69668751  1
  Zr  Zr32  1  0.90079244  0.29883197  0.10284999  1
  Zr  Zr33  1  0.70233725  0.50759980  0.09852404  1
  Zr  Zr34  1  0.71065541  0.50379247  0.70345979  1
  Zr  Zr35  1  0.29621110  0.70103570  0.89187999  1
  Zr  Zr36  1  0.49538797  0.89757469  0.88818146  1
  Zr  Zr37  1  0.69822197  0.29566129  0.89807321  1
  Zr  Zr38  1  0.49078452  0.29434336  0.90038137  1
  Zr  Zr39  1  0.49548167  0.89895752  0.49758935  1
  Zr  Zr40  1  0.69756975  0.50998577  0.89890945  1
  Zr  Zr41  1  0.89519451  0.70058686  0.10020429  1
  Zr  Zr42  1  0.70183862  0.69797957  0.70036626  1
  Zr  Zr43  1  0.29816479  0.30319065  0.09310355  1
  Zr  Zr44  1  0.09694246  0.89743897  0.69140168  1
  Zr  Zr45  1  0.70578959  0.29844022  0.30510556  1
  Zr  Zr46  1  0.89516486  0.10162684  0.50099600  1
  Zr  Zr47  1  0.70028484  0.29335352  0.50376161  1
  Zr  Zr48  1  0.90390715  0.90226372  0.50789989  1
  Zr  Zr49  1  0.30550108  0.69323274  0.29518465  1
  Sc  Sc50  1  0.10098500  0.09559114  0.90647644  1
  Sc  Sc51  1  0.49468660  0.69798531  0.70045760  1
  Sc  Sc52  1  0.70074520  0.69937807  0.49562643  1
  Sc  Sc53  1  0.11073754  0.30296593  0.89799381  1
  Sc  Sc54  1  0.90062016  0.70925372  0.90160475  1
  Sc  Sc55  1  0.29881807  0.09537915  0.29341462  1
  Sc  Sc56  1  0.90239955  0.70367066  0.69990137  1
  Sc  Sc57  1  0.49397324  0.88966615  0.69161396  1
  Sc  Sc58  1  0.29314976  0.29447373  0.70507022  1
  Sc  Sc59  1  0.29471290  0.90455615  0.10125844  1
  Sc  Sc60  1  0.49369649  0.29642743  0.70717354  1
  Sc  Sc61  1  0.50166251  0.30266343  0.29718059  1
  Sc  Sc62  1  0.70858339  0.10023006  0.30396900  1
  Sc  Sc63  1  0.10311608  0.90021761  0.90588741  1
  Sc  Sc64  1  0.10358429  0.90047851  0.09428528  1
  Sc  Sc65  1  0.70016019  0.89741086  0.29636010  1
  Sc  Sc66  1  0.89704100  0.50650707  0.10366094  1
  Sc  Sc67  1  0.70089521  0.88734178  0.49688541  1
  Sc  Sc68  1  0.70385588  0.29950200  0.69824750  1
  Sc  Sc69  1  0.90256869  0.50544088  0.49983064  1
  Sc  Sc70  1  0.89999889  0.49827411  0.69416914  1
  Sc  Sc71  1  0.50350579  0.69202428  0.89096582  1
  Sc  Sc72  1  0.90022476  0.30034048  0.50042774  1
  Sc  Sc73  1  0.89810227  0.10469002  0.30620007  1
  Sc  Sc74  1  0.50184072  0.09757130  0.09868089  1
  Sc  Sc75  1  0.29557884  0.09603434  0.70324897  1
  Sc  Sc76  1  0.89718758  0.69851838  0.29881383  1
  Sc  Sc77  1  0.89171913  0.29751324  0.90289017  1
  Sc  Sc78  1  0.70131141  0.09019782  0.09665385  1
  Sc  Sc79  1  0.29877244  0.89531197  0.50881443  1
  Sc  Sc80  1  0.09053401  0.10063172  0.50104521  1
  Sc  Sc81  1  0.89963490  0.10124263  0.09460993  1
  Sc  Sc82  1  0.10270117  0.10193874  0.09932487  1
  Sc  Sc83  1  0.70316759  0.90524822  0.10535696  1
  Sc  Sc84  1  0.09300752  0.70535983  0.09680613  1
  Sc  Sc85  1  0.70762948  0.89317926  0.69818093  1
  Sc  Sc86  1  0.89589021  0.89873370  0.10204866  1
  Sc  Sc87  1  0.10196267  0.70626516  0.90349157  1
  Sc  Sc88  1  0.49831506  0.10200769  0.49933409  1
  Sc  Sc89  1  0.50611135  0.29378839  0.50127986  1
  Sc  Sc90  1  0.29657728  0.10276546  0.89074218  1
  Sc  Sc91  1  0.09813394  0.69423650  0.30335714  1
  Sc  Sc92  1  0.09238620  0.29371270  0.30542144  1
  Sc  Sc93  1  0.29904981  0.09098327  0.49865878  1
  Sc  Sc94  1  0.28810110  0.30239364  0.50506935  1
  Sc  Sc95  1  0.70935740  0.50827543  0.50573569  1
  Sc  Sc96  1  0.09918889  0.30255753  0.69424597  1
  Sc  Sc97  1  0.10229631  0.29450990  0.10084814  1
  Sc  Sc98  1  0.09475071  0.50599800  0.10329627  1
  Sc  Sc99  1  0.49832450  0.50892996  0.29573508  1
  Nb  Nb100  1  0.10090058  0.89349191  0.49591824  1
  Nb  Nb101  1  0.30091308  0.89849806  0.90399523  1
  Nb  Nb102  1  0.09801176  0.49852920  0.30468227  1
  Nb  Nb103  1  0.91391018  0.49567230  0.30450834  1
  Nb  Nb104  1  0.29706216  0.50087151  0.30197532  1
  Nb  Nb105  1  0.29222405  0.49025177  0.90210284  1
  Nb  Nb106  1  0.90635471  0.69611606  0.49748871  1
  Nb  Nb107  1  0.69128459  0.11147703  0.49979443  1
  Nb  Nb108  1  0.89641835  0.91443137  0.88991588  1
  Nb  Nb109  1  0.10924700  0.68826371  0.70157629  1
  Nb  Nb110  1  0.10115518  0.51041409  0.69996013  1
  Nb  Nb111  1  0.09919261  0.09775441  0.30155877  1
  Nb  Nb112  1  0.10458387  0.49759298  0.89933505  1
  Nb  Nb113  1  0.70286291  0.70807402  0.30061889  1
  Nb  Nb114  1  0.29982533  0.69854046  0.09949912  1
  Nb  Nb115  1  0.50134157  0.09791224  0.30442877  1
  Nb  Nb116  1  0.30290360  0.30925711  0.90154082  1
  Nb  Nb117  1  0.89986850  0.09131594  0.89622262  1
  Nb  Nb118  1  0.89766040  0.30388523  0.29955941  1
  Nb  Nb119  1  0.30042667  0.89796898  0.30623404  1
  Nb  Nb120  1  0.49981372  0.49777453  0.70087407  1
  Nb  Nb121  1  0.28777579  0.69747103  0.69772595  1
  Nb  Nb122  1  0.30345838  0.50120732  0.49670550  1
  Nb  Nb123  1  0.30020220  0.69585780  0.49603682  1
  Nb  Nb124  1  0.49714955  0.10207932  0.70287581  1
  Nb  Nb125  1  0.59719713  0.79966354  -0.00115630  1
  Nb  Nb126  1  0.59888065  0.40507982  0.40566870  1
  Nb  Nb127  1  0.39467247  0.79845437  0.39851840  1
  Nb  Nb128  1  0.00126523  0.79873440  0.40817905  1
  Nb  Nb129  1  0.00109230  0.40288183  -0.00309309  1
  Nb  Nb130  1  0.59871852  0.00367113  0.79049597  1
  Nb  Nb131  1  0.39748769  -0.00437215  -0.00592360  1
  Nb  Nb132  1  0.00357774  0.00085042  0.20743694  1
  Nb  Nb133  1  0.59937303  0.00416816  0.59851205  1
  Nb  Nb134  1  0.20340297  0.59617725  -0.00314547  1
  Nb  Nb135  1  -0.00322909  0.19625877  0.80255368  1
  Nb  Nb136  1  0.20356783  0.59280928  0.40042873  1
  Nb  Nb137  1  0.20579959  0.79653317  0.20286827  1
  Nb  Nb138  1  0.01064970  0.59728697  0.79839178  1
  Nb  Nb139  1  0.39758096  0.40118923  0.40180571  1
  Nb  Nb140  1  0.19506990  -0.00877608  0.39821312  1
  Nb  Nb141  1  0.59652863  0.40541471  0.60325646  1
  Nb  Nb142  1  0.39878760  0.19656955  0.59870726  1
  Nb  Nb143  1  0.39812913  0.20230893  0.39994448  1
  Nb  Nb144  1  0.59852467  0.40209875  -0.00454857  1
  Nb  Nb145  1  0.19718829  0.40722191  0.20777449  1
  Nb  Nb146  1  0.59976388  0.00477155  0.40496935  1
  Nb  Nb147  1  0.39974571  0.80147821  -0.00063023  1
  Nb  Nb148  1  0.59761965  0.40374854  0.79978786  1
  Nb  Nb149  1  0.60146322  0.19918973  0.20239916  1
  Pd  Pd150  1  0.00255790  0.80296669  0.20364580  1
  Pd  Pd151  1  0.80744012  0.19524907  0.79984666  1
  Pd  Pd152  1  0.39363207  0.80511467  0.19687570  1
  Pd  Pd153  1  0.19545670  0.00006531  0.59341544  1
  Pd  Pd154  1  0.39434989  0.60684083  -0.00668637  1
  Pd  Pd155  1  0.79816270  0.80810754  -0.00199980  1
  Pd  Pd156  1  0.80758443  0.40762590  0.20254761  1
  Pd  Pd157  1  0.40689607  0.19297093  0.20450512  1
  Pd  Pd158  1  0.00015614  0.20760303  -0.01043681  1
  Pd  Pd159  1  0.80121985  0.40436539  -0.00201435  1
  Pd  Pd160  1  -0.00336766  0.60272455  0.20458945  1
  Pd  Pd161  1  0.01301061  0.00334277  0.79946567  1
  Pd  Pd162  1  0.00356008  -0.00414191  0.39777368  1
  Pd  Pd163  1  0.80646040  0.60340109  0.39684817  1
  Pd  Pd164  1  0.19333093  -0.00539951  0.80249532  1
  Pd  Pd165  1  0.60544936  0.60414677  0.20655507  1
  Pd  Pd166  1  0.60233462  0.59979347  0.60412560  1
  Pd  Pd167  1  0.78666923  -0.00156818  0.59354986  1
  Pd  Pd168  1  0.39697533  0.00395261  0.19331417  1
  Pd  Pd169  1  0.40320964  0.38858024  0.59642534  1
  Pd  Pd170  1  -0.00806296  0.81194693  -0.00442652  1
  Pd  Pd171  1  0.79928513  0.40174223  0.40763361  1
  Pd  Pd172  1  0.78852690  -0.00089319  0.40901724  1
  Pd  Pd173  1  0.19741491  0.39834592  0.79070603  1
  Pd  Pd174  1  0.60352255  0.20171136  0.01115635  1
  Pd  Pd175  1  0.79651023  0.19212973  0.19635852  1
  Pd  Pd176  1  0.00531466  0.39868207  0.19342120  1
  Pd  Pd177  1  0.20423183  0.18714234  0.40130018  1
  Pd  Pd178  1  0.19426483  -0.00527089  0.20329952  1
  Pd  Pd179  1  0.80260642  0.79229012  0.59514001  1
  Pd  Pd180  1  0.00049715  0.19265017  0.20379001  1
  Pd  Pd181  1  0.60460587  0.59648068  0.39881548  1
  Pd  Pd182  1  0.00090437  0.79108477  0.60036395  1
  Pd  Pd183  1  0.00584862  0.79591927  0.80232762  1
  Pd  Pd184  1  0.40332325  0.00507626  0.60471128  1
  Pd  Pd185  1  -0.00062965  0.39334554  0.40606270  1
  Pd  Pd186  1  0.19989964  0.40440327  0.60488744  1
  Pd  Pd187  1  -0.00324992  -0.00434894  0.00906721  1
  Pd  Pd188  1  0.60170609  0.39659053  0.20085636  1
  Pd  Pd189  1  0.20173828  0.20026650  -0.00888097  1
  Pd  Pd190  1  0.19360927  0.60153845  0.19781323  1
  Pd  Pd191  1  0.20491944  0.80119750  0.60316844  1
  Pd  Pd192  1  0.60331167  0.80382061  0.79713262  1
  Pd  Pd193  1  -0.00139934  0.40174573  0.59807332  1
  Pd  Pd194  1  0.39408868  0.60668831  0.60731650  1
  Pd  Pd195  1  0.00278038  0.59629305  -0.00908989  1
  Pd  Pd196  1  0.19978306  0.40087961  0.39787035  1
  Pd  Pd197  1  0.39673840  0.40437744  0.20591987  1
  Pd  Pd198  1  0.19211734  0.80668849  0.79869829  1
  Pd  Pd199  1  0.00359703  0.39753396  0.80426090  1
  Rh  Rh200  1  0.19262559  0.20516146  0.20262247  1
  Rh  Rh201  1  0.60259186  0.20205116  0.79571982  1
  Rh  Rh202  1  0.79279341  0.39779976  0.80057836  1
  Rh  Rh203  1  -0.00432964  0.60294683  0.60870949  1
  Rh  Rh204  1  0.40519271  0.40187810  -0.00165349  1
  Rh  Rh205  1  0.19354532  0.20309457  0.80296105  1
  Rh  Rh206  1  0.20812016  0.00471540  -0.00258048  1
  Rh  Rh207  1  0.19970037  0.59555809  0.80764461  1
  Rh  Rh208  1  0.80753332  0.20136025  0.59793474  1
  Rh  Rh209  1  0.39076455  0.60098762  0.79493424  1
  Rh  Rh210  1  0.80956008  0.79378591  0.40375578  1
  Rh  Rh211  1  0.00623458  0.00045126  0.59830453  1
  Rh  Rh212  1  -0.00657058  0.20311105  0.39790394  1
  Rh  Rh213  1  0.20331450  0.79572022  0.39496134  1
  Rh  Rh214  1  0.20787227  0.79265537  0.00851980  1
  Rh  Rh215  1  -0.00645858  0.19986592  0.60822918  1
  Rh  Rh216  1  0.20743095  0.19350135  0.59668361  1
  Rh  Rh217  1  0.80701577  0.20449729  0.40245701  1
  Rh  Rh218  1  0.79655686  0.79899667  0.20072157  1
  Rh  Rh219  1  0.78948641  0.00275727  0.79297745  1
  Rh  Rh220  1  0.00490569  0.60476400  0.40051888  1
  Rh  Rh221  1  0.39839223  0.39668618  0.79822264  1
  Rh  Rh222  1  0.80804164  0.60243136  -0.00406867  1
  Rh  Rh223  1  0.80961817  0.00296397  0.20049396  1
  Rh  Rh224  1  0.38872325  0.20066820  0.79525001  1
  Rh  Rh225  1  0.80266863  0.19388525  0.00135638  1
  Rh  Rh226  1  0.39063274  0.19151496  -0.00507710  1
  Rh  Rh227  1  0.59032421  -0.00763825  -0.01452226  1
  Rh  Rh228  1  0.19076774  0.40783217  0.01394246  1
  Rh  Rh229  1  0.40346814  0.00298600  0.80135660  1
  Rh  Rh230  1  0.80774382  0.60787998  0.59972927  1
  Rh  Rh231  1  0.79580416  0.40026332  0.59590188  1
  Rh  Rh232  1  0.58887860  0.20325997  0.60972761  1
  Rh  Rh233  1  0.80514407  0.80126046  0.80176531  1
  Rh  Rh234  1  0.60775861  0.01245729  0.21302263  1
  Rh  Rh235  1  0.80903235  -0.00253336  0.00262321  1
  Rh  Rh236  1  0.39781214  -0.00177045  0.39800633  1
  Rh  Rh237  1  0.38873357  0.79027412  0.59810279  1
  Rh  Rh238  1  0.60240559  0.80080277  0.60210181  1
  Rh  Rh239  1  0.40419979  0.59696816  0.20072689  1
  Rh  Rh240  1  0.81546365  0.60830419  0.79743251  1
  Rh  Rh241  1  0.80646254  0.59847723  0.20993458  1
  Rh  Rh242  1  0.59743945  0.60323525  -0.00170441  1
  Rh  Rh243  1  0.39545072  0.78960776  0.79884736  1
  Rh  Rh244  1  0.60958565  0.79731729  0.19373927  1
  Rh  Rh245  1  0.39698336  0.60169584  0.39873095  1
  Rh  Rh246  1  0.59518842  0.80690726  0.39785152  1
  Rh  Rh247  1  0.20900293  0.59223028  0.59308266  1
  Rh  Rh248  1  0.59384074  0.20048926  0.38832293  1
  Rh  Rh249  1  0.59775307  0.59560168  0.79145376  1
