# generated using pymatgen
data_ZrScNbPdRh
_symmetry_space_group_name_H-M   'P 1'
_cell_length_a   16.56463592
_cell_length_b   16.56246912
_cell_length_c   16.56004113
_cell_angle_alpha   90.00077054
_cell_angle_beta   90.02181964
_cell_angle_gamma   90.02852247
_symmetry_Int_Tables_number   1
_chemical_formula_structural   ZrScNbPdRh
_chemical_formula_sum   'Zr50 Sc50 Nb50 Pd50 Rh50'
_cell_volume   4543.26743883
_cell_formula_units_Z   50
loop_
 _symmetry_equiv_pos_site_id
 _symmetry_equiv_pos_as_xyz
  1  'x, y, z'
loop_
 _atom_site_type_symbol
 _atom_site_label
 _atom_site_symmetry_multiplicity
 _atom_site_fract_x
 _atom_site_fract_y
 _atom_site_fract_z
 _atom_site_occupancy
  Zr  Zr0  1  0.10578711  0.29965341  0.49225813  1
  Zr  Zr1  1  0.10793293  0.30125286  0.70146734  1
  Zr  Zr2  1  0.09713181  0.70228529  0.90028203  1
  Zr  Zr3  1  0.90379029  0.09337281  0.50636471  1
  Zr  Zr4  1  0.89451046  0.70185990  0.30126565  1
  Zr  Zr5  1  0.50156094  0.70629131  0.49812477  1
  Zr  Zr6  1  0.30254494  0.89883739  0.89230552  1
  Zr  Zr7  1  0.50160832  0.29882837  0.09785228  1
  Zr  Zr8  1  0.10488429  0.10020316  0.50583626  1
  Zr  Zr9  1  0.29531534  0.69453815  0.10908271  1
  Zr  Zr10  1  0.70288446  0.10166051  0.90673329  1
  Zr  Zr11  1  0.49630207  0.49240448  0.11246341  1
  Zr  Zr12  1  0.89967718  0.30714808  0.90830664  1
  Zr  Zr13  1  0.70114729  0.09452488  0.48204051  1
  Zr  Zr14  1  0.28712147  0.49912682  0.69492682  1
  Zr  Zr15  1  0.70265745  0.30111092  0.09962978  1
  Zr  Zr16  1  0.90212274  0.89783524  0.30128876  1
  Zr  Zr17  1  0.48865633  0.69906764  0.30372155  1
  Zr  Zr18  1  0.49781299  0.10084767  0.08896341  1
  Zr  Zr19  1  0.68474465  0.70299488  0.69656858  1
  Zr  Zr20  1  0.89780838  0.69995696  0.09954055  1
  Zr  Zr21  1  0.30023183  0.69919490  0.69824928  1
  Zr  Zr22  1  0.69097226  0.69631169  0.89548852  1
  Zr  Zr23  1  0.49904208  0.29545397  0.70397650  1
  Zr  Zr24  1  0.89856088  0.90190478  0.10262339  1
  Zr  Zr25  1  0.31174386  0.69734401  0.49608332  1
  Zr  Zr26  1  0.09913959  0.68660562  0.70108303  1
  Zr  Zr27  1  0.28899619  0.30069347  0.30380401  1
  Zr  Zr28  1  0.69954945  0.90044828  0.69817204  1
  Zr  Zr29  1  0.90319462  0.09562817  0.70457158  1
  Zr  Zr30  1  0.89686287  0.30381298  0.70516273  1
  Zr  Zr31  1  0.69629221  0.69848799  0.10119814  1
  Zr  Zr32  1  0.70136040  0.89530107  0.50221867  1
  Zr  Zr33  1  0.09359133  0.09584489  0.89911097  1
  Zr  Zr34  1  0.09137933  0.90001760  0.10461020  1
  Zr  Zr35  1  0.70016696  0.90781070  0.30892725  1
  Zr  Zr36  1  0.90999683  0.50635201  0.70510196  1
  Zr  Zr37  1  0.50383095  0.10570313  0.89791537  1
  Zr  Zr38  1  0.30498026  0.90064651  0.50288321  1
  Zr  Zr39  1  0.70371759  0.30500035  0.50789065  1
  Zr  Zr40  1  0.68983536  0.69936420  0.29907194  1
  Zr  Zr41  1  0.30258500  0.30530156  0.09859664  1
  Zr  Zr42  1  0.09728497  0.89948044  0.29283657  1
  Zr  Zr43  1  0.91828047  0.30668720  0.30037488  1
  Zr  Zr44  1  0.49319503  0.89684162  0.69494617  1
  Zr  Zr45  1  0.90479004  0.29498402  0.50199731  1
  Zr  Zr46  1  0.69646023  0.90737743  0.09688984  1
  Zr  Zr47  1  0.50513887  0.10303242  0.30484944  1
  Zr  Zr48  1  0.69616234  0.50120986  0.49758454  1
  Zr  Zr49  1  0.09161619  0.10014945  0.10406297  1
  Sc  Sc50  1  0.70233444  0.49419280  0.89980262  1
  Sc  Sc51  1  0.09382791  0.90791867  0.50028189  1
  Sc  Sc52  1  0.49182054  0.10783032  0.49737881  1
  Sc  Sc53  1  0.30798665  0.50258441  0.29253857  1
  Sc  Sc54  1  0.28867932  0.49364321  0.90882471  1
  Sc  Sc55  1  0.11612794  0.49778368  0.09376074  1
  Sc  Sc56  1  0.89119435  0.10399487  0.30082989  1
  Sc  Sc57  1  0.90770220  0.70097270  0.89764057  1
  Sc  Sc58  1  0.30051303  0.09751767  0.69022062  1
  Sc  Sc59  1  0.49389347  0.89878217  0.09933387  1
  Sc  Sc60  1  0.30163109  0.29866742  0.69630915  1
  Sc  Sc61  1  0.10460111  0.09895589  0.29708974  1
  Sc  Sc62  1  0.30845859  0.09982143  0.90155940  1
  Sc  Sc63  1  0.91343090  0.90191100  0.89714158  1
  Sc  Sc64  1  0.50297369  0.29156911  0.89786706  1
  Sc  Sc65  1  0.10450246  0.09588617  0.69640176  1
  Sc  Sc66  1  0.89967991  0.10597308  0.09969774  1
  Sc  Sc67  1  0.70710697  0.10497043  0.09857177  1
  Sc  Sc68  1  0.49429205  0.30459149  0.49965227  1
  Sc  Sc69  1  0.91778273  0.70571492  0.69537977  1
  Sc  Sc70  1  0.50519172  0.50304489  0.30138056  1
  Sc  Sc71  1  0.10170494  0.48270073  0.30185994  1
  Sc  Sc72  1  0.50389571  0.69578044  0.69707144  1
  Sc  Sc73  1  0.70304420  0.30233316  0.70414791  1
  Sc  Sc74  1  0.29672133  0.70077921  0.90194352  1
  Sc  Sc75  1  0.69004848  0.49918772  0.69727563  1
  Sc  Sc76  1  0.10372074  0.69986770  0.10441409  1
  Sc  Sc77  1  0.49997028  0.48724250  0.89175491  1
  Sc  Sc78  1  0.70160277  0.50170676  0.10026746  1
  Sc  Sc79  1  0.10852422  0.50428316  0.51029749  1
  Sc  Sc80  1  0.90120786  0.90497784  0.69360108  1
  Sc  Sc81  1  0.30083018  0.49619695  0.49903505  1
  Sc  Sc82  1  0.09755159  0.90242975  0.70721921  1
  Sc  Sc83  1  0.70043233  0.28870145  0.29732154  1
  Sc  Sc84  1  0.09240030  0.70159136  0.51124994  1
  Sc  Sc85  1  0.09090935  0.29879088  0.11186767  1
  Sc  Sc86  1  0.88889094  0.49701750  0.49096961  1
  Sc  Sc87  1  0.49990344  0.30718785  0.29735984  1
  Sc  Sc88  1  0.30186178  0.09254965  0.10205555  1
  Sc  Sc89  1  0.49535501  0.90366494  0.90507056  1
  Sc  Sc90  1  0.71292316  0.09984050  0.70327827  1
  Sc  Sc91  1  0.50096737  0.49929187  0.49790620  1
  Sc  Sc92  1  0.50129023  0.70700939  0.89275167  1
  Sc  Sc93  1  0.50124164  0.88896437  0.29813452  1
  Sc  Sc94  1  0.30428461  0.30061544  0.89394292  1
  Sc  Sc95  1  0.29941214  0.29699231  0.50300169  1
  Sc  Sc96  1  0.50177413  0.70504479  0.11640264  1
  Sc  Sc97  1  0.50213906  0.49416543  0.69771501  1
  Sc  Sc98  1  0.69115238  0.90511191  0.90380655  1
  Sc  Sc99  1  0.89775789  0.49122774  0.89934439  1
  Nb  Nb100  1  0.70034599  0.69873983  0.50341507  1
  Nb  Nb101  1  0.29666769  0.70392781  0.29979849  1
  Nb  Nb102  1  0.90139344  0.70433959  0.50296345  1
  Nb  Nb103  1  0.90113259  0.10283450  0.90076339  1
  Nb  Nb104  1  0.69780683  0.09795119  0.30041989  1
  Nb  Nb105  1  0.10114753  0.29875465  0.30040062  1
  Nb  Nb106  1  0.49879999  0.90058011  0.49365820  1
  Nb  Nb107  1  0.90055583  0.89430520  0.50219408  1
  Nb  Nb108  1  0.29805687  0.90083770  0.10060120  1
  Nb  Nb109  1  0.09464298  0.49696543  0.89269885  1
  Nb  Nb110  1  0.90216182  0.30368854  0.10642371  1
  Nb  Nb111  1  0.09675427  0.50230408  0.70047128  1
  Nb  Nb112  1  0.90137384  0.49701642  0.10017530  1
  Nb  Nb113  1  0.29713089  0.09708401  0.49788846  1
  Nb  Nb114  1  0.09997440  0.70177812  0.29667832  1
  Nb  Nb115  1  0.30630179  0.50382030  0.09533086  1
  Nb  Nb116  1  0.50561377  0.10511243  0.69902816  1
  Nb  Nb117  1  0.30092292  0.09295391  0.29871295  1
  Nb  Nb118  1  0.70381054  0.30093227  0.90100772  1
  Nb  Nb119  1  0.71380650  0.50685502  0.30777197  1
  Nb  Nb120  1  0.10047616  0.89781772  0.90336234  1
  Nb  Nb121  1  0.29791625  0.89871652  0.69543646  1
  Nb  Nb122  1  0.09623114  0.29775577  0.90063383  1
  Nb  Nb123  1  0.29663733  0.90124203  0.29034703  1
  Nb  Nb124  1  0.89957803  0.50312966  0.30060311  1
  Nb  Nb125  1  0.79890121  0.79961699  -0.00493029  1
  Nb  Nb126  1  -0.00133613  0.20158751  0.80669752  1
  Nb  Nb127  1  0.19615900  0.60887392  0.39366521  1
  Nb  Nb128  1  0.19351278  0.19809407  -0.00131120  1
  Nb  Nb129  1  0.80940938  0.40408583  0.20340136  1
  Nb  Nb130  1  -0.00152700  0.59276206  0.20246231  1
  Nb  Nb131  1  0.00280437  0.40038654  0.60307196  1
  Nb  Nb132  1  0.59634764  0.00491916  0.59712025  1
  Nb  Nb133  1  0.60158500  0.19481191  0.60141423  1
  Nb  Nb134  1  0.20097829  0.79821932  0.39741384  1
  Nb  Nb135  1  0.58868295  0.59693608  0.00185250  1
  Nb  Nb136  1  0.39573419  0.59427178  0.80290578  1
  Nb  Nb137  1  0.00150573  0.59279440  0.00345747  1
  Nb  Nb138  1  0.79868271  0.60757172  0.79198159  1
  Nb  Nb139  1  0.39668897  0.19739916  0.20388458  1
  Nb  Nb140  1  0.20473409  0.80302665  0.60102507  1
  Nb  Nb141  1  0.40319084  0.59655712  0.00154266  1
  Nb  Nb142  1  0.79812497  0.79663051  0.80108388  1
  Nb  Nb143  1  0.79889683  0.60831521  0.59951937  1
  Nb  Nb144  1  0.59587008  0.00668450  0.79223384  1
  Nb  Nb145  1  0.19647320  -0.00426869  -0.00136685  1
  Nb  Nb146  1  0.60227759  0.00600590  0.20414505  1
  Nb  Nb147  1  0.39327136  -0.00018319  0.39572768  1
  Nb  Nb148  1  0.19929119  0.80879612  0.00190408  1
  Nb  Nb149  1  0.00118200  0.60288655  0.39468912  1
  Pd  Pd150  1  0.80178896  0.60166395  -0.01140785  1
  Pd  Pd151  1  0.79451567  0.19215497  0.59679389  1
  Pd  Pd152  1  0.80545171  0.79396726  0.60949608  1
  Pd  Pd153  1  0.60563317  0.39583718  0.39461008  1
  Pd  Pd154  1  0.20120377  0.40007356  0.80216677  1
  Pd  Pd155  1  0.39574396  0.40429497  0.39574846  1
  Pd  Pd156  1  -0.00366937  0.00092481  0.00179902  1
  Pd  Pd157  1  0.20520357  0.19679220  0.19293469  1
  Pd  Pd158  1  0.19322021  0.38818327  -0.00077090  1
  Pd  Pd159  1  0.40306362  0.79369807  0.79507709  1
  Pd  Pd160  1  0.80537462  0.41384484  0.60862163  1
  Pd  Pd161  1  0.20184854  -0.00687933  0.39997001  1
  Pd  Pd162  1  0.79652647  0.38761880  0.39057855  1
  Pd  Pd163  1  0.00463254  0.18910075  0.39477762  1
  Pd  Pd164  1  0.59630600  0.60201273  0.40127783  1
  Pd  Pd165  1  0.39170700  0.19601527  0.79404116  1
  Pd  Pd166  1  0.00415297  0.20442016  0.61071678  1
  Pd  Pd167  1  0.41071735  0.00096594  0.20434808  1
  Pd  Pd168  1  0.20371805  0.40455332  0.19824015  1
  Pd  Pd169  1  0.59972300  0.40294026  -0.00268944  1
  Pd  Pd170  1  0.20295969  0.00367802  0.80171593  1
  Pd  Pd171  1  0.40486732  0.00660560  0.59450040  1
  Pd  Pd172  1  0.39489349  0.79061145  0.00586058  1
  Pd  Pd173  1  0.60533461  0.39443227  0.80034136  1
  Pd  Pd174  1  0.59761711  0.79459424  0.00244722  1
  Pd  Pd175  1  0.00744275  0.79618058  0.40482764  1
  Pd  Pd176  1  0.79787424  0.00565826  0.20008180  1
  Pd  Pd177  1  0.40393021  0.00554208  0.79634044  1
  Pd  Pd178  1  0.80356197  0.20348870  0.80655663  1
  Pd  Pd179  1  0.61688588  0.40801415  0.21222681  1
  Pd  Pd180  1  0.20172043  0.19408255  0.39963024  1
  Pd  Pd181  1  0.79470618  0.79651548  0.40083745  1
  Pd  Pd182  1  0.19439617  0.79942347  0.79750484  1
  Pd  Pd183  1  0.80437485  0.20716818  0.39710101  1
  Pd  Pd184  1  0.40395469  0.40110201  -0.00770913  1
  Pd  Pd185  1  0.59519690  0.19445942  0.19438707  1
  Pd  Pd186  1  0.59897826  0.21192165  0.40871350  1
  Pd  Pd187  1  0.79099805  0.80359603  0.19683502  1
  Pd  Pd188  1  0.00962168  0.40372568  0.00720078  1
  Pd  Pd189  1  -0.00257460  0.00613427  0.39559572  1
  Pd  Pd190  1  0.79818785  -0.01033749  0.80993717  1
  Pd  Pd191  1  0.39342532  0.19958722  0.39489825  1
  Pd  Pd192  1  0.20477320  0.59626026  0.80896622  1
  Pd  Pd193  1  0.19333216  0.58807026  0.20849900  1
  Pd  Pd194  1  0.20026519  0.19315567  0.80419548  1
  Pd  Pd195  1  0.00670840  0.41098211  0.41335691  1
  Pd  Pd196  1  0.80504748  0.20436192  0.00339688  1
  Pd  Pd197  1  0.40623882  0.59274549  0.60530513  1
  Pd  Pd198  1  0.40020916  0.39999567  0.60217590  1
  Pd  Pd199  1  0.80038825  0.59563898  0.19867244  1
  Rh  Rh200  1  -0.00262492  0.79177250  0.19615352  1
  Rh  Rh201  1  0.39451636  0.39264388  0.20473245  1
  Rh  Rh202  1  0.19777679  0.60737919  -0.00507236  1
  Rh  Rh203  1  0.00091586  0.40782534  0.19529761  1
  Rh  Rh204  1  0.00097940  0.79264193  0.00531904  1
  Rh  Rh205  1  0.60252419  0.59297459  0.20078425  1
  Rh  Rh206  1  0.00160412  -0.00390057  0.60140132  1
  Rh  Rh207  1  0.00608409  0.39266754  0.79472562  1
  Rh  Rh208  1  0.59182131  0.80714596  0.59202335  1
  Rh  Rh209  1  0.79750806  0.39815955  0.00881561  1
  Rh  Rh210  1  0.00922930  0.80932189  0.60070838  1
  Rh  Rh211  1  0.38993880  0.20350264  0.00563612  1
  Rh  Rh212  1  0.40172186  0.60252056  0.19854188  1
  Rh  Rh213  1  0.60741955  0.20570841  -0.00245359  1
  Rh  Rh214  1  -0.00064241  0.80559709  0.79389355  1
  Rh  Rh215  1  -0.00277002  0.19629414  0.20748620  1
  Rh  Rh216  1  0.80968744  -0.00587564  -0.00459974  1
  Rh  Rh217  1  0.20352086  0.40641716  0.40071767  1
  Rh  Rh218  1  0.59443500  0.59087179  0.80793935  1
  Rh  Rh219  1  0.80644877  0.20849544  0.20321716  1
  Rh  Rh220  1  0.60266698  0.79608671  0.40126576  1
  Rh  Rh221  1  0.81256884  -0.00511920  0.40387142  1
  Rh  Rh222  1  -0.01018936  0.00723875  0.20812500  1
  Rh  Rh223  1  0.39207329  0.81070178  0.39136259  1
  Rh  Rh224  1  0.58832887  -0.00274105  0.39904117  1
  Rh  Rh225  1  0.20431069  0.61078755  0.58903425  1
  Rh  Rh226  1  -0.00006982  0.00304574  0.79895936  1
  Rh  Rh227  1  0.59798999  0.81703577  0.80052726  1
  Rh  Rh228  1  0.59923406  0.59707017  0.59195744  1
  Rh  Rh229  1  0.39398197  -0.00318083  -0.00318957  1
  Rh  Rh230  1  -0.01293778  0.58634513  0.58406033  1
  Rh  Rh231  1  0.19762369  -0.00039721  0.19238664  1
  Rh  Rh232  1  -0.00340572  0.59793118  0.81252717  1
  Rh  Rh233  1  0.20532565  0.19910426  0.59630311  1
  Rh  Rh234  1  0.19894390  -0.00695184  0.60176780  1
  Rh  Rh235  1  0.38960062  0.40823573  0.79432994  1
  Rh  Rh236  1  0.20160095  0.80586153  0.19777399  1
  Rh  Rh237  1  0.59546106  0.00422008  0.00169917  1
  Rh  Rh238  1  0.60635355  0.81245655  0.20094427  1
  Rh  Rh239  1  0.79452230  0.40903003  0.79713917  1
  Rh  Rh240  1  0.79652495  0.00178964  0.59050462  1
  Rh  Rh241  1  0.39283285  0.80085045  0.19940391  1
  Rh  Rh242  1  0.59435111  0.38896838  0.59926797  1
  Rh  Rh243  1  0.80451416  0.61135185  0.40855481  1
  Rh  Rh244  1  0.61247830  0.19715459  0.79748414  1
  Rh  Rh245  1  0.19526447  0.39600789  0.59758516  1
  Rh  Rh246  1  0.40190682  0.19915332  0.59894714  1
  Rh  Rh247  1  0.39561453  0.59389534  0.39649900  1
  Rh  Rh248  1  0.39962812  0.79873601  0.60237242  1
  Rh  Rh249  1  -0.00026029  0.20499653  -0.00291019  1
