# generated using pymatgen
data_ZrScNbPdRh
_symmetry_space_group_name_H-M   'P 1'
_cell_length_a   16.56196090
_cell_length_b   16.55338042
_cell_length_c   16.55628959
_cell_angle_alpha   90.01871569
_cell_angle_beta   89.97511529
_cell_angle_gamma   89.98780743
_symmetry_Int_Tables_number   1
_chemical_formula_structural   ZrScNbPdRh
_chemical_formula_sum   'Zr50 Sc50 Nb50 Pd50 Rh50'
_cell_volume   4539.01263007
_cell_formula_units_Z   50
loop_
 _symmetry_equiv_pos_site_id
 _symmetry_equiv_pos_as_xyz
  1  'x, y, z'
loop_
 _atom_site_type_symbol
 _atom_site_label
 _atom_site_symmetry_multiplicity
 _atom_site_fract_x
 _atom_site_fract_y
 _atom_site_fract_z
 _atom_site_occupancy
  Zr  Zr0  1  0.69645820  0.09339345  0.10273774  1
  Zr  Zr1  1  0.50287865  0.89962418  0.69589686  1
  Zr  Zr2  1  0.29268929  0.49912647  0.90093035  1
  Zr  Zr3  1  0.50426825  0.90417093  0.10580245  1
  Zr  Zr4  1  0.09426142  0.30463736  0.49492513  1
  Zr  Zr5  1  0.10085683  0.30507704  0.88971347  1
  Zr  Zr6  1  0.50824921  0.50934681  0.50050093  1
  Zr  Zr7  1  0.09282574  0.10227421  0.30550987  1
  Zr  Zr8  1  0.70415280  0.29164077  0.69751364  1
  Zr  Zr9  1  0.30012464  0.90400407  0.90288847  1
  Zr  Zr10  1  0.89921865  0.69714012  0.89868262  1
  Zr  Zr11  1  0.50632329  0.09868572  0.10555050  1
  Zr  Zr12  1  0.30233533  0.10708592  0.69829727  1
  Zr  Zr13  1  0.90156391  0.09428305  0.49465374  1
  Zr  Zr14  1  0.50287219  0.29361500  0.10152297  1
  Zr  Zr15  1  0.29634695  0.29804648  0.50919028  1
  Zr  Zr16  1  0.70082362  0.29920270  0.49660294  1
  Zr  Zr17  1  0.10883287  0.10459580  0.11141360  1
  Zr  Zr18  1  0.70199885  0.89473904  0.69837223  1
  Zr  Zr19  1  0.49252501  0.50840429  0.69736916  1
  Zr  Zr20  1  0.89294736  0.90196863  0.89965271  1
  Zr  Zr21  1  0.50857162  0.09823854  0.49931424  1
  Zr  Zr22  1  0.48741324  0.30811074  0.70710825  1
  Zr  Zr23  1  0.89748254  0.10343748  0.69239686  1
  Zr  Zr24  1  0.10020167  0.50507354  0.70527387  1
  Zr  Zr25  1  0.70002417  0.88770304  0.30246003  1
  Zr  Zr26  1  0.48496653  0.11075189  0.91763975  1
  Zr  Zr27  1  0.10134657  0.30453255  0.69075282  1
  Zr  Zr28  1  0.30165378  0.68896973  0.69624177  1
  Zr  Zr29  1  0.69896254  0.49816392  0.90924594  1
  Zr  Zr30  1  0.50070550  0.69208604  0.89274380  1
  Zr  Zr31  1  0.70289868  0.89961964  0.10256793  1
  Zr  Zr32  1  0.29996627  0.69607863  0.29433982  1
  Zr  Zr33  1  0.10680444  0.70068393  0.09704227  1
  Zr  Zr34  1  0.30743748  0.09683422  0.09254592  1
  Zr  Zr35  1  0.69679075  0.09953877  0.69342553  1
  Zr  Zr36  1  0.50552871  0.08740066  0.29860162  1
  Zr  Zr37  1  0.10866314  0.91079039  0.89733534  1
  Zr  Zr38  1  0.50438999  0.70579581  0.30934465  1
  Zr  Zr39  1  0.70240033  0.10406151  0.49930261  1
  Zr  Zr40  1  0.29142607  0.09880273  0.89415079  1
  Zr  Zr41  1  0.29838714  0.50638841  0.10625259  1
  Zr  Zr42  1  0.89792323  0.89140849  0.49340286  1
  Zr  Zr43  1  0.09384151  0.51061046  0.90095554  1
  Zr  Zr44  1  0.50735223  0.69585135  0.69209473  1
  Zr  Zr45  1  0.30589264  0.90146800  0.31584992  1
  Zr  Zr46  1  0.29074627  0.89373554  0.09497131  1
  Zr  Zr47  1  0.29103368  0.09927448  0.29709904  1
  Zr  Zr48  1  0.10909929  0.50155919  0.09470567  1
  Zr  Zr49  1  0.70955568  0.49966614  0.48972418  1
  Sc  Sc50  1  0.70831306  0.89700746  0.49859169  1
  Sc  Sc51  1  0.50071341  0.90131359  0.48362574  1
  Sc  Sc52  1  0.69845374  0.31529838  0.10537747  1
  Sc  Sc53  1  0.10195022  0.29306637  0.30079008  1
  Sc  Sc54  1  0.90060499  0.70049191  0.10210698  1
  Sc  Sc55  1  0.89660903  0.30332867  0.89358482  1
  Sc  Sc56  1  0.70222083  0.70229029  0.49884679  1
  Sc  Sc57  1  0.49418904  0.89616490  0.89834724  1
  Sc  Sc58  1  0.88888926  0.69599788  0.70004735  1
  Sc  Sc59  1  0.89572149  0.10425805  0.30352085  1
  Sc  Sc60  1  0.09622272  0.09912351  0.70651508  1
  Sc  Sc61  1  0.50137174  0.09448839  0.69140767  1
  Sc  Sc62  1  0.70043633  0.50944335  0.69444788  1
  Sc  Sc63  1  0.30338122  0.70701215  0.90413960  1
  Sc  Sc64  1  0.70316119  0.10126794  0.30069893  1
  Sc  Sc65  1  0.29003181  0.70085115  0.49405185  1
  Sc  Sc66  1  0.88994956  0.30369122  0.10544116  1
  Sc  Sc67  1  0.50235013  0.69254586  0.11205787  1
  Sc  Sc68  1  0.90295794  0.30955980  0.49935214  1
  Sc  Sc69  1  0.90241970  0.50310024  0.89967422  1
  Sc  Sc70  1  0.89690756  0.90205804  0.69062447  1
  Sc  Sc71  1  0.29729664  0.50029613  0.29938747  1
  Sc  Sc72  1  0.29598810  0.69986916  0.10169637  1
  Sc  Sc73  1  0.88892396  0.49760730  0.09838513  1
  Sc  Sc74  1  0.10212884  0.69920534  0.30071854  1
  Sc  Sc75  1  0.70186468  0.89779280  0.90072861  1
  Sc  Sc76  1  0.69638515  0.09802079  0.90235832  1
  Sc  Sc77  1  0.69605494  0.30543391  0.90440028  1
  Sc  Sc78  1  0.50555535  0.49432149  0.88805408  1
  Sc  Sc79  1  0.90766463  0.30087913  0.69811588  1
  Sc  Sc80  1  0.89979689  0.70206167  0.30456850  1
  Sc  Sc81  1  0.10362950  0.89531338  0.29928154  1
  Sc  Sc82  1  0.10224729  0.49430190  0.30994200  1
  Sc  Sc83  1  0.10114743  0.89547478  0.49350307  1
  Sc  Sc84  1  0.30712138  0.09449332  0.50214110  1
  Sc  Sc85  1  0.88879927  0.09384329  0.10806378  1
  Sc  Sc86  1  0.08830990  0.50264891  0.50116248  1
  Sc  Sc87  1  0.09030351  0.10343980  0.50106458  1
  Sc  Sc88  1  0.90227966  0.50104674  0.69356402  1
  Sc  Sc89  1  0.28985590  0.30763678  0.10921314  1
  Sc  Sc90  1  0.70339758  0.30377922  0.30172078  1
  Sc  Sc91  1  0.29294308  0.31092173  0.30782962  1
  Sc  Sc92  1  0.50451339  0.30391481  0.49374170  1
  Sc  Sc93  1  0.30213596  0.49253906  0.49215877  1
  Sc  Sc94  1  0.89052708  0.90037163  0.09980972  1
  Sc  Sc95  1  0.50475787  0.49533930  0.10972835  1
  Sc  Sc96  1  0.49028189  0.49676473  0.30907458  1
  Sc  Sc97  1  0.89706546  0.50484091  0.31166309  1
  Sc  Sc98  1  0.90092001  0.10595027  0.88998694  1
  Sc  Sc99  1  0.30750621  0.90500285  0.70466156  1
  Nb  Nb100  1  0.70377215  0.50508596  0.10816225  1
  Nb  Nb101  1  0.10225383  0.69711151  0.69751689  1
  Nb  Nb102  1  0.90404672  0.90162429  0.30238908  1
  Nb  Nb103  1  0.50257759  0.89710828  0.30266006  1
  Nb  Nb104  1  0.49243947  0.29921302  0.90150408  1
  Nb  Nb105  1  0.70170750  0.70170621  0.89684066  1
  Nb  Nb106  1  0.09756879  0.30055692  0.10259861  1
  Nb  Nb107  1  0.09343401  0.69659645  0.89762578  1
  Nb  Nb108  1  0.50195606  0.70091028  0.50164337  1
  Nb  Nb109  1  0.09513903  0.69498233  0.51003582  1
  Nb  Nb110  1  0.29934876  0.30063702  0.70420200  1
  Nb  Nb111  1  0.10132240  0.89731784  0.69997131  1
  Nb  Nb112  1  0.09970125  0.89647900  0.09740720  1
  Nb  Nb113  1  0.71184997  0.50714349  0.29220207  1
  Nb  Nb114  1  0.69986283  0.70954259  0.70310739  1
  Nb  Nb115  1  0.30528003  0.49212671  0.69846691  1
  Nb  Nb116  1  0.90024397  0.30222354  0.30285414  1
  Nb  Nb117  1  0.90668375  0.68958117  0.49738503  1
  Nb  Nb118  1  0.49754866  0.29577687  0.29712294  1
  Nb  Nb119  1  0.10163983  0.10192772  0.90339763  1
  Nb  Nb120  1  0.70283687  0.69587012  0.29143933  1
  Nb  Nb121  1  0.30291589  0.89800560  0.50314880  1
  Nb  Nb122  1  0.30958293  0.29037127  0.88849531  1
  Nb  Nb123  1  0.69553570  0.69451449  0.11234453  1
  Nb  Nb124  1  0.90217323  0.50796354  0.49638324  1
  Nb  Nb125  1  0.00535186  0.00401637  0.00476126  1
  Nb  Nb126  1  0.40173268  0.79796132  0.59232698  1
  Nb  Nb127  1  0.60777167  0.78670224  0.00366587  1
  Nb  Nb128  1  0.39810367  0.39754575  -0.00395906  1
  Nb  Nb129  1  0.00560308  0.79149939  0.60221529  1
  Nb  Nb130  1  0.19310028  0.79723714  0.79488575  1
  Nb  Nb131  1  0.00027573  -0.00635076  0.19869503  1
  Nb  Nb132  1  0.00167384  0.20074739  0.00402274  1
  Nb  Nb133  1  0.40030746  0.20008142  0.20662414  1
  Nb  Nb134  1  0.78584120  0.60599871  0.00508582  1
  Nb  Nb135  1  0.59024791  0.20311996  0.80433631  1
  Nb  Nb136  1  0.60100095  0.40270350  0.60042896  1
  Nb  Nb137  1  -0.00046949  0.40082225  0.19875893  1
  Nb  Nb138  1  0.20021407  -0.00712551  0.60196617  1
  Nb  Nb139  1  0.00572191  0.80516360  -0.00484549  1
  Nb  Nb140  1  0.79594101  0.40128108  0.79698632  1
  Nb  Nb141  1  0.40281232  0.80589894  0.20740857  1
  Nb  Nb142  1  0.00408688  0.39498342  0.00531414  1
  Nb  Nb143  1  0.40283273  0.59204361  0.00042124  1
  Nb  Nb144  1  0.40362784  0.19929358  0.39314672  1
  Nb  Nb145  1  0.00538992  0.79839258  0.79716691  1
  Nb  Nb146  1  0.00224240  0.59269483  0.19776512  1
  Nb  Nb147  1  0.19579759  0.20506432  -0.00461506  1
  Nb  Nb148  1  0.79641597  0.00395511  0.79260664  1
  Nb  Nb149  1  0.80112243  0.20155588  0.00179250  1
  Pd  Pd150  1  0.19693270  -0.00967936  0.20209343  1
  Pd  Pd151  1  0.81169305  0.20490112  0.58825964  1
  Pd  Pd152  1  0.39513653  0.79454338  0.78973113  1
  Pd  Pd153  1  0.19421893  0.59658653  0.40409035  1
  Pd  Pd154  1  0.20253985  0.39077237  -0.00535483  1
  Pd  Pd155  1  0.40730304  0.00810226  0.80298275  1
  Pd  Pd156  1  0.59748018  0.00655369  0.80773064  1
  Pd  Pd157  1  0.40830232  0.20334994  0.59314896  1
  Pd  Pd158  1  0.59117933  0.40269370  0.00461767  1
  Pd  Pd159  1  0.19223092  0.18991250  0.59938782  1
  Pd  Pd160  1  0.00275619  0.20169827  0.79834264  1
  Pd  Pd161  1  0.20633787  0.60666892  0.80526251  1
  Pd  Pd162  1  -0.00990860  0.20019302  0.19787042  1
  Pd  Pd163  1  0.79600673  0.59263266  0.80436669  1
  Pd  Pd164  1  0.60724445  0.39497125  0.79072581  1
  Pd  Pd165  1  0.79895094  0.40172769  0.60374059  1
  Pd  Pd166  1  0.20568761  0.19680772  0.40835413  1
  Pd  Pd167  1  0.59738530  0.80552410  0.58855410  1
  Pd  Pd168  1  0.80734138  0.79787068  0.20289367  1
  Pd  Pd169  1  0.41371298  0.79120371  0.01289627  1
  Pd  Pd170  1  0.79776666  0.79056403  0.00567489  1
  Pd  Pd171  1  0.60959456  0.59948939  0.79473259  1
  Pd  Pd172  1  0.61048920  0.20467070  -0.00057579  1
  Pd  Pd173  1  0.40681791  0.40120800  0.59103504  1
  Pd  Pd174  1  0.39868016  0.39564544  0.19775804  1
  Pd  Pd175  1  0.39581128  0.60341558  0.40413492  1
  Pd  Pd176  1  0.59633038  0.60028680  0.00270523  1
  Pd  Pd177  1  0.59911850  0.19899578  0.39065633  1
  Pd  Pd178  1  0.20401809  0.80522543  0.60452981  1
  Pd  Pd179  1  0.00664615  -0.00924418  0.59527299  1
  Pd  Pd180  1  0.59866514  0.80181564  0.80708829  1
  Pd  Pd181  1  -0.00768468  -0.00278904  0.80069060  1
  Pd  Pd182  1  0.60186676  0.40506108  0.21253686  1
  Pd  Pd183  1  0.19412530  0.00501931  0.41208827  1
  Pd  Pd184  1  0.60380645  -0.01146249  0.58840340  1
  Pd  Pd185  1  0.19540043  0.79500838  0.39962677  1
  Pd  Pd186  1  0.79716805  -0.00095840  0.39476337  1
  Pd  Pd187  1  0.60300998  0.40433527  0.39488997  1
  Pd  Pd188  1  0.39407083  -0.00437320  0.20092746  1
  Pd  Pd189  1  0.79182190  0.20519392  0.19655666  1
  Pd  Pd190  1  0.59626021  -0.01026163  -0.00940936  1
  Pd  Pd191  1  0.20376957  0.58704392  0.59205900  1
  Pd  Pd192  1  -0.00232629  0.79940476  0.19477648  1
  Pd  Pd193  1  0.60873645  0.60288660  0.39451161  1
  Pd  Pd194  1  0.79605981  0.60613856  0.59618594  1
  Pd  Pd195  1  0.00529356  0.79349836  0.40332191  1
  Pd  Pd196  1  0.20369314  0.40018276  0.79631347  1
  Pd  Pd197  1  0.39009629  0.60234764  0.58547135  1
  Pd  Pd198  1  0.59157702  0.58944280  0.21517190  1
  Pd  Pd199  1  0.19675366  0.40936446  0.59662436  1
  Rh  Rh200  1  -0.00465136  0.39964890  0.39350556  1
  Rh  Rh201  1  0.80387179  -0.00738217  0.21172585  1
  Rh  Rh202  1  0.40274365  0.00745372  0.40309010  1
  Rh  Rh203  1  0.00398968  0.60392723  0.39376833  1
  Rh  Rh204  1  0.19532497  0.20305519  0.79766775  1
  Rh  Rh205  1  0.60742579  0.79529044  0.40216607  1
  Rh  Rh206  1  0.39198944  0.40766562  0.80594280  1
  Rh  Rh207  1  0.40772702  0.19093100  0.79211340  1
  Rh  Rh208  1  0.80275994  0.79179490  0.39768216  1
  Rh  Rh209  1  0.39848509  -0.00990877  0.59469545  1
  Rh  Rh210  1  0.19620514  0.40000717  0.40615593  1
  Rh  Rh211  1  -0.00751182  0.40649962  0.80284180  1
  Rh  Rh212  1  0.20295015  -0.00041057  0.78756318  1
  Rh  Rh213  1  0.79805229  0.60816774  0.39822585  1
  Rh  Rh214  1  0.60971637  0.60031541  0.59832179  1
  Rh  Rh215  1  0.18959783  0.40180647  0.20905399  1
  Rh  Rh216  1  0.40109851  0.60423371  0.19980955  1
  Rh  Rh217  1  0.20946527  0.61074394  -0.00625808  1
  Rh  Rh218  1  0.00090840  0.40743281  0.59905335  1
  Rh  Rh219  1  0.20853765  0.80439260  0.20756409  1
  Rh  Rh220  1  0.39889896  0.39143621  0.40337945  1
  Rh  Rh221  1  0.80532686  0.40249185  -0.00797319  1
  Rh  Rh222  1  0.59539932  0.80217539  0.19713510  1
  Rh  Rh223  1  0.78528610  0.20091360  0.81024572  1
  Rh  Rh224  1  0.60210884  0.20207162  0.20272439  1
  Rh  Rh225  1  -0.00779511  0.20511475  0.40224581  1
  Rh  Rh226  1  0.39361090  0.59450688  0.80633154  1
  Rh  Rh227  1  0.80833774  0.01440503  -0.01251675  1
  Rh  Rh228  1  0.38485410  0.21612930  0.01441127  1
  Rh  Rh229  1  0.20830562  0.20510143  0.20035587  1
  Rh  Rh230  1  0.19108664  0.59654799  0.20651112  1
  Rh  Rh231  1  0.80348212  0.80698065  0.79418176  1
  Rh  Rh232  1  0.19135557  0.79423556  -0.01236548  1
  Rh  Rh233  1  0.80537445  0.20495991  0.40231429  1
  Rh  Rh234  1  0.58763283  0.21504671  0.61166513  1
  Rh  Rh235  1  0.80857338  0.79198367  0.59646094  1
  Rh  Rh236  1  0.00153207  -0.00370518  0.39274226  1
  Rh  Rh237  1  0.79705011  0.00003337  0.60055185  1
  Rh  Rh238  1  0.80422014  0.40073127  0.39712908  1
  Rh  Rh239  1  -0.00405157  0.60245161  0.60561131  1
  Rh  Rh240  1  0.40279587  -0.00913257  0.00054496  1
  Rh  Rh241  1  0.80603900  0.40408931  0.21014719  1
  Rh  Rh242  1  -0.00028457  0.20234754  0.59821714  1
  Rh  Rh243  1  0.81107716  0.60132158  0.19847891  1
  Rh  Rh244  1  0.61252842  -0.00706393  0.20997498  1
  Rh  Rh245  1  -0.00588035  0.60439876  0.78994259  1
  Rh  Rh246  1  0.19641328  0.00930938  0.00590110  1
  Rh  Rh247  1  -0.00953788  0.59923117  0.01067428  1
  Rh  Rh248  1  0.39874060  0.79305944  0.40263363  1
  Rh  Rh249  1  0.61042295  -0.00385762  0.39898141  1
