# generated using pymatgen
data_ZrScNbPdRh
_symmetry_space_group_name_H-M   'P 1'
_cell_length_a   16.55719647
_cell_length_b   16.55467176
_cell_length_c   16.56123547
_cell_angle_alpha   89.99240660
_cell_angle_beta   90.00862767
_cell_angle_gamma   90.00076261
_symmetry_Int_Tables_number   1
_chemical_formula_structural   ZrScNbPdRh
_chemical_formula_sum   'Zr50 Sc50 Nb50 Pd50 Rh50'
_cell_volume   4539.41720606
_cell_formula_units_Z   50
loop_
 _symmetry_equiv_pos_site_id
 _symmetry_equiv_pos_as_xyz
  1  'x, y, z'
loop_
 _atom_site_type_symbol
 _atom_site_label
 _atom_site_symmetry_multiplicity
 _atom_site_fract_x
 _atom_site_fract_y
 _atom_site_fract_z
 _atom_site_occupancy
  Zr  Zr0  1  0.89207448  0.30783365  0.70116172  1
  Zr  Zr1  1  0.90065707  0.89541179  0.50269091  1
  Zr  Zr2  1  0.69792432  0.89811857  0.09256373  1
  Zr  Zr3  1  0.09599998  0.71390192  0.29616880  1
  Zr  Zr4  1  0.09668398  0.50169068  0.09006304  1
  Zr  Zr5  1  0.10827455  0.30212117  0.29988288  1
  Zr  Zr6  1  0.29942376  0.70957571  0.10010442  1
  Zr  Zr7  1  0.09519644  0.30487586  0.49771783  1
  Zr  Zr8  1  0.10172470  0.09863632  0.89295849  1
  Zr  Zr9  1  0.29585468  0.89899524  0.90905533  1
  Zr  Zr10  1  0.69979274  0.89716429  0.30360488  1
  Zr  Zr11  1  0.09729896  0.08701747  0.11143757  1
  Zr  Zr12  1  0.49021448  0.09821608  0.50009807  1
  Zr  Zr13  1  0.10451671  0.09222014  0.50061276  1
  Zr  Zr14  1  0.09727475  0.70115328  0.09358189  1
  Zr  Zr15  1  0.90286587  0.09242267  0.29874919  1
  Zr  Zr16  1  0.30038019  0.70210465  0.30510775  1
  Zr  Zr17  1  0.90687643  0.49273887  0.50911156  1
  Zr  Zr18  1  0.30047438  0.49629825  0.29794889  1
  Zr  Zr19  1  0.29036647  0.89463320  0.70045104  1
  Zr  Zr20  1  0.69805140  0.09649461  0.29811276  1
  Zr  Zr21  1  0.31218899  0.29682850  0.69818443  1
  Zr  Zr22  1  0.69339123  0.10360871  0.09851384  1
  Zr  Zr23  1  0.10037435  0.50644629  0.70764590  1
  Zr  Zr24  1  0.69563229  0.69799547  0.29059914  1
  Zr  Zr25  1  0.89934960  0.29349170  0.29962906  1
  Zr  Zr26  1  0.10028851  0.30705050  0.89735410  1
  Zr  Zr27  1  0.30872985  0.09407756  0.09768718  1
  Zr  Zr28  1  0.50727359  0.50319215  0.69893826  1
  Zr  Zr29  1  0.69921441  0.69848125  0.70792877  1
  Zr  Zr30  1  0.49472920  0.30244757  0.10422804  1
  Zr  Zr31  1  0.50156130  0.50157250  0.09474154  1
  Zr  Zr32  1  0.90222117  0.70025946  0.29863936  1
  Zr  Zr33  1  0.50012121  0.70238540  0.30305266  1
  Zr  Zr34  1  0.90117355  0.09953647  0.90114476  1
  Zr  Zr35  1  0.49555145  0.09802491  0.90772818  1
  Zr  Zr36  1  0.89790027  0.30566995  0.90325577  1
  Zr  Zr37  1  0.90459202  0.70562415  0.50056523  1
  Zr  Zr38  1  0.10170087  0.50694130  0.51111653  1
  Zr  Zr39  1  0.48927631  0.90615201  0.49923633  1
  Zr  Zr40  1  0.49092068  0.69821062  0.50114834  1
  Zr  Zr41  1  0.70247890  0.10123899  0.71166791  1
  Zr  Zr42  1  0.90723869  0.89160083  0.30415972  1
  Zr  Zr43  1  0.49688863  0.09993273  0.30076216  1
  Zr  Zr44  1  0.50794332  0.90030776  0.90286231  1
  Zr  Zr45  1  0.10018957  0.89584566  0.89700198  1
  Zr  Zr46  1  0.30303799  0.70734456  0.49955298  1
  Zr  Zr47  1  0.70112507  0.49275088  0.70449588  1
  Zr  Zr48  1  0.09909259  0.70116623  0.70638261  1
  Zr  Zr49  1  0.49375234  0.30303750  0.50198254  1
  Sc  Sc50  1  0.90844170  0.88854152  0.70359512  1
  Sc  Sc51  1  0.30466179  0.09394517  0.49615579  1
  Sc  Sc52  1  0.09932334  0.29605754  0.70872316  1
  Sc  Sc53  1  0.89863136  0.49839638  0.89975185  1
  Sc  Sc54  1  0.89969245  0.09862056  0.09570667  1
  Sc  Sc55  1  0.30134249  0.50408296  0.89864133  1
  Sc  Sc56  1  0.90211000  0.09544966  0.49713442  1
  Sc  Sc57  1  0.90385613  0.50639919  0.29739609  1
  Sc  Sc58  1  0.49704896  0.09740708  0.10420847  1
  Sc  Sc59  1  0.49236996  0.10077886  0.70240886  1
  Sc  Sc60  1  0.49727850  0.30609572  0.30024724  1
  Sc  Sc61  1  0.89599715  0.29773784  0.09004734  1
  Sc  Sc62  1  0.70331485  0.51332769  0.09793701  1
  Sc  Sc63  1  0.49982270  0.50093736  0.49703824  1
  Sc  Sc64  1  0.89772302  0.69993836  0.89698329  1
  Sc  Sc65  1  0.50408042  0.69730056  0.89282916  1
  Sc  Sc66  1  0.10193246  0.69910550  0.50244297  1
  Sc  Sc67  1  0.70112779  0.90333073  0.89300238  1
  Sc  Sc68  1  0.68868312  0.48906801  0.50709963  1
  Sc  Sc69  1  0.29287136  0.89376035  0.29770112  1
  Sc  Sc70  1  0.50319591  0.89867148  0.30052213  1
  Sc  Sc71  1  0.10013387  0.50182706  0.30626459  1
  Sc  Sc72  1  0.90213880  0.50130098  0.70607529  1
  Sc  Sc73  1  0.30412639  0.51403357  0.49982745  1
  Sc  Sc74  1  0.69152639  0.50133449  0.29785259  1
  Sc  Sc75  1  0.70555182  0.29884924  0.09720416  1
  Sc  Sc76  1  0.90521764  0.10286149  0.70725561  1
  Sc  Sc77  1  0.90325631  0.90008013  0.90467571  1
  Sc  Sc78  1  0.30016857  0.10173871  0.69794368  1
  Sc  Sc79  1  0.70143490  0.09701975  0.89884203  1
  Sc  Sc80  1  0.49501899  0.30325023  0.88563671  1
  Sc  Sc81  1  0.70407486  0.89839096  0.49236210  1
  Sc  Sc82  1  0.90419276  0.69960134  0.70399517  1
  Sc  Sc83  1  0.50266584  0.69731833  0.10681208  1
  Sc  Sc84  1  0.89618817  0.50304585  0.08921630  1
  Sc  Sc85  1  0.89886237  0.69442360  0.09272503  1
  Sc  Sc86  1  0.31195367  0.49759364  0.10002552  1
  Sc  Sc87  1  0.70428047  0.09146757  0.48929025  1
  Sc  Sc88  1  0.49257730  0.90343035  0.10040435  1
  Sc  Sc89  1  0.30184905  0.29432964  0.88944042  1
  Sc  Sc90  1  0.70532156  0.69315130  0.89989064  1
  Sc  Sc91  1  0.69297796  0.29438483  0.29538102  1
  Sc  Sc92  1  0.30249388  0.50790142  0.69787202  1
  Sc  Sc93  1  0.09849602  0.09613107  0.69949306  1
  Sc  Sc94  1  0.49700340  0.89915985  0.71168761  1
  Sc  Sc95  1  0.50118962  0.50548241  0.89653205  1
  Sc  Sc96  1  0.29551368  0.70620621  0.90065690  1
  Sc  Sc97  1  0.70757211  0.29878186  0.89075033  1
  Sc  Sc98  1  0.50161568  0.49963795  0.29730438  1
  Sc  Sc99  1  0.69930019  0.70750272  0.49547204  1
  Nb  Nb100  1  0.69932791  0.50027040  0.90071985  1
  Nb  Nb101  1  0.30793376  0.70081191  0.69601042  1
  Nb  Nb102  1  0.90265245  0.89773050  0.09486576  1
  Nb  Nb103  1  0.29495716  0.10510104  0.30042019  1
  Nb  Nb104  1  0.69535958  0.30308040  0.69555134  1
  Nb  Nb105  1  0.09841053  0.50318715  0.90024702  1
  Nb  Nb106  1  0.09933015  0.91122466  0.28054274  1
  Nb  Nb107  1  0.28579819  0.89811967  0.09735559  1
  Nb  Nb108  1  0.10225348  0.29856332  0.09986589  1
  Nb  Nb109  1  0.29497226  0.90222888  0.50707489  1
  Nb  Nb110  1  0.69851517  0.30081634  0.50126295  1
  Nb  Nb111  1  0.29940546  0.10087878  0.90077242  1
  Nb  Nb112  1  0.29639802  0.30116086  0.10652950  1
  Nb  Nb113  1  0.09923977  0.89656832  0.10418288  1
  Nb  Nb114  1  0.10849608  0.90608210  0.52116905  1
  Nb  Nb115  1  0.89774435  0.29870349  0.50141114  1
  Nb  Nb116  1  0.50341188  0.29902221  0.69814794  1
  Nb  Nb117  1  0.10035934  0.68809239  0.90047443  1
  Nb  Nb118  1  0.30068196  0.29661440  0.49652140  1
  Nb  Nb119  1  0.70184633  0.69924131  0.09823978  1
  Nb  Nb120  1  0.29874185  0.30009168  0.30278341  1
  Nb  Nb121  1  0.69314023  0.90143856  0.70174883  1
  Nb  Nb122  1  0.09915257  0.89800100  0.69991335  1
  Nb  Nb123  1  0.10093321  0.09488228  0.29933055  1
  Nb  Nb124  1  0.50268251  0.70088809  0.70053356  1
  Nb  Nb125  1  0.20361771  0.19929367  0.20223911  1
  Nb  Nb126  1  0.01197043  0.20027772  0.00075942  1
  Nb  Nb127  1  0.20456396  0.39483451  0.59867131  1
  Nb  Nb128  1  0.80011597  0.59419556  0.40651915  1
  Nb  Nb129  1  0.80575922  0.40150270  0.20399993  1
  Nb  Nb130  1  0.19990147  0.60452434  0.19836803  1
  Nb  Nb131  1  0.60202680  0.39912656  -0.00504639  1
  Nb  Nb132  1  0.80119159  -0.00927305  0.19687543  1
  Nb  Nb133  1  0.59698189  0.19989296  0.40737310  1
  Nb  Nb134  1  0.79988867  0.39754008  0.40086362  1
  Nb  Nb135  1  -0.00035813  0.39596583  0.19420553  1
  Nb  Nb136  1  0.79901046  0.59894256  0.59657118  1
  Nb  Nb137  1  0.20125610  0.39489523  0.00067150  1
  Nb  Nb138  1  0.59532900  0.20653648  -0.00169097  1
  Nb  Nb139  1  0.60494778  0.79512920  0.00181799  1
  Nb  Nb140  1  0.00579321  0.19720566  0.39688472  1
  Nb  Nb141  1  0.80054290  0.80140176  0.19164112  1
  Nb  Nb142  1  0.79568029  -0.00117425  0.60691620  1
  Nb  Nb143  1  0.20239466  0.20718874  0.59295340  1
  Nb  Nb144  1  0.20139134  0.20076977  0.00663612  1
  Nb  Nb145  1  0.39165355  -0.00086469  0.81066785  1
  Nb  Nb146  1  0.79456932  0.20211051  0.59815526  1
  Nb  Nb147  1  0.60346493  0.19960591  0.59952903  1
  Nb  Nb148  1  0.60365780  -0.00093121  0.60384802  1
  Nb  Nb149  1  0.59662381  0.80329736  0.60657678  1
  Pd  Pd150  1  0.01957072  0.81460679  0.41005556  1
  Pd  Pd151  1  0.00907730  0.39697895  0.61334863  1
  Pd  Pd152  1  -0.00446842  0.20419559  0.80454176  1
  Pd  Pd153  1  0.59557516  0.19928541  0.80250383  1
  Pd  Pd154  1  0.19659344  0.78949166  0.60210979  1
  Pd  Pd155  1  0.39813385  0.60396143  0.80014457  1
  Pd  Pd156  1  0.60090341  -0.00475689  0.19833928  1
  Pd  Pd157  1  -0.00658364  0.39816394  0.39178632  1
  Pd  Pd158  1  0.40535446  0.80693212  0.60606406  1
  Pd  Pd159  1  0.60623581  0.60812123  0.59512812  1
  Pd  Pd160  1  -0.00136289  0.59928598  0.40332840  1
  Pd  Pd161  1  0.79851276  0.20183615  0.40446314  1
  Pd  Pd162  1  0.38809245  -0.00688901  0.38922971  1
  Pd  Pd163  1  0.00348093  0.20334825  0.19878767  1
  Pd  Pd164  1  0.39731078  0.40429161  0.39965785  1
  Pd  Pd165  1  0.39871214  0.39395599  -0.00921773  1
  Pd  Pd166  1  0.40131511  0.60945146  -0.00490705  1
  Pd  Pd167  1  0.19563890  0.40754510  0.19341252  1
  Pd  Pd168  1  0.20893009  0.60646234  0.79843834  1
  Pd  Pd169  1  0.80072192  0.19757930  0.19402463  1
  Pd  Pd170  1  0.60409984  0.59734258  0.40563990  1
  Pd  Pd171  1  0.79245611  0.79973783  0.60672221  1
  Pd  Pd172  1  0.00438306  0.59458452  0.19573139  1
  Pd  Pd173  1  0.39747728  0.60104168  0.20313815  1
  Pd  Pd174  1  0.79813369  0.00242016  0.00128473  1
  Pd  Pd175  1  0.60990632  0.40384688  0.18925662  1
  Pd  Pd176  1  0.00082893  0.79685739  -0.00515778  1
  Pd  Pd177  1  0.39984854  0.21016972  -0.00268610  1
  Pd  Pd178  1  0.00644534  -0.00510473  0.40359137  1
  Pd  Pd179  1  0.20736371  0.40917628  0.41138926  1
  Pd  Pd180  1  0.39217357  -0.00910102  0.20570072  1
  Pd  Pd181  1  0.39658837  0.20347877  0.20670306  1
  Pd  Pd182  1  0.21103743  0.59355673  0.00581150  1
  Pd  Pd183  1  0.20207755  -0.00956772  0.39623517  1
  Pd  Pd184  1  -0.01039232  -0.00035468  0.60811949  1
  Pd  Pd185  1  0.39795868  0.80240314  0.80364894  1
  Pd  Pd186  1  0.19755616  0.19534333  0.40196790  1
  Pd  Pd187  1  0.81229717  -0.00925360  0.79450373  1
  Pd  Pd188  1  0.20308118  0.00277285  0.79426242  1
  Pd  Pd189  1  0.19707378  0.60244060  0.39506069  1
  Pd  Pd190  1  0.39743287  0.40904764  0.59908668  1
  Pd  Pd191  1  0.19327332  0.00444491  0.00188570  1
  Pd  Pd192  1  0.41089026  0.79592547  0.00117434  1
  Pd  Pd193  1  0.20735648  0.40301398  0.79809460  1
  Pd  Pd194  1  0.40002173  0.40975694  0.79735575  1
  Pd  Pd195  1  0.59327344  0.80355387  0.40970251  1
  Pd  Pd196  1  0.19151800  0.81379246  0.40430872  1
  Pd  Pd197  1  0.40091709  0.80712528  0.20067528  1
  Pd  Pd198  1  -0.00093303  0.19836882  0.59488416  1
  Pd  Pd199  1  0.80066152  0.80375541  0.80266883  1
  Rh  Rh200  1  0.59430446  0.00528335  0.40590318  1
  Rh  Rh201  1  0.39732673  0.80692301  0.39996523  1
  Rh  Rh202  1  0.19777332  0.79325944  0.80092980  1
  Rh  Rh203  1  0.60209023  0.59816636  0.80134628  1
  Rh  Rh204  1  0.00543923  0.79601060  0.80744856  1
  Rh  Rh205  1  -0.00309148  0.59973125  0.80600828  1
  Rh  Rh206  1  0.00925411  0.79855242  0.60065379  1
  Rh  Rh207  1  0.18972790  0.79880965  -0.00232737  1
  Rh  Rh208  1  0.00577482  0.00253794  -0.00112610  1
  Rh  Rh209  1  0.79819885  0.19384731  -0.00590109  1
  Rh  Rh210  1  0.00039473  -0.00791893  0.79740005  1
  Rh  Rh211  1  0.39967992  0.19938771  0.59871838  1
  Rh  Rh212  1  0.19685742  0.79699452  0.19617205  1
  Rh  Rh213  1  0.00499640  0.39664757  0.00151574  1
  Rh  Rh214  1  0.59088017  0.39506458  0.60213938  1
  Rh  Rh215  1  0.60107867  0.60096396  -0.00234290  1
  Rh  Rh216  1  0.79700274  0.78877306  0.38898929  1
  Rh  Rh217  1  -0.00121213  0.40557198  0.80016642  1
  Rh  Rh218  1  0.40139224  0.19139216  0.79874844  1
  Rh  Rh219  1  0.20534884  0.60357928  0.60614721  1
  Rh  Rh220  1  0.59972898  0.00158508  0.00022383  1
  Rh  Rh221  1  0.79496795  0.79629949  0.00104366  1
  Rh  Rh222  1  0.78823866  0.40720533  0.00495710  1
  Rh  Rh223  1  0.80098619  0.60152173  0.20608724  1
  Rh  Rh224  1  0.21115560  0.00342204  0.20189650  1
  Rh  Rh225  1  -0.00579270  0.80204142  0.19030893  1
  Rh  Rh226  1  0.39798035  -0.00717895  -0.00128129  1
  Rh  Rh227  1  -0.00740548  0.60571683  0.60464307  1
  Rh  Rh228  1  0.60075579  0.40075197  0.80396358  1
  Rh  Rh229  1  0.60433498  0.79429300  0.80452752  1
  Rh  Rh230  1  0.80112494  0.60025416  -0.00698305  1
  Rh  Rh231  1  0.80372733  0.20505038  0.79588588  1
  Rh  Rh232  1  0.20392895  0.19747629  0.79411990  1
  Rh  Rh233  1  0.79784540  0.40199537  0.80300537  1
  Rh  Rh234  1  0.40314597  0.20307334  0.39386437  1
  Rh  Rh235  1  0.79910452  0.40135855  0.59566687  1
  Rh  Rh236  1  0.20617195  0.00849280  0.60567620  1
  Rh  Rh237  1  0.60235990  0.80057495  0.19010305  1
  Rh  Rh238  1  0.58875801  0.00646289  0.79765805  1
  Rh  Rh239  1  -0.01212587  -0.00687222  0.19548637  1
  Rh  Rh240  1  0.40340707  0.59852926  0.39443889  1
  Rh  Rh241  1  0.59528655  0.59776296  0.19641288  1
  Rh  Rh242  1  0.40285747  0.60045099  0.60378232  1
  Rh  Rh243  1  0.59269830  0.20099923  0.19865397  1
  Rh  Rh244  1  -0.00660522  0.60166355  -0.01000928  1
  Rh  Rh245  1  0.80021904  0.59415524  0.79538846  1
  Rh  Rh246  1  0.39759692  -0.00756392  0.61352376  1
  Rh  Rh247  1  0.80825794  -0.00632995  0.39808479  1
  Rh  Rh248  1  0.60392417  0.39215753  0.39808281  1
  Rh  Rh249  1  0.39980792  0.39982185  0.20470256  1
