# generated using pymatgen
data_ZrScNbPdRh
_symmetry_space_group_name_H-M   'P 1'
_cell_length_a   16.55302855
_cell_length_b   16.55978091
_cell_length_c   16.55384853
_cell_angle_alpha   89.97481033
_cell_angle_beta   90.00639066
_cell_angle_gamma   90.00374889
_symmetry_Int_Tables_number   1
_chemical_formula_structural   ZrScNbPdRh
_chemical_formula_sum   'Zr50 Sc50 Nb50 Pd50 Rh50'
_cell_volume   4537.64987096
_cell_formula_units_Z   50
loop_
 _symmetry_equiv_pos_site_id
 _symmetry_equiv_pos_as_xyz
  1  'x, y, z'
loop_
 _atom_site_type_symbol
 _atom_site_label
 _atom_site_symmetry_multiplicity
 _atom_site_fract_x
 _atom_site_fract_y
 _atom_site_fract_z
 _atom_site_occupancy
  Zr  Zr0  1  0.49973283  0.49743836  0.10557538  1
  Zr  Zr1  1  0.30012484  0.69590238  0.69798970  1
  Zr  Zr2  1  0.88985784  0.29814804  0.50000185  1
  Zr  Zr3  1  0.91695367  0.50266337  0.49755435  1
  Zr  Zr4  1  0.49775810  0.10468948  0.89222354  1
  Zr  Zr5  1  0.30085594  0.90079836  0.10740661  1
  Zr  Zr6  1  0.49883896  0.90684095  0.70149737  1
  Zr  Zr7  1  0.70362425  0.09884047  0.48953149  1
  Zr  Zr8  1  0.10456715  0.49569156  0.10351834  1
  Zr  Zr9  1  0.90281518  0.09479391  0.49282896  1
  Zr  Zr10  1  0.89826551  0.70484743  0.10586806  1
  Zr  Zr11  1  0.10419379  0.69607678  0.69333743  1
  Zr  Zr12  1  0.89990315  0.90443430  0.10014939  1
  Zr  Zr13  1  0.29990212  0.49463704  0.10198169  1
  Zr  Zr14  1  0.29957159  0.50341109  0.69746912  1
  Zr  Zr15  1  0.09246604  0.29682470  0.90409833  1
  Zr  Zr16  1  0.49888098  0.49797186  0.90086495  1
  Zr  Zr17  1  0.69739439  0.30266009  0.09542435  1
  Zr  Zr18  1  0.09960647  0.50330821  0.30885451  1
  Zr  Zr19  1  0.50748811  0.69937526  0.90553633  1
  Zr  Zr20  1  0.69641368  0.71930587  0.50613277  1
  Zr  Zr21  1  0.49840018  0.30480399  0.49849813  1
  Zr  Zr22  1  0.70739146  0.50137039  0.89813099  1
  Zr  Zr23  1  0.10901108  0.29057841  0.09872102  1
  Zr  Zr24  1  0.49637523  0.69066363  0.30647556  1
  Zr  Zr25  1  0.10035413  0.89577500  0.49824488  1
  Zr  Zr26  1  0.10308278  0.69962553  0.90040454  1
  Zr  Zr27  1  0.30870884  0.10280603  0.70033628  1
  Zr  Zr28  1  0.49294032  0.89958633  0.30059495  1
  Zr  Zr29  1  0.69987463  0.89032349  0.69545532  1
  Zr  Zr30  1  0.90381663  0.90724120  0.89795197  1
  Zr  Zr31  1  0.89788733  0.49777214  0.10276081  1
  Zr  Zr32  1  0.10922356  0.90567519  0.30284224  1
  Zr  Zr33  1  0.49726684  0.70252510  0.09779339  1
  Zr  Zr34  1  0.29855875  0.49152096  0.49844311  1
  Zr  Zr35  1  0.30060408  0.49777019  0.89827172  1
  Zr  Zr36  1  0.89988363  0.90091016  0.70318720  1
  Zr  Zr37  1  0.09500960  0.10177862  0.50489114  1
  Zr  Zr38  1  0.70372001  0.10169298  0.10188855  1
  Zr  Zr39  1  0.30806770  0.09698910  0.50139924  1
  Zr  Zr40  1  0.29405294  0.69656417  0.90402655  1
  Zr  Zr41  1  0.90427774  0.70238614  0.50208628  1
  Zr  Zr42  1  0.10261018  0.31193809  0.50546216  1
  Zr  Zr43  1  0.49875027  0.29080011  0.69560464  1
  Zr  Zr44  1  0.70691632  0.30823052  0.30523045  1
  Zr  Zr45  1  0.10010338  0.90431867  0.89537151  1
  Zr  Zr46  1  0.70409446  0.90301138  0.89530180  1
  Zr  Zr47  1  0.50300904  0.10231991  0.09651958  1
  Zr  Zr48  1  0.09439402  0.28982874  0.69385617  1
  Zr  Zr49  1  0.49502521  0.50275357  0.49430147  1
  Sc  Sc50  1  0.70547144  0.10454874  0.70184926  1
  Sc  Sc51  1  0.90707510  0.49802972  0.89904395  1
  Sc  Sc52  1  0.49886646  0.90009163  0.90395084  1
  Sc  Sc53  1  0.10541016  0.70045429  0.29859084  1
  Sc  Sc54  1  0.29730134  0.29494927  0.69207314  1
  Sc  Sc55  1  0.10994531  0.29975724  0.29193020  1
  Sc  Sc56  1  0.49764552  0.30923180  0.10401312  1
  Sc  Sc57  1  0.29780181  0.30066623  0.89936148  1
  Sc  Sc58  1  0.89851496  0.70140231  0.70305540  1
  Sc  Sc59  1  0.29391180  0.90455912  0.69978738  1
  Sc  Sc60  1  0.89761354  0.29736962  0.10007708  1
  Sc  Sc61  1  0.90659882  0.50767722  0.70565577  1
  Sc  Sc62  1  0.29784098  0.89688203  0.90532089  1
  Sc  Sc63  1  0.69951742  0.90774179  0.30831028  1
  Sc  Sc64  1  0.49661727  0.49456073  0.30744590  1
  Sc  Sc65  1  0.09601050  0.10478568  0.89667208  1
  Sc  Sc66  1  0.90719099  0.89830399  0.49440917  1
  Sc  Sc67  1  0.90543352  0.90507328  0.29629498  1
  Sc  Sc68  1  0.69857173  0.70626543  0.09409799  1
  Sc  Sc69  1  0.69985860  0.70136887  0.89904346  1
  Sc  Sc70  1  0.70465485  0.70398756  0.70900987  1
  Sc  Sc71  1  0.90394971  0.69676970  0.89347506  1
  Sc  Sc72  1  0.29459691  0.10307635  0.89406696  1
  Sc  Sc73  1  0.09732697  0.90183636  0.70285433  1
  Sc  Sc74  1  0.50145895  0.89900861  0.49393734  1
  Sc  Sc75  1  0.49226858  0.50234001  0.69771634  1
  Sc  Sc76  1  0.70547040  0.90031206  0.10060476  1
  Sc  Sc77  1  0.69690682  0.70443203  0.31101265  1
  Sc  Sc78  1  0.69124623  0.47657814  0.50125252  1
  Sc  Sc79  1  0.10293995  0.69751436  0.10207800  1
  Sc  Sc80  1  0.29912109  0.69976989  0.29570618  1
  Sc  Sc81  1  0.89427091  0.50112632  0.29956542  1
  Sc  Sc82  1  0.49635073  0.09164352  0.30483112  1
  Sc  Sc83  1  0.09247647  0.90183184  0.10913242  1
  Sc  Sc84  1  0.89905976  0.69795524  0.30038945  1
  Sc  Sc85  1  0.29654663  0.69711139  0.50187695  1
  Sc  Sc86  1  0.70505801  0.48774472  0.10844365  1
  Sc  Sc87  1  0.91149782  0.10047965  0.69676831  1
  Sc  Sc88  1  0.89670846  0.09912840  0.29451914  1
  Sc  Sc89  1  0.49274309  0.90133170  0.09417187  1
  Sc  Sc90  1  0.29911089  0.50336577  0.29776668  1
  Sc  Sc91  1  0.50108391  0.70004909  0.49234172  1
  Sc  Sc92  1  0.29753035  0.89962819  0.49437414  1
  Sc  Sc93  1  0.29472430  0.69972947  0.10386540  1
  Sc  Sc94  1  0.70614485  0.09328918  0.30007027  1
  Sc  Sc95  1  0.29654479  0.10279189  0.10956689  1
  Sc  Sc96  1  0.09430168  0.50365294  0.90406774  1
  Sc  Sc97  1  0.49922431  0.30394215  0.90737528  1
  Sc  Sc98  1  0.10241003  0.09532711  0.29348008  1
  Sc  Sc99  1  0.30168604  0.09146039  0.30066401  1
  Nb  Nb100  1  0.69748317  0.29532749  0.50462958  1
  Nb  Nb101  1  0.10763055  0.09748888  0.69579889  1
  Nb  Nb102  1  0.29514203  0.29827946  0.10624632  1
  Nb  Nb103  1  0.09867101  0.10561408  0.09674019  1
  Nb  Nb104  1  0.90209601  0.29881160  0.30151293  1
  Nb  Nb105  1  0.69891367  0.10735075  0.90021483  1
  Nb  Nb106  1  0.70198534  0.49856888  0.69871393  1
  Nb  Nb107  1  0.49829333  0.09809967  0.50702479  1
  Nb  Nb108  1  0.50232140  0.70088914  0.69481823  1
  Nb  Nb109  1  0.90611180  0.09917196  0.09709989  1
  Nb  Nb110  1  0.89224762  0.29306208  0.70447977  1
  Nb  Nb111  1  0.69534403  0.50254791  0.30200777  1
  Nb  Nb112  1  0.49310356  0.09990419  0.69454752  1
  Nb  Nb113  1  0.30453564  0.29340043  0.29686751  1
  Nb  Nb114  1  0.69921981  0.90330067  0.50132529  1
  Nb  Nb115  1  0.89459601  0.10352858  0.89904764  1
  Nb  Nb116  1  0.09369966  0.69358734  0.49990394  1
  Nb  Nb117  1  0.09690169  0.50349571  0.50527945  1
  Nb  Nb118  1  0.50052009  0.29790535  0.30219412  1
  Nb  Nb119  1  0.70194213  0.29795770  0.89741592  1
  Nb  Nb120  1  0.70193857  0.30492028  0.68740804  1
  Nb  Nb121  1  0.29493933  0.90586020  0.29946785  1
  Nb  Nb122  1  0.09956424  0.49404186  0.68896852  1
  Nb  Nb123  1  0.89686372  0.29610609  0.89556527  1
  Nb  Nb124  1  0.29797010  0.29873264  0.49474918  1
  Nb  Nb125  1  0.59965471  0.20348061  0.40192519  1
  Nb  Nb126  1  0.00336948  0.20614637  0.39832491  1
  Nb  Nb127  1  0.20284181  0.20215888  0.40307574  1
  Nb  Nb128  1  0.60570549  0.00842110  -0.00624148  1
  Nb  Nb129  1  0.60536382  0.20618494  0.79777482  1
  Nb  Nb130  1  0.80106053  0.19787167  -0.00727794  1
  Nb  Nb131  1  0.40216823  0.79381865  0.79602119  1
  Nb  Nb132  1  0.40022598  0.59589928  0.00145791  1
  Nb  Nb133  1  0.39594529  0.20396129  0.00635522  1
  Nb  Nb134  1  0.60061360  0.60090342  0.20487654  1
  Nb  Nb135  1  0.19409103  0.00535927  0.00569484  1
  Nb  Nb136  1  0.59878919  0.20503263  0.20863460  1
  Nb  Nb137  1  0.60765108  0.39482853  0.79289978  1
  Nb  Nb138  1  0.40183619  0.79837494  0.60605516  1
  Nb  Nb139  1  0.18985048  0.40078013  0.79195729  1
  Nb  Nb140  1  0.00014477  0.39661622  0.20157914  1
  Nb  Nb141  1  0.79355298  0.59707432  0.59498571  1
  Nb  Nb142  1  0.59473249  0.79831257  0.20330147  1
  Nb  Nb143  1  0.79831198  0.39151360  0.79461115  1
  Nb  Nb144  1  0.80405813  0.59752869  0.00396071  1
  Nb  Nb145  1  0.19727320  0.00548632  0.59944190  1
  Nb  Nb146  1  0.79184818  0.59730726  0.41264091  1
  Nb  Nb147  1  0.60608455  0.59937460  0.59975330  1
  Nb  Nb148  1  0.60056851  0.00351290  0.59868785  1
  Nb  Nb149  1  0.79624403  -0.00542970  0.59540052  1
  Pd  Pd150  1  0.00284410  0.79566345  0.38964712  1
  Pd  Pd151  1  0.39873649  0.39666224  0.60218265  1
  Pd  Pd152  1  0.59499250  0.80079452  0.80324940  1
  Pd  Pd153  1  0.39756185  0.39938426  0.20868990  1
  Pd  Pd154  1  0.20343622  0.79256289  0.40033269  1
  Pd  Pd155  1  0.40165347  0.19741337  0.40005073  1
  Pd  Pd156  1  0.39946256  0.79831838  0.20369368  1
  Pd  Pd157  1  0.20457052  0.39559211  0.39172007  1
  Pd  Pd158  1  -0.00512024  0.60690762  0.00430970  1
  Pd  Pd159  1  0.00401437  0.79958362  0.20619391  1
  Pd  Pd160  1  0.00150937  0.20218336  0.20556653  1
  Pd  Pd161  1  0.19981093  0.39817349  -0.00870315  1
  Pd  Pd162  1  0.00596348  0.00620118  -0.00202534  1
  Pd  Pd163  1  0.59984043  0.59571304  0.79142717  1
  Pd  Pd164  1  0.60332005  0.00957626  0.79634354  1
  Pd  Pd165  1  0.39726072  0.39125682  0.79469643  1
  Pd  Pd166  1  0.60826024  0.58967215  0.01153713  1
  Pd  Pd167  1  0.00366587  0.39277966  0.39222999  1
  Pd  Pd168  1  0.59777764  -0.00294522  0.19298651  1
  Pd  Pd169  1  0.19859176  0.20640524  0.80041262  1
  Pd  Pd170  1  -0.00356546  0.39306331  0.00845960  1
  Pd  Pd171  1  0.80491834  0.80270969  0.39606443  1
  Pd  Pd172  1  0.60247779  0.19185271  0.59848501  1
  Pd  Pd173  1  0.81208739  0.40964134  0.60370309  1
  Pd  Pd174  1  -0.01215605  0.39462976  0.60866596  1
  Pd  Pd175  1  0.40495659  0.60700693  0.80637878  1
  Pd  Pd176  1  0.79674209  0.20352588  0.19713981  1
  Pd  Pd177  1  0.40584716  0.19598027  0.19769352  1
  Pd  Pd178  1  0.80324748  0.40787778  0.40213156  1
  Pd  Pd179  1  0.78788860  0.60575725  0.20165781  1
  Pd  Pd180  1  0.20512012  0.80361354  0.79591063  1
  Pd  Pd181  1  0.39139446  -0.00797544  0.80719865  1
  Pd  Pd182  1  0.19292637  0.80977636  0.00946317  1
  Pd  Pd183  1  0.19077901  0.58927654  0.79905242  1
  Pd  Pd184  1  0.00127720  0.79781454  0.00033170  1
  Pd  Pd185  1  0.39222106  0.79831472  0.40464635  1
  Pd  Pd186  1  0.60238373  0.40303425  -0.00500237  1
  Pd  Pd187  1  0.00222533  0.79544727  0.79814226  1
  Pd  Pd188  1  0.80436269  0.18779573  0.60024802  1
  Pd  Pd189  1  0.20007907  0.59727068  0.59148065  1
  Pd  Pd190  1  0.79763320  0.00608693  0.00056784  1
  Pd  Pd191  1  0.20123683  0.60363616  0.40483752  1
  Pd  Pd192  1  0.39285363  0.01138629  -0.00307173  1
  Pd  Pd193  1  -0.00112898  0.39970151  0.79469426  1
  Pd  Pd194  1  0.80563982  0.79420599  -0.00748077  1
  Pd  Pd195  1  0.78961446  0.80352040  0.20941654  1
  Pd  Pd196  1  0.80104794  0.00645622  0.79136765  1
  Pd  Pd197  1  0.00087556  0.19352614  0.79793390  1
  Pd  Pd198  1  0.00210860  0.59543286  0.20426302  1
  Pd  Pd199  1  0.00128385  0.80202101  0.60479110  1
  Rh  Rh200  1  0.39675246  0.78915128  -0.00796547  1
  Rh  Rh201  1  0.19805394  0.00118651  0.19213175  1
  Rh  Rh202  1  0.60847583  0.59291819  0.40587414  1
  Rh  Rh203  1  0.40005509  -0.01060290  0.59506413  1
  Rh  Rh204  1  -0.00094873  0.00578626  0.19799371  1
  Rh  Rh205  1  0.00893721  0.60207674  0.79530745  1
  Rh  Rh206  1  -0.01038452  0.19864633  -0.00146331  1
  Rh  Rh207  1  0.20348772  0.19381447  0.20864676  1
  Rh  Rh208  1  -0.00171230  0.60573593  0.39551392  1
  Rh  Rh209  1  0.20434042  0.59510348  0.00507582  1
  Rh  Rh210  1  0.39206612  0.39574702  0.00511721  1
  Rh  Rh211  1  0.20224322  0.80716927  0.59625892  1
  Rh  Rh212  1  0.60266324  0.81904077  0.00493622  1
  Rh  Rh213  1  0.19888681  0.00205313  0.80019123  1
  Rh  Rh214  1  0.19942120  0.40188038  0.20573339  1
  Rh  Rh215  1  0.40578498  0.20822011  0.80686049  1
  Rh  Rh216  1  0.19860796  0.00774175  0.40794365  1
  Rh  Rh217  1  0.20735625  0.19270365  0.59224008  1
  Rh  Rh218  1  0.39882622  0.00033595  0.20048111  1
  Rh  Rh219  1  0.58858423  0.40643850  0.60593468  1
  Rh  Rh220  1  0.80194336  0.59613687  0.80169120  1
  Rh  Rh221  1  0.19925348  0.59867558  0.20023923  1
  Rh  Rh222  1  0.20009350  0.80408179  0.20187650  1
  Rh  Rh223  1  0.20931311  0.19271479  0.00105495  1
  Rh  Rh224  1  0.00160345  -0.00762031  0.60348468  1
  Rh  Rh225  1  0.40830607  0.60772306  0.59165431  1
  Rh  Rh226  1  0.39553510  0.20528524  0.59334970  1
  Rh  Rh227  1  0.40438168  0.59876106  0.19531268  1
  Rh  Rh228  1  0.38954948  0.59770520  0.40205373  1
  Rh  Rh229  1  0.00298782  0.00713646  0.39160850  1
  Rh  Rh230  1  -0.00767738  0.20563406  0.59357572  1
  Rh  Rh231  1  0.80370264  0.79933971  0.80773939  1
  Rh  Rh232  1  0.80532019  -0.00256120  0.19948834  1
  Rh  Rh233  1  0.79667575  0.20237674  0.79984988  1
  Rh  Rh234  1  0.59793060  0.19883321  0.00115687  1
  Rh  Rh235  1  0.00041745  0.00856074  0.79991394  1
  Rh  Rh236  1  -0.00364498  0.60448229  0.60528601  1
  Rh  Rh237  1  0.80724127  0.39911445  -0.01088686  1
  Rh  Rh238  1  0.39250016  0.39803581  0.39366649  1
  Rh  Rh239  1  0.58920021  0.80336716  0.59909909  1
  Rh  Rh240  1  0.59908910  0.40125524  0.21013244  1
  Rh  Rh241  1  0.59309175  0.00581291  0.40701030  1
  Rh  Rh242  1  0.59820452  0.39266551  0.39690974  1
  Rh  Rh243  1  0.59741838  0.80913780  0.39134756  1
  Rh  Rh244  1  0.40053605  -0.00453896  0.40199222  1
  Rh  Rh245  1  0.80854777  -0.00801903  0.40221357  1
  Rh  Rh246  1  0.80751314  0.39685142  0.20723408  1
  Rh  Rh247  1  0.20387429  0.40119468  0.60471249  1
  Rh  Rh248  1  0.80087233  0.20174363  0.39580549  1
  Rh  Rh249  1  0.80893612  0.80305852  0.60005248  1
