# generated using pymatgen
data_ZrScNbPdRh
_symmetry_space_group_name_H-M   'P 1'
_cell_length_a   16.55701513
_cell_length_b   16.55980985
_cell_length_c   16.56127179
_cell_angle_alpha   89.94659401
_cell_angle_beta   90.01206896
_cell_angle_gamma   89.97202835
_symmetry_Int_Tables_number   1
_chemical_formula_structural   ZrScNbPdRh
_chemical_formula_sum   'Zr50 Sc50 Nb50 Pd50 Rh50'
_cell_volume   4540.78381548
_cell_formula_units_Z   50
loop_
 _symmetry_equiv_pos_site_id
 _symmetry_equiv_pos_as_xyz
  1  'x, y, z'
loop_
 _atom_site_type_symbol
 _atom_site_label
 _atom_site_symmetry_multiplicity
 _atom_site_fract_x
 _atom_site_fract_y
 _atom_site_fract_z
 _atom_site_occupancy
  Zr  Zr0  1  0.89887194  0.49593340  0.10950441  1
  Zr  Zr1  1  0.49895824  0.49401146  0.50120324  1
  Zr  Zr2  1  0.49296934  0.70778971  0.69972840  1
  Zr  Zr3  1  0.49817625  0.50089758  0.09998721  1
  Zr  Zr4  1  0.70562927  0.49727246  0.29983325  1
  Zr  Zr5  1  0.10092322  0.10132157  0.90102755  1
  Zr  Zr6  1  0.30512131  0.49617082  0.09403267  1
  Zr  Zr7  1  0.30793816  0.09728152  0.69722945  1
  Zr  Zr8  1  0.89820412  0.30301941  0.10231822  1
  Zr  Zr9  1  0.50261191  0.70441100  0.50172447  1
  Zr  Zr10  1  0.29653449  0.29573360  0.49723534  1
  Zr  Zr11  1  0.89268886  0.30333575  0.69146794  1
  Zr  Zr12  1  0.89234924  0.10624978  0.70130010  1
  Zr  Zr13  1  0.89416207  0.69974331  0.11089579  1
  Zr  Zr14  1  0.89809425  0.50225046  0.69933692  1
  Zr  Zr15  1  0.49886486  0.30232009  0.50696346  1
  Zr  Zr16  1  0.69825424  0.70069813  0.90511083  1
  Zr  Zr17  1  0.70136448  0.49637434  0.89367040  1
  Zr  Zr18  1  0.89269329  0.28673497  0.89807854  1
  Zr  Zr19  1  0.30542524  0.50438031  0.89957726  1
  Zr  Zr20  1  0.69035791  0.91084417  0.49342032  1
  Zr  Zr21  1  0.69473556  0.50917555  0.10210447  1
  Zr  Zr22  1  0.09947382  0.30430835  0.10082732  1
  Zr  Zr23  1  0.09860805  0.30015600  0.90103781  1
  Zr  Zr24  1  0.50282832  0.90443346  0.70542513  1
  Zr  Zr25  1  0.31250044  0.70088127  0.10392442  1
  Zr  Zr26  1  0.10037503  0.30086247  0.69100742  1
  Zr  Zr27  1  0.29412198  0.09741230  0.30586201  1
  Zr  Zr28  1  0.10266363  0.69966201  0.30681280  1
  Zr  Zr29  1  0.50352814  0.29876353  0.10637871  1
  Zr  Zr30  1  0.10130883  0.89848446  0.29934377  1
  Zr  Zr31  1  0.71046550  0.69857664  0.29524610  1
  Zr  Zr32  1  0.29221619  0.50190881  0.30809252  1
  Zr  Zr33  1  0.29699402  0.70963264  0.29874470  1
  Zr  Zr34  1  0.70557374  0.90125022  0.29948717  1
  Zr  Zr35  1  0.70647040  0.09477277  0.31185760  1
  Zr  Zr36  1  0.90111160  0.70181105  0.31541554  1
  Zr  Zr37  1  0.30608769  0.09897263  0.50292531  1
  Zr  Zr38  1  0.50449512  0.10903523  0.09636408  1
  Zr  Zr39  1  0.89894444  0.09967304  0.89825739  1
  Zr  Zr40  1  0.50370700  0.09235710  0.51054526  1
  Zr  Zr41  1  0.89738270  0.88801321  0.69793892  1
  Zr  Zr42  1  0.09916759  0.50063142  0.90281785  1
  Zr  Zr43  1  0.71247485  0.10239925  0.89986352  1
  Zr  Zr44  1  0.29473085  0.89856566  0.10683515  1
  Zr  Zr45  1  0.09185232  0.49741623  0.09967667  1
  Zr  Zr46  1  0.50946004  0.69751369  0.09522545  1
  Zr  Zr47  1  0.89658768  0.30747561  0.30591075  1
  Zr  Zr48  1  0.30376767  0.91228896  0.90739841  1
  Zr  Zr49  1  0.49643369  0.70255437  0.29173553  1
  Sc  Sc50  1  0.30024291  0.29109777  0.30295160  1
  Sc  Sc51  1  0.90560761  0.70118153  0.89007072  1
  Sc  Sc52  1  0.89891885  0.49539132  0.49660383  1
  Sc  Sc53  1  0.09966549  0.29999167  0.50218962  1
  Sc  Sc54  1  0.89768467  0.50574746  0.89489793  1
  Sc  Sc55  1  0.68872885  0.29395566  0.09806682  1
  Sc  Sc56  1  0.30230909  0.89483076  0.69453026  1
  Sc  Sc57  1  0.49940757  0.10002241  0.29509750  1
  Sc  Sc58  1  0.09821270  0.09712693  0.30371932  1
  Sc  Sc59  1  0.89395790  0.09202896  0.08742790  1
  Sc  Sc60  1  0.89996214  0.90314618  0.29671747  1
  Sc  Sc61  1  0.10009013  0.70822626  0.71077831  1
  Sc  Sc62  1  0.10619343  0.29088236  0.30587761  1
  Sc  Sc63  1  0.50566053  0.48965981  0.29353213  1
  Sc  Sc64  1  0.09495908  0.90042329  0.09980088  1
  Sc  Sc65  1  0.90526640  0.89143200  0.50399985  1
  Sc  Sc66  1  0.09659298  0.10006356  0.49499637  1
  Sc  Sc67  1  0.71243384  0.70860806  0.49725650  1
  Sc  Sc68  1  0.70664565  0.48663996  0.70146251  1
  Sc  Sc69  1  0.49967716  0.90462904  0.30609364  1
  Sc  Sc70  1  0.50049448  0.90887650  0.10579009  1
  Sc  Sc71  1  0.50567014  0.48793446  0.69763460  1
  Sc  Sc72  1  0.69929720  0.89601615  0.89031134  1
  Sc  Sc73  1  0.30010979  0.09593736  0.09972489  1
  Sc  Sc74  1  0.89867762  0.49779668  0.30153281  1
  Sc  Sc75  1  0.69925774  0.30592975  0.29808524  1
  Sc  Sc76  1  0.30164369  0.70497185  0.70826029  1
  Sc  Sc77  1  0.29873743  0.28890326  0.68979830  1
  Sc  Sc78  1  0.69933315  0.09967384  0.09847979  1
  Sc  Sc79  1  0.09990332  0.49486999  0.69334484  1
  Sc  Sc80  1  0.31160345  0.10294866  0.89913327  1
  Sc  Sc81  1  0.29782732  0.70838382  0.49756303  1
  Sc  Sc82  1  0.89731692  0.90171169  0.90322103  1
  Sc  Sc83  1  0.49787057  0.90096883  0.50285001  1
  Sc  Sc84  1  0.49971222  0.49971150  0.89764409  1
  Sc  Sc85  1  0.89476689  0.11120549  0.49276615  1
  Sc  Sc86  1  0.09235367  0.71132312  0.09974009  1
  Sc  Sc87  1  0.09303571  0.50300568  0.30939362  1
  Sc  Sc88  1  0.09929633  0.89835230  0.69252404  1
  Sc  Sc89  1  0.09958268  0.89224548  0.91053340  1
  Sc  Sc90  1  0.09748053  0.70287817  0.49154398  1
  Sc  Sc91  1  0.29571951  0.48664571  0.49942526  1
  Sc  Sc92  1  0.69291693  0.29886413  0.89364967  1
  Sc  Sc93  1  0.30435776  0.70100713  0.89277579  1
  Sc  Sc94  1  0.10290650  0.49466934  0.49750816  1
  Sc  Sc95  1  0.10565740  0.09587336  0.10514340  1
  Sc  Sc96  1  0.30427313  0.30042582  0.10005310  1
  Sc  Sc97  1  0.09715060  0.90193574  0.50219673  1
  Sc  Sc98  1  0.49811569  0.70412951  0.89513838  1
  Sc  Sc99  1  0.10207663  0.10585377  0.69019080  1
  Nb  Nb100  1  0.69275536  0.10022076  0.69177353  1
  Nb  Nb101  1  0.30159730  0.50439889  0.70480506  1
  Nb  Nb102  1  0.49603647  0.09430435  0.89552144  1
  Nb  Nb103  1  0.69690463  0.10395066  0.50293985  1
  Nb  Nb104  1  0.69306004  0.29686356  0.69653269  1
  Nb  Nb105  1  0.89992603  0.10802289  0.30269840  1
  Nb  Nb106  1  0.50793200  0.29372339  0.70693558  1
  Nb  Nb107  1  0.49938202  0.90465925  0.90155675  1
  Nb  Nb108  1  0.89299357  0.29834998  0.49773628  1
  Nb  Nb109  1  0.30308982  0.89676029  0.30076281  1
  Nb  Nb110  1  0.68957021  0.49545467  0.49903450  1
  Nb  Nb111  1  0.29888307  0.30337251  0.89948487  1
  Nb  Nb112  1  0.10131288  0.69865889  0.90556395  1
  Nb  Nb113  1  0.69862833  0.70107021  0.10013664  1
  Nb  Nb114  1  0.70935644  0.70957642  0.69806629  1
  Nb  Nb115  1  0.49944785  0.10385491  0.70487009  1
  Nb  Nb116  1  0.70327209  0.29602315  0.50501588  1
  Nb  Nb117  1  0.89388801  0.70395254  0.68732549  1
  Nb  Nb118  1  0.89491240  0.89551100  0.09602617  1
  Nb  Nb119  1  0.49721050  0.28679815  0.89588715  1
  Nb  Nb120  1  0.50787563  0.29176062  0.29639115  1
  Nb  Nb121  1  0.70309927  0.89863878  0.69783948  1
  Nb  Nb122  1  0.90225940  0.70335690  0.50862786  1
  Nb  Nb123  1  0.70141414  0.89962117  0.09668554  1
  Nb  Nb124  1  0.30759716  0.90788652  0.49742575  1
  Nb  Nb125  1  -0.00191491  0.60652445  0.60060605  1
  Nb  Nb126  1  0.79578649  0.40162599  -0.00042919  1
  Nb  Nb127  1  0.60798499  0.80080829  0.19460485  1
  Nb  Nb128  1  0.60276514  0.20154108  0.40693497  1
  Nb  Nb129  1  0.19920695  0.40581368  0.19988023  1
  Nb  Nb130  1  0.00235438  0.00180989  0.79788317  1
  Nb  Nb131  1  0.19768082  0.60351069  0.00182168  1
  Nb  Nb132  1  0.59999660  0.59948601  0.40330976  1
  Nb  Nb133  1  0.20194338  0.20543112  -0.00391040  1
  Nb  Nb134  1  0.39752590  0.38958743  0.79952827  1
  Nb  Nb135  1  0.79606100  0.79755959  0.00673397  1
  Nb  Nb136  1  0.79182104  0.00279833  0.60120107  1
  Nb  Nb137  1  0.19867740  0.59867366  0.19453371  1
  Nb  Nb138  1  0.20260256  0.60024640  0.60271364  1
  Nb  Nb139  1  0.00110168  0.39511898  0.79733303  1
  Nb  Nb140  1  0.40412020  0.59883527  0.40407563  1
  Nb  Nb141  1  0.59804820  -0.00020743  -0.00801199  1
  Nb  Nb142  1  0.39830413  0.59748546  0.59910382  1
  Nb  Nb143  1  0.80467163  0.19715287  0.20480334  1
  Nb  Nb144  1  0.19674107  0.00136447  0.79994157  1
  Nb  Nb145  1  0.40620443  0.80821656  0.00125404  1
  Nb  Nb146  1  0.60608609  0.60551651  0.78749577  1
  Nb  Nb147  1  0.60586117  0.60218073  0.60051142  1
  Nb  Nb148  1  0.20410873  0.39860490  0.80031264  1
  Nb  Nb149  1  -0.00811657  0.19813297  0.20325295  1
  Pd  Pd150  1  0.19999304  0.81145998  0.40759217  1
  Pd  Pd151  1  -0.01165019  0.00545060  0.60334458  1
  Pd  Pd152  1  0.00262526  0.60401204  0.20784227  1
  Pd  Pd153  1  0.60099107  0.79628941  0.79863715  1
  Pd  Pd154  1  0.41122856  0.19543342  0.40024979  1
  Pd  Pd155  1  0.00496272  0.19300869  0.01202870  1
  Pd  Pd156  1  0.59455186  0.59690792  -0.01206487  1
  Pd  Pd157  1  0.40089845  0.39761514  0.38972941  1
  Pd  Pd158  1  -0.00356796  0.60756270  0.00189389  1
  Pd  Pd159  1  0.60569804  0.00548175  0.80258600  1
  Pd  Pd160  1  0.19813639  0.79442237  0.59577854  1
  Pd  Pd161  1  0.81344120  -0.00533880  0.41211432  1
  Pd  Pd162  1  0.39464136  0.39520956  0.20960102  1
  Pd  Pd163  1  0.39677154  0.20205302  0.00191348  1
  Pd  Pd164  1  0.20650827  0.19810368  0.80219331  1
  Pd  Pd165  1  0.39735774  0.00199042  0.20244183  1
  Pd  Pd166  1  -0.00655079  -0.00213368  0.40193067  1
  Pd  Pd167  1  -0.01599172  0.40071676  -0.01203193  1
  Pd  Pd168  1  0.60113851  0.39464830  0.39747699  1
  Pd  Pd169  1  0.60487868  0.00078839  0.19750304  1
  Pd  Pd170  1  0.00605664  0.59785808  0.78968531  1
  Pd  Pd171  1  0.19897711  -0.00195711  0.20451807  1
  Pd  Pd172  1  0.60348993  0.79503364  0.38987719  1
  Pd  Pd173  1  0.19167776  0.59747241  0.79900516  1
  Pd  Pd174  1  0.80492634  0.00524110  0.19537234  1
  Pd  Pd175  1  0.19981607  -0.00462753  0.40429021  1
  Pd  Pd176  1  0.00078008  0.80713376  0.80433668  1
  Pd  Pd177  1  0.00291381  -0.00332715  -0.00222154  1
  Pd  Pd178  1  0.00164054  0.19986608  0.79117849  1
  Pd  Pd179  1  0.79482509  0.60790949  0.79608000  1
  Pd  Pd180  1  0.41197619  0.39097465  -0.00714370  1
  Pd  Pd181  1  0.80750059  0.60071817  -0.00000732  1
  Pd  Pd182  1  0.00402204  0.39507760  0.40338596  1
  Pd  Pd183  1  0.80472566  -0.00525657  0.79245051  1
  Pd  Pd184  1  0.59882529  0.39699933  -0.00570019  1
  Pd  Pd185  1  0.20923924  0.79220628  0.00000615  1
  Pd  Pd186  1  0.39308837  0.19695458  0.20078743  1
  Pd  Pd187  1  0.60564222  0.80073887  0.59928327  1
  Pd  Pd188  1  0.79894034  0.59497970  0.40989925  1
  Pd  Pd189  1  -0.00320086  0.19829270  0.59121553  1
  Pd  Pd190  1  0.20023036  0.00084958  0.60215919  1
  Pd  Pd191  1  0.39635362  0.59195255  0.21005513  1
  Pd  Pd192  1  0.79692598  0.59392242  0.59320078  1
  Pd  Pd193  1  0.20235776  0.81127698  0.80755581  1
  Pd  Pd194  1  0.40066655  0.80071517  0.40365561  1
  Pd  Pd195  1  0.79706642  0.40316315  0.59224691  1
  Pd  Pd196  1  -0.00228774  0.80150944  0.20545023  1
  Pd  Pd197  1  -0.00815137  0.00634454  0.19697306  1
  Pd  Pd198  1  0.39303075  0.39798258  0.61068588  1
  Pd  Pd199  1  0.60538149  0.19045133  0.80322744  1
  Rh  Rh200  1  0.61231498  0.19246124  0.21540322  1
  Rh  Rh201  1  -0.00159451  0.80527319  0.39872111  1
  Rh  Rh202  1  0.39522990  -0.00380356  0.79311712  1
  Rh  Rh203  1  -0.00147759  0.20473373  0.39847998  1
  Rh  Rh204  1  0.59859649  0.19030298  -0.01303281  1
  Rh  Rh205  1  0.19406943  0.79810222  0.19964566  1
  Rh  Rh206  1  0.40033403  0.00136884  0.39736178  1
  Rh  Rh207  1  0.19869674  0.19346285  0.40600457  1
  Rh  Rh208  1  -0.01258161  0.79617483  -0.00058126  1
  Rh  Rh209  1  0.79446854  0.39849566  0.40797058  1
  Rh  Rh210  1  0.59132805  0.39969849  0.80169092  1
  Rh  Rh211  1  0.80661513  0.38989710  0.80570410  1
  Rh  Rh212  1  0.79408574  0.21015691  0.00997260  1
  Rh  Rh213  1  0.40853164  0.20057612  0.60353754  1
  Rh  Rh214  1  0.40441255  -0.00603407  0.60568234  1
  Rh  Rh215  1  0.79174332  0.21038349  0.39581829  1
  Rh  Rh216  1  0.41604885  0.59076039  0.78833294  1
  Rh  Rh217  1  0.60526627  0.39728802  0.60451087  1
  Rh  Rh218  1  0.39577634  0.81219619  0.80891358  1
  Rh  Rh219  1  0.01113901  0.79042825  0.59969861  1
  Rh  Rh220  1  0.79134668  0.81301766  0.59049383  1
  Rh  Rh221  1  0.59024498  0.01048816  0.39759439  1
  Rh  Rh222  1  0.78719259  0.39517056  0.18677369  1
  Rh  Rh223  1  0.60194455  0.40026740  0.19589200  1
  Rh  Rh224  1  0.40077914  0.61229385  -0.00670318  1
  Rh  Rh225  1  -0.00696334  0.59986026  0.41059081  1
  Rh  Rh226  1  0.19979014  0.19324730  0.58999885  1
  Rh  Rh227  1  0.19972126  0.01070209  -0.00495501  1
  Rh  Rh228  1  0.59859167  0.81181819  0.00614563  1
  Rh  Rh229  1  0.01248950  0.39106209  0.21546974  1
  Rh  Rh230  1  0.80460271  0.80779734  0.40417765  1
  Rh  Rh231  1  0.79481786  0.19658390  0.60174002  1
  Rh  Rh232  1  0.59536918  0.20492322  0.59806656  1
  Rh  Rh233  1  0.80365677  0.59633002  0.20310691  1
  Rh  Rh234  1  0.78869813  0.20515074  0.78924544  1
  Rh  Rh235  1  0.79687555  0.80609015  0.19575464  1
  Rh  Rh236  1  0.60168280  -0.00460883  0.60759894  1
  Rh  Rh237  1  0.39470517  0.80043180  0.59623741  1
  Rh  Rh238  1  0.80206652  0.79646571  0.80586220  1
  Rh  Rh239  1  0.60253545  0.60453805  0.20991027  1
  Rh  Rh240  1  0.41073858  0.81149147  0.19416556  1
  Rh  Rh241  1  0.19539763  0.20626785  0.19151201  1
  Rh  Rh242  1  0.19631514  0.39240056  0.39407263  1
  Rh  Rh243  1  0.79187906  -0.01202650  -0.00391362  1
  Rh  Rh244  1  0.39954369  0.20380978  0.79512409  1
  Rh  Rh245  1  0.20666966  0.60180821  0.40637253  1
  Rh  Rh246  1  0.20650898  0.40444201  0.60626924  1
  Rh  Rh247  1  0.40861171  0.00000428  0.00759147  1
  Rh  Rh248  1  -0.00670928  0.40411991  0.59868218  1
  Rh  Rh249  1  0.20474718  0.40148820  0.00004047  1
