# generated using pymatgen
data_ZrScNbPdRh
_symmetry_space_group_name_H-M   'P 1'
_cell_length_a   16.56009618
_cell_length_b   16.55937408
_cell_length_c   16.56468399
_cell_angle_alpha   90.00164772
_cell_angle_beta   89.97303522
_cell_angle_gamma   89.98959063
_symmetry_Int_Tables_number   1
_chemical_formula_structural   ZrScNbPdRh
_chemical_formula_sum   'Zr50 Sc50 Nb50 Pd50 Rh50'
_cell_volume   4542.44702773
_cell_formula_units_Z   50
loop_
 _symmetry_equiv_pos_site_id
 _symmetry_equiv_pos_as_xyz
  1  'x, y, z'
loop_
 _atom_site_type_symbol
 _atom_site_label
 _atom_site_symmetry_multiplicity
 _atom_site_fract_x
 _atom_site_fract_y
 _atom_site_fract_z
 _atom_site_occupancy
  Zr  Zr0  1  0.10846870  0.70142234  0.90256300  1
  Zr  Zr1  1  0.68902945  0.89648145  0.89953359  1
  Zr  Zr2  1  0.29459194  0.90569470  0.29790643  1
  Zr  Zr3  1  0.70151959  0.10576572  0.09886678  1
  Zr  Zr4  1  0.89068303  0.50471218  0.30541632  1
  Zr  Zr5  1  0.29564954  0.90136299  0.70634556  1
  Zr  Zr6  1  0.10221733  0.50251453  0.09544359  1
  Zr  Zr7  1  0.31247132  0.49415911  0.89223812  1
  Zr  Zr8  1  0.09506477  0.50632963  0.50918434  1
  Zr  Zr9  1  0.49766183  0.49737025  0.71160418  1
  Zr  Zr10  1  0.30030578  0.90071370  0.50935719  1
  Zr  Zr11  1  0.90316374  0.10687547  0.70026156  1
  Zr  Zr12  1  0.50544713  0.70014923  0.69821628  1
  Zr  Zr13  1  0.90041366  0.29950472  0.30772140  1
  Zr  Zr14  1  0.10384082  0.70515963  0.09608036  1
  Zr  Zr15  1  0.50346852  0.09994623  0.69610161  1
  Zr  Zr16  1  0.30699107  0.30126375  0.70250871  1
  Zr  Zr17  1  0.10637497  0.10169965  0.29522363  1
  Zr  Zr18  1  0.09733769  0.50526297  0.89713357  1
  Zr  Zr19  1  0.70031334  0.49711115  0.10100305  1
  Zr  Zr20  1  0.09952305  0.29390048  0.30563548  1
  Zr  Zr21  1  0.30805878  0.10072269  0.50598782  1
  Zr  Zr22  1  0.90489737  0.69400573  0.89110702  1
  Zr  Zr23  1  0.90764812  0.69540163  0.50043552  1
  Zr  Zr24  1  0.69996824  0.29525773  0.30221193  1
  Zr  Zr25  1  0.69549766  0.29696168  0.09417571  1
  Zr  Zr26  1  0.70303848  0.30464120  0.50495671  1
  Zr  Zr27  1  0.89518550  0.69834990  0.30093442  1
  Zr  Zr28  1  0.89511807  0.49337494  0.90487188  1
  Zr  Zr29  1  0.70001727  0.29913164  0.70346284  1
  Zr  Zr30  1  0.90349152  0.10206512  0.29920269  1
  Zr  Zr31  1  0.69431035  0.49756595  0.70427781  1
  Zr  Zr32  1  0.90140155  0.09529203  0.50703283  1
  Zr  Zr33  1  0.90305481  0.30158501  0.51281209  1
  Zr  Zr34  1  0.10034804  0.30059691  0.10073195  1
  Zr  Zr35  1  0.10242238  0.90117034  0.29437607  1
  Zr  Zr36  1  0.69895430  0.90299105  0.70200865  1
  Zr  Zr37  1  0.69988124  0.10095960  0.70140917  1
  Zr  Zr38  1  0.30626773  0.29991717  0.49774250  1
  Zr  Zr39  1  0.90165259  0.08590252  0.09321263  1
  Zr  Zr40  1  0.50192598  0.90077710  0.30340524  1
  Zr  Zr41  1  0.29486630  0.49607472  0.49962216  1
  Zr  Zr42  1  0.49967408  0.09954120  0.10114779  1
  Zr  Zr43  1  0.29848263  0.30334301  0.30900360  1
  Zr  Zr44  1  0.08860925  0.30049123  0.70237051  1
  Zr  Zr45  1  0.49653995  0.29579283  0.30374477  1
  Zr  Zr46  1  0.70232429  0.70436283  0.88723376  1
  Zr  Zr47  1  0.89940960  0.30006016  0.09379564  1
  Zr  Zr48  1  0.49154658  0.49988973  0.29095725  1
  Zr  Zr49  1  0.69964623  0.70181684  0.30183900  1
  Sc  Sc50  1  0.89717383  0.29827478  0.89635333  1
  Sc  Sc51  1  0.10707708  0.89506433  0.89922676  1
  Sc  Sc52  1  0.50456544  0.90097924  0.50271604  1
  Sc  Sc53  1  0.90110275  0.91822423  0.69617811  1
  Sc  Sc54  1  0.29439544  0.70175650  0.27936756  1
  Sc  Sc55  1  0.09543631  0.09514987  0.70515756  1
  Sc  Sc56  1  0.70298526  0.09936984  0.30686842  1
  Sc  Sc57  1  0.69839446  0.30239819  0.90004983  1
  Sc  Sc58  1  0.29169628  0.69672166  0.09415931  1
  Sc  Sc59  1  0.29961182  0.50395532  0.10506585  1
  Sc  Sc60  1  0.50438973  0.30682496  0.90471031  1
  Sc  Sc61  1  0.09755033  0.69694700  0.69375029  1
  Sc  Sc62  1  0.50133715  0.10793096  0.30004703  1
  Sc  Sc63  1  0.29737694  0.30136178  0.09087915  1
  Sc  Sc64  1  0.09570280  0.10840433  0.50079776  1
  Sc  Sc65  1  0.09919494  0.70625606  0.29779092  1
  Sc  Sc66  1  0.09549604  0.70160663  0.50353896  1
  Sc  Sc67  1  0.49446526  0.70349390  0.09722321  1
  Sc  Sc68  1  0.10567284  0.49161684  0.29338635  1
  Sc  Sc69  1  0.69090009  0.70053237  0.49989135  1
  Sc  Sc70  1  0.30285982  0.09443171  0.10750025  1
  Sc  Sc71  1  0.90692022  0.09933087  0.90066344  1
  Sc  Sc72  1  0.50294339  0.71744967  0.89492503  1
  Sc  Sc73  1  0.29409551  0.70074638  0.51274848  1
  Sc  Sc74  1  0.10446147  0.29225784  0.90572633  1
  Sc  Sc75  1  0.69648260  0.90031939  0.48931556  1
  Sc  Sc76  1  0.69654391  0.69852592  0.09659337  1
  Sc  Sc77  1  0.70140466  0.49690297  0.50530765  1
  Sc  Sc78  1  0.29903589  0.08947535  0.70115921  1
  Sc  Sc79  1  0.90423816  0.89954673  0.50472990  1
  Sc  Sc80  1  0.10153861  0.10588647  0.89891301  1
  Sc  Sc81  1  0.09917541  0.10636126  0.09456305  1
  Sc  Sc82  1  0.50373689  0.29785552  0.10223010  1
  Sc  Sc83  1  0.30804063  0.50282673  0.70030865  1
  Sc  Sc84  1  0.30755811  0.70700894  0.70273598  1
  Sc  Sc85  1  0.50170632  0.70397312  0.50576230  1
  Sc  Sc86  1  0.90210783  0.90351985  0.29377834  1
  Sc  Sc87  1  0.30586843  0.89685419  0.10405774  1
  Sc  Sc88  1  0.69590319  0.50720113  0.30244404  1
  Sc  Sc89  1  0.69726511  0.09472777  0.49901226  1
  Sc  Sc90  1  0.91090393  0.49269851  0.70961499  1
  Sc  Sc91  1  0.70704395  0.91014393  0.08913416  1
  Sc  Sc92  1  0.50095035  0.50475455  0.51175706  1
  Sc  Sc93  1  0.49730467  0.90048492  0.08648434  1
  Sc  Sc94  1  0.69120071  0.10225036  0.89976501  1
  Sc  Sc95  1  0.50305772  0.69731799  0.29691620  1
  Sc  Sc96  1  0.49659500  0.49016303  0.09782155  1
  Sc  Sc97  1  0.10189161  0.89586904  0.50339318  1
  Sc  Sc98  1  0.50375000  0.10418824  0.49963484  1
  Sc  Sc99  1  0.29583075  0.29941614  0.89982821  1
  Nb  Nb100  1  0.30108191  0.09046358  0.89802883  1
  Nb  Nb101  1  0.09775195  0.89819797  0.70162305  1
  Nb  Nb102  1  0.48998193  0.89761112  0.70107139  1
  Nb  Nb103  1  0.89750230  0.69898298  0.09872629  1
  Nb  Nb104  1  0.50069406  0.49933010  0.89837343  1
  Nb  Nb105  1  0.10555462  0.50023828  0.70223098  1
  Nb  Nb106  1  0.89637292  0.49594855  0.50175611  1
  Nb  Nb107  1  0.30217052  0.89934619  0.89448644  1
  Nb  Nb108  1  0.89540488  0.29959164  0.70024605  1
  Nb  Nb109  1  0.29519938  0.70586580  0.89733366  1
  Nb  Nb110  1  0.49913317  0.29064218  0.50291769  1
  Nb  Nb111  1  0.50420134  0.29200940  0.69588329  1
  Nb  Nb112  1  0.69446109  0.49426293  0.89941905  1
  Nb  Nb113  1  0.70591906  0.70244701  0.70272442  1
  Nb  Nb114  1  0.09135417  0.90250274  0.09512256  1
  Nb  Nb115  1  0.90075913  0.90475203  0.90960094  1
  Nb  Nb116  1  0.69718023  0.89700878  0.30117685  1
  Nb  Nb117  1  0.49515579  0.09667014  0.90061464  1
  Nb  Nb118  1  0.30336931  0.09699946  0.30086977  1
  Nb  Nb119  1  0.29980173  0.50284705  0.30169685  1
  Nb  Nb120  1  0.10077764  0.30311813  0.49987068  1
  Nb  Nb121  1  0.48905095  0.90817320  0.89626657  1
  Nb  Nb122  1  0.89835247  0.49894742  0.10030077  1
  Nb  Nb123  1  0.89720948  0.70490793  0.70260291  1
  Nb  Nb124  1  0.90617962  0.90111589  0.09291233  1
  Nb  Nb125  1  0.59376424  0.39483708  0.40309205  1
  Nb  Nb126  1  0.80806879  0.79799196  -0.00105522  1
  Nb  Nb127  1  0.60381090  -0.00411379  0.20106750  1
  Nb  Nb128  1  0.40402612  0.59943334  -0.01206621  1
  Nb  Nb129  1  0.20541857  0.59768844  0.39654630  1
  Nb  Nb130  1  0.19427450  0.39652901  0.60226284  1
  Nb  Nb131  1  -0.00214741  0.40250878  0.40876294  1
  Nb  Nb132  1  0.80071325  0.80287624  0.19214120  1
  Nb  Nb133  1  0.59895128  0.59637473  -0.01021195  1
  Nb  Nb134  1  0.79724970  0.59893865  -0.00288616  1
  Nb  Nb135  1  0.20253557  0.60058829  0.80038570  1
  Nb  Nb136  1  0.39519336  -0.00133174  0.39734349  1
  Nb  Nb137  1  -0.00275631  0.80440942  0.79661724  1
  Nb  Nb138  1  0.20564440  -0.00316985  -0.00411635  1
  Nb  Nb139  1  0.39053067  0.60278515  0.39683429  1
  Nb  Nb140  1  0.60802137  0.80862880  0.19815168  1
  Nb  Nb141  1  0.39967071  0.19082641  -0.00774378  1
  Nb  Nb142  1  0.19967121  0.20852644  0.60187577  1
  Nb  Nb143  1  0.80095745  0.79433987  0.60590500  1
  Nb  Nb144  1  -0.00572946  0.59925958  0.19347732  1
  Nb  Nb145  1  0.40484382  0.19396674  0.80433271  1
  Nb  Nb146  1  0.80307999  0.60389032  0.60848024  1
  Nb  Nb147  1  0.39345997  0.79887377  0.39918411  1
  Nb  Nb148  1  0.80223593  0.39966150  0.19868050  1
  Nb  Nb149  1  0.00374304  0.00393175  0.39567016  1
  Pd  Pd150  1  0.59525562  0.60351594  0.80361610  1
  Pd  Pd151  1  0.80247114  0.19464645  -0.01017188  1
  Pd  Pd152  1  0.40665795  0.80006765  0.20224393  1
  Pd  Pd153  1  0.19757377  0.00662881  0.40911938  1
  Pd  Pd154  1  0.59835419  0.00226912  0.00220430  1
  Pd  Pd155  1  0.60553220  0.39836106  0.20839172  1
  Pd  Pd156  1  0.39346335  0.79512106  -0.00333944  1
  Pd  Pd157  1  0.00181389  0.39257526  0.81031543  1
  Pd  Pd158  1  0.19447697  -0.00215906  0.18511665  1
  Pd  Pd159  1  0.20676926  0.78888949  0.39993439  1
  Pd  Pd160  1  0.79595100  -0.00591878  0.20142234  1
  Pd  Pd161  1  0.20988263  0.20410003  0.19617440  1
  Pd  Pd162  1  0.59316418  0.39751962  0.59803383  1
  Pd  Pd163  1  -0.00940642  0.59642310  0.61104505  1
  Pd  Pd164  1  0.00376091  0.39480184  -0.00621740  1
  Pd  Pd165  1  0.79170723  0.60228175  0.41595298  1
  Pd  Pd166  1  0.41115754  0.40925311  0.40660259  1
  Pd  Pd167  1  0.19628075  0.79688971  0.60811156  1
  Pd  Pd168  1  0.60630657  0.80450179  0.60323616  1
  Pd  Pd169  1  -0.00675488  0.40553154  0.20755032  1
  Pd  Pd170  1  -0.00496085  0.60059744  0.00411999  1
  Pd  Pd171  1  0.39250185  0.20598687  0.19397233  1
  Pd  Pd172  1  0.18963468  0.00818995  0.59953873  1
  Pd  Pd173  1  0.81143905  0.81713402  0.79949357  1
  Pd  Pd174  1  -0.00205921  0.79850337  -0.00849827  1
  Pd  Pd175  1  0.80148481  0.19753753  0.41127820  1
  Pd  Pd176  1  0.20594237  0.39548610  0.19821259  1
  Pd  Pd177  1  0.00513768  -0.00522291  0.80877033  1
  Pd  Pd178  1  0.20577589  0.19481852  0.79326581  1
  Pd  Pd179  1  0.80006589  0.00338368  0.80808415  1
  Pd  Pd180  1  0.39829918  0.60324363  0.59796288  1
  Pd  Pd181  1  0.59316272  -0.00230740  0.79907112  1
  Pd  Pd182  1  0.79995036  0.19630557  0.80775391  1
  Pd  Pd183  1  -0.00496683  0.79628132  0.19914626  1
  Pd  Pd184  1  0.80164203  0.58731580  0.79771963  1
  Pd  Pd185  1  0.01215957  0.59203683  0.38864878  1
  Pd  Pd186  1  0.79473209  0.19502769  0.59742967  1
  Pd  Pd187  1  -0.00162121  0.81026242  0.39881810  1
  Pd  Pd188  1  0.59904475  -0.00259808  0.59798443  1
  Pd  Pd189  1  0.20509060  0.19305267  0.40708719  1
  Pd  Pd190  1  0.80528018  0.80340232  0.40483956  1
  Pd  Pd191  1  -0.00369070  0.19658986  0.19248128  1
  Pd  Pd192  1  0.39121521  0.39225764  0.19405477  1
  Pd  Pd193  1  0.20233519  0.40576007  -0.00344760  1
  Pd  Pd194  1  0.59268967  0.60590279  0.18814971  1
  Pd  Pd195  1  0.19895942  0.40334292  0.79761053  1
  Pd  Pd196  1  0.80320925  0.20356982  0.19801897  1
  Pd  Pd197  1  0.58930980  0.59291401  0.40433447  1
  Pd  Pd198  1  0.40280760  0.40063189  0.60115661  1
  Pd  Pd199  1  0.80869546  -0.00622762  0.40151557  1
  Rh  Rh200  1  -0.00448123  0.20057447  0.40571563  1
  Rh  Rh201  1  0.19403286  -0.00314604  0.80624468  1
  Rh  Rh202  1  0.59128518  0.20011779  -0.00360984  1
  Rh  Rh203  1  0.40059305  0.60094707  0.19339388  1
  Rh  Rh204  1  0.59259248  0.20409175  0.80309371  1
  Rh  Rh205  1  0.40220208  0.80407423  0.59693292  1
  Rh  Rh206  1  0.79726490  0.00047609  -0.00872098  1
  Rh  Rh207  1  0.60252847  0.20514589  0.40598565  1
  Rh  Rh208  1  0.21659337  0.59066468  -0.01364896  1
  Rh  Rh209  1  0.59100619  0.80954970  0.79245280  1
  Rh  Rh210  1  0.18829247  0.40830028  0.40623189  1
  Rh  Rh211  1  0.59783647  0.39185333  0.79975196  1
  Rh  Rh212  1  0.39290877  -0.00036858  -0.00064388  1
  Rh  Rh213  1  0.41011170  -0.00087769  0.20674675  1
  Rh  Rh214  1  0.01074891  0.60687448  0.79420639  1
  Rh  Rh215  1  0.20412938  0.59488872  0.60657614  1
  Rh  Rh216  1  0.39670987  0.19661650  0.60976550  1
  Rh  Rh217  1  0.01416343  0.00233026  -0.00534963  1
  Rh  Rh218  1  0.39781806  0.61349906  0.80619926  1
  Rh  Rh219  1  0.59875321  0.40365542  -0.00042062  1
  Rh  Rh220  1  0.40020360  0.39924825  0.00097268  1
  Rh  Rh221  1  -0.00625722  0.80758175  0.60962373  1
  Rh  Rh222  1  0.60732736  0.19905220  0.59705073  1
  Rh  Rh223  1  0.40225018  0.80098640  0.79984068  1
  Rh  Rh224  1  0.60453941  0.19148929  0.20150062  1
  Rh  Rh225  1  0.41180719  0.38488268  0.79904108  1
  Rh  Rh226  1  -0.00367389  0.20359859  0.80076190  1
  Rh  Rh227  1  0.79560856  0.40157405  0.00328061  1
  Rh  Rh228  1  0.00452036  0.19906209  0.60477282  1
  Rh  Rh229  1  0.79153317  -0.00828717  0.59542120  1
  Rh  Rh230  1  0.21140772  0.18742967  0.00209938  1
  Rh  Rh231  1  0.79854644  0.39865067  0.79785776  1
  Rh  Rh232  1  0.00461377  0.00406300  0.20110822  1
  Rh  Rh233  1  0.60739061  0.79642308  0.00352265  1
  Rh  Rh234  1  0.59272461  0.00568379  0.39253730  1
  Rh  Rh235  1  0.80420687  0.59982685  0.19198476  1
  Rh  Rh236  1  0.00837779  -0.00096783  0.59243949  1
  Rh  Rh237  1  0.00125442  0.40301816  0.60037351  1
  Rh  Rh238  1  0.59070806  0.79402297  0.39500460  1
  Rh  Rh239  1  0.20681434  0.81355898  0.00597034  1
  Rh  Rh240  1  0.19272834  0.79402798  0.79165146  1
  Rh  Rh241  1  0.18808566  0.59972956  0.20510318  1
  Rh  Rh242  1  0.40815388  -0.00302332  0.59680392  1
  Rh  Rh243  1  -0.00336637  0.20151747  0.00066200  1
  Rh  Rh244  1  0.19513298  0.80746246  0.19036439  1
  Rh  Rh245  1  0.60694017  0.60087010  0.60658862  1
  Rh  Rh246  1  0.39800194  0.19100070  0.39846862  1
  Rh  Rh247  1  0.79475564  0.40251363  0.39386679  1
  Rh  Rh248  1  0.80563478  0.41000420  0.61418490  1
  Rh  Rh249  1  0.40368862  0.00222309  0.79333919  1
