# generated using pymatgen
data_ZrScNbPdRh
_symmetry_space_group_name_H-M   'P 1'
_cell_length_a   16.55456636
_cell_length_b   16.55183628
_cell_length_c   16.55889253
_cell_angle_alpha   89.97637996
_cell_angle_beta   89.98301079
_cell_angle_gamma   89.99379855
_symmetry_Int_Tables_number   1
_chemical_formula_structural   ZrScNbPdRh
_chemical_formula_sum   'Zr50 Sc50 Nb50 Pd50 Rh50'
_cell_volume   4537.27623029
_cell_formula_units_Z   50
loop_
 _symmetry_equiv_pos_site_id
 _symmetry_equiv_pos_as_xyz
  1  'x, y, z'
loop_
 _atom_site_type_symbol
 _atom_site_label
 _atom_site_symmetry_multiplicity
 _atom_site_fract_x
 _atom_site_fract_y
 _atom_site_fract_z
 _atom_site_occupancy
  Zr  Zr0  1  0.09595768  0.49837530  0.30522145  1
  Zr  Zr1  1  0.29644744  0.49403027  0.89791320  1
  Zr  Zr2  1  0.50104238  0.89809644  0.10621148  1
  Zr  Zr3  1  0.90160849  0.50389604  0.49550225  1
  Zr  Zr4  1  0.70327559  0.70498137  0.50180305  1
  Zr  Zr5  1  0.30668467  0.10976527  0.49627490  1
  Zr  Zr6  1  0.69776994  0.30562688  0.50166857  1
  Zr  Zr7  1  0.70571859  0.90298231  0.90049238  1
  Zr  Zr8  1  0.90069697  0.30359006  0.69953423  1
  Zr  Zr9  1  0.49901082  0.09599869  0.70883612  1
  Zr  Zr10  1  0.49932223  0.29200684  0.89694624  1
  Zr  Zr11  1  0.69616833  0.49260041  0.69761281  1
  Zr  Zr12  1  0.29911589  0.50218068  0.28827217  1
  Zr  Zr13  1  0.90232769  0.50292293  0.29704403  1
  Zr  Zr14  1  0.48123664  0.30056729  0.50456921  1
  Zr  Zr15  1  0.70129866  0.09521021  0.50635549  1
  Zr  Zr16  1  0.29519979  0.29797790  0.30481884  1
  Zr  Zr17  1  0.09356156  0.71030090  0.69779399  1
  Zr  Zr18  1  0.49990593  0.89981926  0.30362978  1
  Zr  Zr19  1  0.90421679  0.90635863  0.89737266  1
  Zr  Zr20  1  0.30012253  0.10338302  0.30457183  1
  Zr  Zr21  1  0.29824428  0.49477938  0.09809327  1
  Zr  Zr22  1  0.30631814  0.68889758  0.10529451  1
  Zr  Zr23  1  0.88969087  0.49989017  0.69806991  1
  Zr  Zr24  1  0.70146402  0.29709863  0.09250495  1
  Zr  Zr25  1  0.50108304  0.49638135  0.49645592  1
  Zr  Zr26  1  0.10164249  0.89314149  0.50100036  1
  Zr  Zr27  1  0.09986068  0.90907167  0.69692030  1
  Zr  Zr28  1  0.10053147  0.30235762  0.30060651  1
  Zr  Zr29  1  0.49963316  0.69023115  0.50070678  1
  Zr  Zr30  1  0.90139491  0.69632372  0.90312664  1
  Zr  Zr31  1  0.90588669  0.10855866  0.09753689  1
  Zr  Zr32  1  0.89540811  0.29578911  0.90887330  1
  Zr  Zr33  1  0.30119346  0.89510876  0.10287716  1
  Zr  Zr34  1  0.69850418  0.49564002  0.89865940  1
  Zr  Zr35  1  0.48964590  0.50696201  0.10613816  1
  Zr  Zr36  1  0.09778241  0.70080313  0.30362337  1
  Zr  Zr37  1  0.70007364  0.69043810  0.69755891  1
  Zr  Zr38  1  0.90522104  0.10718804  0.30242088  1
  Zr  Zr39  1  0.70153678  0.90142523  0.50083311  1
  Zr  Zr40  1  0.30968391  0.10837657  0.89692228  1
  Zr  Zr41  1  0.09931732  0.10679762  0.10613768  1
  Zr  Zr42  1  0.09917168  0.10601303  0.30280934  1
  Zr  Zr43  1  0.70058208  0.29719964  0.30345074  1
  Zr  Zr44  1  0.29601898  0.90329731  0.69778637  1
  Zr  Zr45  1  0.10943407  0.70136615  0.10080082  1
  Zr  Zr46  1  0.70342273  0.30339745  0.70027646  1
  Zr  Zr47  1  0.70275858  0.50549653  0.09591406  1
  Zr  Zr48  1  0.70346628  0.89248057  0.10617824  1
  Zr  Zr49  1  0.69645577  0.09828313  0.89426982  1
  Sc  Sc50  1  0.51405137  0.90298393  0.49317261  1
  Sc  Sc51  1  0.30333380  0.69146182  0.70693225  1
  Sc  Sc52  1  0.90159678  0.48988224  0.90237682  1
  Sc  Sc53  1  0.90126488  0.70672374  0.50345887  1
  Sc  Sc54  1  0.30427731  0.48856166  0.50007103  1
  Sc  Sc55  1  0.10010782  0.89925723  0.10552292  1
  Sc  Sc56  1  0.50365575  0.10615491  0.09906985  1
  Sc  Sc57  1  0.90560960  0.90038584  0.29325745  1
  Sc  Sc58  1  0.89400189  0.29106350  0.50069199  1
  Sc  Sc59  1  0.30065753  0.69746205  0.89513511  1
  Sc  Sc60  1  0.50049182  0.70626872  0.30694978  1
  Sc  Sc61  1  0.69472857  0.50181951  0.50753161  1
  Sc  Sc62  1  0.50379321  0.31199461  0.30233204  1
  Sc  Sc63  1  0.09973368  0.89717162  0.30499599  1
  Sc  Sc64  1  0.30092287  0.89623010  0.89644022  1
  Sc  Sc65  1  0.49626698  0.30884437  0.70092637  1
  Sc  Sc66  1  0.29322692  0.10190006  0.69713442  1
  Sc  Sc67  1  0.09975449  0.29537455  0.69753845  1
  Sc  Sc68  1  0.30185953  0.49539049  0.70607093  1
  Sc  Sc69  1  0.29910791  0.30128223  0.69058075  1
  Sc  Sc70  1  0.89948546  0.11245630  0.69607903  1
  Sc  Sc71  1  0.70164654  0.10100396  0.09792043  1
  Sc  Sc72  1  0.70335538  0.09581012  0.70052741  1
  Sc  Sc73  1  0.89895834  0.89323559  0.50088580  1
  Sc  Sc74  1  0.10206050  0.10471706  0.70173881  1
  Sc  Sc75  1  0.90079392  0.50002855  0.09546262  1
  Sc  Sc76  1  0.30101774  0.70657504  0.30263955  1
  Sc  Sc77  1  0.28908724  0.90077690  0.49619489  1
  Sc  Sc78  1  0.69277349  0.49219921  0.30553175  1
  Sc  Sc79  1  0.91034176  0.89181573  0.70010566  1
  Sc  Sc80  1  0.50170097  0.69817032  0.88450549  1
  Sc  Sc81  1  0.90020079  0.90867109  0.10173380  1
  Sc  Sc82  1  0.48819815  0.09047581  0.30877585  1
  Sc  Sc83  1  0.69883185  0.89520713  0.30517346  1
  Sc  Sc84  1  0.09281284  0.29977705  0.10162707  1
  Sc  Sc85  1  0.10949684  0.49127839  0.70857234  1
  Sc  Sc86  1  0.90365541  0.70052883  0.29605595  1
  Sc  Sc87  1  0.09177396  0.10178145  0.89695950  1
  Sc  Sc88  1  0.49940480  0.49063728  0.89451264  1
  Sc  Sc89  1  0.88525799  0.69148660  0.10308409  1
  Sc  Sc90  1  0.69301203  0.90078860  0.69519273  1
  Sc  Sc91  1  0.09044851  0.30426918  0.89690920  1
  Sc  Sc92  1  0.50009537  0.29934119  0.10022965  1
  Sc  Sc93  1  0.09673070  0.49462797  0.89953250  1
  Sc  Sc94  1  0.09472884  0.90634800  0.89510157  1
  Sc  Sc95  1  0.50521053  0.90084895  0.88549480  1
  Sc  Sc96  1  0.70553958  0.70779012  0.28942562  1
  Sc  Sc97  1  0.31304632  0.11132889  0.11066117  1
  Sc  Sc98  1  0.10001014  0.49488312  0.10708267  1
  Sc  Sc99  1  0.70169336  0.10311739  0.29967762  1
  Nb  Nb100  1  0.49798434  0.70324192  0.69677947  1
  Nb  Nb101  1  0.50093572  0.50254396  0.69363868  1
  Nb  Nb102  1  0.29787525  0.30006078  0.09902086  1
  Nb  Nb103  1  0.49555863  0.89211468  0.69796786  1
  Nb  Nb104  1  0.11346648  0.31031401  0.49906926  1
  Nb  Nb105  1  0.10189745  0.70229621  0.49675123  1
  Nb  Nb106  1  0.09897062  0.50070185  0.49614781  1
  Nb  Nb107  1  0.89943659  0.09573011  0.90157235  1
  Nb  Nb108  1  0.69881754  0.69569873  0.09647729  1
  Nb  Nb109  1  0.89360269  0.29913944  0.29893388  1
  Nb  Nb110  1  0.50049616  0.50231906  0.30277210  1
  Nb  Nb111  1  0.30911324  0.91096023  0.29962830  1
  Nb  Nb112  1  0.89649551  0.29696105  0.09539071  1
  Nb  Nb113  1  0.50050956  0.09707410  0.90062955  1
  Nb  Nb114  1  0.09529007  0.10361991  0.49872587  1
  Nb  Nb115  1  0.29722718  0.30239072  0.49810818  1
  Nb  Nb116  1  0.10103460  0.69815602  0.89808535  1
  Nb  Nb117  1  0.90053701  0.10389794  0.50081167  1
  Nb  Nb118  1  0.29646880  0.69869320  0.50008620  1
  Nb  Nb119  1  0.69852226  0.30447838  0.89987700  1
  Nb  Nb120  1  0.50067597  0.09841614  0.50112938  1
  Nb  Nb121  1  0.30630557  0.30343107  0.90951562  1
  Nb  Nb122  1  0.89890887  0.69897415  0.69901448  1
  Nb  Nb123  1  0.70334658  0.69649588  0.90558910  1
  Nb  Nb124  1  0.50368383  0.70027391  0.10021413  1
  Nb  Nb125  1  0.79962017  0.79173000  0.80118213  1
  Nb  Nb126  1  0.59804002  -0.00279266  0.20196855  1
  Nb  Nb127  1  0.19497672  0.59994822  0.59391028  1
  Nb  Nb128  1  0.20651809  0.20335970  -0.00019829  1
  Nb  Nb129  1  0.60242380  0.79198413  -0.00022158  1
  Nb  Nb130  1  0.40800654  0.79868461  0.00046884  1
  Nb  Nb131  1  0.20109843  0.59838279  -0.00186070  1
  Nb  Nb132  1  0.40466518  -0.00435477  0.59926014  1
  Nb  Nb133  1  0.19385329  0.79990375  0.79816049  1
  Nb  Nb134  1  0.20738513  0.00294232  0.20237410  1
  Nb  Nb135  1  0.59452220  0.19771748  0.40955832  1
  Nb  Nb136  1  0.40225209  -0.00016620  -0.00197584  1
  Nb  Nb137  1  0.59719811  0.60278996  0.19689186  1
  Nb  Nb138  1  0.80058992  0.60119127  0.39919219  1
  Nb  Nb139  1  0.80203037  0.39235208  0.19860543  1
  Nb  Nb140  1  0.59416795  0.19753051  0.59780121  1
  Nb  Nb141  1  0.80616337  0.00529555  0.40504390  1
  Nb  Nb142  1  0.20833009  0.00863785  0.00557961  1
  Nb  Nb143  1  0.00135359  0.00849880  0.59146835  1
  Nb  Nb144  1  0.00560475  0.40419960  0.59324151  1
  Nb  Nb145  1  0.19775657  0.60045649  0.40635300  1
  Nb  Nb146  1  0.00606574  0.59867190  0.60074325  1
  Nb  Nb147  1  -0.00128728  0.60262482  0.79418532  1
  Nb  Nb148  1  0.00170290  0.79499358  -0.00094844  1
  Nb  Nb149  1  0.40192017  0.79883053  0.60044885  1
  Pd  Pd150  1  0.40821837  0.39748315  0.00106762  1
  Pd  Pd151  1  0.80043266  0.00629093  0.00402596  1
  Pd  Pd152  1  0.00301914  0.60313845  0.19191461  1
  Pd  Pd153  1  0.20333303  0.38535213  0.80114324  1
  Pd  Pd154  1  0.80314932  0.59811257  0.80665891  1
  Pd  Pd155  1  0.18915988  0.39766989  0.00160131  1
  Pd  Pd156  1  0.80089590  0.20136299  0.19643028  1
  Pd  Pd157  1  0.20021614  0.00084558  0.81075430  1
  Pd  Pd158  1  0.79927188  0.20155482  0.80519620  1
  Pd  Pd159  1  0.60173382  0.19905976  -0.00442415  1
  Pd  Pd160  1  0.39854652  0.39262162  0.20269499  1
  Pd  Pd161  1  0.39766505  0.80698123  0.41239387  1
  Pd  Pd162  1  0.39061072  0.59532756  0.39584387  1
  Pd  Pd163  1  -0.00619509  -0.00600620  0.40425574  1
  Pd  Pd164  1  0.59734601  0.59538876  0.79701019  1
  Pd  Pd165  1  0.59072763  0.19122971  0.21274289  1
  Pd  Pd166  1  0.80749648  -0.00662529  0.78665275  1
  Pd  Pd167  1  0.00648476  0.59971582  -0.00047948  1
  Pd  Pd168  1  0.39667413  -0.00343692  0.79989986  1
  Pd  Pd169  1  0.40060482  0.79339626  0.20100987  1
  Pd  Pd170  1  0.20411136  0.80708743  0.21123286  1
  Pd  Pd171  1  -0.00616564  0.38813478  0.40658473  1
  Pd  Pd172  1  0.40599223  0.59212524  0.80017804  1
  Pd  Pd173  1  0.80121304  0.40656546  0.39912961  1
  Pd  Pd174  1  0.00914847  -0.00390808  0.00597784  1
  Pd  Pd175  1  0.39520522  0.20904218  0.79032543  1
  Pd  Pd176  1  0.59130634  0.60147491  -0.00281535  1
  Pd  Pd177  1  0.80474210  0.80064966  -0.00082785  1
  Pd  Pd178  1  0.80683440  0.80082615  0.39237404  1
  Pd  Pd179  1  0.60518583  0.40672392  0.19331120  1
  Pd  Pd180  1  -0.00395961  0.19927878  0.80297076  1
  Pd  Pd181  1  0.39240309  0.59772617  0.60120088  1
  Pd  Pd182  1  0.19955867  0.00240925  0.39876282  1
  Pd  Pd183  1  -0.00945033  0.39428117  0.19575893  1
  Pd  Pd184  1  0.59106826  0.40060992  0.00403794  1
  Pd  Pd185  1  0.40023393  0.60477308  -0.01274621  1
  Pd  Pd186  1  0.61063451  0.79898567  0.80234862  1
  Pd  Pd187  1  0.60182003  0.20246914  0.79302033  1
  Pd  Pd188  1  0.81431996  -0.00603400  0.60272230  1
  Pd  Pd189  1  0.59538490  -0.00592762  0.00382655  1
  Pd  Pd190  1  0.59565744  0.79747135  0.59655210  1
  Pd  Pd191  1  0.19650255  0.19865848  0.59457543  1
  Pd  Pd192  1  0.20150823  0.79962832  -0.00937311  1
  Pd  Pd193  1  0.61121518  0.60758238  0.39047082  1
  Pd  Pd194  1  0.20932720  0.79192619  0.60706949  1
  Pd  Pd195  1  -0.00632389  0.79647317  0.18892331  1
  Pd  Pd196  1  0.41040935  0.20831052  0.20976218  1
  Pd  Pd197  1  0.00309714  0.21291403  0.40659739  1
  Pd  Pd198  1  0.79547894  0.00063774  0.20910402  1
  Pd  Pd199  1  0.20288828  0.20847454  0.80883242  1
  Rh  Rh200  1  0.19893044  0.39391346  0.19980071  1
  Rh  Rh201  1  0.79335229  0.19235438  0.40350073  1
  Rh  Rh202  1  0.19267440  0.59851467  0.20279281  1
  Rh  Rh203  1  0.80097881  0.59197928  -0.00639993  1
  Rh  Rh204  1  0.60073415  -0.00416112  0.79601391  1
  Rh  Rh205  1  0.59239933  0.39548722  0.59959963  1
  Rh  Rh206  1  0.61028703  0.00784044  0.39032177  1
  Rh  Rh207  1  0.59695359  0.39932645  0.79739215  1
  Rh  Rh208  1  0.39661485  0.40709458  0.60478689  1
  Rh  Rh209  1  0.00893420  0.20552786  0.59259280  1
  Rh  Rh210  1  -0.00460731  0.20854760  0.20386575  1
  Rh  Rh211  1  -0.00169216  0.80244895  0.59356643  1
  Rh  Rh212  1  0.80757055  0.39803549  0.59367892  1
  Rh  Rh213  1  0.79981978  0.39592681  0.80663976  1
  Rh  Rh214  1  -0.00228642  0.61138120  0.40558281  1
  Rh  Rh215  1  0.19813529  0.01316104  0.58825056  1
  Rh  Rh216  1  -0.00186200  0.79458285  0.81090737  1
  Rh  Rh217  1  0.00395668  0.20111483  -0.00467068  1
  Rh  Rh218  1  0.20653129  0.40887641  0.39532520  1
  Rh  Rh219  1  -0.00448601  0.40541665  0.78862564  1
  Rh  Rh220  1  0.58933898  0.00426062  0.60925782  1
  Rh  Rh221  1  -0.00753990  0.01272848  0.78522040  1
  Rh  Rh222  1  -0.00325617  0.80056561  0.40013959  1
  Rh  Rh223  1  0.79822563  0.80182885  0.61242270  1
  Rh  Rh224  1  0.40074584  0.19733733  0.00182500  1
  Rh  Rh225  1  0.40334964  0.19030066  0.60829880  1
  Rh  Rh226  1  0.80370071  0.60243064  0.58898285  1
  Rh  Rh227  1  0.00991138  0.00231128  0.20212740  1
  Rh  Rh228  1  0.59486458  0.39413217  0.40802126  1
  Rh  Rh229  1  0.20351646  0.79812746  0.39316964  1
  Rh  Rh230  1  0.19997181  0.20301032  0.19480480  1
  Rh  Rh231  1  0.40170100  0.00266205  0.19376391  1
  Rh  Rh232  1  0.60237252  0.79371661  0.40304206  1
  Rh  Rh233  1  0.40609423  0.20749307  0.39393768  1
  Rh  Rh234  1  0.00006140  0.39696281  0.00481100  1
  Rh  Rh235  1  0.18955714  0.60530190  0.80002050  1
  Rh  Rh236  1  0.79077145  0.20193447  0.60146013  1
  Rh  Rh237  1  0.80640457  0.80257324  0.19826580  1
  Rh  Rh238  1  0.79509309  0.19154727  -0.00785452  1
  Rh  Rh239  1  0.60231049  0.79740346  0.19706526  1
  Rh  Rh240  1  0.79989051  0.40096464  0.00340029  1
  Rh  Rh241  1  0.39909813  0.39813539  0.79770652  1
  Rh  Rh242  1  0.39535255  0.40219327  0.39285867  1
  Rh  Rh243  1  0.41122097  0.60796477  0.21394506  1
  Rh  Rh244  1  0.39123371  0.79924419  0.79602807  1
  Rh  Rh245  1  0.19624155  0.20174146  0.40664746  1
  Rh  Rh246  1  0.19876988  0.40458245  0.60033903  1
  Rh  Rh247  1  0.39646082  -0.00866131  0.41498406  1
  Rh  Rh248  1  0.78720174  0.58754902  0.21099094  1
  Rh  Rh249  1  0.59761239  0.59840679  0.60282146  1
