# generated using pymatgen
data_ZrScNbPdRh
_symmetry_space_group_name_H-M   'P 1'
_cell_length_a   16.56201116
_cell_length_b   16.56038126
_cell_length_c   16.55741151
_cell_angle_alpha   89.99145489
_cell_angle_beta   89.98342018
_cell_angle_gamma   89.98054165
_symmetry_Int_Tables_number   1
_chemical_formula_structural   ZrScNbPdRh
_chemical_formula_sum   'Zr50 Sc50 Nb50 Pd50 Rh50'
_cell_volume   4541.25405559
_cell_formula_units_Z   50
loop_
 _symmetry_equiv_pos_site_id
 _symmetry_equiv_pos_as_xyz
  1  'x, y, z'
loop_
 _atom_site_type_symbol
 _atom_site_label
 _atom_site_symmetry_multiplicity
 _atom_site_fract_x
 _atom_site_fract_y
 _atom_site_fract_z
 _atom_site_occupancy
  Zr  Zr0  1  0.10416075  0.89740058  0.10225957  1
  Zr  Zr1  1  0.29971397  0.90292455  0.89675410  1
  Zr  Zr2  1  0.90678872  0.10444625  0.89979920  1
  Zr  Zr3  1  0.50371089  0.49843527  0.90526140  1
  Zr  Zr4  1  0.70139310  0.10368969  0.50285169  1
  Zr  Zr5  1  0.69457813  0.49462667  0.10078844  1
  Zr  Zr6  1  0.70889195  0.09921568  0.28520619  1
  Zr  Zr7  1  0.11154232  0.29542175  0.70301309  1
  Zr  Zr8  1  0.49729405  0.70159920  0.69906104  1
  Zr  Zr9  1  0.69873086  0.90351781  0.50102369  1
  Zr  Zr10  1  0.09969203  0.10214844  0.89472094  1
  Zr  Zr11  1  0.50460331  0.50775879  0.29403616  1
  Zr  Zr12  1  0.29601116  0.09474420  0.10092909  1
  Zr  Zr13  1  0.89670472  0.08039100  0.71170141  1
  Zr  Zr14  1  0.69527883  0.70586229  0.70116269  1
  Zr  Zr15  1  0.70438015  0.49182955  0.70186326  1
  Zr  Zr16  1  0.10416754  0.69809561  0.09941022  1
  Zr  Zr17  1  0.29484512  0.69619954  0.29321582  1
  Zr  Zr18  1  0.90389896  0.30759023  0.90432666  1
  Zr  Zr19  1  0.89057605  0.09823706  0.10610518  1
  Zr  Zr20  1  0.50668947  0.29942535  0.49454551  1
  Zr  Zr21  1  0.90387374  0.69625437  0.69845291  1
  Zr  Zr22  1  0.49945848  0.69588597  0.49576988  1
  Zr  Zr23  1  0.71108534  0.90799831  0.69455886  1
  Zr  Zr24  1  0.30150209  0.71149728  0.89952554  1
  Zr  Zr25  1  0.90118631  0.30652920  0.30276156  1
  Zr  Zr26  1  0.10332914  0.50134129  0.30301866  1
  Zr  Zr27  1  0.49374385  0.10697038  0.09089245  1
  Zr  Zr28  1  0.50215778  0.50074117  0.70136577  1
  Zr  Zr29  1  0.29885495  0.50301248  0.49460939  1
  Zr  Zr30  1  0.70086665  0.30150228  0.69067998  1
  Zr  Zr31  1  0.30315613  0.69439738  0.50951158  1
  Zr  Zr32  1  0.50372714  0.30639536  0.10142516  1
  Zr  Zr33  1  0.10623860  0.30197917  0.29324307  1
  Zr  Zr34  1  0.89469550  0.29988111  0.49673046  1
  Zr  Zr35  1  0.49661073  0.30424852  0.29789342  1
  Zr  Zr36  1  0.10054441  0.69029547  0.90105369  1
  Zr  Zr37  1  0.70243832  0.29717526  0.50071916  1
  Zr  Zr38  1  0.69526838  0.69746888  0.30117352  1
  Zr  Zr39  1  0.89772237  0.89712837  0.09756391  1
  Zr  Zr40  1  0.90347433  0.50174585  0.29901955  1
  Zr  Zr41  1  0.50057874  0.69895144  0.10480497  1
  Zr  Zr42  1  0.30360843  0.09400589  0.90591613  1
  Zr  Zr43  1  0.29870210  0.88824155  0.70512049  1
  Zr  Zr44  1  0.10676989  0.10279787  0.30148974  1
  Zr  Zr45  1  0.69017242  0.10783022  0.10265881  1
  Zr  Zr46  1  0.49650486  0.50109199  0.49732633  1
  Zr  Zr47  1  0.09465465  0.09659788  0.49272741  1
  Zr  Zr48  1  0.90434573  0.10522140  0.30800065  1
  Zr  Zr49  1  0.10466420  0.50913064  0.50072724  1
  Sc  Sc50  1  0.68932668  0.90063644  0.29775196  1
  Sc  Sc51  1  0.29538748  0.10657216  0.29861929  1
  Sc  Sc52  1  0.89527779  0.89957278  0.50178983  1
  Sc  Sc53  1  0.90082813  0.69849644  0.91424130  1
  Sc  Sc54  1  0.51531199  0.70536121  0.90039954  1
  Sc  Sc55  1  0.10300532  0.28939785  0.50450925  1
  Sc  Sc56  1  0.70475826  0.71238633  0.49513100  1
  Sc  Sc57  1  0.89627688  0.49696376  0.10028521  1
  Sc  Sc58  1  0.69698784  0.31033317  0.89909712  1
  Sc  Sc59  1  0.69804681  0.48287490  0.49987198  1
  Sc  Sc60  1  0.11078502  0.89682507  0.90054793  1
  Sc  Sc61  1  0.90442602  0.31182983  0.09754314  1
  Sc  Sc62  1  0.50456629  0.10111244  0.29846001  1
  Sc  Sc63  1  0.08939614  0.29573835  0.89413869  1
  Sc  Sc64  1  0.70124515  0.91522283  0.10585130  1
  Sc  Sc65  1  0.90611445  0.10569427  0.50093580  1
  Sc  Sc66  1  0.69784991  0.10184461  0.69638514  1
  Sc  Sc67  1  0.09974015  0.90340914  0.70589971  1
  Sc  Sc68  1  0.69778861  0.50289497  0.90646951  1
  Sc  Sc69  1  0.31057115  0.29688612  0.10555591  1
  Sc  Sc70  1  0.70317664  0.49721731  0.29621527  1
  Sc  Sc71  1  0.69341700  0.09836411  0.90506756  1
  Sc  Sc72  1  0.49937533  0.09599912  0.49720183  1
  Sc  Sc73  1  0.29348552  0.69975675  0.09891594  1
  Sc  Sc74  1  0.50152390  0.10347319  0.69603743  1
  Sc  Sc75  1  0.29732339  0.89450082  0.08872690  1
  Sc  Sc76  1  0.09783297  0.50847832  0.70838308  1
  Sc  Sc77  1  0.29809775  0.50320408  0.10589353  1
  Sc  Sc78  1  0.09135319  0.10293268  0.70202381  1
  Sc  Sc79  1  0.69786706  0.89755738  0.90866085  1
  Sc  Sc80  1  0.90516645  0.50567472  0.48754876  1
  Sc  Sc81  1  0.10464617  0.69851318  0.49602780  1
  Sc  Sc82  1  0.10444127  0.89531268  0.30916554  1
  Sc  Sc83  1  0.30197215  0.48834190  0.89687603  1
  Sc  Sc84  1  0.89214505  0.30830047  0.70242885  1
  Sc  Sc85  1  0.09501779  0.50020277  0.10641015  1
  Sc  Sc86  1  0.49065578  0.89585344  0.90844876  1
  Sc  Sc87  1  0.70457228  0.69006613  0.08910559  1
  Sc  Sc88  1  0.49657482  0.89859595  0.69312904  1
  Sc  Sc89  1  0.10939897  0.69406793  0.70114823  1
  Sc  Sc90  1  0.29177376  0.09327396  0.70548317  1
  Sc  Sc91  1  0.29999600  0.09930468  0.49236531  1
  Sc  Sc92  1  0.69854054  0.30156555  0.29906724  1
  Sc  Sc93  1  0.49120513  0.30517727  0.90963258  1
  Sc  Sc94  1  0.29131375  0.49892106  0.69945997  1
  Sc  Sc95  1  0.90839055  0.89330857  0.31079377  1
  Sc  Sc96  1  0.30274367  0.89739346  0.49792221  1
  Sc  Sc97  1  0.90711452  0.69657388  0.10324322  1
  Sc  Sc98  1  0.51055022  0.30006851  0.70331924  1
  Sc  Sc99  1  0.09635640  0.70365696  0.29973675  1
  Nb  Nb100  1  0.70165119  0.30454268  0.10103562  1
  Nb  Nb101  1  0.89827696  0.89824608  0.70576322  1
  Nb  Nb102  1  0.09615631  0.49611776  0.90011501  1
  Nb  Nb103  1  0.10250308  0.10111171  0.10075066  1
  Nb  Nb104  1  0.50124207  0.90309179  0.48400784  1
  Nb  Nb105  1  0.09648527  0.89922159  0.49905839  1
  Nb  Nb106  1  0.29658107  0.30428449  0.30737871  1
  Nb  Nb107  1  0.70113304  0.69679955  0.89424330  1
  Nb  Nb108  1  0.89560456  0.70584767  0.49384653  1
  Nb  Nb109  1  0.29312527  0.29891040  0.89683725  1
  Nb  Nb110  1  0.89824510  0.90690791  0.89461759  1
  Nb  Nb111  1  0.49932222  0.89840579  0.10678249  1
  Nb  Nb112  1  0.30705231  0.70048095  0.70119483  1
  Nb  Nb113  1  0.30162090  0.30126316  0.50328240  1
  Nb  Nb114  1  0.29184408  0.49451037  0.30249940  1
  Nb  Nb115  1  0.29598821  0.29964810  0.70338483  1
  Nb  Nb116  1  0.50638189  0.70563464  0.29755084  1
  Nb  Nb117  1  0.89222457  0.69999168  0.31461572  1
  Nb  Nb118  1  0.89923408  0.50177982  0.70012044  1
  Nb  Nb119  1  0.90495089  0.49392750  0.89025988  1
  Nb  Nb120  1  0.50011286  0.49910480  0.09540226  1
  Nb  Nb121  1  0.09607592  0.29700550  0.09500051  1
  Nb  Nb122  1  0.49341181  0.10020905  0.89959522  1
  Nb  Nb123  1  0.50281149  0.89272120  0.29275503  1
  Nb  Nb124  1  0.30428019  0.89580459  0.29639760  1
  Nb  Nb125  1  0.40131373  0.60396757  0.80264728  1
  Nb  Nb126  1  0.19702310  0.20311681  0.00184645  1
  Nb  Nb127  1  0.00514834  0.19859358  0.19576216  1
  Nb  Nb128  1  0.39482762  0.39273051  0.59949581  1
  Nb  Nb129  1  -0.00162808  0.80090438  0.60117923  1
  Nb  Nb130  1  0.80302650  0.79842621  0.80432270  1
  Nb  Nb131  1  0.40135062  -0.00914077  0.20118410  1
  Nb  Nb132  1  0.00106982  0.00057332  0.00370679  1
  Nb  Nb133  1  0.79945859  0.59959842  0.60120930  1
  Nb  Nb134  1  0.40405618  0.59896333  -0.00302994  1
  Nb  Nb135  1  0.79794306  0.00338106  0.39935975  1
  Nb  Nb136  1  0.80286172  0.79511692  0.20483029  1
  Nb  Nb137  1  0.79797512  0.20547498  0.00114243  1
  Nb  Nb138  1  0.59371617  0.00094880  0.80370338  1
  Nb  Nb139  1  0.39544316  0.20270309  0.80018019  1
  Nb  Nb140  1  -0.00668027  0.79979814  0.80039678  1
  Nb  Nb141  1  0.19407748  -0.00567413  0.59454565  1
  Nb  Nb142  1  0.80240301  0.60066059  0.80019301  1
  Nb  Nb143  1  0.00349785  0.00342030  0.19897090  1
  Nb  Nb144  1  0.60563170  0.59969803  0.60042066  1
  Nb  Nb145  1  0.79852071  0.20019481  0.80627206  1
  Nb  Nb146  1  0.40693999  0.79908179  0.38975375  1
  Nb  Nb147  1  0.00020537  0.40556981  0.60114394  1
  Nb  Nb148  1  0.39263335  0.20806568  0.60355829  1
  Nb  Nb149  1  0.19436561  0.39239054  -0.00122393  1
  Pd  Pd150  1  0.59870338  0.19619033  0.80615152  1
  Pd  Pd151  1  0.60010629  0.39876763  0.80442051  1
  Pd  Pd152  1  0.80139880  0.00754642  -0.00574337  1
  Pd  Pd153  1  0.20656404  0.18553086  0.59710175  1
  Pd  Pd154  1  0.20403227  0.39683255  0.18960876  1
  Pd  Pd155  1  0.60619002  0.00645318  0.39221673  1
  Pd  Pd156  1  0.78915080  0.59216483  0.40909819  1
  Pd  Pd157  1  0.39710925  0.19932170  0.40116672  1
  Pd  Pd158  1  0.60311099  0.20997996  -0.00771050  1
  Pd  Pd159  1  0.60578246  0.19541113  0.39261418  1
  Pd  Pd160  1  0.80601086  0.58950020  -0.00592532  1
  Pd  Pd161  1  0.39857991  0.59792633  0.19886924  1
  Pd  Pd162  1  -0.00383928  0.80070225  0.20558509  1
  Pd  Pd163  1  0.20514645  -0.00566419  0.40247698  1
  Pd  Pd164  1  0.20794726  0.79526050  0.40255714  1
  Pd  Pd165  1  0.81096014  0.19187350  0.61179557  1
  Pd  Pd166  1  0.60991159  0.59549664  0.40732678  1
  Pd  Pd167  1  0.40000672  0.40225063  0.39876882  1
  Pd  Pd168  1  -0.00380049  0.59033220  0.00214633  1
  Pd  Pd169  1  0.40042956  0.39880462  0.79299369  1
  Pd  Pd170  1  0.40002634  0.19398660  0.20602734  1
  Pd  Pd171  1  0.61600150  0.79462550  0.18700484  1
  Pd  Pd172  1  0.00496282  0.80644500  -0.00826358  1
  Pd  Pd173  1  -0.00115100  0.60396078  0.20667286  1
  Pd  Pd174  1  0.60315549  0.81597654  0.80044754  1
  Pd  Pd175  1  0.39151452  0.00452108  0.60094517  1
  Pd  Pd176  1  0.39862826  -0.00329671  0.38875147  1
  Pd  Pd177  1  0.39275103  0.80043449  0.19573851  1
  Pd  Pd178  1  0.20809734  0.58673136  -0.00539511  1
  Pd  Pd179  1  0.59353268  0.80015761  0.59205047  1
  Pd  Pd180  1  0.00063863  -0.00807471  0.59865741  1
  Pd  Pd181  1  0.39666429  0.60514171  0.38649617  1
  Pd  Pd182  1  -0.00339337  0.60211342  0.59223489  1
  Pd  Pd183  1  0.59038223  -0.00290048  -0.00249210  1
  Pd  Pd184  1  0.40662007  0.80708661  0.58855361  1
  Pd  Pd185  1  0.19210782  0.80327909  0.60269156  1
  Pd  Pd186  1  0.00576518  0.39620040  0.78842032  1
  Pd  Pd187  1  0.20180865  -0.00886318  0.20448876  1
  Pd  Pd188  1  0.39653474  0.40705233  0.20231857  1
  Pd  Pd189  1  0.40651717  0.00293687  0.79190241  1
  Pd  Pd190  1  0.21136901  0.59712974  0.80702863  1
  Pd  Pd191  1  0.59401312  0.00109181  0.60402196  1
  Pd  Pd192  1  0.19582480  0.40562134  0.59983230  1
  Pd  Pd193  1  0.79981289  0.60431884  0.19931370  1
  Pd  Pd194  1  -0.00857679  0.20790721  0.60974021  1
  Pd  Pd195  1  0.80794425  0.21571598  0.19467889  1
  Pd  Pd196  1  0.60643357  0.80280814  0.00961566  1
  Pd  Pd197  1  0.19304145  0.39354449  0.40914622  1
  Pd  Pd198  1  0.01097651  0.39456975  0.40993648  1
  Pd  Pd199  1  0.79580095  0.80034891  0.00273071  1
  Rh  Rh200  1  0.20290094  0.60495308  0.39495380  1
  Rh  Rh201  1  0.19458033  0.59771639  0.20303999  1
  Rh  Rh202  1  -0.00275420  0.19188862  0.01018899  1
  Rh  Rh203  1  0.20369333  0.20563690  0.40247233  1
  Rh  Rh204  1  0.81282456  -0.01833922  0.21620547  1
  Rh  Rh205  1  0.79812396  0.40137418  0.80661841  1
  Rh  Rh206  1  0.20138750  0.21004356  0.19339178  1
  Rh  Rh207  1  0.40468357  -0.00767806  0.01056193  1
  Rh  Rh208  1  0.79336562  0.19616896  0.39765947  1
  Rh  Rh209  1  0.79905396  0.40117985  -0.00230268  1
  Rh  Rh210  1  0.40721562  0.79550597  0.80383127  1
  Rh  Rh211  1  0.01014546  -0.01066013  0.80975287  1
  Rh  Rh212  1  -0.00000397  0.39729279  0.19997838  1
  Rh  Rh213  1  0.59952441  0.40050762  0.20185512  1
  Rh  Rh214  1  0.59651482  0.80048429  0.40322503  1
  Rh  Rh215  1  0.79817038  0.40139796  0.39670160  1
  Rh  Rh216  1  0.59522035  0.20602692  0.20045836  1
  Rh  Rh217  1  0.60194930  0.59520616  0.79627165  1
  Rh  Rh218  1  0.80861818  0.79532301  0.60476946  1
  Rh  Rh219  1  0.60224690  0.39648864  0.00191609  1
  Rh  Rh220  1  0.40325307  0.79331225  0.00396229  1
  Rh  Rh221  1  0.00275566  0.79473618  0.41056412  1
  Rh  Rh222  1  0.39920799  0.58936049  0.61138706  1
  Rh  Rh223  1  0.19670185  0.00100117  0.79493370  1
  Rh  Rh224  1  0.80800021  0.00644055  0.58968120  1
  Rh  Rh225  1  0.39094216  0.20547599  -0.00761822  1
  Rh  Rh226  1  0.59485057  0.60200014  0.00210377  1
  Rh  Rh227  1  0.19315606  0.00533726  -0.00380036  1
  Rh  Rh228  1  -0.00606629  0.60428841  0.81069563  1
  Rh  Rh229  1  0.00812665  0.20951628  0.39266713  1
  Rh  Rh230  1  0.00320647  0.60819733  0.39641377  1
  Rh  Rh231  1  0.59149249  0.19825659  0.59445640  1
  Rh  Rh232  1  0.58606815  0.00680325  0.19498155  1
  Rh  Rh233  1  0.19309984  0.79430769  0.79751435  1
  Rh  Rh234  1  0.79264197  0.81113452  0.39152683  1
  Rh  Rh235  1  0.80041082  0.40093845  0.20153961  1
  Rh  Rh236  1  0.19673001  0.79657639  -0.00049971  1
  Rh  Rh237  1  0.20009687  0.80131661  0.19945871  1
  Rh  Rh238  1  0.00590523  0.40970910  0.00088142  1
  Rh  Rh239  1  -0.00455680  -0.00207607  0.39831448  1
  Rh  Rh240  1  0.19017156  0.40168688  0.80633231  1
  Rh  Rh241  1  0.78359383  0.00025307  0.81008514  1
  Rh  Rh242  1  0.20471201  0.60057968  0.60409129  1
  Rh  Rh243  1  0.60248225  0.59959411  0.19506049  1
  Rh  Rh244  1  -0.01262208  0.20727219  0.78919310  1
  Rh  Rh245  1  0.81648898  0.41132608  0.58754923  1
  Rh  Rh246  1  0.58814122  0.40250117  0.59661411  1
  Rh  Rh247  1  0.20581821  0.19346784  0.80683932  1
  Rh  Rh248  1  0.38832523  0.40525638  0.00723446  1
  Rh  Rh249  1  0.59929841  0.40194216  0.39070845  1
