# generated using pymatgen
data_ZrScNbPdRh
_symmetry_space_group_name_H-M   'P 1'
_cell_length_a   16.55505543
_cell_length_b   16.55463141
_cell_length_c   16.55409730
_cell_angle_alpha   90.01948011
_cell_angle_beta   89.98177510
_cell_angle_gamma   89.99763999
_symmetry_Int_Tables_number   1
_chemical_formula_structural   ZrScNbPdRh
_chemical_formula_sum   'Zr50 Sc50 Nb50 Pd50 Rh50'
_cell_volume   4536.86243460
_cell_formula_units_Z   50
loop_
 _symmetry_equiv_pos_site_id
 _symmetry_equiv_pos_as_xyz
  1  'x, y, z'
loop_
 _atom_site_type_symbol
 _atom_site_label
 _atom_site_symmetry_multiplicity
 _atom_site_fract_x
 _atom_site_fract_y
 _atom_site_fract_z
 _atom_site_occupancy
  Zr  Zr0  1  0.50232468  0.29934462  0.30027206  1
  Zr  Zr1  1  0.70151223  0.89866649  0.29967818  1
  Zr  Zr2  1  0.69954959  0.10025141  0.90253313  1
  Zr  Zr3  1  0.70200132  0.09504818  0.30725372  1
  Zr  Zr4  1  0.70185994  0.69982833  0.50809239  1
  Zr  Zr5  1  0.49620184  0.50663363  0.09478549  1
  Zr  Zr6  1  0.70784722  0.30340657  0.90261360  1
  Zr  Zr7  1  0.50461523  0.10215513  0.09932548  1
  Zr  Zr8  1  0.09880392  0.89481255  0.29174068  1
  Zr  Zr9  1  0.50446780  0.70253624  0.09554428  1
  Zr  Zr10  1  0.29263035  0.48976547  0.48999183  1
  Zr  Zr11  1  0.89780568  0.30118368  0.09983355  1
  Zr  Zr12  1  0.50048561  0.70305693  0.49339479  1
  Zr  Zr13  1  0.09961114  0.89768298  0.90655286  1
  Zr  Zr14  1  0.10638552  0.89704741  0.50151569  1
  Zr  Zr15  1  0.49961702  0.69669021  0.90374966  1
  Zr  Zr16  1  0.69899713  0.10248633  0.09271445  1
  Zr  Zr17  1  0.29336930  0.70137418  0.69101844  1
  Zr  Zr18  1  0.29714379  0.09658935  0.70271857  1
  Zr  Zr19  1  0.30321596  0.89936745  0.30022474  1
  Zr  Zr20  1  0.89665006  0.68855622  0.49852817  1
  Zr  Zr21  1  0.09668706  0.10881532  0.29366183  1
  Zr  Zr22  1  0.30186576  0.69068137  0.09961304  1
  Zr  Zr23  1  0.09440553  0.49937722  0.90044162  1
  Zr  Zr24  1  0.70070594  0.89112063  0.70133309  1
  Zr  Zr25  1  0.50435180  0.10522353  0.89804253  1
  Zr  Zr26  1  0.90545787  0.50042167  0.50187078  1
  Zr  Zr27  1  0.69786377  0.30056990  0.29847937  1
  Zr  Zr28  1  0.90730493  0.50326176  0.30595946  1
  Zr  Zr29  1  0.70353906  0.71193546  0.30889848  1
  Zr  Zr30  1  0.30370329  0.69493212  0.30088216  1
  Zr  Zr31  1  0.09913529  0.50917038  0.10239745  1
  Zr  Zr32  1  0.29647234  0.49591750  0.90061474  1
  Zr  Zr33  1  0.70103201  0.10298437  0.50413883  1
  Zr  Zr34  1  0.30022402  0.69910835  0.49480503  1
  Zr  Zr35  1  0.30689230  0.30596498  0.30814516  1
  Zr  Zr36  1  0.08938130  0.30276133  0.29934384  1
  Zr  Zr37  1  0.10674628  0.09549221  0.89024109  1
  Zr  Zr38  1  0.89515707  0.90203061  0.30235971  1
  Zr  Zr39  1  0.89600071  0.50244415  0.90396525  1
  Zr  Zr40  1  0.09606826  0.29422076  0.10801661  1
  Zr  Zr41  1  0.50136139  0.90261505  0.69853775  1
  Zr  Zr42  1  0.69756561  0.50374695  0.70237073  1
  Zr  Zr43  1  0.10509939  0.70997375  0.09325381  1
  Zr  Zr44  1  0.10138779  0.29961971  0.89327140  1
  Zr  Zr45  1  0.09257877  0.49905992  0.49562668  1
  Zr  Zr46  1  0.09951832  0.90708456  0.70145672  1
  Zr  Zr47  1  0.89706637  0.70446476  0.70298095  1
  Zr  Zr48  1  0.30005811  0.70273334  0.90375264  1
  Zr  Zr49  1  0.49671117  0.09692176  0.69892522  1
  Sc  Sc50  1  0.69632424  0.90490313  0.49908215  1
  Sc  Sc51  1  0.70366701  0.49129554  0.30819244  1
  Sc  Sc52  1  0.70179690  0.50244628  0.89776149  1
  Sc  Sc53  1  0.30175681  0.90384965  0.89565597  1
  Sc  Sc54  1  0.09873183  0.69113327  0.28536041  1
  Sc  Sc55  1  0.50981403  0.50396696  0.89536968  1
  Sc  Sc56  1  0.69683831  0.30388531  0.50180990  1
  Sc  Sc57  1  0.30722855  0.09275093  0.30610736  1
  Sc  Sc58  1  0.50180068  0.90184194  0.31282596  1
  Sc  Sc59  1  0.29916605  0.08742935  0.50170590  1
  Sc  Sc60  1  0.69980852  0.50268345  0.09031460  1
  Sc  Sc61  1  0.50410499  0.89887603  0.89817818  1
  Sc  Sc62  1  0.69928533  0.30260182  0.69161630  1
  Sc  Sc63  1  0.50262792  0.89928349  0.10179113  1
  Sc  Sc64  1  0.90250982  0.09878411  0.30667531  1
  Sc  Sc65  1  0.90112323  0.31008034  0.89859472  1
  Sc  Sc66  1  0.30392647  0.10274037  0.89326439  1
  Sc  Sc67  1  0.10754984  0.69124689  0.50882715  1
  Sc  Sc68  1  0.30169399  0.48379913  0.69621134  1
  Sc  Sc69  1  0.30278611  0.29762155  0.10321103  1
  Sc  Sc70  1  0.29809905  0.30062089  0.88654484  1
  Sc  Sc71  1  0.89354212  0.90314510  0.70553402  1
  Sc  Sc72  1  0.29703815  0.89812569  0.49588050  1
  Sc  Sc73  1  0.89684805  0.29726775  0.50409769  1
  Sc  Sc74  1  0.90398353  0.70142184  0.89808573  1
  Sc  Sc75  1  0.49255753  0.48953068  0.29601766  1
  Sc  Sc76  1  0.09313576  0.31334270  0.50368842  1
  Sc  Sc77  1  0.69677498  0.10042911  0.69650478  1
  Sc  Sc78  1  0.50723262  0.49610636  0.70246744  1
  Sc  Sc79  1  0.70281626  0.90228919  0.90370763  1
  Sc  Sc80  1  0.51460338  0.70151992  0.70221776  1
  Sc  Sc81  1  0.49957029  0.30550696  0.70209668  1
  Sc  Sc82  1  0.70074753  0.70232257  0.90635481  1
  Sc  Sc83  1  0.90693467  0.90181265  0.10358472  1
  Sc  Sc84  1  0.90260066  0.50170897  0.09912744  1
  Sc  Sc85  1  0.70037280  0.30355477  0.09768697  1
  Sc  Sc86  1  0.09303598  0.09062543  0.50459812  1
  Sc  Sc87  1  0.89575757  0.89686671  0.89395493  1
  Sc  Sc88  1  0.09525439  0.09232371  0.10058556  1
  Sc  Sc89  1  0.50109550  0.08775913  0.50220200  1
  Sc  Sc90  1  0.89500040  0.49981163  0.70303597  1
  Sc  Sc91  1  0.89875052  0.09658038  0.09945091  1
  Sc  Sc92  1  0.30300372  0.90732898  0.69720523  1
  Sc  Sc93  1  0.90683655  0.69638079  0.09717358  1
  Sc  Sc94  1  0.89096471  0.09263519  0.90311486  1
  Sc  Sc95  1  0.70422339  0.49732777  0.50529408  1
  Sc  Sc96  1  0.90356597  0.09766791  0.69326233  1
  Sc  Sc97  1  0.29602397  0.89213993  0.09665831  1
  Sc  Sc98  1  0.50725949  0.30319064  0.10569191  1
  Sc  Sc99  1  0.89622281  0.09694353  0.49997384  1
  Nb  Nb100  1  0.29534618  0.49916069  0.29176351  1
  Nb  Nb101  1  0.91348816  0.90442208  0.50370032  1
  Nb  Nb102  1  0.50001612  0.89854648  0.50542194  1
  Nb  Nb103  1  0.10362540  0.89747776  0.10372299  1
  Nb  Nb104  1  0.09292098  0.50032260  0.68918430  1
  Nb  Nb105  1  0.30303657  0.49990896  0.10142140  1
  Nb  Nb106  1  0.49355883  0.30573736  0.49144055  1
  Nb  Nb107  1  0.69400425  0.71150638  0.10859495  1
  Nb  Nb108  1  0.90193355  0.29490216  0.70166097  1
  Nb  Nb109  1  0.29347123  0.29946671  0.69226706  1
  Nb  Nb110  1  0.69379210  0.89217272  0.10325985  1
  Nb  Nb111  1  0.09713538  0.70150601  0.89229798  1
  Nb  Nb112  1  0.49255094  0.30195900  0.89978173  1
  Nb  Nb113  1  0.09482341  0.29444604  0.70205309  1
  Nb  Nb114  1  0.29662498  0.30317277  0.50131885  1
  Nb  Nb115  1  0.10422160  0.10559103  0.70147840  1
  Nb  Nb116  1  0.30493876  0.09696302  0.10484925  1
  Nb  Nb117  1  0.09694932  0.70000749  0.69916204  1
  Nb  Nb118  1  0.50312001  0.70523855  0.30298199  1
  Nb  Nb119  1  0.50077692  0.09497562  0.29783475  1
  Nb  Nb120  1  0.50426522  0.49483860  0.49868131  1
  Nb  Nb121  1  0.70419059  0.69973308  0.69630846  1
  Nb  Nb122  1  0.90109247  0.30032189  0.29191518  1
  Nb  Nb123  1  0.09877356  0.49673803  0.30038690  1
  Nb  Nb124  1  0.89555941  0.69552382  0.30857220  1
  Nb  Nb125  1  0.40362315  0.79537525  0.20411814  1
  Nb  Nb126  1  0.00035393  0.79980092  0.59941690  1
  Nb  Nb127  1  0.40527445  0.19354036  0.20376655  1
  Nb  Nb128  1  0.39297126  0.20826543  0.59412738  1
  Nb  Nb129  1  0.19882768  0.19593883  0.00278346  1
  Nb  Nb130  1  0.40090466  0.39944825  -0.00247465  1
  Nb  Nb131  1  0.40181024  0.00742381  0.00392029  1
  Nb  Nb132  1  0.20124809  0.20492397  0.40775553  1
  Nb  Nb133  1  0.60352662  -0.00050075  0.20105684  1
  Nb  Nb134  1  0.19836750  0.20463115  0.60035303  1
  Nb  Nb135  1  -0.00293696  0.79469144  0.40302042  1
  Nb  Nb136  1  0.20148672  0.40622953  0.20186438  1
  Nb  Nb137  1  0.00529515  0.19921879  -0.00462347  1
  Nb  Nb138  1  0.59733004  0.60021041  0.39678153  1
  Nb  Nb139  1  0.19330121  0.79498276  0.79835331  1
  Nb  Nb140  1  0.40230571  0.59769109  0.59731103  1
  Nb  Nb141  1  0.19474682  0.60123023  0.79483170  1
  Nb  Nb142  1  0.20125448  -0.00138356  0.19686649  1
  Nb  Nb143  1  0.79510194  0.60770200  0.20584952  1
  Nb  Nb144  1  0.59240321  0.19854829  0.39921865  1
  Nb  Nb145  1  0.60429427  0.60770224  0.20626900  1
  Nb  Nb146  1  0.40368953  0.79559571  0.59609290  1
  Nb  Nb147  1  0.79881550  0.20199997  0.20409593  1
  Nb  Nb148  1  0.80186689  0.20368846  0.79669674  1
  Nb  Nb149  1  0.39355136  0.60155730  0.79347383  1
  Pd  Pd150  1  0.79544816  0.60619465  0.80273581  1
  Pd  Pd151  1  0.40982445  0.60351065  0.20501650  1
  Pd  Pd152  1  -0.00041090  0.59630245  0.79581540  1
  Pd  Pd153  1  0.00496381  -0.00331983  0.39446117  1
  Pd  Pd154  1  0.59956531  0.21271971  -0.00274517  1
  Pd  Pd155  1  -0.00222411  0.40481942  0.79279172  1
  Pd  Pd156  1  0.79666271  0.20537536  0.39796052  1
  Pd  Pd157  1  -0.00585912  0.00237486  0.79952391  1
  Pd  Pd158  1  0.79975945  -0.01164380  0.00684250  1
  Pd  Pd159  1  0.79648902  0.60780113  0.00741053  1
  Pd  Pd160  1  0.00161945  0.39634180  0.00402427  1
  Pd  Pd161  1  0.19519531  0.60208308  -0.00610628  1
  Pd  Pd162  1  0.20563013  0.39014493  0.00894194  1
  Pd  Pd163  1  -0.00544514  0.80180922  -0.00232395  1
  Pd  Pd164  1  0.20652181  0.58474432  0.60307960  1
  Pd  Pd165  1  -0.00250023  0.00093835  -0.00244096  1
  Pd  Pd166  1  0.19270842  0.00802144  0.39155197  1
  Pd  Pd167  1  0.60311116  0.39417130  0.80255053  1
  Pd  Pd168  1  -0.00879747  0.79265444  0.20520418  1
  Pd  Pd169  1  0.81220697  0.79515682  0.19344010  1
  Pd  Pd170  1  0.39491578  0.79520106  0.78980205  1
  Pd  Pd171  1  0.79885681  -0.00243273  0.60039770  1
  Pd  Pd172  1  0.40219401  0.81079725  0.00429393  1
  Pd  Pd173  1  0.59523663  0.59656276  0.59578607  1
  Pd  Pd174  1  0.80563026  0.80132879  0.00444036  1
  Pd  Pd175  1  0.80818687  0.80785374  0.59497196  1
  Pd  Pd176  1  -0.01215027  0.19269882  0.80829754  1
  Pd  Pd177  1  0.39449902  0.20336081  0.00447304  1
  Pd  Pd178  1  0.80691368  0.80962053  0.41481890  1
  Pd  Pd179  1  0.00325754  0.20477713  0.41061305  1
  Pd  Pd180  1  0.80390248  0.40011490  0.60357494  1
  Pd  Pd181  1  0.39904546  0.20496061  0.78911850  1
  Pd  Pd182  1  0.60614741  0.41441131  0.19718337  1
  Pd  Pd183  1  0.60775397  0.20941304  0.79795467  1
  Pd  Pd184  1  0.60662633  0.79635010  0.80648309  1
  Pd  Pd185  1  0.40635529  0.58814371  0.40026301  1
  Pd  Pd186  1  0.40708968  0.40129019  0.59842031  1
  Pd  Pd187  1  0.19082492  0.40605307  0.78887744  1
  Pd  Pd188  1  0.18892672  0.78883890  0.39137903  1
  Pd  Pd189  1  0.60482986  -0.00160461  0.79857531  1
  Pd  Pd190  1  0.58596545  0.20571151  0.59117848  1
  Pd  Pd191  1  0.79769974  0.40617915  0.19574807  1
  Pd  Pd192  1  0.20796502  0.00457876  0.00494521  1
  Pd  Pd193  1  0.19264542  0.60129634  0.39338772  1
  Pd  Pd194  1  0.39988962  0.19009493  0.40496658  1
  Pd  Pd195  1  0.79568975  0.00575519  0.19403788  1
  Pd  Pd196  1  0.59484370  0.39813992  -0.00508550  1
  Pd  Pd197  1  0.00326380  0.19862864  0.59312854  1
  Pd  Pd198  1  0.21233082  0.19832611  0.20524074  1
  Pd  Pd199  1  0.80645388  0.39503541  0.40372228  1
  Rh  Rh200  1  0.40128078  -0.00401723  0.19462905  1
  Rh  Rh201  1  0.78751493  0.59322678  0.39631157  1
  Rh  Rh202  1  0.40001902  0.40786424  0.40006296  1
  Rh  Rh203  1  0.59875895  0.39936204  0.40403914  1
  Rh  Rh204  1  0.40666066  0.00178717  0.81052723  1
  Rh  Rh205  1  0.20308732  0.20156413  0.79696385  1
  Rh  Rh206  1  0.19935034  0.81065029  0.60771699  1
  Rh  Rh207  1  0.40461378  0.40603890  0.80661435  1
  Rh  Rh208  1  0.80362092  -0.00491051  0.41020529  1
  Rh  Rh209  1  -0.01612861  0.19204012  0.19308678  1
  Rh  Rh210  1  -0.00545190  0.39847395  0.60739141  1
  Rh  Rh211  1  0.00305038  0.80608853  0.79371641  1
  Rh  Rh212  1  0.00521717  0.00097681  0.20317157  1
  Rh  Rh213  1  0.00278863  0.40920731  0.19838959  1
  Rh  Rh214  1  0.00395548  0.60386934  -0.00323994  1
  Rh  Rh215  1  0.60331527  -0.00344910  0.60334393  1
  Rh  Rh216  1  0.19350785  0.39562676  0.39062340  1
  Rh  Rh217  1  0.80195979  0.59445474  0.60590182  1
  Rh  Rh218  1  0.79390193  0.00945892  0.79763818  1
  Rh  Rh219  1  0.18729733  0.39750842  0.60388696  1
  Rh  Rh220  1  0.59811512  0.80349538  0.59833703  1
  Rh  Rh221  1  0.39984517  0.80756356  0.40139491  1
  Rh  Rh222  1  0.39988114  0.58859318  -0.01272682  1
  Rh  Rh223  1  0.59711715  -0.00828735  0.00666929  1
  Rh  Rh224  1  0.20063819  0.80037742  -0.00632657  1
  Rh  Rh225  1  0.39880620  -0.00466932  0.59556044  1
  Rh  Rh226  1  0.19847104  0.00570199  0.60145436  1
  Rh  Rh227  1  0.80268744  0.20133819  0.60738929  1
  Rh  Rh228  1  0.21032166  0.80110602  0.20125701  1
  Rh  Rh229  1  0.79965023  0.39440262  0.79431049  1
  Rh  Rh230  1  0.39406612  0.39366922  0.19037320  1
  Rh  Rh231  1  0.60470887  0.18955268  0.20875198  1
  Rh  Rh232  1  0.81048472  0.20545304  -0.00213538  1
  Rh  Rh233  1  0.60759892  0.60505382  0.00431019  1
  Rh  Rh234  1  0.01073420  0.60735887  0.39817614  1
  Rh  Rh235  1  -0.00898689  0.59989279  0.20144119  1
  Rh  Rh236  1  0.60275242  0.60664172  0.80044829  1
  Rh  Rh237  1  -0.00831679  0.39487468  0.39921810  1
  Rh  Rh238  1  0.00190071  -0.00172981  0.60605214  1
  Rh  Rh239  1  0.20213474  -0.00767057  0.79951499  1
  Rh  Rh240  1  0.79447403  0.79594331  0.80382873  1
  Rh  Rh241  1  0.59651866  0.39821343  0.59653558  1
  Rh  Rh242  1  -0.00677793  0.60457453  0.60538054  1
  Rh  Rh243  1  0.60315415  0.80160474  0.40817467  1
  Rh  Rh244  1  0.59859225  0.00271363  0.40014867  1
  Rh  Rh245  1  0.60117724  0.80389730  -0.00523328  1
  Rh  Rh246  1  0.80072616  0.40633684  0.00159198  1
  Rh  Rh247  1  0.20041680  0.59491141  0.19877335  1
  Rh  Rh248  1  0.59088680  0.80594377  0.20531162  1
  Rh  Rh249  1  0.40418344  -0.00415826  0.40750146  1
