# generated using pymatgen
data_ZrScNbPdRh
_symmetry_space_group_name_H-M   'P 1'
_cell_length_a   16.55786465
_cell_length_b   16.56216066
_cell_length_c   16.55905114
_cell_angle_alpha   89.98080794
_cell_angle_beta   90.00009596
_cell_angle_gamma   90.00519846
_symmetry_Int_Tables_number   1
_chemical_formula_structural   ZrScNbPdRh
_chemical_formula_sum   'Zr50 Sc50 Nb50 Pd50 Rh50'
_cell_volume   4541.05479944
_cell_formula_units_Z   50
loop_
 _symmetry_equiv_pos_site_id
 _symmetry_equiv_pos_as_xyz
  1  'x, y, z'
loop_
 _atom_site_type_symbol
 _atom_site_label
 _atom_site_symmetry_multiplicity
 _atom_site_fract_x
 _atom_site_fract_y
 _atom_site_fract_z
 _atom_site_occupancy
  Zr  Zr0  1  0.90002105  0.90018659  0.70221059  1
  Zr  Zr1  1  0.70643893  0.10226517  0.90245593  1
  Zr  Zr2  1  0.50399604  0.70430409  0.09499947  1
  Zr  Zr3  1  0.29454783  0.90089890  0.69674941  1
  Zr  Zr4  1  0.10194841  0.47429191  0.09764620  1
  Zr  Zr5  1  0.70395320  0.51561141  0.09986888  1
  Zr  Zr6  1  0.50023953  0.49217375  0.90127950  1
  Zr  Zr7  1  0.90100250  0.09912824  0.70443432  1
  Zr  Zr8  1  0.90104052  0.50032824  0.09835673  1
  Zr  Zr9  1  0.89592963  0.70214667  0.69922579  1
  Zr  Zr10  1  0.10321886  0.70140341  0.50130922  1
  Zr  Zr11  1  0.09453175  0.49982091  0.49762979  1
  Zr  Zr12  1  0.49061426  0.10449050  0.89989263  1
  Zr  Zr13  1  0.90719110  0.69954038  0.29725296  1
  Zr  Zr14  1  0.69139268  0.69900394  0.50607115  1
  Zr  Zr15  1  0.49288025  0.10807510  0.51139500  1
  Zr  Zr16  1  0.89317626  0.30707787  0.49730513  1
  Zr  Zr17  1  0.50522702  0.90182778  0.10812762  1
  Zr  Zr18  1  0.29769340  0.30607639  0.69207960  1
  Zr  Zr19  1  0.50772977  0.89626416  0.30153908  1
  Zr  Zr20  1  0.90216013  0.29851972  0.70588707  1
  Zr  Zr21  1  0.70626710  0.11093980  0.69733444  1
  Zr  Zr22  1  0.30015067  0.10303449  0.30406119  1
  Zr  Zr23  1  0.50886992  0.70667590  0.69482631  1
  Zr  Zr24  1  0.49366213  0.08951874  0.29869755  1
  Zr  Zr25  1  0.31169443  0.91180007  0.30588392  1
  Zr  Zr26  1  0.30536549  0.09409043  0.69439654  1
  Zr  Zr27  1  0.29516582  0.09755655  0.89958105  1
  Zr  Zr28  1  0.69710955  0.50297629  0.90091688  1
  Zr  Zr29  1  0.29860557  0.50258522  0.50479297  1
  Zr  Zr30  1  0.09297949  0.49557180  0.70166169  1
  Zr  Zr31  1  0.29668803  0.69992003  0.29378183  1
  Zr  Zr32  1  0.09682490  0.50033607  0.89499004  1
  Zr  Zr33  1  0.09390731  0.70369454  0.30460039  1
  Zr  Zr34  1  0.50590556  0.31208971  0.29675934  1
  Zr  Zr35  1  0.70113859  0.48951095  0.50503901  1
  Zr  Zr36  1  0.69877738  0.90295731  0.29490934  1
  Zr  Zr37  1  0.30342698  0.10194138  0.08815482  1
  Zr  Zr38  1  0.50115928  0.09761605  0.10193088  1
  Zr  Zr39  1  0.50406097  0.50945379  0.48660073  1
  Zr  Zr40  1  0.89013355  0.69505263  0.10191005  1
  Zr  Zr41  1  0.50107238  0.90504408  0.70098942  1
  Zr  Zr42  1  0.70992459  0.29775352  0.10184670  1
  Zr  Zr43  1  0.89864447  0.08571877  0.30401196  1
  Zr  Zr44  1  0.89628089  0.89897095  0.09879558  1
  Zr  Zr45  1  0.31616396  0.50414166  0.29474750  1
  Zr  Zr46  1  0.09482203  0.30143858  0.29641943  1
  Zr  Zr47  1  0.30734238  0.70017112  0.90657134  1
  Zr  Zr48  1  0.30196185  0.69920451  0.09994835  1
  Zr  Zr49  1  0.30836122  0.29261986  0.90201245  1
  Sc  Sc50  1  0.69809921  0.30139676  0.90771101  1
  Sc  Sc51  1  0.50039308  0.89293307  0.89370646  1
  Sc  Sc52  1  0.29950936  0.09634172  0.49432742  1
  Sc  Sc53  1  0.71030565  0.10302542  0.29510702  1
  Sc  Sc54  1  0.31066829  0.49655237  0.90307440  1
  Sc  Sc55  1  0.49694257  0.29928444  0.69238921  1
  Sc  Sc56  1  0.50295035  0.30799445  0.50498647  1
  Sc  Sc57  1  0.30885561  0.69806922  0.50866449  1
  Sc  Sc58  1  0.09390287  0.90432026  0.09615845  1
  Sc  Sc59  1  0.70475486  0.10563270  0.10113083  1
  Sc  Sc60  1  0.89478980  0.09600534  0.89791000  1
  Sc  Sc61  1  0.89670395  0.90262716  0.90444280  1
  Sc  Sc62  1  0.28742843  0.30854542  0.09020958  1
  Sc  Sc63  1  0.69762470  0.88745371  0.70589203  1
  Sc  Sc64  1  0.29892873  0.69657446  0.69798089  1
  Sc  Sc65  1  0.09390900  0.09106117  0.89837314  1
  Sc  Sc66  1  0.29733578  0.89733288  0.08923302  1
  Sc  Sc67  1  0.69641039  0.69664056  0.28886097  1
  Sc  Sc68  1  0.09642013  0.49733668  0.29986595  1
  Sc  Sc69  1  0.49792901  0.69523150  0.89590425  1
  Sc  Sc70  1  0.09612017  0.09466595  0.30539485  1
  Sc  Sc71  1  0.29411860  0.89785482  0.89966054  1
  Sc  Sc72  1  0.10211923  0.69732353  0.89150765  1
  Sc  Sc73  1  0.49800946  0.49901404  0.10755303  1
  Sc  Sc74  1  0.30164817  0.30156883  0.50072091  1
  Sc  Sc75  1  0.10097082  0.31176662  0.49694755  1
  Sc  Sc76  1  0.90652814  0.50198595  0.30232652  1
  Sc  Sc77  1  0.50237926  0.88834962  0.49896961  1
  Sc  Sc78  1  0.10435325  0.90942834  0.69737010  1
  Sc  Sc79  1  0.10933186  0.69319944  0.70046859  1
  Sc  Sc80  1  0.08732105  0.09838067  0.09427981  1
  Sc  Sc81  1  0.90346291  0.50244759  0.89700075  1
  Sc  Sc82  1  0.89800291  0.29569137  0.29690299  1
  Sc  Sc83  1  0.50535557  0.69249843  0.31173453  1
  Sc  Sc84  1  0.70597716  0.89347043  0.89898731  1
  Sc  Sc85  1  0.70061099  0.30349173  0.29998046  1
  Sc  Sc86  1  0.89770124  0.70391497  0.90408390  1
  Sc  Sc87  1  0.90894394  0.70888167  0.49934653  1
  Sc  Sc88  1  0.30258058  0.90369060  0.50503007  1
  Sc  Sc89  1  0.09961572  0.90472885  0.90166275  1
  Sc  Sc90  1  0.09843265  0.90302746  0.50615303  1
  Sc  Sc91  1  0.08584081  0.90193957  0.29520640  1
  Sc  Sc92  1  0.51118285  0.30065002  0.09915309  1
  Sc  Sc93  1  0.10028440  0.71113793  0.11314852  1
  Sc  Sc94  1  0.69193892  0.50136675  0.29949970  1
  Sc  Sc95  1  0.70249016  0.90035884  0.50011247  1
  Sc  Sc96  1  0.50369239  0.49729270  0.70372090  1
  Sc  Sc97  1  0.29873656  0.30134511  0.30821418  1
  Sc  Sc98  1  0.90502732  0.90767103  0.50179715  1
  Sc  Sc99  1  0.89642330  0.10230827  0.09642543  1
  Nb  Nb100  1  0.09928545  0.09883742  0.70084635  1
  Nb  Nb101  1  0.69703254  0.29321472  0.50785997  1
  Nb  Nb102  1  0.49999943  0.30044483  0.89610445  1
  Nb  Nb103  1  0.70128746  0.69773800  0.70280142  1
  Nb  Nb104  1  0.50744809  0.49809194  0.30061791  1
  Nb  Nb105  1  0.90130995  0.49842494  0.70091930  1
  Nb  Nb106  1  0.09562697  0.30005484  0.70365644  1
  Nb  Nb107  1  0.69337182  0.89338307  0.10086824  1
  Nb  Nb108  1  0.70636154  0.10491112  0.50284999  1
  Nb  Nb109  1  0.09301761  0.09595827  0.50561585  1
  Nb  Nb110  1  0.70378486  0.49973191  0.69922944  1
  Nb  Nb111  1  0.89373432  0.09936199  0.50375586  1
  Nb  Nb112  1  0.50543694  0.70029311  0.49896554  1
  Nb  Nb113  1  0.09953014  0.30664786  0.90704489  1
  Nb  Nb114  1  0.28789115  0.49845424  0.69280842  1
  Nb  Nb115  1  0.89820062  0.29836034  0.90062776  1
  Nb  Nb116  1  0.89769477  0.89926254  0.30248412  1
  Nb  Nb117  1  0.69716424  0.30142918  0.69173219  1
  Nb  Nb118  1  0.91195893  0.30213001  0.09689950  1
  Nb  Nb119  1  0.29863409  0.50684977  0.09931217  1
  Nb  Nb120  1  0.08937317  0.29714993  0.09846842  1
  Nb  Nb121  1  0.69950131  0.70354074  0.09267150  1
  Nb  Nb122  1  0.70213518  0.69896744  0.90036835  1
  Nb  Nb123  1  0.50248202  0.09878625  0.70144198  1
  Nb  Nb124  1  0.90121099  0.49985150  0.50100692  1
  Nb  Nb125  1  0.60197136  0.00804171  0.60086490  1
  Nb  Nb126  1  0.60299017  -0.00210460  0.00123188  1
  Nb  Nb127  1  0.80236640  0.60257421  0.40632026  1
  Nb  Nb128  1  0.19826818  0.39467810  0.79968491  1
  Nb  Nb129  1  0.00793783  0.59867745  0.00453348  1
  Nb  Nb130  1  0.39463914  0.20124989  0.19778427  1
  Nb  Nb131  1  0.20308334  0.00780793  0.19827922  1
  Nb  Nb132  1  0.59548856  0.20243199  0.79802055  1
  Nb  Nb133  1  0.19347464  0.20343092  0.79661128  1
  Nb  Nb134  1  0.40231984  0.80096133  0.20129020  1
  Nb  Nb135  1  -0.00156014  0.80179304  0.79682347  1
  Nb  Nb136  1  -0.00427178  0.19347713  0.41096426  1
  Nb  Nb137  1  0.19685488  0.19838374  0.19579279  1
  Nb  Nb138  1  0.79697135  0.40186895  0.79479946  1
  Nb  Nb139  1  0.18874030  0.19715959  0.60358694  1
  Nb  Nb140  1  0.79428110  0.59796666  0.79307282  1
  Nb  Nb141  1  0.20301259  0.60358011  0.39748204  1
  Nb  Nb142  1  0.60448143  0.19717104  0.40717822  1
  Nb  Nb143  1  0.20086878  0.79928445  0.39840543  1
  Nb  Nb144  1  0.60435191  0.01116349  0.40826143  1
  Nb  Nb145  1  0.19862461  0.59481055  0.00731611  1
  Nb  Nb146  1  0.00126410  0.19850963  0.59890425  1
  Nb  Nb147  1  -0.00590452  0.59398392  0.60295726  1
  Nb  Nb148  1  0.80203428  0.79866390  0.39438842  1
  Nb  Nb149  1  0.80383589  0.40212649  0.19240465  1
  Pd  Pd150  1  -0.00066543  0.19066501  0.20804093  1
  Pd  Pd151  1  0.60541697  0.39019015  0.79574314  1
  Pd  Pd152  1  0.01042759  0.59335152  0.19050297  1
  Pd  Pd153  1  0.40764759  0.41027665  0.59655364  1
  Pd  Pd154  1  0.60747838  0.00621811  0.80233848  1
  Pd  Pd155  1  0.00959679  0.79631990  0.61033225  1
  Pd  Pd156  1  0.39461488  0.40186031  0.79271764  1
  Pd  Pd157  1  0.59619552  0.59204816  0.60331028  1
  Pd  Pd158  1  0.79813465  0.80416685  0.59224622  1
  Pd  Pd159  1  0.59633685  0.19658889  0.21082372  1
  Pd  Pd160  1  0.60164292  0.60307639  0.79996274  1
  Pd  Pd161  1  -0.00397297  0.19585786  -0.01207901  1
  Pd  Pd162  1  0.59778917  0.19503884  -0.00625091  1
  Pd  Pd163  1  0.18756165  0.20026561  0.40475801  1
  Pd  Pd164  1  0.41303776  0.60761730  0.19969402  1
  Pd  Pd165  1  0.79327431  -0.00712327  0.60551752  1
  Pd  Pd166  1  0.39999851  0.20285747  0.78973383  1
  Pd  Pd167  1  0.40415565  0.39621953  0.01028410  1
  Pd  Pd168  1  0.60088882  0.80405893  -0.01057497  1
  Pd  Pd169  1  0.39539133  -0.00635499  0.80407908  1
  Pd  Pd170  1  0.79862661  -0.00060248  0.19144868  1
  Pd  Pd171  1  0.79709928  0.40805009  0.38945317  1
  Pd  Pd172  1  0.20637950  0.81997716  0.20801373  1
  Pd  Pd173  1  0.20795675  0.39394864  0.20661249  1
  Pd  Pd174  1  0.59157976  0.59909186  -0.00099739  1
  Pd  Pd175  1  0.79966009  0.20036112  0.39680849  1
  Pd  Pd176  1  0.00478413  0.19800898  0.80667092  1
  Pd  Pd177  1  0.19397641  0.80265800  0.79861691  1
  Pd  Pd178  1  0.18675067  0.19536904  -0.00185212  1
  Pd  Pd179  1  0.41182286  0.20990922  0.39612971  1
  Pd  Pd180  1  0.39466287  0.79282229  0.39814955  1
  Pd  Pd181  1  0.80281880  0.39590596  0.60682249  1
  Pd  Pd182  1  0.40712822  -0.01217475  -0.00560213  1
  Pd  Pd183  1  0.19006216  0.59191019  0.19925227  1
  Pd  Pd184  1  0.80541018  0.60207539  0.59627279  1
  Pd  Pd185  1  0.00551272  0.79291348  -0.00519170  1
  Pd  Pd186  1  0.39652993  0.79865534  0.79573205  1
  Pd  Pd187  1  0.19057326  0.79238250  -0.00299022  1
  Pd  Pd188  1  0.20561901  0.41029252  0.39366449  1
  Pd  Pd189  1  0.39431156  0.39054125  0.19169722  1
  Pd  Pd190  1  0.80539623  0.39934807  -0.00318262  1
  Pd  Pd191  1  0.40150812  0.39922249  0.40461866  1
  Pd  Pd192  1  0.80000308  0.79860168  0.20291253  1
  Pd  Pd193  1  0.40831837  0.59572400  0.60724740  1
  Pd  Pd194  1  0.39688907  0.59623616  0.79200470  1
  Pd  Pd195  1  0.21348214  0.59152616  0.80837867  1
  Pd  Pd196  1  0.79288613  -0.00540891  0.79716224  1
  Pd  Pd197  1  0.60128084  0.40267319  0.00752626  1
  Pd  Pd198  1  0.40029999  0.80105394  0.60276146  1
  Pd  Pd199  1  0.19064284  -0.00927414  0.39773280  1
  Rh  Rh200  1  0.78987470  -0.00438985  0.00597333  1
  Rh  Rh201  1  -0.00205436  0.59980877  0.40939376  1
  Rh  Rh202  1  -0.00956857  0.80605035  0.19646744  1
  Rh  Rh203  1  0.60476770  0.39280324  0.40421880  1
  Rh  Rh204  1  -0.00868989  0.39804987  0.20604047  1
  Rh  Rh205  1  0.79515868  -0.00745257  0.40270830  1
  Rh  Rh206  1  0.78868684  0.21448104  0.80506203  1
  Rh  Rh207  1  0.20082982  0.00449226  0.80075784  1
  Rh  Rh208  1  -0.00200180  -0.00028992  0.40543201  1
  Rh  Rh209  1  0.61038258  0.60058232  0.40097971  1
  Rh  Rh210  1  -0.00413865  0.39388372  0.80826834  1
  Rh  Rh211  1  0.38697159  -0.00252528  0.18700869  1
  Rh  Rh212  1  0.40923589  0.21214806  0.01080006  1
  Rh  Rh213  1  0.59881931  0.19810881  0.60280302  1
  Rh  Rh214  1  0.81042931  0.20745102  0.19701571  1
  Rh  Rh215  1  0.60139768  0.79256298  0.80290621  1
  Rh  Rh216  1  0.19442326  0.00273716  0.00466112  1
  Rh  Rh217  1  0.40766719  -0.00538353  0.59748810  1
  Rh  Rh218  1  -0.00036906  -0.00932499  0.80025329  1
  Rh  Rh219  1  0.81111480  0.20528158  0.60092013  1
  Rh  Rh220  1  -0.00438276  0.00545954  0.60459034  1
  Rh  Rh221  1  0.59584451  0.60187288  0.19641667  1
  Rh  Rh222  1  0.39652838  0.60385423  0.40111918  1
  Rh  Rh223  1  0.20588574  0.40623350  -0.01210416  1
  Rh  Rh224  1  0.19196478  0.39607271  0.60310928  1
  Rh  Rh225  1  0.80367245  0.79221255  0.80461738  1
  Rh  Rh226  1  0.61144457  0.80159787  0.40032123  1
  Rh  Rh227  1  0.79525292  0.80112801  0.00318224  1
  Rh  Rh228  1  0.41482463  -0.00264412  0.41448402  1
  Rh  Rh229  1  0.40459941  0.80276825  0.00274253  1
  Rh  Rh230  1  0.19287096  0.59726221  0.59374703  1
  Rh  Rh231  1  0.80500738  0.60504454  -0.01056000  1
  Rh  Rh232  1  0.59512238  0.78923803  0.20232288  1
  Rh  Rh233  1  -0.00571215  0.39272202  0.39539455  1
  Rh  Rh234  1  0.80890379  0.20275550  -0.00021550  1
  Rh  Rh235  1  0.61167841  0.00919874  0.19919690  1
  Rh  Rh236  1  -0.00122770  -0.00032905  0.19552732  1
  Rh  Rh237  1  0.60211441  0.80627648  0.60131795  1
  Rh  Rh238  1  0.40103989  0.59575382  0.00134421  1
  Rh  Rh239  1  -0.00193920  0.39985632  0.59662179  1
  Rh  Rh240  1  0.20192417  0.00649216  0.59591714  1
  Rh  Rh241  1  0.61267601  0.40688580  0.19294131  1
  Rh  Rh242  1  0.79935825  0.59254452  0.21219225  1
  Rh  Rh243  1  0.20241225  0.80247429  0.59616129  1
  Rh  Rh244  1  -0.00757106  0.40185507  -0.00879638  1
  Rh  Rh245  1  0.59681068  0.40509181  0.59964937  1
  Rh  Rh246  1  -0.00919848  0.00035759  -0.00137065  1
  Rh  Rh247  1  -0.01237775  0.61265232  0.79853477  1
  Rh  Rh248  1  -0.00037503  0.81056654  0.40064973  1
  Rh  Rh249  1  0.38892906  0.20147528  0.60108879  1
