# generated using pymatgen
data_ZrScNbPdRh
_symmetry_space_group_name_H-M   'P 1'
_cell_length_a   16.55204381
_cell_length_b   16.55579182
_cell_length_c   16.55629555
_cell_angle_alpha   89.99838048
_cell_angle_beta   89.98730786
_cell_angle_gamma   89.98127682
_symmetry_Int_Tables_number   1
_chemical_formula_structural   ZrScNbPdRh
_chemical_formula_sum   'Zr50 Sc50 Nb50 Pd50 Rh50'
_cell_volume   4536.95759675
_cell_formula_units_Z   50
loop_
 _symmetry_equiv_pos_site_id
 _symmetry_equiv_pos_as_xyz
  1  'x, y, z'
loop_
 _atom_site_type_symbol
 _atom_site_label
 _atom_site_symmetry_multiplicity
 _atom_site_fract_x
 _atom_site_fract_y
 _atom_site_fract_z
 _atom_site_occupancy
  Zr  Zr0  1  0.49741414  0.50977988  0.69641333  1
  Zr  Zr1  1  0.30053886  0.09735626  0.29825544  1
  Zr  Zr2  1  0.30483353  0.90127732  0.69457311  1
  Zr  Zr3  1  0.09916751  0.89685209  0.30425538  1
  Zr  Zr4  1  0.89924719  0.90179836  0.29143580  1
  Zr  Zr5  1  0.30135465  0.70175910  0.68782789  1
  Zr  Zr6  1  0.90631832  0.30266664  0.10124357  1
  Zr  Zr7  1  0.29698584  0.31118301  0.10192764  1
  Zr  Zr8  1  0.69821467  0.09337081  0.30195310  1
  Zr  Zr9  1  0.69600194  0.90586023  0.49718634  1
  Zr  Zr10  1  0.29914263  0.09390579  0.49232409  1
  Zr  Zr11  1  0.11083193  0.49214489  0.50265383  1
  Zr  Zr12  1  0.89219454  0.69194476  0.49910029  1
  Zr  Zr13  1  0.69883064  0.70155970  0.49502560  1
  Zr  Zr14  1  0.69651533  0.89616619  0.70640831  1
  Zr  Zr15  1  0.30624411  0.90592403  0.90465674  1
  Zr  Zr16  1  0.30203554  0.49500998  0.90060483  1
  Zr  Zr17  1  0.10267648  0.68461850  0.70713607  1
  Zr  Zr18  1  0.89270727  0.89658130  0.09626311  1
  Zr  Zr19  1  0.09967165  0.89977966  0.90860401  1
  Zr  Zr20  1  0.90010206  0.70021067  0.09744739  1
  Zr  Zr21  1  0.49708091  0.49249780  0.49266805  1
  Zr  Zr22  1  0.90081322  0.50210740  0.09873600  1
  Zr  Zr23  1  0.30433251  0.49802403  0.10727755  1
  Zr  Zr24  1  0.09838377  0.70488436  0.09654063  1
  Zr  Zr25  1  0.70123960  0.10671593  0.90408240  1
  Zr  Zr26  1  0.09802064  0.09820283  0.90298206  1
  Zr  Zr27  1  0.08709687  0.90207565  0.69199940  1
  Zr  Zr28  1  0.89370593  0.90284752  0.70739632  1
  Zr  Zr29  1  0.09655707  0.51569512  0.88757173  1
  Zr  Zr30  1  0.90255781  0.09402895  0.69690197  1
  Zr  Zr31  1  0.11218130  0.09588086  0.29849616  1
  Zr  Zr32  1  0.90863349  0.90253695  0.51243002  1
  Zr  Zr33  1  0.30014537  0.50543280  0.69492319  1
  Zr  Zr34  1  0.70212549  0.90094995  0.90429105  1
  Zr  Zr35  1  0.49850841  0.30062005  0.70117724  1
  Zr  Zr36  1  0.68903145  0.69970420  0.69349233  1
  Zr  Zr37  1  0.29939734  0.09399485  0.09841502  1
  Zr  Zr38  1  0.89216960  0.49356478  0.29967172  1
  Zr  Zr39  1  0.89673406  0.70461456  0.30069384  1
  Zr  Zr40  1  0.50544062  0.70768680  0.29395860  1
  Zr  Zr41  1  0.50106984  0.29543053  0.50293758  1
  Zr  Zr42  1  0.11214691  0.29966197  0.29702785  1
  Zr  Zr43  1  0.10090199  0.50187602  0.10660490  1
  Zr  Zr44  1  0.10531560  0.70748862  0.49923005  1
  Zr  Zr45  1  0.30442505  0.70289174  0.29983320  1
  Zr  Zr46  1  0.50289065  0.30521031  0.10704524  1
  Zr  Zr47  1  0.30147649  0.09457373  0.89871952  1
  Zr  Zr48  1  0.09770055  0.70094404  0.90488944  1
  Zr  Zr49  1  0.29167603  0.70336926  0.90584162  1
  Sc  Sc50  1  0.29692413  0.10450519  0.69911156  1
  Sc  Sc51  1  0.50553390  0.50373427  0.10695132  1
  Sc  Sc52  1  0.30239511  0.70547727  0.10660001  1
  Sc  Sc53  1  0.30006452  0.30619713  0.50849989  1
  Sc  Sc54  1  0.50302918  0.90318449  0.89879658  1
  Sc  Sc55  1  0.89046499  0.70065660  0.69828667  1
  Sc  Sc56  1  0.09607574  0.11156121  0.70073872  1
  Sc  Sc57  1  0.89972050  0.29579609  0.70526380  1
  Sc  Sc58  1  0.09614339  0.29339330  0.89943463  1
  Sc  Sc59  1  0.69914495  0.09787173  0.69768300  1
  Sc  Sc60  1  0.49868099  0.90549249  0.50355347  1
  Sc  Sc61  1  0.50239547  0.70168178  0.10273413  1
  Sc  Sc62  1  0.90113211  0.69283584  0.90901294  1
  Sc  Sc63  1  0.10138977  0.29895594  0.69543331  1
  Sc  Sc64  1  0.49624268  0.50150372  0.29584053  1
  Sc  Sc65  1  0.50013332  0.09184644  0.90336159  1
  Sc  Sc66  1  0.69817836  0.50672996  0.09392361  1
  Sc  Sc67  1  0.49957175  0.09719392  0.69127339  1
  Sc  Sc68  1  0.69777770  0.29065542  0.10535629  1
  Sc  Sc69  1  0.70092237  0.09782533  0.09723472  1
  Sc  Sc70  1  0.69519870  0.70229000  0.90609062  1
  Sc  Sc71  1  0.70140723  0.50864251  0.49232185  1
  Sc  Sc72  1  0.90101279  0.10097641  0.90126266  1
  Sc  Sc73  1  0.90715466  0.49085039  0.70866972  1
  Sc  Sc74  1  0.50547451  0.90607978  0.29556876  1
  Sc  Sc75  1  0.29731067  0.69985411  0.49841551  1
  Sc  Sc76  1  0.51146044  0.09604997  0.10483225  1
  Sc  Sc77  1  0.08992259  0.90438022  0.10386523  1
  Sc  Sc78  1  0.69184770  0.70196115  0.09234369  1
  Sc  Sc79  1  0.10323994  0.30576492  0.10097770  1
  Sc  Sc80  1  0.10631889  0.29684978  0.50816746  1
  Sc  Sc81  1  0.30782749  0.89815542  0.09527050  1
  Sc  Sc82  1  0.29862323  0.89211282  0.49892319  1
  Sc  Sc83  1  0.10503482  0.70218166  0.29881720  1
  Sc  Sc84  1  0.50513648  0.90320348  0.69441264  1
  Sc  Sc85  1  0.51247288  0.31256881  0.29959734  1
  Sc  Sc86  1  0.89147850  0.29978247  0.90122477  1
  Sc  Sc87  1  0.50629129  0.69829021  0.90064772  1
  Sc  Sc88  1  0.49885593  0.49734989  0.88712408  1
  Sc  Sc89  1  0.29859373  0.50407822  0.30715927  1
  Sc  Sc90  1  0.89815380  0.49481371  0.90567534  1
  Sc  Sc91  1  0.50966451  0.70479834  0.50324987  1
  Sc  Sc92  1  0.69826173  0.28749476  0.70809571  1
  Sc  Sc93  1  0.88955339  0.09464772  0.29915597  1
  Sc  Sc94  1  0.30248213  0.90569049  0.29858276  1
  Sc  Sc95  1  0.69289892  0.49352575  0.30311795  1
  Sc  Sc96  1  0.90008745  0.09590879  0.09838060  1
  Sc  Sc97  1  0.70709814  0.30186074  0.29968165  1
  Sc  Sc98  1  0.69191727  0.50457552  0.69839771  1
  Sc  Sc99  1  0.88888222  0.29193097  0.49540265  1
  Nb  Nb100  1  0.50194488  0.70502575  0.69896870  1
  Nb  Nb101  1  0.09843302  0.10520133  0.10048027  1
  Nb  Nb102  1  0.89712140  0.49561788  0.49725433  1
  Nb  Nb103  1  0.69437945  0.29915271  0.89759031  1
  Nb  Nb104  1  0.09757245  0.50120872  0.30679888  1
  Nb  Nb105  1  0.69808341  0.29757363  0.50049702  1
  Nb  Nb106  1  0.09995736  0.09935991  0.49672225  1
  Nb  Nb107  1  0.29970755  0.50447386  0.50107192  1
  Nb  Nb108  1  0.89439847  0.09744835  0.49439874  1
  Nb  Nb109  1  0.49817076  0.30225643  0.89646099  1
  Nb  Nb110  1  0.70219773  0.89023151  0.30105451  1
  Nb  Nb111  1  0.29342388  0.29653957  0.70608086  1
  Nb  Nb112  1  0.30355060  0.30308258  0.90060560  1
  Nb  Nb113  1  0.90164543  0.29866331  0.29951943  1
  Nb  Nb114  1  0.89961882  0.89827479  0.89920672  1
  Nb  Nb115  1  0.70298066  0.49965972  0.90352447  1
  Nb  Nb116  1  0.70169456  0.70829934  0.30736970  1
  Nb  Nb117  1  0.70627356  0.10568678  0.49569579  1
  Nb  Nb118  1  0.10002126  0.89961869  0.49967563  1
  Nb  Nb119  1  0.50418033  0.10074604  0.49697428  1
  Nb  Nb120  1  0.69448067  0.89826153  0.09507039  1
  Nb  Nb121  1  0.50723835  0.89572803  0.09850145  1
  Nb  Nb122  1  0.10098333  0.49849436  0.69954865  1
  Nb  Nb123  1  0.49824474  0.10209440  0.30383026  1
  Nb  Nb124  1  0.30261217  0.29473810  0.29109518  1
  Nb  Nb125  1  0.20680302  0.19981973  -0.00057236  1
  Nb  Nb126  1  -0.00061759  0.39666197  0.39878724  1
  Nb  Nb127  1  0.00102605  0.59007563  0.59520352  1
  Nb  Nb128  1  0.60235040  0.39503975  -0.01009479  1
  Nb  Nb129  1  0.40453395  0.19971027  0.39505703  1
  Nb  Nb130  1  0.40507632  0.80071189  0.39625798  1
  Nb  Nb131  1  -0.00046067  0.19766214  0.39615971  1
  Nb  Nb132  1  0.39848140  0.20614602  0.80536690  1
  Nb  Nb133  1  0.00107844  0.00369350  0.40485026  1
  Nb  Nb134  1  0.00038534  0.59168279  0.40328998  1
  Nb  Nb135  1  0.60068839  0.19527913  0.40356664  1
  Nb  Nb136  1  0.79340952  0.39766371  0.59696521  1
  Nb  Nb137  1  0.40041993  0.20724879  0.00092608  1
  Nb  Nb138  1  0.39909361  0.79805209  0.79572667  1
  Nb  Nb139  1  0.20167221  0.40017493  0.79808672  1
  Nb  Nb140  1  0.60284842  0.39536726  0.59701384  1
  Nb  Nb141  1  -0.00060628  0.80081952  0.80363134  1
  Nb  Nb142  1  0.40156057  0.20106171  0.20226849  1
  Nb  Nb143  1  0.00274175  0.19882677  0.20625687  1
  Nb  Nb144  1  0.79348052  0.59563379  0.80563561  1
  Nb  Nb145  1  0.19944987  0.80476395  0.79692104  1
  Nb  Nb146  1  0.79662973  0.60571177  0.20442657  1
  Nb  Nb147  1  0.39889461  0.59713998  0.00025084  1
  Nb  Nb148  1  0.19159632  -0.00009343  0.59673556  1
  Nb  Nb149  1  0.19560907  -0.00505715  0.79519330  1
  Pd  Pd150  1  0.60567094  0.60291684  0.80618713  1
  Pd  Pd151  1  0.18792859  0.39888653  -0.01146281  1
  Pd  Pd152  1  0.80607429  0.58526370  0.61201502  1
  Pd  Pd153  1  0.80282660  0.78734091  0.80993189  1
  Pd  Pd154  1  0.39576325  0.00332637  0.59583097  1
  Pd  Pd155  1  -0.00464530  0.20286286  0.80269763  1
  Pd  Pd156  1  0.00736496  0.40356511  -0.00802022  1
  Pd  Pd157  1  0.80146405  0.20240688  0.60628973  1
  Pd  Pd158  1  0.40969285  0.79329180  -0.00461540  1
  Pd  Pd159  1  0.80697852  0.81074302  0.40893954  1
  Pd  Pd160  1  -0.00654186  0.20241614  0.59096580  1
  Pd  Pd161  1  0.40600286  0.60920346  0.40322008  1
  Pd  Pd162  1  0.39283519  0.19608990  0.59996898  1
  Pd  Pd163  1  0.79111209  0.40531165  0.19136822  1
  Pd  Pd164  1  0.79093622  0.40313761  0.79218914  1
  Pd  Pd165  1  0.79359217  0.80441457  0.59597688  1
  Pd  Pd166  1  0.20617035  0.39556334  0.39874399  1
  Pd  Pd167  1  0.00545239  0.39594151  0.20611056  1
  Pd  Pd168  1  0.59827600  0.00403311  0.79965999  1
  Pd  Pd169  1  0.40651233  0.60693130  0.58646961  1
  Pd  Pd170  1  0.39535061  0.61153423  0.80655943  1
  Pd  Pd171  1  0.40678575  0.00114375  0.19512255  1
  Pd  Pd172  1  0.59214770  0.20380276  -0.00034909  1
  Pd  Pd173  1  0.80292615  0.20308393  0.00249736  1
  Pd  Pd174  1  0.79265805  0.00017445  0.59931108  1
  Pd  Pd175  1  0.79056244  -0.00197598  0.19338348  1
  Pd  Pd176  1  0.59734067  0.00017476  0.39996062  1
  Pd  Pd177  1  0.19874068  -0.01053377  0.19118905  1
  Pd  Pd178  1  -0.00973960  0.39565583  0.59362931  1
  Pd  Pd179  1  0.80523381  0.19595465  0.20002406  1
  Pd  Pd180  1  0.60555604  -0.00413652  0.19941409  1
  Pd  Pd181  1  -0.00044102  0.78378502  0.60792425  1
  Pd  Pd182  1  -0.00542521  0.80053680  0.40035960  1
  Pd  Pd183  1  0.20102377  0.80827039  0.19582416  1
  Pd  Pd184  1  0.20586314  0.20834950  0.40760978  1
  Pd  Pd185  1  0.61010221  0.60444091  0.20586203  1
  Pd  Pd186  1  -0.00672937  0.00086353  0.00182292  1
  Pd  Pd187  1  0.59506515  0.59928208  0.39619129  1
  Pd  Pd188  1  0.79069419  0.39217218  0.00799270  1
  Pd  Pd189  1  0.40011225  0.39989737  0.60490536  1
  Pd  Pd190  1  0.60597192  0.40245423  0.79529606  1
  Pd  Pd191  1  0.39185333  0.39238348  0.39341729  1
  Pd  Pd192  1  0.20578758  0.59685405  0.00868724  1
  Pd  Pd193  1  0.78945498  0.79417698  0.19098245  1
  Pd  Pd194  1  0.58997405  0.18877296  0.80072833  1
  Pd  Pd195  1  0.79732256  0.00808441  0.80624369  1
  Pd  Pd196  1  0.20223959  0.60023542  0.20506257  1
  Pd  Pd197  1  -0.00353739  0.60466234  0.20761039  1
  Pd  Pd198  1  0.00731803  0.39250188  0.80481178  1
  Pd  Pd199  1  0.41380831  0.40580108  0.00267190  1
  Rh  Rh200  1  0.79886238  0.60197341  0.00152525  1
  Rh  Rh201  1  0.41501059  0.00267549  0.01052894  1
  Rh  Rh202  1  0.60162649  0.80622098  0.59922494  1
  Rh  Rh203  1  0.40013763  0.60180400  0.19496193  1
  Rh  Rh204  1  0.80023173  -0.00147648  -0.00220122  1
  Rh  Rh205  1  0.39769612  -0.00006913  0.79349361  1
  Rh  Rh206  1  0.79776275  0.79953346  -0.00180023  1
  Rh  Rh207  1  0.59447249  0.80803545  0.39787946  1
  Rh  Rh208  1  0.00165607  -0.00397921  0.80445544  1
  Rh  Rh209  1  0.21146290  0.59869420  0.79834347  1
  Rh  Rh210  1  0.80001234  0.59832020  0.38896140  1
  Rh  Rh211  1  0.19650320  -0.00951627  0.40598967  1
  Rh  Rh212  1  0.60225148  -0.00217127  0.00098304  1
  Rh  Rh213  1  0.19660762  0.60216342  0.40278377  1
  Rh  Rh214  1  -0.00627342  0.80398663  -0.00217157  1
  Rh  Rh215  1  0.60647555  0.80388515  0.19840352  1
  Rh  Rh216  1  0.00260836  0.79741522  0.19826985  1
  Rh  Rh217  1  0.20342894  0.19237035  0.59649388  1
  Rh  Rh218  1  0.79627108  0.20018425  0.39324139  1
  Rh  Rh219  1  0.80145280  0.19520783  0.80247398  1
  Rh  Rh220  1  0.19622406  0.59789099  0.59292775  1
  Rh  Rh221  1  0.19370298  0.80520421  0.60430542  1
  Rh  Rh222  1  0.39224758  0.39537902  0.78863966  1
  Rh  Rh223  1  0.80583820  -0.00953936  0.40267433  1
  Rh  Rh224  1  0.40885706  0.79682986  0.59638640  1
  Rh  Rh225  1  0.40547797  0.80730946  0.20500480  1
  Rh  Rh226  1  0.59424672  0.59297120  0.59013018  1
  Rh  Rh227  1  0.20184092  0.20008220  0.18645120  1
  Rh  Rh228  1  0.59304449  0.80082415  0.80008946  1
  Rh  Rh229  1  0.20167690  0.41132875  0.21000036  1
  Rh  Rh230  1  0.00196888  0.00981128  0.20826065  1
  Rh  Rh231  1  -0.01793935  0.60710194  0.79163713  1
  Rh  Rh232  1  0.20719205  0.40068326  0.60941109  1
  Rh  Rh233  1  0.40047690  0.40060225  0.20928470  1
  Rh  Rh234  1  0.60634669  0.00584594  0.59645626  1
  Rh  Rh235  1  0.59776383  0.19930912  0.21407388  1
  Rh  Rh236  1  0.19926169  0.80706914  0.00721953  1
  Rh  Rh237  1  0.60569819  0.19704568  0.59531673  1
  Rh  Rh238  1  0.20385905  0.20056017  0.80781002  1
  Rh  Rh239  1  0.00408973  0.01333004  0.59429744  1
  Rh  Rh240  1  0.60528664  0.39598957  0.40680387  1
  Rh  Rh241  1  0.20996131  0.80308888  0.39555726  1
  Rh  Rh242  1  0.40349775  -0.00374444  0.40203982  1
  Rh  Rh243  1  0.60822954  0.40308698  0.19040570  1
  Rh  Rh244  1  0.19371168  0.00281237  0.00351711  1
  Rh  Rh245  1  0.00374791  0.20255571  0.01012404  1
  Rh  Rh246  1  0.80014582  0.39552634  0.40569537  1
  Rh  Rh247  1  0.59579682  0.80511343  -0.00227235  1
  Rh  Rh248  1  0.00183687  0.59257732  0.00379829  1
  Rh  Rh249  1  0.58873703  0.58778573  -0.00665866  1
