# generated using pymatgen
data_ZrScNbPdRh
_symmetry_space_group_name_H-M   'P 1'
_cell_length_a   16.55962615
_cell_length_b   16.55855507
_cell_length_c   16.55938003
_cell_angle_alpha   90.00053359
_cell_angle_beta   89.98717673
_cell_angle_gamma   89.96511692
_symmetry_Int_Tables_number   1
_chemical_formula_structural   ZrScNbPdRh
_chemical_formula_sum   'Zr50 Sc50 Nb50 Pd50 Rh50'
_cell_volume   4540.63870324
_cell_formula_units_Z   50
loop_
 _symmetry_equiv_pos_site_id
 _symmetry_equiv_pos_as_xyz
  1  'x, y, z'
loop_
 _atom_site_type_symbol
 _atom_site_label
 _atom_site_symmetry_multiplicity
 _atom_site_fract_x
 _atom_site_fract_y
 _atom_site_fract_z
 _atom_site_occupancy
  Zr  Zr0  1  0.49653846  0.90036954  0.90094735  1
  Zr  Zr1  1  0.91710642  0.29252992  0.29459124  1
  Zr  Zr2  1  0.90028641  0.68516823  0.50585870  1
  Zr  Zr3  1  0.69468377  0.30486062  0.89256262  1
  Zr  Zr4  1  0.69987142  0.10209390  0.10416047  1
  Zr  Zr5  1  0.50822007  0.30084150  0.69780016  1
  Zr  Zr6  1  0.50274443  0.49541431  0.90028840  1
  Zr  Zr7  1  0.50180881  0.10331738  0.49370928  1
  Zr  Zr8  1  0.70501639  0.10118439  0.90702123  1
  Zr  Zr9  1  0.10484854  0.09327888  0.09757339  1
  Zr  Zr10  1  0.29893145  0.10311636  0.30330570  1
  Zr  Zr11  1  0.09745111  0.30154716  0.11619729  1
  Zr  Zr12  1  0.89612603  0.70094574  0.10298485  1
  Zr  Zr13  1  0.49341196  0.90314963  0.30509672  1
  Zr  Zr14  1  0.70180779  0.30511082  0.69244716  1
  Zr  Zr15  1  0.10011429  0.49818668  0.89589036  1
  Zr  Zr16  1  0.49848324  0.10578970  0.29312069  1
  Zr  Zr17  1  0.49718468  0.50191782  0.69669931  1
  Zr  Zr18  1  0.10013377  0.09947485  0.89930149  1
  Zr  Zr19  1  0.09873957  0.89759524  0.90615217  1
  Zr  Zr20  1  0.09553159  0.89797451  0.51055046  1
  Zr  Zr21  1  0.89594172  0.90566416  0.49666917  1
  Zr  Zr22  1  0.90043212  0.50014723  0.90184134  1
  Zr  Zr23  1  0.10072783  0.29962035  0.69973431  1
  Zr  Zr24  1  0.69507848  0.89852291  0.69298507  1
  Zr  Zr25  1  0.69983212  0.69030783  0.30040427  1
  Zr  Zr26  1  0.90122906  0.30299192  0.68829072  1
  Zr  Zr27  1  0.50180689  0.90828521  0.10661979  1
  Zr  Zr28  1  0.11365034  0.49783831  0.69677411  1
  Zr  Zr29  1  0.69879848  0.70552475  0.11395092  1
  Zr  Zr30  1  0.29321608  0.30454034  0.10261600  1
  Zr  Zr31  1  0.30233626  0.09983628  0.69715009  1
  Zr  Zr32  1  0.90059795  0.69827796  0.89075776  1
  Zr  Zr33  1  0.11448115  0.29902497  0.89773093  1
  Zr  Zr34  1  0.49427765  0.29846096  0.29873061  1
  Zr  Zr35  1  0.49298750  0.30252267  0.10392905  1
  Zr  Zr36  1  0.50014087  0.69886180  0.89821523  1
  Zr  Zr37  1  0.69891142  0.69529931  0.49977964  1
  Zr  Zr38  1  0.29287218  0.90532762  0.10458216  1
  Zr  Zr39  1  0.10107232  0.49840349  0.09767216  1
  Zr  Zr40  1  0.89834371  0.09408216  0.90900270  1
  Zr  Zr41  1  0.09533707  0.30061712  0.49446508  1
  Zr  Zr42  1  0.49971909  0.89390578  0.50424525  1
  Zr  Zr43  1  0.09756034  0.89612648  0.70042939  1
  Zr  Zr44  1  0.49128115  0.50302747  0.49869636  1
  Zr  Zr45  1  0.09940558  0.70453095  0.09524748  1
  Zr  Zr46  1  0.31144156  0.69447129  0.49311254  1
  Zr  Zr47  1  0.09589326  0.90754134  0.29106916  1
  Zr  Zr48  1  0.30059784  0.30126148  0.90069572  1
  Zr  Zr49  1  0.10277430  0.68687016  0.30283610  1
  Sc  Sc50  1  0.10400457  0.69172895  0.50929321  1
  Sc  Sc51  1  0.69941429  0.89533584  0.10489931  1
  Sc  Sc52  1  0.30015549  0.69601524  0.70171946  1
  Sc  Sc53  1  0.29439529  0.29026776  0.49398197  1
  Sc  Sc54  1  0.69730417  0.11215205  0.30735268  1
  Sc  Sc55  1  0.90831204  0.89468102  0.69456914  1
  Sc  Sc56  1  0.49658292  0.69880229  0.71086499  1
  Sc  Sc57  1  0.89091720  0.11146009  0.10037602  1
  Sc  Sc58  1  0.10257061  0.70392178  0.89732173  1
  Sc  Sc59  1  0.29685337  0.10745791  0.89587059  1
  Sc  Sc60  1  0.29509823  0.49720900  0.90251330  1
  Sc  Sc61  1  0.88962334  0.31253964  0.90738358  1
  Sc  Sc62  1  0.09611812  0.09780245  0.68608228  1
  Sc  Sc63  1  0.89766249  0.50210501  0.69844940  1
  Sc  Sc64  1  0.30481613  0.10243783  0.50470015  1
  Sc  Sc65  1  0.90180447  0.10913152  0.48691107  1
  Sc  Sc66  1  0.89985683  0.90409061  0.30032100  1
  Sc  Sc67  1  0.29763558  0.89350252  0.89698815  1
  Sc  Sc68  1  0.90343348  0.49960596  0.31521913  1
  Sc  Sc69  1  0.49666166  0.48974108  0.10631193  1
  Sc  Sc70  1  0.30997643  0.89539600  0.50467425  1
  Sc  Sc71  1  0.89716294  0.69792709  0.29845851  1
  Sc  Sc72  1  0.29903629  0.09819660  0.10246647  1
  Sc  Sc73  1  0.70156930  0.70562119  0.89753506  1
  Sc  Sc74  1  0.29650356  0.29625650  0.69775226  1
  Sc  Sc75  1  0.49893266  0.30140986  0.50033661  1
  Sc  Sc76  1  0.09129539  0.10948538  0.29692427  1
  Sc  Sc77  1  0.50740981  0.49496373  0.29850597  1
  Sc  Sc78  1  0.68725592  0.11397576  0.68852301  1
  Sc  Sc79  1  0.91058346  0.09990028  0.68824750  1
  Sc  Sc80  1  0.69190662  0.30050658  0.30281357  1
  Sc  Sc81  1  0.09899506  0.70463708  0.70140962  1
  Sc  Sc82  1  0.49205472  0.10517579  0.69374647  1
  Sc  Sc83  1  0.30910051  0.89448649  0.69826544  1
  Sc  Sc84  1  0.70355492  0.49630035  0.69828937  1
  Sc  Sc85  1  0.29582750  0.50843448  0.50818849  1
  Sc  Sc86  1  0.70852748  0.29444504  0.09855956  1
  Sc  Sc87  1  0.90500632  0.89888784  0.10095325  1
  Sc  Sc88  1  0.68991722  0.90068460  0.49710760  1
  Sc  Sc89  1  0.29361659  0.68765540  0.10805250  1
  Sc  Sc90  1  0.71243778  0.49530516  0.48885712  1
  Sc  Sc91  1  0.70887792  0.69907706  0.69955484  1
  Sc  Sc92  1  0.49999243  0.69286490  0.30938745  1
  Sc  Sc93  1  0.69712312  0.89594329  0.30022042  1
  Sc  Sc94  1  0.30030470  0.49460838  0.10432444  1
  Sc  Sc95  1  0.10207543  0.49151979  0.30631774  1
  Sc  Sc96  1  0.90236928  0.90324640  0.90128652  1
  Sc  Sc97  1  0.70565034  0.90147183  0.90626401  1
  Sc  Sc98  1  0.29792569  0.70319750  0.89328795  1
  Sc  Sc99  1  0.70336518  0.49006977  0.89867404  1
  Nb  Nb100  1  0.90358146  0.49038687  0.09605810  1
  Nb  Nb101  1  0.89920108  0.30997008  0.49840819  1
  Nb  Nb102  1  0.28894227  0.30390397  0.30042761  1
  Nb  Nb103  1  0.89819394  0.70022007  0.69902506  1
  Nb  Nb104  1  0.10191620  0.09897795  0.49705808  1
  Nb  Nb105  1  0.29679666  0.69793185  0.30154815  1
  Nb  Nb106  1  0.50086923  0.70597105  0.10202110  1
  Nb  Nb107  1  0.30679319  0.50081849  0.69978765  1
  Nb  Nb108  1  0.50006435  0.09977594  0.90313971  1
  Nb  Nb109  1  0.90523108  0.49435682  0.49956924  1
  Nb  Nb110  1  0.50051565  0.10036304  0.09814459  1
  Nb  Nb111  1  0.70281232  0.10354907  0.49478219  1
  Nb  Nb112  1  0.70116579  0.49967404  0.29617043  1
  Nb  Nb113  1  0.09156754  0.50542631  0.49675003  1
  Nb  Nb114  1  0.50009630  0.90465793  0.70361897  1
  Nb  Nb115  1  0.70533936  0.29098742  0.50335015  1
  Nb  Nb116  1  0.70348702  0.50560719  0.10752502  1
  Nb  Nb117  1  0.50082613  0.30312725  0.90118354  1
  Nb  Nb118  1  0.29909216  0.89978307  0.30200117  1
  Nb  Nb119  1  0.11088611  0.29821614  0.30129560  1
  Nb  Nb120  1  0.10377289  0.90000323  0.09857777  1
  Nb  Nb121  1  0.90128056  0.30524376  0.10295759  1
  Nb  Nb122  1  0.89427412  0.09931222  0.30061855  1
  Nb  Nb123  1  0.50129025  0.69327009  0.49694472  1
  Nb  Nb124  1  0.29636501  0.51069400  0.30083490  1
  Nb  Nb125  1  0.80457092  0.19750824  0.79612922  1
  Nb  Nb126  1  0.80466602  0.40468419  0.20013201  1
  Nb  Nb127  1  0.19979268  0.80297217  0.39628566  1
  Nb  Nb128  1  0.79972956  0.00776561  0.20687433  1
  Nb  Nb129  1  0.00101258  0.20634314  0.00023011  1
  Nb  Nb130  1  0.39475317  0.79766582  0.20387079  1
  Nb  Nb131  1  0.60267692  0.60006966  0.00856905  1
  Nb  Nb132  1  0.79384769  0.00714922  0.78629935  1
  Nb  Nb133  1  0.19775365  -0.00379293  0.40162326  1
  Nb  Nb134  1  0.20075456  0.80091731  0.20558369  1
  Nb  Nb135  1  0.40029154  0.79598350  0.01095967  1
  Nb  Nb136  1  -0.00523065  0.20344653  0.80651368  1
  Nb  Nb137  1  0.59754474  0.00286957  0.79965531  1
  Nb  Nb138  1  0.59097059  0.19909936  -0.00101369  1
  Nb  Nb139  1  0.79354337  0.00617905  0.59536728  1
  Nb  Nb140  1  -0.00161991  0.59291067  0.19437398  1
  Nb  Nb141  1  0.00266605  0.79689952  0.40319898  1
  Nb  Nb142  1  0.40803154  0.60407274  0.00228372  1
  Nb  Nb143  1  0.59804008  0.60087787  0.59466297  1
  Nb  Nb144  1  0.38926072  0.40184715  0.39350910  1
  Nb  Nb145  1  0.79724337  0.59646114  0.00760178  1
  Nb  Nb146  1  0.40735962  0.20052531  -0.00077004  1
  Nb  Nb147  1  0.40236188  0.39878708  0.79722935  1
  Nb  Nb148  1  0.80265139  0.79563212  0.40341282  1
  Nb  Nb149  1  0.19590053  -0.00217609  0.79435257  1
  Pd  Pd150  1  0.60339871  0.00372370  0.39370250  1
  Pd  Pd151  1  0.19643987  0.20031162  0.59814950  1
  Pd  Pd152  1  0.39060049  0.00176919  -0.00109947  1
  Pd  Pd153  1  0.39716047  0.00065699  0.80047062  1
  Pd  Pd154  1  0.60875916  0.40917540  0.58793012  1
  Pd  Pd155  1  0.59638569  0.39966028  0.40598605  1
  Pd  Pd156  1  0.61088753  0.39329253  0.19442340  1
  Pd  Pd157  1  0.80271627  0.80479812  0.59399269  1
  Pd  Pd158  1  0.60653933  0.39919718  0.01133338  1
  Pd  Pd159  1  0.58901967  0.59944754  0.19839757  1
  Pd  Pd160  1  0.40726697  0.60079890  0.19909147  1
  Pd  Pd161  1  0.20842046  0.79289939  0.59531820  1
  Pd  Pd162  1  0.59161520  0.78752539  0.60646008  1
  Pd  Pd163  1  0.79348013  0.59613066  0.80455924  1
  Pd  Pd164  1  0.38891299  0.39126519  0.59590729  1
  Pd  Pd165  1  0.39372090  0.00216500  0.40713079  1
  Pd  Pd166  1  0.80725560  0.19352177  0.59926382  1
  Pd  Pd167  1  0.60184828  0.19391913  0.80465761  1
  Pd  Pd168  1  0.80402887  0.81242405  0.79741250  1
  Pd  Pd169  1  0.00575799  -0.00016239  0.40154212  1
  Pd  Pd170  1  0.20758100  0.60177936  -0.00346492  1
  Pd  Pd171  1  0.60778966  0.00451553  0.20943193  1
  Pd  Pd172  1  0.60258471  0.80653875  0.79964877  1
  Pd  Pd173  1  0.00273087  0.59693814  0.61111223  1
  Pd  Pd174  1  0.00449410  0.59990787  0.79150610  1
  Pd  Pd175  1  0.80288241  0.21207189  0.39415418  1
  Pd  Pd176  1  0.40774642  0.79122086  0.60674762  1
  Pd  Pd177  1  0.60190519  0.79641907  0.39553711  1
  Pd  Pd178  1  0.20791205  -0.00025674  -0.01167321  1
  Pd  Pd179  1  0.20345777  0.39893598  0.59117038  1
  Pd  Pd180  1  -0.00515623  0.79937014  -0.00492186  1
  Pd  Pd181  1  0.00356002  0.79225515  0.20674534  1
  Pd  Pd182  1  -0.00155654  0.00448737  0.79622033  1
  Pd  Pd183  1  0.80231760  0.79691196  0.00009914  1
  Pd  Pd184  1  0.61100004  0.59520460  0.79904213  1
  Pd  Pd185  1  0.00452208  0.40729194  0.60058962  1
  Pd  Pd186  1  0.40361515  0.20650409  0.80224417  1
  Pd  Pd187  1  0.39082323  0.19963914  0.19525815  1
  Pd  Pd188  1  0.60460848  0.00082366  -0.00202149  1
  Pd  Pd189  1  -0.01056971  0.00992864  0.19140633  1
  Pd  Pd190  1  0.59729287  0.00661814  0.60130506  1
  Pd  Pd191  1  0.20790937  -0.00379875  0.59844110  1
  Pd  Pd192  1  0.59825935  0.79853833  0.00000194  1
  Pd  Pd193  1  0.81255598  0.58913398  0.20257854  1
  Pd  Pd194  1  -0.00579246  0.60381591  0.00149090  1
  Pd  Pd195  1  0.80309130  0.38959776  0.39032571  1
  Pd  Pd196  1  0.20428955  0.40938855  0.40928113  1
  Pd  Pd197  1  0.20240845  0.60174206  0.79981403  1
  Pd  Pd198  1  -0.00450255  0.39501081  0.80061816  1
  Pd  Pd199  1  0.00917574  0.39029898  -0.00547177  1
  Rh  Rh200  1  0.58813346  0.80054495  0.21063560  1
  Rh  Rh201  1  0.39823861  0.20830284  0.39850367  1
  Rh  Rh202  1  0.39971384  0.00075717  0.20175791  1
  Rh  Rh203  1  0.38830728  0.40461673  0.21427385  1
  Rh  Rh204  1  0.59605668  0.20283614  0.58894755  1
  Rh  Rh205  1  0.59937498  0.20329247  0.19348238  1
  Rh  Rh206  1  0.59483679  0.40481323  0.79335196  1
  Rh  Rh207  1  0.21229750  0.40374453  0.79439323  1
  Rh  Rh208  1  0.00307844  0.39511171  0.39842229  1
  Rh  Rh209  1  -0.00083341  0.19221647  0.19176167  1
  Rh  Rh210  1  0.79997287  0.40447050  0.59256945  1
  Rh  Rh211  1  0.19980433  0.00272941  0.20852658  1
  Rh  Rh212  1  -0.00331115  0.00508225  0.01039433  1
  Rh  Rh213  1  0.20803654  0.79579648  0.00891031  1
  Rh  Rh214  1  0.19836622  0.59967926  0.40888279  1
  Rh  Rh215  1  0.80075667  0.21029683  -0.00733205  1
  Rh  Rh216  1  0.00034962  0.20237435  0.58935843  1
  Rh  Rh217  1  0.40112657  0.59130064  0.39204777  1
  Rh  Rh218  1  0.19143131  0.59621070  0.19856610  1
  Rh  Rh219  1  0.79099067  -0.00386075  0.39867196  1
  Rh  Rh220  1  0.79082220  0.40511689  0.00998433  1
  Rh  Rh221  1  0.39989448  0.80185951  0.80396329  1
  Rh  Rh222  1  -0.00001697  0.60196845  0.39920817  1
  Rh  Rh223  1  0.20153949  0.20261649  0.00990274  1
  Rh  Rh224  1  0.59729119  0.20582991  0.40507412  1
  Rh  Rh225  1  0.39941149  0.79707912  0.39585422  1
  Rh  Rh226  1  0.40586455  0.60876392  0.60522910  1
  Rh  Rh227  1  0.20057745  0.40826229  0.20456356  1
  Rh  Rh228  1  0.19587123  0.39975888  0.00356662  1
  Rh  Rh229  1  -0.00240729  0.40792215  0.20955021  1
  Rh  Rh230  1  0.00281028  0.20292414  0.40184121  1
  Rh  Rh231  1  0.80217999  0.81241450  0.21011753  1
  Rh  Rh232  1  0.80134149  0.20429744  0.20976231  1
  Rh  Rh233  1  0.80501126  0.39392660  0.79058529  1
  Rh  Rh234  1  0.40147745  0.20471681  0.59720251  1
  Rh  Rh235  1  0.80172613  0.60100889  0.39943332  1
  Rh  Rh236  1  0.60283552  0.58852328  0.40474429  1
  Rh  Rh237  1  -0.00713074  0.78981088  0.59634403  1
  Rh  Rh238  1  0.20141627  0.60088566  0.60219992  1
  Rh  Rh239  1  0.18936213  0.18680013  0.78539018  1
  Rh  Rh240  1  0.39240665  0.58950480  0.80773699  1
  Rh  Rh241  1  0.40685557  -0.00095533  0.59633416  1
  Rh  Rh242  1  0.39755685  0.40157286  -0.00857751  1
  Rh  Rh243  1  -0.00894864  0.00524258  0.58756189  1
  Rh  Rh244  1  0.19526445  0.19016821  0.39872524  1
  Rh  Rh245  1  0.79691132  0.59212833  0.60051492  1
  Rh  Rh246  1  0.20106748  0.19449565  0.20077575  1
  Rh  Rh247  1  0.19839381  0.80788003  0.79550209  1
  Rh  Rh248  1  0.80048824  -0.00898997  0.01439781  1
  Rh  Rh249  1  -0.00204430  0.79647425  0.80120102  1
