# generated using pymatgen
data_ZrScNbPdRh
_symmetry_space_group_name_H-M   'P 1'
_cell_length_a   16.56119327
_cell_length_b   16.55762564
_cell_length_c   16.56197661
_cell_angle_alpha   89.98950690
_cell_angle_beta   89.98722513
_cell_angle_gamma   89.99598849
_symmetry_Int_Tables_number   1
_chemical_formula_structural   ZrScNbPdRh
_chemical_formula_sum   'Zr50 Sc50 Nb50 Pd50 Rh50'
_cell_volume   4541.52628860
_cell_formula_units_Z   50
loop_
 _symmetry_equiv_pos_site_id
 _symmetry_equiv_pos_as_xyz
  1  'x, y, z'
loop_
 _atom_site_type_symbol
 _atom_site_label
 _atom_site_symmetry_multiplicity
 _atom_site_fract_x
 _atom_site_fract_y
 _atom_site_fract_z
 _atom_site_occupancy
  Zr  Zr0  1  0.49776855  0.69627064  0.08100482  1
  Zr  Zr1  1  0.30318510  0.30887477  0.70236837  1
  Zr  Zr2  1  0.89567491  0.48707214  0.09762191  1
  Zr  Zr3  1  0.50567632  0.90590061  0.09553640  1
  Zr  Zr4  1  0.50544786  0.50594838  0.91406049  1
  Zr  Zr5  1  0.30431260  0.10568509  0.29776557  1
  Zr  Zr6  1  0.69276874  0.70010528  0.69888791  1
  Zr  Zr7  1  0.69630838  0.50151394  0.49522924  1
  Zr  Zr8  1  0.90470180  0.91149834  0.09772408  1
  Zr  Zr9  1  0.49202063  0.69842319  0.32017825  1
  Zr  Zr10  1  0.09818075  0.30032578  0.30251631  1
  Zr  Zr11  1  0.10424678  0.69880704  0.50413843  1
  Zr  Zr12  1  0.90813017  0.28786623  0.69654360  1
  Zr  Zr13  1  0.30191313  0.49834233  0.51366163  1
  Zr  Zr14  1  0.69716134  0.28749613  0.69734511  1
  Zr  Zr15  1  0.89487710  0.69273154  0.89582010  1
  Zr  Zr16  1  0.89867173  0.09984227  0.90430125  1
  Zr  Zr17  1  0.69392457  0.49374002  0.09701645  1
  Zr  Zr18  1  0.10161247  0.49932929  0.28462916  1
  Zr  Zr19  1  0.90198827  0.49713548  0.50150881  1
  Zr  Zr20  1  0.90343697  0.89994645  0.50467554  1
  Zr  Zr21  1  0.30376037  0.90274339  0.29976812  1
  Zr  Zr22  1  0.69751795  0.29608787  0.50058949  1
  Zr  Zr23  1  0.49802784  0.50068180  0.69714496  1
  Zr  Zr24  1  0.69297326  0.10146319  0.50777385  1
  Zr  Zr25  1  0.50296659  0.49761663  0.30813443  1
  Zr  Zr26  1  0.90915811  0.29454187  0.49629398  1
  Zr  Zr27  1  0.30538680  0.69908064  0.49576855  1
  Zr  Zr28  1  0.10181654  0.10221190  0.49579548  1
  Zr  Zr29  1  0.90497458  0.69932481  0.49565766  1
  Zr  Zr30  1  0.90214967  0.29713709  0.28765742  1
  Zr  Zr31  1  0.49727401  0.30002301  0.69936536  1
  Zr  Zr32  1  0.10325663  0.69710654  0.10486106  1
  Zr  Zr33  1  0.89929306  0.90034442  0.89929260  1
  Zr  Zr34  1  0.89798824  0.50050415  0.89932230  1
  Zr  Zr35  1  0.89725021  0.50937986  0.29339920  1
  Zr  Zr36  1  0.50000528  0.09171765  0.89431386  1
  Zr  Zr37  1  0.70743110  0.69499568  0.30366902  1
  Zr  Zr38  1  0.10320293  0.29917534  0.89829439  1
  Zr  Zr39  1  0.69599897  0.91188679  0.91044951  1
  Zr  Zr40  1  0.09438591  0.30386124  0.09613263  1
  Zr  Zr41  1  0.29518763  0.29252825  0.89224496  1
  Zr  Zr42  1  0.90872257  0.90876554  0.70200215  1
  Zr  Zr43  1  0.69199140  0.29749421  0.29204424  1
  Zr  Zr44  1  0.70410589  0.69642587  0.50262516  1
  Zr  Zr45  1  0.70136446  0.89999393  0.10267146  1
  Zr  Zr46  1  0.90068175  0.89945201  0.29126509  1
  Zr  Zr47  1  0.49996425  0.71305163  0.51208492  1
  Zr  Zr48  1  0.70021483  0.49809368  0.29965650  1
  Zr  Zr49  1  0.70090922  0.09949645  0.70390385  1
  Sc  Sc50  1  0.09820618  0.49807750  0.09586597  1
  Sc  Sc51  1  0.49974714  0.10661152  0.29172034  1
  Sc  Sc52  1  0.09025548  0.09678599  0.69644802  1
  Sc  Sc53  1  0.09527672  0.49329149  0.50699885  1
  Sc  Sc54  1  0.70500127  0.50341566  0.90829845  1
  Sc  Sc55  1  0.10338908  0.89886482  0.51209056  1
  Sc  Sc56  1  0.10494570  0.50079305  0.70141075  1
  Sc  Sc57  1  0.29434239  0.69970527  0.09308020  1
  Sc  Sc58  1  0.90500241  0.29445110  0.90691329  1
  Sc  Sc59  1  0.49728376  0.29811669  0.89470285  1
  Sc  Sc60  1  0.50052360  0.50883650  0.50065611  1
  Sc  Sc61  1  0.29464336  0.49353796  0.29387670  1
  Sc  Sc62  1  0.09314972  0.49812413  0.90010652  1
  Sc  Sc63  1  0.09693799  0.30078408  0.49744303  1
  Sc  Sc64  1  0.90068489  0.09933931  0.50827555  1
  Sc  Sc65  1  0.29389240  0.49729147  0.89845978  1
  Sc  Sc66  1  0.28937649  0.49948367  0.10229081  1
  Sc  Sc67  1  0.09663847  0.69731377  0.90582816  1
  Sc  Sc68  1  0.29589817  0.29473290  0.29586372  1
  Sc  Sc69  1  0.29333266  0.69752792  0.69106394  1
  Sc  Sc70  1  0.89185008  0.70481681  0.70338473  1
  Sc  Sc71  1  0.09765549  0.69356410  0.70185378  1
  Sc  Sc72  1  0.29488603  0.88875007  0.50130575  1
  Sc  Sc73  1  0.29359226  0.89972211  0.10374543  1
  Sc  Sc74  1  0.70139411  0.91973182  0.50020971  1
  Sc  Sc75  1  0.50735701  0.29834520  0.49945075  1
  Sc  Sc76  1  0.08926154  0.69750411  0.29488392  1
  Sc  Sc77  1  0.51019907  0.30051335  0.11069120  1
  Sc  Sc78  1  0.70034985  0.50901872  0.69574409  1
  Sc  Sc79  1  0.30213646  0.89740588  0.90127355  1
  Sc  Sc80  1  0.90005781  0.70030274  0.10337638  1
  Sc  Sc81  1  0.09864880  0.89703961  0.09777668  1
  Sc  Sc82  1  0.09073102  0.90391163  0.90905752  1
  Sc  Sc83  1  0.90863924  0.50319789  0.70498911  1
  Sc  Sc84  1  0.30132906  0.70172576  0.90768522  1
  Sc  Sc85  1  0.50139153  0.91511944  0.29966439  1
  Sc  Sc86  1  0.29644619  0.70206984  0.30635043  1
  Sc  Sc87  1  0.10156393  0.89661086  0.29039460  1
  Sc  Sc88  1  0.29877727  0.89820336  0.69431205  1
  Sc  Sc89  1  0.49772608  0.29579560  0.29851368  1
  Sc  Sc90  1  0.70126141  0.10129082  0.10201887  1
  Sc  Sc91  1  0.50626574  0.09405500  0.70669060  1
  Sc  Sc92  1  0.11173409  0.10410274  0.30157010  1
  Sc  Sc93  1  0.90382823  0.10137502  0.28900747  1
  Sc  Sc94  1  0.50110034  0.49608346  0.09887850  1
  Sc  Sc95  1  0.70168350  0.90469915  0.70117121  1
  Sc  Sc96  1  0.50026355  0.89272784  0.89306354  1
  Sc  Sc97  1  0.70607994  0.29998731  0.10023464  1
  Sc  Sc98  1  0.70332596  0.70371786  0.08999700  1
  Sc  Sc99  1  0.69807255  0.69860451  0.89797336  1
  Nb  Nb100  1  0.29966937  0.10378820  0.89693679  1
  Nb  Nb101  1  0.70094359  0.09296872  0.30615107  1
  Nb  Nb102  1  0.30176560  0.30192634  0.10019950  1
  Nb  Nb103  1  0.70220379  0.90466992  0.30192879  1
  Nb  Nb104  1  0.11203869  0.10374055  0.90654532  1
  Nb  Nb105  1  0.10116736  0.09629455  0.08585312  1
  Nb  Nb106  1  0.49970102  0.90663730  0.50315107  1
  Nb  Nb107  1  0.69381067  0.10517331  0.89678761  1
  Nb  Nb108  1  0.10283609  0.90241714  0.70578534  1
  Nb  Nb109  1  0.89907937  0.10020072  0.69775740  1
  Nb  Nb110  1  0.49691443  0.69785054  0.89597383  1
  Nb  Nb111  1  0.30246203  0.29626715  0.49943221  1
  Nb  Nb112  1  0.49432015  0.10131445  0.10128131  1
  Nb  Nb113  1  0.50508200  0.71162200  0.70814154  1
  Nb  Nb114  1  0.89816353  0.28603219  0.10075413  1
  Nb  Nb115  1  0.69504316  0.29578355  0.89821873  1
  Nb  Nb116  1  0.90344623  0.11682031  0.09586662  1
  Nb  Nb117  1  0.49973778  0.89156021  0.69217280  1
  Nb  Nb118  1  0.49893194  0.09821428  0.49881883  1
  Nb  Nb119  1  0.10178226  0.29489154  0.70027256  1
  Nb  Nb120  1  0.29749765  0.10484698  0.49772042  1
  Nb  Nb121  1  0.30535600  0.50051195  0.69934080  1
  Nb  Nb122  1  0.90081796  0.70074817  0.30193608  1
  Nb  Nb123  1  0.30153556  0.10223259  0.10216647  1
  Nb  Nb124  1  0.30249674  0.10498910  0.70595519  1
  Nb  Nb125  1  0.59809798  0.79662530  0.20674022  1
  Nb  Nb126  1  0.39929255  0.00399607  0.59726181  1
  Nb  Nb127  1  0.39577813  0.39551762  0.40555719  1
  Nb  Nb128  1  0.39852422  0.19735828  0.00350439  1
  Nb  Nb129  1  0.19753452  0.59525985  0.40391902  1
  Nb  Nb130  1  0.80156071  0.80452970  0.39607342  1
  Nb  Nb131  1  0.80275115  0.39477110  0.60061179  1
  Nb  Nb132  1  0.20055603  0.00384105  0.80160663  1
  Nb  Nb133  1  0.39445890  0.39053863  0.00332407  1
  Nb  Nb134  1  0.60605236  0.39980005  0.80204326  1
  Nb  Nb135  1  0.19333696  0.80683315  0.79958304  1
  Nb  Nb136  1  0.60708489  0.81066526  0.39834486  1
  Nb  Nb137  1  0.39570313  0.00964676  0.00158733  1
  Nb  Nb138  1  0.79570109  0.39285775  0.79582995  1
  Nb  Nb139  1  0.39837110  0.00765614  0.40996525  1
  Nb  Nb140  1  0.40424950  0.60528621  0.19990683  1
  Nb  Nb141  1  0.59430438  0.60921317  0.20140020  1
  Nb  Nb142  1  0.79747803  0.19866914  0.39626962  1
  Nb  Nb143  1  0.40425508  0.60497302  0.79942651  1
  Nb  Nb144  1  0.39620180  0.19304433  0.59664822  1
  Nb  Nb145  1  0.41012935  0.79550391  0.19981331  1
  Nb  Nb146  1  0.59674425  0.19493080  -0.00345373  1
  Nb  Nb147  1  0.80100999  0.39383144  0.40017912  1
  Nb  Nb148  1  0.20617880  0.20079771  0.60334483  1
  Nb  Nb149  1  0.00182684  -0.00207708  0.39926053  1
  Pd  Pd150  1  0.39441803  -0.00801717  0.79683405  1
  Pd  Pd151  1  0.00529289  0.19074032  0.80627429  1
  Pd  Pd152  1  0.40733759  0.41212498  0.81247098  1
  Pd  Pd153  1  -0.00383177  0.79492323  0.00400769  1
  Pd  Pd154  1  0.80553091  0.20207544  0.80528646  1
  Pd  Pd155  1  0.20013678  -0.00751607  0.40042957  1
  Pd  Pd156  1  0.20477624  0.20544637  0.00824070  1
  Pd  Pd157  1  0.00741942  0.00963305  0.80874363  1
  Pd  Pd158  1  0.20611346  0.79430789  0.20161750  1
  Pd  Pd159  1  0.79348563  0.60144193  0.18810498  1
  Pd  Pd160  1  0.20524640  0.40170735  0.40208573  1
  Pd  Pd161  1  0.80195538  0.38831283  -0.00666569  1
  Pd  Pd162  1  -0.00321074  0.59836536  0.00538212  1
  Pd  Pd163  1  0.80387463  0.80015626  -0.00332934  1
  Pd  Pd164  1  -0.00258634  0.60253206  0.60579417  1
  Pd  Pd165  1  0.80830245  0.59487123  0.60517143  1
  Pd  Pd166  1  0.01145171  0.00943472  0.20072981  1
  Pd  Pd167  1  0.38703585  0.79332773  0.79279339  1
  Pd  Pd168  1  0.20581925  0.00647016  0.60625542  1
  Pd  Pd169  1  0.60012708  0.19381118  0.39479749  1
  Pd  Pd170  1  0.19886014  0.59498898  -0.00516269  1
  Pd  Pd171  1  0.00479714  0.79723138  0.60997411  1
  Pd  Pd172  1  0.00549362  0.79444639  0.80000460  1
  Pd  Pd173  1  0.19517027  0.20206622  0.19137438  1
  Pd  Pd174  1  0.20767379  -0.00655383  -0.00379054  1
  Pd  Pd175  1  0.60471796  0.40441751  0.60439342  1
  Pd  Pd176  1  0.00905232  0.59197778  0.39844540  1
  Pd  Pd177  1  0.60264423  0.00279269  0.20067233  1
  Pd  Pd178  1  0.60848794  0.80683564  0.80607781  1
  Pd  Pd179  1  0.40584132  0.61070500  0.60944095  1
  Pd  Pd180  1  0.20666785  0.60676357  0.80318110  1
  Pd  Pd181  1  0.81248642  0.00548844  0.40015551  1
  Pd  Pd182  1  0.40166827  0.40434842  0.20113491  1
  Pd  Pd183  1  0.79985409  0.00110738  0.80010663  1
  Pd  Pd184  1  0.79998581  0.01017983  0.00625670  1
  Pd  Pd185  1  0.79491491  0.80853763  0.59655134  1
  Pd  Pd186  1  0.80201521  0.00930114  0.19418608  1
  Pd  Pd187  1  0.18935238  0.79633668  0.39472259  1
  Pd  Pd188  1  0.00180092  0.80903297  0.39677675  1
  Pd  Pd189  1  0.79163196  0.80526545  0.80362408  1
  Pd  Pd190  1  0.01545856  0.19092370  0.19701460  1
  Pd  Pd191  1  0.39837208  0.81089950  0.00508595  1
  Pd  Pd192  1  0.19601922  0.00346336  0.19573952  1
  Pd  Pd193  1  -0.00246664  0.39705595  0.79759857  1
  Pd  Pd194  1  -0.00424522  0.40743157  0.38922795  1
  Pd  Pd195  1  0.61314073  0.81256478  0.59267901  1
  Pd  Pd196  1  0.19563573  0.40569202  0.79872233  1
  Pd  Pd197  1  0.19477367  0.39365508  0.60324666  1
  Pd  Pd198  1  0.59774226  0.59365944  0.80196204  1
  Pd  Pd199  1  0.79803671  0.79854951  0.20161261  1
  Rh  Rh200  1  0.00662412  0.19759412  -0.00422496  1
  Rh  Rh201  1  0.40142129  0.20210713  0.40187728  1
  Rh  Rh202  1  0.58770093  0.19162109  0.60540765  1
  Rh  Rh203  1  0.39896207  0.20519475  0.19459045  1
  Rh  Rh204  1  -0.00571482  0.39534489  -0.00002163  1
  Rh  Rh205  1  0.60042720  0.79869716  -0.00438471  1
  Rh  Rh206  1  0.01012242  0.19757493  0.59791139  1
  Rh  Rh207  1  0.59381301  0.20300874  0.80363897  1
  Rh  Rh208  1  0.79287358  0.19403608  0.20518621  1
  Rh  Rh209  1  0.40985835  0.81921867  0.39621532  1
  Rh  Rh210  1  0.19489460  0.80360284  -0.00789606  1
  Rh  Rh211  1  0.40563530  0.19832713  0.79721698  1
  Rh  Rh212  1  0.80101479  0.39614084  0.20192067  1
  Rh  Rh213  1  0.20771654  0.60623402  0.20801236  1
  Rh  Rh214  1  0.59425567  0.00845354  0.00012654  1
  Rh  Rh215  1  -0.00041505  0.60303635  0.80084188  1
  Rh  Rh216  1  0.80778658  0.59867835  0.40461346  1
  Rh  Rh217  1  -0.00319647  0.39922938  0.19476016  1
  Rh  Rh218  1  0.38941670  0.58666123  -0.00058662  1
  Rh  Rh219  1  -0.00526176  0.18708340  0.39708121  1
  Rh  Rh220  1  0.00130426  0.00038975  0.59628617  1
  Rh  Rh221  1  0.19543461  0.39106289  0.19455633  1
  Rh  Rh222  1  0.60475974  0.19261990  0.19529472  1
  Rh  Rh223  1  0.20230504  0.39798032  -0.00260180  1
  Rh  Rh224  1  0.60862869  0.60561278  0.00308520  1
  Rh  Rh225  1  0.59304901  0.00008395  0.60891149  1
  Rh  Rh226  1  0.18945223  0.19134913  0.78950347  1
  Rh  Rh227  1  0.19932454  0.20927352  0.40366342  1
  Rh  Rh228  1  0.60118088  0.60989996  0.40574789  1
  Rh  Rh229  1  0.79015694  0.19960155  -0.00342546  1
  Rh  Rh230  1  -0.00317266  0.79801296  0.19378712  1
  Rh  Rh231  1  0.40512678  0.39173177  0.59131694  1
  Rh  Rh232  1  0.59209446  0.38552985  -0.00643110  1
  Rh  Rh233  1  0.60123199  -0.00980382  0.79699951  1
  Rh  Rh234  1  0.80147531  0.60058758  0.00268356  1
  Rh  Rh235  1  0.59641670  0.39675951  0.40013273  1
  Rh  Rh236  1  0.39595817  0.80333903  0.60433960  1
  Rh  Rh237  1  0.80339391  0.00331439  0.60731652  1
  Rh  Rh238  1  0.59242559  0.60560953  0.60002747  1
  Rh  Rh239  1  0.38217732  0.58306930  0.39477048  1
  Rh  Rh240  1  0.39631854  -0.00422375  0.19759428  1
  Rh  Rh241  1  0.19825832  0.59632407  0.59667556  1
  Rh  Rh242  1  0.80303721  0.19841675  0.59393596  1
  Rh  Rh243  1  0.59217034  0.00340179  0.39787219  1
  Rh  Rh244  1  -0.00028951  0.39637418  0.60968385  1
  Rh  Rh245  1  0.19511179  0.79591784  0.60861310  1
  Rh  Rh246  1  0.59783123  0.40732331  0.20278796  1
  Rh  Rh247  1  -0.00157539  0.00689991  -0.00106505  1
  Rh  Rh248  1  0.79884167  0.59327385  0.79745399  1
  Rh  Rh249  1  -0.00473025  0.60042163  0.19288554  1
