# generated using pymatgen
data_ZrScNbPdRh
_symmetry_space_group_name_H-M   'P 1'
_cell_length_a   16.55650801
_cell_length_b   16.55041541
_cell_length_c   16.55750275
_cell_angle_alpha   90.03141806
_cell_angle_beta   89.99207046
_cell_angle_gamma   90.02037039
_symmetry_Int_Tables_number   1
_chemical_formula_structural   ZrScNbPdRh
_chemical_formula_sum   'Zr50 Sc50 Nb50 Pd50 Rh50'
_cell_volume   4537.03763067
_cell_formula_units_Z   50
loop_
 _symmetry_equiv_pos_site_id
 _symmetry_equiv_pos_as_xyz
  1  'x, y, z'
loop_
 _atom_site_type_symbol
 _atom_site_label
 _atom_site_symmetry_multiplicity
 _atom_site_fract_x
 _atom_site_fract_y
 _atom_site_fract_z
 _atom_site_occupancy
  Zr  Zr0  1  0.29942286  0.50235530  0.30000212  1
  Zr  Zr1  1  0.09774576  0.30055236  0.49586713  1
  Zr  Zr2  1  0.69402152  0.30231234  0.30107237  1
  Zr  Zr3  1  0.30203034  0.70047988  0.30275216  1
  Zr  Zr4  1  0.50582290  0.89273208  0.90732388  1
  Zr  Zr5  1  0.09081027  0.69775989  0.09144946  1
  Zr  Zr6  1  0.29888375  0.90332767  0.90046840  1
  Zr  Zr7  1  0.29146955  0.29685926  0.49672448  1
  Zr  Zr8  1  0.50305922  0.49995557  0.68660701  1
  Zr  Zr9  1  0.30308417  0.90194222  0.49553686  1
  Zr  Zr10  1  0.70368046  0.89733966  0.50555652  1
  Zr  Zr11  1  0.30023562  0.49516788  0.90831190  1
  Zr  Zr12  1  0.89713256  0.49176857  0.50007987  1
  Zr  Zr13  1  0.29958890  0.49612262  0.69810304  1
  Zr  Zr14  1  0.09791137  0.70406128  0.69893488  1
  Zr  Zr15  1  0.30445640  0.29679300  0.90370298  1
  Zr  Zr16  1  0.70575633  0.70800004  0.89192011  1
  Zr  Zr17  1  0.30490487  0.10117248  0.69389954  1
  Zr  Zr18  1  0.50016492  0.69582431  0.68929721  1
  Zr  Zr19  1  0.30394221  0.70092649  0.90676226  1
  Zr  Zr20  1  0.09400308  0.90037856  0.10012232  1
  Zr  Zr21  1  0.70115504  0.69676454  0.29843547  1
  Zr  Zr22  1  0.50577289  0.10722956  0.49788370  1
  Zr  Zr23  1  0.69794797  0.70466472  0.70134664  1
  Zr  Zr24  1  0.10043370  0.49691342  0.90948478  1
  Zr  Zr25  1  0.89608639  0.09885293  0.09970350  1
  Zr  Zr26  1  0.50362895  0.10470953  0.69879642  1
  Zr  Zr27  1  0.69671009  0.90198846  0.90042721  1
  Zr  Zr28  1  0.49636642  0.89333261  0.49318836  1
  Zr  Zr29  1  0.70470785  0.50554407  0.29556565  1
  Zr  Zr30  1  0.89872297  0.30492070  0.29277320  1
  Zr  Zr31  1  0.89542803  0.70642185  0.50282917  1
  Zr  Zr32  1  0.30135205  0.29801446  0.70630713  1
  Zr  Zr33  1  0.50613443  0.29379865  0.09387154  1
  Zr  Zr34  1  0.50368429  0.49951727  0.90417572  1
  Zr  Zr35  1  0.50246366  0.50788486  0.10044591  1
  Zr  Zr36  1  0.50326100  0.28753673  0.30030945  1
  Zr  Zr37  1  0.69419958  0.30190595  0.90210633  1
  Zr  Zr38  1  0.30157808  0.10120282  0.30686477  1
  Zr  Zr39  1  0.89675488  0.10238883  0.71313024  1
  Zr  Zr40  1  0.29907596  0.29665316  0.10469281  1
  Zr  Zr41  1  0.09764546  0.30025050  0.10190512  1
  Zr  Zr42  1  0.10122525  0.69834094  0.50210398  1
  Zr  Zr43  1  0.09471130  0.49852655  0.10163117  1
  Zr  Zr44  1  0.90528052  0.48266980  0.69806770  1
  Zr  Zr45  1  0.89399006  0.50069380  0.29650215  1
  Zr  Zr46  1  0.90762642  0.70908519  0.90028434  1
  Zr  Zr47  1  0.10090497  0.69596140  0.30476541  1
  Zr  Zr48  1  0.68793934  0.89743399  0.29826698  1
  Zr  Zr49  1  0.89712852  0.70556381  0.70286964  1
  Sc  Sc50  1  0.29510989  0.09900009  0.50188570  1
  Sc  Sc51  1  0.30093330  0.10238324  0.09799914  1
  Sc  Sc52  1  0.69776763  0.09964551  0.89464107  1
  Sc  Sc53  1  0.30346072  0.90675767  0.69208727  1
  Sc  Sc54  1  0.09919332  0.10499586  0.10345731  1
  Sc  Sc55  1  0.70299640  0.49872696  0.09623404  1
  Sc  Sc56  1  0.50394516  0.89740908  0.10508343  1
  Sc  Sc57  1  0.49815250  0.90345361  0.69408861  1
  Sc  Sc58  1  0.69895184  0.69874725  0.10365657  1
  Sc  Sc59  1  0.89715882  0.89768044  0.28738307  1
  Sc  Sc60  1  0.29859121  0.70220792  0.50022003  1
  Sc  Sc61  1  0.69826294  0.48658466  0.49926661  1
  Sc  Sc62  1  0.69575389  0.90637645  0.09893791  1
  Sc  Sc63  1  0.31396348  0.69564479  0.10346302  1
  Sc  Sc64  1  0.11276010  0.10115115  0.50292178  1
  Sc  Sc65  1  0.50276800  0.09920233  0.09940611  1
  Sc  Sc66  1  0.70065828  0.70506824  0.50017867  1
  Sc  Sc67  1  0.09564203  0.89610025  0.89219913  1
  Sc  Sc68  1  0.50747100  0.49230409  0.29090311  1
  Sc  Sc69  1  0.88856106  0.69810098  0.29899591  1
  Sc  Sc70  1  0.10005274  0.90007829  0.50094704  1
  Sc  Sc71  1  0.10585899  0.29663312  0.90082034  1
  Sc  Sc72  1  0.90190534  0.69911301  0.10206540  1
  Sc  Sc73  1  0.69443925  0.09642257  0.29421314  1
  Sc  Sc74  1  0.10296470  0.49880605  0.30200677  1
  Sc  Sc75  1  0.10776223  0.10065874  0.69711340  1
  Sc  Sc76  1  0.10420661  0.09789059  0.89656317  1
  Sc  Sc77  1  0.49961584  0.70832334  0.29195661  1
  Sc  Sc78  1  0.69406380  0.30489667  0.70415255  1
  Sc  Sc79  1  0.10133307  0.49743757  0.50641329  1
  Sc  Sc80  1  0.50705062  0.70098087  0.90822614  1
  Sc  Sc81  1  0.09514687  0.89732817  0.30712790  1
  Sc  Sc82  1  0.09763400  0.30618173  0.70631519  1
  Sc  Sc83  1  0.29828371  0.70192028  0.68815923  1
  Sc  Sc84  1  0.89358469  0.09924645  0.28600398  1
  Sc  Sc85  1  0.89170424  0.49544118  0.89839684  1
  Sc  Sc86  1  0.10063223  0.90341652  0.70218924  1
  Sc  Sc87  1  0.29292394  0.50090799  0.50360198  1
  Sc  Sc88  1  0.50153779  0.70409248  0.09835599  1
  Sc  Sc89  1  0.30099561  0.50137422  0.10534866  1
  Sc  Sc90  1  0.50420076  0.10684801  0.90024206  1
  Sc  Sc91  1  0.69843341  0.50287823  0.89930174  1
  Sc  Sc92  1  0.89077918  0.09190221  0.51799433  1
  Sc  Sc93  1  0.31022013  0.89956987  0.10209424  1
  Sc  Sc94  1  0.30249956  0.10623051  0.89140549  1
  Sc  Sc95  1  0.50517064  0.29438387  0.89403646  1
  Sc  Sc96  1  0.90092836  0.90763098  0.69865875  1
  Sc  Sc97  1  0.10687505  0.29967886  0.30159852  1
  Sc  Sc98  1  0.69251352  0.09966792  0.50695820  1
  Sc  Sc99  1  0.69971629  0.09309745  0.09421169  1
  Nb  Nb100  1  0.69930723  0.89746153  0.70468747  1
  Nb  Nb101  1  0.10009644  0.09357677  0.31114383  1
  Nb  Nb102  1  0.89923136  0.29758244  0.10246536  1
  Nb  Nb103  1  0.49873552  0.30191424  0.69470735  1
  Nb  Nb104  1  0.69969576  0.50832571  0.69671209  1
  Nb  Nb105  1  0.51768518  0.30596330  0.49863004  1
  Nb  Nb106  1  0.69916762  0.09921582  0.69727105  1
  Nb  Nb107  1  0.89515156  0.30453721  0.50610755  1
  Nb  Nb108  1  0.69627257  0.29524992  0.49899769  1
  Nb  Nb109  1  0.89724580  0.10090521  0.89895629  1
  Nb  Nb110  1  0.90101821  0.90818532  0.89717147  1
  Nb  Nb111  1  0.09925895  0.50513207  0.70452449  1
  Nb  Nb112  1  0.70358776  0.29805732  0.09458491  1
  Nb  Nb113  1  0.49873873  0.09029913  0.29796682  1
  Nb  Nb114  1  0.89776090  0.90578964  0.09397865  1
  Nb  Nb115  1  0.89912707  0.29849792  0.70218703  1
  Nb  Nb116  1  0.89964463  0.48744936  0.10623248  1
  Nb  Nb117  1  0.09891564  0.70013413  0.89975414  1
  Nb  Nb118  1  0.89509278  0.90423024  0.50150629  1
  Nb  Nb119  1  0.50156262  0.49958452  0.50100235  1
  Nb  Nb120  1  0.89963570  0.29263238  0.88497664  1
  Nb  Nb121  1  0.48947552  0.90575220  0.29623411  1
  Nb  Nb122  1  0.30399407  0.30248988  0.30368480  1
  Nb  Nb123  1  0.49560257  0.69155762  0.50472397  1
  Nb  Nb124  1  0.30998049  0.90049879  0.29874433  1
  Nb  Nb125  1  0.40113882  0.79557635  0.79905129  1
  Nb  Nb126  1  -0.01308098  0.38825530  0.00213419  1
  Nb  Nb127  1  0.19673352  0.79812677  0.00361821  1
  Nb  Nb128  1  0.40883614  0.59401802  0.40318038  1
  Nb  Nb129  1  0.20323240  -0.00505652  0.20860827  1
  Nb  Nb130  1  0.80219469  0.00014494  0.40163415  1
  Nb  Nb131  1  0.20030802  0.80239622  0.19842628  1
  Nb  Nb132  1  0.40852765  0.20993210  0.59626856  1
  Nb  Nb133  1  -0.01003511  0.00577137  0.40348112  1
  Nb  Nb134  1  0.19818094  0.60175956  0.80252864  1
  Nb  Nb135  1  0.40371295  0.39545445  0.00424395  1
  Nb  Nb136  1  0.40535366  0.39727529  0.40194581  1
  Nb  Nb137  1  0.80300603  0.19901408  0.40731914  1
  Nb  Nb138  1  0.39687427  0.60077777  0.79892219  1
  Nb  Nb139  1  0.40179227  -0.00031140  -0.00347209  1
  Nb  Nb140  1  -0.00860868  0.20586298  0.59907377  1
  Nb  Nb141  1  -0.01054344  0.19452476  0.40576641  1
  Nb  Nb142  1  0.79957486  0.59538310  0.60451785  1
  Nb  Nb143  1  0.80706001  0.80972368  -0.00339901  1
  Nb  Nb144  1  0.00583028  0.59890954  0.80074088  1
  Nb  Nb145  1  0.59444300  0.59869030  0.40414352  1
  Nb  Nb146  1  -0.00785241  0.00202199  -0.00304513  1
  Nb  Nb147  1  0.79816434  0.20784173  0.60431069  1
  Nb  Nb148  1  -0.00558112  0.60073459  0.40443514  1
  Nb  Nb149  1  0.80938984  0.20551571  -0.00418420  1
  Pd  Pd150  1  0.00167393  0.40174693  0.39594737  1
  Pd  Pd151  1  0.00536497  0.00352432  0.20185679  1
  Pd  Pd152  1  -0.01402597  0.58819117  -0.00519024  1
  Pd  Pd153  1  0.00763183  0.00785646  0.59711703  1
  Pd  Pd154  1  0.59265560  0.60272138  0.80156088  1
  Pd  Pd155  1  0.20086072  0.80686585  0.59947494  1
  Pd  Pd156  1  0.40768266  0.40367525  0.80638054  1
  Pd  Pd157  1  0.80874113  0.59506099  0.79470003  1
  Pd  Pd158  1  0.60903817  0.60650927  -0.00052619  1
  Pd  Pd159  1  0.19757072  0.19227834  0.20918617  1
  Pd  Pd160  1  0.79111424  0.40029785  0.79786213  1
  Pd  Pd161  1  0.59245351  0.79149626  0.39886601  1
  Pd  Pd162  1  0.20048521  0.00170973  0.79572810  1
  Pd  Pd163  1  0.59851568  -0.00711809  0.59948264  1
  Pd  Pd164  1  0.20025797  -0.00376362  0.00769608  1
  Pd  Pd165  1  0.40129823  0.19258324  0.19940731  1
  Pd  Pd166  1  -0.00116588  0.81058834  0.60232507  1
  Pd  Pd167  1  0.20337192  0.80529509  0.39565350  1
  Pd  Pd168  1  0.00585309  0.19762543  0.21109707  1
  Pd  Pd169  1  0.80474420  0.60671778  0.00290387  1
  Pd  Pd170  1  0.59727204  0.80347569  0.60028638  1
  Pd  Pd171  1  0.40824129  -0.00547249  0.80595345  1
  Pd  Pd172  1  0.60636708  0.39846595  0.19109028  1
  Pd  Pd173  1  0.79538428  0.39458465  0.39753639  1
  Pd  Pd174  1  0.20839838  0.79702382  0.80226625  1
  Pd  Pd175  1  0.79463913  -0.00231436  0.79830831  1
  Pd  Pd176  1  0.19322643  0.39569950  0.60443055  1
  Pd  Pd177  1  0.00053431  0.79542567  0.20381207  1
  Pd  Pd178  1  0.80290308  0.39351339  -0.00266899  1
  Pd  Pd179  1  0.19557946  0.40291496  0.80303603  1
  Pd  Pd180  1  0.40211852  0.20428133  0.40739262  1
  Pd  Pd181  1  0.39937742  0.39357856  0.58808791  1
  Pd  Pd182  1  0.19937195  0.40072658  0.20147309  1
  Pd  Pd183  1  0.59872447  0.40525410  0.79465446  1
  Pd  Pd184  1  0.80192512  0.80857200  0.39416530  1
  Pd  Pd185  1  -0.00948780  0.80173392  0.39812354  1
  Pd  Pd186  1  0.60425929  0.00200294  0.40065309  1
  Pd  Pd187  1  0.01045166  0.19560961  0.79487400  1
  Pd  Pd188  1  -0.00489549  0.60101877  0.20845137  1
  Pd  Pd189  1  -0.00731999  0.59650465  0.60003271  1
  Pd  Pd190  1  0.20436235  0.60585449  0.00542621  1
  Pd  Pd191  1  0.60496698  0.19146515  0.19463026  1
  Pd  Pd192  1  0.40376111  0.39713648  0.20049066  1
  Pd  Pd193  1  0.78878118  0.19974082  0.19750298  1
  Pd  Pd194  1  0.19903242  0.19479460  -0.00085023  1
  Pd  Pd195  1  0.19937561  0.60768798  0.19229292  1
  Pd  Pd196  1  0.79496180  0.80500779  0.18897635  1
  Pd  Pd197  1  0.59452248  -0.00015840  0.79932209  1
  Pd  Pd198  1  0.40195272  0.00596554  0.40560501  1
  Pd  Pd199  1  -0.00274232  0.19842382  -0.00624058  1
  Rh  Rh200  1  -0.00102810  0.81178945  -0.00368327  1
  Rh  Rh201  1  0.79182133  -0.00723290  0.20592719  1
  Rh  Rh202  1  0.59625658  0.40070687  0.00320796  1
  Rh  Rh203  1  0.40393278  0.79131967  0.39987923  1
  Rh  Rh204  1  0.40125695  0.19923695  -0.00099053  1
  Rh  Rh205  1  0.00451822  0.40381189  0.81134798  1
  Rh  Rh206  1  0.39722016  0.00627254  0.19252392  1
  Rh  Rh207  1  0.79210119  0.39793280  0.19630896  1
  Rh  Rh208  1  0.20188981  0.39437558  0.00993579  1
  Rh  Rh209  1  0.40018304  0.80285553  0.60012767  1
  Rh  Rh210  1  0.19673240  0.59675025  0.40874861  1
  Rh  Rh211  1  0.40353197  0.59138934  -0.00105782  1
  Rh  Rh212  1  0.79763031  0.59894115  0.41509114  1
  Rh  Rh213  1  0.00862525  0.39400300  0.60222412  1
  Rh  Rh214  1  0.40460571  0.00986463  0.59126005  1
  Rh  Rh215  1  0.59450788  0.00016166  0.19943149  1
  Rh  Rh216  1  0.80299471  0.59658944  0.18793202  1
  Rh  Rh217  1  0.39534563  0.80821337  -0.00345692  1
  Rh  Rh218  1  0.60234679  0.20039696  0.79446628  1
  Rh  Rh219  1  0.60243783  0.20779485  0.60776049  1
  Rh  Rh220  1  0.20024960  0.20649751  0.60716472  1
  Rh  Rh221  1  0.79961802  0.80259458  0.60855471  1
  Rh  Rh222  1  0.59708238  0.40565201  0.39550208  1
  Rh  Rh223  1  0.78848032  0.39784716  0.60821368  1
  Rh  Rh224  1  0.60652883  0.40015563  0.60292923  1
  Rh  Rh225  1  -0.00146473  0.80144249  0.79541804  1
  Rh  Rh226  1  0.20028214  -0.00545111  0.59818378  1
  Rh  Rh227  1  0.39829685  0.80027941  0.20043996  1
  Rh  Rh228  1  0.19667776  -0.00765580  0.39642806  1
  Rh  Rh229  1  0.19526920  0.19979845  0.39492713  1
  Rh  Rh230  1  0.38954353  0.59649293  0.59738930  1
  Rh  Rh231  1  0.80282528  0.00260712  -0.00555789  1
  Rh  Rh232  1  0.20732795  0.40381697  0.39687303  1
  Rh  Rh233  1  0.78903150  0.20104118  0.79958776  1
  Rh  Rh234  1  0.59116507  0.00255871  -0.00130645  1
  Rh  Rh235  1  0.61171487  0.19595988  0.00058369  1
  Rh  Rh236  1  0.00466199  0.00500157  0.80460806  1
  Rh  Rh237  1  0.80493040  0.81352169  0.80170150  1
  Rh  Rh238  1  0.61478656  0.59782759  0.58855702  1
  Rh  Rh239  1  0.58911119  0.79984062  0.79179779  1
  Rh  Rh240  1  0.40695119  0.60092449  0.20792588  1
  Rh  Rh241  1  0.60681403  0.19192335  0.39299518  1
  Rh  Rh242  1  0.59947608  0.60363116  0.20457044  1
  Rh  Rh243  1  0.20039645  0.60045363  0.60387452  1
  Rh  Rh244  1  0.40574806  0.20135744  0.79264902  1
  Rh  Rh245  1  0.59797055  0.80268976  0.19966127  1
  Rh  Rh246  1  0.00417399  0.39854568  0.20016110  1
  Rh  Rh247  1  0.79022550  0.00055112  0.60531225  1
  Rh  Rh248  1  0.19947691  0.19935728  0.79741513  1
  Rh  Rh249  1  0.61575665  0.79663874  0.00589503  1
