# generated using pymatgen
data_ZrScNbPdRh
_symmetry_space_group_name_H-M   'P 1'
_cell_length_a   16.55816895
_cell_length_b   16.56395817
_cell_length_c   16.56065952
_cell_angle_alpha   90.02857068
_cell_angle_beta   89.99006410
_cell_angle_gamma   89.97962151
_symmetry_Int_Tables_number   1
_chemical_formula_structural   ZrScNbPdRh
_chemical_formula_sum   'Zr50 Sc50 Nb50 Pd50 Rh50'
_cell_volume   4542.07158906
_cell_formula_units_Z   50
loop_
 _symmetry_equiv_pos_site_id
 _symmetry_equiv_pos_as_xyz
  1  'x, y, z'
loop_
 _atom_site_type_symbol
 _atom_site_label
 _atom_site_symmetry_multiplicity
 _atom_site_fract_x
 _atom_site_fract_y
 _atom_site_fract_z
 _atom_site_occupancy
  Zr  Zr0  1  0.50256872  0.70056134  0.49529818  1
  Zr  Zr1  1  0.09902793  0.31430326  0.30241585  1
  Zr  Zr2  1  0.71296104  0.69817979  0.49963678  1
  Zr  Zr3  1  0.10301956  0.89721905  0.29996262  1
  Zr  Zr4  1  0.90191546  0.90467672  0.89377118  1
  Zr  Zr5  1  0.69427488  0.70219775  0.69473177  1
  Zr  Zr6  1  0.89840220  0.90003328  0.70322884  1
  Zr  Zr7  1  0.50301268  0.70308190  0.29677451  1
  Zr  Zr8  1  0.90419860  0.10701658  0.70705849  1
  Zr  Zr9  1  0.69790754  0.89773502  0.69821960  1
  Zr  Zr10  1  0.30084455  0.89240798  0.69705251  1
  Zr  Zr11  1  0.70234254  0.49872314  0.49245457  1
  Zr  Zr12  1  0.30605423  0.89986336  0.89849121  1
  Zr  Zr13  1  0.29926851  0.89611601  0.30856715  1
  Zr  Zr14  1  0.10262913  0.89511982  0.10869653  1
  Zr  Zr15  1  0.30062955  0.49381353  0.50563179  1
  Zr  Zr16  1  0.09854584  0.50068462  0.29871020  1
  Zr  Zr17  1  0.50272967  0.49904847  0.09895993  1
  Zr  Zr18  1  0.69809621  0.11025813  0.69520681  1
  Zr  Zr19  1  0.90825037  0.10880565  0.10873948  1
  Zr  Zr20  1  0.90497077  0.69810700  0.90729753  1
  Zr  Zr21  1  0.49405450  0.29592309  0.50232778  1
  Zr  Zr22  1  0.09548291  0.90529107  0.90356893  1
  Zr  Zr23  1  0.28939605  0.30146113  0.69527164  1
  Zr  Zr24  1  0.10373978  0.30448696  0.50675190  1
  Zr  Zr25  1  0.70461171  0.70355146  0.12001030  1
  Zr  Zr26  1  0.49232034  0.90411088  0.49806100  1
  Zr  Zr27  1  0.30262096  0.10339714  0.89715117  1
  Zr  Zr28  1  0.30413250  0.89820611  0.49993564  1
  Zr  Zr29  1  0.29733650  0.69813773  0.09755957  1
  Zr  Zr30  1  0.09933656  0.49729247  0.49596671  1
  Zr  Zr31  1  0.90020786  0.28992976  0.29705436  1
  Zr  Zr32  1  0.29531836  0.49640702  0.30394216  1
  Zr  Zr33  1  0.09902813  0.09610133  0.09439055  1
  Zr  Zr34  1  0.09666068  0.30176343  0.10478257  1
  Zr  Zr35  1  0.09893246  0.69653154  0.70154002  1
  Zr  Zr36  1  0.30830426  0.10457750  0.70339633  1
  Zr  Zr37  1  0.90022540  0.29630852  0.49279953  1
  Zr  Zr38  1  0.52118376  0.29585716  0.69689108  1
  Zr  Zr39  1  0.30890973  0.10816591  0.29657036  1
  Zr  Zr40  1  0.51197625  0.49673515  0.90290750  1
  Zr  Zr41  1  0.50185339  0.69922011  0.09810582  1
  Zr  Zr42  1  0.50257124  0.29265614  0.09357801  1
  Zr  Zr43  1  0.30669191  0.50541852  0.88849014  1
  Zr  Zr44  1  0.09931519  0.69540731  0.50385770  1
  Zr  Zr45  1  0.88045241  0.70523805  0.29345802  1
  Zr  Zr46  1  0.69869312  0.29971390  0.51230573  1
  Zr  Zr47  1  0.69823581  0.90309354  0.89860659  1
  Zr  Zr48  1  0.10549802  0.90464665  0.49247168  1
  Zr  Zr49  1  0.08833137  0.29568548  0.69657259  1
  Sc  Sc50  1  0.08972848  0.09240863  0.31139921  1
  Sc  Sc51  1  0.89361069  0.68893948  0.68520087  1
  Sc  Sc52  1  0.49956519  0.69894539  0.70511993  1
  Sc  Sc53  1  0.89485682  0.30603102  0.88223251  1
  Sc  Sc54  1  0.29872720  0.69867367  0.29894341  1
  Sc  Sc55  1  0.09850204  0.49455994  0.69356663  1
  Sc  Sc56  1  0.50401145  0.09723180  0.30494429  1
  Sc  Sc57  1  0.29752833  0.30990921  0.90128286  1
  Sc  Sc58  1  0.50351226  0.90428683  0.30668335  1
  Sc  Sc59  1  0.88550620  0.90533944  0.49903788  1
  Sc  Sc60  1  0.09349832  0.10980282  0.49946614  1
  Sc  Sc61  1  0.49041447  0.49853332  0.50193895  1
  Sc  Sc62  1  0.90554124  0.89616801  0.10818980  1
  Sc  Sc63  1  0.90864284  0.90530310  0.29678733  1
  Sc  Sc64  1  0.69135025  0.90994875  0.09941406  1
  Sc  Sc65  1  0.09374945  0.89500318  0.71108514  1
  Sc  Sc66  1  0.89816564  0.48508639  0.30792355  1
  Sc  Sc67  1  0.50276651  0.89651503  0.68975437  1
  Sc  Sc68  1  0.49990187  0.51335367  0.30101072  1
  Sc  Sc69  1  0.90051379  0.49075480  0.70032759  1
  Sc  Sc70  1  0.70911893  0.09637344  0.90279226  1
  Sc  Sc71  1  0.70456940  0.28841113  0.30068718  1
  Sc  Sc72  1  0.70091673  0.50318944  0.09116515  1
  Sc  Sc73  1  0.69125986  0.69656856  0.30695109  1
  Sc  Sc74  1  0.69406823  0.10052143  0.10027228  1
  Sc  Sc75  1  0.69411795  0.48621048  0.69610534  1
  Sc  Sc76  1  0.09820013  0.70437277  0.89859951  1
  Sc  Sc77  1  0.31064629  0.10329558  0.10142551  1
  Sc  Sc78  1  0.49618801  0.49545571  0.70080351  1
  Sc  Sc79  1  0.89525936  0.50586583  0.50218917  1
  Sc  Sc80  1  0.70103449  0.30629985  0.89604145  1
  Sc  Sc81  1  0.69413613  0.10187188  0.30246898  1
  Sc  Sc82  1  0.11262587  0.70682260  0.28835361  1
  Sc  Sc83  1  0.30052995  0.69988482  0.50880554  1
  Sc  Sc84  1  0.29364866  0.49871265  0.08867887  1
  Sc  Sc85  1  0.70321632  0.50695163  0.29891575  1
  Sc  Sc86  1  0.49661164  0.28388101  0.30249001  1
  Sc  Sc87  1  0.69344015  0.90228654  0.50733685  1
  Sc  Sc88  1  0.50395329  0.30351192  0.90050857  1
  Sc  Sc89  1  0.49986230  0.89129653  0.90852652  1
  Sc  Sc90  1  0.67739650  0.70092209  0.89608980  1
  Sc  Sc91  1  0.31120603  0.90925098  0.09420547  1
  Sc  Sc92  1  0.89763815  0.69888324  0.10083051  1
  Sc  Sc93  1  0.69617663  0.28986408  0.09591133  1
  Sc  Sc94  1  0.10088267  0.50120896  0.09841555  1
  Sc  Sc95  1  0.69302572  0.89968629  0.29538967  1
  Sc  Sc96  1  0.10163528  0.49476697  0.90545339  1
  Sc  Sc97  1  0.10287406  0.30418281  0.89204803  1
  Sc  Sc98  1  0.31493929  0.09950949  0.50427392  1
  Sc  Sc99  1  0.09849314  0.69697656  0.09840830  1
  Nb  Nb100  1  0.49695393  0.10697131  0.70074096  1
  Nb  Nb101  1  0.70219068  0.09556615  0.49646920  1
  Nb  Nb102  1  0.50287158  0.90327239  0.10665673  1
  Nb  Nb103  1  0.50364089  0.09746690  0.10156292  1
  Nb  Nb104  1  0.30661128  0.51026362  0.70007487  1
  Nb  Nb105  1  0.71586619  0.29629086  0.70323106  1
  Nb  Nb106  1  0.09814190  0.09941287  0.89898413  1
  Nb  Nb107  1  0.70509685  0.49688955  0.89825069  1
  Nb  Nb108  1  0.49051633  0.69962591  0.90293120  1
  Nb  Nb109  1  0.89548040  0.50541604  0.09287985  1
  Nb  Nb110  1  0.89050662  0.29628791  0.69872779  1
  Nb  Nb111  1  0.30074272  0.29751652  0.29534226  1
  Nb  Nb112  1  0.49499035  0.10524976  0.89000249  1
  Nb  Nb113  1  0.31051217  0.70343171  0.89392495  1
  Nb  Nb114  1  0.89305049  0.50147468  0.90633812  1
  Nb  Nb115  1  0.10449741  0.10792613  0.70022640  1
  Nb  Nb116  1  0.30094471  0.68578390  0.71649880  1
  Nb  Nb117  1  0.30302403  0.30318673  0.49298994  1
  Nb  Nb118  1  0.50140453  0.09984270  0.50589855  1
  Nb  Nb119  1  0.90387976  0.10002591  0.48404792  1
  Nb  Nb120  1  0.90341667  0.29913767  0.10570418  1
  Nb  Nb121  1  0.29674274  0.29341214  0.10843683  1
  Nb  Nb122  1  0.89400683  0.10291108  0.30746237  1
  Nb  Nb123  1  0.90702023  0.09687737  0.90398692  1
  Nb  Nb124  1  0.89807992  0.70001854  0.49792555  1
  Nb  Nb125  1  0.80473364  0.01004611  0.20344801  1
  Nb  Nb126  1  0.39982032  0.39354506  0.19866276  1
  Nb  Nb127  1  -0.01310780  0.39908610  0.00265924  1
  Nb  Nb128  1  -0.00369611  0.60865135  0.39425006  1
  Nb  Nb129  1  0.79587942  0.80320586  -0.00453171  1
  Nb  Nb130  1  -0.00343997  0.79340333  0.40333320  1
  Nb  Nb131  1  0.20827761  0.80201457  -0.00450236  1
  Nb  Nb132  1  0.19779576  0.19969738  0.00259948  1
  Nb  Nb133  1  -0.00839792  0.59413253  0.80541853  1
  Nb  Nb134  1  0.60040221  0.59906884  0.59494224  1
  Nb  Nb135  1  0.00197444  0.00302218  0.60086130  1
  Nb  Nb136  1  0.81503292  0.19975552  -0.00109524  1
  Nb  Nb137  1  0.40562148  0.80267254  0.19641021  1
  Nb  Nb138  1  0.80060988  0.39525196  0.19185988  1
  Nb  Nb139  1  0.59856184  0.39693018  0.20313293  1
  Nb  Nb140  1  0.20219631  0.00069340  0.20342608  1
  Nb  Nb141  1  0.79625000  0.59673596  0.80559142  1
  Nb  Nb142  1  0.59046640  0.00965888  0.79780889  1
  Nb  Nb143  1  0.20809916  0.20925279  0.39788881  1
  Nb  Nb144  1  0.19801096  0.00641997  0.79853691  1
  Nb  Nb145  1  0.19576884  0.00394888  0.60763995  1
  Nb  Nb146  1  -0.00377264  0.80291235  0.59263043  1
  Nb  Nb147  1  0.59883954  0.39701499  0.39616765  1
  Nb  Nb148  1  0.79858081  0.79187512  0.80380556  1
  Nb  Nb149  1  -0.00720888  0.59604381  0.20466761  1
  Pd  Pd150  1  0.19352801  0.80327256  0.60319608  1
  Pd  Pd151  1  0.20518562  0.00174346  0.00105112  1
  Pd  Pd152  1  0.40048443  0.78779433  0.60623127  1
  Pd  Pd153  1  -0.00023796  0.20293324  0.80679697  1
  Pd  Pd154  1  0.80877080  0.19066458  0.59069901  1
  Pd  Pd155  1  0.40047928  0.39306290  0.61024763  1
  Pd  Pd156  1  0.60995262  0.19850993  0.80915239  1
  Pd  Pd157  1  0.59466768  0.00580575  0.60371922  1
  Pd  Pd158  1  0.39205403  0.59687464  0.19754801  1
  Pd  Pd159  1  0.41198916  0.00574468  -0.00344521  1
  Pd  Pd160  1  0.18836535  0.59355512  0.80573741  1
  Pd  Pd161  1  0.39304940  0.60479668  0.40223127  1
  Pd  Pd162  1  0.81104134  0.00076776  0.01335766  1
  Pd  Pd163  1  0.19696955  0.40688848  0.79163824  1
  Pd  Pd164  1  0.20985985  0.01747426  0.40292663  1
  Pd  Pd165  1  0.01214977  0.19431936  0.21264926  1
  Pd  Pd166  1  0.59977921  0.59134800  0.79188704  1
  Pd  Pd167  1  0.00085599  0.80248030  0.00655171  1
  Pd  Pd168  1  0.40006766  0.59545847  -0.00351671  1
  Pd  Pd169  1  0.60270956  0.20154303  0.40821312  1
  Pd  Pd170  1  0.60665583  0.60480760  0.00441042  1
  Pd  Pd171  1  0.39898191  0.21931058  0.79884671  1
  Pd  Pd172  1  0.80701797  0.01063296  0.60120213  1
  Pd  Pd173  1  0.60541592  0.80546467  0.40527950  1
  Pd  Pd174  1  0.40112718  -0.00432635  0.20795311  1
  Pd  Pd175  1  0.39578725  0.39681853  0.00528881  1
  Pd  Pd176  1  0.79285439  0.00414927  0.79429930  1
  Pd  Pd177  1  0.39502480  0.20313014  -0.00178562  1
  Pd  Pd178  1  0.20828058  0.19418124  0.58815991  1
  Pd  Pd179  1  0.40918607  0.39881357  0.38662024  1
  Pd  Pd180  1  0.40932493  0.80300190  0.79392098  1
  Pd  Pd181  1  0.19851937  0.60802474  -0.01141612  1
  Pd  Pd182  1  0.20262100  0.59476717  0.60365520  1
  Pd  Pd183  1  0.60469292  0.79816770  0.00751011  1
  Pd  Pd184  1  0.78508287  0.61500483  -0.00500324  1
  Pd  Pd185  1  0.19891152  0.60525086  0.39939509  1
  Pd  Pd186  1  0.00104264  0.21263934  -0.01290003  1
  Pd  Pd187  1  0.79743130  0.81137451  0.39611527  1
  Pd  Pd188  1  -0.00678982  -0.00667751  0.00777004  1
  Pd  Pd189  1  0.20656246  0.40652670  0.19318126  1
  Pd  Pd190  1  0.80576850  0.40321289  0.59914998  1
  Pd  Pd191  1  -0.01009662  0.39924610  0.59542997  1
  Pd  Pd192  1  0.58950653  0.00855669  -0.00954985  1
  Pd  Pd193  1  0.60619587  0.19312535  -0.01149497  1
  Pd  Pd194  1  0.18958986  0.18942472  0.20435419  1
  Pd  Pd195  1  0.40495806  0.39399072  0.79377991  1
  Pd  Pd196  1  0.79924804  0.38788449  0.00442961  1
  Pd  Pd197  1  0.20018969  0.80335125  0.80664758  1
  Pd  Pd198  1  0.40564695  -0.00922358  0.79457890  1
  Pd  Pd199  1  0.79165483  -0.00532401  0.39025873  1
  Rh  Rh200  1  0.19306573  0.38729976  0.00441511  1
  Rh  Rh201  1  0.00613821  0.59109240  0.00147111  1
  Rh  Rh202  1  0.39915791  0.79350953  0.39278862  1
  Rh  Rh203  1  0.00036704  0.00765201  0.20442399  1
  Rh  Rh204  1  0.79979985  0.19441694  0.80951851  1
  Rh  Rh205  1  0.40037672  0.20700857  0.60367534  1
  Rh  Rh206  1  0.40379835  0.60461646  0.60471533  1
  Rh  Rh207  1  0.79791425  0.40727082  0.79503548  1
  Rh  Rh208  1  -0.01250242  0.41302352  0.19021430  1
  Rh  Rh209  1  0.59421484  0.80393869  0.19949346  1
  Rh  Rh210  1  0.59757057  0.59300064  0.40867047  1
  Rh  Rh211  1  0.01028836  0.20936340  0.39727885  1
  Rh  Rh212  1  0.21916302  0.81215736  0.18714804  1
  Rh  Rh213  1  0.80488689  0.80380695  0.60378933  1
  Rh  Rh214  1  0.60200897  0.19400967  0.59336145  1
  Rh  Rh215  1  0.01024510  0.01027335  0.79244528  1
  Rh  Rh216  1  0.60500046  0.39703565  0.79911572  1
  Rh  Rh217  1  0.59652738  0.79221756  0.59179562  1
  Rh  Rh218  1  0.79188330  0.19879479  0.40764651  1
  Rh  Rh219  1  0.00025698  0.59983699  0.59911601  1
  Rh  Rh220  1  0.20416011  0.40495803  0.60405586  1
  Rh  Rh221  1  0.40010947  0.00150881  0.60570559  1
  Rh  Rh222  1  0.78912565  0.58920342  0.60691466  1
  Rh  Rh223  1  0.79437459  0.19690160  0.19263425  1
  Rh  Rh224  1  0.19602731  0.59293961  0.19920173  1
  Rh  Rh225  1  0.80742142  0.59800105  0.39399012  1
  Rh  Rh226  1  -0.01550920  0.78116313  0.78536246  1
  Rh  Rh227  1  0.39801379  0.79720911  0.00914301  1
  Rh  Rh228  1  0.59572848  0.81013386  0.80149014  1
  Rh  Rh229  1  0.39686512  0.19659820  0.40517947  1
  Rh  Rh230  1  0.60133631  0.00137369  0.40749007  1
  Rh  Rh231  1  -0.00647108  -0.01056896  0.40701462  1
  Rh  Rh232  1  0.60444490  0.59111587  0.19682613  1
  Rh  Rh233  1  0.59580723  0.19862360  0.19953689  1
  Rh  Rh234  1  0.59497448  0.40625638  0.59001920  1
  Rh  Rh235  1  0.79044276  0.38939717  0.39271853  1
  Rh  Rh236  1  0.60258064  0.00646390  0.20251311  1
  Rh  Rh237  1  0.19916503  0.79126913  0.40730596  1
  Rh  Rh238  1  -0.00993961  0.19565943  0.59675594  1
  Rh  Rh239  1  0.41373618  0.59692048  0.80337299  1
  Rh  Rh240  1  0.19898367  0.19724695  0.80996253  1
  Rh  Rh241  1  0.79472813  0.81916139  0.19258368  1
  Rh  Rh242  1  0.80505010  0.58663018  0.20429348  1
  Rh  Rh243  1  -0.00489583  0.78358560  0.20781824  1
  Rh  Rh244  1  -0.00407290  0.40246436  0.40863597  1
  Rh  Rh245  1  0.41080831  0.20182087  0.19392141  1
  Rh  Rh246  1  0.40340201  0.00544937  0.39888117  1
  Rh  Rh247  1  0.20442689  0.39571748  0.40226844  1
  Rh  Rh248  1  0.60792514  0.39895955  0.00422513  1
  Rh  Rh249  1  -0.00334748  0.40677182  0.80451234  1
