# generated using pymatgen
data_ZrScNbPdRh
_symmetry_space_group_name_H-M   'P 1'
_cell_length_a   16.56674771
_cell_length_b   16.56350318
_cell_length_c   16.56531967
_cell_angle_alpha   89.99923946
_cell_angle_beta   89.98723210
_cell_angle_gamma   90.02577667
_symmetry_Int_Tables_number   1
_chemical_formula_structural   ZrScNbPdRh
_chemical_formula_sum   'Zr50 Sc50 Nb50 Pd50 Rh50'
_cell_volume   4545.57910527
_cell_formula_units_Z   50
loop_
 _symmetry_equiv_pos_site_id
 _symmetry_equiv_pos_as_xyz
  1  'x, y, z'
loop_
 _atom_site_type_symbol
 _atom_site_label
 _atom_site_symmetry_multiplicity
 _atom_site_fract_x
 _atom_site_fract_y
 _atom_site_fract_z
 _atom_site_occupancy
  Zr  Zr0  1  0.10226030  0.50452015  0.70608106  1
  Zr  Zr1  1  0.89581528  0.70358792  0.29823317  1
  Zr  Zr2  1  0.09844177  0.50166225  0.89668847  1
  Zr  Zr3  1  0.10507200  0.70082291  0.09338455  1
  Zr  Zr4  1  0.30361878  0.90498394  0.29860223  1
  Zr  Zr5  1  0.69828707  0.50173193  0.70644914  1
  Zr  Zr6  1  0.09159458  0.29477526  0.70496833  1
  Zr  Zr7  1  0.29403733  0.90080812  0.09361947  1
  Zr  Zr8  1  0.09389438  0.90920071  0.50555866  1
  Zr  Zr9  1  0.89182910  0.89784353  0.50863027  1
  Zr  Zr10  1  0.09691731  0.70515752  0.70056966  1
  Zr  Zr11  1  0.90573601  0.90975569  0.29882258  1
  Zr  Zr12  1  0.90085261  0.09959033  0.09811728  1
  Zr  Zr13  1  0.30634986  0.08701204  0.89448003  1
  Zr  Zr14  1  0.29895943  0.69945787  0.29910044  1
  Zr  Zr15  1  0.49529283  0.29444392  0.09544128  1
  Zr  Zr16  1  0.69283944  0.09705546  0.09975682  1
  Zr  Zr17  1  0.30196847  0.30798141  0.89229240  1
  Zr  Zr18  1  0.50347111  0.70463882  0.09492399  1
  Zr  Zr19  1  0.49891469  0.09941832  0.49984816  1
  Zr  Zr20  1  0.69461726  0.50126395  0.50234811  1
  Zr  Zr21  1  0.10040269  0.89846931  0.90038049  1
  Zr  Zr22  1  0.69676450  0.30178269  0.89919403  1
  Zr  Zr23  1  0.29240860  0.90170414  0.71115075  1
  Zr  Zr24  1  0.50737910  0.90428818  0.09951960  1
  Zr  Zr25  1  0.50768158  0.50298783  0.69755997  1
  Zr  Zr26  1  0.90395153  0.29572848  0.89269518  1
  Zr  Zr27  1  0.09792681  0.30788932  0.89938516  1
  Zr  Zr28  1  0.89646382  0.49844481  0.70175297  1
  Zr  Zr29  1  0.90381480  0.70119459  0.50615448  1
  Zr  Zr30  1  0.29634606  0.09600387  0.29578447  1
  Zr  Zr31  1  0.70026785  0.89772004  0.09604665  1
  Zr  Zr32  1  0.30332556  0.49490630  0.70224928  1
  Zr  Zr33  1  0.10484834  0.69316349  0.30688879  1
  Zr  Zr34  1  0.50852528  0.50159754  0.30004031  1
  Zr  Zr35  1  0.50417458  0.70106790  0.90164349  1
  Zr  Zr36  1  0.69402701  0.50444017  0.29846235  1
  Zr  Zr37  1  0.29981934  0.50244350  0.09428839  1
  Zr  Zr38  1  0.69592632  0.69864375  0.69939251  1
  Zr  Zr39  1  0.50308686  0.69749293  0.30980253  1
  Zr  Zr40  1  0.30677580  0.69948830  0.49168284  1
  Zr  Zr41  1  0.49877334  0.89964349  0.30189967  1
  Zr  Zr42  1  0.49757953  0.89490753  0.50120269  1
  Zr  Zr43  1  0.29858888  0.09490340  0.09534773  1
  Zr  Zr44  1  0.90094079  0.50692852  0.89814481  1
  Zr  Zr45  1  0.29118453  0.29664922  0.28702480  1
  Zr  Zr46  1  0.49234600  0.10164381  0.69978719  1
  Zr  Zr47  1  0.30697844  0.70553652  0.90621911  1
  Zr  Zr48  1  0.29553666  0.49724462  0.50536830  1
  Zr  Zr49  1  0.49977545  0.30177157  0.89949953  1
  Sc  Sc50  1  0.29893270  0.30147856  0.68886508  1
  Sc  Sc51  1  0.68938023  0.29299992  0.09829312  1
  Sc  Sc52  1  0.70566580  0.89902155  0.90182987  1
  Sc  Sc53  1  0.49683501  0.88845737  0.70144418  1
  Sc  Sc54  1  0.09808741  0.69752818  0.50838369  1
  Sc  Sc55  1  0.49599759  0.28805823  0.50244306  1
  Sc  Sc56  1  0.09886063  0.69690397  0.89798946  1
  Sc  Sc57  1  0.69606015  0.29336865  0.50321297  1
  Sc  Sc58  1  0.29642825  0.70458280  0.70106130  1
  Sc  Sc59  1  0.29919352  0.89883206  0.89927340  1
  Sc  Sc60  1  0.89996178  0.09101181  0.50303362  1
  Sc  Sc61  1  0.70681043  0.89252306  0.29464191  1
  Sc  Sc62  1  0.49732053  0.09326166  0.29658521  1
  Sc  Sc63  1  0.91334503  0.30039593  0.10178869  1
  Sc  Sc64  1  0.90049712  0.70077052  0.90007236  1
  Sc  Sc65  1  0.50071356  0.51017063  0.50067871  1
  Sc  Sc66  1  0.71213417  0.10672775  0.69205831  1
  Sc  Sc67  1  0.50403920  0.50050979  0.09188413  1
  Sc  Sc68  1  0.29554416  0.30868689  0.09638718  1
  Sc  Sc69  1  0.09605996  0.29379922  0.51164560  1
  Sc  Sc70  1  0.10395373  0.30181282  0.10865035  1
  Sc  Sc71  1  0.70037054  0.70606608  0.09791393  1
  Sc  Sc72  1  0.49576701  0.30619266  0.70216833  1
  Sc  Sc73  1  0.30522581  0.90484731  0.50113571  1
  Sc  Sc74  1  0.10209015  0.09440873  0.69351595  1
  Sc  Sc75  1  0.89881098  0.89697688  0.09099676  1
  Sc  Sc76  1  0.70962782  0.89438858  0.70204329  1
  Sc  Sc77  1  0.09251002  0.09257366  0.89785718  1
  Sc  Sc78  1  0.89949803  0.09691445  0.90269012  1
  Sc  Sc79  1  0.70834680  0.30339107  0.69876181  1
  Sc  Sc80  1  0.09810273  0.09659643  0.10328237  1
  Sc  Sc81  1  0.90918089  0.50065438  0.50193471  1
  Sc  Sc82  1  0.09896791  0.89988240  0.70249872  1
  Sc  Sc83  1  0.68660548  0.30264041  0.29998572  1
  Sc  Sc84  1  0.29659225  0.50004425  0.90032293  1
  Sc  Sc85  1  0.29172903  0.50330713  0.29981738  1
  Sc  Sc86  1  0.29769624  0.09613672  0.69732274  1
  Sc  Sc87  1  0.89839028  0.70035716  0.70132369  1
  Sc  Sc88  1  0.90659325  0.30403271  0.50689202  1
  Sc  Sc89  1  0.49834280  0.29759929  0.29809042  1
  Sc  Sc90  1  0.10065586  0.49951872  0.09049067  1
  Sc  Sc91  1  0.69640107  0.69878014  0.28870004  1
  Sc  Sc92  1  0.08926009  0.49467523  0.30925441  1
  Sc  Sc93  1  0.49323490  0.89682806  0.90104141  1
  Sc  Sc94  1  0.30375667  0.10242504  0.50730939  1
  Sc  Sc95  1  0.29584505  0.69785742  0.09227986  1
  Sc  Sc96  1  0.89291097  0.70343782  0.09390310  1
  Sc  Sc97  1  0.09544824  0.50638478  0.50056654  1
  Sc  Sc98  1  0.70382115  0.09780243  0.91524135  1
  Sc  Sc99  1  0.90456891  0.50595949  0.09825819  1
  Nb  Nb100  1  0.09155304  0.29150193  0.29844681  1
  Nb  Nb101  1  0.10468302  0.09841917  0.49785657  1
  Nb  Nb102  1  0.69447539  0.50092112  0.89917216  1
  Nb  Nb103  1  0.49776112  0.09832286  0.89994115  1
  Nb  Nb104  1  0.90946103  0.10529393  0.29674315  1
  Nb  Nb105  1  0.10090201  0.89738451  0.10178493  1
  Nb  Nb106  1  0.91269554  0.30501635  0.29860931  1
  Nb  Nb107  1  0.70581154  0.70891166  0.50583333  1
  Nb  Nb108  1  0.29512516  0.29587047  0.49389256  1
  Nb  Nb109  1  0.70079689  0.69596196  0.89723854  1
  Nb  Nb110  1  0.90227507  0.49789457  0.30378602  1
  Nb  Nb111  1  0.09974483  0.90720211  0.30105486  1
  Nb  Nb112  1  0.70321262  0.09495578  0.49915420  1
  Nb  Nb113  1  0.08881065  0.09421922  0.30393465  1
  Nb  Nb114  1  0.70771024  0.10211716  0.30257267  1
  Nb  Nb115  1  0.50062329  0.09647836  0.08845811  1
  Nb  Nb116  1  0.70574069  0.50090144  0.10255266  1
  Nb  Nb117  1  0.90220572  0.29145682  0.70589779  1
  Nb  Nb118  1  0.50555727  0.70441102  0.50775763  1
  Nb  Nb119  1  0.90015671  0.90825930  0.70704829  1
  Nb  Nb120  1  0.89835348  0.90473143  0.89216284  1
  Nb  Nb121  1  0.90221627  0.10311525  0.70964621  1
  Nb  Nb122  1  0.50951773  0.50068930  0.89151796  1
  Nb  Nb123  1  0.50398254  0.69967200  0.69897704  1
  Nb  Nb124  1  0.70462959  0.90191502  0.50642161  1
  Nb  Nb125  1  0.00003920  0.60608519  0.20225782  1
  Nb  Nb126  1  0.39836583  0.19367133  0.19061527  1
  Nb  Nb127  1  0.40260285  0.60294955  0.19843000  1
  Nb  Nb128  1  0.19748747  0.38723899  0.40142528  1
  Nb  Nb129  1  0.39976260  0.79753713  0.19928152  1
  Nb  Nb130  1  0.41050712  0.60122066  0.80033847  1
  Nb  Nb131  1  0.00932805  0.80254386  0.20215598  1
  Nb  Nb132  1  0.18955790  0.19667370  0.39621476  1
  Nb  Nb133  1  0.20187165  0.19885562  -0.00878616  1
  Nb  Nb134  1  0.19463051  0.80738757  0.39792355  1
  Nb  Nb135  1  0.80559545  0.20206386  0.39174446  1
  Nb  Nb136  1  0.59843632  0.00713886  0.79640720  1
  Nb  Nb137  1  0.79854333  0.59731717  0.40059732  1
  Nb  Nb138  1  0.80274172  0.01004786  0.20141877  1
  Nb  Nb139  1  0.59751037  0.19331497  0.80303949  1
  Nb  Nb140  1  0.60597222  0.80229514  0.41137851  1
  Nb  Nb141  1  0.80397751  0.39861982  0.39263626  1
  Nb  Nb142  1  0.60547713  -0.00203126  0.59932999  1
  Nb  Nb143  1  0.39105259  0.39544296  0.40057117  1
  Nb  Nb144  1  0.19965062  0.19995080  0.80389982  1
  Nb  Nb145  1  0.00431176  0.80591340  0.39732111  1
  Nb  Nb146  1  0.61178615  -0.00203439  0.40595127  1
  Nb  Nb147  1  0.80434372  0.20298414  0.20866851  1
  Nb  Nb148  1  0.80200025  0.39862541  0.20155188  1
  Nb  Nb149  1  0.79532681  0.40483930  0.00251423  1
  Pd  Pd150  1  0.39195332  0.79796195  0.60615312  1
  Pd  Pd151  1  0.79244357  0.19229306  0.80676528  1
  Pd  Pd152  1  0.59552331  0.39390900  0.59707211  1
  Pd  Pd153  1  0.40768194  0.39620728  0.58964205  1
  Pd  Pd154  1  0.01078807  0.20055842  0.00171321  1
  Pd  Pd155  1  0.60372937  0.40212899  0.00470417  1
  Pd  Pd156  1  0.79965062  0.59747736  0.59521034  1
  Pd  Pd157  1  0.39569431  0.20332494  0.79423912  1
  Pd  Pd158  1  0.19468125  0.59108419  0.19704992  1
  Pd  Pd159  1  0.20994250  0.60711877  0.80386862  1
  Pd  Pd160  1  0.40264941  0.40829764  -0.00715473  1
  Pd  Pd161  1  0.60732806  0.60104057  0.00371679  1
  Pd  Pd162  1  0.40423562  0.40406362  0.20500459  1
  Pd  Pd163  1  0.19265394  0.00233819  0.19813415  1
  Pd  Pd164  1  0.60774925  0.00084583  0.20967089  1
  Pd  Pd165  1  0.80225079  0.40088235  0.80646981  1
  Pd  Pd166  1  -0.00548287  0.40232295  0.00236384  1
  Pd  Pd167  1  0.59219735  0.39213238  0.40996751  1
  Pd  Pd168  1  -0.00624939  0.18837349  0.60081543  1
  Pd  Pd169  1  0.80672287  0.59548384  0.20220523  1
  Pd  Pd170  1  0.79879155  0.79601794  0.39738784  1
  Pd  Pd171  1  0.60373160  0.19387753  0.39798737  1
  Pd  Pd172  1  0.80215543  0.00367774  0.39453604  1
  Pd  Pd173  1  0.39084454  0.19981280  0.00072037  1
  Pd  Pd174  1  0.39862221  0.58826755  0.39565411  1
  Pd  Pd175  1  0.20088419  0.80277002  0.20434297  1
  Pd  Pd176  1  0.79116386  0.00920707  0.80071817  1
  Pd  Pd177  1  0.80172462  0.39723293  0.59375323  1
  Pd  Pd178  1  0.60221022  0.80920228  0.80311427  1
  Pd  Pd179  1  0.60090675  0.39901592  0.19050851  1
  Pd  Pd180  1  -0.00255278  0.80113651  0.79974371  1
  Pd  Pd181  1  0.80292597  0.21209517  0.00983797  1
  Pd  Pd182  1  0.00337253  0.40487488  0.60672725  1
  Pd  Pd183  1  -0.00255782  0.79840105  -0.00023606  1
  Pd  Pd184  1  0.18732842  0.41040551  0.20533618  1
  Pd  Pd185  1  0.60032215  0.19622974  0.60958477  1
  Pd  Pd186  1  0.20191124  0.60376332  0.60052837  1
  Pd  Pd187  1  0.40237336  -0.00647682  0.60617833  1
  Pd  Pd188  1  -0.00056211  -0.00542329  0.00122467  1
  Pd  Pd189  1  0.18999755  0.39666071  0.59855115  1
  Pd  Pd190  1  0.20339815  0.80435685  0.59083280  1
  Pd  Pd191  1  0.39899502  0.60659675  0.60769739  1
  Pd  Pd192  1  -0.00233256  0.19977479  0.41136895  1
  Pd  Pd193  1  0.79534554  0.59909766  -0.00369413  1
  Pd  Pd194  1  0.20450286  0.00229767  0.40637499  1
  Pd  Pd195  1  0.80969819  0.20225826  0.59125229  1
  Pd  Pd196  1  0.80356532  0.79445746  0.80183132  1
  Pd  Pd197  1  0.39154947  0.20059570  0.38920809  1
  Pd  Pd198  1  0.59293866  0.19307671  0.20381849  1
  Pd  Pd199  1  -0.00528747  0.00445508  0.60706521  1
  Rh  Rh200  1  0.19873768  0.59797856  -0.00835211  1
  Rh  Rh201  1  -0.00985533  0.61072225  0.39755776  1
  Rh  Rh202  1  0.80648105  0.81015701  0.19233675  1
  Rh  Rh203  1  0.79898177  0.79974016  -0.00968093  1
  Rh  Rh204  1  0.00425131  0.39176557  0.40627465  1
  Rh  Rh205  1  0.40032237  0.80008666  0.39649599  1
  Rh  Rh206  1  0.40396282  -0.00675273  0.00075136  1
  Rh  Rh207  1  0.19824820  0.39575146  -0.00106812  1
  Rh  Rh208  1  0.59533187  -0.00439335  -0.01270391  1
  Rh  Rh209  1  0.19989387  0.39353770  0.79186861  1
  Rh  Rh210  1  -0.00534507  0.80671178  0.60345033  1
  Rh  Rh211  1  0.00502435  0.19035497  0.80045616  1
  Rh  Rh212  1  0.61145226  0.61546039  0.41321484  1
  Rh  Rh213  1  0.40411892  0.41103525  0.80171643  1
  Rh  Rh214  1  0.20261088  -0.00176143  0.59959410  1
  Rh  Rh215  1  -0.00645159  0.40295920  0.79534397  1
  Rh  Rh216  1  0.00082797  0.60642384  0.00437255  1
  Rh  Rh217  1  0.80104386  0.00085852  0.61164515  1
  Rh  Rh218  1  0.59989596  0.60518873  0.80112771  1
  Rh  Rh219  1  0.19320490  0.00207835  -0.00336483  1
  Rh  Rh220  1  0.00290015  0.19675738  0.19472054  1
  Rh  Rh221  1  0.00080569  0.41244131  0.19676014  1
  Rh  Rh222  1  0.60278816  0.39130683  0.79443888  1
  Rh  Rh223  1  -0.00104318  0.00014433  0.79752856  1
  Rh  Rh224  1  0.39983199  0.79156285  0.79690573  1
  Rh  Rh225  1  0.19695709  0.80257668  -0.00717914  1
  Rh  Rh226  1  0.80532147  0.80108573  0.61195184  1
  Rh  Rh227  1  -0.00031920  0.59764328  0.61018813  1
  Rh  Rh228  1  0.40363266  0.59296496  -0.00512072  1
  Rh  Rh229  1  0.40218663  -0.00052428  0.18721491  1
  Rh  Rh230  1  0.19999336  0.59558476  0.40978969  1
  Rh  Rh231  1  0.19440509  0.00426789  0.80027902  1
  Rh  Rh232  1  0.59331762  0.60213338  0.18844692  1
  Rh  Rh233  1  -0.00316660  0.60323201  0.79690840  1
  Rh  Rh234  1  0.80404999  -0.00585776  0.00346190  1
  Rh  Rh235  1  0.19724899  0.18973939  0.19907462  1
  Rh  Rh236  1  0.79695443  0.60231668  0.80223616  1
  Rh  Rh237  1  0.19706677  0.79777760  0.80573811  1
  Rh  Rh238  1  0.60359985  0.60477516  0.59699838  1
  Rh  Rh239  1  0.40339149  0.00637259  0.40395138  1
  Rh  Rh240  1  0.59295734  0.79716588  0.20803884  1
  Rh  Rh241  1  -0.00248432  -0.00500834  0.18998956  1
  Rh  Rh242  1  0.60642277  0.80129865  -0.01002523  1
  Rh  Rh243  1  0.20053391  0.19597035  0.60148826  1
  Rh  Rh244  1  0.39537597  0.20384286  0.60296576  1
  Rh  Rh245  1  0.60438636  0.80367281  0.59981840  1
  Rh  Rh246  1  0.40664855  -0.00869868  0.79556061  1
  Rh  Rh247  1  0.59494545  0.19615816  -0.00869692  1
  Rh  Rh248  1  -0.00474933  -0.00112144  0.40711238  1
  Rh  Rh249  1  0.39975077  0.80670271  0.00919976  1
