# generated using pymatgen
data_ZrScNbPdRh
_symmetry_space_group_name_H-M   'P 1'
_cell_length_a   16.55637973
_cell_length_b   16.55513179
_cell_length_c   16.55498702
_cell_angle_alpha   90.01712048
_cell_angle_beta   89.98111438
_cell_angle_gamma   90.03499897
_symmetry_Int_Tables_number   1
_chemical_formula_structural   ZrScNbPdRh
_chemical_formula_sum   'Zr50 Sc50 Nb50 Pd50 Rh50'
_cell_volume   4537.60556353
_cell_formula_units_Z   50
loop_
 _symmetry_equiv_pos_site_id
 _symmetry_equiv_pos_as_xyz
  1  'x, y, z'
loop_
 _atom_site_type_symbol
 _atom_site_label
 _atom_site_symmetry_multiplicity
 _atom_site_fract_x
 _atom_site_fract_y
 _atom_site_fract_z
 _atom_site_occupancy
  Zr  Zr0  1  0.29295804  0.69733384  0.10289693  1
  Zr  Zr1  1  0.90692605  0.70753631  0.50396679  1
  Zr  Zr2  1  0.29531073  0.31852221  0.90298456  1
  Zr  Zr3  1  0.50995958  0.09397940  0.30107555  1
  Zr  Zr4  1  0.30273412  0.69792740  0.50723890  1
  Zr  Zr5  1  0.69382451  0.10404698  0.69596224  1
  Zr  Zr6  1  0.71085967  0.29947810  0.69924883  1
  Zr  Zr7  1  0.89160893  0.30123839  0.50182531  1
  Zr  Zr8  1  0.69741141  0.30235344  0.50559902  1
  Zr  Zr9  1  0.69678777  0.10735607  0.49795054  1
  Zr  Zr10  1  0.70178099  0.09714873  0.29971549  1
  Zr  Zr11  1  0.89600825  0.09221594  0.70367303  1
  Zr  Zr12  1  0.09814476  0.70696465  0.09633617  1
  Zr  Zr13  1  0.28533335  0.29700865  0.70078133  1
  Zr  Zr14  1  0.89648748  0.30524718  0.89331397  1
  Zr  Zr15  1  0.49957715  0.70061327  0.69960922  1
  Zr  Zr16  1  0.69440912  0.50209730  0.90031941  1
  Zr  Zr17  1  0.30030389  0.90286253  0.69188686  1
  Zr  Zr18  1  0.09720343  0.69167736  0.68984601  1
  Zr  Zr19  1  0.09979199  0.90351627  0.69550835  1
  Zr  Zr20  1  0.70313192  0.30143349  0.89643230  1
  Zr  Zr21  1  0.10326175  0.51305590  0.49671732  1
  Zr  Zr22  1  0.88776014  0.90072655  0.89270154  1
  Zr  Zr23  1  0.49932245  0.49962440  0.50250066  1
  Zr  Zr24  1  0.69584815  0.90336602  0.29516570  1
  Zr  Zr25  1  0.50345995  0.29802324  0.49735335  1
  Zr  Zr26  1  0.09820801  0.51582043  0.10347643  1
  Zr  Zr27  1  0.30082513  0.50246689  0.29425088  1
  Zr  Zr28  1  0.49557399  0.10042340  0.49640761  1
  Zr  Zr29  1  0.11289363  0.09953946  0.70358059  1
  Zr  Zr30  1  0.70671513  0.49977202  0.09839182  1
  Zr  Zr31  1  0.89460589  0.30989021  0.10245035  1
  Zr  Zr32  1  0.08930156  0.89759091  0.50206167  1
  Zr  Zr33  1  0.70331712  0.50661411  0.29969746  1
  Zr  Zr34  1  0.29224651  0.08894470  0.09961900  1
  Zr  Zr35  1  0.30101042  0.70438498  0.70318928  1
  Zr  Zr36  1  0.50825264  0.89259823  0.89698021  1
  Zr  Zr37  1  0.50366554  0.10480833  0.89393847  1
  Zr  Zr38  1  0.70334153  0.89762736  0.09831562  1
  Zr  Zr39  1  0.70034467  0.49938374  0.69785667  1
  Zr  Zr40  1  0.31152029  0.49923361  0.70379381  1
  Zr  Zr41  1  0.09720751  0.69111422  0.29878364  1
  Zr  Zr42  1  0.89645568  0.70677294  0.89648476  1
  Zr  Zr43  1  0.30232413  0.69705386  0.90515629  1
  Zr  Zr44  1  0.30246707  0.30605584  0.49962082  1
  Zr  Zr45  1  0.48992017  0.49952445  0.90113744  1
  Zr  Zr46  1  0.09814710  0.09724523  0.29831851  1
  Zr  Zr47  1  0.50701992  0.50605598  0.70333742  1
  Zr  Zr48  1  0.70445563  0.09888437  0.88965575  1
  Zr  Zr49  1  0.10415618  0.31338810  0.50585423  1
  Sc  Sc50  1  0.50534031  0.30285740  0.90361409  1
  Sc  Sc51  1  0.09911241  0.50317280  0.30236404  1
  Sc  Sc52  1  0.29982400  0.30612210  0.30522260  1
  Sc  Sc53  1  0.49728089  0.90040372  0.69726408  1
  Sc  Sc54  1  0.30258712  0.89770902  0.30096379  1
  Sc  Sc55  1  0.68833243  0.31017090  0.10090282  1
  Sc  Sc56  1  0.69998327  0.89739994  0.70191547  1
  Sc  Sc57  1  0.90004934  0.50170683  0.49758361  1
  Sc  Sc58  1  0.89707845  0.89854072  0.08521179  1
  Sc  Sc59  1  0.69974256  0.70669654  0.89803019  1
  Sc  Sc60  1  0.09665344  0.90194847  0.90389841  1
  Sc  Sc61  1  0.89489328  0.90572676  0.31011928  1
  Sc  Sc62  1  0.09940428  0.31166902  0.30028728  1
  Sc  Sc63  1  0.69835816  0.70551146  0.31040482  1
  Sc  Sc64  1  0.30557862  0.09419971  0.31000207  1
  Sc  Sc65  1  0.50246452  0.69815494  0.89685609  1
  Sc  Sc66  1  0.10114462  0.90149237  0.30583614  1
  Sc  Sc67  1  0.50688829  0.29400858  0.30448812  1
  Sc  Sc68  1  0.31353938  0.69928520  0.29176492  1
  Sc  Sc69  1  0.29543457  0.89398275  0.90000168  1
  Sc  Sc70  1  0.69904320  0.30265320  0.31007118  1
  Sc  Sc71  1  0.30162262  0.50276374  0.09143031  1
  Sc  Sc72  1  0.90037884  0.30803148  0.30062366  1
  Sc  Sc73  1  0.70397626  0.69706295  0.49352261  1
  Sc  Sc74  1  0.50580359  0.89039465  0.10500409  1
  Sc  Sc75  1  0.09689416  0.30318727  0.10856447  1
  Sc  Sc76  1  0.89799417  0.50555784  0.70167960  1
  Sc  Sc77  1  0.29566500  0.89284319  0.10123657  1
  Sc  Sc78  1  0.09829707  0.08700638  0.50449165  1
  Sc  Sc79  1  0.30299359  0.08889983  0.49838273  1
  Sc  Sc80  1  0.89612529  0.10120643  0.30338798  1
  Sc  Sc81  1  0.89735525  0.09188116  0.50086854  1
  Sc  Sc82  1  0.90101390  0.09777207  0.10451833  1
  Sc  Sc83  1  0.69231370  0.09739861  0.11069207  1
  Sc  Sc84  1  0.89851190  0.09132945  0.89784319  1
  Sc  Sc85  1  0.48912961  0.69983938  0.10416405  1
  Sc  Sc86  1  0.69719149  0.49720525  0.49956979  1
  Sc  Sc87  1  0.11146659  0.90487869  0.09379933  1
  Sc  Sc88  1  0.29932976  0.10004212  0.88865595  1
  Sc  Sc89  1  0.70107432  0.69344376  0.70572439  1
  Sc  Sc90  1  0.09002367  0.49461215  0.69945289  1
  Sc  Sc91  1  0.49941982  0.09371393  0.70020544  1
  Sc  Sc92  1  0.48703508  0.89857817  0.49687039  1
  Sc  Sc93  1  0.90380412  0.69043682  0.09286871  1
  Sc  Sc94  1  0.49970110  0.50771203  0.30538877  1
  Sc  Sc95  1  0.51009820  0.29803488  0.70014551  1
  Sc  Sc96  1  0.09639550  0.69917386  0.90760134  1
  Sc  Sc97  1  0.89438925  0.50269978  0.89537548  1
  Sc  Sc98  1  0.70743979  0.89393693  0.49383786  1
  Sc  Sc99  1  0.89709694  0.69321325  0.30600176  1
  Nb  Nb100  1  0.89757386  0.50447648  0.28443726  1
  Nb  Nb101  1  0.89359556  0.49899455  0.10545247  1
  Nb  Nb102  1  0.10961396  0.49164635  0.90128711  1
  Nb  Nb103  1  0.09894052  0.30739726  0.89720315  1
  Nb  Nb104  1  0.30330761  0.29664621  0.10049505  1
  Nb  Nb105  1  0.29674052  0.49992174  0.89811846  1
  Nb  Nb106  1  0.30208483  0.49391729  0.49707003  1
  Nb  Nb107  1  0.90451975  0.89810472  0.50998855  1
  Nb  Nb108  1  0.30216988  0.10095571  0.69634604  1
  Nb  Nb109  1  0.09984613  0.10322699  0.90729877  1
  Nb  Nb110  1  0.70254678  0.89635562  0.90248435  1
  Nb  Nb111  1  0.90106789  0.89351181  0.69025910  1
  Nb  Nb112  1  0.70463101  0.69664661  0.10344198  1
  Nb  Nb113  1  0.10208626  0.09875558  0.09950488  1
  Nb  Nb114  1  0.50248304  0.10401694  0.10006506  1
  Nb  Nb115  1  0.50248787  0.70307296  0.48869759  1
  Nb  Nb116  1  0.09502858  0.30007371  0.70311276  1
  Nb  Nb117  1  0.50124284  0.70531724  0.30417007  1
  Nb  Nb118  1  0.90425107  0.30381844  0.70328944  1
  Nb  Nb119  1  0.89921754  0.70069849  0.70336961  1
  Nb  Nb120  1  0.09824458  0.69597753  0.49474759  1
  Nb  Nb121  1  0.49996875  0.88873517  0.30045255  1
  Nb  Nb122  1  0.30088803  0.89554296  0.49966042  1
  Nb  Nb123  1  0.50812796  0.49246052  0.09861050  1
  Nb  Nb124  1  0.50083025  0.29728328  0.10006352  1
  Nb  Nb125  1  0.59514193  0.79376056  0.59373340  1
  Nb  Nb126  1  0.40891795  0.00350779  0.00195610  1
  Nb  Nb127  1  0.00244199  -0.00431525  0.19747313  1
  Nb  Nb128  1  0.00229739  0.20343577  -0.00344223  1
  Nb  Nb129  1  0.00590877  0.20294066  0.80058157  1
  Nb  Nb130  1  -0.00422027  0.80476172  0.19814523  1
  Nb  Nb131  1  0.80338424  0.79745793  0.19794384  1
  Nb  Nb132  1  0.19404275  0.20102449  0.40021293  1
  Nb  Nb133  1  0.19647002  0.20355099  0.00202856  1
  Nb  Nb134  1  0.80152508  0.20281265  0.00382475  1
  Nb  Nb135  1  0.39309371  0.19850152  0.60346123  1
  Nb  Nb136  1  0.40020861  0.19818676  0.19621141  1
  Nb  Nb137  1  0.00249417  0.20450227  0.60595813  1
  Nb  Nb138  1  0.40627548  0.39462501  0.19185601  1
  Nb  Nb139  1  0.40858643  0.00128293  0.19707047  1
  Nb  Nb140  1  0.19899115  0.79283739  0.40812495  1
  Nb  Nb141  1  -0.00508308  0.80050170  0.79123793  1
  Nb  Nb142  1  0.59822978  -0.00125322  -0.00287214  1
  Nb  Nb143  1  0.20174312  0.59430679  0.80428144  1
  Nb  Nb144  1  0.00121141  0.40355676  -0.00108779  1
  Nb  Nb145  1  0.00466899  0.20398680  0.40850695  1
  Nb  Nb146  1  0.20371397  0.19767266  0.20074334  1
  Nb  Nb147  1  0.39636582  0.19998286  0.00480989  1
  Nb  Nb148  1  0.79738782  0.20498285  0.19772965  1
  Nb  Nb149  1  0.60034760  0.60347671  0.19872892  1
  Pd  Pd150  1  0.00289764  0.40912309  0.19676318  1
  Pd  Pd151  1  0.59709525  -0.01078432  0.40976077  1
  Pd  Pd152  1  0.40522097  0.38970199  0.79480111  1
  Pd  Pd153  1  0.19411823  0.80153077  0.21078085  1
  Pd  Pd154  1  0.80169488  0.40644561  0.39634807  1
  Pd  Pd155  1  0.80269437  0.60089043  0.59648743  1
  Pd  Pd156  1  0.39615258  0.60099577  0.40267656  1
  Pd  Pd157  1  0.19544545  0.80116615  0.59359163  1
  Pd  Pd158  1  -0.00258483  0.40429265  0.39869024  1
  Pd  Pd159  1  0.80085582  0.60293433  -0.00698498  1
  Pd  Pd160  1  -0.00057472  0.00077393  0.00462574  1
  Pd  Pd161  1  0.80456110  0.59833011  0.40392897  1
  Pd  Pd162  1  0.40332989  0.60189408  0.59688530  1
  Pd  Pd163  1  0.19997940  0.19348359  0.58807371  1
  Pd  Pd164  1  0.00309775  -0.00243074  0.79913330  1
  Pd  Pd165  1  0.60671371  0.19627266  -0.00057910  1
  Pd  Pd166  1  0.19959108  0.41262044  0.60616308  1
  Pd  Pd167  1  0.39714982  -0.00693219  0.80377433  1
  Pd  Pd168  1  0.20214292  -0.00355587  0.80548306  1
  Pd  Pd169  1  0.20599541  0.40027999  0.19572408  1
  Pd  Pd170  1  -0.00469917  0.59118458  -0.00885765  1
  Pd  Pd171  1  0.39900921  0.80542020  0.00351781  1
  Pd  Pd172  1  0.40009218  0.80396928  0.80036904  1
  Pd  Pd173  1  0.19771600  0.20250258  0.81026806  1
  Pd  Pd174  1  0.20538909  0.58953943  0.60806894  1
  Pd  Pd175  1  0.40713996  0.39910043  0.38924473  1
  Pd  Pd176  1  0.20100448  -0.00546645  0.40357799  1
  Pd  Pd177  1  0.79260579  -0.00326283  0.59835099  1
  Pd  Pd178  1  0.60587637  0.78903833  0.19968096  1
  Pd  Pd179  1  0.60062449  0.39829624  0.80096413  1
  Pd  Pd180  1  -0.00022345  0.80035357  0.39087902  1
  Pd  Pd181  1  0.59629738  0.60644945  0.00623075  1
  Pd  Pd182  1  0.59964400  -0.01175114  0.59117022  1
  Pd  Pd183  1  0.78958859  0.79315586  0.60244497  1
  Pd  Pd184  1  0.60089472  0.79521032  0.00359715  1
  Pd  Pd185  1  0.18772980  0.79191035  0.80350039  1
  Pd  Pd186  1  -0.00669763  0.40346328  0.59860572  1
  Pd  Pd187  1  0.00713582  0.60127568  0.80646814  1
  Pd  Pd188  1  0.21244567  0.60577519  0.39364386  1
  Pd  Pd189  1  0.60253694  0.60659238  0.59194112  1
  Pd  Pd190  1  0.80818256  0.19666568  0.60226484  1
  Pd  Pd191  1  -0.00321045  0.19528560  0.20375029  1
  Pd  Pd192  1  0.40599444  0.39168732  0.60904746  1
  Pd  Pd193  1  0.19213851  0.39904784  0.01530720  1
  Pd  Pd194  1  0.79138119  0.01195584  0.00586712  1
  Pd  Pd195  1  0.59626103  0.40577951  0.21044244  1
  Pd  Pd196  1  0.60398102  -0.00611201  0.80061668  1
  Pd  Pd197  1  0.39863253  0.20931416  0.79937860  1
  Pd  Pd198  1  0.80111527  -0.00239678  0.40709390  1
  Pd  Pd199  1  0.40236454  0.59824330  0.00493875  1
  Rh  Rh200  1  0.59917917  0.40094912  -0.00521192  1
  Rh  Rh201  1  0.80095717  0.39942752  -0.00251041  1
  Rh  Rh202  1  0.79221452  0.39566248  0.20617760  1
  Rh  Rh203  1  -0.00116138  0.40291747  0.80436984  1
  Rh  Rh204  1  0.40409108  -0.00992403  0.39060487  1
  Rh  Rh205  1  0.20254914  0.60094868  0.20222402  1
  Rh  Rh206  1  0.39142259  0.79771123  0.39885318  1
  Rh  Rh207  1  -0.00189784  0.80617040  -0.00255064  1
  Rh  Rh208  1  0.80914661  -0.00283561  0.19639309  1
  Rh  Rh209  1  0.79425333  -0.00691048  0.79054939  1
  Rh  Rh210  1  0.20548360  -0.00261228  0.59593260  1
  Rh  Rh211  1  0.41159423  0.58823622  0.19407095  1
  Rh  Rh212  1  -0.00565268  0.60614212  0.19980205  1
  Rh  Rh213  1  0.79564205  0.60102654  0.80256114  1
  Rh  Rh214  1  -0.00768185  0.59987266  0.59608482  1
  Rh  Rh215  1  0.20113483  0.40398734  0.40069793  1
  Rh  Rh216  1  0.79811991  0.79145120  0.00530108  1
  Rh  Rh217  1  0.19936011  0.60073875  -0.00575894  1
  Rh  Rh218  1  0.59911520  0.80523179  0.40572863  1
  Rh  Rh219  1  0.80747602  0.19680833  0.80216996  1
  Rh  Rh220  1  0.39110218  0.20153584  0.40409850  1
  Rh  Rh221  1  0.40544786  0.39877825  0.00466052  1
  Rh  Rh222  1  0.79866599  0.40876532  0.79502927  1
  Rh  Rh223  1  0.59823313  0.60056526  0.39676509  1
  Rh  Rh224  1  0.80017272  0.80155898  0.79205359  1
  Rh  Rh225  1  0.60054057  0.40087910  0.60116339  1
  Rh  Rh226  1  0.59023597  0.19713559  0.60094280  1
  Rh  Rh227  1  0.39616990  0.60477156  0.80287666  1
  Rh  Rh228  1  -0.00171466  0.00726545  0.60544488  1
  Rh  Rh229  1  0.79555827  0.60782497  0.20217984  1
  Rh  Rh230  1  0.60493151  0.20397228  0.20661942  1
  Rh  Rh231  1  0.80495935  0.20121411  0.39517589  1
  Rh  Rh232  1  0.19720781  0.40919797  0.78958839  1
  Rh  Rh233  1  0.60014490  0.60076226  0.80531420  1
  Rh  Rh234  1  0.20002435  0.00006369  0.20712485  1
  Rh  Rh235  1  0.80708933  0.80257069  0.39682599  1
  Rh  Rh236  1  0.60520475  0.19997033  0.39931977  1
  Rh  Rh237  1  0.00312836  0.79468414  0.60457723  1
  Rh  Rh238  1  0.60131034  0.20242418  0.79513491  1
  Rh  Rh239  1  0.39943069  0.80653293  0.20015845  1
  Rh  Rh240  1  -0.00632549  0.00497446  0.39749354  1
  Rh  Rh241  1  0.59238022  -0.00790507  0.19587566  1
  Rh  Rh242  1  0.80352666  0.40513569  0.60377700  1
  Rh  Rh243  1  0.40738552  0.79749474  0.59837218  1
  Rh  Rh244  1  -0.00718829  0.59425023  0.39899786  1
  Rh  Rh245  1  0.20796476  0.00275287  -0.01140662  1
  Rh  Rh246  1  0.39734891  0.00472685  0.60032716  1
  Rh  Rh247  1  0.59795531  0.40528166  0.40158085  1
  Rh  Rh248  1  0.19906578  0.79900748  -0.00328234  1
  Rh  Rh249  1  0.60307530  0.79909231  0.79069891  1
