# generated using pymatgen
data_ZrScNbPdRh
_symmetry_space_group_name_H-M   'P 1'
_cell_length_a   16.57022625
_cell_length_b   16.55971708
_cell_length_c   16.56689918
_cell_angle_alpha   89.99144555
_cell_angle_beta   89.98310528
_cell_angle_gamma   89.99102038
_symmetry_Int_Tables_number   1
_chemical_formula_structural   ZrScNbPdRh
_chemical_formula_sum   'Zr50 Sc50 Nb50 Pd50 Rh50'
_cell_volume   4545.92798271
_cell_formula_units_Z   50
loop_
 _symmetry_equiv_pos_site_id
 _symmetry_equiv_pos_as_xyz
  1  'x, y, z'
loop_
 _atom_site_type_symbol
 _atom_site_label
 _atom_site_symmetry_multiplicity
 _atom_site_fract_x
 _atom_site_fract_y
 _atom_site_fract_z
 _atom_site_occupancy
  Zr  Zr0  1  0.30228044  0.70314066  0.69313673  1
  Zr  Zr1  1  0.09302144  0.30341945  0.29612763  1
  Zr  Zr2  1  0.50567852  0.09126064  0.09307120  1
  Zr  Zr3  1  0.29422034  0.49864322  0.30209254  1
  Zr  Zr4  1  0.69837290  0.90822196  0.30362785  1
  Zr  Zr5  1  0.29787770  0.90749345  0.31010674  1
  Zr  Zr6  1  0.50983415  0.09578264  0.30182796  1
  Zr  Zr7  1  0.30466402  0.90371345  0.70150980  1
  Zr  Zr8  1  0.69610733  0.10299235  0.89925972  1
  Zr  Zr9  1  0.89877200  0.70216143  0.89519991  1
  Zr  Zr10  1  0.89478259  0.49474653  0.68528517  1
  Zr  Zr11  1  0.69844396  0.69793837  0.69464219  1
  Zr  Zr12  1  0.10329927  0.50369389  0.89691525  1
  Zr  Zr13  1  0.49532117  0.50068514  0.09562355  1
  Zr  Zr14  1  0.69927551  0.50490422  0.30923880  1
  Zr  Zr15  1  0.88792517  0.09802643  0.50499240  1
  Zr  Zr16  1  0.30230488  0.69860213  0.10239910  1
  Zr  Zr17  1  0.29845760  0.90075417  0.50324905  1
  Zr  Zr18  1  0.10413138  0.69777920  0.50064884  1
  Zr  Zr19  1  0.09685315  0.29298947  0.09547711  1
  Zr  Zr20  1  0.10115633  0.90017236  0.10078405  1
  Zr  Zr21  1  0.50996145  0.70393206  0.50207878  1
  Zr  Zr22  1  0.90286024  0.70473357  0.10648782  1
  Zr  Zr23  1  0.09252708  0.91114541  0.70064985  1
  Zr  Zr24  1  0.89680111  0.50079198  0.10041390  1
  Zr  Zr25  1  0.50357956  0.70468791  0.90569306  1
  Zr  Zr26  1  0.69904217  0.48306939  0.90220598  1
  Zr  Zr27  1  0.10654524  0.70105716  0.30007154  1
  Zr  Zr28  1  0.50150743  0.30051670  0.68642851  1
  Zr  Zr29  1  0.29957824  0.70212924  0.29833841  1
  Zr  Zr30  1  0.89758791  0.10028133  0.09500278  1
  Zr  Zr31  1  0.69709473  0.50037326  0.09901309  1
  Zr  Zr32  1  0.10477788  0.70263620  0.90617412  1
  Zr  Zr33  1  0.50422730  0.29721732  0.31751673  1
  Zr  Zr34  1  0.10287591  0.29315548  0.89652076  1
  Zr  Zr35  1  0.88585342  0.29490880  0.90415124  1
  Zr  Zr36  1  0.89659943  0.89946620  0.69694109  1
  Zr  Zr37  1  0.30527492  0.50095599  0.70868008  1
  Zr  Zr38  1  0.10008310  0.10281511  0.50092609  1
  Zr  Zr39  1  0.89772759  0.69664872  0.70590043  1
  Zr  Zr40  1  0.50192313  0.49875642  0.69610833  1
  Zr  Zr41  1  0.30440339  0.10247026  0.30119329  1
  Zr  Zr42  1  0.50287008  0.09609389  0.89715554  1
  Zr  Zr43  1  0.49530934  0.90349066  0.90537732  1
  Zr  Zr44  1  0.89701518  0.90455749  0.50323214  1
  Zr  Zr45  1  0.91080574  0.09447229  0.69940144  1
  Zr  Zr46  1  0.09673486  0.10221746  0.10095477  1
  Zr  Zr47  1  0.89022279  0.10423903  0.29010362  1
  Zr  Zr48  1  0.90578562  0.90438904  0.10990908  1
  Zr  Zr49  1  0.30734991  0.29335921  0.50107576  1
  Sc  Sc50  1  0.30212307  0.69692878  0.90317160  1
  Sc  Sc51  1  0.51302094  0.49040167  0.50220975  1
  Sc  Sc52  1  0.71147325  0.30205128  0.07848895  1
  Sc  Sc53  1  0.10693421  0.49917477  0.10769924  1
  Sc  Sc54  1  0.29283462  0.10190829  0.70271801  1
  Sc  Sc55  1  0.90325158  0.50465571  0.88520669  1
  Sc  Sc56  1  0.89900306  0.30470740  0.50988291  1
  Sc  Sc57  1  0.50208479  0.70681793  0.69933840  1
  Sc  Sc58  1  0.50125143  0.49472266  0.31335447  1
  Sc  Sc59  1  0.69684731  0.29054858  0.50652175  1
  Sc  Sc60  1  0.50408842  0.29999515  0.90023911  1
  Sc  Sc61  1  0.10199032  0.69958589  0.69012061  1
  Sc  Sc62  1  0.49302980  0.50005301  0.90162431  1
  Sc  Sc63  1  0.69657259  0.89549405  0.70313536  1
  Sc  Sc64  1  0.30308774  0.89000531  0.09602226  1
  Sc  Sc65  1  0.69845757  0.70779996  0.89197460  1
  Sc  Sc66  1  0.29753316  0.29946306  0.09090855  1
  Sc  Sc67  1  0.10005079  0.90441533  0.90466236  1
  Sc  Sc68  1  0.90503573  0.50398609  0.29650223  1
  Sc  Sc69  1  0.69994346  0.70077324  0.31216605  1
  Sc  Sc70  1  0.29975381  0.49658178  0.90118166  1
  Sc  Sc71  1  0.30565348  0.10801591  0.09985861  1
  Sc  Sc72  1  0.29106853  0.49896574  0.49801216  1
  Sc  Sc73  1  0.11006761  0.09651315  0.29494507  1
  Sc  Sc74  1  0.69278978  0.89979822  0.89481040  1
  Sc  Sc75  1  0.49153454  0.29533091  0.09303529  1
  Sc  Sc76  1  0.89785916  0.91263187  0.90027162  1
  Sc  Sc77  1  0.49784618  0.90077743  0.31360138  1
  Sc  Sc78  1  0.29810328  0.09718947  0.49271279  1
  Sc  Sc79  1  0.90225611  0.28724473  0.10145699  1
  Sc  Sc80  1  0.89717142  0.70891540  0.29637838  1
  Sc  Sc81  1  0.10275964  0.49531022  0.30247880  1
  Sc  Sc82  1  0.69349743  0.70345405  0.09701688  1
  Sc  Sc83  1  0.11045874  0.70846014  0.10225410  1
  Sc  Sc84  1  0.29835233  0.50081887  0.09861730  1
  Sc  Sc85  1  0.69305668  0.90739354  0.09904970  1
  Sc  Sc86  1  0.09713391  0.10279959  0.88585806  1
  Sc  Sc87  1  0.09502421  0.88999307  0.49973652  1
  Sc  Sc88  1  0.10229670  0.90170385  0.29369205  1
  Sc  Sc89  1  0.69531109  0.10394222  0.70112588  1
  Sc  Sc90  1  0.49867041  0.90402708  0.50601333  1
  Sc  Sc91  1  0.09615836  0.50904299  0.69741004  1
  Sc  Sc92  1  0.50575465  0.09872650  0.69855569  1
  Sc  Sc93  1  0.49906404  0.89675669  0.70174423  1
  Sc  Sc94  1  0.28768130  0.70556578  0.50103317  1
  Sc  Sc95  1  0.09790883  0.29905714  0.49953649  1
  Sc  Sc96  1  0.89882788  0.71128248  0.50111069  1
  Sc  Sc97  1  0.70152371  0.10062089  0.30902567  1
  Sc  Sc98  1  0.09804306  0.49552835  0.50102793  1
  Sc  Sc99  1  0.51023035  0.10386886  0.50339910  1
  Nb  Nb100  1  0.09948932  0.10415980  0.69855370  1
  Nb  Nb101  1  0.49701231  0.69758444  0.30122577  1
  Nb  Nb102  1  0.70361960  0.29723836  0.29858266  1
  Nb  Nb103  1  0.49517819  0.70544244  0.10208031  1
  Nb  Nb104  1  0.89536841  0.29842961  0.30035777  1
  Nb  Nb105  1  0.29892545  0.29891196  0.70276213  1
  Nb  Nb106  1  0.70170637  0.09121201  0.50380598  1
  Nb  Nb107  1  0.70608134  0.50698386  0.50795766  1
  Nb  Nb108  1  0.70138999  0.30771465  0.70818456  1
  Nb  Nb109  1  0.50130559  0.29758712  0.50251570  1
  Nb  Nb110  1  0.69609620  0.49709866  0.68899231  1
  Nb  Nb111  1  0.10579133  0.27786003  0.70396951  1
  Nb  Nb112  1  0.30796644  0.09020366  0.89425300  1
  Nb  Nb113  1  0.89883249  0.10267065  0.90000299  1
  Nb  Nb114  1  0.69565159  0.10071862  0.10612471  1
  Nb  Nb115  1  0.70056187  0.29303428  0.88524783  1
  Nb  Nb116  1  0.30248506  0.90944073  0.89515577  1
  Nb  Nb117  1  0.69377636  0.69495699  0.50147805  1
  Nb  Nb118  1  0.29829494  0.29806368  0.89184452  1
  Nb  Nb119  1  0.90062835  0.29995981  0.70158506  1
  Nb  Nb120  1  0.50088458  0.89674021  0.09603654  1
  Nb  Nb121  1  0.30947571  0.30055948  0.30423844  1
  Nb  Nb122  1  0.70274923  0.90106177  0.50096407  1
  Nb  Nb123  1  0.90003065  0.90470085  0.30062475  1
  Nb  Nb124  1  0.90224500  0.49146503  0.49653970  1
  Nb  Nb125  1  0.80329335  0.80128217  0.00264389  1
  Nb  Nb126  1  0.40199171  0.60033865  0.59418424  1
  Nb  Nb127  1  0.20208300  0.38828589  0.61224427  1
  Nb  Nb128  1  0.19407684  0.00288424  0.60236244  1
  Nb  Nb129  1  0.60700705  0.20610329  0.19775814  1
  Nb  Nb130  1  0.20747722  0.00343395  -0.00555770  1
  Nb  Nb131  1  -0.00772125  0.00380182  0.39580617  1
  Nb  Nb132  1  0.58854727  0.79742107  0.20175247  1
  Nb  Nb133  1  -0.00112046  0.59889941  0.00189375  1
  Nb  Nb134  1  0.00295132  0.80140416  0.79940962  1
  Nb  Nb135  1  -0.00097218  0.60083820  0.40255012  1
  Nb  Nb136  1  0.80037112  0.40096026  0.40031925  1
  Nb  Nb137  1  -0.00845940  0.19811761  0.39548961  1
  Nb  Nb138  1  0.20007693  0.80721261  0.79978510  1
  Nb  Nb139  1  0.79503273  0.39504370  0.20558252  1
  Nb  Nb140  1  0.00097082  0.38694859  0.79420377  1
  Nb  Nb141  1  0.40245038  0.39377009  0.20840468  1
  Nb  Nb142  1  0.80242640  0.60335707  -0.00250588  1
  Nb  Nb143  1  0.58982166  0.60349013  0.20209235  1
  Nb  Nb144  1  0.60233968  0.59323834  0.79623247  1
  Nb  Nb145  1  0.40620154  -0.00265372  0.19904961  1
  Nb  Nb146  1  0.39591541  0.20283263  0.79967047  1
  Nb  Nb147  1  0.40185475  0.60319583  0.40456576  1
  Nb  Nb148  1  -0.00046464  0.40121655  -0.00657996  1
  Nb  Nb149  1  0.60098431  0.39536384  0.20144736  1
  Pd  Pd150  1  0.79385224  0.79887244  0.59864792  1
  Pd  Pd151  1  0.39703982  0.19993716  -0.01164578  1
  Pd  Pd152  1  0.79622634  0.80273183  0.40239032  1
  Pd  Pd153  1  0.40315147  0.81116747  0.20536710  1
  Pd  Pd154  1  0.61354148  0.39534593  0.40792059  1
  Pd  Pd155  1  0.39250704  0.40759107  0.59151279  1
  Pd  Pd156  1  0.39703176  0.79395136  0.40912215  1
  Pd  Pd157  1  0.41135346  0.20006416  0.20154177  1
  Pd  Pd158  1  0.39505129  0.00979239  0.60159543  1
  Pd  Pd159  1  0.20041617  0.39084396  0.40784693  1
  Pd  Pd160  1  0.78590311  0.58944756  0.80226258  1
  Pd  Pd161  1  0.79989900  0.20579851  0.40789432  1
  Pd  Pd162  1  -0.00824129  0.39736564  0.19214665  1
  Pd  Pd163  1  0.21462060  -0.00172107  0.18697359  1
  Pd  Pd164  1  0.39550850  0.59951576  -0.00258984  1
  Pd  Pd165  1  0.80329871  0.19097529  0.79134747  1
  Pd  Pd166  1  0.20337380  0.20733067  0.20394208  1
  Pd  Pd167  1  0.00739394  0.00826701  -0.00594808  1
  Pd  Pd168  1  0.79575022  0.20155245  0.61060431  1
  Pd  Pd169  1  0.01376743  0.39223125  0.60956310  1
  Pd  Pd170  1  0.40381619  0.58837995  0.20882192  1
  Pd  Pd171  1  0.79387770  -0.00058459  0.19759138  1
  Pd  Pd172  1  0.59198492  0.40023109  0.79898785  1
  Pd  Pd173  1  0.40655100  0.19031472  0.40662615  1
  Pd  Pd174  1  0.00936308  0.60340732  0.20122282  1
  Pd  Pd175  1  0.40750791  0.39261797  0.80427564  1
  Pd  Pd176  1  0.20086503  0.61032196  0.79621365  1
  Pd  Pd177  1  0.19408486  0.20682027  0.39442546  1
  Pd  Pd178  1  0.39762376  0.18880804  0.60505725  1
  Pd  Pd179  1  0.19684469  0.40161514  -0.00011837  1
  Pd  Pd180  1  0.39574955  0.79641365  0.80608114  1
  Pd  Pd181  1  0.60399134  0.20451925  0.00246623  1
  Pd  Pd182  1  -0.00791572  0.60411750  0.58962438  1
  Pd  Pd183  1  0.59540929  0.39026670  0.00305880  1
  Pd  Pd184  1  0.79242521  -0.00215568  0.00015525  1
  Pd  Pd185  1  0.60326756  -0.00587763  0.60249714  1
  Pd  Pd186  1  0.19063404  0.39998315  0.79288771  1
  Pd  Pd187  1  0.79408169  0.00347861  0.79510348  1
  Pd  Pd188  1  0.81227672  0.59984139  0.40769847  1
  Pd  Pd189  1  0.60517620  0.60412973  -0.00482358  1
  Pd  Pd190  1  0.60173751  0.80478842  0.39931846  1
  Pd  Pd191  1  0.80741802  0.60647418  0.59162960  1
  Pd  Pd192  1  0.20414981  0.18848269  -0.00995998  1
  Pd  Pd193  1  0.00043894  0.80143327  0.39268061  1
  Pd  Pd194  1  -0.00591930  0.79925141  -0.00299184  1
  Pd  Pd195  1  0.78538389  0.80398248  0.19596096  1
  Pd  Pd196  1  -0.00371413  0.20246367  0.59413771  1
  Pd  Pd197  1  0.20905536  0.38998256  0.19777511  1
  Pd  Pd198  1  0.78902755  0.60291343  0.19767469  1
  Pd  Pd199  1  0.80574632  0.40551756  0.79522538  1
  Rh  Rh200  1  0.20593721  0.19788163  0.59703170  1
  Rh  Rh201  1  0.60599954  -0.00247716  -0.00549259  1
  Rh  Rh202  1  0.60414910  0.80417332  0.00581769  1
  Rh  Rh203  1  0.80802001  0.81116163  0.80700459  1
  Rh  Rh204  1  0.41121074  0.60566165  0.79374213  1
  Rh  Rh205  1  0.59711270  -0.00303210  0.79812188  1
  Rh  Rh206  1  -0.00293458  0.79565222  0.60905923  1
  Rh  Rh207  1  0.39690719  0.79976866  -0.00569166  1
  Rh  Rh208  1  0.00263986  0.19444220  0.20763501  1
  Rh  Rh209  1  0.00609309  0.00228289  0.58828025  1
  Rh  Rh210  1  0.39305403  -0.00331210  0.01087210  1
  Rh  Rh211  1  0.80267599  -0.00265598  0.39955150  1
  Rh  Rh212  1  0.59604044  0.79468724  0.79827603  1
  Rh  Rh213  1  0.40877894  0.00698078  0.79070880  1
  Rh  Rh214  1  0.60609255  0.20245927  0.60280435  1
  Rh  Rh215  1  0.21022765  0.80986646  -0.01049901  1
  Rh  Rh216  1  0.59156446  0.20793493  0.79362033  1
  Rh  Rh217  1  -0.01189798  0.20213186  0.80241669  1
  Rh  Rh218  1  -0.00298214  0.19975758  -0.00887078  1
  Rh  Rh219  1  -0.00002367  0.00506194  0.20724790  1
  Rh  Rh220  1  0.78892358  -0.00168560  0.60873233  1
  Rh  Rh221  1  0.18586553  -0.00682499  0.41175472  1
  Rh  Rh222  1  0.60985238  0.39305261  0.59528657  1
  Rh  Rh223  1  0.19632856  -0.00051998  0.79823967  1
  Rh  Rh224  1  -0.00786184  0.39889396  0.39601945  1
  Rh  Rh225  1  0.39354153  0.39825152  0.00151227  1
  Rh  Rh226  1  0.40211406  0.79455450  0.59363254  1
  Rh  Rh227  1  0.20932997  0.58609242  0.60369199  1
  Rh  Rh228  1  0.19787217  0.80548632  0.39641482  1
  Rh  Rh229  1  -0.00199330  -0.00015202  0.80536775  1
  Rh  Rh230  1  0.00452321  0.80242087  0.20542804  1
  Rh  Rh231  1  0.79189276  0.39516813  0.59492650  1
  Rh  Rh232  1  0.39609392  0.40576986  0.40343523  1
  Rh  Rh233  1  0.60233671  -0.00081375  0.41210901  1
  Rh  Rh234  1  0.79045320  0.20481192  0.19028085  1
  Rh  Rh235  1  0.19709526  0.81463735  0.61034297  1
  Rh  Rh236  1  0.60587801  0.80663885  0.59668942  1
  Rh  Rh237  1  0.00922996  0.60725413  0.80300980  1
  Rh  Rh238  1  0.79344162  0.18797069  -0.00113513  1
  Rh  Rh239  1  0.19578395  0.59881888  0.39963696  1
  Rh  Rh240  1  0.59376981  -0.00334573  0.20099383  1
  Rh  Rh241  1  0.60695068  0.19615587  0.40360628  1
  Rh  Rh242  1  0.59577582  0.59932300  0.60332426  1
  Rh  Rh243  1  0.21058151  0.19156439  0.80593177  1
  Rh  Rh244  1  0.19739284  0.59793593  0.00581181  1
  Rh  Rh245  1  0.40659898  0.00665357  0.39947158  1
  Rh  Rh246  1  0.81079982  0.40683975  0.00022283  1
  Rh  Rh247  1  0.59492492  0.60118584  0.40210443  1
  Rh  Rh248  1  0.19924211  0.60144515  0.19890272  1
  Rh  Rh249  1  0.20535542  0.80491174  0.20311335  1
