# generated using pymatgen
data_ZrScNbPdRh
_symmetry_space_group_name_H-M   'P 1'
_cell_length_a   16.56030076
_cell_length_b   16.55573294
_cell_length_c   16.55678510
_cell_angle_alpha   90.02206712
_cell_angle_beta   89.97628513
_cell_angle_gamma   90.00034089
_symmetry_Int_Tables_number   1
_chemical_formula_structural   ZrScNbPdRh
_chemical_formula_sum   'Zr50 Sc50 Nb50 Pd50 Rh50'
_cell_volume   4539.33855278
_cell_formula_units_Z   50
loop_
 _symmetry_equiv_pos_site_id
 _symmetry_equiv_pos_as_xyz
  1  'x, y, z'
loop_
 _atom_site_type_symbol
 _atom_site_label
 _atom_site_symmetry_multiplicity
 _atom_site_fract_x
 _atom_site_fract_y
 _atom_site_fract_z
 _atom_site_occupancy
  Zr  Zr0  1  0.09751070  0.90045786  0.09714377  1
  Zr  Zr1  1  0.48268754  0.10360149  0.90311678  1
  Zr  Zr2  1  0.30024000  0.10042102  0.71323234  1
  Zr  Zr3  1  0.69206599  0.29420068  0.69920010  1
  Zr  Zr4  1  0.70880148  0.10062399  0.89045763  1
  Zr  Zr5  1  0.69686411  0.10024351  0.10470291  1
  Zr  Zr6  1  0.90236247  0.09874568  0.89790291  1
  Zr  Zr7  1  0.49760459  0.90730986  0.10994805  1
  Zr  Zr8  1  0.89512446  0.50969381  0.09793069  1
  Zr  Zr9  1  0.30610414  0.10031918  0.30390475  1
  Zr  Zr10  1  0.30080608  0.49372237  0.48907916  1
  Zr  Zr11  1  0.89048611  0.69079707  0.30353783  1
  Zr  Zr12  1  0.70394668  0.90056608  0.90526493  1
  Zr  Zr13  1  0.90631552  0.30482032  0.10100570  1
  Zr  Zr14  1  0.30086941  0.09896029  0.09031548  1
  Zr  Zr15  1  0.89963457  0.49920398  0.90656057  1
  Zr  Zr16  1  0.50226786  0.50064225  0.89299541  1
  Zr  Zr17  1  0.70086371  0.09911426  0.69547270  1
  Zr  Zr18  1  0.49942812  0.09940503  0.28545857  1
  Zr  Zr19  1  0.30128178  0.30118754  0.49329252  1
  Zr  Zr20  1  0.90336146  0.30052207  0.89801068  1
  Zr  Zr21  1  0.50555452  0.10492648  0.70005801  1
  Zr  Zr22  1  0.10965991  0.09898494  0.90368298  1
  Zr  Zr23  1  0.29964511  0.89983869  0.49739770  1
  Zr  Zr24  1  0.70034271  0.29701144  0.49231805  1
  Zr  Zr25  1  0.09512120  0.69400527  0.70066051  1
  Zr  Zr26  1  0.70380248  0.49616701  0.09922185  1
  Zr  Zr27  1  0.70439086  0.50364351  0.90123498  1
  Zr  Zr28  1  0.30108320  0.70012432  0.49682856  1
  Zr  Zr29  1  0.49652115  0.90194230  0.90625737  1
  Zr  Zr30  1  0.09443395  0.10335203  0.30558476  1
  Zr  Zr31  1  0.88959120  0.89867773  0.30027883  1
  Zr  Zr32  1  0.30335380  0.69503130  0.09907041  1
  Zr  Zr33  1  0.10453791  0.30384471  0.09542956  1
  Zr  Zr34  1  0.49815891  0.70159005  0.69592968  1
  Zr  Zr35  1  0.29312234  0.10088030  0.49832071  1
  Zr  Zr36  1  0.30395443  0.30149827  0.29999287  1
  Zr  Zr37  1  0.50385689  0.30718066  0.50005199  1
  Zr  Zr38  1  0.69715612  0.69276646  0.69091571  1
  Zr  Zr39  1  0.09842736  0.09272738  0.49505232  1
  Zr  Zr40  1  0.89823006  0.30827064  0.49651524  1
  Zr  Zr41  1  0.89984920  0.69035363  0.90843224  1
  Zr  Zr42  1  0.70044360  0.30422224  0.29717063  1
  Zr  Zr43  1  0.69133774  0.50346980  0.70553368  1
  Zr  Zr44  1  0.10042978  0.30178575  0.70730172  1
  Zr  Zr45  1  0.10129039  0.69384665  0.89043451  1
  Zr  Zr46  1  0.49992460  0.90865299  0.30956195  1
  Zr  Zr47  1  0.49932226  0.49265131  0.69684613  1
  Zr  Zr48  1  0.89565298  0.90506225  0.10130598  1
  Zr  Zr49  1  0.09674004  0.89011448  0.69378005  1
  Sc  Sc50  1  0.09943366  0.69235983  0.49769622  1
  Sc  Sc51  1  0.70134490  0.70045130  0.11236503  1
  Sc  Sc52  1  0.10463274  0.68968484  0.10198852  1
  Sc  Sc53  1  0.29557571  0.49120234  0.29620728  1
  Sc  Sc54  1  0.29334841  0.49596178  0.10423620  1
  Sc  Sc55  1  0.29107395  0.29129968  0.90116991  1
  Sc  Sc56  1  0.10488990  0.29600759  0.49127115  1
  Sc  Sc57  1  0.09816685  0.89979673  0.89290248  1
  Sc  Sc58  1  0.30479089  0.90173487  0.30391305  1
  Sc  Sc59  1  0.31013795  0.48955419  0.70941079  1
  Sc  Sc60  1  0.50867432  0.49678423  0.10759537  1
  Sc  Sc61  1  0.30321173  0.89939196  0.10306193  1
  Sc  Sc62  1  0.30140711  0.50800280  0.90488538  1
  Sc  Sc63  1  0.51294981  0.09713543  0.49421493  1
  Sc  Sc64  1  0.29245345  0.70715172  0.70277733  1
  Sc  Sc65  1  0.09848309  0.29992316  0.29975175  1
  Sc  Sc66  1  0.70675448  0.90742402  0.69183189  1
  Sc  Sc67  1  0.50042692  0.71673468  0.50507731  1
  Sc  Sc68  1  0.70065624  0.30760616  0.90042470  1
  Sc  Sc69  1  0.89385290  0.68783724  0.49966761  1
  Sc  Sc70  1  0.90811693  0.49851452  0.69248442  1
  Sc  Sc71  1  0.10603865  0.89973064  0.30289621  1
  Sc  Sc72  1  0.70277104  0.90595449  0.50072638  1
  Sc  Sc73  1  0.89439476  0.10017668  0.71039324  1
  Sc  Sc74  1  0.29728180  0.30742390  0.10349065  1
  Sc  Sc75  1  0.69721911  0.09856479  0.30800213  1
  Sc  Sc76  1  0.51405660  0.71215487  0.29349068  1
  Sc  Sc77  1  0.49742478  0.29904475  0.29245435  1
  Sc  Sc78  1  0.90009650  0.29795331  0.30589487  1
  Sc  Sc79  1  0.90065959  0.90026147  0.69698741  1
  Sc  Sc80  1  0.90055224  0.09731851  0.48707525  1
  Sc  Sc81  1  0.89999858  0.89756697  0.90665834  1
  Sc  Sc82  1  0.50940186  0.49091665  0.29616101  1
  Sc  Sc83  1  0.70411651  0.50433497  0.28503345  1
  Sc  Sc84  1  0.08621464  0.10314814  0.10019570  1
  Sc  Sc85  1  0.49449549  0.69849934  0.90644391  1
  Sc  Sc86  1  0.90530003  0.69316559  0.69331076  1
  Sc  Sc87  1  0.50307370  0.49030257  0.49752832  1
  Sc  Sc88  1  0.50232291  0.70722057  0.10032217  1
  Sc  Sc89  1  0.90230799  0.30307494  0.70563736  1
  Sc  Sc90  1  0.69923026  0.49176762  0.50592994  1
  Sc  Sc91  1  0.29121405  0.90039805  0.70203496  1
  Sc  Sc92  1  0.90452131  0.09970771  0.29875581  1
  Sc  Sc93  1  0.69314635  0.30709195  0.09580191  1
  Sc  Sc94  1  0.28304765  0.70025235  0.30062804  1
  Sc  Sc95  1  0.71105784  0.90182593  0.10502236  1
  Sc  Sc96  1  0.09702191  0.30435441  0.90534388  1
  Sc  Sc97  1  0.09909589  0.09527202  0.70223326  1
  Sc  Sc98  1  0.89837810  0.90462223  0.50081111  1
  Sc  Sc99  1  0.09520837  0.49803321  0.49070319  1
  Nb  Nb100  1  0.30018594  0.29880761  0.69385552  1
  Nb  Nb101  1  0.50150918  0.10850105  0.10241781  1
  Nb  Nb102  1  0.49850197  0.89910972  0.69580960  1
  Nb  Nb103  1  0.90460453  0.50118401  0.29862198  1
  Nb  Nb104  1  0.90486617  0.49756850  0.49315732  1
  Nb  Nb105  1  0.09836345  0.50174529  0.90430356  1
  Nb  Nb106  1  0.70115065  0.10539991  0.50846682  1
  Nb  Nb107  1  0.50226620  0.30191474  0.90832448  1
  Nb  Nb108  1  0.70231137  0.69883342  0.49375691  1
  Nb  Nb109  1  0.10274840  0.51417063  0.29577386  1
  Nb  Nb110  1  0.70695808  0.88507388  0.30298440  1
  Nb  Nb111  1  0.70402250  0.70697113  0.30838272  1
  Nb  Nb112  1  0.10251053  0.50277049  0.70220799  1
  Nb  Nb113  1  0.09431712  0.69532543  0.30226393  1
  Nb  Nb114  1  0.50206160  0.29305159  0.09754848  1
  Nb  Nb115  1  0.29959607  0.70739807  0.90037446  1
  Nb  Nb116  1  0.49123819  0.90314691  0.50859342  1
  Nb  Nb117  1  0.29636662  0.08584480  0.90086827  1
  Nb  Nb118  1  0.10439024  0.49431262  0.09930588  1
  Nb  Nb119  1  0.09398607  0.90399713  0.50014070  1
  Nb  Nb120  1  0.89441348  0.09839440  0.10557217  1
  Nb  Nb121  1  0.49191858  0.30206997  0.70053560  1
  Nb  Nb122  1  0.69712141  0.69542255  0.89354368  1
  Nb  Nb123  1  0.90265925  0.70349634  0.09982780  1
  Nb  Nb124  1  0.29846095  0.91557349  0.90116874  1
  Nb  Nb125  1  0.80094548  0.19929998  0.19537416  1
  Nb  Nb126  1  0.60542453  0.60008096  -0.00134361  1
  Nb  Nb127  1  0.19994466  0.19513125  0.19975803  1
  Nb  Nb128  1  0.80390098  0.19764181  0.00487387  1
  Nb  Nb129  1  0.40076164  0.20104935  0.60253997  1
  Nb  Nb130  1  0.40843381  0.60246667  0.39523591  1
  Nb  Nb131  1  0.39490645  0.59792473  0.59437764  1
  Nb  Nb132  1  -0.00347235  0.20099142  0.59782518  1
  Nb  Nb133  1  0.00194638  0.41379040  0.20157380  1
  Nb  Nb134  1  0.59653465  0.00672093  0.00053380  1
  Nb  Nb135  1  0.20301210  0.58857330  0.60259614  1
  Nb  Nb136  1  0.40188109  0.60145656  0.20745436  1
  Nb  Nb137  1  0.79358950  0.79071765  0.80042133  1
  Nb  Nb138  1  0.40814433  0.39530858  0.00016390  1
  Nb  Nb139  1  0.60422286  0.60755396  0.39920773  1
  Nb  Nb140  1  0.59969383  0.80203705  0.79840716  1
  Nb  Nb141  1  0.40248721  0.00333655  0.60156881  1
  Nb  Nb142  1  0.59417496  -0.00455184  0.80239466  1
  Nb  Nb143  1  0.80217480  0.20168312  0.59453128  1
  Nb  Nb144  1  0.39925852  0.80703566  0.80470485  1
  Nb  Nb145  1  0.19937346  0.00710507  0.19940499  1
  Nb  Nb146  1  0.19961703  0.40183939  0.60490588  1
  Nb  Nb147  1  -0.00211794  0.79293107  0.20359572  1
  Nb  Nb148  1  0.20493177  0.79882696  -0.00687408  1
  Nb  Nb149  1  -0.00052836  0.79604719  0.39552436  1
  Pd  Pd150  1  0.80265344  0.79814857  0.60042795  1
  Pd  Pd151  1  -0.00550343  0.79284023  0.58663725  1
  Pd  Pd152  1  0.80182430  0.58802822  0.59747640  1
  Pd  Pd153  1  0.38966909  0.20881361  0.00344203  1
  Pd  Pd154  1  0.40290740  0.79296277  0.39086091  1
  Pd  Pd155  1  0.18993236  0.80346899  0.40640851  1
  Pd  Pd156  1  0.00989910  0.39568233  0.59664112  1
  Pd  Pd157  1  0.79676003  0.39859424  0.60744945  1
  Pd  Pd158  1  0.01037485  0.79160253  0.00315606  1
  Pd  Pd159  1  0.19604522  0.19985042  0.80330417  1
  Pd  Pd160  1  -0.00012865  0.60166839  0.19446847  1
  Pd  Pd161  1  0.80088104  0.40242430  0.79388963  1
  Pd  Pd162  1  0.20329411  0.40340783  0.80422412  1
  Pd  Pd163  1  0.19586300  0.20456833  0.60156042  1
  Pd  Pd164  1  -0.00085132  0.00186650  -0.00331861  1
  Pd  Pd165  1  -0.00834007  0.00968781  0.60305814  1
  Pd  Pd166  1  0.61035104  -0.00805092  0.20165773  1
  Pd  Pd167  1  0.60598542  0.79840423  0.00179074  1
  Pd  Pd168  1  0.41017952  0.58900794  0.01269601  1
  Pd  Pd169  1  -0.01455315  0.79692766  0.80136630  1
  Pd  Pd170  1  0.60918346  0.19468660  -0.00793991  1
  Pd  Pd171  1  0.41191969  0.19593035  0.40664818  1
  Pd  Pd172  1  0.20885716  0.59421003  0.79529661  1
  Pd  Pd173  1  0.00215452  0.40828780  0.80363730  1
  Pd  Pd174  1  0.00019088  -0.00360529  0.79932015  1
  Pd  Pd175  1  0.58906471  0.59838080  0.58539777  1
  Pd  Pd176  1  0.61005920  0.80744394  0.59938785  1
  Pd  Pd177  1  0.59882624  0.39392342  0.80035794  1
  Pd  Pd178  1  0.00316531  -0.00859648  0.20727395  1
  Pd  Pd179  1  0.60579147  0.80930578  0.19724170  1
  Pd  Pd180  1  0.60621550  -0.00582699  0.40321854  1
  Pd  Pd181  1  0.60051375  0.80609257  0.40975785  1
  Pd  Pd182  1  0.19422125  0.80317454  0.19376162  1
  Pd  Pd183  1  0.59626145  0.19960205  0.81002105  1
  Pd  Pd184  1  0.80949772  0.60092133  0.79206313  1
  Pd  Pd185  1  0.39307682  0.80691731  -0.00101905  1
  Pd  Pd186  1  0.39563447  0.79364035  0.21068945  1
  Pd  Pd187  1  0.00666868  0.40186710  0.39006515  1
  Pd  Pd188  1  0.39343863  0.38855362  0.81412052  1
  Pd  Pd189  1  0.19594077  0.79304864  0.59301391  1
  Pd  Pd190  1  0.79417941  0.00368322  0.39945899  1
  Pd  Pd191  1  0.79458019  0.79104132  -0.00086266  1
  Pd  Pd192  1  0.59539314  0.20071227  0.39256667  1
  Pd  Pd193  1  0.39766058  0.20880229  0.80089455  1
  Pd  Pd194  1  0.19800266  0.60064561  0.00018741  1
  Pd  Pd195  1  0.39581831  0.60945524  0.79259200  1
  Pd  Pd196  1  0.79552660  0.41061407  0.39280902  1
  Pd  Pd197  1  0.20284388  -0.00037601  0.60458736  1
  Pd  Pd198  1  -0.00316085  0.19694869  -0.00152925  1
  Pd  Pd199  1  0.79061716  0.58524117  0.40189681  1
  Rh  Rh200  1  0.80010772  0.19564683  0.39828925  1
  Rh  Rh201  1  -0.00284711  0.20261925  0.40740342  1
  Rh  Rh202  1  0.40482056  0.40211416  0.19106236  1
  Rh  Rh203  1  0.18965441  -0.00545198  0.79505555  1
  Rh  Rh204  1  0.19922391  -0.00373699  0.39412937  1
  Rh  Rh205  1  0.19987764  0.20033711  0.39073347  1
  Rh  Rh206  1  0.20727721  0.40575457  -0.00882041  1
  Rh  Rh207  1  0.59766833  0.60596920  0.20244043  1
  Rh  Rh208  1  0.38914551  0.80566848  0.60952853  1
  Rh  Rh209  1  0.80725308  0.79315623  0.19831179  1
  Rh  Rh210  1  0.80733460  0.01242832  0.59655397  1
  Rh  Rh211  1  0.78985720  0.60955627  0.00804059  1
  Rh  Rh212  1  0.81124295  0.39226517  0.20192286  1
  Rh  Rh213  1  0.19471732  -0.00547326  0.00705313  1
  Rh  Rh214  1  0.00748941  0.59873266  0.00257019  1
  Rh  Rh215  1  -0.00451017  0.59295953  0.80243204  1
  Rh  Rh216  1  0.59535304  -0.00334123  0.60091040  1
  Rh  Rh217  1  0.60776228  0.40733497  0.39324347  1
  Rh  Rh218  1  0.00625080  0.19682382  0.79618195  1
  Rh  Rh219  1  0.39315602  0.00512838  0.19602475  1
  Rh  Rh220  1  0.79784710  0.00899327  -0.00114923  1
  Rh  Rh221  1  0.40279610  0.00546803  0.40996087  1
  Rh  Rh222  1  0.80387965  0.39106364  0.00010651  1
  Rh  Rh223  1  0.60613471  0.20536798  0.20298450  1
  Rh  Rh224  1  0.80228569  0.21080931  0.80018794  1
  Rh  Rh225  1  0.20578107  0.80839139  0.80964034  1
  Rh  Rh226  1  -0.00174537  0.21026281  0.19957481  1
  Rh  Rh227  1  0.40721129  0.40483930  0.39024548  1
  Rh  Rh228  1  0.60320001  0.39568972  0.60487016  1
  Rh  Rh229  1  0.79945160  0.60514254  0.19856964  1
  Rh  Rh230  1  0.40628336  0.00061797  0.01028877  1
  Rh  Rh231  1  0.19959006  0.19765619  0.00443118  1
  Rh  Rh232  1  -0.00246864  0.60157894  0.40416590  1
  Rh  Rh233  1  0.20595600  0.59801930  0.20101901  1
  Rh  Rh234  1  0.59306826  0.40854557  -0.00023458  1
  Rh  Rh235  1  0.00117233  0.40958629  0.00447012  1
  Rh  Rh236  1  0.80634569  0.80052590  0.41187415  1
  Rh  Rh237  1  0.59704835  0.20857336  0.59512918  1
  Rh  Rh238  1  0.20331865  0.59636546  0.40072989  1
  Rh  Rh239  1  0.39263399  0.20254548  0.19094515  1
  Rh  Rh240  1  0.00612485  0.59325417  0.59281877  1
  Rh  Rh241  1  0.59920442  0.39131438  0.19782639  1
  Rh  Rh242  1  0.18850342  0.39521949  0.20658690  1
  Rh  Rh243  1  0.40340017  -0.00646320  0.79148071  1
  Rh  Rh244  1  0.00087951  -0.01303194  0.39430459  1
  Rh  Rh245  1  0.80019149  -0.01629357  0.79982394  1
  Rh  Rh246  1  0.79453200  0.00775691  0.21253626  1
  Rh  Rh247  1  0.59059118  0.60839468  0.80445813  1
  Rh  Rh248  1  0.19272561  0.40225700  0.39654800  1
  Rh  Rh249  1  0.39347480  0.39746864  0.59746369  1
