# generated using pymatgen
data_ZrScNbPdRh
_symmetry_space_group_name_H-M   'P 1'
_cell_length_a   16.55706960
_cell_length_b   16.55583533
_cell_length_c   16.55386698
_cell_angle_alpha   90.01839370
_cell_angle_beta   90.03542900
_cell_angle_gamma   89.97731630
_symmetry_Int_Tables_number   1
_chemical_formula_structural   ZrScNbPdRh
_chemical_formula_sum   'Zr50 Sc50 Nb50 Pd50 Rh50'
_cell_volume   4537.68029533
_cell_formula_units_Z   50
loop_
 _symmetry_equiv_pos_site_id
 _symmetry_equiv_pos_as_xyz
  1  'x, y, z'
loop_
 _atom_site_type_symbol
 _atom_site_label
 _atom_site_symmetry_multiplicity
 _atom_site_fract_x
 _atom_site_fract_y
 _atom_site_fract_z
 _atom_site_occupancy
  Zr  Zr0  1  0.29978476  0.10792858  0.10688615  1
  Zr  Zr1  1  0.90164053  0.29743822  0.10329226  1
  Zr  Zr2  1  0.29254668  0.30097068  0.89846401  1
  Zr  Zr3  1  0.89768044  0.70070124  0.09861503  1
  Zr  Zr4  1  0.30839510  0.68925614  0.10307896  1
  Zr  Zr5  1  0.11086602  0.49516835  0.10018679  1
  Zr  Zr6  1  0.69897018  0.70034457  0.70069517  1
  Zr  Zr7  1  0.49173655  0.50444256  0.50249346  1
  Zr  Zr8  1  0.49085925  0.70032490  0.90107123  1
  Zr  Zr9  1  0.89508721  0.49517057  0.10882590  1
  Zr  Zr10  1  0.10704316  0.68845431  0.89288949  1
  Zr  Zr11  1  0.70373363  0.30108078  0.49937727  1
  Zr  Zr12  1  0.49957904  0.29248485  0.90339322  1
  Zr  Zr13  1  0.30875867  0.89159075  0.90075333  1
  Zr  Zr14  1  0.49778441  0.50350139  0.90065575  1
  Zr  Zr15  1  0.50693272  0.50616921  0.70365882  1
  Zr  Zr16  1  0.49788456  0.70995787  0.29796213  1
  Zr  Zr17  1  0.89795749  0.49621924  0.89841512  1
  Zr  Zr18  1  0.48502501  0.50065128  0.10572158  1
  Zr  Zr19  1  0.09745736  0.10805860  0.90229679  1
  Zr  Zr20  1  0.49176060  0.10170605  0.49798151  1
  Zr  Zr21  1  0.70705289  0.49590225  0.10604465  1
  Zr  Zr22  1  0.88971719  0.28804781  0.69511874  1
  Zr  Zr23  1  0.29798910  0.10596285  0.90461330  1
  Zr  Zr24  1  0.49444319  0.29999955  0.11192390  1
  Zr  Zr25  1  0.10527560  0.90074167  0.69566873  1
  Zr  Zr26  1  0.10803356  0.50143862  0.48917283  1
  Zr  Zr27  1  0.69989829  0.29778660  0.10561544  1
  Zr  Zr28  1  0.09782689  0.50950917  0.70260872  1
  Zr  Zr29  1  0.89923759  0.50298884  0.69031398  1
  Zr  Zr30  1  0.10371017  0.29828492  0.49404001  1
  Zr  Zr31  1  0.70135583  0.91188492  0.09118457  1
  Zr  Zr32  1  0.10113833  0.29653962  0.89940187  1
  Zr  Zr33  1  0.91113681  0.90849503  0.09998681  1
  Zr  Zr34  1  0.68970190  0.30639292  0.30339743  1
  Zr  Zr35  1  0.90096205  0.70137671  0.89961762  1
  Zr  Zr36  1  0.70034450  0.69926337  0.09969369  1
  Zr  Zr37  1  0.09939423  0.69863799  0.69554639  1
  Zr  Zr38  1  0.89107893  0.90626163  0.69969275  1
  Zr  Zr39  1  0.50141582  0.30344354  0.48305601  1
  Zr  Zr40  1  0.29651656  0.29823429  0.50471828  1
  Zr  Zr41  1  0.89647671  0.90290823  0.29801079  1
  Zr  Zr42  1  0.90214557  0.28664086  0.89657967  1
  Zr  Zr43  1  0.11054848  0.09916283  0.50078415  1
  Zr  Zr44  1  0.49944158  0.90186014  0.70521171  1
  Zr  Zr45  1  0.70409516  0.49806510  0.49252401  1
  Zr  Zr46  1  0.30653766  0.69818032  0.49592139  1
  Zr  Zr47  1  0.49384641  0.10345270  0.29942871  1
  Zr  Zr48  1  0.50175070  0.29590992  0.70831235  1
  Zr  Zr49  1  0.50425273  0.90666904  0.49948218  1
  Sc  Sc50  1  0.49671547  0.48810973  0.30662581  1
  Sc  Sc51  1  0.50137100  0.90094922  0.10335684  1
  Sc  Sc52  1  0.88996416  0.89554707  0.50083329  1
  Sc  Sc53  1  0.90546403  0.69802741  0.68599037  1
  Sc  Sc54  1  0.29912608  0.70493164  0.70884013  1
  Sc  Sc55  1  0.31349717  0.90747346  0.09730700  1
  Sc  Sc56  1  0.30402984  0.70498224  0.30051443  1
  Sc  Sc57  1  0.69138383  0.08546253  0.49452641  1
  Sc  Sc58  1  0.10396380  0.90112034  0.49922067  1
  Sc  Sc59  1  0.69223861  0.50429805  0.90277330  1
  Sc  Sc60  1  0.09261704  0.90931773  0.91137815  1
  Sc  Sc61  1  0.50191654  0.69867090  0.49830361  1
  Sc  Sc62  1  0.29903103  0.89301502  0.69334814  1
  Sc  Sc63  1  0.90533810  0.29208021  0.28691332  1
  Sc  Sc64  1  0.30018598  0.29011148  0.29131098  1
  Sc  Sc65  1  0.69600127  0.90178048  0.31146612  1
  Sc  Sc66  1  0.89531577  0.50683413  0.49452190  1
  Sc  Sc67  1  0.11113857  0.49746337  0.89643070  1
  Sc  Sc68  1  0.89591313  0.29812684  0.50415058  1
  Sc  Sc69  1  0.50507221  0.89876232  0.90468780  1
  Sc  Sc70  1  0.09778061  0.69944418  0.30811687  1
  Sc  Sc71  1  0.50214809  0.90177095  0.29642913  1
  Sc  Sc72  1  0.49809360  0.10171396  0.70257511  1
  Sc  Sc73  1  0.29775150  0.50267479  0.70138404  1
  Sc  Sc74  1  0.30984303  0.89808325  0.30157742  1
  Sc  Sc75  1  0.29939415  0.90526434  0.49896331  1
  Sc  Sc76  1  0.70614605  0.70270350  0.49335484  1
  Sc  Sc77  1  0.89523255  0.90368164  0.90359300  1
  Sc  Sc78  1  0.69740846  0.09248595  0.90266906  1
  Sc  Sc79  1  0.49498422  0.69326223  0.69942463  1
  Sc  Sc80  1  0.10041512  0.11303431  0.30008615  1
  Sc  Sc81  1  0.08983394  0.89745563  0.30101561  1
  Sc  Sc82  1  0.69890156  0.70618330  0.30914536  1
  Sc  Sc83  1  0.69973226  0.09065731  0.29009148  1
  Sc  Sc84  1  0.10007134  0.29462817  0.11017545  1
  Sc  Sc85  1  0.70481319  0.09588325  0.70986543  1
  Sc  Sc86  1  0.90540705  0.69923093  0.30653120  1
  Sc  Sc87  1  0.50724875  0.09605734  0.10107713  1
  Sc  Sc88  1  0.49972458  0.70466361  0.10034935  1
  Sc  Sc89  1  0.50847970  0.10388588  0.90022273  1
  Sc  Sc90  1  0.90537709  0.10370324  0.51277208  1
  Sc  Sc91  1  0.90484178  0.09782308  0.89534258  1
  Sc  Sc92  1  0.11810648  0.29888839  0.70283093  1
  Sc  Sc93  1  0.09457489  0.69764555  0.10203243  1
  Sc  Sc94  1  0.69324066  0.28697373  0.89624232  1
  Sc  Sc95  1  0.69563396  0.70661720  0.90316404  1
  Sc  Sc96  1  0.29928497  0.11070776  0.68974479  1
  Sc  Sc97  1  0.09678463  0.09841289  0.69522390  1
  Sc  Sc98  1  0.09125863  0.70326982  0.49366399  1
  Sc  Sc99  1  0.10286965  0.50458268  0.29601446  1
  Nb  Nb100  1  0.09314569  0.30228977  0.29761990  1
  Nb  Nb101  1  0.89742007  0.09726632  0.29308260  1
  Nb  Nb102  1  0.29799967  0.69775044  0.90578461  1
  Nb  Nb103  1  0.29407965  0.50541792  0.91540070  1
  Nb  Nb104  1  0.09382686  0.09232486  0.09669734  1
  Nb  Nb105  1  0.30513761  0.30177684  0.70501311  1
  Nb  Nb106  1  0.29971695  0.50065463  0.49543790  1
  Nb  Nb107  1  0.89766942  0.49815686  0.29875362  1
  Nb  Nb108  1  0.29732803  0.10055033  0.49114813  1
  Nb  Nb109  1  0.70032068  0.90659264  0.88500212  1
  Nb  Nb110  1  0.89460028  0.09836105  0.11351111  1
  Nb  Nb111  1  0.29872908  0.50905582  0.29479314  1
  Nb  Nb112  1  0.09987833  0.90406768  0.10213106  1
  Nb  Nb113  1  0.70043059  0.89891643  0.70471478  1
  Nb  Nb114  1  0.69940695  0.89532434  0.50443800  1
  Nb  Nb115  1  0.49810377  0.29769357  0.30155087  1
  Nb  Nb116  1  0.29902709  0.09592129  0.29960379  1
  Nb  Nb117  1  0.69813924  0.49855459  0.69918289  1
  Nb  Nb118  1  0.90176525  0.10281999  0.70649409  1
  Nb  Nb119  1  0.90139288  0.70167005  0.49411237  1
  Nb  Nb120  1  0.29906286  0.49489684  0.10231262  1
  Nb  Nb121  1  0.70405426  0.09779321  0.09716564  1
  Nb  Nb122  1  0.30160153  0.30907013  0.10074386  1
  Nb  Nb123  1  0.70031984  0.29925825  0.69711406  1
  Nb  Nb124  1  0.70961614  0.50162046  0.30087526  1
  Nb  Nb125  1  0.19883787  0.80813911  0.19152659  1
  Nb  Nb126  1  0.80142119  0.80476575  0.19576192  1
  Nb  Nb127  1  0.00453024  0.40052265  0.59799807  1
  Nb  Nb128  1  -0.00009620  0.39901495  -0.00208984  1
  Nb  Nb129  1  0.20262006  0.60039272  0.59146768  1
  Nb  Nb130  1  0.00140740  0.39755489  0.39599648  1
  Nb  Nb131  1  0.40115543  0.39910554  0.60399137  1
  Nb  Nb132  1  0.19728252  -0.00076638  0.19845957  1
  Nb  Nb133  1  0.79794091  0.59584925  0.79515726  1
  Nb  Nb134  1  -0.00109254  0.59115023  0.00040016  1
  Nb  Nb135  1  0.60129177  0.20547809  0.59904584  1
  Nb  Nb136  1  0.20210926  0.79849451  0.00521805  1
  Nb  Nb137  1  -0.00431542  0.39641687  0.79483646  1
  Nb  Nb138  1  0.80115434  0.19089166  0.00886085  1
  Nb  Nb139  1  0.60635301  0.80746622  0.60221109  1
  Nb  Nb140  1  0.00240848  0.80096202  0.79692415  1
  Nb  Nb141  1  0.20469076  0.00131831  0.80298299  1
  Nb  Nb142  1  0.80164441  0.19269459  0.39332098  1
  Nb  Nb143  1  0.60339767  0.59581970  0.20636191  1
  Nb  Nb144  1  0.60041434  0.39869909  0.60229171  1
  Nb  Nb145  1  0.59550296  0.39726690  0.00629794  1
  Nb  Nb146  1  0.39597094  0.39956885  0.80166089  1
  Nb  Nb147  1  0.39286512  0.00159823  0.80199896  1
  Nb  Nb148  1  0.79588255  0.39980731  0.79307765  1
  Nb  Nb149  1  -0.00544985  0.00817459  0.39799873  1
  Pd  Pd150  1  0.40855499  0.79727362  0.59871390  1
  Pd  Pd151  1  0.00063828  0.79555236  0.20324678  1
  Pd  Pd152  1  0.59635634  0.40915683  0.20037449  1
  Pd  Pd153  1  0.20332653  0.39647258  0.38484872  1
  Pd  Pd154  1  0.59574181  0.59443053  0.01079129  1
  Pd  Pd155  1  0.59770014  0.59723749  0.39395012  1
  Pd  Pd156  1  0.20536440  0.20325757  0.39340164  1
  Pd  Pd157  1  0.60185515  0.39782477  0.80525170  1
  Pd  Pd158  1  0.01002307  0.79215043  -0.00686357  1
  Pd  Pd159  1  0.59242852  0.79449170  0.79706595  1
  Pd  Pd160  1  0.20101284  0.80332705  0.39341504  1
  Pd  Pd161  1  0.19225274  -0.00461406  0.38758821  1
  Pd  Pd162  1  0.80036960  0.59895018  -0.00792551  1
  Pd  Pd163  1  0.81395637  0.38767395  0.39063720  1
  Pd  Pd164  1  0.19708281  0.20694808  0.01267942  1
  Pd  Pd165  1  0.79398192  0.38618527  -0.01147096  1
  Pd  Pd166  1  0.40119078  0.39792593  -0.00564041  1
  Pd  Pd167  1  0.39165805  0.00194063  0.60584618  1
  Pd  Pd168  1  0.60739981  0.60428818  0.59163635  1
  Pd  Pd169  1  0.60416949  0.00379488  0.60984493  1
  Pd  Pd170  1  0.20465758  0.39594562  0.20737176  1
  Pd  Pd171  1  0.79609812  0.00589235  0.60077904  1
  Pd  Pd172  1  0.40257690  0.19799494  0.00707762  1
  Pd  Pd173  1  0.20208243  0.79162408  0.58882302  1
  Pd  Pd174  1  0.80564872  0.00554216  0.40568453  1
  Pd  Pd175  1  0.00223662  0.59771563  0.19876555  1
  Pd  Pd176  1  0.60192670  0.80683782  -0.00131196  1
  Pd  Pd177  1  -0.00157241  -0.00592076  0.59240024  1
  Pd  Pd178  1  -0.00338992  0.80933022  0.59873710  1
  Pd  Pd179  1  0.40103114  -0.00356765  0.39719174  1
  Pd  Pd180  1  0.20230496  0.40720379  0.60440560  1
  Pd  Pd181  1  0.79609047  0.61341274  0.21236592  1
  Pd  Pd182  1  0.20441128  -0.00541555  0.00182765  1
  Pd  Pd183  1  0.19236744  0.80920780  0.81106352  1
  Pd  Pd184  1  -0.01030817  0.19993102  0.39967879  1
  Pd  Pd185  1  0.40211843  0.60126519  0.39090214  1
  Pd  Pd186  1  0.40572433  0.20638726  0.59552516  1
  Pd  Pd187  1  0.01021298  0.20793114  0.60542395  1
  Pd  Pd188  1  0.60934134  0.79984861  0.20018736  1
  Pd  Pd189  1  0.78640175  0.18329038  0.59162572  1
  Pd  Pd190  1  0.19789745  0.61132230  0.20306875  1
  Pd  Pd191  1  0.41000272  0.00716869  -0.00517131  1
  Pd  Pd192  1  0.80872579  0.79397055  0.79604304  1
  Pd  Pd193  1  0.79654386  0.80917851  0.00084170  1
  Pd  Pd194  1  0.60122481  0.19294184  0.20153401  1
  Pd  Pd195  1  0.38957738  0.59515955  0.80332392  1
  Pd  Pd196  1  0.38482601  0.39580864  0.39450272  1
  Pd  Pd197  1  0.00555839  -0.00529192  0.79927701  1
  Pd  Pd198  1  0.60758670  0.18956561  0.39888728  1
  Pd  Pd199  1  0.79438664  0.60612987  0.59696755  1
  Rh  Rh200  1  0.01015128  0.00853912  0.20955802  1
  Rh  Rh201  1  -0.00665601  0.19630030  0.01136524  1
  Rh  Rh202  1  0.40786493  0.59895847  0.21017086  1
  Rh  Rh203  1  0.39110432  0.20033398  0.39708257  1
  Rh  Rh204  1  0.20023216  0.18855380  0.79372082  1
  Rh  Rh205  1  0.80305458  0.79909145  0.39599297  1
  Rh  Rh206  1  0.38781386  0.59662629  0.60162155  1
  Rh  Rh207  1  0.60006302  -0.00298102  -0.00368153  1
  Rh  Rh208  1  0.40373570  0.80193187  0.79994403  1
  Rh  Rh209  1  0.20500816  0.40737733  0.80196917  1
  Rh  Rh210  1  0.40624407  0.80476710  0.40576755  1
  Rh  Rh211  1  0.60524255  0.19138044  0.79266355  1
  Rh  Rh212  1  0.60074028  -0.00161123  0.19959521  1
  Rh  Rh213  1  0.20069144  0.19868032  0.59972874  1
  Rh  Rh214  1  0.39857163  0.79497953  0.00524278  1
  Rh  Rh215  1  0.00654178  0.20397791  0.78717643  1
  Rh  Rh216  1  0.39592347  0.19761972  0.80523748  1
  Rh  Rh217  1  0.39904473  0.59907980  0.00020703  1
  Rh  Rh218  1  0.59354930  0.00063908  0.39440584  1
  Rh  Rh219  1  0.00177840  0.40711799  0.20231649  1
  Rh  Rh220  1  0.79432791  -0.00976031  0.19968572  1
  Rh  Rh221  1  0.79595262  0.79732898  0.59937355  1
  Rh  Rh222  1  0.39003980  0.39997941  0.21057183  1
  Rh  Rh223  1  0.60019798  0.40907691  0.40169249  1
  Rh  Rh224  1  0.00622390  0.19061705  0.19494300  1
  Rh  Rh225  1  -0.00976805  0.60178944  0.80789982  1
  Rh  Rh226  1  0.40054759  0.19807828  0.19989665  1
  Rh  Rh227  1  0.79082560  0.20139270  0.20360517  1
  Rh  Rh228  1  0.80108040  0.39148875  0.21134766  1
  Rh  Rh229  1  0.19672192  0.60570613  0.00850657  1
  Rh  Rh230  1  0.20592818  0.60653508  0.39937342  1
  Rh  Rh231  1  0.80429305  0.00485887  -0.00497770  1
  Rh  Rh232  1  0.39695231  0.00376284  0.20163488  1
  Rh  Rh233  1  -0.00772680  0.01039605  0.00135811  1
  Rh  Rh234  1  0.39430537  0.80315312  0.19555723  1
  Rh  Rh235  1  0.80478235  0.60595163  0.39634564  1
  Rh  Rh236  1  -0.00499881  0.59087338  0.39769080  1
  Rh  Rh237  1  0.20649513  0.00252008  0.60425246  1
  Rh  Rh238  1  0.00874222  0.59362564  0.58179691  1
  Rh  Rh239  1  0.60735591  0.20218722  0.00903409  1
  Rh  Rh240  1  0.80400677  0.00380293  0.80203546  1
  Rh  Rh241  1  -0.00528852  0.81041649  0.40605402  1
  Rh  Rh242  1  0.79905607  0.40460649  0.60261444  1
  Rh  Rh243  1  0.60670405  0.60819759  0.80428017  1
  Rh  Rh244  1  0.79538875  0.19611540  0.80730116  1
  Rh  Rh245  1  0.59304210  0.00129673  0.80087314  1
  Rh  Rh246  1  0.21035019  0.59681187  0.79451439  1
  Rh  Rh247  1  0.59641363  0.80368674  0.41039333  1
  Rh  Rh248  1  0.19681449  0.39184816  0.00431767  1
  Rh  Rh249  1  0.19600639  0.19531111  0.19774858  1
