# generated using pymatgen
data_ZrScNbPdRh
_symmetry_space_group_name_H-M   'P 1'
_cell_length_a   16.56062627
_cell_length_b   16.56125035
_cell_length_c   16.55648626
_cell_angle_alpha   90.00651602
_cell_angle_beta   89.98683016
_cell_angle_gamma   89.99534151
_symmetry_Int_Tables_number   1
_chemical_formula_structural   ZrScNbPdRh
_chemical_formula_sum   'Zr50 Sc50 Nb50 Pd50 Rh50'
_cell_volume   4540.85919997
_cell_formula_units_Z   50
loop_
 _symmetry_equiv_pos_site_id
 _symmetry_equiv_pos_as_xyz
  1  'x, y, z'
loop_
 _atom_site_type_symbol
 _atom_site_label
 _atom_site_symmetry_multiplicity
 _atom_site_fract_x
 _atom_site_fract_y
 _atom_site_fract_z
 _atom_site_occupancy
  Zr  Zr0  1  0.09804657  0.30360780  0.10641652  1
  Zr  Zr1  1  0.50614728  0.10174353  0.29898635  1
  Zr  Zr2  1  0.89124335  0.50705256  0.30620424  1
  Zr  Zr3  1  0.90838639  0.09910420  0.49405282  1
  Zr  Zr4  1  0.50146776  0.29921285  0.10263588  1
  Zr  Zr5  1  0.30054823  0.69527671  0.49986674  1
  Zr  Zr6  1  0.89467616  0.50463630  0.50261700  1
  Zr  Zr7  1  0.09160495  0.70360234  0.09180039  1
  Zr  Zr8  1  0.70362319  0.70823984  0.70506088  1
  Zr  Zr9  1  0.30171187  0.50237158  0.10060503  1
  Zr  Zr10  1  0.89795267  0.50183135  0.10234184  1
  Zr  Zr11  1  0.30087489  0.30671580  0.08442991  1
  Zr  Zr12  1  0.69480134  0.30459342  0.89725263  1
  Zr  Zr13  1  0.30705120  0.88439572  0.89814317  1
  Zr  Zr14  1  0.89475232  0.10136832  0.10681860  1
  Zr  Zr15  1  0.30333770  0.89214900  0.50594313  1
  Zr  Zr16  1  0.30475232  0.70177276  0.10602267  1
  Zr  Zr17  1  0.29905900  0.89089388  0.28974440  1
  Zr  Zr18  1  0.49766064  0.70873241  0.49670239  1
  Zr  Zr19  1  0.70165170  0.49859613  0.49665882  1
  Zr  Zr20  1  0.50416786  0.89610848  0.49467301  1
  Zr  Zr21  1  0.89452585  0.30095686  0.89948248  1
  Zr  Zr22  1  0.49296933  0.70352120  0.30146320  1
  Zr  Zr23  1  0.89539549  0.08947412  0.30470310  1
  Zr  Zr24  1  0.89833067  0.69629780  0.50000206  1
  Zr  Zr25  1  0.89962620  0.29972402  0.10292921  1
  Zr  Zr26  1  0.88809026  0.89262045  0.69833729  1
  Zr  Zr27  1  0.50494795  0.30369357  0.69838301  1
  Zr  Zr28  1  0.69723210  0.29923232  0.50507506  1
  Zr  Zr29  1  0.51377171  0.50332353  0.89231025  1
  Zr  Zr30  1  0.29477489  0.49568530  0.90094835  1
  Zr  Zr31  1  0.28951499  0.49661102  0.70076624  1
  Zr  Zr32  1  0.69748373  0.90350847  0.49901948  1
  Zr  Zr33  1  0.09758199  0.89362820  0.90347841  1
  Zr  Zr34  1  0.90469590  0.29394079  0.29499226  1
  Zr  Zr35  1  0.30012524  0.11041218  0.90071570  1
  Zr  Zr36  1  0.50327139  0.51304715  0.50125741  1
  Zr  Zr37  1  0.10434424  0.29169394  0.90785235  1
  Zr  Zr38  1  0.69279150  0.50122871  0.30397615  1
  Zr  Zr39  1  0.09767192  0.50536842  0.69944282  1
  Zr  Zr40  1  0.70277618  0.70637317  0.09240824  1
  Zr  Zr41  1  0.68634851  0.08955860  0.88896425  1
  Zr  Zr42  1  0.69842443  0.50915041  0.10151101  1
  Zr  Zr43  1  0.10596731  0.10233338  0.09245494  1
  Zr  Zr44  1  0.10155100  0.09692771  0.89254668  1
  Zr  Zr45  1  0.89310226  0.29791047  0.50941050  1
  Zr  Zr46  1  0.30507999  0.11063512  0.50679224  1
  Zr  Zr47  1  0.49887934  0.49765252  0.30465525  1
  Zr  Zr48  1  0.29611648  0.89684605  0.10185303  1
  Zr  Zr49  1  0.89199756  0.70031365  0.10390555  1
  Sc  Sc50  1  0.30217937  0.09719710  0.29707386  1
  Sc  Sc51  1  0.10394419  0.69587861  0.69745579  1
  Sc  Sc52  1  0.50437656  0.89274688  0.69577157  1
  Sc  Sc53  1  0.70163802  0.50727174  0.89110428  1
  Sc  Sc54  1  0.09971552  0.50786890  0.89983616  1
  Sc  Sc55  1  0.69717309  0.69862847  0.49677223  1
  Sc  Sc56  1  0.51201775  0.10447141  0.50221294  1
  Sc  Sc57  1  0.10694708  0.50058816  0.09935055  1
  Sc  Sc58  1  0.68925314  0.09534330  0.10916916  1
  Sc  Sc59  1  0.09977397  0.69822011  0.50053033  1
  Sc  Sc60  1  0.50318271  0.89650517  0.29796347  1
  Sc  Sc61  1  0.29164555  0.10752044  0.70247322  1
  Sc  Sc62  1  0.09922389  0.69868501  0.89639125  1
  Sc  Sc63  1  0.50352589  0.30545971  0.30442592  1
  Sc  Sc64  1  0.69972646  0.70117415  0.28986093  1
  Sc  Sc65  1  0.89203621  0.09567110  0.69519718  1
  Sc  Sc66  1  0.49742404  0.29324138  0.49670961  1
  Sc  Sc67  1  0.90084931  0.69538981  0.69330920  1
  Sc  Sc68  1  0.09185409  0.10396343  0.31399171  1
  Sc  Sc69  1  0.10865887  0.50872522  0.50384858  1
  Sc  Sc70  1  0.69611164  0.89383985  0.89357118  1
  Sc  Sc71  1  0.69982052  0.90649078  0.29623903  1
  Sc  Sc72  1  0.30386141  0.31178495  0.32178838  1
  Sc  Sc73  1  0.10324904  0.10163592  0.50297562  1
  Sc  Sc74  1  0.30131771  0.29889649  0.88991550  1
  Sc  Sc75  1  0.29729806  0.89131512  0.70142275  1
  Sc  Sc76  1  0.69010853  0.30130274  0.30196011  1
  Sc  Sc77  1  0.29820312  0.70494616  0.70217584  1
  Sc  Sc78  1  0.89605529  0.50529785  0.89731288  1
  Sc  Sc79  1  0.30284843  0.50864992  0.30268273  1
  Sc  Sc80  1  0.69709691  0.89809696  0.10084647  1
  Sc  Sc81  1  0.88958315  0.89005731  0.09882665  1
  Sc  Sc82  1  0.90401793  0.90104969  0.49816563  1
  Sc  Sc83  1  0.51136144  0.10215647  0.69918089  1
  Sc  Sc84  1  0.89820560  0.89595807  0.89283849  1
  Sc  Sc85  1  0.50009438  0.09656170  0.09200098  1
  Sc  Sc86  1  0.69621564  0.09251106  0.30011302  1
  Sc  Sc87  1  0.11122534  0.50055910  0.30180280  1
  Sc  Sc88  1  0.50703193  0.71098656  0.89670666  1
  Sc  Sc89  1  0.49463099  0.28858862  0.90011299  1
  Sc  Sc90  1  0.50960948  0.70158378  0.09818463  1
  Sc  Sc91  1  0.69983876  0.29971557  0.10699430  1
  Sc  Sc92  1  0.50004948  0.69984994  0.69396536  1
  Sc  Sc93  1  0.11217759  0.29792696  0.69317472  1
  Sc  Sc94  1  0.10640944  0.89387478  0.70846457  1
  Sc  Sc95  1  0.10345246  0.89377813  0.50483309  1
  Sc  Sc96  1  0.90402752  0.70239418  0.91104177  1
  Sc  Sc97  1  0.30021573  0.09386088  0.09870516  1
  Sc  Sc98  1  0.10729654  0.29103808  0.49742974  1
  Sc  Sc99  1  0.49693545  0.49992755  0.10934832  1
  Nb  Nb100  1  0.68838141  0.49344587  0.70329643  1
  Nb  Nb101  1  0.10390624  0.70493239  0.30308912  1
  Nb  Nb102  1  0.09863904  0.30160627  0.30139155  1
  Nb  Nb103  1  0.49862164  0.90393320  0.09105303  1
  Nb  Nb104  1  0.90339291  0.70381176  0.30270611  1
  Nb  Nb105  1  0.10209188  0.90153353  0.10247187  1
  Nb  Nb106  1  0.10313137  0.89829363  0.29970013  1
  Nb  Nb107  1  0.69891554  0.09278888  0.69152462  1
  Nb  Nb108  1  0.30380779  0.30127730  0.69074224  1
  Nb  Nb109  1  0.30787077  0.69653790  0.89643510  1
  Nb  Nb110  1  0.69999181  0.09809843  0.49976522  1
  Nb  Nb111  1  0.29773874  0.70441487  0.29526591  1
  Nb  Nb112  1  0.30163236  0.49531524  0.50017296  1
  Nb  Nb113  1  0.50417881  0.50266471  0.70174558  1
  Nb  Nb114  1  0.69090647  0.69672732  0.90620169  1
  Nb  Nb115  1  0.09900640  0.09433723  0.70450337  1
  Nb  Nb116  1  0.70495868  0.91074200  0.69961052  1
  Nb  Nb117  1  0.89693695  0.09958253  0.89723955  1
  Nb  Nb118  1  0.89454697  0.29879574  0.69617308  1
  Nb  Nb119  1  0.49964214  0.09075058  0.89946949  1
  Nb  Nb120  1  0.50224031  0.91024415  0.90250585  1
  Nb  Nb121  1  0.70562959  0.29886326  0.69471976  1
  Nb  Nb122  1  0.89704068  0.49727839  0.69775308  1
  Nb  Nb123  1  0.90226388  0.90347455  0.30220041  1
  Nb  Nb124  1  0.30279096  0.30256912  0.51507825  1
  Nb  Nb125  1  0.79532038  0.19256246  -0.00708578  1
  Nb  Nb126  1  0.00031803  0.60897784  0.20761702  1
  Nb  Nb127  1  0.39752540  -0.00249971  0.40506440  1
  Nb  Nb128  1  0.39894584  0.40536636  0.60217149  1
  Nb  Nb129  1  0.00369940  -0.00837248  0.19834511  1
  Nb  Nb130  1  -0.00557262  0.20050516  0.79366208  1
  Nb  Nb131  1  0.00275662  0.80284766  0.20787310  1
  Nb  Nb132  1  0.40154708  0.60107262  -0.00752284  1
  Nb  Nb133  1  0.39506186  0.20533517  0.19924586  1
  Nb  Nb134  1  -0.00415952  0.40023724  0.60197567  1
  Nb  Nb135  1  0.60101180  0.40204985  0.00038940  1
  Nb  Nb136  1  0.40071341  0.00115118  0.60121393  1
  Nb  Nb137  1  0.40098936  0.59734728  0.80157391  1
  Nb  Nb138  1  0.00041758  0.39765219  0.40299521  1
  Nb  Nb139  1  0.79854976  0.19555986  0.40460211  1
  Nb  Nb140  1  0.79600040  0.19820889  0.79480650  1
  Nb  Nb141  1  0.00478625  0.00019845  0.60856227  1
  Nb  Nb142  1  0.20663916  -0.00573835  0.40072277  1
  Nb  Nb143  1  0.20203972  0.20956913  0.20553519  1
  Nb  Nb144  1  -0.00275428  0.39752830  -0.00234073  1
  Nb  Nb145  1  0.80658286  0.80180218  0.39401286  1
  Nb  Nb146  1  0.80094716  0.00613902  -0.00542599  1
  Nb  Nb147  1  0.40487516  0.00000829  0.80095147  1
  Nb  Nb148  1  -0.00448958  0.39405845  0.79516863  1
  Nb  Nb149  1  -0.00380276  -0.00070713  0.00317165  1
  Pd  Pd150  1  0.78909046  0.59761595  0.60824241  1
  Pd  Pd151  1  -0.00190470  0.79148468  0.79376658  1
  Pd  Pd152  1  0.80212370  0.60808275  0.80031123  1
  Pd  Pd153  1  0.60808715  0.80011317  0.60059028  1
  Pd  Pd154  1  0.78742838  0.19698661  0.20706702  1
  Pd  Pd155  1  0.59836690  0.80414527  0.79706602  1
  Pd  Pd156  1  0.40691727  0.00323246  0.20329548  1
  Pd  Pd157  1  0.40339271  0.19237552  0.79045278  1
  Pd  Pd158  1  0.20055717  0.00019287  0.59821636  1
  Pd  Pd159  1  0.39664068  0.60236144  0.39760931  1
  Pd  Pd160  1  0.21325413  -0.00657645  0.80504373  1
  Pd  Pd161  1  0.39264043  0.59664552  0.61035820  1
  Pd  Pd162  1  0.60829751  0.60566026  0.60451914  1
  Pd  Pd163  1  0.59745090  0.80475177  0.19862681  1
  Pd  Pd164  1  -0.00833412  -0.00026516  0.79668082  1
  Pd  Pd165  1  0.00821318  0.59215701  0.39731133  1
  Pd  Pd166  1  -0.00571336  0.60071306  0.79946444  1
  Pd  Pd167  1  0.60309570  0.20205181  0.79375536  1
  Pd  Pd168  1  0.18981101  0.39372534  0.80243969  1
  Pd  Pd169  1  0.80308608  0.38837771  0.39488750  1
  Pd  Pd170  1  0.00899269  0.18810719  0.20336829  1
  Pd  Pd171  1  0.00725397  0.19811078  0.60682789  1
  Pd  Pd172  1  0.80769173  -0.00049786  0.59043620  1
  Pd  Pd173  1  0.80286778  0.78979598  0.80909703  1
  Pd  Pd174  1  0.19383649  0.60603482  0.20082560  1
  Pd  Pd175  1  0.79945144  0.40040708  0.79360650  1
  Pd  Pd176  1  0.40380783  0.40373517  0.79658071  1
  Pd  Pd177  1  0.21197164  0.39547140  0.20605878  1
  Pd  Pd178  1  0.40931994  0.79392005  0.00353206  1
  Pd  Pd179  1  0.20088514  0.79232911  -0.00202380  1
  Pd  Pd180  1  0.20291932  -0.00456005  -0.01069277  1
  Pd  Pd181  1  -0.00725349  0.19772016  -0.00415496  1
  Pd  Pd182  1  0.41311733  0.40811208  -0.00882133  1
  Pd  Pd183  1  0.59415805  0.60275685  0.20204750  1
  Pd  Pd184  1  0.20850379  0.19573013  0.39584306  1
  Pd  Pd185  1  0.00276302  0.80408978  0.60461130  1
  Pd  Pd186  1  0.59282705  0.40036939  0.59305926  1
  Pd  Pd187  1  0.40005192  0.19523923  0.39462289  1
  Pd  Pd188  1  0.39034125  0.00022988  -0.00527186  1
  Pd  Pd189  1  0.79500457  0.39939581  0.00298328  1
  Pd  Pd190  1  0.79914872  0.60104283  -0.00792047  1
  Pd  Pd191  1  0.79268348  0.40006208  0.20602854  1
  Pd  Pd192  1  0.20449452  0.60711747  -0.00189743  1
  Pd  Pd193  1  0.19031180  0.01323046  0.21058300  1
  Pd  Pd194  1  0.39256822  0.39424288  0.20711150  1
  Pd  Pd195  1  0.19421089  0.40180940  0.40951969  1
  Pd  Pd196  1  0.20405794  0.80005372  0.40339761  1
  Pd  Pd197  1  0.00276552  0.41542639  0.20487263  1
  Pd  Pd198  1  0.60435649  0.20121073  0.00225292  1
  Pd  Pd199  1  -0.00109291  0.80371891  0.40221389  1
  Rh  Rh200  1  0.40039948  0.19504750  0.00490298  1
  Rh  Rh201  1  0.80291169  -0.00572572  0.19335953  1
  Rh  Rh202  1  0.19687586  0.79360818  0.80467048  1
  Rh  Rh203  1  0.59213317  0.20053564  0.20178821  1
  Rh  Rh204  1  -0.00725189  0.21130402  0.40323622  1
  Rh  Rh205  1  0.79145032  0.19012443  0.59875878  1
  Rh  Rh206  1  0.61327548  0.79844979  0.39250340  1
  Rh  Rh207  1  0.20679909  0.60514509  0.80115612  1
  Rh  Rh208  1  0.19674385  0.19562055  0.60385138  1
  Rh  Rh209  1  0.59573773  0.59559424  0.00087303  1
  Rh  Rh210  1  0.40668365  0.40479808  0.41439382  1
  Rh  Rh211  1  0.79103288  0.61334264  0.39465724  1
  Rh  Rh212  1  0.79558136  0.80167270  0.58980487  1
  Rh  Rh213  1  0.80154955  0.60284139  0.20473463  1
  Rh  Rh214  1  0.59368899  0.40133311  0.40893985  1
  Rh  Rh215  1  0.40688576  0.19994022  0.60722788  1
  Rh  Rh216  1  0.60766174  -0.00494910  0.00238833  1
  Rh  Rh217  1  0.40814991  0.79980779  0.79717907  1
  Rh  Rh218  1  0.59968365  0.39364231  0.80145973  1
  Rh  Rh219  1  0.19238115  0.79100389  0.19411595  1
  Rh  Rh220  1  0.59926768  0.80820149  -0.00105819  1
  Rh  Rh221  1  0.40344665  0.60473210  0.19755047  1
  Rh  Rh222  1  0.59896614  0.61200236  0.79194238  1
  Rh  Rh223  1  0.59378855  0.00044446  0.39950292  1
  Rh  Rh224  1  0.60470564  0.20082972  0.60178807  1
  Rh  Rh225  1  -0.00068613  0.58847613  0.00738196  1
  Rh  Rh226  1  0.79765490  0.00219362  0.80220708  1
  Rh  Rh227  1  0.60318081  0.40344438  0.19372060  1
  Rh  Rh228  1  0.79514099  0.41102276  0.60709360  1
  Rh  Rh229  1  0.59189581  -0.00564352  0.19526026  1
  Rh  Rh230  1  0.19805261  0.79223238  0.60108518  1
  Rh  Rh231  1  0.39368872  0.80282700  0.39532293  1
  Rh  Rh232  1  0.19011586  0.40133784  -0.00535203  1
  Rh  Rh233  1  0.20566237  0.60336147  0.59898785  1
  Rh  Rh234  1  0.19830221  0.40174027  0.59363176  1
  Rh  Rh235  1  -0.00046224  0.59550872  0.59903131  1
  Rh  Rh236  1  0.79413142  -0.00142947  0.40371303  1
  Rh  Rh237  1  0.39995551  0.80221423  0.60401040  1
  Rh  Rh238  1  0.20591938  0.60492725  0.39870030  1
  Rh  Rh239  1  0.20806191  0.20074886  0.00621732  1
  Rh  Rh240  1  0.01607782  -0.01013190  0.40580452  1
  Rh  Rh241  1  0.59582356  -0.00228442  0.60135387  1
  Rh  Rh242  1  0.60011705  0.60747574  0.39556779  1
  Rh  Rh243  1  0.79196074  0.80530572  -0.00881605  1
  Rh  Rh244  1  -0.00287882  0.81065137  0.00609489  1
  Rh  Rh245  1  0.80347979  0.80519146  0.20952402  1
  Rh  Rh246  1  0.19623513  0.20585026  0.79464934  1
  Rh  Rh247  1  0.40857187  0.80174909  0.19279654  1
  Rh  Rh248  1  0.59277669  -0.00902832  0.78918488  1
  Rh  Rh249  1  0.60954379  0.19893056  0.39975821  1
