# generated using pymatgen
data_ZrScNbPdRh
_symmetry_space_group_name_H-M   'P 1'
_cell_length_a   16.56005709
_cell_length_b   16.55368985
_cell_length_c   16.55753421
_cell_angle_alpha   89.98730837
_cell_angle_beta   89.94982247
_cell_angle_gamma   90.00514739
_symmetry_Int_Tables_number   1
_chemical_formula_structural   ZrScNbPdRh
_chemical_formula_sum   'Zr50 Sc50 Nb50 Pd50 Rh50'
_cell_volume   4538.91579492
_cell_formula_units_Z   50
loop_
 _symmetry_equiv_pos_site_id
 _symmetry_equiv_pos_as_xyz
  1  'x, y, z'
loop_
 _atom_site_type_symbol
 _atom_site_label
 _atom_site_symmetry_multiplicity
 _atom_site_fract_x
 _atom_site_fract_y
 _atom_site_fract_z
 _atom_site_occupancy
  Zr  Zr0  1  0.49730549  0.90013747  0.29918516  1
  Zr  Zr1  1  0.29510816  0.89750539  0.09920290  1
  Zr  Zr2  1  0.30184712  0.29514449  0.50849783  1
  Zr  Zr3  1  0.90835484  0.30217690  0.70489592  1
  Zr  Zr4  1  0.69865151  0.30259570  0.29645531  1
  Zr  Zr5  1  0.10167235  0.90304153  0.90355992  1
  Zr  Zr6  1  0.09891145  0.89954246  0.50060446  1
  Zr  Zr7  1  0.69193023  0.10408456  0.90946467  1
  Zr  Zr8  1  0.69971227  0.69194528  0.69151984  1
  Zr  Zr9  1  0.69827174  0.49885475  0.30174547  1
  Zr  Zr10  1  0.69706023  0.29499724  0.49944103  1
  Zr  Zr11  1  0.10096829  0.70159497  0.90541310  1
  Zr  Zr12  1  0.10204013  0.29929364  0.30573165  1
  Zr  Zr13  1  0.90617450  0.09528288  0.70223007  1
  Zr  Zr14  1  0.10799785  0.49232345  0.29809361  1
  Zr  Zr15  1  0.10079509  0.10152594  0.90644722  1
  Zr  Zr16  1  0.90935635  0.50618728  0.70563322  1
  Zr  Zr17  1  0.49658153  0.30430208  0.90897997  1
  Zr  Zr18  1  0.49864006  0.49996534  0.69685284  1
  Zr  Zr19  1  0.70387797  0.10482148  0.69590451  1
  Zr  Zr20  1  0.10571148  0.70027525  0.09709301  1
  Zr  Zr21  1  0.89568192  0.49707162  0.49160501  1
  Zr  Zr22  1  0.30230937  0.69816524  0.09570531  1
  Zr  Zr23  1  0.89601600  0.89792307  0.10715540  1
  Zr  Zr24  1  0.29655473  0.30248704  0.89971375  1
  Zr  Zr25  1  0.29926342  0.70197220  0.90086701  1
  Zr  Zr26  1  0.10573045  0.49490724  0.70499697  1
  Zr  Zr27  1  0.10527871  0.30072775  0.70397264  1
  Zr  Zr28  1  0.69864620  0.70420867  0.09920507  1
  Zr  Zr29  1  0.91060153  0.89665177  0.90313516  1
  Zr  Zr30  1  0.51662881  0.70392060  0.50480006  1
  Zr  Zr31  1  0.09743470  0.49946918  0.49923250  1
  Zr  Zr32  1  0.31359416  0.49785874  0.30514363  1
  Zr  Zr33  1  0.50164633  0.30627969  0.29425530  1
  Zr  Zr34  1  0.90162493  0.49922962  0.09359366  1
  Zr  Zr35  1  0.09959384  0.10318338  0.29819188  1
  Zr  Zr36  1  0.90315017  0.30194468  0.31182844  1
  Zr  Zr37  1  0.49588750  0.09823419  0.90126381  1
  Zr  Zr38  1  0.09821355  0.70356977  0.49652762  1
  Zr  Zr39  1  0.30046729  0.29956177  0.29682347  1
  Zr  Zr40  1  0.69522482  0.29363245  0.10227434  1
  Zr  Zr41  1  0.09744509  0.70329035  0.29885173  1
  Zr  Zr42  1  0.09524362  0.90009414  0.29446960  1
  Zr  Zr43  1  0.30033872  0.10082778  0.90806936  1
  Zr  Zr44  1  0.70064571  0.89267202  0.49712261  1
  Zr  Zr45  1  0.09306493  0.90298946  0.10048321  1
  Zr  Zr46  1  0.29995147  0.31339670  0.70068277  1
  Zr  Zr47  1  0.49627928  0.09929090  0.29929177  1
  Zr  Zr48  1  0.29122158  0.10323536  0.09797009  1
  Zr  Zr49  1  0.69833373  0.29904585  0.70143252  1
  Sc  Sc50  1  0.89704818  0.89971045  0.29389649  1
  Sc  Sc51  1  0.09529921  0.50358337  0.90524225  1
  Sc  Sc52  1  0.30097921  0.29521360  0.09774355  1
  Sc  Sc53  1  0.29813436  0.09976683  0.28602374  1
  Sc  Sc54  1  0.30105092  0.90734881  0.29272587  1
  Sc  Sc55  1  0.28714230  0.70028063  0.49845013  1
  Sc  Sc56  1  0.89097553  0.89838600  0.49912202  1
  Sc  Sc57  1  0.29666305  0.10881699  0.69747329  1
  Sc  Sc58  1  0.90692460  0.90376680  0.69964379  1
  Sc  Sc59  1  0.70373984  0.49636646  0.10525271  1
  Sc  Sc60  1  0.89625340  0.09344172  0.29953237  1
  Sc  Sc61  1  0.29657721  0.09975596  0.50499111  1
  Sc  Sc62  1  0.30388698  0.69479414  0.29241512  1
  Sc  Sc63  1  0.70396518  0.88996842  0.69532690  1
  Sc  Sc64  1  0.49966535  0.69073259  0.29477272  1
  Sc  Sc65  1  0.90766292  0.68927862  0.90413282  1
  Sc  Sc66  1  0.48760164  0.30236997  0.69876943  1
  Sc  Sc67  1  0.49850755  0.30089610  0.49945223  1
  Sc  Sc68  1  0.49347888  0.10920605  0.70463648  1
  Sc  Sc69  1  0.28659504  0.90213788  0.50277490  1
  Sc  Sc70  1  0.89617318  0.30396328  0.09529366  1
  Sc  Sc71  1  0.91358698  0.10467323  0.90800622  1
  Sc  Sc72  1  0.10370126  0.68751997  0.70514794  1
  Sc  Sc73  1  0.09868064  0.91160316  0.70178283  1
  Sc  Sc74  1  0.89195442  0.70159785  0.29239831  1
  Sc  Sc75  1  0.49816108  0.50173132  0.48702570  1
  Sc  Sc76  1  0.88541184  0.49684458  0.29653793  1
  Sc  Sc77  1  0.49618775  0.89700482  0.70973519  1
  Sc  Sc78  1  0.89824427  0.70143530  0.09768825  1
  Sc  Sc79  1  0.69519079  0.29983201  0.91270915  1
  Sc  Sc80  1  0.89962977  0.09310917  0.50438338  1
  Sc  Sc81  1  0.29775454  0.90198860  0.70918764  1
  Sc  Sc82  1  0.70819007  0.90105912  0.29887155  1
  Sc  Sc83  1  0.50887435  0.90235237  0.49245508  1
  Sc  Sc84  1  0.69952264  0.69081750  0.29378020  1
  Sc  Sc85  1  0.50463760  0.10292193  0.49229512  1
  Sc  Sc86  1  0.49479138  0.69418043  0.10653977  1
  Sc  Sc87  1  0.30084747  0.49559428  0.90670048  1
  Sc  Sc88  1  0.70182693  0.10267023  0.29781787  1
  Sc  Sc89  1  0.50919364  0.70544048  0.70383159  1
  Sc  Sc90  1  0.49358908  0.89882274  0.89861637  1
  Sc  Sc91  1  0.10762310  0.09861872  0.50301907  1
  Sc  Sc92  1  0.49362270  0.10735681  0.09351249  1
  Sc  Sc93  1  0.30065313  0.90302534  0.89782231  1
  Sc  Sc94  1  0.90184486  0.09837064  0.10283960  1
  Sc  Sc95  1  0.49938776  0.89053767  0.09772877  1
  Sc  Sc96  1  0.30217223  0.49547122  0.49963709  1
  Sc  Sc97  1  0.29958121  0.50403456  0.09588939  1
  Sc  Sc98  1  0.68852384  0.89138887  0.91085518  1
  Sc  Sc99  1  0.09617857  0.29721071  0.89915486  1
  Nb  Nb100  1  0.70167728  0.50540237  0.89675332  1
  Nb  Nb101  1  0.70186681  0.50786075  0.50189895  1
  Nb  Nb102  1  0.30350417  0.69751575  0.70234916  1
  Nb  Nb103  1  0.50275076  0.30979173  0.09845957  1
  Nb  Nb104  1  0.50249140  0.49977729  0.28808773  1
  Nb  Nb105  1  0.69909250  0.09690403  0.09882317  1
  Nb  Nb106  1  0.89740788  0.49495591  0.90205710  1
  Nb  Nb107  1  0.50045535  0.49595352  0.09270484  1
  Nb  Nb108  1  0.09038552  0.29635004  0.49214964  1
  Nb  Nb109  1  0.90054555  0.70242637  0.69902435  1
  Nb  Nb110  1  0.70890409  0.69953545  0.50487901  1
  Nb  Nb111  1  0.90414389  0.30152659  0.49711636  1
  Nb  Nb112  1  0.09861345  0.30215269  0.10588593  1
  Nb  Nb113  1  0.69766126  0.90118662  0.09783288  1
  Nb  Nb114  1  0.90132640  0.30203723  0.89620950  1
  Nb  Nb115  1  0.09532203  0.10203816  0.69687303  1
  Nb  Nb116  1  0.69703834  0.69578457  0.89492762  1
  Nb  Nb117  1  0.89408161  0.69801411  0.50207168  1
  Nb  Nb118  1  0.09710616  0.10520518  0.09735779  1
  Nb  Nb119  1  0.49930365  0.69665083  0.89679185  1
  Nb  Nb120  1  0.70193168  0.09880362  0.50029536  1
  Nb  Nb121  1  0.09800331  0.49863098  0.10221552  1
  Nb  Nb122  1  0.49883290  0.49832617  0.90561368  1
  Nb  Nb123  1  0.70192388  0.50059737  0.70202156  1
  Nb  Nb124  1  0.30406135  0.49870299  0.70139884  1
  Nb  Nb125  1  -0.00388786  0.60153932  0.39520839  1
  Nb  Nb126  1  0.60000367  0.59765108  -0.00845680  1
  Nb  Nb127  1  0.60377791  -0.00007371  0.19094840  1
  Nb  Nb128  1  -0.00257279  0.79281132  0.59909519  1
  Nb  Nb129  1  0.60634670  0.00379049  0.79764402  1
  Nb  Nb130  1  0.80369345  0.20130394  0.80593701  1
  Nb  Nb131  1  0.79863236  0.40243638  0.60235621  1
  Nb  Nb132  1  0.79954284  0.20010545  0.40804865  1
  Nb  Nb133  1  0.39819303  0.79940028  0.59760131  1
  Nb  Nb134  1  0.80156076  0.79376907  0.80325924  1
  Nb  Nb135  1  0.60075508  0.00252625  0.60328507  1
  Nb  Nb136  1  0.00298998  -0.00333392  0.39948793  1
  Nb  Nb137  1  0.39717487  0.60657948  0.60492503  1
  Nb  Nb138  1  0.60791469  0.40721611  0.60190802  1
  Nb  Nb139  1  0.40041506  0.59838626  0.79996953  1
  Nb  Nb140  1  0.79503858  -0.00252017  0.00136836  1
  Nb  Nb141  1  0.60263643  0.40756377  0.80256775  1
  Nb  Nb142  1  0.00388382  0.20413933  0.59624098  1
  Nb  Nb143  1  0.40493110  -0.00481760  0.60000002  1
  Nb  Nb144  1  0.00469205  0.59417606  0.19996088  1
  Nb  Nb145  1  0.79623692  -0.00112012  0.81035788  1
  Nb  Nb146  1  0.79875044  0.40257990  0.80390511  1
  Nb  Nb147  1  0.40107392  0.80037362  0.40461113  1
  Nb  Nb148  1  0.00405598  0.20478643  0.20034705  1
  Nb  Nb149  1  0.39925518  0.20163814  0.39330730  1
  Pd  Pd150  1  0.20545878  0.59556896  0.59985983  1
  Pd  Pd151  1  0.20506495  0.39637941  0.40787874  1
  Pd  Pd152  1  -0.00061083  0.39749232  0.59821901  1
  Pd  Pd153  1  0.79891106  0.79338154  0.39329680  1
  Pd  Pd154  1  0.79548815  -0.00897823  0.60385603  1
  Pd  Pd155  1  0.20133093  0.19654950  0.80103508  1
  Pd  Pd156  1  0.00148678  0.79536840  0.79201019  1
  Pd  Pd157  1  0.59320549  0.19263614  0.19610269  1
  Pd  Pd158  1  0.21064462  0.40034964  0.19288147  1
  Pd  Pd159  1  0.39333785  0.20289471  0.80234624  1
  Pd  Pd160  1  0.19438660  0.39843934  0.00264068  1
  Pd  Pd161  1  0.21117267  0.80358595  0.38791741  1
  Pd  Pd162  1  -0.00816308  0.40040761  0.20450832  1
  Pd  Pd163  1  0.60052073  0.20513198  0.80441575  1
  Pd  Pd164  1  0.19650275  0.80095166  0.61402795  1
  Pd  Pd165  1  0.59262894  0.59605059  0.80157463  1
  Pd  Pd166  1  0.40119191  -0.00579019  0.00592430  1
  Pd  Pd167  1  0.40243512  0.79883179  -0.00196574  1
  Pd  Pd168  1  0.20150510  0.59613127  0.19938157  1
  Pd  Pd169  1  0.60659980  0.80584120  0.79860034  1
  Pd  Pd170  1  0.60151722  0.80451152  0.20566930  1
  Pd  Pd171  1  0.20714546  0.59219559  0.80935844  1
  Pd  Pd172  1  0.61077555  0.00269303  0.39494218  1
  Pd  Pd173  1  0.80224577  0.80036488  -0.00840778  1
  Pd  Pd174  1  0.79326886  0.39988176  -0.00233709  1
  Pd  Pd175  1  0.00555799  0.39519920  -0.00409536  1
  Pd  Pd176  1  0.60199563  0.79190336  0.38724095  1
  Pd  Pd177  1  0.59966553  0.40332236  0.40426661  1
  Pd  Pd178  1  0.19992114  0.00271176  0.39417045  1
  Pd  Pd179  1  0.20934213  0.19631532  0.40174267  1
  Pd  Pd180  1  0.20430558  0.79995879  0.20384577  1
  Pd  Pd181  1  0.19707641  0.39909776  0.59262249  1
  Pd  Pd182  1  0.20101720  0.00983429  0.79806405  1
  Pd  Pd183  1  0.80552289  0.59376808  0.60142547  1
  Pd  Pd184  1  -0.01357370  0.80078932  0.40259729  1
  Pd  Pd185  1  0.81268012  0.20532596  0.59945813  1
  Pd  Pd186  1  0.19867790  0.59895340  0.39630513  1
  Pd  Pd187  1  0.40040751  0.61247578  0.40893440  1
  Pd  Pd188  1  0.19501848  0.80149303  0.79645754  1
  Pd  Pd189  1  0.60413021  0.60287014  0.39892238  1
  Pd  Pd190  1  0.39563407  0.40301237  0.18978769  1
  Pd  Pd191  1  0.58835063  0.19976996  0.59963587  1
  Pd  Pd192  1  0.39065859  0.00052664  0.40830024  1
  Pd  Pd193  1  0.80981043  0.20095625  0.20513504  1
  Pd  Pd194  1  0.40774953  -0.00055835  0.18695810  1
  Pd  Pd195  1  0.80775315  0.19327368  -0.00207172  1
  Pd  Pd196  1  -0.00028455  0.60468041  0.59441982  1
  Pd  Pd197  1  0.58970191  0.78914435  0.00091156  1
  Pd  Pd198  1  0.80778467  0.60368133  0.80233205  1
  Pd  Pd199  1  0.79432102  0.60276054  0.00271122  1
  Rh  Rh200  1  0.00078656  0.79652652  0.00557868  1
  Rh  Rh201  1  0.20609581  0.00152685  0.60963014  1
  Rh  Rh202  1  0.19210008  0.20250739  0.19545016  1
  Rh  Rh203  1  0.00114739  0.41142230  0.39514767  1
  Rh  Rh204  1  0.00074346  0.19552003  0.79557588  1
  Rh  Rh205  1  0.19371688  0.20798065  0.00282418  1
  Rh  Rh206  1  0.19080054  0.20514656  0.60023072  1
  Rh  Rh207  1  0.40313549  0.40475674  0.80594755  1
  Rh  Rh208  1  0.19821533  0.59616092  -0.00096089  1
  Rh  Rh209  1  0.39975283  0.20622565  0.00142180  1
  Rh  Rh210  1  0.39850635  0.79981925  0.20880663  1
  Rh  Rh211  1  0.39832263  0.79070696  0.79828437  1
  Rh  Rh212  1  0.59791962  -0.00079010  0.00059930  1
  Rh  Rh213  1  0.80289202  0.00659748  0.40212826  1
  Rh  Rh214  1  0.59082724  0.20212281  0.00800591  1
  Rh  Rh215  1  0.80820700  0.79992890  0.60666556  1
  Rh  Rh216  1  0.00063942  0.60008054  0.80476019  1
  Rh  Rh217  1  0.00562930  -0.00031259  0.58968710  1
  Rh  Rh218  1  0.79260163  -0.00126549  0.19309113  1
  Rh  Rh219  1  -0.00921038  0.18646241  0.40354264  1
  Rh  Rh220  1  0.60630374  0.40760074  0.00045044  1
  Rh  Rh221  1  -0.00531582  -0.00124036  0.00563689  1
  Rh  Rh222  1  0.00006488  0.21011967  0.00999868  1
  Rh  Rh223  1  0.19405748  0.00100246  0.19326291  1
  Rh  Rh224  1  0.59697933  0.81035233  0.60283602  1
  Rh  Rh225  1  0.39493239  0.39730296  0.00452368  1
  Rh  Rh226  1  0.40344550  0.39236623  0.39935778  1
  Rh  Rh227  1  0.80010144  0.39491150  0.19731586  1
  Rh  Rh228  1  0.40173387  0.59140354  0.19509897  1
  Rh  Rh229  1  0.40566465  0.60245949  -0.00442423  1
  Rh  Rh230  1  0.00184499  0.40662503  0.80948695  1
  Rh  Rh231  1  0.00081850  0.00618158  0.80697025  1
  Rh  Rh232  1  0.59638216  0.59360552  0.59530240  1
  Rh  Rh233  1  0.20188166  0.80631546  -0.00387778  1
  Rh  Rh234  1  0.79307845  0.79867936  0.19912975  1
  Rh  Rh235  1  0.19856926  -0.00210753  0.00341251  1
  Rh  Rh236  1  0.40770087  0.40991217  0.59210849  1
  Rh  Rh237  1  0.79068974  0.39321576  0.40641594  1
  Rh  Rh238  1  0.40396134  0.00597992  0.79467581  1
  Rh  Rh239  1  0.40392405  0.18972592  0.58943011  1
  Rh  Rh240  1  0.59806897  0.59186500  0.18886533  1
  Rh  Rh241  1  0.80448308  0.59852011  0.19282075  1
  Rh  Rh242  1  0.60137376  0.40536821  0.19415940  1
  Rh  Rh243  1  0.00317956  0.59782683  0.00721609  1
  Rh  Rh244  1  0.40512967  0.20505830  0.20088036  1
  Rh  Rh245  1  0.00148119  0.00919029  0.20399261  1
  Rh  Rh246  1  0.79986414  0.60678533  0.39955679  1
  Rh  Rh247  1  0.60153814  0.19731731  0.39567902  1
  Rh  Rh248  1  -0.00337857  0.78914122  0.19470620  1
  Rh  Rh249  1  0.19888168  0.40578068  0.80784153  1
