# generated using pymatgen
data_ZrScNbPdRh
_symmetry_space_group_name_H-M   'P 1'
_cell_length_a   16.55238316
_cell_length_b   16.55656657
_cell_length_c   16.55388027
_cell_angle_alpha   89.99118596
_cell_angle_beta   89.95561626
_cell_angle_gamma   90.00378503
_symmetry_Int_Tables_number   1
_chemical_formula_structural   ZrScNbPdRh
_chemical_formula_sum   'Zr50 Sc50 Nb50 Pd50 Rh50'
_cell_volume   4536.59995113
_cell_formula_units_Z   50
loop_
 _symmetry_equiv_pos_site_id
 _symmetry_equiv_pos_as_xyz
  1  'x, y, z'
loop_
 _atom_site_type_symbol
 _atom_site_label
 _atom_site_symmetry_multiplicity
 _atom_site_fract_x
 _atom_site_fract_y
 _atom_site_fract_z
 _atom_site_occupancy
  Zr  Zr0  1  0.50055877  0.70128106  0.90032183  1
  Zr  Zr1  1  0.90489668  0.08951819  0.30603731  1
  Zr  Zr2  1  0.30193509  0.29145093  0.11121916  1
  Zr  Zr3  1  0.69807915  0.89843876  0.09887166  1
  Zr  Zr4  1  0.89992724  0.90601645  0.49430658  1
  Zr  Zr5  1  0.10360532  0.70225421  0.29748892  1
  Zr  Zr6  1  0.49461451  0.90090824  0.49672886  1
  Zr  Zr7  1  0.09621722  0.49629536  0.50787755  1
  Zr  Zr8  1  0.89628849  0.30478131  0.10922949  1
  Zr  Zr9  1  0.49519019  0.90052213  0.10137746  1
  Zr  Zr10  1  0.48380911  0.29279894  0.49488221  1
  Zr  Zr11  1  0.50367349  0.69574359  0.29371035  1
  Zr  Zr12  1  0.30259721  0.30402958  0.30775189  1
  Zr  Zr13  1  0.30244030  0.50250636  0.29752028  1
  Zr  Zr14  1  0.09650935  0.70584817  0.09659544  1
  Zr  Zr15  1  0.29955463  0.90159501  0.50028236  1
  Zr  Zr16  1  0.89403139  0.50555995  0.10511213  1
  Zr  Zr17  1  0.29887919  0.09595806  0.70565654  1
  Zr  Zr18  1  0.70540676  0.69720242  0.49412623  1
  Zr  Zr19  1  0.30179476  0.90384181  0.89901687  1
  Zr  Zr20  1  0.09834174  0.50076033  0.30600890  1
  Zr  Zr21  1  0.70378097  0.89894881  0.70096350  1
  Zr  Zr22  1  0.09934229  0.69992579  0.68478748  1
  Zr  Zr23  1  0.10388553  0.10033199  0.89263027  1
  Zr  Zr24  1  0.70309263  0.70700054  0.69800977  1
  Zr  Zr25  1  0.90680677  0.89852333  0.69464216  1
  Zr  Zr26  1  0.49971934  0.09690234  0.10253522  1
  Zr  Zr27  1  0.29767735  0.70189565  0.29692350  1
  Zr  Zr28  1  0.30487674  0.69739547  0.89870927  1
  Zr  Zr29  1  0.50285395  0.29056801  0.09698479  1
  Zr  Zr30  1  0.69072599  0.09786461  0.70598196  1
  Zr  Zr31  1  0.90293510  0.09721523  0.90056729  1
  Zr  Zr32  1  0.50047642  0.89138895  0.90581312  1
  Zr  Zr33  1  0.09925955  0.89598029  0.09808140  1
  Zr  Zr34  1  0.69956487  0.10179896  0.29803643  1
  Zr  Zr35  1  0.50200146  0.49827572  0.89750198  1
  Zr  Zr36  1  0.29764039  0.70620266  0.51185636  1
  Zr  Zr37  1  0.70392050  0.30008718  0.29681454  1
  Zr  Zr38  1  0.69898252  0.90028819  0.89160150  1
  Zr  Zr39  1  0.50249778  0.90273868  0.69920284  1
  Zr  Zr40  1  0.90187706  0.09921771  0.10279558  1
  Zr  Zr41  1  0.70165774  0.69441629  0.30395628  1
  Zr  Zr42  1  0.90049735  0.70421285  0.90323929  1
  Zr  Zr43  1  0.50642416  0.69970310  0.49838985  1
  Zr  Zr44  1  0.70411495  0.50691881  0.30177754  1
  Zr  Zr45  1  0.30916896  0.50465272  0.69513777  1
  Zr  Zr46  1  0.09679611  0.89599064  0.89785262  1
  Zr  Zr47  1  0.10374510  0.49466120  0.90053393  1
  Zr  Zr48  1  0.49785744  0.89967727  0.29728090  1
  Zr  Zr49  1  0.30192456  0.09477189  0.10204653  1
  Sc  Sc50  1  0.90157108  0.89669994  0.11002161  1
  Sc  Sc51  1  0.10438281  0.89792046  0.49548656  1
  Sc  Sc52  1  0.69612865  0.29256749  0.10732446  1
  Sc  Sc53  1  0.10341214  0.09568682  0.69797023  1
  Sc  Sc54  1  0.90930980  0.30145280  0.90600155  1
  Sc  Sc55  1  0.90369253  0.49660835  0.49659706  1
  Sc  Sc56  1  0.10055680  0.30295455  0.10021143  1
  Sc  Sc57  1  0.90845336  0.29756878  0.50977572  1
  Sc  Sc58  1  0.30135912  0.09784281  0.50640899  1
  Sc  Sc59  1  0.09566252  0.69833631  0.49122237  1
  Sc  Sc60  1  0.29916237  0.29318955  0.70230086  1
  Sc  Sc61  1  0.29845321  0.48669087  0.49591583  1
  Sc  Sc62  1  0.29973161  0.69690478  0.10403228  1
  Sc  Sc63  1  0.10831687  0.30728676  0.89626090  1
  Sc  Sc64  1  0.69690055  0.10101355  0.10680050  1
  Sc  Sc65  1  0.49065184  0.29864303  0.71554951  1
  Sc  Sc66  1  0.30204587  0.09654965  0.89497517  1
  Sc  Sc67  1  0.50216222  0.11408503  0.89379288  1
  Sc  Sc68  1  0.70310075  0.89552309  0.50436698  1
  Sc  Sc69  1  0.10116824  0.50712905  0.10417647  1
  Sc  Sc70  1  0.90768850  0.09689819  0.68567602  1
  Sc  Sc71  1  0.89797435  0.70118199  0.30292097  1
  Sc  Sc72  1  0.70333557  0.69582171  0.10667862  1
  Sc  Sc73  1  0.90237007  0.90025642  0.88922777  1
  Sc  Sc74  1  0.69903184  0.50295768  0.70458470  1
  Sc  Sc75  1  0.09735488  0.89476382  0.30125980  1
  Sc  Sc76  1  0.50312776  0.09394002  0.30412535  1
  Sc  Sc77  1  0.69523422  0.51129521  0.90237005  1
  Sc  Sc78  1  0.10454380  0.10242162  0.10803316  1
  Sc  Sc79  1  0.49173257  0.29318501  0.29826489  1
  Sc  Sc80  1  0.49389313  0.09312811  0.49594622  1
  Sc  Sc81  1  0.70746166  0.29717784  0.50186564  1
  Sc  Sc82  1  0.10105224  0.31097617  0.70001239  1
  Sc  Sc83  1  0.90297681  0.70864086  0.69995128  1
  Sc  Sc84  1  0.70305102  0.29819097  0.69616749  1
  Sc  Sc85  1  0.49129826  0.69368896  0.69330118  1
  Sc  Sc86  1  0.30051970  0.50603832  0.09687994  1
  Sc  Sc87  1  0.89543092  0.50968541  0.90278594  1
  Sc  Sc88  1  0.29359604  0.90553936  0.30082959  1
  Sc  Sc89  1  0.70594122  0.89985569  0.29837097  1
  Sc  Sc90  1  0.70208253  0.50407201  0.49655937  1
  Sc  Sc91  1  0.49231410  0.50398397  0.50716011  1
  Sc  Sc92  1  0.30023950  0.49802628  0.90389198  1
  Sc  Sc93  1  0.70512086  0.09479166  0.49749765  1
  Sc  Sc94  1  0.67921526  0.29656651  0.90205493  1
  Sc  Sc95  1  0.09510531  0.30313181  0.30284509  1
  Sc  Sc96  1  0.49757436  0.70284783  0.10037424  1
  Sc  Sc97  1  0.90057368  0.69967163  0.10312947  1
  Sc  Sc98  1  0.09566329  0.09283767  0.30239405  1
  Sc  Sc99  1  0.69814102  0.70232362  0.89358927  1
  Nb  Nb100  1  0.30650710  0.90734775  0.09450561  1
  Nb  Nb101  1  0.70296873  0.09863320  0.89990287  1
  Nb  Nb102  1  0.30094519  0.30262051  0.90205758  1
  Nb  Nb103  1  0.69944290  0.50349868  0.10080163  1
  Nb  Nb104  1  0.29492580  0.89638517  0.69437969  1
  Nb  Nb105  1  0.49883007  0.50148960  0.30033317  1
  Nb  Nb106  1  0.89891877  0.48483253  0.29386654  1
  Nb  Nb107  1  0.90700625  0.89900774  0.29801206  1
  Nb  Nb108  1  0.49582317  0.10844780  0.69782623  1
  Nb  Nb109  1  0.09338666  0.50219301  0.70162966  1
  Nb  Nb110  1  0.29369972  0.29660206  0.49814734  1
  Nb  Nb111  1  0.28786749  0.10877159  0.29137946  1
  Nb  Nb112  1  0.49326545  0.30297006  0.90123966  1
  Nb  Nb113  1  0.89811197  0.30591739  0.70504261  1
  Nb  Nb114  1  0.89822456  0.69887054  0.50098329  1
  Nb  Nb115  1  0.09810149  0.90168912  0.70263515  1
  Nb  Nb116  1  0.89715626  0.30579027  0.29660769  1
  Nb  Nb117  1  0.10890667  0.29943813  0.49965919  1
  Nb  Nb118  1  0.90956094  0.10065703  0.49419737  1
  Nb  Nb119  1  0.49857455  0.49329041  0.69803663  1
  Nb  Nb120  1  0.09736304  0.70380274  0.89720693  1
  Nb  Nb121  1  0.50127228  0.50425856  0.10065090  1
  Nb  Nb122  1  0.91148377  0.49195443  0.69785942  1
  Nb  Nb123  1  0.29648818  0.70471198  0.69791764  1
  Nb  Nb124  1  0.08048333  0.10810458  0.49681571  1
  Nb  Nb125  1  0.59415361  0.40060199  0.39963552  1
  Nb  Nb126  1  0.79786543  0.20031138  -0.00481438  1
  Nb  Nb127  1  -0.00515759  0.40584286  0.00448795  1
  Nb  Nb128  1  -0.00425447  0.20532905  0.79672378  1
  Nb  Nb129  1  0.19669081  0.60526510  0.79441694  1
  Nb  Nb130  1  0.40615458  0.39490815  0.00074911  1
  Nb  Nb131  1  0.59578088  0.40806545  0.20224991  1
  Nb  Nb132  1  0.59221944  0.39501954  0.59922831  1
  Nb  Nb133  1  -0.00703606  0.20319112  0.20741406  1
  Nb  Nb134  1  0.20275932  0.40162270  0.20522090  1
  Nb  Nb135  1  0.80817457  0.60184361  0.60053211  1
  Nb  Nb136  1  0.79533120  0.39793553  0.00026092  1
  Nb  Nb137  1  0.39990398  0.60441310  0.39857821  1
  Nb  Nb138  1  0.39989673  0.79624437  0.39816852  1
  Nb  Nb139  1  0.20022277  0.79719566  0.79386119  1
  Nb  Nb140  1  0.20555061  0.20218728  -0.00118502  1
  Nb  Nb141  1  0.19620823  0.20046540  0.40554417  1
  Nb  Nb142  1  0.00222419  0.00005508  -0.00022593  1
  Nb  Nb143  1  0.00697408  0.59974964  0.79685426  1
  Nb  Nb144  1  0.80373849  0.20198054  0.80284037  1
  Nb  Nb145  1  0.60175179  0.00124499  -0.00476088  1
  Nb  Nb146  1  0.81398283  0.19849994  0.39673078  1
  Nb  Nb147  1  0.80369390  0.39559978  0.80537710  1
  Nb  Nb148  1  0.59143008  0.20071363  0.60144591  1
  Nb  Nb149  1  0.79847978  0.80293753  -0.00154325  1
  Pd  Pd150  1  0.40059119  0.38926937  0.60278238  1
  Pd  Pd151  1  0.80907263  0.00684503  0.78832010  1
  Pd  Pd152  1  -0.00431879  0.60322209  0.20774849  1
  Pd  Pd153  1  0.39958882  0.00053768  0.60521433  1
  Pd  Pd154  1  0.39394863  0.19699921  -0.00596475  1
  Pd  Pd155  1  0.00306601  0.80431172  0.58848072  1
  Pd  Pd156  1  0.39842545  0.80181063  0.79062790  1
  Pd  Pd157  1  0.39185340  0.79525139  0.00740770  1
  Pd  Pd158  1  0.79416242  0.40963210  0.60553460  1
  Pd  Pd159  1  0.79728272  0.19238262  0.59988042  1
  Pd  Pd160  1  0.39917399  0.59724563  0.79970683  1
  Pd  Pd161  1  -0.00704159  0.59868260  0.39539561  1
  Pd  Pd162  1  0.20594750  0.59996417  0.40983480  1
  Pd  Pd163  1  0.80149181  -0.00241572  0.00324398  1
  Pd  Pd164  1  0.39537260  0.00303288  0.21019328  1
  Pd  Pd165  1  0.60003956  0.80685621  0.39636356  1
  Pd  Pd166  1  0.19602464  0.19454178  0.59852410  1
  Pd  Pd167  1  0.59825903  0.79968360  0.60075819  1
  Pd  Pd168  1  0.58833520  0.00252775  0.80735221  1
  Pd  Pd169  1  0.20897711  0.79737533  -0.00324536  1
  Pd  Pd170  1  0.20692378  0.80841196  0.19398848  1
  Pd  Pd171  1  0.59789919  0.00702837  0.59349954  1
  Pd  Pd172  1  0.60698274  0.59267753  0.60192894  1
  Pd  Pd173  1  0.81049863  0.59616449  0.79012036  1
  Pd  Pd174  1  0.60131630  0.40069866  0.00837300  1
  Pd  Pd175  1  0.19811016  0.60502344  -0.00463871  1
  Pd  Pd176  1  0.19161504  0.00446386  0.59442968  1
  Pd  Pd177  1  0.40157213  0.40395089  0.19108131  1
  Pd  Pd178  1  0.60475634  0.79738716  0.19997248  1
  Pd  Pd179  1  0.20340119  0.59226485  0.59699694  1
  Pd  Pd180  1  0.19470072  -0.00767370  0.20041690  1
  Pd  Pd181  1  0.38867127  0.18437464  0.39580630  1
  Pd  Pd182  1  0.20359496  0.40104303  0.60760744  1
  Pd  Pd183  1  0.60859520  -0.00718420  0.40255754  1
  Pd  Pd184  1  0.00645014  0.20868918  0.61052321  1
  Pd  Pd185  1  0.00673096  0.20239058  0.00213771  1
  Pd  Pd186  1  0.60562765  0.39602520  0.79284732  1
  Pd  Pd187  1  0.00379249  0.59637052  -0.00405221  1
  Pd  Pd188  1  -0.00121314  0.39345331  0.40717590  1
  Pd  Pd189  1  0.80435030  0.80499502  0.39665240  1
  Pd  Pd190  1  0.80056843  0.00541193  0.60096053  1
  Pd  Pd191  1  0.19631878  0.01149098  0.40554602  1
  Pd  Pd192  1  0.79924540  0.39520959  0.40721945  1
  Pd  Pd193  1  0.40777405  0.00017623  0.80097973  1
  Pd  Pd194  1  0.19497002  0.00678908  -0.00017422  1
  Pd  Pd195  1  0.59377596  0.60426542  0.79133945  1
  Pd  Pd196  1  0.79963726  -0.00216468  0.20237508  1
  Pd  Pd197  1  0.60040911  0.61052614  0.00335170  1
  Pd  Pd198  1  0.21017295  0.40720211  0.79063457  1
  Pd  Pd199  1  0.60706601  0.20498540  0.40783972  1
  Rh  Rh200  1  0.39278977  0.80554713  0.20083387  1
  Rh  Rh201  1  -0.01265000  0.80893018  0.00022892  1
  Rh  Rh202  1  0.59130825  0.58972872  0.40463638  1
  Rh  Rh203  1  0.60293063  0.20541816  0.79443327  1
  Rh  Rh204  1  0.40503338  0.80338799  0.59830279  1
  Rh  Rh205  1  -0.00039578  0.20954396  0.39473803  1
  Rh  Rh206  1  0.40588320  0.18741276  0.20937274  1
  Rh  Rh207  1  0.40498605  0.59443551  0.00080400  1
  Rh  Rh208  1  0.19517525  0.39569324  0.39641613  1
  Rh  Rh209  1  0.00755144  -0.00568890  0.59383387  1
  Rh  Rh210  1  -0.00129631  0.79500740  0.20507525  1
  Rh  Rh211  1  0.41111177  0.00407733  -0.00860997  1
  Rh  Rh212  1  -0.00618865  0.40387981  0.81066301  1
  Rh  Rh213  1  0.78550602  0.40561501  0.19428161  1
  Rh  Rh214  1  0.00426291  0.39369976  0.59655456  1
  Rh  Rh215  1  0.60541003  0.18897287  0.00008587  1
  Rh  Rh216  1  -0.00903200  0.60027120  0.60137567  1
  Rh  Rh217  1  0.00670711  -0.01078755  0.40255345  1
  Rh  Rh218  1  0.00009057  0.00837205  0.79892455  1
  Rh  Rh219  1  0.19184861  0.80789067  0.60148112  1
  Rh  Rh220  1  0.80453347  0.60025013  0.20654760  1
  Rh  Rh221  1  0.81305916  0.59429024  0.40219154  1
  Rh  Rh222  1  0.20167965  -0.01138658  0.79543843  1
  Rh  Rh223  1  0.39983469  0.19979286  0.60355711  1
  Rh  Rh224  1  0.39538796  0.60120951  0.59396849  1
  Rh  Rh225  1  0.40240185  0.60056127  0.20040840  1
  Rh  Rh226  1  0.39545473  0.40345762  0.80674021  1
  Rh  Rh227  1  0.60049010  -0.00312761  0.19579065  1
  Rh  Rh228  1  0.80205750  0.80171295  0.80370513  1
  Rh  Rh229  1  0.19673418  0.59617062  0.19952896  1
  Rh  Rh230  1  0.79175006  0.60557122  0.00183731  1
  Rh  Rh231  1  0.19609601  0.20499793  0.80533132  1
  Rh  Rh232  1  0.00612898  0.00117991  0.19511130  1
  Rh  Rh233  1  0.59382829  0.20294247  0.20675665  1
  Rh  Rh234  1  0.39197847  0.20019761  0.80219272  1
  Rh  Rh235  1  0.59258327  0.79340972  0.79126560  1
  Rh  Rh236  1  0.38934587  -0.00027846  0.39283775  1
  Rh  Rh237  1  0.20902615  0.39021574  0.01435770  1
  Rh  Rh238  1  0.18757060  0.20838441  0.20650359  1
  Rh  Rh239  1  0.80737047  0.19081253  0.20461874  1
  Rh  Rh240  1  0.79918730  0.00042282  0.39902180  1
  Rh  Rh241  1  0.00741968  0.79312383  0.79384596  1
  Rh  Rh242  1  -0.00413452  0.80001426  0.39963284  1
  Rh  Rh243  1  0.01035483  0.39948825  0.19557485  1
  Rh  Rh244  1  0.59902136  0.59632845  0.19538755  1
  Rh  Rh245  1  0.20421067  0.79773878  0.40096651  1
  Rh  Rh246  1  0.80461873  0.79579996  0.59577952  1
  Rh  Rh247  1  0.60932306  0.80097895  0.00111676  1
  Rh  Rh248  1  0.40673917  0.40790054  0.40321547  1
  Rh  Rh249  1  0.80197522  0.79830553  0.19892898  1
