# generated using pymatgen
data_ZrScNbPdRh
_symmetry_space_group_name_H-M   'P 1'
_cell_length_a   16.56011989
_cell_length_b   16.55616225
_cell_length_c   16.55880905
_cell_angle_alpha   89.95552133
_cell_angle_beta   90.01635634
_cell_angle_gamma   89.98704405
_symmetry_Int_Tables_number   1
_chemical_formula_structural   ZrScNbPdRh
_chemical_formula_sum   'Zr50 Sc50 Nb50 Pd50 Rh50'
_cell_volume   4539.96065232
_cell_formula_units_Z   50
loop_
 _symmetry_equiv_pos_site_id
 _symmetry_equiv_pos_as_xyz
  1  'x, y, z'
loop_
 _atom_site_type_symbol
 _atom_site_label
 _atom_site_symmetry_multiplicity
 _atom_site_fract_x
 _atom_site_fract_y
 _atom_site_fract_z
 _atom_site_occupancy
  Zr  Zr0  1  0.70319598  0.89686366  0.10190108  1
  Zr  Zr1  1  0.89176467  0.90916515  0.90242804  1
  Zr  Zr2  1  0.29497067  0.09641186  0.90201230  1
  Zr  Zr3  1  0.69713516  0.89711999  0.29941652  1
  Zr  Zr4  1  0.29230278  0.49761010  0.30970187  1
  Zr  Zr5  1  0.10297245  0.90090161  0.50428011  1
  Zr  Zr6  1  0.89730673  0.49982027  0.10512204  1
  Zr  Zr7  1  0.49667105  0.50790463  0.50014267  1
  Zr  Zr8  1  0.49595112  0.50086113  0.31230036  1
  Zr  Zr9  1  0.50857124  0.29792103  0.48551099  1
  Zr  Zr10  1  0.69837174  0.29511310  0.69926991  1
  Zr  Zr11  1  0.90755729  0.09629222  0.09920110  1
  Zr  Zr12  1  0.90574430  0.48674413  0.90350113  1
  Zr  Zr13  1  0.69851418  0.69905387  0.70202019  1
  Zr  Zr14  1  0.89853218  0.30842537  0.09681443  1
  Zr  Zr15  1  0.49500815  0.90145573  0.70199987  1
  Zr  Zr16  1  0.28954049  0.31096999  0.09342370  1
  Zr  Zr17  1  0.49270767  0.49603078  0.89990538  1
  Zr  Zr18  1  0.30455150  0.89827638  0.70814351  1
  Zr  Zr19  1  0.09348401  0.69911768  0.09677508  1
  Zr  Zr20  1  0.30248250  0.69707770  0.90417518  1
  Zr  Zr21  1  0.29896836  0.09395785  0.49773982  1
  Zr  Zr22  1  0.90639989  0.31565463  0.29961430  1
  Zr  Zr23  1  0.69889829  0.70203487  0.89240025  1
  Zr  Zr24  1  0.90199167  0.49005295  0.49417723  1
  Zr  Zr25  1  0.89925771  0.09630413  0.50034225  1
  Zr  Zr26  1  0.49762395  0.11103848  0.29783841  1
  Zr  Zr27  1  0.10293436  0.10368334  0.09721378  1
  Zr  Zr28  1  0.70107616  0.70272970  0.29692307  1
  Zr  Zr29  1  0.70499786  0.29898798  0.50569823  1
  Zr  Zr30  1  0.90300041  0.91187666  0.49450818  1
  Zr  Zr31  1  0.09434752  0.89849636  0.09938969  1
  Zr  Zr32  1  0.09716460  0.09316334  0.49702147  1
  Zr  Zr33  1  0.69952634  0.30215743  0.10558907  1
  Zr  Zr34  1  0.11104254  0.10611714  0.70198644  1
  Zr  Zr35  1  0.50330188  0.69523334  0.89700419  1
  Zr  Zr36  1  0.11679881  0.49665974  0.49768318  1
  Zr  Zr37  1  0.90442458  0.10499545  0.90247229  1
  Zr  Zr38  1  0.50886857  0.69796598  0.30877360  1
  Zr  Zr39  1  0.29637120  0.29901358  0.29011562  1
  Zr  Zr40  1  0.09686608  0.10449433  0.89870175  1
  Zr  Zr41  1  0.10185162  0.90708411  0.89931697  1
  Zr  Zr42  1  0.10931009  0.89868201  0.69663800  1
  Zr  Zr43  1  0.50118155  0.69044158  0.50280896  1
  Zr  Zr44  1  0.69111047  0.70194670  0.49796422  1
  Zr  Zr45  1  0.30367961  0.09948062  0.29761968  1
  Zr  Zr46  1  0.71176381  0.09745118  0.89455459  1
  Zr  Zr47  1  0.10260501  0.69344019  0.69992234  1
  Zr  Zr48  1  0.90205776  0.89079852  0.09698901  1
  Zr  Zr49  1  0.09300352  0.69445507  0.29903976  1
  Sc  Sc50  1  0.29443501  0.29567234  0.69801491  1
  Sc  Sc51  1  0.30426201  0.89775016  0.29682652  1
  Sc  Sc52  1  0.90669353  0.69461521  0.49293226  1
  Sc  Sc53  1  0.30024801  0.68946394  0.50492033  1
  Sc  Sc54  1  0.70129485  0.50086398  0.50316288  1
  Sc  Sc55  1  0.69381146  0.10639577  0.50304381  1
  Sc  Sc56  1  0.69205933  0.09414959  0.30090665  1
  Sc  Sc57  1  0.70135130  0.30151822  0.90140856  1
  Sc  Sc58  1  0.49669245  0.69858124  0.09305954  1
  Sc  Sc59  1  0.48910978  0.90157004  0.09951206  1
  Sc  Sc60  1  0.49819525  0.29646360  0.71227487  1
  Sc  Sc61  1  0.29853759  0.90040747  0.50713854  1
  Sc  Sc62  1  0.28775118  0.30289282  0.50242334  1
  Sc  Sc63  1  0.89037210  0.09775337  0.70812214  1
  Sc  Sc64  1  0.29521093  0.49975708  0.69951712  1
  Sc  Sc65  1  0.50174891  0.90508665  0.50644379  1
  Sc  Sc66  1  0.10361308  0.30137662  0.49708719  1
  Sc  Sc67  1  0.48322625  0.89470264  0.89642113  1
  Sc  Sc68  1  0.69521881  0.10562806  0.10153928  1
  Sc  Sc69  1  0.69859601  0.50019666  0.10101672  1
  Sc  Sc70  1  0.50534390  0.90721304  0.29422897  1
  Sc  Sc71  1  0.68647786  0.50153876  0.89952379  1
  Sc  Sc72  1  0.90509866  0.70234626  0.10161092  1
  Sc  Sc73  1  0.50519382  0.50196228  0.08552148  1
  Sc  Sc74  1  0.09996224  0.50550116  0.70585617  1
  Sc  Sc75  1  0.29490695  0.69911646  0.69974760  1
  Sc  Sc76  1  0.89018149  0.90472925  0.69411383  1
  Sc  Sc77  1  0.71143717  0.50920158  0.29299972  1
  Sc  Sc78  1  0.30291027  0.10028724  0.09203505  1
  Sc  Sc79  1  0.10079815  0.69217802  0.90163912  1
  Sc  Sc80  1  0.49457865  0.30753343  0.90356418  1
  Sc  Sc81  1  0.89200181  0.31070752  0.70474734  1
  Sc  Sc82  1  0.48902285  0.10803311  0.90489063  1
  Sc  Sc83  1  0.90105326  0.70752455  0.90585004  1
  Sc  Sc84  1  0.69639162  0.29390472  0.30908369  1
  Sc  Sc85  1  0.70283579  0.90773791  0.49737718  1
  Sc  Sc86  1  0.10016759  0.49873328  0.09068441  1
  Sc  Sc87  1  0.09699036  0.89282616  0.30416626  1
  Sc  Sc88  1  0.10841632  0.69763322  0.49955678  1
  Sc  Sc89  1  0.50179539  0.70091810  0.69750355  1
  Sc  Sc90  1  0.29594576  0.70463931  0.30114035  1
  Sc  Sc91  1  0.50138479  0.50500128  0.70041794  1
  Sc  Sc92  1  0.09762434  0.50300212  0.90259736  1
  Sc  Sc93  1  0.91291920  0.09756658  0.31015143  1
  Sc  Sc94  1  0.90341108  0.49903174  0.70776062  1
  Sc  Sc95  1  0.70297675  0.69991095  0.10554926  1
  Sc  Sc96  1  0.70650456  0.49536287  0.70609909  1
  Sc  Sc97  1  0.50429303  0.28738426  0.09692410  1
  Sc  Sc98  1  0.89435976  0.29852129  0.49447785  1
  Sc  Sc99  1  0.69907901  0.89307367  0.70093868  1
  Nb  Nb100  1  0.50178806  0.09976627  0.69342448  1
  Nb  Nb101  1  0.10523955  0.29928987  0.10540915  1
  Nb  Nb102  1  0.30122524  0.90024245  0.90910558  1
  Nb  Nb103  1  0.68728922  0.10794610  0.70505302  1
  Nb  Nb104  1  0.49799667  0.30092351  0.29632271  1
  Nb  Nb105  1  0.10460291  0.30030501  0.69590011  1
  Nb  Nb106  1  0.69676519  0.90006050  0.90037367  1
  Nb  Nb107  1  0.90060261  0.70086783  0.69751782  1
  Nb  Nb108  1  0.09772471  0.49308934  0.30129576  1
  Nb  Nb109  1  0.90015261  0.69245644  0.29585532  1
  Nb  Nb110  1  0.50708469  0.09609440  0.10287370  1
  Nb  Nb111  1  0.30410175  0.49989718  0.50131128  1
  Nb  Nb112  1  0.29878245  0.69950751  0.10106246  1
  Nb  Nb113  1  0.30013983  0.89610197  0.09503464  1
  Nb  Nb114  1  0.90736892  0.30594582  0.90043576  1
  Nb  Nb115  1  0.10520398  0.29982006  0.28984854  1
  Nb  Nb116  1  0.89728565  0.89620540  0.30062709  1
  Nb  Nb117  1  0.10292494  0.10463331  0.29290423  1
  Nb  Nb118  1  0.49673152  0.10238637  0.50520954  1
  Nb  Nb119  1  0.29823442  0.50217102  0.09419428  1
  Nb  Nb120  1  0.30464311  0.31233935  0.89933340  1
  Nb  Nb121  1  0.29956091  0.49216762  0.91163020  1
  Nb  Nb122  1  0.90765485  0.50902597  0.29740598  1
  Nb  Nb123  1  0.30542229  0.10155595  0.69581373  1
  Nb  Nb124  1  0.09256563  0.30268888  0.89688568  1
  Nb  Nb125  1  0.80100788  0.59841301  -0.00230217  1
  Nb  Nb126  1  0.80436339  0.79884928  0.39403365  1
  Nb  Nb127  1  0.00218038  0.20367949  0.60418548  1
  Nb  Nb128  1  0.39588505  0.59487511  0.80691733  1
  Nb  Nb129  1  -0.00063547  0.80155226  0.79244050  1
  Nb  Nb130  1  0.40281726  0.40433364  0.19842910  1
  Nb  Nb131  1  0.40387632  0.19793529  0.59766665  1
  Nb  Nb132  1  0.19448690  0.19624024  0.38973279  1
  Nb  Nb133  1  0.80589388  0.60461787  0.60340005  1
  Nb  Nb134  1  0.59797954  0.00484669  0.80133956  1
  Nb  Nb135  1  0.20151543  0.59683703  0.19646355  1
  Nb  Nb136  1  0.19834494  -0.00134662  0.19609696  1
  Nb  Nb137  1  -0.00119107  0.79692573  0.60457716  1
  Nb  Nb138  1  0.80682353  0.19808196  0.20321148  1
  Nb  Nb139  1  0.59561747  0.39541360  0.59855425  1
  Nb  Nb140  1  0.19955132  0.39512828  0.80635162  1
  Nb  Nb141  1  0.59767938  -0.00244553  -0.00535103  1
  Nb  Nb142  1  0.40325339  0.39770592  0.59594591  1
  Nb  Nb143  1  0.40766505  0.79699964  0.40305186  1
  Nb  Nb144  1  0.20546539  0.80210639  0.00225952  1
  Nb  Nb145  1  0.00555614  0.39630316  0.60131280  1
  Nb  Nb146  1  0.59086373  0.39780356  0.20700174  1
  Nb  Nb147  1  0.39330575  0.59490570  0.19722016  1
  Nb  Nb148  1  0.60129238  0.80651852  -0.00581680  1
  Nb  Nb149  1  0.80584830  -0.00014714  0.20262089  1
  Pd  Pd150  1  0.61191215  0.40811474  0.39787335  1
  Pd  Pd151  1  0.19688175  -0.00180025  0.38739463  1
  Pd  Pd152  1  0.80724517  0.80433802  0.80076754  1
  Pd  Pd153  1  0.20637733  0.00140463  0.79753283  1
  Pd  Pd154  1  0.59200171  0.00397361  0.40278462  1
  Pd  Pd155  1  0.21103219  0.79884143  0.40613910  1
  Pd  Pd156  1  0.39735671  0.79608350  0.59534449  1
  Pd  Pd157  1  0.20764044  0.20777929  0.80889472  1
  Pd  Pd158  1  0.79305869  0.40541309  0.39181872  1
  Pd  Pd159  1  0.40585373  0.79126010  0.20723700  1
  Pd  Pd160  1  0.00166279  -0.00623657  0.20693042  1
  Pd  Pd161  1  0.00832929  0.59350433  0.40584425  1
  Pd  Pd162  1  0.39536110  0.20435313  0.00413677  1
  Pd  Pd163  1  -0.00472634  0.79993085  0.40523696  1
  Pd  Pd164  1  0.38927153  0.20725793  0.40701421  1
  Pd  Pd165  1  0.19656176  0.80048750  0.19531914  1
  Pd  Pd166  1  0.39117156  0.39025215  0.40298225  1
  Pd  Pd167  1  0.80835913  0.79397316  0.58532133  1
  Pd  Pd168  1  0.79847902  0.60373448  0.40670422  1
  Pd  Pd169  1  0.60284786  0.19624507  -0.00921362  1
  Pd  Pd170  1  0.00056220  0.00335984  0.61272803  1
  Pd  Pd171  1  0.80610756  0.20955149  0.80137075  1
  Pd  Pd172  1  0.80154207  0.20198898  0.00565811  1
  Pd  Pd173  1  0.19997094  0.20864215  -0.00888436  1
  Pd  Pd174  1  -0.00789995  0.60670562  0.80867361  1
  Pd  Pd175  1  0.80813428  0.59616629  0.80413002  1
  Pd  Pd176  1  0.19725269  0.79611976  0.80990958  1
  Pd  Pd177  1  0.39464148  0.00149525  0.19359623  1
  Pd  Pd178  1  0.40689629  -0.00961213  0.40053771  1
  Pd  Pd179  1  -0.00824118  0.20683831  0.79041216  1
  Pd  Pd180  1  0.00863311  0.40582648  0.19328151  1
  Pd  Pd181  1  0.60639012  -0.00193925  0.60587007  1
  Pd  Pd182  1  -0.00202639  0.59474169  0.59290366  1
  Pd  Pd183  1  0.39387000  0.20036129  0.79693862  1
  Pd  Pd184  1  0.00286215  0.20907437  0.00402114  1
  Pd  Pd185  1  -0.00194512  -0.00398504  0.79275902  1
  Pd  Pd186  1  -0.00635722  0.20546669  0.19948665  1
  Pd  Pd187  1  0.59052515  0.59188062  0.19682592  1
  Pd  Pd188  1  0.59369438  0.19766989  0.81234142  1
  Pd  Pd189  1  0.58820883  0.80048953  0.18872976  1
  Pd  Pd190  1  0.00666353  0.20804125  0.40411234  1
  Pd  Pd191  1  0.39590435  0.20473444  0.18621852  1
  Pd  Pd192  1  0.59912501  0.80581895  0.59787550  1
  Pd  Pd193  1  0.78907192  0.40752428  -0.00545131  1
  Pd  Pd194  1  0.79453833  0.00447098  0.00971604  1
  Pd  Pd195  1  0.80848816  0.19524825  0.60379922  1
  Pd  Pd196  1  0.59979615  0.39943715  0.79485375  1
  Pd  Pd197  1  0.78591657  0.01040581  0.60608584  1
  Pd  Pd198  1  0.40266401  0.00752291  0.80385271  1
  Pd  Pd199  1  0.79892291  0.19096611  0.39174694  1
  Rh  Rh200  1  0.39611369  0.00395423  0.60104788  1
  Rh  Rh201  1  0.38992662  0.61121041  0.39357838  1
  Rh  Rh202  1  0.19703578  0.38980756  0.39487128  1
  Rh  Rh203  1  0.80325827  0.41011542  0.60189649  1
  Rh  Rh204  1  0.60522206  0.20402816  0.20530009  1
  Rh  Rh205  1  0.39754370  0.59911574  -0.00007696  1
  Rh  Rh206  1  0.20737026  0.00209305  0.60706277  1
  Rh  Rh207  1  0.78819514  -0.00379547  0.79115785  1
  Rh  Rh208  1  0.60545449  -0.00034940  0.19034608  1
  Rh  Rh209  1  0.38996622  0.40674061  0.79214492  1
  Rh  Rh210  1  0.79607193  0.39865641  0.80875273  1
  Rh  Rh211  1  0.61397243  0.59071559  0.60927965  1
  Rh  Rh212  1  0.39961477  0.79721309  0.00105175  1
  Rh  Rh213  1  0.19829211  -0.00558776  0.00657220  1
  Rh  Rh214  1  0.80915237  0.79859923  0.20596927  1
  Rh  Rh215  1  0.20505562  0.19129524  0.19831518  1
  Rh  Rh216  1  0.00170234  0.00130409  -0.00449406  1
  Rh  Rh217  1  0.00815247  0.39453608  0.00704824  1
  Rh  Rh218  1  0.59139340  0.81011136  0.80424186  1
  Rh  Rh219  1  0.20012754  0.60338325  0.39323297  1
  Rh  Rh220  1  0.01042888  0.39583548  0.79085212  1
  Rh  Rh221  1  0.61254698  0.61255958  0.00091669  1
  Rh  Rh222  1  0.60031315  0.19245376  0.39760445  1
  Rh  Rh223  1  0.59221314  0.59718255  0.79555957  1
  Rh  Rh224  1  0.20042927  0.19157826  0.58937549  1
  Rh  Rh225  1  0.00636011  0.59398882  0.19797823  1
  Rh  Rh226  1  0.40721060  0.39509002  0.01300628  1
  Rh  Rh227  1  0.00802938  -0.00451648  0.39287074  1
  Rh  Rh228  1  0.18829547  0.39497766  -0.00875200  1
  Rh  Rh229  1  0.39675148  0.78834639  0.79649408  1
  Rh  Rh230  1  0.00952225  0.80309400  -0.01480221  1
  Rh  Rh231  1  0.00898400  0.39854225  0.40234333  1
  Rh  Rh232  1  0.20062772  0.60608951  0.00439015  1
  Rh  Rh233  1  0.20959505  0.58739033  0.81031878  1
  Rh  Rh234  1  0.80656982  0.60460173  0.19212362  1
  Rh  Rh235  1  0.59905755  0.80877017  0.40591642  1
  Rh  Rh236  1  0.79057047  0.39360138  0.20984520  1
  Rh  Rh237  1  0.61224242  0.59241597  0.39727316  1
  Rh  Rh238  1  -0.00429899  0.79774512  0.20783676  1
  Rh  Rh239  1  -0.01166813  0.59673004  -0.00126488  1
  Rh  Rh240  1  0.39501121  0.59285245  0.61079337  1
  Rh  Rh241  1  0.79710311  -0.00179380  0.39153602  1
  Rh  Rh242  1  0.59108972  0.20860771  0.59968752  1
  Rh  Rh243  1  0.19895639  0.41119278  0.19864756  1
  Rh  Rh244  1  0.59900350  0.39254045  0.00802173  1
  Rh  Rh245  1  0.19826093  0.79645532  0.59680078  1
  Rh  Rh246  1  0.79066048  0.79036553  -0.00318134  1
  Rh  Rh247  1  0.20240479  0.59658444  0.60073970  1
  Rh  Rh248  1  0.19982471  0.40552046  0.60847444  1
  Rh  Rh249  1  0.40490512  0.00300867  0.00234158  1
