# generated using pymatgen
data_ZrScNbPdRh
_symmetry_space_group_name_H-M   'P 1'
_cell_length_a   16.55993140
_cell_length_b   16.55812937
_cell_length_c   16.55821682
_cell_angle_alpha   90.04811286
_cell_angle_beta   90.00649654
_cell_angle_gamma   90.03869604
_symmetry_Int_Tables_number   1
_chemical_formula_structural   ZrScNbPdRh
_chemical_formula_sum   'Zr50 Sc50 Nb50 Pd50 Rh50'
_cell_volume   4540.28500071
_cell_formula_units_Z   50
loop_
 _symmetry_equiv_pos_site_id
 _symmetry_equiv_pos_as_xyz
  1  'x, y, z'
loop_
 _atom_site_type_symbol
 _atom_site_label
 _atom_site_symmetry_multiplicity
 _atom_site_fract_x
 _atom_site_fract_y
 _atom_site_fract_z
 _atom_site_occupancy
  Zr  Zr0  1  0.49972572  0.11028388  0.49886918  1
  Zr  Zr1  1  0.89771419  0.30627759  0.09316070  1
  Zr  Zr2  1  0.90006929  0.70289887  0.30534371  1
  Zr  Zr3  1  0.50556993  0.69081933  0.90692107  1
  Zr  Zr4  1  0.09824034  0.69746739  0.69358852  1
  Zr  Zr5  1  0.49609767  0.50565847  0.49667510  1
  Zr  Zr6  1  0.89740104  0.30279353  0.30784500  1
  Zr  Zr7  1  0.50054039  0.10619482  0.11222094  1
  Zr  Zr8  1  0.69888271  0.09914559  0.90003865  1
  Zr  Zr9  1  0.30187396  0.88666484  0.09519470  1
  Zr  Zr10  1  0.90136709  0.50106420  0.29514946  1
  Zr  Zr11  1  0.50408807  0.30537630  0.09742595  1
  Zr  Zr12  1  0.50215676  0.09636807  0.91296189  1
  Zr  Zr13  1  0.30424738  0.49713517  0.29678280  1
  Zr  Zr14  1  0.69961520  0.09948529  0.50631126  1
  Zr  Zr15  1  0.69955751  0.30044542  0.90456515  1
  Zr  Zr16  1  0.30365452  0.50670614  0.91048116  1
  Zr  Zr17  1  0.09985806  0.29132121  0.89953328  1
  Zr  Zr18  1  0.48809284  0.88820628  0.89975789  1
  Zr  Zr19  1  0.69510356  0.69442368  0.09264229  1
  Zr  Zr20  1  0.89374799  0.31228788  0.70153013  1
  Zr  Zr21  1  0.49577905  0.50037676  0.70144711  1
  Zr  Zr22  1  0.30554489  0.90217494  0.71054641  1
  Zr  Zr23  1  0.30279358  0.70301513  0.28899983  1
  Zr  Zr24  1  0.90934697  0.10083073  0.50133423  1
  Zr  Zr25  1  0.29273887  0.70618204  0.69593987  1
  Zr  Zr26  1  0.09904571  0.09844807  0.70559783  1
  Zr  Zr27  1  0.90453612  0.09984013  0.30031434  1
  Zr  Zr28  1  0.29060497  0.09712967  0.49950079  1
  Zr  Zr29  1  0.89928925  0.09183102  0.09985454  1
  Zr  Zr30  1  0.29751590  0.10175508  0.09805782  1
  Zr  Zr31  1  0.10582968  0.69860780  0.09860895  1
  Zr  Zr32  1  0.09178319  0.89356577  0.08937159  1
  Zr  Zr33  1  0.69524927  0.29709451  0.70610057  1
  Zr  Zr34  1  0.90018982  0.90319937  0.29903632  1
  Zr  Zr35  1  0.49630235  0.30715295  0.49662857  1
  Zr  Zr36  1  0.90729858  0.29723839  0.49315812  1
  Zr  Zr37  1  0.10429143  0.29797820  0.09176616  1
  Zr  Zr38  1  0.49635910  0.49714722  0.09273508  1
  Zr  Zr39  1  0.90482424  0.30474313  0.90321022  1
  Zr  Zr40  1  0.09828031  0.50370468  0.10033176  1
  Zr  Zr41  1  0.29250617  0.29975187  0.90022165  1
  Zr  Zr42  1  0.89590953  0.70970905  0.50082360  1
  Zr  Zr43  1  0.89694169  0.69793629  0.10009673  1
  Zr  Zr44  1  0.30479241  0.10101925  0.29048940  1
  Zr  Zr45  1  0.70555637  0.30672399  0.50330296  1
  Zr  Zr46  1  0.70430076  0.09178066  0.69911037  1
  Zr  Zr47  1  0.29377387  0.30150780  0.50543224  1
  Zr  Zr48  1  0.09921606  0.30518758  0.31138724  1
  Zr  Zr49  1  0.68901098  0.10586175  0.28962266  1
  Sc  Sc50  1  0.89914527  0.69788512  0.70844457  1
  Sc  Sc51  1  0.70593714  0.89252324  0.90235493  1
  Sc  Sc52  1  0.10176889  0.09850400  0.09896465  1
  Sc  Sc53  1  0.09775826  0.90772157  0.30061866  1
  Sc  Sc54  1  0.30195338  0.89997065  0.29415970  1
  Sc  Sc55  1  0.11133106  0.89513124  0.70560768  1
  Sc  Sc56  1  0.49702873  0.69643643  0.72134147  1
  Sc  Sc57  1  0.69884066  0.89375290  0.10196205  1
  Sc  Sc58  1  0.29976201  0.30434991  0.29854271  1
  Sc  Sc59  1  0.30864630  0.69923404  0.90403399  1
  Sc  Sc60  1  0.69852978  0.50688047  0.90406047  1
  Sc  Sc61  1  0.30532747  0.69767619  0.49794930  1
  Sc  Sc62  1  0.90727457  0.08974663  0.90061014  1
  Sc  Sc63  1  0.50443881  0.10563324  0.69541310  1
  Sc  Sc64  1  0.69495551  0.09635944  0.08937339  1
  Sc  Sc65  1  0.49371903  0.70027033  0.29818706  1
  Sc  Sc66  1  0.89610988  0.90483534  0.09618737  1
  Sc  Sc67  1  0.09630448  0.68935151  0.30110432  1
  Sc  Sc68  1  0.50939236  0.30071873  0.90210997  1
  Sc  Sc69  1  0.70114605  0.70860870  0.49117489  1
  Sc  Sc70  1  0.89660811  0.50824279  0.70298169  1
  Sc  Sc71  1  0.88769957  0.89903499  0.69861248  1
  Sc  Sc72  1  0.10460041  0.91492820  0.49728782  1
  Sc  Sc73  1  0.50133634  0.50181883  0.30248378  1
  Sc  Sc74  1  0.88916250  0.50048889  0.09872098  1
  Sc  Sc75  1  0.49867980  0.89737728  0.09452265  1
  Sc  Sc76  1  0.49497738  0.90632926  0.50494191  1
  Sc  Sc77  1  0.30020739  0.49824558  0.69254294  1
  Sc  Sc78  1  0.09008336  0.71361495  0.89809206  1
  Sc  Sc79  1  0.10660359  0.09310030  0.30352511  1
  Sc  Sc80  1  0.10399029  0.68980248  0.49955509  1
  Sc  Sc81  1  0.90823093  0.09315683  0.70522027  1
  Sc  Sc82  1  0.29761018  0.90110877  0.50627662  1
  Sc  Sc83  1  0.30323439  0.09795973  0.89219677  1
  Sc  Sc84  1  0.69724270  0.31077920  0.29914117  1
  Sc  Sc85  1  0.49969541  0.70365574  0.10179142  1
  Sc  Sc86  1  0.11167721  0.29187639  0.70474389  1
  Sc  Sc87  1  0.50446834  0.29695986  0.69884486  1
  Sc  Sc88  1  0.70146093  0.69874859  0.90220448  1
  Sc  Sc89  1  0.70595076  0.48730105  0.70237068  1
  Sc  Sc90  1  0.70899382  0.70930664  0.71463870  1
  Sc  Sc91  1  0.68920111  0.49567922  0.48988590  1
  Sc  Sc92  1  0.69043805  0.70363149  0.29027192  1
  Sc  Sc93  1  0.90046190  0.90011849  0.49542741  1
  Sc  Sc94  1  0.89558749  0.49116950  0.49758845  1
  Sc  Sc95  1  0.71196529  0.89944892  0.51167489  1
  Sc  Sc96  1  0.30103441  0.10655247  0.69938782  1
  Sc  Sc97  1  0.10149936  0.50127375  0.30881667  1
  Sc  Sc98  1  0.30691157  0.49082708  0.49848518  1
  Sc  Sc99  1  0.10487212  0.49802805  0.90553478  1
  Nb  Nb100  1  0.69959342  0.50532767  0.29679111  1
  Nb  Nb101  1  0.49296700  0.50429338  0.90061984  1
  Nb  Nb102  1  0.30194740  0.50046050  0.09948667  1
  Nb  Nb103  1  0.50016003  0.89923679  0.29692727  1
  Nb  Nb104  1  0.91443970  0.89385034  0.90467879  1
  Nb  Nb105  1  0.69470304  0.49113052  0.11089676  1
  Nb  Nb106  1  0.09857033  0.90667961  0.89774387  1
  Nb  Nb107  1  0.09937654  0.09526852  0.89275346  1
  Nb  Nb108  1  0.10080539  0.11158187  0.50637205  1
  Nb  Nb109  1  0.49861678  0.27675377  0.29704297  1
  Nb  Nb110  1  0.09733090  0.50637380  0.69580698  1
  Nb  Nb111  1  0.70079112  0.30906747  0.09871283  1
  Nb  Nb112  1  0.29758747  0.68778222  0.10103244  1
  Nb  Nb113  1  0.30106120  0.30422257  0.09745957  1
  Nb  Nb114  1  0.30309981  0.90484163  0.90154058  1
  Nb  Nb115  1  0.69760934  0.89799494  0.70358726  1
  Nb  Nb116  1  0.50432500  0.70118134  0.49776682  1
  Nb  Nb117  1  0.89914765  0.50432519  0.89752239  1
  Nb  Nb118  1  0.30520480  0.30094928  0.70745670  1
  Nb  Nb119  1  0.09972579  0.29695205  0.50059150  1
  Nb  Nb120  1  0.49825286  0.10285281  0.29813370  1
  Nb  Nb121  1  0.10448604  0.49158996  0.50432897  1
  Nb  Nb122  1  0.69695781  0.90036380  0.30140080  1
  Nb  Nb123  1  0.50216579  0.89390724  0.70585643  1
  Nb  Nb124  1  0.89108272  0.69438793  0.89815724  1
  Nb  Nb125  1  0.40920711  0.79845309  0.60559540  1
  Nb  Nb126  1  0.60188720  0.60883964  0.59993920  1
  Nb  Nb127  1  0.39628208  0.20537363  0.00462122  1
  Nb  Nb128  1  -0.00765004  0.60213360  -0.00509811  1
  Nb  Nb129  1  0.80330919  0.20133310  0.60486066  1
  Nb  Nb130  1  -0.00081862  0.39585396  0.19773707  1
  Nb  Nb131  1  0.59617217  0.79739004  0.60439765  1
  Nb  Nb132  1  0.79057112  0.60217147  0.59364484  1
  Nb  Nb133  1  0.39788093  0.40027241  0.80402965  1
  Nb  Nb134  1  0.19636828  0.60021242  0.79680729  1
  Nb  Nb135  1  0.40710370  0.00524959  0.39314615  1
  Nb  Nb136  1  0.59759044  -0.00172054  0.39574290  1
  Nb  Nb137  1  0.59402619  0.80989860  0.40154645  1
  Nb  Nb138  1  0.20005614  -0.00652734  -0.00935494  1
  Nb  Nb139  1  0.79489175  0.60069489  0.39631814  1
  Nb  Nb140  1  0.00562515  0.40612193  0.79698285  1
  Nb  Nb141  1  -0.00278725  0.20590194  0.20032210  1
  Nb  Nb142  1  -0.00250902  0.79786969  0.19972227  1
  Nb  Nb143  1  0.80190581  0.20062507  0.80068253  1
  Nb  Nb144  1  0.00972019  0.40078216  0.60202489  1
  Nb  Nb145  1  0.59821341  -0.00916597  0.79813352  1
  Nb  Nb146  1  0.80055945  0.20602327  0.19335266  1
  Nb  Nb147  1  0.00347109  0.79863260  0.59883806  1
  Nb  Nb148  1  0.20244013  0.79861993  0.39719261  1
  Nb  Nb149  1  0.79270863  0.00260146  0.39401986  1
  Pd  Pd150  1  0.59013157  0.39823656  0.20902663  1
  Pd  Pd151  1  0.40756502  0.39565360  0.20549142  1
  Pd  Pd152  1  -0.00020386  0.18894420  0.00269188  1
  Pd  Pd153  1  0.40915145  0.20536677  0.80790769  1
  Pd  Pd154  1  -0.01283933  0.59823143  0.59094544  1
  Pd  Pd155  1  0.39833887  0.80934518  0.40693030  1
  Pd  Pd156  1  0.18960602  0.80304438  0.20838418  1
  Pd  Pd157  1  0.20259011  0.19894408  0.39507136  1
  Pd  Pd158  1  -0.00654822  0.59289377  0.41164114  1
  Pd  Pd159  1  -0.00577347  0.80629170  0.78957431  1
  Pd  Pd160  1  0.60692328  0.20213946  0.40314166  1
  Pd  Pd161  1  0.79179091  0.00482602  0.20040964  1
  Pd  Pd162  1  0.59812023  -0.00740902  0.19678840  1
  Pd  Pd163  1  0.59266537  0.40769970  0.80769080  1
  Pd  Pd164  1  0.20020831  0.59253931  0.20488268  1
  Pd  Pd165  1  0.40543208  0.61023360  0.60404201  1
  Pd  Pd166  1  0.79522886  0.60269480  0.20349459  1
  Pd  Pd167  1  0.39657586  0.60184642  0.39530024  1
  Pd  Pd168  1  0.80352458  0.80149365  -0.00201009  1
  Pd  Pd169  1  0.80165115  0.19386269  -0.00082276  1
  Pd  Pd170  1  0.40142899  -0.00732083  0.19596492  1
  Pd  Pd171  1  0.59097914  0.59972405  0.19674408  1
  Pd  Pd172  1  0.20756227  0.59568166  0.59615388  1
  Pd  Pd173  1  0.80129165  -0.00318473  0.80967944  1
  Pd  Pd174  1  0.39641569  0.20446133  0.59959584  1
  Pd  Pd175  1  0.59176729  0.39698584  0.39005451  1
  Pd  Pd176  1  0.80128035  0.79956165  0.20090839  1
  Pd  Pd177  1  -0.00247876  0.20957116  0.61276074  1
  Pd  Pd178  1  0.20139684  0.40382947  0.00232869  1
  Pd  Pd179  1  0.41012134  0.00865668  0.79549534  1
  Pd  Pd180  1  0.00711120  0.59643198  0.80948981  1
  Pd  Pd181  1  0.20030423  0.41036203  0.79556529  1
  Pd  Pd182  1  0.00183646  -0.01191605  0.60582493  1
  Pd  Pd183  1  0.40087781  -0.00103480  0.60205531  1
  Pd  Pd184  1  0.59627416  -0.00856226  0.60120415  1
  Pd  Pd185  1  0.79413327  0.41140333  -0.00509477  1
  Pd  Pd186  1  0.20428142  0.79760334  -0.01113557  1
  Pd  Pd187  1  0.19619449  -0.00880768  0.18875221  1
  Pd  Pd188  1  0.38847835  0.20033599  0.40168382  1
  Pd  Pd189  1  0.20574868  0.79431248  0.81173939  1
  Pd  Pd190  1  0.19749307  0.00087629  0.60904146  1
  Pd  Pd191  1  0.61037994  0.59518982  0.79367389  1
  Pd  Pd192  1  0.21041726  0.60034396  0.40238959  1
  Pd  Pd193  1  0.60087405  -0.01486144  -0.00575996  1
  Pd  Pd194  1  0.59616639  0.40799989  0.59972145  1
  Pd  Pd195  1  0.01608104  0.80328197  0.40300603  1
  Pd  Pd196  1  0.19349765  0.40327675  0.19918043  1
  Pd  Pd197  1  0.19761964  0.39609110  0.60725269  1
  Pd  Pd198  1  0.19380342  0.20602489  0.20356564  1
  Pd  Pd199  1  0.78944993  0.19424980  0.39788375  1
  Rh  Rh200  1  0.39333701  0.79368025  0.80018018  1
  Rh  Rh201  1  0.59678005  0.20316699  0.00672305  1
  Rh  Rh202  1  0.80131383  0.79251255  0.60829365  1
  Rh  Rh203  1  -0.00605054  0.20758946  0.80040943  1
  Rh  Rh204  1  0.79389242  0.59553978  0.79502591  1
  Rh  Rh205  1  0.80276472  0.39706467  0.20430857  1
  Rh  Rh206  1  0.39765404  0.78968617  0.00295905  1
  Rh  Rh207  1  0.39677093  0.39413501  -0.00643999  1
  Rh  Rh208  1  0.80137176  -0.00765755  -0.00500631  1
  Rh  Rh209  1  0.00762707  0.00453552  -0.00115826  1
  Rh  Rh210  1  0.60242549  0.80323096  0.80473475  1
  Rh  Rh211  1  0.60566547  0.20781572  0.59690614  1
  Rh  Rh212  1  0.78935107  0.80275328  0.38990834  1
  Rh  Rh213  1  -0.00115208  0.00604251  0.40443334  1
  Rh  Rh214  1  0.20591486  0.18780799  -0.00927704  1
  Rh  Rh215  1  0.60467727  0.40849817  -0.00335745  1
  Rh  Rh216  1  0.79849537  0.59573360  0.00205372  1
  Rh  Rh217  1  0.01398860  0.19057685  0.39333348  1
  Rh  Rh218  1  0.59993891  0.59343064  0.00595242  1
  Rh  Rh219  1  0.80689543  0.80690186  0.80822274  1
  Rh  Rh220  1  0.00585276  -0.00243988  0.19498227  1
  Rh  Rh221  1  0.79404918  0.41150862  0.39418851  1
  Rh  Rh222  1  0.40326445  0.60468614  0.01068903  1
  Rh  Rh223  1  0.80429892  0.40260104  0.59418908  1
  Rh  Rh224  1  0.39389208  0.20962823  0.19239537  1
  Rh  Rh225  1  0.40442977  0.39181080  0.39123141  1
  Rh  Rh226  1  0.38635588  0.59241135  0.79677216  1
  Rh  Rh227  1  -0.00024603  0.41307322  -0.00208164  1
  Rh  Rh228  1  0.19173048  0.60940005  -0.00981960  1
  Rh  Rh229  1  0.59940530  0.79786443  -0.00262636  1
  Rh  Rh230  1  0.00057323  -0.01134856  0.79480865  1
  Rh  Rh231  1  0.20199033  0.19207281  0.79981739  1
  Rh  Rh232  1  0.61047090  0.21065708  0.19071433  1
  Rh  Rh233  1  0.81004113  0.00635134  0.59228641  1
  Rh  Rh234  1  0.40285032  0.39194971  0.60852952  1
  Rh  Rh235  1  0.80410423  0.39946635  0.81142039  1
  Rh  Rh236  1  0.60474928  0.60958419  0.39972018  1
  Rh  Rh237  1  0.19570547  0.80024064  0.58364738  1
  Rh  Rh238  1  0.20257530  0.20179176  0.60477187  1
  Rh  Rh239  1  0.00667568  0.40757355  0.40452329  1
  Rh  Rh240  1  0.60345841  0.18784844  0.80010974  1
  Rh  Rh241  1  -0.00081222  0.59943267  0.19013913  1
  Rh  Rh242  1  0.39232558  0.00619726  0.00611840  1
  Rh  Rh243  1  -0.00891781  0.79156234  0.00366459  1
  Rh  Rh244  1  0.40089037  0.59704848  0.19525195  1
  Rh  Rh245  1  0.20226502  0.00318678  0.80229561  1
  Rh  Rh246  1  0.20387609  0.40204172  0.40409821  1
  Rh  Rh247  1  0.40241766  0.79789450  0.19329718  1
  Rh  Rh248  1  0.59485781  0.80251839  0.20236533  1
  Rh  Rh249  1  0.21297984  -0.00479254  0.39612112  1
