# generated using pymatgen
data_ZrScNbPdRh
_symmetry_space_group_name_H-M   'P 1'
_cell_length_a   16.56099426
_cell_length_b   16.56237530
_cell_length_c   16.55759330
_cell_angle_alpha   90.01670078
_cell_angle_beta   89.98219670
_cell_angle_gamma   89.99803916
_symmetry_Int_Tables_number   1
_chemical_formula_structural   ZrScNbPdRh
_chemical_formula_sum   'Zr50 Sc50 Nb50 Pd50 Rh50'
_cell_volume   4541.57195452
_cell_formula_units_Z   50
loop_
 _symmetry_equiv_pos_site_id
 _symmetry_equiv_pos_as_xyz
  1  'x, y, z'
loop_
 _atom_site_type_symbol
 _atom_site_label
 _atom_site_symmetry_multiplicity
 _atom_site_fract_x
 _atom_site_fract_y
 _atom_site_fract_z
 _atom_site_occupancy
  Zr  Zr0  1  0.89301338  0.69717289  0.30254050  1
  Zr  Zr1  1  0.10381174  0.29875847  0.89039038  1
  Zr  Zr2  1  0.29258553  0.90008484  0.70853827  1
  Zr  Zr3  1  0.69895272  0.70323936  0.88422133  1
  Zr  Zr4  1  0.90468338  0.50114013  0.70083097  1
  Zr  Zr5  1  0.10749798  0.90323072  0.89676705  1
  Zr  Zr6  1  0.09113347  0.10452827  0.90603289  1
  Zr  Zr7  1  0.70748943  0.29906237  0.30316190  1
  Zr  Zr8  1  0.51397632  0.08908681  0.89066787  1
  Zr  Zr9  1  0.89737558  0.69937750  0.10169997  1
  Zr  Zr10  1  0.30179708  0.90755931  0.50093555  1
  Zr  Zr11  1  0.69890490  0.90497853  0.49760368  1
  Zr  Zr12  1  0.29908834  0.70390686  0.29510714  1
  Zr  Zr13  1  0.70277166  0.50172860  0.49930307  1
  Zr  Zr14  1  0.09207681  0.29867609  0.09255957  1
  Zr  Zr15  1  0.29936454  0.70259274  0.90264203  1
  Zr  Zr16  1  0.50011139  0.50536556  0.29993822  1
  Zr  Zr17  1  0.09863529  0.90336044  0.69848306  1
  Zr  Zr18  1  0.49852732  0.30686492  0.10224482  1
  Zr  Zr19  1  0.70613433  0.09131062  0.09967729  1
  Zr  Zr20  1  0.69638670  0.29440651  0.69112237  1
  Zr  Zr21  1  0.70231004  0.29846098  0.50103197  1
  Zr  Zr22  1  0.50078988  0.49901214  0.10402625  1
  Zr  Zr23  1  0.70641740  0.30380548  0.10264445  1
  Zr  Zr24  1  0.90356668  0.69993337  0.49775628  1
  Zr  Zr25  1  0.30145965  0.89448101  0.89901845  1
  Zr  Zr26  1  0.89678877  0.89796191  0.89422833  1
  Zr  Zr27  1  0.30947265  0.69663888  0.49506921  1
  Zr  Zr28  1  0.29721132  0.68960254  0.69749412  1
  Zr  Zr29  1  0.09948592  0.10138447  0.29617524  1
  Zr  Zr30  1  0.70318643  0.30051600  0.89518356  1
  Zr  Zr31  1  0.50183719  0.29724621  0.69680659  1
  Zr  Zr32  1  0.10483096  0.49550437  0.89883646  1
  Zr  Zr33  1  0.89100034  0.70442932  0.70035377  1
  Zr  Zr34  1  0.50004889  0.71194607  0.90256330  1
  Zr  Zr35  1  0.11951245  0.49898682  0.69892114  1
  Zr  Zr36  1  0.29782188  0.89775811  0.09754243  1
  Zr  Zr37  1  0.30390171  0.50166783  0.09323046  1
  Zr  Zr38  1  0.08518301  0.90236082  0.50130370  1
  Zr  Zr39  1  0.10193406  0.69781323  0.69868219  1
  Zr  Zr40  1  0.70543772  0.49854633  0.89628188  1
  Zr  Zr41  1  0.50312293  0.90317482  0.49581305  1
  Zr  Zr42  1  0.89121403  0.09302689  0.90022675  1
  Zr  Zr43  1  0.90405912  0.10037247  0.09908774  1
  Zr  Zr44  1  0.70248498  0.49931383  0.10786803  1
  Zr  Zr45  1  0.10034191  0.10844070  0.70103592  1
  Zr  Zr46  1  0.29571161  0.29750699  0.30469634  1
  Zr  Zr47  1  0.49240995  0.49762929  0.90292145  1
  Zr  Zr48  1  0.90212006  0.49481220  0.89772992  1
  Zr  Zr49  1  0.89738527  0.28510535  0.49913632  1
  Sc  Sc50  1  0.30066541  0.90222433  0.30433924  1
  Sc  Sc51  1  0.29687892  0.30455770  0.10436252  1
  Sc  Sc52  1  0.69609264  0.70331469  0.11539652  1
  Sc  Sc53  1  0.50107728  0.70410786  0.49144370  1
  Sc  Sc54  1  0.70087357  0.69898942  0.30530450  1
  Sc  Sc55  1  0.90698816  0.70156744  0.89661045  1
  Sc  Sc56  1  0.49688110  0.30920013  0.90238577  1
  Sc  Sc57  1  0.29681521  0.29054582  0.50098269  1
  Sc  Sc58  1  0.29699181  0.50792023  0.50557568  1
  Sc  Sc59  1  0.90234970  0.29421930  0.69824756  1
  Sc  Sc60  1  0.89671709  0.90612268  0.09621693  1
  Sc  Sc61  1  0.09723465  0.90769882  0.30123813  1
  Sc  Sc62  1  0.89808962  0.30353986  0.10634988  1
  Sc  Sc63  1  0.29187434  0.70120416  0.10008052  1
  Sc  Sc64  1  0.69915717  0.89572669  0.30169973  1
  Sc  Sc65  1  0.50683938  0.29018927  0.50092702  1
  Sc  Sc66  1  0.70012962  0.50711530  0.30273552  1
  Sc  Sc67  1  0.70114379  0.88819030  0.69757614  1
  Sc  Sc68  1  0.10422145  0.70138295  0.91059305  1
  Sc  Sc69  1  0.71214318  0.50383827  0.69897426  1
  Sc  Sc70  1  0.50061814  0.09586371  0.50628884  1
  Sc  Sc71  1  0.09487929  0.10121677  0.49742351  1
  Sc  Sc72  1  0.90334580  0.29854470  0.29616351  1
  Sc  Sc73  1  0.10477381  0.29876086  0.49117761  1
  Sc  Sc74  1  0.90142452  0.49192944  0.10147834  1
  Sc  Sc75  1  0.51145394  0.89360095  0.09495202  1
  Sc  Sc76  1  0.10218717  0.09700204  0.09618378  1
  Sc  Sc77  1  0.90930587  0.30516225  0.90081208  1
  Sc  Sc78  1  0.49796956  0.90886867  0.70870801  1
  Sc  Sc79  1  0.50063320  0.30098411  0.30593616  1
  Sc  Sc80  1  0.29618227  0.49476899  0.29258206  1
  Sc  Sc81  1  0.90088360  0.50748722  0.49677659  1
  Sc  Sc82  1  0.09510285  0.48676201  0.30534345  1
  Sc  Sc83  1  0.89364392  0.90010143  0.31016722  1
  Sc  Sc84  1  0.09760500  0.29764418  0.29973284  1
  Sc  Sc85  1  0.89730731  0.49855889  0.30046435  1
  Sc  Sc86  1  0.69288928  0.90593111  0.90021429  1
  Sc  Sc87  1  0.29104838  0.30061446  0.69789367  1
  Sc  Sc88  1  0.50290922  0.70718222  0.70862305  1
  Sc  Sc89  1  0.50949843  0.09059586  0.09835379  1
  Sc  Sc90  1  0.10345193  0.49793390  0.09278947  1
  Sc  Sc91  1  0.29810352  0.09787286  0.68753688  1
  Sc  Sc92  1  0.49979124  0.70054946  0.30599511  1
  Sc  Sc93  1  0.28502846  0.09590636  0.89967528  1
  Sc  Sc94  1  0.70689814  0.09196672  0.30216328  1
  Sc  Sc95  1  0.49610508  0.70220848  0.10269335  1
  Sc  Sc96  1  0.69885278  0.89923983  0.10559521  1
  Sc  Sc97  1  0.09972359  0.90373124  0.09483835  1
  Sc  Sc98  1  0.50028064  0.09846326  0.31676200  1
  Sc  Sc99  1  0.49652277  0.51651733  0.49641890  1
  Nb  Nb100  1  0.09924248  0.69884397  0.10497814  1
  Nb  Nb101  1  0.49776887  0.89567331  0.89947432  1
  Nb  Nb102  1  0.89236604  0.09553330  0.69203702  1
  Nb  Nb103  1  0.09507751  0.69535347  0.49427484  1
  Nb  Nb104  1  0.90259049  0.90368198  0.69365335  1
  Nb  Nb105  1  0.89117679  0.08994754  0.50497794  1
  Nb  Nb106  1  0.68689474  0.10987330  0.71731608  1
  Nb  Nb107  1  0.29930665  0.49425117  0.89288175  1
  Nb  Nb108  1  0.09698256  0.70049142  0.30044880  1
  Nb  Nb109  1  0.30473800  0.09697532  0.10051231  1
  Nb  Nb110  1  0.30714048  0.10074086  0.48757190  1
  Nb  Nb111  1  0.70142349  0.69768747  0.69756419  1
  Nb  Nb112  1  0.69973311  0.10217028  0.89729053  1
  Nb  Nb113  1  0.30884635  0.30358952  0.89643581  1
  Nb  Nb114  1  0.49995569  0.90058848  0.30921008  1
  Nb  Nb115  1  0.50786326  0.10788687  0.70402012  1
  Nb  Nb116  1  0.30232327  0.10122788  0.29869915  1
  Nb  Nb117  1  0.89684326  0.91629511  0.51560858  1
  Nb  Nb118  1  0.09904844  0.50312384  0.49700468  1
  Nb  Nb119  1  0.30435140  0.50095158  0.70122021  1
  Nb  Nb120  1  0.09952495  0.30021977  0.69374114  1
  Nb  Nb121  1  0.49641628  0.50037304  0.70012705  1
  Nb  Nb122  1  0.90229568  0.10529554  0.30104278  1
  Nb  Nb123  1  0.70548308  0.09923424  0.50377692  1
  Nb  Nb124  1  0.69871287  0.70106666  0.50480917  1
  Nb  Nb125  1  0.40216952  0.19151324  0.19863849  1
  Nb  Nb126  1  0.19271749  0.79563594  0.40485028  1
  Nb  Nb127  1  0.40163483  0.00032586  -0.00094094  1
  Nb  Nb128  1  0.59815909  0.40406393  0.79282313  1
  Nb  Nb129  1  0.39798556  0.40088708  0.40703620  1
  Nb  Nb130  1  0.19926503  0.79677470  0.59084805  1
  Nb  Nb131  1  0.19170032  0.60407104  0.39763486  1
  Nb  Nb132  1  0.00919111  0.39929115  0.59798445  1
  Nb  Nb133  1  0.79634773  0.19727296  -0.00219157  1
  Nb  Nb134  1  -0.00725764  0.00142927  0.79238060  1
  Nb  Nb135  1  0.40093724  0.19755515  0.80353167  1
  Nb  Nb136  1  0.00644585  0.59676869  0.79809162  1
  Nb  Nb137  1  0.40241502  0.19289623  -0.00081176  1
  Nb  Nb138  1  0.40132844  0.00266816  0.20024090  1
  Nb  Nb139  1  0.39533855  0.80345694  0.60140099  1
  Nb  Nb140  1  0.00538088  0.60486731  0.20120099  1
  Nb  Nb141  1  0.60049760  0.19834976  0.19855140  1
  Nb  Nb142  1  0.79543148  0.79501545  -0.00230225  1
  Nb  Nb143  1  0.39701427  0.59405366  0.80149680  1
  Nb  Nb144  1  0.79537221  0.60339820  -0.00126880  1
  Nb  Nb145  1  0.60495499  0.60092051  -0.00111580  1
  Nb  Nb146  1  0.60395037  0.60630046  0.60585748  1
  Nb  Nb147  1  0.00131772  0.79472823  0.20121391  1
  Nb  Nb148  1  0.40126187  0.40448345  0.60079690  1
  Nb  Nb149  1  0.60330509  0.19958376  0.00103375  1
  Pd  Pd150  1  0.79495830  -0.00641206  0.78994898  1
  Pd  Pd151  1  0.80229880  0.80121695  0.59260255  1
  Pd  Pd152  1  0.39369597  0.01044709  0.80379918  1
  Pd  Pd153  1  0.60399167  0.00468124  0.60867995  1
  Pd  Pd154  1  -0.00591440  -0.00715933  0.20224064  1
  Pd  Pd155  1  0.20389288  0.39703099  0.59017899  1
  Pd  Pd156  1  0.60638536  0.19234010  0.39879676  1
  Pd  Pd157  1  -0.00016910  0.79600737  0.60075999  1
  Pd  Pd158  1  0.00146455  0.20102586  0.19867087  1
  Pd  Pd159  1  0.19780660  -0.00069412  0.40227947  1
  Pd  Pd160  1  0.80065371  0.19234195  0.39677294  1
  Pd  Pd161  1  0.40781780  0.80938101  0.19966281  1
  Pd  Pd162  1  0.39939022  0.60404082  0.20036680  1
  Pd  Pd163  1  0.59360515  0.41326506  0.59718975  1
  Pd  Pd164  1  -0.00306010  0.80591872  0.00591582  1
  Pd  Pd165  1  0.20538773  0.39350573  -0.00399827  1
  Pd  Pd166  1  0.80023102  0.80363186  0.41198797  1
  Pd  Pd167  1  0.20842817  0.19987603  0.79710174  1
  Pd  Pd168  1  -0.00982383  0.19442408  0.79783054  1
  Pd  Pd169  1  0.20146959  0.20058757  0.19326109  1
  Pd  Pd170  1  0.00347909  0.59437223  0.60512412  1
  Pd  Pd171  1  0.80708155  0.40097217  0.40037882  1
  Pd  Pd172  1  0.20441553  -0.00226801  0.20013384  1
  Pd  Pd173  1  -0.00222796  0.80478400  0.39535172  1
  Pd  Pd174  1  0.58974960  0.79664768  0.60122289  1
  Pd  Pd175  1  0.77973864  0.00522154  0.61489336  1
  Pd  Pd176  1  0.59336023  0.59401917  0.79840730  1
  Pd  Pd177  1  -0.00310968  0.59473604  0.00070340  1
  Pd  Pd178  1  0.40410032  -0.00036444  0.60491931  1
  Pd  Pd179  1  0.59274114  0.00254148  0.21209752  1
  Pd  Pd180  1  0.19064907  0.80955009  0.20518648  1
  Pd  Pd181  1  0.19290460  0.40019599  0.19820176  1
  Pd  Pd182  1  0.79828338  0.39096018  0.78918689  1
  Pd  Pd183  1  -0.00781408  0.39484353  0.40827225  1
  Pd  Pd184  1  0.39677757  0.20241054  0.60307568  1
  Pd  Pd185  1  0.60393738  0.40243934  -0.00560551  1
  Pd  Pd186  1  0.80881347  0.20552114  0.80154263  1
  Pd  Pd187  1  -0.00840001  0.00647902  0.39730593  1
  Pd  Pd188  1  0.40190508  0.60517149  -0.00299743  1
  Pd  Pd189  1  0.81294715  0.39859071  0.59851806  1
  Pd  Pd190  1  0.59523997  0.79763907  0.20990352  1
  Pd  Pd191  1  0.20806952  0.20470049  0.00368620  1
  Pd  Pd192  1  0.00517333  0.79881503  0.79886987  1
  Pd  Pd193  1  0.59188497  0.40418847  0.40591447  1
  Pd  Pd194  1  0.19627297  0.19254477  0.40098839  1
  Pd  Pd195  1  0.00195976  0.20006210  0.59451185  1
  Pd  Pd196  1  0.60286667  0.39641968  0.21209195  1
  Pd  Pd197  1  0.19152569  0.58988880  0.20293799  1
  Pd  Pd198  1  0.19553194  0.00337969  0.59169407  1
  Pd  Pd199  1  0.80707901  -0.00444733  0.20696169  1
  Rh  Rh200  1  0.60627892  0.18824100  0.59167135  1
  Rh  Rh201  1  0.00169440  -0.00472086  -0.00858475  1
  Rh  Rh202  1  0.39863788  0.39230288  0.21122537  1
  Rh  Rh203  1  0.79710445  0.60185952  0.40390109  1
  Rh  Rh204  1  0.40082427  0.80654431  0.00643797  1
  Rh  Rh205  1  -0.00994123  0.20283354  0.00146644  1
  Rh  Rh206  1  0.00425951  0.40487942  0.19710436  1
  Rh  Rh207  1  0.80671703  0.39823066  0.00265935  1
  Rh  Rh208  1  0.19796947  0.79272376  0.79655989  1
  Rh  Rh209  1  0.20227751  0.60182432  0.81247851  1
  Rh  Rh210  1  0.60629504  0.00187144  0.40082447  1
  Rh  Rh211  1  0.21073610  0.40920028  0.40530219  1
  Rh  Rh212  1  0.60675352  0.60495393  0.40790352  1
  Rh  Rh213  1  0.38597470  0.59007998  0.38528585  1
  Rh  Rh214  1  0.39609735  0.80782039  0.40324737  1
  Rh  Rh215  1  0.01150470  0.40383443  0.78760779  1
  Rh  Rh216  1  0.39978780  0.00005432  0.39597968  1
  Rh  Rh217  1  0.20255765  -0.00063333  0.00081733  1
  Rh  Rh218  1  0.80249918  0.00105410  0.39990743  1
  Rh  Rh219  1  0.60829569  0.79378557  -0.00104517  1
  Rh  Rh220  1  0.19126231  0.00934390  0.79866373  1
  Rh  Rh221  1  0.79995538  0.40275752  0.20993745  1
  Rh  Rh222  1  0.19968964  0.19394334  0.59220643  1
  Rh  Rh223  1  0.60047308  0.80826523  0.79742678  1
  Rh  Rh224  1  0.79758891  0.19525008  0.19706718  1
  Rh  Rh225  1  0.59524455  0.60301555  0.19734354  1
  Rh  Rh226  1  0.20287008  0.59946908  -0.00035902  1
  Rh  Rh227  1  0.79387741  -0.00478018  -0.00135415  1
  Rh  Rh228  1  0.39988347  0.20560825  0.39733018  1
  Rh  Rh229  1  0.59005544  0.21445849  0.81161968  1
  Rh  Rh230  1  0.79852106  0.80462190  0.80040310  1
  Rh  Rh231  1  0.19580007  0.60527242  0.58772097  1
  Rh  Rh232  1  0.00072871  0.39762540  0.00054578  1
  Rh  Rh233  1  0.81315316  0.60375652  0.80471972  1
  Rh  Rh234  1  0.39139299  0.39497001  0.00564571  1
  Rh  Rh235  1  0.19745366  0.79911670  0.00407600  1
  Rh  Rh236  1  0.20374614  0.39280189  0.79880152  1
  Rh  Rh237  1  0.60669430  -0.00934404  0.79356151  1
  Rh  Rh238  1  0.80733693  0.80694947  0.19344059  1
  Rh  Rh239  1  0.00196081  0.01197743  0.60587573  1
  Rh  Rh240  1  0.41414925  0.60561031  0.61210339  1
  Rh  Rh241  1  0.79293462  0.19107965  0.60470352  1
  Rh  Rh242  1  0.60335184  0.80139588  0.39812627  1
  Rh  Rh243  1  0.79654437  0.60372208  0.59526620  1
  Rh  Rh244  1  0.39622261  0.79472528  0.79339891  1
  Rh  Rh245  1  0.80682823  0.59466666  0.19593039  1
  Rh  Rh246  1  -0.00346567  0.19414467  0.40012958  1
  Rh  Rh247  1  0.60022394  -0.00311130  -0.00256132  1
  Rh  Rh248  1  0.00213550  0.59405077  0.39052108  1
  Rh  Rh249  1  0.39969834  0.39754422  0.78885766  1
