# generated using pymatgen
data_ZrScNbPdRh
_symmetry_space_group_name_H-M   'P 1'
_cell_length_a   16.56085927
_cell_length_b   16.55859519
_cell_length_c   16.55888968
_cell_angle_alpha   90.00630623
_cell_angle_beta   90.04134055
_cell_angle_gamma   89.97648606
_symmetry_Int_Tables_number   1
_chemical_formula_structural   ZrScNbPdRh
_chemical_formula_sum   'Zr50 Sc50 Nb50 Pd50 Rh50'
_cell_volume   4540.85272344
_cell_formula_units_Z   50
loop_
 _symmetry_equiv_pos_site_id
 _symmetry_equiv_pos_as_xyz
  1  'x, y, z'
loop_
 _atom_site_type_symbol
 _atom_site_label
 _atom_site_symmetry_multiplicity
 _atom_site_fract_x
 _atom_site_fract_y
 _atom_site_fract_z
 _atom_site_occupancy
  Zr  Zr0  1  0.50840540  0.70714825  0.09730674  1
  Zr  Zr1  1  0.09972375  0.49046330  0.90221572  1
  Zr  Zr2  1  0.71152733  0.90185416  0.49269447  1
  Zr  Zr3  1  0.69558500  0.70085924  0.90434506  1
  Zr  Zr4  1  0.29962124  0.50030079  0.49546252  1
  Zr  Zr5  1  0.30087171  0.90079848  0.30237728  1
  Zr  Zr6  1  0.10193928  0.50534211  0.68413324  1
  Zr  Zr7  1  0.70137886  0.09760779  0.90015696  1
  Zr  Zr8  1  0.90474896  0.70635561  0.69200789  1
  Zr  Zr9  1  0.70746859  0.30110339  0.29945214  1
  Zr  Zr10  1  0.08556656  0.10369164  0.69752124  1
  Zr  Zr11  1  0.51056177  0.49888029  0.49164289  1
  Zr  Zr12  1  0.89327245  0.89941457  0.30240955  1
  Zr  Zr13  1  0.10333855  0.49450096  0.10427563  1
  Zr  Zr14  1  0.29751898  0.90643716  0.69916609  1
  Zr  Zr15  1  0.29718627  0.10734968  0.30388808  1
  Zr  Zr16  1  0.09241404  0.90263474  0.30216253  1
  Zr  Zr17  1  0.30034181  0.49575493  0.10622861  1
  Zr  Zr18  1  0.28916880  0.09462995  0.90699497  1
  Zr  Zr19  1  0.69634402  0.49522149  0.89928070  1
  Zr  Zr20  1  0.09714463  0.70122581  0.69290959  1
  Zr  Zr21  1  0.09277656  0.29502444  0.09882650  1
  Zr  Zr22  1  0.30332828  0.48790019  0.90098813  1
  Zr  Zr23  1  0.49731150  0.10096293  0.69692716  1
  Zr  Zr24  1  0.30146078  0.50772927  0.30160308  1
  Zr  Zr25  1  0.30283139  0.09583004  0.69390573  1
  Zr  Zr26  1  0.70512417  0.10648509  0.49513691  1
  Zr  Zr27  1  0.30189737  0.90671058  0.09677728  1
  Zr  Zr28  1  0.10006909  0.29703310  0.90240345  1
  Zr  Zr29  1  0.50562648  0.89620096  0.90621265  1
  Zr  Zr30  1  0.70041668  0.49811630  0.10034324  1
  Zr  Zr31  1  0.30395487  0.69909263  0.49466456  1
  Zr  Zr32  1  0.89482666  0.90958889  0.69008670  1
  Zr  Zr33  1  0.30596027  0.30143249  0.69944739  1
  Zr  Zr34  1  0.29943722  0.90393323  0.90060795  1
  Zr  Zr35  1  0.90445276  0.50204809  0.49332845  1
  Zr  Zr36  1  0.09381305  0.49650974  0.29938973  1
  Zr  Zr37  1  0.50680444  0.69942328  0.90061532  1
  Zr  Zr38  1  0.50141628  0.11129495  0.50045087  1
  Zr  Zr39  1  0.70854270  0.30307381  0.69714840  1
  Zr  Zr40  1  0.89681581  0.29659452  0.10243233  1
  Zr  Zr41  1  0.89952955  0.49341804  0.90059257  1
  Zr  Zr42  1  0.90896774  0.30117807  0.89749831  1
  Zr  Zr43  1  0.10435620  0.50098633  0.49400555  1
  Zr  Zr44  1  0.90261647  0.29896236  0.29833073  1
  Zr  Zr45  1  0.50312809  0.10678273  0.30349277  1
  Zr  Zr46  1  0.30401337  0.90131291  0.51269854  1
  Zr  Zr47  1  0.50171727  0.49962629  0.70359640  1
  Zr  Zr48  1  0.69952573  0.29780253  0.09812815  1
  Zr  Zr49  1  0.90561653  0.29266964  0.69907879  1
  Sc  Sc50  1  0.29785910  0.09704119  0.50125496  1
  Sc  Sc51  1  0.30278120  0.70327708  0.69206581  1
  Sc  Sc52  1  0.49996889  0.30401158  0.89695767  1
  Sc  Sc53  1  0.51168945  0.09604594  0.89792939  1
  Sc  Sc54  1  0.30902721  0.69372922  0.90591707  1
  Sc  Sc55  1  0.69692670  0.69568248  0.48946389  1
  Sc  Sc56  1  0.70344463  0.09773695  0.09278310  1
  Sc  Sc57  1  0.89187646  0.70455006  0.90637937  1
  Sc  Sc58  1  0.49449027  0.70897325  0.30306885  1
  Sc  Sc59  1  0.89720554  0.90256504  0.10579952  1
  Sc  Sc60  1  0.90193896  0.71300046  0.49626868  1
  Sc  Sc61  1  0.70245648  0.49721283  0.31033107  1
  Sc  Sc62  1  0.90379393  0.10120104  0.09661662  1
  Sc  Sc63  1  0.49660989  0.48980748  0.30146485  1
  Sc  Sc64  1  0.30291468  0.30426347  0.49753993  1
  Sc  Sc65  1  0.49696551  0.29435246  0.69236059  1
  Sc  Sc66  1  0.09601714  0.91192224  0.89957489  1
  Sc  Sc67  1  0.90236147  0.90642782  0.89838342  1
  Sc  Sc68  1  0.89976059  0.49562061  0.29919933  1
  Sc  Sc69  1  0.09204689  0.90108420  0.69745756  1
  Sc  Sc70  1  0.09310421  0.09843053  0.90870116  1
  Sc  Sc71  1  0.69481221  0.49236509  0.69812124  1
  Sc  Sc72  1  0.49830768  0.49701331  0.90003851  1
  Sc  Sc73  1  0.29869403  0.29803816  0.10576515  1
  Sc  Sc74  1  0.09401642  0.30074474  0.70347108  1
  Sc  Sc75  1  0.50983669  0.89978797  0.10022967  1
  Sc  Sc76  1  0.30636984  0.68877338  0.10693351  1
  Sc  Sc77  1  0.09694841  0.29501471  0.30668109  1
  Sc  Sc78  1  0.09236158  0.91276293  0.10844317  1
  Sc  Sc79  1  0.50068315  0.69830427  0.70759820  1
  Sc  Sc80  1  0.31096565  0.29776564  0.29992668  1
  Sc  Sc81  1  0.69133783  0.69723811  0.70015735  1
  Sc  Sc82  1  0.50595586  0.09885991  0.09736494  1
  Sc  Sc83  1  0.09989208  0.70146518  0.89970792  1
  Sc  Sc84  1  0.70260081  0.71056005  0.29635207  1
  Sc  Sc85  1  0.29353713  0.10498843  0.10517464  1
  Sc  Sc86  1  0.48856052  0.90090177  0.70447792  1
  Sc  Sc87  1  0.10811092  0.68828008  0.10734946  1
  Sc  Sc88  1  0.89768535  0.50002478  0.10726900  1
  Sc  Sc89  1  0.89690477  0.48751279  0.70021730  1
  Sc  Sc90  1  0.49653498  0.48952500  0.09773825  1
  Sc  Sc91  1  0.70275747  0.70422586  0.09592922  1
  Sc  Sc92  1  0.89288831  0.28532119  0.49824568  1
  Sc  Sc93  1  0.90147341  0.09426596  0.90169089  1
  Sc  Sc94  1  0.49509815  0.30407814  0.10598877  1
  Sc  Sc95  1  0.70022964  0.09203293  0.70544804  1
  Sc  Sc96  1  0.09190224  0.69865404  0.30272131  1
  Sc  Sc97  1  0.88562551  0.70108165  0.10333918  1
  Sc  Sc98  1  0.30031488  0.49328989  0.69284579  1
  Sc  Sc99  1  0.89911338  0.70748397  0.30008473  1
  Nb  Nb100  1  0.70045732  0.90302278  0.69753868  1
  Nb  Nb101  1  0.69717547  0.90068450  0.11167320  1
  Nb  Nb102  1  0.70431643  0.29412411  0.90205792  1
  Nb  Nb103  1  0.49811231  0.29385749  0.30540059  1
  Nb  Nb104  1  0.50050454  0.89512798  0.49838770  1
  Nb  Nb105  1  0.10146688  0.10682805  0.49463259  1
  Nb  Nb106  1  0.10171877  0.10368231  0.10085317  1
  Nb  Nb107  1  0.69918553  0.09339423  0.30096288  1
  Nb  Nb108  1  0.50882728  0.90530703  0.29735836  1
  Nb  Nb109  1  0.89554827  0.10781831  0.31500144  1
  Nb  Nb110  1  0.69448267  0.91072956  0.29198401  1
  Nb  Nb111  1  0.30021486  0.29579102  0.89728774  1
  Nb  Nb112  1  0.10176350  0.90135318  0.49888005  1
  Nb  Nb113  1  0.50410327  0.29595830  0.48637481  1
  Nb  Nb114  1  0.89884770  0.09805691  0.50623382  1
  Nb  Nb115  1  0.10033661  0.09934023  0.30744453  1
  Nb  Nb116  1  0.10115972  0.30027639  0.49725769  1
  Nb  Nb117  1  0.09774572  0.69958229  0.50814838  1
  Nb  Nb118  1  0.89740063  0.10603760  0.69347483  1
  Nb  Nb119  1  0.70076029  0.49878896  0.50078786  1
  Nb  Nb120  1  0.49902883  0.70286856  0.50048210  1
  Nb  Nb121  1  0.69180917  0.30415562  0.50049470  1
  Nb  Nb122  1  0.29816762  0.70284110  0.30046999  1
  Nb  Nb123  1  0.90031384  0.90481220  0.49612644  1
  Nb  Nb124  1  0.69911765  0.90864058  0.89065087  1
  Nb  Nb125  1  0.79712527  0.59589343  0.59703379  1
  Nb  Nb126  1  -0.00152689  0.59914386  0.80093878  1
  Nb  Nb127  1  0.00473770  0.79612240  0.00492764  1
  Nb  Nb128  1  0.40853380  0.59971285  0.59056472  1
  Nb  Nb129  1  0.60370190  0.19984849  0.20671308  1
  Nb  Nb130  1  0.40818824  -0.00373670  0.39850507  1
  Nb  Nb131  1  0.60008315  -0.00733062  0.59647847  1
  Nb  Nb132  1  0.19716369  0.80309836  0.00398301  1
  Nb  Nb133  1  0.59770857  0.80575388  0.59514795  1
  Nb  Nb134  1  0.19986798  0.79920351  0.80351298  1
  Nb  Nb135  1  0.39528680  0.20056941  -0.00513936  1
  Nb  Nb136  1  0.19794360  0.79889284  0.40306094  1
  Nb  Nb137  1  0.59936309  0.59949750  0.19978816  1
  Nb  Nb138  1  0.19472741  0.20130335  0.60018221  1
  Nb  Nb139  1  -0.00145909  0.00636968  0.40547498  1
  Nb  Nb140  1  0.40604271  0.00076919  0.20777709  1
  Nb  Nb141  1  0.19663398  0.60068459  0.79838748  1
  Nb  Nb142  1  0.79743905  0.39425040  -0.00096510  1
  Nb  Nb143  1  0.79425761  0.80424594  0.79589025  1
  Nb  Nb144  1  0.00224533  0.39630670  0.58993439  1
  Nb  Nb145  1  -0.00109930  0.60051204  -0.00140290  1
  Nb  Nb146  1  0.80332083  0.19979507  0.80032519  1
  Nb  Nb147  1  0.80195797  0.60337271  0.79602564  1
  Nb  Nb148  1  0.20134304  0.19815335  0.79863117  1
  Nb  Nb149  1  0.20346437  0.80004531  0.20436426  1
  Pd  Pd150  1  0.19642408  0.39961934  0.79137117  1
  Pd  Pd151  1  0.41255353  0.59922830  0.20437660  1
  Pd  Pd152  1  0.60482283  0.80100817  0.39839306  1
  Pd  Pd153  1  -0.00284830  0.79904983  0.80929294  1
  Pd  Pd154  1  0.00267204  0.19197754  0.20512353  1
  Pd  Pd155  1  0.59412851  0.39494407  0.59876384  1
  Pd  Pd156  1  0.39218170  0.79688354  0.80126475  1
  Pd  Pd157  1  0.19696888  0.80168177  0.60036705  1
  Pd  Pd158  1  0.20211849  -0.00425161  0.40541819  1
  Pd  Pd159  1  0.39444451  0.79643022  0.00573252  1
  Pd  Pd160  1  0.80727316  0.40170939  0.58953769  1
  Pd  Pd161  1  0.60686613  0.20441772  0.79362536  1
  Pd  Pd162  1  0.59683968  0.00023842  0.40880055  1
  Pd  Pd163  1  0.41091085  0.40306540  0.59118126  1
  Pd  Pd164  1  0.20326209  0.00038167  0.20022527  1
  Pd  Pd165  1  0.39978597  0.80613614  0.19551107  1
  Pd  Pd166  1  0.39693682  0.19261602  0.80785955  1
  Pd  Pd167  1  0.79895647  -0.00696448  0.00272817  1
  Pd  Pd168  1  -0.00483062  0.60794627  0.39865265  1
  Pd  Pd169  1  0.59373395  0.59241697  0.00676050  1
  Pd  Pd170  1  0.39812580  0.80632264  0.39870116  1
  Pd  Pd171  1  0.20485617  0.39400822  0.39099799  1
  Pd  Pd172  1  0.00477830  0.79249951  0.19022877  1
  Pd  Pd173  1  0.19291880  0.20434677  0.20607137  1
  Pd  Pd174  1  0.79172394  0.59844003  0.20944839  1
  Pd  Pd175  1  0.78927917  0.79017797  0.60036735  1
  Pd  Pd176  1  0.39074182  0.59703582  0.79133766  1
  Pd  Pd177  1  0.18828433  0.00224551  0.79298828  1
  Pd  Pd178  1  0.60261554  0.80562672  0.79320076  1
  Pd  Pd179  1  0.60087926  0.60563648  0.59869593  1
  Pd  Pd180  1  0.59957331  0.39924201  0.20705821  1
  Pd  Pd181  1  0.19794077  0.60327742  -0.00665251  1
  Pd  Pd182  1  -0.00681071  0.60487641  0.19529671  1
  Pd  Pd183  1  0.19323974  0.60851087  0.39596440  1
  Pd  Pd184  1  0.80024982  0.81459787  -0.00450301  1
  Pd  Pd185  1  0.20583240  0.39034666  0.00551182  1
  Pd  Pd186  1  0.00396015  -0.00149177  0.59209216  1
  Pd  Pd187  1  0.80647211  0.00880225  0.20014954  1
  Pd  Pd188  1  0.59582433  0.60413363  0.38624804  1
  Pd  Pd189  1  -0.00996603  0.01453251  0.21001951  1
  Pd  Pd190  1  0.80320829  0.39417357  0.40707631  1
  Pd  Pd191  1  0.80462781  0.60573813  0.40018374  1
  Pd  Pd192  1  0.59624645  0.39120391  0.79865536  1
  Pd  Pd193  1  0.40555528  0.00478734  0.80876537  1
  Pd  Pd194  1  0.79560205  0.18742768  0.20052859  1
  Pd  Pd195  1  0.40696643  0.59444114  0.00364801  1
  Pd  Pd196  1  0.20061438  0.39048951  0.21012416  1
  Pd  Pd197  1  0.40496442  0.00945009  0.00501409  1
  Pd  Pd198  1  0.58900325  0.20682640  0.00515077  1
  Pd  Pd199  1  0.60834043  0.19548028  0.60674916  1
  Rh  Rh200  1  0.40741077  0.59988201  0.40056105  1
  Rh  Rh201  1  0.61370855  0.81082256  0.00194042  1
  Rh  Rh202  1  0.39486470  0.39026623  -0.00038722  1
  Rh  Rh203  1  0.00023880  0.81077710  0.59096286  1
  Rh  Rh204  1  0.60374214  0.39398412  -0.00251646  1
  Rh  Rh205  1  -0.00181673  0.19095611  0.80915259  1
  Rh  Rh206  1  0.00566893  0.80598183  0.40826166  1
  Rh  Rh207  1  0.60866406  -0.00610930  0.00172952  1
  Rh  Rh208  1  -0.00577453  0.39012676  0.40427707  1
  Rh  Rh209  1  0.61122410  0.20809449  0.39283543  1
  Rh  Rh210  1  0.20244122  0.20287813  -0.00287190  1
  Rh  Rh211  1  0.01048181  0.41074501  0.78589494  1
  Rh  Rh212  1  -0.00653232  0.00424295  0.79583455  1
  Rh  Rh213  1  0.80574339  0.00212128  0.39780173  1
  Rh  Rh214  1  0.19257270  0.38953035  0.59890935  1
  Rh  Rh215  1  0.79630568  0.80445299  0.39381383  1
  Rh  Rh216  1  0.79161906  0.19513332  0.60448007  1
  Rh  Rh217  1  0.18923253  0.00915362  0.60231451  1
  Rh  Rh218  1  0.21533131  0.60275335  0.59979970  1
  Rh  Rh219  1  0.60344189  0.39502345  0.39685612  1
  Rh  Rh220  1  0.79549384  0.80639985  0.20175665  1
  Rh  Rh221  1  -0.00179149  0.19522307  0.00106177  1
  Rh  Rh222  1  0.00077828  0.39636940  0.20206779  1
  Rh  Rh223  1  0.39194693  0.19719704  0.40790642  1
  Rh  Rh224  1  0.40430262  0.39935625  0.79884339  1
  Rh  Rh225  1  0.41303141  0.00239057  0.59025086  1
  Rh  Rh226  1  -0.00176199  0.19653086  0.40372266  1
  Rh  Rh227  1  0.40195528  0.39854705  0.40001101  1
  Rh  Rh228  1  0.80655870  0.00248774  0.79569859  1
  Rh  Rh229  1  0.80092530  0.40433458  0.19642499  1
  Rh  Rh230  1  0.19939494  0.60290281  0.21204457  1
  Rh  Rh231  1  0.79503296  0.39446159  0.80831787  1
  Rh  Rh232  1  0.00003984  -0.00441459  0.00638647  1
  Rh  Rh233  1  0.79384633  0.00815193  0.59742908  1
  Rh  Rh234  1  0.00459359  0.20601208  0.58790195  1
  Rh  Rh235  1  0.41099466  0.79206922  0.60623962  1
  Rh  Rh236  1  0.60278178  0.79574956  0.20199375  1
  Rh  Rh237  1  -0.01389471  0.59221890  0.60093876  1
  Rh  Rh238  1  0.80486704  0.58922789  -0.00709538  1
  Rh  Rh239  1  0.79372834  0.20304464  0.40018021  1
  Rh  Rh240  1  0.80926181  0.20317872  -0.00952038  1
  Rh  Rh241  1  0.60528699  0.59547839  0.80285172  1
  Rh  Rh242  1  0.39661603  0.39941478  0.20538221  1
  Rh  Rh243  1  0.20402718  0.20505327  0.40463105  1
  Rh  Rh244  1  0.59308232  -0.00569754  0.79304384  1
  Rh  Rh245  1  0.19033496  -0.00345323  0.01075368  1
  Rh  Rh246  1  0.41050683  0.19349962  0.18982753  1
  Rh  Rh247  1  0.39208333  0.20475092  0.59149417  1
  Rh  Rh248  1  0.59920678  0.00874990  0.19584439  1
  Rh  Rh249  1  -0.00748565  0.40607762  0.01557481  1
