# generated using pymatgen
data_ZrScNbPdRh
_symmetry_space_group_name_H-M   'P 1'
_cell_length_a   16.56197131
_cell_length_b   16.56772537
_cell_length_c   16.55968467
_cell_angle_alpha   89.96447712
_cell_angle_beta   89.99171468
_cell_angle_gamma   90.03089910
_symmetry_Int_Tables_number   1
_chemical_formula_structural   ZrScNbPdRh
_chemical_formula_sum   'Zr50 Sc50 Nb50 Pd50 Rh50'
_cell_volume   4543.87971775
_cell_formula_units_Z   50
loop_
 _symmetry_equiv_pos_site_id
 _symmetry_equiv_pos_as_xyz
  1  'x, y, z'
loop_
 _atom_site_type_symbol
 _atom_site_label
 _atom_site_symmetry_multiplicity
 _atom_site_fract_x
 _atom_site_fract_y
 _atom_site_fract_z
 _atom_site_occupancy
  Zr  Zr0  1  0.30350850  0.49644117  0.90586536  1
  Zr  Zr1  1  0.30902180  0.49762861  0.29988473  1
  Zr  Zr2  1  0.50311534  0.69689786  0.70903782  1
  Zr  Zr3  1  0.10519629  0.49626635  0.89613456  1
  Zr  Zr4  1  0.50449728  0.49758112  0.30035473  1
  Zr  Zr5  1  0.70047158  0.50473803  0.29863941  1
  Zr  Zr6  1  0.50137646  0.09823918  0.49721462  1
  Zr  Zr7  1  0.90494249  0.50383164  0.69275337  1
  Zr  Zr8  1  0.09415702  0.71272337  0.29816998  1
  Zr  Zr9  1  0.50095421  0.89927501  0.09680762  1
  Zr  Zr10  1  0.70473676  0.10327438  0.49690960  1
  Zr  Zr11  1  0.10312702  0.49608879  0.50721149  1
  Zr  Zr12  1  0.90186992  0.71319629  0.90166156  1
  Zr  Zr13  1  0.89236257  0.08695978  0.09595988  1
  Zr  Zr14  1  0.70576736  0.51069767  0.10386580  1
  Zr  Zr15  1  0.69409837  0.10086335  0.69483643  1
  Zr  Zr16  1  0.51019420  0.89827788  0.69209141  1
  Zr  Zr17  1  0.49753907  0.29073249  0.10174489  1
  Zr  Zr18  1  0.10554454  0.09636909  0.89522558  1
  Zr  Zr19  1  0.48678117  0.09324603  0.91168330  1
  Zr  Zr20  1  0.29137104  0.08991704  0.71138674  1
  Zr  Zr21  1  0.89953984  0.29708538  0.89131693  1
  Zr  Zr22  1  0.89842868  0.69811254  0.69900014  1
  Zr  Zr23  1  0.50007669  0.69389225  0.90288452  1
  Zr  Zr24  1  0.29265468  0.50118976  0.69850747  1
  Zr  Zr25  1  0.29733532  0.49981770  0.49874612  1
  Zr  Zr26  1  0.49579487  0.90493294  0.48325094  1
  Zr  Zr27  1  0.08540459  0.90113065  0.90639702  1
  Zr  Zr28  1  0.49832529  0.49147611  0.49476647  1
  Zr  Zr29  1  0.10460732  0.90449609  0.70183728  1
  Zr  Zr30  1  0.10347347  0.30858409  0.89851475  1
  Zr  Zr31  1  0.91019629  0.30443411  0.10800501  1
  Zr  Zr32  1  0.69894679  0.29879549  0.89433953  1
  Zr  Zr33  1  0.89497123  0.10192137  0.70537492  1
  Zr  Zr34  1  0.30212179  0.69523194  0.09625787  1
  Zr  Zr35  1  0.89664378  0.91213754  0.91221741  1
  Zr  Zr36  1  0.69063058  0.90680670  0.50266675  1
  Zr  Zr37  1  0.70412794  0.89757856  0.30182322  1
  Zr  Zr38  1  0.49809571  0.49199109  0.70382491  1
  Zr  Zr39  1  0.49844473  0.49945657  0.10012475  1
  Zr  Zr40  1  0.10652934  0.70626740  0.70055269  1
  Zr  Zr41  1  0.29192357  0.70124302  0.49953874  1
  Zr  Zr42  1  0.50331428  0.89955726  0.89754310  1
  Zr  Zr43  1  0.09647309  0.49069489  0.10174013  1
  Zr  Zr44  1  0.09578804  0.89807261  0.49689652  1
  Zr  Zr45  1  0.10062150  0.48787576  0.70093019  1
  Zr  Zr46  1  0.90479395  0.89543022  0.71657443  1
  Zr  Zr47  1  0.30068182  0.89308846  0.49923388  1
  Zr  Zr48  1  0.30177708  0.69120497  0.89716351  1
  Zr  Zr49  1  0.30374819  0.89603230  0.30741319  1
  Sc  Sc50  1  0.70787156  0.69504064  0.49500657  1
  Sc  Sc51  1  0.30180650  0.30580681  0.10238068  1
  Sc  Sc52  1  0.30272710  0.29829530  0.69985681  1
  Sc  Sc53  1  0.90237679  0.10006424  0.49743404  1
  Sc  Sc54  1  0.49985781  0.50496912  0.89467529  1
  Sc  Sc55  1  0.30431815  0.29924628  0.29595988  1
  Sc  Sc56  1  0.90093558  0.90346878  0.49201787  1
  Sc  Sc57  1  0.30678239  0.91285692  0.89654860  1
  Sc  Sc58  1  0.09448077  0.50353517  0.30326224  1
  Sc  Sc59  1  0.10504231  0.70162467  0.90355038  1
  Sc  Sc60  1  0.30291184  0.29279002  0.49979397  1
  Sc  Sc61  1  0.29911917  0.29589386  0.90812458  1
  Sc  Sc62  1  0.49525130  0.70887733  0.49336857  1
  Sc  Sc63  1  0.91043092  0.51003168  0.49387912  1
  Sc  Sc64  1  0.69169897  0.69637677  0.90496202  1
  Sc  Sc65  1  0.09813118  0.29467936  0.50633701  1
  Sc  Sc66  1  0.50084115  0.30303048  0.30178203  1
  Sc  Sc67  1  0.49048686  0.09973973  0.70187980  1
  Sc  Sc68  1  0.69982464  0.69938377  0.10153305  1
  Sc  Sc69  1  0.70049084  0.09462536  0.89884638  1
  Sc  Sc70  1  0.70856355  0.10731307  0.30023130  1
  Sc  Sc71  1  0.50532078  0.70710781  0.29145964  1
  Sc  Sc72  1  0.69596112  0.29772419  0.69300456  1
  Sc  Sc73  1  0.10747460  0.71445536  0.10235659  1
  Sc  Sc74  1  0.90795409  0.29561557  0.49587191  1
  Sc  Sc75  1  0.69804160  0.50606648  0.49470287  1
  Sc  Sc76  1  0.50586439  0.70218413  0.09699666  1
  Sc  Sc77  1  0.49129513  0.30539858  0.90180785  1
  Sc  Sc78  1  0.90523083  0.29468017  0.30179752  1
  Sc  Sc79  1  0.50025325  0.29978740  0.50505338  1
  Sc  Sc80  1  0.09433491  0.28874627  0.29611728  1
  Sc  Sc81  1  0.89594241  0.70537623  0.30615591  1
  Sc  Sc82  1  0.69790953  0.29790122  0.30285583  1
  Sc  Sc83  1  0.68922800  0.49847971  0.69796140  1
  Sc  Sc84  1  0.71216510  0.90288195  0.09788441  1
  Sc  Sc85  1  0.29546076  0.69825759  0.29866480  1
  Sc  Sc86  1  0.30642839  0.11448598  0.10069389  1
  Sc  Sc87  1  0.09720355  0.69750923  0.49329207  1
  Sc  Sc88  1  0.90287772  0.29755688  0.69343792  1
  Sc  Sc89  1  0.30033317  0.49677317  0.10529755  1
  Sc  Sc90  1  0.90054120  0.69547352  0.50045745  1
  Sc  Sc91  1  0.10416504  0.30060699  0.10476115  1
  Sc  Sc92  1  0.90994998  0.50032501  0.89694193  1
  Sc  Sc93  1  0.68999550  0.29735433  0.49984236  1
  Sc  Sc94  1  0.70069912  0.69815321  0.29572490  1
  Sc  Sc95  1  0.09989837  0.10975827  0.10839891  1
  Sc  Sc96  1  0.30137171  0.89105231  0.09923424  1
  Sc  Sc97  1  0.30150755  0.11168895  0.30365639  1
  Sc  Sc98  1  0.69456053  0.29126202  0.10868326  1
  Sc  Sc99  1  0.89906708  0.10368867  0.30631288  1
  Nb  Nb100  1  0.89663184  0.49941818  0.29260275  1
  Nb  Nb101  1  0.10018462  0.90137475  0.10438733  1
  Nb  Nb102  1  0.89736175  0.50185469  0.10639189  1
  Nb  Nb103  1  0.30063526  0.09628503  0.50108306  1
  Nb  Nb104  1  0.69923428  0.49733024  0.90033902  1
  Nb  Nb105  1  0.29992151  0.09644104  0.90195591  1
  Nb  Nb106  1  0.69751608  0.69946670  0.69886826  1
  Nb  Nb107  1  0.49594261  0.09609021  0.29681715  1
  Nb  Nb108  1  0.50552887  0.10004087  0.10311534  1
  Nb  Nb109  1  0.29904848  0.89325793  0.69764914  1
  Nb  Nb110  1  0.50785690  0.30228143  0.69938532  1
  Nb  Nb111  1  0.69365121  0.10271239  0.10124776  1
  Nb  Nb112  1  0.90880725  0.89601083  0.09721226  1
  Nb  Nb113  1  0.10135337  0.30095087  0.69989367  1
  Nb  Nb114  1  0.10111614  0.09916755  0.29910684  1
  Nb  Nb115  1  0.29920230  0.70626616  0.69636472  1
  Nb  Nb116  1  0.69728086  0.89949992  0.88889154  1
  Nb  Nb117  1  0.50191003  0.90508740  0.29778632  1
  Nb  Nb118  1  0.90385182  0.09947756  0.89973206  1
  Nb  Nb119  1  0.10174435  0.10018316  0.69606000  1
  Nb  Nb120  1  0.90555151  0.89899740  0.29660176  1
  Nb  Nb121  1  0.69530425  0.89762497  0.70241245  1
  Nb  Nb122  1  0.89679885  0.70009826  0.09788835  1
  Nb  Nb123  1  0.09918617  0.89799402  0.29666590  1
  Nb  Nb124  1  0.10541089  0.09769991  0.50110093  1
  Nb  Nb125  1  0.39934386  0.60254067  0.60231139  1
  Nb  Nb126  1  0.79503995  0.80550219  0.60742934  1
  Nb  Nb127  1  0.39797730  0.80008684  0.79423303  1
  Nb  Nb128  1  0.59131506  0.60191651  0.60012882  1
  Nb  Nb129  1  0.79662821  -0.00827060  0.60670306  1
  Nb  Nb130  1  0.19528280  0.00473232  0.39875027  1
  Nb  Nb131  1  -0.00417175  0.19687969  -0.00611900  1
  Nb  Nb132  1  0.40369933  0.00173427  0.20244447  1
  Nb  Nb133  1  0.80312718  0.19941304  0.00071868  1
  Nb  Nb134  1  0.79876374  0.40523251  0.79696240  1
  Nb  Nb135  1  0.00228507  -0.00693687  0.20228818  1
  Nb  Nb136  1  0.59843134  0.00422129  0.19943629  1
  Nb  Nb137  1  0.19953554  0.39912644  0.40169077  1
  Nb  Nb138  1  0.00843527  0.19600924  0.79755373  1
  Nb  Nb139  1  -0.00314502  0.60092465  0.01023467  1
  Nb  Nb140  1  0.19913797  0.00338824  0.00658983  1
  Nb  Nb141  1  0.79941045  0.39999584  0.00094449  1
  Nb  Nb142  1  0.80165591  0.40546579  0.59475097  1
  Nb  Nb143  1  0.19995654  -0.00137037  0.20354369  1
  Nb  Nb144  1  0.39279530  -0.00401996  0.59686072  1
  Nb  Nb145  1  0.80339104  0.40427698  0.39974868  1
  Nb  Nb146  1  -0.00850259  0.60293777  0.19356720  1
  Nb  Nb147  1  0.79639175  0.59745801  0.79992791  1
  Nb  Nb148  1  0.60699409  0.40270047  0.00011379  1
  Nb  Nb149  1  0.59188315  0.20114263  0.80043025  1
  Pd  Pd150  1  0.79129742  0.80336410  -0.00315841  1
  Pd  Pd151  1  0.40568917  0.79979615  0.60223745  1
  Pd  Pd152  1  0.19547362  0.20301313  0.39958520  1
  Pd  Pd153  1  0.60273679  0.39877731  0.19536714  1
  Pd  Pd154  1  0.40171178  0.20345962  0.80228964  1
  Pd  Pd155  1  -0.00588931  0.79967695  0.59573266  1
  Pd  Pd156  1  0.80164608  0.20484319  0.59262231  1
  Pd  Pd157  1  0.79523182  0.00128724  0.79938747  1
  Pd  Pd158  1  0.20435392  0.20049318  0.60362667  1
  Pd  Pd159  1  -0.00888035  0.00141124  0.60426284  1
  Pd  Pd160  1  0.39579325  0.79963670  -0.01048123  1
  Pd  Pd161  1  0.40397702  0.60715175  0.40066420  1
  Pd  Pd162  1  0.40639398  0.60489247  0.19880765  1
  Pd  Pd163  1  0.19498328  0.59625661  0.39243986  1
  Pd  Pd164  1  0.39556159  0.40087288  0.59990356  1
  Pd  Pd165  1  0.20361390  -0.00409525  0.59414737  1
  Pd  Pd166  1  0.59513114  0.60752845  0.40326326  1
  Pd  Pd167  1  0.19519937  0.39555665  0.21214588  1
  Pd  Pd168  1  0.19598596  0.19828883  0.00468237  1
  Pd  Pd169  1  0.19231455  0.59484158  0.00806452  1
  Pd  Pd170  1  -0.00485956  0.40051332  -0.00069789  1
  Pd  Pd171  1  0.39968813  0.80003221  0.20175324  1
  Pd  Pd172  1  0.40565990  0.20331582  0.39982473  1
  Pd  Pd173  1  0.59259747  0.01032252  0.80007117  1
  Pd  Pd174  1  0.00097512  0.60799000  0.80669756  1
  Pd  Pd175  1  0.60150022  0.20432435  -0.00807256  1
  Pd  Pd176  1  0.20529856  0.80847803  0.81260575  1
  Pd  Pd177  1  0.60892556  0.00885409  0.38825655  1
  Pd  Pd178  1  0.60966147  0.80444682  0.00181675  1
  Pd  Pd179  1  0.79599592  0.39048974  0.20264625  1
  Pd  Pd180  1  0.80530004  0.20150591  0.19682256  1
  Pd  Pd181  1  0.19973922  0.20552993  0.79879428  1
  Pd  Pd182  1  0.39818479  0.19235161  0.60442940  1
  Pd  Pd183  1  0.79012291  0.79262310  0.80210526  1
  Pd  Pd184  1  0.60446593  0.78949204  0.58990689  1
  Pd  Pd185  1  0.80298407  0.79791580  0.19850225  1
  Pd  Pd186  1  0.01273946  0.60499885  0.60118519  1
  Pd  Pd187  1  0.20618567  0.81122579  -0.00912418  1
  Pd  Pd188  1  0.80771318  0.59505290  -0.01039983  1
  Pd  Pd189  1  0.39396590  0.39546078  0.80167370  1
  Pd  Pd190  1  0.00154349  0.19418460  0.60233513  1
  Pd  Pd191  1  0.80104937  0.80322800  0.40816440  1
  Pd  Pd192  1  0.59429810  0.19924884  0.39434621  1
  Pd  Pd193  1  0.80083119  -0.00120238  0.20583944  1
  Pd  Pd194  1  0.00163549  0.39765355  0.39661185  1
  Pd  Pd195  1  0.00254750  0.00484312  0.39346947  1
  Pd  Pd196  1  0.19839803  0.59936200  0.79661840  1
  Pd  Pd197  1  0.60375962  0.79409401  0.39709887  1
  Pd  Pd198  1  0.19004946  0.60195248  0.20007719  1
  Pd  Pd199  1  0.60915001  -0.00507752  0.00352424  1
  Rh  Rh200  1  0.59702096  0.59185932  0.00323810  1
  Rh  Rh201  1  0.59910522  0.79670919  0.80746724  1
  Rh  Rh202  1  0.20426875  0.19968388  0.20219863  1
  Rh  Rh203  1  0.40429762  -0.01151943  0.78785285  1
  Rh  Rh204  1  0.60762504  0.39924121  0.39952798  1
  Rh  Rh205  1  0.59679795  0.19276222  0.20969875  1
  Rh  Rh206  1  0.20551799  0.40202725  0.00333605  1
  Rh  Rh207  1  0.20896427  0.39449973  0.80060054  1
  Rh  Rh208  1  0.19545960  0.80296022  0.40011758  1
  Rh  Rh209  1  0.19104376  0.79982152  0.59360703  1
  Rh  Rh210  1  0.40565202  0.40173697  0.00292337  1
  Rh  Rh211  1  0.79602197  0.20215608  0.80091292  1
  Rh  Rh212  1  0.39942538  0.20045039  0.00014408  1
  Rh  Rh213  1  0.80187107  0.21160989  0.40488073  1
  Rh  Rh214  1  0.80054013  -0.00156054  0.40221630  1
  Rh  Rh215  1  0.40120554  0.59661785  0.00579295  1
  Rh  Rh216  1  0.80607455  0.59397607  0.39326125  1
  Rh  Rh217  1  0.59661908  0.00630047  0.59855816  1
  Rh  Rh218  1  0.40367621  0.19928304  0.20197269  1
  Rh  Rh219  1  -0.00473802  0.39164624  0.78934770  1
  Rh  Rh220  1  0.60874286  0.59969202  0.79761684  1
  Rh  Rh221  1  0.01168094  0.00997978  0.01361232  1
  Rh  Rh222  1  0.00769582  0.79613672  0.80293291  1
  Rh  Rh223  1  0.00471238  0.00738974  0.79232174  1
  Rh  Rh224  1  0.00683394  0.19215796  0.40415970  1
  Rh  Rh225  1  0.38947606  0.00602596  0.39816506  1
  Rh  Rh226  1  -0.00852014  0.79878749  0.19577970  1
  Rh  Rh227  1  -0.00498378  0.39848899  0.59941109  1
  Rh  Rh228  1  0.80549820  0.61065163  0.20540974  1
  Rh  Rh229  1  0.38742630  0.00438054  0.01646362  1
  Rh  Rh230  1  0.60615522  0.81075733  0.19706368  1
  Rh  Rh231  1  0.20933008  0.80333286  0.20191960  1
  Rh  Rh232  1  -0.00232721  0.60414306  0.38883189  1
  Rh  Rh233  1  -0.00811144  0.18814125  0.19493758  1
  Rh  Rh234  1  0.00389113  0.40516311  0.20980357  1
  Rh  Rh235  1  0.78865377  0.60096854  0.60681011  1
  Rh  Rh236  1  0.40502943  0.39707226  0.20080561  1
  Rh  Rh237  1  0.40171247  0.79199691  0.38962935  1
  Rh  Rh238  1  0.39053427  0.60310193  0.79167024  1
  Rh  Rh239  1  -0.00451613  0.79922095  0.40307876  1
  Rh  Rh240  1  0.19937329  0.60596855  0.60337819  1
  Rh  Rh241  1  0.39317941  0.39246290  0.40065405  1
  Rh  Rh242  1  0.59789571  0.60332555  0.19838811  1
  Rh  Rh243  1  0.59990454  0.39240160  0.80492967  1
  Rh  Rh244  1  0.19632803  -0.00855617  0.80658403  1
  Rh  Rh245  1  0.00201774  0.79334565  0.00754768  1
  Rh  Rh246  1  0.58912871  0.19595939  0.60506005  1
  Rh  Rh247  1  0.20195654  0.38728027  0.59339059  1
  Rh  Rh248  1  0.78978405  0.00314205  -0.00444681  1
  Rh  Rh249  1  0.60485664  0.40607398  0.59342342  1
