# generated using pymatgen
data_ZrScNbPdRh
_symmetry_space_group_name_H-M   'P 1'
_cell_length_a   16.55724784
_cell_length_b   16.56019827
_cell_length_c   16.55990079
_cell_angle_alpha   89.98330673
_cell_angle_beta   90.00860524
_cell_angle_gamma   89.99014699
_symmetry_Int_Tables_number   1
_chemical_formula_structural   ZrScNbPdRh
_chemical_formula_sum   'Zr50 Sc50 Nb50 Pd50 Rh50'
_cell_volume   4540.58053192
_cell_formula_units_Z   50
loop_
 _symmetry_equiv_pos_site_id
 _symmetry_equiv_pos_as_xyz
  1  'x, y, z'
loop_
 _atom_site_type_symbol
 _atom_site_label
 _atom_site_symmetry_multiplicity
 _atom_site_fract_x
 _atom_site_fract_y
 _atom_site_fract_z
 _atom_site_occupancy
  Zr  Zr0  1  0.90488797  0.91385807  0.69896457  1
  Zr  Zr1  1  0.09742922  0.09659952  0.90513601  1
  Zr  Zr2  1  0.29193906  0.91099148  0.30123661  1
  Zr  Zr3  1  0.70238054  0.50474590  0.09955390  1
  Zr  Zr4  1  0.70223918  0.69405574  0.10180452  1
  Zr  Zr5  1  0.10662255  0.29924778  0.70157930  1
  Zr  Zr6  1  0.69366034  0.70410223  0.49826744  1
  Zr  Zr7  1  0.90709299  0.69151889  0.69974315  1
  Zr  Zr8  1  0.10020901  0.30885631  0.30010457  1
  Zr  Zr9  1  0.09865938  0.69300414  0.49915107  1
  Zr  Zr10  1  0.09707608  0.08471380  0.30042068  1
  Zr  Zr11  1  0.70316250  0.50016287  0.29214040  1
  Zr  Zr12  1  0.49709492  0.90391467  0.50054399  1
  Zr  Zr13  1  0.90008928  0.50922059  0.09917546  1
  Zr  Zr14  1  0.90877075  0.09934323  0.10118764  1
  Zr  Zr15  1  0.29851463  0.10426608  0.90356821  1
  Zr  Zr16  1  0.49226291  0.11455756  0.29758911  1
  Zr  Zr17  1  0.89630802  0.70223342  0.09801982  1
  Zr  Zr18  1  0.69577029  0.10653610  0.50412414  1
  Zr  Zr19  1  0.70540471  0.50251369  0.89814660  1
  Zr  Zr20  1  0.29896596  0.49760969  0.50887974  1
  Zr  Zr21  1  0.29629380  0.08689418  0.50315858  1
  Zr  Zr22  1  0.89748703  0.90432750  0.89865054  1
  Zr  Zr23  1  0.29714591  0.30530805  0.08638969  1
  Zr  Zr24  1  0.29145867  0.30672339  0.50266134  1
  Zr  Zr25  1  0.70753239  0.90233137  0.09599658  1
  Zr  Zr26  1  0.30581277  0.09366354  0.10450637  1
  Zr  Zr27  1  0.09437503  0.09401962  0.69501014  1
  Zr  Zr28  1  0.89722942  0.31025232  0.30256647  1
  Zr  Zr29  1  0.49015823  0.91760841  0.09623692  1
  Zr  Zr30  1  0.89270948  0.29965961  0.49425367  1
  Zr  Zr31  1  0.90873044  0.09369774  0.50537410  1
  Zr  Zr32  1  0.69986181  0.90254795  0.30447255  1
  Zr  Zr33  1  0.90188986  0.30309463  0.89329510  1
  Zr  Zr34  1  0.09420651  0.49922603  0.69728815  1
  Zr  Zr35  1  0.89794051  0.30631762  0.70488723  1
  Zr  Zr36  1  0.49592360  0.90325573  0.89872298  1
  Zr  Zr37  1  0.49852717  0.89186261  0.70645771  1
  Zr  Zr38  1  0.29718950  0.70258185  0.50233565  1
  Zr  Zr39  1  0.50697918  0.69674299  0.50277668  1
  Zr  Zr40  1  0.29996014  0.71111276  0.29092504  1
  Zr  Zr41  1  0.90431989  0.89875838  0.30463019  1
  Zr  Zr42  1  0.29457071  0.49447201  0.30176268  1
  Zr  Zr43  1  0.29360703  0.90126412  0.69636815  1
  Zr  Zr44  1  0.49321391  0.29655010  0.70910903  1
  Zr  Zr45  1  0.69575763  0.09863639  0.30452743  1
  Zr  Zr46  1  0.30430540  0.90082646  0.49623018  1
  Zr  Zr47  1  0.69474672  0.90429848  0.49454683  1
  Zr  Zr48  1  0.29299075  0.10236147  0.69960956  1
  Zr  Zr49  1  0.48980004  0.90045229  0.30661147  1
  Sc  Sc50  1  0.90088950  0.10260278  0.70525504  1
  Sc  Sc51  1  0.90640857  0.29770354  0.10452951  1
  Sc  Sc52  1  0.49959349  0.09856406  0.49922831  1
  Sc  Sc53  1  0.08787634  0.30308098  0.50093326  1
  Sc  Sc54  1  0.70663619  0.10429765  0.09722949  1
  Sc  Sc55  1  0.70036964  0.10704862  0.89644834  1
  Sc  Sc56  1  0.50037391  0.49738431  0.50059984  1
  Sc  Sc57  1  0.11596940  0.69878690  0.91156494  1
  Sc  Sc58  1  0.70875625  0.49303170  0.69880852  1
  Sc  Sc59  1  0.50138722  0.10469136  0.90705309  1
  Sc  Sc60  1  0.91632921  0.69794304  0.29962265  1
  Sc  Sc61  1  0.49729881  0.29489577  0.90592692  1
  Sc  Sc62  1  0.50550400  0.49794702  0.09814393  1
  Sc  Sc63  1  0.10500709  0.29836556  0.90913571  1
  Sc  Sc64  1  0.29954192  0.69689815  0.90256259  1
  Sc  Sc65  1  0.70167840  0.30140751  0.09855087  1
  Sc  Sc66  1  0.90712895  0.49626378  0.49493520  1
  Sc  Sc67  1  0.09977984  0.49582804  0.49827213  1
  Sc  Sc68  1  0.70237858  0.29680562  0.69248444  1
  Sc  Sc69  1  0.10667178  0.69505819  0.10598421  1
  Sc  Sc70  1  0.10837667  0.49873128  0.09813957  1
  Sc  Sc71  1  0.90166412  0.50075918  0.29430500  1
  Sc  Sc72  1  0.89966383  0.10205122  0.89092815  1
  Sc  Sc73  1  0.49683265  0.29597177  0.49782207  1
  Sc  Sc74  1  0.70842891  0.29662442  0.29714469  1
  Sc  Sc75  1  0.90016614  0.09475592  0.29714543  1
  Sc  Sc76  1  0.89788824  0.68727203  0.89908397  1
  Sc  Sc77  1  0.49445665  0.49412477  0.68606126  1
  Sc  Sc78  1  0.69308142  0.90788689  0.70105373  1
  Sc  Sc79  1  0.69599678  0.49533292  0.50135340  1
  Sc  Sc80  1  0.29687549  0.69790541  0.69502441  1
  Sc  Sc81  1  0.91368383  0.70252297  0.49502353  1
  Sc  Sc82  1  0.50184326  0.69712391  0.30072485  1
  Sc  Sc83  1  0.50163174  0.10015801  0.70375931  1
  Sc  Sc84  1  0.70300731  0.90689342  0.89837531  1
  Sc  Sc85  1  0.30287892  0.48771776  0.91066108  1
  Sc  Sc86  1  0.30406444  0.50481297  0.09628586  1
  Sc  Sc87  1  0.89652837  0.90579385  0.09987383  1
  Sc  Sc88  1  0.49384269  0.70741146  0.89251115  1
  Sc  Sc89  1  0.30297208  0.29901989  0.30834732  1
  Sc  Sc90  1  0.70739161  0.70088709  0.90540386  1
  Sc  Sc91  1  0.49712569  0.50047786  0.91229526  1
  Sc  Sc92  1  0.69792260  0.29252487  0.89894345  1
  Sc  Sc93  1  0.49086469  0.68866948  0.10238286  1
  Sc  Sc94  1  0.09931970  0.89581776  0.50411832  1
  Sc  Sc95  1  0.10510105  0.90362312  0.09901097  1
  Sc  Sc96  1  0.10344548  0.69750506  0.68684353  1
  Sc  Sc97  1  0.68907080  0.69620523  0.30318989  1
  Sc  Sc98  1  0.29646150  0.90053979  0.10956170  1
  Sc  Sc99  1  0.09556934  0.50412282  0.29300323  1
  Nb  Nb100  1  0.10086928  0.89888154  0.70656701  1
  Nb  Nb101  1  0.29587258  0.69686159  0.09420236  1
  Nb  Nb102  1  0.29111459  0.09890002  0.30247318  1
  Nb  Nb103  1  0.69978427  0.10644363  0.70467776  1
  Nb  Nb104  1  0.10386645  0.11020379  0.09817741  1
  Nb  Nb105  1  0.09961380  0.49911676  0.90183243  1
  Nb  Nb106  1  0.90352612  0.49864561  0.88869962  1
  Nb  Nb107  1  0.29420959  0.89200203  0.89774366  1
  Nb  Nb108  1  0.29997256  0.30580051  0.70888042  1
  Nb  Nb109  1  0.50239967  0.29199667  0.10542885  1
  Nb  Nb110  1  0.69734089  0.70433560  0.69543113  1
  Nb  Nb111  1  0.09960246  0.10219725  0.50101381  1
  Nb  Nb112  1  0.50402105  0.49889939  0.29947376  1
  Nb  Nb113  1  0.89362462  0.89624735  0.50158674  1
  Nb  Nb114  1  0.89807070  0.50323890  0.71851281  1
  Nb  Nb115  1  0.29624253  0.48747813  0.70138850  1
  Nb  Nb116  1  0.49846181  0.10574967  0.10144320  1
  Nb  Nb117  1  0.10381937  0.88839104  0.29636761  1
  Nb  Nb118  1  0.70339596  0.30137249  0.49291852  1
  Nb  Nb119  1  0.10308766  0.29096959  0.10082762  1
  Nb  Nb120  1  0.30064403  0.30112621  0.88888560  1
  Nb  Nb121  1  0.10097155  0.70165162  0.30018679  1
  Nb  Nb122  1  0.10565350  0.89489662  0.89804564  1
  Nb  Nb123  1  0.50307882  0.29897701  0.29852035  1
  Nb  Nb124  1  0.50474191  0.70230196  0.69998796  1
  Nb  Nb125  1  0.00483354  0.80286337  0.80399648  1
  Nb  Nb126  1  0.79918971  0.60116939  0.40430380  1
  Nb  Nb127  1  0.80103882  0.80081489  0.59987746  1
  Nb  Nb128  1  0.20504177  0.58614285  0.79798050  1
  Nb  Nb129  1  0.59813856  0.40425196  0.80027454  1
  Nb  Nb130  1  0.59617661  0.60024584  0.79274369  1
  Nb  Nb131  1  0.39210593  -0.00363682  0.80360487  1
  Nb  Nb132  1  0.59495565  0.00336060  0.19810868  1
  Nb  Nb133  1  0.39570746  0.80340300  0.00104514  1
  Nb  Nb134  1  0.59854271  0.80847222  0.19282025  1
  Nb  Nb135  1  0.19371887  0.19145188  0.39948619  1
  Nb  Nb136  1  0.20274204  0.60383677  0.39551135  1
  Nb  Nb137  1  0.59353795  0.80480905  0.00640713  1
  Nb  Nb138  1  0.00239211  0.80299690  -0.00687273  1
  Nb  Nb139  1  0.19728962  0.19763485  0.20082524  1
  Nb  Nb140  1  0.60015527  0.39329550  0.39286721  1
  Nb  Nb141  1  0.40482461  0.79834592  0.60240082  1
  Nb  Nb142  1  0.38906537  0.20232924  0.60601113  1
  Nb  Nb143  1  0.80832436  0.40579375  -0.00575606  1
  Nb  Nb144  1  0.39548077  0.59770230  0.39795310  1
  Nb  Nb145  1  0.80312450  0.60492466  0.59938736  1
  Nb  Nb146  1  0.79673082  0.79997870  0.20441082  1
  Nb  Nb147  1  0.39944453  0.59615541  0.79283440  1
  Nb  Nb148  1  0.80604062  0.79902615  0.78990821  1
  Nb  Nb149  1  0.40950345  0.39402184  0.20251735  1
  Pd  Pd150  1  0.60940575  0.19635413  0.19609432  1
  Pd  Pd151  1  0.60686599  0.00570395  0.00255576  1
  Pd  Pd152  1  -0.00650971  0.20516209  0.60492203  1
  Pd  Pd153  1  -0.00025456  0.40039934  0.00483813  1
  Pd  Pd154  1  0.60506577  0.39241659  -0.00470770  1
  Pd  Pd155  1  0.59210610  0.61255165  -0.00937652  1
  Pd  Pd156  1  0.80545974  0.78853325  0.39817113  1
  Pd  Pd157  1  0.40455404  0.80096261  0.19044732  1
  Pd  Pd158  1  0.01838484  0.61146412  0.80816812  1
  Pd  Pd159  1  0.80814180  0.20586147  -0.00026778  1
  Pd  Pd160  1  -0.00592501  0.20226200  -0.00578127  1
  Pd  Pd161  1  0.79374583  0.00082201  0.60316807  1
  Pd  Pd162  1  0.60796998  0.59124807  0.60680212  1
  Pd  Pd163  1  0.40792589  0.40429470  0.39813824  1
  Pd  Pd164  1  0.80195072  0.01385804  -0.00583950  1
  Pd  Pd165  1  0.00539150  0.60611936  -0.00151040  1
  Pd  Pd166  1  0.19525112  0.79848731  0.40232535  1
  Pd  Pd167  1  0.59607732  0.00920955  0.80485524  1
  Pd  Pd168  1  0.20811387  0.39402724  0.19573144  1
  Pd  Pd169  1  -0.00351288  0.80600469  0.60481356  1
  Pd  Pd170  1  0.59664204  0.00189435  0.60545757  1
  Pd  Pd171  1  0.19956289  0.20381283  0.59395832  1
  Pd  Pd172  1  0.38893173  0.19655519  0.41143606  1
  Pd  Pd173  1  0.61223433  0.79473172  0.81089599  1
  Pd  Pd174  1  0.00099044  -0.00471136  -0.00011641  1
  Pd  Pd175  1  0.59783743  0.39032465  0.59849116  1
  Pd  Pd176  1  0.80482860  0.19031425  0.39906260  1
  Pd  Pd177  1  0.19734936  0.78516777  0.79386729  1
  Pd  Pd178  1  0.00373518  0.20048418  0.21020331  1
  Pd  Pd179  1  0.00507296  -0.00747616  0.19408386  1
  Pd  Pd180  1  0.39857116  0.60409802  0.60199658  1
  Pd  Pd181  1  -0.00906159  0.40236509  0.60338900  1
  Pd  Pd182  1  0.80814410  0.40821565  0.59701051  1
  Pd  Pd183  1  0.40883181  0.40921815  0.80679989  1
  Pd  Pd184  1  0.20395927  -0.00320281  0.00382234  1
  Pd  Pd185  1  0.80584777  0.19632311  0.60284397  1
  Pd  Pd186  1  0.00077159  0.40460997  0.19074947  1
  Pd  Pd187  1  0.39817338  0.59037679  0.20435924  1
  Pd  Pd188  1  0.60008184  0.39715338  0.20085087  1
  Pd  Pd189  1  0.38666462  0.20925101  0.19808330  1
  Pd  Pd190  1  -0.00129351  0.80311078  0.18908234  1
  Pd  Pd191  1  0.20002932  0.00251519  0.80311526  1
  Pd  Pd192  1  0.59243525  0.20570315  0.60059484  1
  Pd  Pd193  1  0.19233542  0.19950462  0.80501819  1
  Pd  Pd194  1  0.80230347  0.19847936  0.20030219  1
  Pd  Pd195  1  0.80380898  0.00753964  0.40374071  1
  Pd  Pd196  1  0.00147866  0.20016775  0.39302288  1
  Pd  Pd197  1  0.00456018  -0.01161537  0.40694301  1
  Pd  Pd198  1  0.01298145  0.39348492  0.80316665  1
  Pd  Pd199  1  0.39854003  0.20311196  0.00010845  1
  Rh  Rh200  1  0.80452098  0.39825380  0.18643554  1
  Rh  Rh201  1  0.39721665  0.19125988  0.79750255  1
  Rh  Rh202  1  0.79785425  0.20285491  0.79377925  1
  Rh  Rh203  1  0.58875856  0.00852332  0.39275143  1
  Rh  Rh204  1  0.79176747  0.00219530  0.79468759  1
  Rh  Rh205  1  0.20305057  0.80256140  0.00840076  1
  Rh  Rh206  1  0.19787691  0.58948717  0.60056181  1
  Rh  Rh207  1  0.00527186  0.59637950  0.39757103  1
  Rh  Rh208  1  0.20311565  0.80550531  0.59870523  1
  Rh  Rh209  1  0.80469197  0.79984906  -0.00309416  1
  Rh  Rh210  1  0.60106515  0.20550870  0.79870436  1
  Rh  Rh211  1  0.20377415  0.60382445  0.20483739  1
  Rh  Rh212  1  0.19580470  0.39922021  -0.00253693  1
  Rh  Rh213  1  0.79217401  0.40952645  0.40090032  1
  Rh  Rh214  1  0.60071284  0.58456899  0.39857275  1
  Rh  Rh215  1  -0.00819100  0.58805695  0.59929259  1
  Rh  Rh216  1  0.00830637  -0.00231960  0.80482886  1
  Rh  Rh217  1  0.19798160  0.79904336  0.19505132  1
  Rh  Rh218  1  0.60385071  0.20690757  0.40373189  1
  Rh  Rh219  1  0.19143819  0.40196389  0.40212294  1
  Rh  Rh220  1  0.38586935  -0.00564356  -0.01048044  1
  Rh  Rh221  1  0.00438536  0.60037839  0.19497614  1
  Rh  Rh222  1  0.40915661  0.39188362  0.00850496  1
  Rh  Rh223  1  0.39947528  0.60884514  -0.00765033  1
  Rh  Rh224  1  0.78875632  0.60762735  0.79179923  1
  Rh  Rh225  1  0.40648157  -0.00090227  0.61392933  1
  Rh  Rh226  1  0.20480056  0.20071199  0.00087375  1
  Rh  Rh227  1  0.20426596  0.59034445  -0.00423042  1
  Rh  Rh228  1  0.40132163  0.01216844  0.39331535  1
  Rh  Rh229  1  0.19337560  0.39841273  0.60168551  1
  Rh  Rh230  1  0.40686926  0.78809369  0.40990220  1
  Rh  Rh231  1  0.80670163  0.59133678  -0.00695699  1
  Rh  Rh232  1  0.19258302  0.00409844  0.19531865  1
  Rh  Rh233  1  0.59658080  0.60468594  0.19836260  1
  Rh  Rh234  1  0.00476750  -0.00469628  0.59545347  1
  Rh  Rh235  1  0.40324702  0.00600379  0.20997669  1
  Rh  Rh236  1  0.38768393  0.79709113  0.79649878  1
  Rh  Rh237  1  0.59919570  0.19857282  0.00655555  1
  Rh  Rh238  1  0.79487769  -0.00157169  0.20287097  1
  Rh  Rh239  1  0.00021194  0.40359105  0.39537435  1
  Rh  Rh240  1  0.80418435  0.61314030  0.21596590  1
  Rh  Rh241  1  0.59957058  0.80918066  0.59585986  1
  Rh  Rh242  1  0.40007029  0.38806193  0.59930134  1
  Rh  Rh243  1  0.19574289  0.40295365  0.80923700  1
  Rh  Rh244  1  0.00600249  0.20167491  0.80086068  1
  Rh  Rh245  1  0.78929556  0.39315808  0.80601067  1
  Rh  Rh246  1  0.18880829  -0.00544551  0.59658787  1
  Rh  Rh247  1  0.59136491  0.80392010  0.39472170  1
  Rh  Rh248  1  0.18971033  -0.00202419  0.40576357  1
  Rh  Rh249  1  0.00595535  0.80510530  0.40065481  1
