# generated using pymatgen
data_ZrScNbPdRh
_symmetry_space_group_name_H-M   'P 1'
_cell_length_a   16.56036629
_cell_length_b   16.55685291
_cell_length_c   16.55696134
_cell_angle_alpha   90.00081866
_cell_angle_beta   90.01109533
_cell_angle_gamma   90.01515817
_symmetry_Int_Tables_number   1
_chemical_formula_structural   ZrScNbPdRh
_chemical_formula_sum   'Zr50 Sc50 Nb50 Pd50 Rh50'
_cell_volume   4539.71240074
_cell_formula_units_Z   50
loop_
 _symmetry_equiv_pos_site_id
 _symmetry_equiv_pos_as_xyz
  1  'x, y, z'
loop_
 _atom_site_type_symbol
 _atom_site_label
 _atom_site_symmetry_multiplicity
 _atom_site_fract_x
 _atom_site_fract_y
 _atom_site_fract_z
 _atom_site_occupancy
  Zr  Zr0  1  0.29166390  0.49444602  0.89379000  1
  Zr  Zr1  1  0.30143739  0.69614776  0.28857131  1
  Zr  Zr2  1  0.08998074  0.49926463  0.70737660  1
  Zr  Zr3  1  0.70837039  0.49427472  0.69885494  1
  Zr  Zr4  1  0.09430034  0.70138258  0.30044072  1
  Zr  Zr5  1  0.09021073  0.29673922  0.30260671  1
  Zr  Zr6  1  0.49844679  0.49640307  0.29999261  1
  Zr  Zr7  1  0.49983536  0.70032472  0.90129404  1
  Zr  Zr8  1  0.30993077  0.30543158  0.29989721  1
  Zr  Zr9  1  0.30474861  0.29588910  0.90032097  1
  Zr  Zr10  1  0.90021320  0.30263694  0.50178131  1
  Zr  Zr11  1  0.69843810  0.69520490  0.30557536  1
  Zr  Zr12  1  0.51092901  0.91144434  0.90059289  1
  Zr  Zr13  1  0.69409653  0.90261197  0.50486077  1
  Zr  Zr14  1  0.30028520  0.50871149  0.10002916  1
  Zr  Zr15  1  0.71261412  0.30114114  0.09184173  1
  Zr  Zr16  1  0.51223993  0.69142994  0.29688283  1
  Zr  Zr17  1  0.29356563  0.30980309  0.70147342  1
  Zr  Zr18  1  0.29352341  0.09155167  0.30277545  1
  Zr  Zr19  1  0.70739046  0.70442435  0.70155689  1
  Zr  Zr20  1  0.50934666  0.30531595  0.48919524  1
  Zr  Zr21  1  0.69944546  0.90708213  0.29359079  1
  Zr  Zr22  1  0.10231055  0.69791602  0.49929830  1
  Zr  Zr23  1  0.89687098  0.69854425  0.09758166  1
  Zr  Zr24  1  0.09687385  0.89586900  0.89464985  1
  Zr  Zr25  1  0.09468568  0.29922156  0.09833927  1
  Zr  Zr26  1  0.30319810  0.50849455  0.69898773  1
  Zr  Zr27  1  0.50764200  0.10064881  0.69983525  1
  Zr  Zr28  1  0.89983788  0.69263150  0.70006700  1
  Zr  Zr29  1  0.88799937  0.11435635  0.10163605  1
  Zr  Zr30  1  0.29042405  0.70741711  0.70110741  1
  Zr  Zr31  1  0.50073859  0.89827694  0.31037880  1
  Zr  Zr32  1  0.50223807  0.29710057  0.30031923  1
  Zr  Zr33  1  0.11051321  0.30816636  0.90506029  1
  Zr  Zr34  1  0.09559321  0.10625393  0.09996652  1
  Zr  Zr35  1  0.50218276  0.90964667  0.68761567  1
  Zr  Zr36  1  0.90029084  0.50469048  0.89875356  1
  Zr  Zr37  1  0.09460430  0.10025547  0.70229192  1
  Zr  Zr38  1  0.50284923  0.70987307  0.49329551  1
  Zr  Zr39  1  0.70216570  0.10144051  0.29789684  1
  Zr  Zr40  1  0.10076088  0.50787716  0.30648121  1
  Zr  Zr41  1  0.49958310  0.50128844  0.69576972  1
  Zr  Zr42  1  0.29838380  0.50333016  0.49994581  1
  Zr  Zr43  1  0.30018401  0.70031235  0.50593296  1
  Zr  Zr44  1  0.31628258  0.89743932  0.49937262  1
  Zr  Zr45  1  0.90243415  0.30278078  0.10428325  1
  Zr  Zr46  1  0.29718262  0.29697540  0.09596886  1
  Zr  Zr47  1  0.90371733  0.08978530  0.88923187  1
  Zr  Zr48  1  0.50552997  0.50565008  0.90000447  1
  Zr  Zr49  1  0.89256867  0.70490553  0.29627052  1
  Sc  Sc50  1  0.10022114  0.10643889  0.49607321  1
  Sc  Sc51  1  0.89641552  0.29941123  0.89658140  1
  Sc  Sc52  1  0.09573726  0.69730939  0.10044411  1
  Sc  Sc53  1  0.70137465  0.69491904  0.10572692  1
  Sc  Sc54  1  0.69877063  0.90315860  0.70042135  1
  Sc  Sc55  1  0.89627244  0.10115547  0.50169750  1
  Sc  Sc56  1  0.09254195  0.49762763  0.08880436  1
  Sc  Sc57  1  0.29317015  0.29430926  0.50994098  1
  Sc  Sc58  1  0.09313251  0.30115016  0.69200303  1
  Sc  Sc59  1  0.10063675  0.69788509  0.70439609  1
  Sc  Sc60  1  0.10804638  0.88526964  0.70557064  1
  Sc  Sc61  1  0.30138575  0.69391305  0.89930821  1
  Sc  Sc62  1  0.51135061  0.50513594  0.09539396  1
  Sc  Sc63  1  0.30597161  0.90332237  0.91509255  1
  Sc  Sc64  1  0.89841819  0.30388577  0.70210344  1
  Sc  Sc65  1  0.51281807  0.09892816  0.29813673  1
  Sc  Sc66  1  0.89263182  0.49472588  0.31037250  1
  Sc  Sc67  1  0.30273188  0.50281091  0.29856069  1
  Sc  Sc68  1  0.69809812  0.90455863  0.09579655  1
  Sc  Sc69  1  0.70979587  0.89791509  0.89549933  1
  Sc  Sc70  1  0.89569559  0.89778634  0.29923966  1
  Sc  Sc71  1  0.49847949  0.29486945  0.10342037  1
  Sc  Sc72  1  0.09930749  0.89839954  0.10558617  1
  Sc  Sc73  1  0.70574627  0.49246630  0.49959178  1
  Sc  Sc74  1  0.09546446  0.69817459  0.89642681  1
  Sc  Sc75  1  0.89822748  0.11054102  0.69790732  1
  Sc  Sc76  1  0.50058048  0.49852065  0.50200011  1
  Sc  Sc77  1  0.90108718  0.49689698  0.69993724  1
  Sc  Sc78  1  0.89609494  0.90271062  0.49210061  1
  Sc  Sc79  1  0.29790369  0.08936361  0.09585478  1
  Sc  Sc80  1  0.70187126  0.50586493  0.30270885  1
  Sc  Sc81  1  0.09358107  0.90357514  0.30037982  1
  Sc  Sc82  1  0.49513178  0.30548996  0.69559846  1
  Sc  Sc83  1  0.49991194  0.08737844  0.50296410  1
  Sc  Sc84  1  0.89135967  0.69676647  0.49879552  1
  Sc  Sc85  1  0.49955884  0.69429854  0.70790474  1
  Sc  Sc86  1  0.10047693  0.90646335  0.48733798  1
  Sc  Sc87  1  0.70142286  0.08558067  0.89879625  1
  Sc  Sc88  1  0.09817831  0.50319298  0.89916098  1
  Sc  Sc89  1  0.49478605  0.90012021  0.09894003  1
  Sc  Sc90  1  0.90084579  0.89758933  0.71442744  1
  Sc  Sc91  1  0.10202667  0.09998914  0.90495746  1
  Sc  Sc92  1  0.09645613  0.09385928  0.31058421  1
  Sc  Sc93  1  0.89740191  0.70710354  0.90061489  1
  Sc  Sc94  1  0.08787923  0.50445453  0.50399243  1
  Sc  Sc95  1  0.50643449  0.09366960  0.10135037  1
  Sc  Sc96  1  0.49775095  0.69450745  0.10116763  1
  Sc  Sc97  1  0.89613754  0.29682537  0.29898522  1
  Sc  Sc98  1  0.88843928  0.88565851  0.10243042  1
  Sc  Sc99  1  0.30889651  0.11390464  0.68515127  1
  Nb  Nb100  1  0.30203468  0.89120694  0.10840895  1
  Nb  Nb101  1  0.90247092  0.89702458  0.90337223  1
  Nb  Nb102  1  0.70300566  0.10529723  0.50363972  1
  Nb  Nb103  1  0.50191128  0.10387882  0.89734757  1
  Nb  Nb104  1  0.89636197  0.09589595  0.29217808  1
  Nb  Nb105  1  0.09699140  0.29851726  0.50135827  1
  Nb  Nb106  1  0.50318483  0.29801140  0.90189207  1
  Nb  Nb107  1  0.70022146  0.69453450  0.50289868  1
  Nb  Nb108  1  0.69644912  0.49371185  0.91521326  1
  Nb  Nb109  1  0.69762245  0.30788570  0.89950365  1
  Nb  Nb110  1  0.69252595  0.29521337  0.31343408  1
  Nb  Nb111  1  0.30237846  0.10268245  0.89893083  1
  Nb  Nb112  1  0.29855377  0.89716061  0.29537670  1
  Nb  Nb113  1  0.70147840  0.29655100  0.49946663  1
  Nb  Nb114  1  0.69464207  0.69957962  0.89809476  1
  Nb  Nb115  1  0.69990253  0.09884721  0.10255564  1
  Nb  Nb116  1  0.89432463  0.49919533  0.50817602  1
  Nb  Nb117  1  0.30659675  0.70829182  0.09910354  1
  Nb  Nb118  1  0.89060180  0.49879829  0.09935742  1
  Nb  Nb119  1  0.70393855  0.49243297  0.09124709  1
  Nb  Nb120  1  0.50169807  0.90092467  0.50010774  1
  Nb  Nb121  1  0.70212676  0.10567434  0.69202725  1
  Nb  Nb122  1  0.29538323  0.09890204  0.49867701  1
  Nb  Nb123  1  0.70385063  0.30202444  0.70035878  1
  Nb  Nb124  1  0.29933802  0.89828448  0.69886662  1
  Nb  Nb125  1  0.60536453  0.20478946  0.80058423  1
  Nb  Nb126  1  0.21194273  0.00330925  0.79682010  1
  Nb  Nb127  1  -0.00875238  -0.00399288  0.00252329  1
  Nb  Nb128  1  0.61018331  0.39671879  0.19852455  1
  Nb  Nb129  1  0.19561074  0.39730513  0.20275828  1
  Nb  Nb130  1  0.39675411  0.00500292  0.79909548  1
  Nb  Nb131  1  -0.01133215  0.59592224  0.19845781  1
  Nb  Nb132  1  0.60080672  0.79672240  -0.00518128  1
  Nb  Nb133  1  0.19868568  0.20337286  0.20298020  1
  Nb  Nb134  1  0.60419386  0.39724758  0.80526388  1
  Nb  Nb135  1  0.60402281  0.19876076  -0.00744607  1
  Nb  Nb136  1  0.40177596  0.60476070  0.40015463  1
  Nb  Nb137  1  0.20303551  -0.00102020  0.60134500  1
  Nb  Nb138  1  0.20945960  0.80062031  0.39353948  1
  Nb  Nb139  1  0.20501807  0.19698712  0.80020020  1
  Nb  Nb140  1  0.40284230  0.39926291  -0.00494981  1
  Nb  Nb141  1  0.39968994  0.81235517  0.79990792  1
  Nb  Nb142  1  0.00456999  -0.00589078  0.60416221  1
  Nb  Nb143  1  0.60739838  0.60313204  0.59864315  1
  Nb  Nb144  1  0.39828414  0.19547608  0.40200007  1
  Nb  Nb145  1  -0.01065418  0.00506027  0.19359711  1
  Nb  Nb146  1  0.60954418  0.20482405  0.60015402  1
  Nb  Nb147  1  0.19397989  0.39742940  0.40048601  1
  Nb  Nb148  1  0.20829198  0.79890389  0.00916011  1
  Nb  Nb149  1  -0.00014137  0.80251972  0.59774809  1
  Pd  Pd150  1  -0.01463744  0.60223710  0.39910950  1
  Pd  Pd151  1  -0.00025502  0.40191335  0.40511814  1
  Pd  Pd152  1  0.40841521  0.40228536  0.80484108  1
  Pd  Pd153  1  0.41258204  0.20480613  0.58825298  1
  Pd  Pd154  1  0.40233481  0.00577944  0.39545792  1
  Pd  Pd155  1  -0.01000171  0.19336669  0.40104780  1
  Pd  Pd156  1  0.18908106  0.59546765  0.19168178  1
  Pd  Pd157  1  0.18912375  0.00292477  0.19944634  1
  Pd  Pd158  1  0.79450231  0.19459725  -0.01577195  1
  Pd  Pd159  1  0.79706163  0.00320644  0.40101142  1
  Pd  Pd160  1  0.79285370  0.39535072  0.21135917  1
  Pd  Pd161  1  -0.00563232  0.19726401  -0.01186273  1
  Pd  Pd162  1  0.40176339  0.19864198  0.79534640  1
  Pd  Pd163  1  0.60804295  0.40992552  0.39544502  1
  Pd  Pd164  1  0.80860412  0.80751117  0.60016184  1
  Pd  Pd165  1  0.79826370  0.00048122  0.78928660  1
  Pd  Pd166  1  0.60901737  0.20650466  0.19026452  1
  Pd  Pd167  1  0.79089639  0.80230619  0.40201976  1
  Pd  Pd168  1  0.39475326  0.18513851  0.20337252  1
  Pd  Pd169  1  0.59906691  0.80410027  0.18970256  1
  Pd  Pd170  1  0.79406468  0.19821637  0.80472855  1
  Pd  Pd171  1  0.80610078  -0.00342803  0.00483709  1
  Pd  Pd172  1  0.60980473  0.80439517  0.39964208  1
  Pd  Pd173  1  0.19002734  0.59397968  0.60591619  1
  Pd  Pd174  1  0.19182156  0.79902540  0.20099999  1
  Pd  Pd175  1  0.40569848  0.00118665  0.20424260  1
  Pd  Pd176  1  0.39889370  0.59548292  -0.00244554  1
  Pd  Pd177  1  0.19341301  -0.00766157  -0.00052975  1
  Pd  Pd178  1  0.80541260  0.19830732  0.39705295  1
  Pd  Pd179  1  0.40328648  0.00458710  -0.00003369  1
  Pd  Pd180  1  0.39896601  0.39548187  0.59251612  1
  Pd  Pd181  1  -0.00732823  0.40062868  -0.00604969  1
  Pd  Pd182  1  0.40705934  0.19503895  0.00694522  1
  Pd  Pd183  1  0.79934197  0.59425049  0.20112105  1
  Pd  Pd184  1  0.61077480  0.59164377  0.79485435  1
  Pd  Pd185  1  0.19664276  0.60902771  -0.00057856  1
  Pd  Pd186  1  0.20583410  0.20891187  0.39572680  1
  Pd  Pd187  1  0.00061456  0.80079948  0.40499553  1
  Pd  Pd188  1  0.19003388  0.40789887  0.59549804  1
  Pd  Pd189  1  0.00875846  0.20916823  0.80544823  1
  Pd  Pd190  1  0.80975324  -0.00401389  0.60643422  1
  Pd  Pd191  1  0.79609096  0.60610898  -0.00603441  1
  Pd  Pd192  1  0.59611405  0.80619470  0.79943731  1
  Pd  Pd193  1  0.79526483  0.59739102  0.80765702  1
  Pd  Pd194  1  0.41309085  0.79934600  0.20420094  1
  Pd  Pd195  1  0.59791742  0.79359425  0.60607426  1
  Pd  Pd196  1  0.40898116  0.79337756  0.61014916  1
  Pd  Pd197  1  0.00051956  0.41169578  0.20238474  1
  Pd  Pd198  1  0.40620381  0.40820092  0.18550454  1
  Pd  Pd199  1  0.00697337  0.80277656  0.00460259  1
  Rh  Rh200  1  0.40228138  0.79968852  -0.00372697  1
  Rh  Rh201  1  -0.00654055  0.79304532  0.79413321  1
  Rh  Rh202  1  -0.00217675  0.60239834  0.80267805  1
  Rh  Rh203  1  0.81195068  0.39964838  -0.00744338  1
  Rh  Rh204  1  0.21011266  -0.01223096  0.40605017  1
  Rh  Rh205  1  0.79793073  0.39628155  0.40186061  1
  Rh  Rh206  1  0.79939699  0.59785941  0.40653863  1
  Rh  Rh207  1  0.80412592  0.39434094  0.59723820  1
  Rh  Rh208  1  0.19020294  0.81178051  0.58287724  1
  Rh  Rh209  1  0.39644295  0.79295077  0.38794448  1
  Rh  Rh210  1  0.80343951  -0.00066487  0.19347651  1
  Rh  Rh211  1  0.21528306  0.80722140  0.81981656  1
  Rh  Rh212  1  0.41261024  0.60906531  0.59392045  1
  Rh  Rh213  1  0.19773576  0.59877876  0.79862814  1
  Rh  Rh214  1  0.78860720  0.80057975  0.20217024  1
  Rh  Rh215  1  0.59157784  0.39026635  0.00541562  1
  Rh  Rh216  1  -0.01310649  0.00504143  0.39694578  1
  Rh  Rh217  1  0.59674795  0.59407448  0.41281316  1
  Rh  Rh218  1  0.60833143  0.61016711  0.00412530  1
  Rh  Rh219  1  0.19124703  0.19386606  0.60538209  1
  Rh  Rh220  1  0.59900562  -0.00488189  0.19710341  1
  Rh  Rh221  1  -0.00202434  0.19584607  0.59460841  1
  Rh  Rh222  1  0.40593802  0.59820968  0.20155290  1
  Rh  Rh223  1  0.60338877  0.00486339  0.79572341  1
  Rh  Rh224  1  0.20252047  0.19438880  0.00037212  1
  Rh  Rh225  1  0.78722114  0.79503151  -0.00468079  1
  Rh  Rh226  1  0.21172976  0.60303106  0.40037533  1
  Rh  Rh227  1  0.79036147  0.20840449  0.20811665  1
  Rh  Rh228  1  0.60616764  0.40009365  0.60670634  1
  Rh  Rh229  1  0.80148343  0.79884393  0.80299495  1
  Rh  Rh230  1  -0.00440143  0.60637191  0.59882413  1
  Rh  Rh231  1  -0.00680770  0.59925260  0.00407128  1
  Rh  Rh232  1  0.60496480  0.00238101  0.40535764  1
  Rh  Rh233  1  -0.00377021  0.39985895  0.59859430  1
  Rh  Rh234  1  0.79752009  0.40515582  0.80673288  1
  Rh  Rh235  1  0.59506273  0.18824721  0.41123714  1
  Rh  Rh236  1  0.19128594  0.39730066  0.79340117  1
  Rh  Rh237  1  0.00629697  -0.00572429  0.80019160  1
  Rh  Rh238  1  0.60923722  0.58799167  0.19392303  1
  Rh  Rh239  1  0.79602483  0.59587937  0.59715629  1
  Rh  Rh240  1  0.39282890  0.00181589  0.60219571  1
  Rh  Rh241  1  -0.00336836  0.79954297  0.20007999  1
  Rh  Rh242  1  0.20813481  0.40682429  0.00799505  1
  Rh  Rh243  1  0.00403487  0.19026502  0.20976940  1
  Rh  Rh244  1  -0.00098672  0.39668952  0.80366633  1
  Rh  Rh245  1  0.79901230  0.20756661  0.59991055  1
  Rh  Rh246  1  0.39301046  0.60560681  0.79823839  1
  Rh  Rh247  1  0.60369205  0.00204100  0.00282508  1
  Rh  Rh248  1  0.60786183  0.00723078  0.59501507  1
  Rh  Rh249  1  0.38892623  0.39952525  0.41050874  1
