# generated using pymatgen
data_ZrScNbPdRh
_symmetry_space_group_name_H-M   'P 1'
_cell_length_a   16.55864824
_cell_length_b   16.55595299
_cell_length_c   16.55870269
_cell_angle_alpha   90.01592336
_cell_angle_beta   89.98278711
_cell_angle_gamma   90.01740756
_symmetry_Int_Tables_number   1
_chemical_formula_structural   ZrScNbPdRh
_chemical_formula_sum   'Zr50 Sc50 Nb50 Pd50 Rh50'
_cell_volume   4539.47174156
_cell_formula_units_Z   50
loop_
 _symmetry_equiv_pos_site_id
 _symmetry_equiv_pos_as_xyz
  1  'x, y, z'
loop_
 _atom_site_type_symbol
 _atom_site_label
 _atom_site_symmetry_multiplicity
 _atom_site_fract_x
 _atom_site_fract_y
 _atom_site_fract_z
 _atom_site_occupancy
  Zr  Zr0  1  0.49460044  0.30224185  0.90273249  1
  Zr  Zr1  1  0.09927881  0.08941592  0.90912370  1
  Zr  Zr2  1  0.30135628  0.50112532  0.10258969  1
  Zr  Zr3  1  0.50089185  0.90089429  0.89271147  1
  Zr  Zr4  1  0.30148740  0.10458901  0.89947279  1
  Zr  Zr5  1  0.10035052  0.50797412  0.50818731  1
  Zr  Zr6  1  0.70921301  0.50052963  0.50303003  1
  Zr  Zr7  1  0.09216623  0.31530718  0.49928499  1
  Zr  Zr8  1  0.70166228  0.09359989  0.10376349  1
  Zr  Zr9  1  0.69701479  0.50401465  0.89990025  1
  Zr  Zr10  1  0.69720897  0.29709222  0.51003352  1
  Zr  Zr11  1  0.90679483  0.90391510  0.69426949  1
  Zr  Zr12  1  0.70324820  0.30377489  0.69507304  1
  Zr  Zr13  1  0.70310183  0.49599076  0.30177777  1
  Zr  Zr14  1  0.29856003  0.90169164  0.69748199  1
  Zr  Zr15  1  0.10199098  0.69974515  0.09522927  1
  Zr  Zr16  1  0.89404163  0.09696997  0.50526785  1
  Zr  Zr17  1  0.29807357  0.09837273  0.09465785  1
  Zr  Zr18  1  0.50142596  0.49943711  0.08880393  1
  Zr  Zr19  1  0.10539638  0.90051014  0.30447347  1
  Zr  Zr20  1  0.49807317  0.89562273  0.30005414  1
  Zr  Zr21  1  0.90481144  0.30157348  0.69815978  1
  Zr  Zr22  1  0.30718526  0.70911835  0.30639489  1
  Zr  Zr23  1  0.50810633  0.30698082  0.10922476  1
  Zr  Zr24  1  0.89796022  0.09314827  0.89982234  1
  Zr  Zr25  1  0.09688613  0.49600385  0.31688600  1
  Zr  Zr26  1  0.10158976  0.50439508  0.09287659  1
  Zr  Zr27  1  0.89685133  0.70481071  0.09334904  1
  Zr  Zr28  1  0.30334728  0.30496354  0.30888849  1
  Zr  Zr29  1  0.69192133  0.29173018  0.29172494  1
  Zr  Zr30  1  0.49990467  0.09893895  0.89721920  1
  Zr  Zr31  1  0.49263214  0.49803987  0.50594490  1
  Zr  Zr32  1  0.09656324  0.30060079  0.30064480  1
  Zr  Zr33  1  0.89972587  0.50498967  0.31047454  1
  Zr  Zr34  1  0.30036314  0.09696285  0.30826372  1
  Zr  Zr35  1  0.69967313  0.29709805  0.10016937  1
  Zr  Zr36  1  0.50057545  0.09761178  0.69961112  1
  Zr  Zr37  1  0.68857535  0.49595490  0.10332731  1
  Zr  Zr38  1  0.49824023  0.50717279  0.70251402  1
  Zr  Zr39  1  0.29926038  0.89560469  0.30566865  1
  Zr  Zr40  1  0.10441573  0.90139085  0.89832633  1
  Zr  Zr41  1  0.70322836  0.90092621  0.89673861  1
  Zr  Zr42  1  0.09624164  0.29007297  0.10029366  1
  Zr  Zr43  1  0.50202226  0.68525637  0.89348889  1
  Zr  Zr44  1  0.89234422  0.89899945  0.49718132  1
  Zr  Zr45  1  0.50275822  0.89950937  0.68850205  1
  Zr  Zr46  1  0.70696810  0.70147557  0.90387190  1
  Zr  Zr47  1  0.90612096  0.50218485  0.89628655  1
  Zr  Zr48  1  0.90913314  0.50205051  0.08971910  1
  Zr  Zr49  1  0.89798700  0.69698169  0.49942760  1
  Sc  Sc50  1  0.89498303  0.09929570  0.09363078  1
  Sc  Sc51  1  0.30473082  0.29473971  0.09866804  1
  Sc  Sc52  1  0.50029615  0.29629416  0.68612772  1
  Sc  Sc53  1  0.10177877  0.90468875  0.50176773  1
  Sc  Sc54  1  0.89862420  0.29239915  0.09795303  1
  Sc  Sc55  1  0.90514697  0.89604564  0.90014615  1
  Sc  Sc56  1  0.71070773  0.49885991  0.69692359  1
  Sc  Sc57  1  0.09922020  0.09665445  0.50942344  1
  Sc  Sc58  1  0.70202739  0.90541442  0.29860243  1
  Sc  Sc59  1  0.90278214  0.50521071  0.70102672  1
  Sc  Sc60  1  0.09370570  0.49929889  0.89662068  1
  Sc  Sc61  1  0.49668619  0.09238336  0.10193305  1
  Sc  Sc62  1  0.30710284  0.90124721  0.09954447  1
  Sc  Sc63  1  0.10163966  0.09749312  0.69922486  1
  Sc  Sc64  1  0.69866939  0.10426127  0.89656579  1
  Sc  Sc65  1  0.90534636  0.70007973  0.70013124  1
  Sc  Sc66  1  0.69496143  0.10253497  0.69554340  1
  Sc  Sc67  1  0.90831727  0.10213559  0.69214253  1
  Sc  Sc68  1  0.30265840  0.50197335  0.31050911  1
  Sc  Sc69  1  0.49091184  0.70880761  0.49875073  1
  Sc  Sc70  1  0.69729337  0.70949902  0.29749893  1
  Sc  Sc71  1  0.29911784  0.69886604  0.70522257  1
  Sc  Sc72  1  0.88845311  0.90464170  0.09527809  1
  Sc  Sc73  1  0.29001793  0.09434065  0.51273307  1
  Sc  Sc74  1  0.10481326  0.70452214  0.89781904  1
  Sc  Sc75  1  0.29918592  0.50347807  0.50395057  1
  Sc  Sc76  1  0.87677574  0.09809059  0.29912984  1
  Sc  Sc77  1  0.70040976  0.29233391  0.89880028  1
  Sc  Sc78  1  0.29384429  0.49532198  0.70021819  1
  Sc  Sc79  1  0.90276618  0.29747314  0.89619068  1
  Sc  Sc80  1  0.11043884  0.70274221  0.30762566  1
  Sc  Sc81  1  0.89640118  0.29836110  0.51072821  1
  Sc  Sc82  1  0.90740297  0.50022365  0.50064852  1
  Sc  Sc83  1  0.31191593  0.49907918  0.89631025  1
  Sc  Sc84  1  0.29374262  0.69902580  0.09992260  1
  Sc  Sc85  1  0.89036184  0.29961490  0.29330653  1
  Sc  Sc86  1  0.09885499  0.50031538  0.70186885  1
  Sc  Sc87  1  0.49693383  0.89986839  0.10369264  1
  Sc  Sc88  1  0.49607747  0.49507896  0.30005957  1
  Sc  Sc89  1  0.30649094  0.30464593  0.50856244  1
  Sc  Sc90  1  0.10002755  0.69342696  0.70254114  1
  Sc  Sc91  1  0.09672774  0.30057035  0.89234348  1
  Sc  Sc92  1  0.10141133  0.30164318  0.70265090  1
  Sc  Sc93  1  0.69774179  0.90467623  0.69072632  1
  Sc  Sc94  1  0.10176900  0.10459431  0.29634753  1
  Sc  Sc95  1  0.51088954  0.70104835  0.09936805  1
  Sc  Sc96  1  0.70224149  0.89142522  0.10150416  1
  Sc  Sc97  1  0.89411347  0.70820865  0.30994072  1
  Sc  Sc98  1  0.71432255  0.69717116  0.69816501  1
  Sc  Sc99  1  0.50810989  0.11041592  0.49886671  1
  Nb  Nb100  1  0.29873983  0.89990922  0.49918503  1
  Nb  Nb101  1  0.68711571  0.09751677  0.30087603  1
  Nb  Nb102  1  0.09841058  0.89989446  0.70204683  1
  Nb  Nb103  1  0.70391749  0.69944856  0.49578784  1
  Nb  Nb104  1  0.49429647  0.70044468  0.30141385  1
  Nb  Nb105  1  0.29446607  0.28733600  0.71839322  1
  Nb  Nb106  1  0.89793324  0.69604710  0.89840173  1
  Nb  Nb107  1  0.29372019  0.70355489  0.49729098  1
  Nb  Nb108  1  0.50508420  0.70140736  0.69841932  1
  Nb  Nb109  1  0.10052557  0.09491459  0.10016789  1
  Nb  Nb110  1  0.50642253  0.49851947  0.90012573  1
  Nb  Nb111  1  0.50837138  0.10094921  0.30281800  1
  Nb  Nb112  1  0.29742710  0.29773523  0.88955222  1
  Nb  Nb113  1  0.69750753  0.89930309  0.49809363  1
  Nb  Nb114  1  0.50008043  0.29040475  0.31281913  1
  Nb  Nb115  1  0.29918946  0.10978236  0.70365637  1
  Nb  Nb116  1  0.29867958  0.71281523  0.89688686  1
  Nb  Nb117  1  0.70393503  0.69895605  0.10134668  1
  Nb  Nb118  1  0.49776831  0.90114378  0.50324697  1
  Nb  Nb119  1  0.10181401  0.69603358  0.50559757  1
  Nb  Nb120  1  0.29997015  0.89955072  0.89476261  1
  Nb  Nb121  1  0.09566461  0.90656853  0.09615568  1
  Nb  Nb122  1  0.50454259  0.30448963  0.49748607  1
  Nb  Nb123  1  0.70843295  0.09521445  0.49035232  1
  Nb  Nb124  1  0.89949510  0.89917069  0.29664912  1
  Nb  Nb125  1  0.19552645  0.40114468  0.19792140  1
  Nb  Nb126  1  0.80120526  0.60221440  0.19565673  1
  Nb  Nb127  1  0.20177518  0.39615659  -0.00031878  1
  Nb  Nb128  1  0.00021275  -0.00253633  0.20050465  1
  Nb  Nb129  1  0.59758604  0.39718124  0.40515990  1
  Nb  Nb130  1  0.60095953  0.60675308  0.59499328  1
  Nb  Nb131  1  -0.00591781  0.00218502  0.39335381  1
  Nb  Nb132  1  0.59947082  0.79465126  0.79327529  1
  Nb  Nb133  1  0.59520502  0.40445739  0.79971381  1
  Nb  Nb134  1  0.19512296  0.00115504  0.19479623  1
  Nb  Nb135  1  -0.00151241  0.60482240  0.20382354  1
  Nb  Nb136  1  0.19984616  0.80059559  0.59836217  1
  Nb  Nb137  1  0.40323201  0.60412551  0.20217264  1
  Nb  Nb138  1  0.39817858  0.79656834  -0.01134295  1
  Nb  Nb139  1  0.40670477  0.19813077  0.21218528  1
  Nb  Nb140  1  0.00157201  0.80411228  0.19905228  1
  Nb  Nb141  1  0.39475564  0.00144196  0.79478806  1
  Nb  Nb142  1  0.59832011  0.60138494  0.40411772  1
  Nb  Nb143  1  0.19465125  0.20437049  0.40520675  1
  Nb  Nb144  1  0.79905636  0.40199169  -0.00098066  1
  Nb  Nb145  1  0.00354559  0.40742406  0.19916112  1
  Nb  Nb146  1  0.40496360  -0.00407028  0.40798912  1
  Nb  Nb147  1  -0.00276980  0.19547782  0.40148093  1
  Nb  Nb148  1  0.60000340  -0.00291576  -0.00275981  1
  Nb  Nb149  1  0.80285586  -0.00040551  0.79489365  1
  Pd  Pd150  1  0.19387654  0.21022061  0.59718099  1
  Pd  Pd151  1  0.39732623  0.60975012  0.00448621  1
  Pd  Pd152  1  0.39749978  0.60856768  0.60204268  1
  Pd  Pd153  1  0.20628238  0.80933805  0.00466670  1
  Pd  Pd154  1  0.20133721  0.59487216  0.21263132  1
  Pd  Pd155  1  0.20364398  0.00536985  0.79606428  1
  Pd  Pd156  1  0.80018529  0.80614722  0.79393428  1
  Pd  Pd157  1  0.40587232  0.39649052  0.79126990  1
  Pd  Pd158  1  0.20401264  0.59591655  0.80529405  1
  Pd  Pd159  1  0.39748290  0.00432168  0.21001820  1
  Pd  Pd160  1  0.60073074  0.79747499  0.40168866  1
  Pd  Pd161  1  0.19683654  0.20637611  -0.00798377  1
  Pd  Pd162  1  0.81050890  0.40724354  0.18926814  1
  Pd  Pd163  1  0.60542043  0.00791303  0.58786682  1
  Pd  Pd164  1  0.21006705  0.19991869  0.20600418  1
  Pd  Pd165  1  0.19816433  0.80787851  0.19116098  1
  Pd  Pd166  1  0.39238250  0.19144100  0.41053312  1
  Pd  Pd167  1  0.79929083  0.20641728  0.40035015  1
  Pd  Pd168  1  0.40597828  0.80175746  0.79779514  1
  Pd  Pd169  1  0.61267767  0.60046014  0.78797135  1
  Pd  Pd170  1  0.39898392  0.00809300  0.59811794  1
  Pd  Pd171  1  0.59884839  0.60132724  0.20902622  1
  Pd  Pd172  1  0.80312282  0.19159000  0.79209902  1
  Pd  Pd173  1  0.39329608  0.39475692  0.61193370  1
  Pd  Pd174  1  0.59489894  0.19220620  0.00652368  1
  Pd  Pd175  1  0.20383869  0.59955230  0.40038199  1
  Pd  Pd176  1  0.79739555  0.80032234  0.60016148  1
  Pd  Pd177  1  0.59580241  0.21165461  0.79355749  1
  Pd  Pd178  1  0.40680262  0.20326785  0.00823079  1
  Pd  Pd179  1  0.20348540  0.39486542  0.60628437  1
  Pd  Pd180  1  0.00204381  0.79532626  0.80229505  1
  Pd  Pd181  1  0.59961839  0.80328346  0.20091781  1
  Pd  Pd182  1  -0.00266408  0.80273175  0.00012651  1
  Pd  Pd183  1  -0.01300783  0.18982271  0.20701029  1
  Pd  Pd184  1  0.39293857  0.60056370  0.79746063  1
  Pd  Pd185  1  0.59484266  0.80174325  -0.00627940  1
  Pd  Pd186  1  0.39252125  0.39564044  -0.00173179  1
  Pd  Pd187  1  0.59515925  -0.00387387  0.40515274  1
  Pd  Pd188  1  0.39809334  0.19979702  0.59670385  1
  Pd  Pd189  1  0.00879446  0.79934741  0.59712267  1
  Pd  Pd190  1  0.60915616  0.79138618  0.59984513  1
  Pd  Pd191  1  0.39893664  0.39959599  0.20498187  1
  Pd  Pd192  1  0.20579180  0.59300851  -0.01590575  1
  Pd  Pd193  1  0.79516720  0.59311145  0.00432739  1
  Pd  Pd194  1  -0.00214778  0.19767032  -0.00549238  1
  Pd  Pd195  1  0.79767057  0.38797961  0.40584865  1
  Pd  Pd196  1  0.79680138  0.39961216  0.80573257  1
  Pd  Pd197  1  0.00458928  0.19310573  0.79886050  1
  Pd  Pd198  1  0.00509112  0.80176861  0.40009955  1
  Pd  Pd199  1  0.39044220  0.79270624  0.59856509  1
  Rh  Rh200  1  0.60834511  0.39444974  -0.01237182  1
  Rh  Rh201  1  0.59294914  0.19192801  0.19558863  1
  Rh  Rh202  1  -0.00654546  -0.00295870  0.00557984  1
  Rh  Rh203  1  0.60085902  -0.00485932  0.19410256  1
  Rh  Rh204  1  -0.00088247  0.40523392  0.60668614  1
  Rh  Rh205  1  0.20604467  -0.00677115  0.00389569  1
  Rh  Rh206  1  0.60385368  0.19402571  0.59588056  1
  Rh  Rh207  1  0.19830120  0.00740455  0.39897766  1
  Rh  Rh208  1  0.79057987  0.60798236  0.39134476  1
  Rh  Rh209  1  0.00040848  0.40105405  0.79497591  1
  Rh  Rh210  1  0.40746030  0.19768133  0.79649274  1
  Rh  Rh211  1  0.59137715  0.40023441  0.21455808  1
  Rh  Rh212  1  0.00297707  -0.00338383  0.59369239  1
  Rh  Rh213  1  0.80018768  0.20606428  -0.00112133  1
  Rh  Rh214  1  0.19386066  0.80150248  0.79053743  1
  Rh  Rh215  1  0.18873095  0.19244637  0.80556710  1
  Rh  Rh216  1  0.60320594  0.60543397  0.00164523  1
  Rh  Rh217  1  0.80501361  0.79517749  0.20088382  1
  Rh  Rh218  1  0.40268911  0.78733690  0.18610850  1
  Rh  Rh219  1  0.40309490  0.80763326  0.40849469  1
  Rh  Rh220  1  0.79783523  -0.00076514  0.20106467  1
  Rh  Rh221  1  0.40446160  0.40202143  0.40490119  1
  Rh  Rh222  1  0.81103459  0.40420919  0.60186528  1
  Rh  Rh223  1  0.40317367  0.60274312  0.39739748  1
  Rh  Rh224  1  -0.00210666  0.60077631  0.60064084  1
  Rh  Rh225  1  0.79432341  0.00093063  0.60366235  1
  Rh  Rh226  1  0.79188146  0.80666000  0.39992054  1
  Rh  Rh227  1  0.00638157  0.20269164  0.59487075  1
  Rh  Rh228  1  0.80345520  0.60149579  0.59789405  1
  Rh  Rh229  1  -0.00368456  -0.00018121  0.79831871  1
  Rh  Rh230  1  0.79579265  0.19325526  0.60417923  1
  Rh  Rh231  1  0.19690762  -0.00706617  0.60881170  1
  Rh  Rh232  1  0.61001896  0.20242477  0.40697201  1
  Rh  Rh233  1  0.79429314  0.19211048  0.19780856  1
  Rh  Rh234  1  0.80219841  0.80109218  -0.00246514  1
  Rh  Rh235  1  0.19996869  0.40177938  0.80672161  1
  Rh  Rh236  1  0.20307761  0.60818111  0.60212880  1
  Rh  Rh237  1  0.20790664  0.39817002  0.40585038  1
  Rh  Rh238  1  0.40371549  -0.00929007  -0.01126475  1
  Rh  Rh239  1  0.59904505  0.41228052  0.60215539  1
  Rh  Rh240  1  0.60459293  -0.00649506  0.80352700  1
  Rh  Rh241  1  0.79787884  -0.00590407  0.39716012  1
  Rh  Rh242  1  0.00347625  0.61310618  0.40057593  1
  Rh  Rh243  1  -0.00074965  0.60531474  0.80223528  1
  Rh  Rh244  1  0.19336772  0.79865911  0.41445930  1
  Rh  Rh245  1  -0.01894683  0.38540937  0.39532920  1
  Rh  Rh246  1  0.00060931  0.38733803  0.00316308  1
  Rh  Rh247  1  0.79185542  0.00018541  -0.00941745  1
  Rh  Rh248  1  0.80617521  0.60160308  0.79975755  1
  Rh  Rh249  1  0.00532298  0.61440149  -0.00885615  1
