# generated using pymatgen
data_ZrScNbPdRh
_symmetry_space_group_name_H-M   'P 1'
_cell_length_a   16.56146326
_cell_length_b   16.55970862
_cell_length_c   16.56095424
_cell_angle_alpha   90.02504339
_cell_angle_beta   89.97945225
_cell_angle_gamma   89.97194814
_symmetry_Int_Tables_number   1
_chemical_formula_structural   ZrScNbPdRh
_chemical_formula_sum   'Zr50 Sc50 Nb50 Pd50 Rh50'
_cell_volume   4541.89021116
_cell_formula_units_Z   50
loop_
 _symmetry_equiv_pos_site_id
 _symmetry_equiv_pos_as_xyz
  1  'x, y, z'
loop_
 _atom_site_type_symbol
 _atom_site_label
 _atom_site_symmetry_multiplicity
 _atom_site_fract_x
 _atom_site_fract_y
 _atom_site_fract_z
 _atom_site_occupancy
  Zr  Zr0  1  0.29091809  0.09119915  0.49950961  1
  Zr  Zr1  1  0.69744847  0.70321973  0.09602053  1
  Zr  Zr2  1  0.50047556  0.09307444  0.28929715  1
  Zr  Zr3  1  0.50423590  0.50185399  0.09939116  1
  Zr  Zr4  1  0.30638805  0.70317276  0.89825170  1
  Zr  Zr5  1  0.50058005  0.49498781  0.49798738  1
  Zr  Zr6  1  0.89442390  0.09810420  0.09804901  1
  Zr  Zr7  1  0.90468682  0.09611146  0.90359471  1
  Zr  Zr8  1  0.49852529  0.89442675  0.50263524  1
  Zr  Zr9  1  0.69675189  0.50146654  0.90794548  1
  Zr  Zr10  1  0.50386860  0.89098016  0.69860704  1
  Zr  Zr11  1  0.10983059  0.90302105  0.50487599  1
  Zr  Zr12  1  0.50720889  0.09265995  0.09166100  1
  Zr  Zr13  1  0.30183708  0.09146736  0.09851189  1
  Zr  Zr14  1  0.69457185  0.29991114  0.49871122  1
  Zr  Zr15  1  0.89921431  0.90140334  0.50234213  1
  Zr  Zr16  1  0.10826745  0.89801559  0.70268871  1
  Zr  Zr17  1  0.89218415  0.52005386  0.50474462  1
  Zr  Zr18  1  0.69976236  0.10126131  0.50089790  1
  Zr  Zr19  1  0.69440750  0.70715579  0.70737577  1
  Zr  Zr20  1  0.50298589  0.30412942  0.29803536  1
  Zr  Zr21  1  0.10108282  0.10230822  0.68761178  1
  Zr  Zr22  1  0.90312428  0.10144097  0.50693750  1
  Zr  Zr23  1  0.90387392  0.69484334  0.30402184  1
  Zr  Zr24  1  0.69967623  0.70053707  0.90303917  1
  Zr  Zr25  1  0.70081666  0.29957370  0.10393873  1
  Zr  Zr26  1  0.69227926  0.69782164  0.30166947  1
  Zr  Zr27  1  0.89164221  0.29934435  0.29075246  1
  Zr  Zr28  1  0.69667584  0.49655973  0.09721319  1
  Zr  Zr29  1  0.09281489  0.70814157  0.90738750  1
  Zr  Zr30  1  0.49330472  0.89915127  0.90364514  1
  Zr  Zr31  1  0.10326761  0.50629214  0.70506529  1
  Zr  Zr32  1  0.30380050  0.30326315  0.49875537  1
  Zr  Zr33  1  0.70586448  0.68899509  0.49914019  1
  Zr  Zr34  1  0.49955944  0.29977665  0.69526917  1
  Zr  Zr35  1  0.30486527  0.89901008  0.50676456  1
  Zr  Zr36  1  0.90194545  0.89471203  0.90404520  1
  Zr  Zr37  1  0.10236512  0.30079113  0.70174340  1
  Zr  Zr38  1  0.50077383  0.09618582  0.49639153  1
  Zr  Zr39  1  0.49155434  0.49576803  0.71030582  1
  Zr  Zr40  1  0.70283553  0.09374877  0.70084116  1
  Zr  Zr41  1  0.30205526  0.50626528  0.88945447  1
  Zr  Zr42  1  0.09982002  0.09664881  0.09521971  1
  Zr  Zr43  1  0.70385555  0.50277306  0.70813320  1
  Zr  Zr44  1  0.90309660  0.49575100  0.71366615  1
  Zr  Zr45  1  0.30433473  0.70316391  0.50635512  1
  Zr  Zr46  1  0.49914085  0.29871465  0.50364058  1
  Zr  Zr47  1  0.68976608  0.29835496  0.70796945  1
  Zr  Zr48  1  0.89758108  0.49578269  0.09574962  1
  Zr  Zr49  1  0.30799323  0.70596002  0.29897748  1
  Sc  Sc50  1  0.50311876  0.70076657  0.30216132  1
  Sc  Sc51  1  0.89455317  0.91634002  0.70688273  1
  Sc  Sc52  1  0.10732952  0.69749151  0.70035794  1
  Sc  Sc53  1  0.70295903  0.29878919  0.29771439  1
  Sc  Sc54  1  0.69696474  0.30533952  0.90557169  1
  Sc  Sc55  1  0.09766954  0.70389743  0.10258172  1
  Sc  Sc56  1  0.90032608  0.49425773  0.29750281  1
  Sc  Sc57  1  0.30578537  0.31407932  0.29408744  1
  Sc  Sc58  1  0.70675666  0.89061707  0.90202185  1
  Sc  Sc59  1  0.68860105  0.90308107  0.51034129  1
  Sc  Sc60  1  0.89845116  0.11195822  0.29836889  1
  Sc  Sc61  1  0.90586182  0.69882624  0.09409965  1
  Sc  Sc62  1  0.10112444  0.89636064  0.09802910  1
  Sc  Sc63  1  0.69880793  0.50030778  0.30552779  1
  Sc  Sc64  1  0.49996980  0.70453083  0.70555997  1
  Sc  Sc65  1  0.50044951  0.70214184  0.90516316  1
  Sc  Sc66  1  0.08825671  0.50088630  0.29485326  1
  Sc  Sc67  1  0.50310626  0.70444353  0.49307217  1
  Sc  Sc68  1  0.69773432  0.10802097  0.29450780  1
  Sc  Sc69  1  0.69405630  0.10572668  0.91153045  1
  Sc  Sc70  1  0.10353678  0.30526616  0.09030753  1
  Sc  Sc71  1  0.89863925  0.30142956  0.09525657  1
  Sc  Sc72  1  0.50213153  0.70272213  0.09702025  1
  Sc  Sc73  1  0.49752550  0.11182415  0.70643987  1
  Sc  Sc74  1  0.08867841  0.50993079  0.50029263  1
  Sc  Sc75  1  0.89945069  0.89887622  0.28922204  1
  Sc  Sc76  1  0.09783940  0.49211617  0.89845322  1
  Sc  Sc77  1  0.09575249  0.09792596  0.29288406  1
  Sc  Sc78  1  0.50857625  0.30712478  0.10342324  1
  Sc  Sc79  1  0.29898780  0.29148230  0.70190817  1
  Sc  Sc80  1  0.29699008  0.09411911  0.70165234  1
  Sc  Sc81  1  0.09240122  0.49475024  0.10226744  1
  Sc  Sc82  1  0.10008653  0.89560227  0.29028805  1
  Sc  Sc83  1  0.90185446  0.68636485  0.70291301  1
  Sc  Sc84  1  0.31541509  0.49903702  0.30067987  1
  Sc  Sc85  1  0.10754232  0.09337801  0.90236711  1
  Sc  Sc86  1  0.50288728  0.90360536  0.09484973  1
  Sc  Sc87  1  0.50051265  0.89596788  0.30432677  1
  Sc  Sc88  1  0.30010996  0.89979340  0.10066129  1
  Sc  Sc89  1  0.50348684  0.50535805  0.29805942  1
  Sc  Sc90  1  0.10144827  0.89828582  0.89946390  1
  Sc  Sc91  1  0.31170180  0.50776850  0.50147570  1
  Sc  Sc92  1  0.69977375  0.89468669  0.29054071  1
  Sc  Sc93  1  0.50307283  0.29962973  0.88398910  1
  Sc  Sc94  1  0.09684580  0.29087106  0.50105635  1
  Sc  Sc95  1  0.30780955  0.70841031  0.10083796  1
  Sc  Sc96  1  0.30060159  0.09028219  0.89830367  1
  Sc  Sc97  1  0.09276368  0.70268884  0.29228327  1
  Sc  Sc98  1  0.90138058  0.29526547  0.48433321  1
  Sc  Sc99  1  0.08565010  0.30303764  0.30015771  1
  Nb  Nb100  1  0.89985514  0.69598179  0.90663623  1
  Nb  Nb101  1  0.89864404  0.10573034  0.70309803  1
  Nb  Nb102  1  0.89748265  0.30439749  0.70570410  1
  Nb  Nb103  1  0.90480853  0.31191410  0.89399799  1
  Nb  Nb104  1  0.71001567  0.90355521  0.09295961  1
  Nb  Nb105  1  0.49902410  0.09440290  0.90306932  1
  Nb  Nb106  1  0.49617786  0.49780830  0.90379307  1
  Nb  Nb107  1  0.69783461  0.09557853  0.09755969  1
  Nb  Nb108  1  0.30219490  0.09716287  0.29576199  1
  Nb  Nb109  1  0.28993088  0.29946838  0.90866784  1
  Nb  Nb110  1  0.29947184  0.90223830  0.89186046  1
  Nb  Nb111  1  0.70189687  0.50210604  0.50408311  1
  Nb  Nb112  1  0.29424919  0.52098473  0.70205660  1
  Nb  Nb113  1  0.30144290  0.30373645  0.10052169  1
  Nb  Nb114  1  0.90315509  0.70056934  0.50084425  1
  Nb  Nb115  1  0.29899727  0.49227015  0.10373635  1
  Nb  Nb116  1  0.88287255  0.90422180  0.09292096  1
  Nb  Nb117  1  0.09250055  0.70340557  0.49363845  1
  Nb  Nb118  1  0.89572385  0.49562317  0.90363290  1
  Nb  Nb119  1  0.30038617  0.88435708  0.69966475  1
  Nb  Nb120  1  0.10294803  0.29809825  0.89636974  1
  Nb  Nb121  1  0.29945469  0.69131002  0.70233879  1
  Nb  Nb122  1  0.30007119  0.90189162  0.29958573  1
  Nb  Nb123  1  0.69676645  0.89809113  0.70228717  1
  Nb  Nb124  1  0.10083927  0.09927982  0.49727201  1
  Nb  Nb125  1  0.19800374  0.40759499  0.59910361  1
  Nb  Nb126  1  -0.00527054  0.40112120  0.60448409  1
  Nb  Nb127  1  0.20494485  0.19981872  0.39141732  1
  Nb  Nb128  1  0.20614427  0.59664006  0.19804654  1
  Nb  Nb129  1  0.20819975  0.20239236  0.20009838  1
  Nb  Nb130  1  0.79760490  0.60076584  0.19578060  1
  Nb  Nb131  1  0.19845414  0.40479137  0.40507831  1
  Nb  Nb132  1  -0.00061942  0.00165701  0.40345856  1
  Nb  Nb133  1  0.59785711  -0.00277357  0.80448592  1
  Nb  Nb134  1  0.39390827  0.39768981  -0.00339534  1
  Nb  Nb135  1  0.39532151  0.19401639  0.39123848  1
  Nb  Nb136  1  0.20218886  0.79848437  0.39951831  1
  Nb  Nb137  1  0.80192593  0.80018563  0.40643326  1
  Nb  Nb138  1  0.39780346  0.20556273  0.00023284  1
  Nb  Nb139  1  0.80252555  0.39833902  0.60149121  1
  Nb  Nb140  1  0.80237850  -0.00236669  0.40162444  1
  Nb  Nb141  1  0.20507583  0.59739299  0.00633470  1
  Nb  Nb142  1  0.80323805  0.20647873  0.60772823  1
  Nb  Nb143  1  0.80742640  0.20229437  0.80086235  1
  Nb  Nb144  1  -0.00179333  0.20369939  0.80088692  1
  Nb  Nb145  1  -0.00335395  0.79708543  0.59819396  1
  Nb  Nb146  1  0.80272265  0.79895632  0.60120360  1
  Nb  Nb147  1  0.19943827  0.60369087  0.39512679  1
  Nb  Nb148  1  0.39708143  0.19869045  0.19540145  1
  Nb  Nb149  1  0.60242203  0.59458662  0.60126068  1
  Pd  Pd150  1  0.58971209  0.20857905  -0.00158614  1
  Pd  Pd151  1  0.38658398  0.40611952  0.61236312  1
  Pd  Pd152  1  0.59388893  0.19870940  0.39453751  1
  Pd  Pd153  1  0.60179633  0.40212194  0.39598498  1
  Pd  Pd154  1  0.40353311  0.00248078  0.61103231  1
  Pd  Pd155  1  0.40430855  -0.00456846  0.79198383  1
  Pd  Pd156  1  0.81176257  0.79762622  0.79361795  1
  Pd  Pd157  1  0.80328164  0.40305639  0.40559796  1
  Pd  Pd158  1  0.60926746  -0.00676185  0.39283346  1
  Pd  Pd159  1  0.40943541  0.80884572  0.19668637  1
  Pd  Pd160  1  0.00779487  0.59327149  -0.00153214  1
  Pd  Pd161  1  0.00189403  0.20623920  -0.00598528  1
  Pd  Pd162  1  0.39973899  0.60130962  0.19663408  1
  Pd  Pd163  1  -0.00864859  0.79785907  0.78998311  1
  Pd  Pd164  1  0.40127991  -0.00247172  0.39669649  1
  Pd  Pd165  1  -0.00627786  0.20974918  0.60315730  1
  Pd  Pd166  1  0.00497228  0.60209032  0.81041798  1
  Pd  Pd167  1  0.19164702  -0.00270114  0.38794277  1
  Pd  Pd168  1  0.20114843  0.41020182  -0.00200380  1
  Pd  Pd169  1  0.00214430  -0.00653886  0.60169629  1
  Pd  Pd170  1  0.80174179  0.60281942  0.80947746  1
  Pd  Pd171  1  0.20356977  0.19452843  0.00417890  1
  Pd  Pd172  1  0.59508585  0.80472497  0.19293823  1
  Pd  Pd173  1  0.20890248  0.40040747  0.79265394  1
  Pd  Pd174  1  0.38767828  0.39232887  0.79953136  1
  Pd  Pd175  1  0.41515642  0.60623096  0.60140730  1
  Pd  Pd176  1  0.20601217  0.79854286  0.00202203  1
  Pd  Pd177  1  0.60517611  0.40801717  0.60566995  1
  Pd  Pd178  1  0.00953524  0.00698953  0.79853248  1
  Pd  Pd179  1  -0.00892946  0.80459906  0.18926095  1
  Pd  Pd180  1  0.00712267  0.20519400  0.18983349  1
  Pd  Pd181  1  0.19769354  0.19111571  0.80346849  1
  Pd  Pd182  1  0.59149792  0.59883609  0.80265295  1
  Pd  Pd183  1  -0.00620301  -0.00232433  0.19784957  1
  Pd  Pd184  1  0.60598270  -0.00769243  0.19736049  1
  Pd  Pd185  1  0.00166130  0.81116403  0.40124569  1
  Pd  Pd186  1  0.39652985  0.59515453  0.00608056  1
  Pd  Pd187  1  0.19704307  0.00043124  0.20008030  1
  Pd  Pd188  1  0.00305172  -0.00901560  0.00359353  1
  Pd  Pd189  1  -0.00085686  0.40661750  0.40900635  1
  Pd  Pd190  1  0.80281098  0.20620812  -0.00473223  1
  Pd  Pd191  1  0.79783792  0.00752853  0.20858364  1
  Pd  Pd192  1  0.19273794  0.40080358  0.21055327  1
  Pd  Pd193  1  0.58906271  0.00700754  0.61073790  1
  Pd  Pd194  1  0.39458005  0.19067108  0.59330680  1
  Pd  Pd195  1  0.20192895  0.79389770  0.80273708  1
  Pd  Pd196  1  0.19442149  0.60069140  0.58737106  1
  Pd  Pd197  1  0.80358510  0.79043456  0.20156106  1
  Pd  Pd198  1  0.79048864  0.00554576  0.81350079  1
  Pd  Pd199  1  0.39211607  0.20107953  0.81018064  1
  Rh  Rh200  1  0.60533985  0.60064424  0.19697444  1
  Rh  Rh201  1  0.79059819  0.39737735  0.80620400  1
  Rh  Rh202  1  0.60562569  0.18996505  0.80543900  1
  Rh  Rh203  1  0.58797393  0.39580646  -0.00698328  1
  Rh  Rh204  1  0.79384162  0.60222335  0.61132564  1
  Rh  Rh205  1  -0.00609181  0.80700770  0.00601082  1
  Rh  Rh206  1  -0.00000320  0.39778173  -0.00343766  1
  Rh  Rh207  1  0.40173760  0.60292100  0.39933330  1
  Rh  Rh208  1  0.00212200  0.59680229  0.39436453  1
  Rh  Rh209  1  0.39536815  0.80603831  0.39824918  1
  Rh  Rh210  1  0.80174831  0.39550629  -0.00321500  1
  Rh  Rh211  1  0.39818721  0.79638737  0.79850089  1
  Rh  Rh212  1  0.40219107  -0.00526455  0.19850699  1
  Rh  Rh213  1  0.39575283  0.80650386  -0.00031782  1
  Rh  Rh214  1  0.00842383  0.19006568  0.39415635  1
  Rh  Rh215  1  0.40704641  0.60797328  0.79998541  1
  Rh  Rh216  1  0.19216733  0.61021621  0.81575530  1
  Rh  Rh217  1  0.20460527  0.20283064  0.59003141  1
  Rh  Rh218  1  0.20141850  -0.00275819  0.79550887  1
  Rh  Rh219  1  0.60896224  0.80383214  0.40348039  1
  Rh  Rh220  1  0.79485637  0.19541813  0.18946952  1
  Rh  Rh221  1  0.19677023  0.79136774  0.59776660  1
  Rh  Rh222  1  0.79738872  0.00032793  0.59779236  1
  Rh  Rh223  1  0.60027492  0.40695718  0.80537906  1
  Rh  Rh224  1  0.41056053  0.40049811  0.19239878  1
  Rh  Rh225  1  0.60597523  0.40382311  0.20692312  1
  Rh  Rh226  1  0.60954547  -0.00970035  -0.00833629  1
  Rh  Rh227  1  0.79508505  0.00417510  -0.00669705  1
  Rh  Rh228  1  0.80058207  0.60125474  0.38824897  1
  Rh  Rh229  1  0.59826668  0.19844358  0.19471068  1
  Rh  Rh230  1  0.59502434  0.60327230  -0.00157159  1
  Rh  Rh231  1  -0.00412299  0.39256942  0.19314352  1
  Rh  Rh232  1  0.79585704  0.40708874  0.19870060  1
  Rh  Rh233  1  0.60801449  0.78819190  0.59452421  1
  Rh  Rh234  1  0.60221813  0.19515535  0.60129359  1
  Rh  Rh235  1  0.39417515  -0.00078144  -0.00148590  1
  Rh  Rh236  1  0.40136536  0.79290743  0.60658822  1
  Rh  Rh237  1  0.59539698  0.59549311  0.40759025  1
  Rh  Rh238  1  0.20303476  -0.01112235  -0.00446509  1
  Rh  Rh239  1  -0.00440337  0.59723101  0.19666123  1
  Rh  Rh240  1  0.00813710  0.39734568  0.80125308  1
  Rh  Rh241  1  0.20204474  0.79425472  0.20593679  1
  Rh  Rh242  1  0.40236019  0.39693905  0.39881576  1
  Rh  Rh243  1  0.20502911  -0.00230415  0.60917813  1
  Rh  Rh244  1  0.79719116  0.19470354  0.40580940  1
  Rh  Rh245  1  0.59743581  0.80844510  0.81127750  1
  Rh  Rh246  1  0.80543831  0.79181924  0.00129697  1
  Rh  Rh247  1  0.60234219  0.80480605  0.00120343  1
  Rh  Rh248  1  0.80214826  0.60257943  0.00247804  1
  Rh  Rh249  1  0.00466236  0.60342949  0.60489767  1
