# generated using pymatgen
data_ZrScNbPdRh
_symmetry_space_group_name_H-M   'P 1'
_cell_length_a   16.55952366
_cell_length_b   16.56022558
_cell_length_c   16.55907289
_cell_angle_alpha   89.97870581
_cell_angle_beta   89.97416490
_cell_angle_gamma   90.01177738
_symmetry_Int_Tables_number   1
_chemical_formula_structural   ZrScNbPdRh
_chemical_formula_sum   'Zr50 Sc50 Nb50 Pd50 Rh50'
_cell_volume   4540.98453721
_cell_formula_units_Z   50
loop_
 _symmetry_equiv_pos_site_id
 _symmetry_equiv_pos_as_xyz
  1  'x, y, z'
loop_
 _atom_site_type_symbol
 _atom_site_label
 _atom_site_symmetry_multiplicity
 _atom_site_fract_x
 _atom_site_fract_y
 _atom_site_fract_z
 _atom_site_occupancy
  Zr  Zr0  1  0.70265096  0.90181844  0.70032098  1
  Zr  Zr1  1  0.69592463  0.89578761  0.10299394  1
  Zr  Zr2  1  0.49856698  0.29761362  0.49548839  1
  Zr  Zr3  1  0.50244517  0.51026160  0.49518931  1
  Zr  Zr4  1  0.89707011  0.29522342  0.09478114  1
  Zr  Zr5  1  0.89864441  0.48836614  0.69589596  1
  Zr  Zr6  1  0.10488677  0.09721555  0.50191772  1
  Zr  Zr7  1  0.09983143  0.29785223  0.50226257  1
  Zr  Zr8  1  0.69229435  0.70664898  0.70342921  1
  Zr  Zr9  1  0.30110582  0.09191121  0.50595977  1
  Zr  Zr10  1  0.90076484  0.09485563  0.30058207  1
  Zr  Zr11  1  0.10263112  0.70145875  0.30029720  1
  Zr  Zr12  1  0.89682181  0.69685379  0.10951343  1
  Zr  Zr13  1  0.49838564  0.50174018  0.89265478  1
  Zr  Zr14  1  0.89588546  0.49133447  0.89872394  1
  Zr  Zr15  1  0.69374795  0.68906195  0.50321549  1
  Zr  Zr16  1  0.68844043  0.29448723  0.29980380  1
  Zr  Zr17  1  0.30885370  0.90612414  0.11039824  1
  Zr  Zr18  1  0.90202655  0.89391498  0.30796239  1
  Zr  Zr19  1  0.10018745  0.09304436  0.89930234  1
  Zr  Zr20  1  0.69324343  0.50064626  0.30451616  1
  Zr  Zr21  1  0.11396430  0.49394050  0.09460958  1
  Zr  Zr22  1  0.70057707  0.50147948  0.10597215  1
  Zr  Zr23  1  0.70652139  0.89189659  0.89648040  1
  Zr  Zr24  1  0.31329432  0.90332515  0.50291005  1
  Zr  Zr25  1  0.10533759  0.29830056  0.10322271  1
  Zr  Zr26  1  0.88963264  0.49538183  0.09977053  1
  Zr  Zr27  1  0.89418338  0.50540134  0.29747497  1
  Zr  Zr28  1  0.09595174  0.89837005  0.70816336  1
  Zr  Zr29  1  0.09680592  0.90682019  0.90150601  1
  Zr  Zr30  1  0.10131613  0.28817237  0.89646111  1
  Zr  Zr31  1  0.90534454  0.70118969  0.30507040  1
  Zr  Zr32  1  0.49680238  0.29598431  0.30008465  1
  Zr  Zr33  1  0.90196720  0.10167564  0.09791711  1
  Zr  Zr34  1  0.49834864  0.30519473  0.89230328  1
  Zr  Zr35  1  0.50827754  0.10379667  0.69839957  1
  Zr  Zr36  1  0.30080911  0.51080295  0.29978152  1
  Zr  Zr37  1  0.48967890  0.09072351  0.09268088  1
  Zr  Zr38  1  0.91091547  0.10241959  0.90035313  1
  Zr  Zr39  1  0.29522634  0.09957315  0.90217776  1
  Zr  Zr40  1  0.89841180  0.29654097  0.50563061  1
  Zr  Zr41  1  0.29926123  0.09350594  0.29954998  1
  Zr  Zr42  1  0.69535591  0.69695416  0.10335649  1
  Zr  Zr43  1  0.30465381  0.50397402  0.49646571  1
  Zr  Zr44  1  0.88819776  0.50142337  0.49903949  1
  Zr  Zr45  1  0.09827301  0.70300481  0.69915242  1
  Zr  Zr46  1  0.89071901  0.29239707  0.29554171  1
  Zr  Zr47  1  0.70063017  0.50053732  0.90317867  1
  Zr  Zr48  1  0.29561557  0.30595956  0.10793501  1
  Zr  Zr49  1  0.31370265  0.70188277  0.49419467  1
  Sc  Sc50  1  0.30227514  0.49782024  0.90947439  1
  Sc  Sc51  1  0.10352817  0.90714403  0.49545842  1
  Sc  Sc52  1  0.90557152  0.71484076  0.68688325  1
  Sc  Sc53  1  0.49215130  0.29851809  0.10706679  1
  Sc  Sc54  1  0.31003090  0.69845542  0.90467292  1
  Sc  Sc55  1  0.09327271  0.50403655  0.49631931  1
  Sc  Sc56  1  0.09933724  0.09368918  0.09873953  1
  Sc  Sc57  1  0.50412801  0.50941219  0.10921230  1
  Sc  Sc58  1  0.30934463  0.70442156  0.70788258  1
  Sc  Sc59  1  0.31503095  0.50005751  0.70458562  1
  Sc  Sc60  1  0.68957931  0.89584943  0.50259422  1
  Sc  Sc61  1  0.29418123  0.09660369  0.69467134  1
  Sc  Sc62  1  0.09102811  0.29448691  0.69737395  1
  Sc  Sc63  1  0.10320290  0.09994030  0.70865171  1
  Sc  Sc64  1  0.69975558  0.28991580  0.70691507  1
  Sc  Sc65  1  0.50099485  0.50303072  0.70408479  1
  Sc  Sc66  1  0.30896855  0.28849793  0.49946397  1
  Sc  Sc67  1  0.88954105  0.10553725  0.69978065  1
  Sc  Sc68  1  0.10131627  0.90496235  0.29442916  1
  Sc  Sc69  1  0.30182477  0.09654503  0.09858567  1
  Sc  Sc70  1  0.30360162  0.50543578  0.10053055  1
  Sc  Sc71  1  0.08727532  0.49497648  0.69296759  1
  Sc  Sc72  1  0.49721590  0.09727344  0.50050711  1
  Sc  Sc73  1  0.49972171  0.70076761  0.89539914  1
  Sc  Sc74  1  0.69967142  0.70445154  0.30002738  1
  Sc  Sc75  1  0.70414037  0.29787315  0.48826389  1
  Sc  Sc76  1  0.50440628  0.49791388  0.29989487  1
  Sc  Sc77  1  0.10190709  0.71057506  0.89961485  1
  Sc  Sc78  1  0.49902903  0.90212184  0.90633699  1
  Sc  Sc79  1  0.69562978  0.10001943  0.09542542  1
  Sc  Sc80  1  0.90441579  0.88803935  0.09806947  1
  Sc  Sc81  1  0.69929142  0.51197283  0.69197145  1
  Sc  Sc82  1  0.09318183  0.69237477  0.49362988  1
  Sc  Sc83  1  0.50069776  0.70317762  0.29701300  1
  Sc  Sc84  1  0.50107786  0.30297323  0.69760650  1
  Sc  Sc85  1  0.10239479  0.70223449  0.10850712  1
  Sc  Sc86  1  0.30602044  0.29723450  0.69981881  1
  Sc  Sc87  1  0.89123360  0.29497796  0.89143590  1
  Sc  Sc88  1  0.89901001  0.71785574  0.90923240  1
  Sc  Sc89  1  0.29984871  0.90410455  0.69655999  1
  Sc  Sc90  1  0.10479072  0.90403099  0.10324714  1
  Sc  Sc91  1  0.29820110  0.90182512  0.89890860  1
  Sc  Sc92  1  0.50298173  0.69986140  0.70442113  1
  Sc  Sc93  1  0.69836743  0.09465450  0.69760755  1
  Sc  Sc94  1  0.69704593  0.10058007  0.50031183  1
  Sc  Sc95  1  0.69814213  0.10060955  0.88849441  1
  Sc  Sc96  1  0.30192156  0.30012388  0.90867839  1
  Sc  Sc97  1  0.70588350  0.30182469  0.10516764  1
  Sc  Sc98  1  0.69618685  0.70061041  0.89910296  1
  Sc  Sc99  1  0.10411446  0.51176253  0.30175674  1
  Nb  Nb100  1  0.10004484  0.49964700  0.89956340  1
  Nb  Nb101  1  0.69489595  0.50159737  0.49635605  1
  Nb  Nb102  1  0.29349252  0.30109809  0.29599314  1
  Nb  Nb103  1  0.50766452  0.90779390  0.30144025  1
  Nb  Nb104  1  0.31207052  0.71049322  0.10763520  1
  Nb  Nb105  1  0.50343045  0.89871503  0.69336714  1
  Nb  Nb106  1  0.69417592  0.30143625  0.90082543  1
  Nb  Nb107  1  0.89836700  0.90416693  0.69605756  1
  Nb  Nb108  1  0.30627494  0.89564185  0.29921063  1
  Nb  Nb109  1  0.51370839  0.09830082  0.30054576  1
  Nb  Nb110  1  0.69371885  0.09475254  0.30659459  1
  Nb  Nb111  1  0.49458123  0.70905199  0.10320781  1
  Nb  Nb112  1  0.49575239  0.10183222  0.90310552  1
  Nb  Nb113  1  0.69234391  0.90836146  0.30014642  1
  Nb  Nb114  1  0.89708778  0.09577260  0.49653864  1
  Nb  Nb115  1  0.49794771  0.89851210  0.10181462  1
  Nb  Nb116  1  0.09631105  0.09807829  0.30454077  1
  Nb  Nb117  1  0.29974811  0.70815594  0.29302544  1
  Nb  Nb118  1  0.90632830  0.90518380  0.89570234  1
  Nb  Nb119  1  0.50244987  0.71245069  0.50367455  1
  Nb  Nb120  1  0.89562084  0.90092967  0.50231067  1
  Nb  Nb121  1  0.89706222  0.70612915  0.48928493  1
  Nb  Nb122  1  0.10504949  0.29766131  0.29863913  1
  Nb  Nb123  1  0.49430046  0.88937517  0.49979237  1
  Nb  Nb124  1  0.90054244  0.29981949  0.69805829  1
  Nb  Nb125  1  0.20339543  0.40539362  0.59820625  1
  Nb  Nb126  1  0.20398154  0.60048922  0.60453063  1
  Nb  Nb127  1  0.80420190  -0.00527186  -0.00149856  1
  Nb  Nb128  1  0.21065841  0.80029827  0.00968977  1
  Nb  Nb129  1  0.20089256  0.39446115  0.39896880  1
  Nb  Nb130  1  0.40695066  0.00568608  0.79835003  1
  Nb  Nb131  1  0.60281039  0.40512135  0.59015493  1
  Nb  Nb132  1  0.21150463  0.80026398  0.39800540  1
  Nb  Nb133  1  0.40323203  0.19244195  0.80388759  1
  Nb  Nb134  1  0.19320408  0.59410989  0.79821723  1
  Nb  Nb135  1  0.79613458  -0.00438540  0.39813794  1
  Nb  Nb136  1  0.00266812  0.39736915  0.20137571  1
  Nb  Nb137  1  -0.00996453  -0.00265944  0.59919678  1
  Nb  Nb138  1  0.00109832  0.39267177  0.39211951  1
  Nb  Nb139  1  0.79557000  -0.00360887  0.20282563  1
  Nb  Nb140  1  0.19655977  0.40428227  0.79655973  1
  Nb  Nb141  1  0.00144556  0.59446610  -0.00382500  1
  Nb  Nb142  1  0.80980290  0.60367388  0.79785700  1
  Nb  Nb143  1  0.00331162  0.19727683  0.39697873  1
  Nb  Nb144  1  0.60138313  0.39764644  -0.00138320  1
  Nb  Nb145  1  0.20279477  0.79467547  0.59355958  1
  Nb  Nb146  1  0.59428700  0.79961106  0.00843381  1
  Nb  Nb147  1  -0.00360694  0.60022376  0.80487163  1
  Nb  Nb148  1  0.00195646  0.39904244  0.00074397  1
  Nb  Nb149  1  0.59408005  0.20505893  -0.00706475  1
  Pd  Pd150  1  0.78780185  0.40254933  0.79053053  1
  Pd  Pd151  1  0.78958043  0.19324516  -0.00859514  1
  Pd  Pd152  1  0.00659745  0.20120896  0.20176311  1
  Pd  Pd153  1  0.39910717  0.19145551  0.39334153  1
  Pd  Pd154  1  0.40698841  0.60057352  0.00372241  1
  Pd  Pd155  1  0.19934291  0.18666633  0.19767577  1
  Pd  Pd156  1  0.39431722  0.39834866  0.39357038  1
  Pd  Pd157  1  0.20321357  0.20640193  0.60677832  1
  Pd  Pd158  1  0.40257871  0.60757012  0.60638183  1
  Pd  Pd159  1  0.80646843  0.60980767  -0.00815515  1
  Pd  Pd160  1  0.80918336  0.79450962  0.79481981  1
  Pd  Pd161  1  0.79930944  0.80292788  0.20519396  1
  Pd  Pd162  1  0.79222100  0.79916361  0.59326125  1
  Pd  Pd163  1  0.20198889  0.20026109  0.39997796  1
  Pd  Pd164  1  0.40039581  0.40765009  0.20289664  1
  Pd  Pd165  1  0.00560723  0.59113970  0.19107439  1
  Pd  Pd166  1  0.78439574  0.39234125  0.60377036  1
  Pd  Pd167  1  0.59466603  -0.00656533  0.80406447  1
  Pd  Pd168  1  0.60574033  0.20928898  0.59322984  1
  Pd  Pd169  1  0.59788546  0.19555475  0.18811873  1
  Pd  Pd170  1  0.20348088  -0.00844317  0.39508901  1
  Pd  Pd171  1  0.00875098  0.80882487  0.58689666  1
  Pd  Pd172  1  0.40991149  0.60835709  0.39090988  1
  Pd  Pd173  1  0.80021394  0.39801607  0.39426201  1
  Pd  Pd174  1  0.79299536  0.19910133  0.60023288  1
  Pd  Pd175  1  0.40427550  0.39962894  0.60036962  1
  Pd  Pd176  1  0.01141768  0.79666292  0.00674858  1
  Pd  Pd177  1  0.20098049  0.19574888  0.00761439  1
  Pd  Pd178  1  0.59695388  -0.00285191  0.59290353  1
  Pd  Pd179  1  0.59958095  0.00573663  0.19288991  1
  Pd  Pd180  1  0.80755718  0.60951559  0.60477093  1
  Pd  Pd181  1  0.01235054  0.80520963  0.40506916  1
  Pd  Pd182  1  0.60734450  -0.00106401  -0.00676324  1
  Pd  Pd183  1  0.40894649  0.00333237  0.39577784  1
  Pd  Pd184  1  0.78774856  0.18805383  0.20158397  1
  Pd  Pd185  1  0.80613826  0.00450628  0.80402692  1
  Pd  Pd186  1  0.40943830  0.40455648  0.00900384  1
  Pd  Pd187  1  0.40487899  0.81192928  0.79982309  1
  Pd  Pd188  1  0.00504152  0.39433539  0.80424578  1
  Pd  Pd189  1  0.60109630  0.79721889  0.39730943  1
  Pd  Pd190  1  0.60840336  0.40637153  0.79026176  1
  Pd  Pd191  1  0.59088970  0.60262843  -0.00068487  1
  Pd  Pd192  1  0.20540374  0.60453384  0.19273644  1
  Pd  Pd193  1  -0.00274098  0.18718258  0.60048706  1
  Pd  Pd194  1  0.78746893  0.80294129  0.40556979  1
  Pd  Pd195  1  0.39828860  0.19237008  0.20419315  1
  Pd  Pd196  1  -0.00538129  -0.00748525  0.19530864  1
  Pd  Pd197  1  0.20706434  0.79634884  0.80427865  1
  Pd  Pd198  1  -0.00622006  0.60012307  0.59910377  1
  Pd  Pd199  1  0.19829520  0.61386531  -0.00361883  1
  Rh  Rh200  1  0.59378790  0.80177159  0.19921041  1
  Rh  Rh201  1  0.40148062  0.80474146  0.00040468  1
  Rh  Rh202  1  0.79732527  0.39898213  0.20800870  1
  Rh  Rh203  1  0.40232687  0.20460763  -0.00193086  1
  Rh  Rh204  1  0.59622135  0.39764702  0.40416150  1
  Rh  Rh205  1  0.20033917  0.00279237  0.20495010  1
  Rh  Rh206  1  0.79255972  0.80277718  0.00372627  1
  Rh  Rh207  1  0.80129178  0.18971608  0.39858088  1
  Rh  Rh208  1  0.79684086  0.60573952  0.39877601  1
  Rh  Rh209  1  0.20151131  0.80422598  0.20114430  1
  Rh  Rh210  1  -0.01058560  0.59384435  0.40318789  1
  Rh  Rh211  1  0.40126403  0.60244661  0.20214954  1
  Rh  Rh212  1  0.00493013  0.20432517  0.00053226  1
  Rh  Rh213  1  0.79885553  0.19900310  0.79973489  1
  Rh  Rh214  1  0.40944905  0.00016723  0.60791913  1
  Rh  Rh215  1  0.59808516  0.80102749  0.60375949  1
  Rh  Rh216  1  0.59506968  0.19869172  0.80406653  1
  Rh  Rh217  1  -0.00013428  0.39907816  0.58976040  1
  Rh  Rh218  1  0.19928239  0.40960617  0.21274140  1
  Rh  Rh219  1  0.38919193  0.39257997  0.80049655  1
  Rh  Rh220  1  0.40784572  0.00197980  0.21023030  1
  Rh  Rh221  1  0.39408995  0.59784663  0.80583618  1
  Rh  Rh222  1  -0.00683717  -0.00524748  0.00629593  1
  Rh  Rh223  1  0.80059395  -0.00122952  0.59313757  1
  Rh  Rh224  1  0.21000406  0.20824316  0.79635310  1
  Rh  Rh225  1  0.60795562  0.59999949  0.80043666  1
  Rh  Rh226  1  0.79291022  0.60413569  0.20882486  1
  Rh  Rh227  1  -0.00767024  0.79952333  0.80208369  1
  Rh  Rh228  1  0.59648743  0.60766732  0.39715981  1
  Rh  Rh229  1  0.19623016  0.39289419  -0.01123855  1
  Rh  Rh230  1  0.40028104  0.19240214  0.60769387  1
  Rh  Rh231  1  0.59286865  0.80668741  0.80651526  1
  Rh  Rh232  1  0.59771169  -0.00125275  0.41047292  1
  Rh  Rh233  1  0.59923623  0.39703234  0.19465151  1
  Rh  Rh234  1  0.40045675  0.79860974  0.60943251  1
  Rh  Rh235  1  0.20736790  -0.00212715  0.79854481  1
  Rh  Rh236  1  -0.00665001  0.19861760  0.79238910  1
  Rh  Rh237  1  -0.00397404  0.00314414  0.40741001  1
  Rh  Rh238  1  0.20436347  -0.00798634  0.00350913  1
  Rh  Rh239  1  0.40394142  0.80290184  0.39045077  1
  Rh  Rh240  1  0.59186071  0.59888505  0.60103278  1
  Rh  Rh241  1  0.59861719  0.60523086  0.20513953  1
  Rh  Rh242  1  0.00403749  0.80178533  0.20212293  1
  Rh  Rh243  1  -0.00728000  0.00458535  0.78822386  1
  Rh  Rh244  1  0.18734050  -0.01044960  0.60691627  1
  Rh  Rh245  1  0.39418866  -0.00669234  -0.00698978  1
  Rh  Rh246  1  0.41121085  0.80790017  0.20920408  1
  Rh  Rh247  1  0.79606288  0.39050216  -0.00061752  1
  Rh  Rh248  1  0.20584157  0.60703012  0.40647071  1
  Rh  Rh249  1  0.59587572  0.19611139  0.40483006  1
