# generated using pymatgen
data_ZrScNbPdRh
_symmetry_space_group_name_H-M   'P 1'
_cell_length_a   16.55877415
_cell_length_b   16.55364154
_cell_length_c   16.55688731
_cell_angle_alpha   90.00230374
_cell_angle_beta   89.96505516
_cell_angle_gamma   90.03394940
_symmetry_Int_Tables_number   1
_chemical_formula_structural   ZrScNbPdRh
_chemical_formula_sum   'Zr50 Sc50 Nb50 Pd50 Rh50'
_cell_volume   4538.37381388
_cell_formula_units_Z   50
loop_
 _symmetry_equiv_pos_site_id
 _symmetry_equiv_pos_as_xyz
  1  'x, y, z'
loop_
 _atom_site_type_symbol
 _atom_site_label
 _atom_site_symmetry_multiplicity
 _atom_site_fract_x
 _atom_site_fract_y
 _atom_site_fract_z
 _atom_site_occupancy
  Zr  Zr0  1  0.50317193  0.70383587  0.50044609  1
  Zr  Zr1  1  0.30144105  0.30262398  0.50280238  1
  Zr  Zr2  1  0.70575689  0.89698600  0.28788988  1
  Zr  Zr3  1  0.29916111  0.69204455  0.69800492  1
  Zr  Zr4  1  0.29443343  0.09716169  0.71098569  1
  Zr  Zr5  1  0.10283709  0.10112110  0.69926283  1
  Zr  Zr6  1  0.10463099  0.10014827  0.89410307  1
  Zr  Zr7  1  0.29717575  0.90250849  0.50199656  1
  Zr  Zr8  1  0.10263544  0.69188204  0.70157854  1
  Zr  Zr9  1  0.49905786  0.90143083  0.30086967  1
  Zr  Zr10  1  0.69410114  0.69313251  0.09960083  1
  Zr  Zr11  1  0.69744590  0.09516328  0.90135791  1
  Zr  Zr12  1  0.68866870  0.30175092  0.10418374  1
  Zr  Zr13  1  0.89613070  0.48941720  0.70663858  1
  Zr  Zr14  1  0.10263313  0.30260717  0.69523711  1
  Zr  Zr15  1  0.69138610  0.29597403  0.89778122  1
  Zr  Zr16  1  0.49953078  0.70103270  0.29558364  1
  Zr  Zr17  1  0.30071253  0.69799626  0.29911032  1
  Zr  Zr18  1  0.50293961  0.89736391  0.50137892  1
  Zr  Zr19  1  0.69764361  0.49984144  0.89545671  1
  Zr  Zr20  1  0.90593467  0.70742882  0.68947741  1
  Zr  Zr21  1  0.49379082  0.10619240  0.70353520  1
  Zr  Zr22  1  0.70325640  0.30972695  0.29476038  1
  Zr  Zr23  1  0.29284581  0.09669509  0.29896626  1
  Zr  Zr24  1  0.90266301  0.30453084  0.89808247  1
  Zr  Zr25  1  0.10420639  0.09979841  0.29450694  1
  Zr  Zr26  1  0.09891792  0.69852519  0.29749401  1
  Zr  Zr27  1  0.90354512  0.50057582  0.50012522  1
  Zr  Zr28  1  0.49568091  0.11072103  0.10280527  1
  Zr  Zr29  1  0.69999807  0.90328228  0.50855594  1
  Zr  Zr30  1  0.50682313  0.50244314  0.09971698  1
  Zr  Zr31  1  0.30265646  0.91511505  0.90223540  1
  Zr  Zr32  1  0.70136260  0.90441171  0.89605284  1
  Zr  Zr33  1  0.89923927  0.09920576  0.10608590  1
  Zr  Zr34  1  0.49147500  0.30208001  0.50184666  1
  Zr  Zr35  1  0.29972952  0.50158844  0.30399469  1
  Zr  Zr36  1  0.30123576  0.29691036  0.70002355  1
  Zr  Zr37  1  0.89622140  0.89774277  0.10799079  1
  Zr  Zr38  1  0.49873163  0.09605335  0.29507780  1
  Zr  Zr39  1  0.50734796  0.49937082  0.49922713  1
  Zr  Zr40  1  0.89489937  0.09704418  0.70157402  1
  Zr  Zr41  1  0.49554322  0.49847079  0.90915955  1
  Zr  Zr42  1  0.50182238  0.70660156  0.69520779  1
  Zr  Zr43  1  0.50653908  0.49512303  0.69287064  1
  Zr  Zr44  1  0.10615557  0.89580098  0.09910237  1
  Zr  Zr45  1  0.70331152  0.10836154  0.29713733  1
  Zr  Zr46  1  0.89696062  0.29652313  0.30060113  1
  Zr  Zr47  1  0.70358789  0.30543621  0.70042564  1
  Zr  Zr48  1  0.50595565  0.10019615  0.50369786  1
  Zr  Zr49  1  0.50338535  0.29196516  0.29673987  1
  Sc  Sc50  1  0.89737269  0.49047404  0.30310256  1
  Sc  Sc51  1  0.08702945  0.69052187  0.50755178  1
  Sc  Sc52  1  0.30079459  0.70294907  0.10950399  1
  Sc  Sc53  1  0.90154718  0.30503345  0.10807271  1
  Sc  Sc54  1  0.69984308  0.10128772  0.50283393  1
  Sc  Sc55  1  0.50402962  0.91099081  0.89052889  1
  Sc  Sc56  1  0.70155512  0.29687739  0.49615975  1
  Sc  Sc57  1  0.09122351  0.50269091  0.29977814  1
  Sc  Sc58  1  0.09818489  0.90676810  0.30282232  1
  Sc  Sc59  1  0.69123876  0.49651452  0.10715964  1
  Sc  Sc60  1  0.90080168  0.90607306  0.89201173  1
  Sc  Sc61  1  0.69862872  0.70290507  0.89230869  1
  Sc  Sc62  1  0.09468787  0.50092579  0.89567171  1
  Sc  Sc63  1  0.28995497  0.49470856  0.70053551  1
  Sc  Sc64  1  0.10517468  0.30031164  0.90694327  1
  Sc  Sc65  1  0.49595960  0.10364758  0.89731307  1
  Sc  Sc66  1  0.89890342  0.30399696  0.50654107  1
  Sc  Sc67  1  0.91330767  0.70488201  0.09958384  1
  Sc  Sc68  1  0.09221361  0.50064262  0.10392667  1
  Sc  Sc69  1  0.69882585  0.10447744  0.69792550  1
  Sc  Sc70  1  0.29905160  0.69502205  0.90235270  1
  Sc  Sc71  1  0.09801458  0.90250109  0.50065760  1
  Sc  Sc72  1  0.30330794  0.29357053  0.08834706  1
  Sc  Sc73  1  0.49472646  0.91590809  0.10807888  1
  Sc  Sc74  1  0.50058251  0.29516169  0.69574917  1
  Sc  Sc75  1  0.50361822  0.49832575  0.30467496  1
  Sc  Sc76  1  0.29682684  0.09947079  0.50010506  1
  Sc  Sc77  1  0.90065287  0.88992773  0.50279683  1
  Sc  Sc78  1  0.09819044  0.90641852  0.70497081  1
  Sc  Sc79  1  0.30749432  0.49585617  0.09549713  1
  Sc  Sc80  1  0.09444041  0.69929731  0.90395278  1
  Sc  Sc81  1  0.10007951  0.50226776  0.69360160  1
  Sc  Sc82  1  0.10913265  0.09215014  0.49361501  1
  Sc  Sc83  1  0.90584055  0.49646790  0.10777551  1
  Sc  Sc84  1  0.89250611  0.10447824  0.50181698  1
  Sc  Sc85  1  0.70278625  0.71196158  0.69971530  1
  Sc  Sc86  1  0.70058335  0.69662470  0.49003155  1
  Sc  Sc87  1  0.30503839  0.89918244  0.29163007  1
  Sc  Sc88  1  0.09843758  0.89763569  0.90233414  1
  Sc  Sc89  1  0.89891220  0.70073256  0.49609432  1
  Sc  Sc90  1  0.90876397  0.70096575  0.89849048  1
  Sc  Sc91  1  0.49545259  0.29835592  0.90457952  1
  Sc  Sc92  1  0.09705977  0.29960193  0.50624931  1
  Sc  Sc93  1  0.30457230  0.49799673  0.50438842  1
  Sc  Sc94  1  0.09799271  0.70259105  0.09935750  1
  Sc  Sc95  1  0.89467673  0.09411649  0.89638045  1
  Sc  Sc96  1  0.09525720  0.29283755  0.09927775  1
  Sc  Sc97  1  0.30414105  0.28653121  0.30896607  1
  Sc  Sc98  1  0.30699343  0.69140053  0.50208002  1
  Sc  Sc99  1  0.30143720  0.09398023  0.09566071  1
  Nb  Nb100  1  0.50207400  0.70022093  0.90009198  1
  Nb  Nb101  1  0.10584408  0.29579748  0.30118627  1
  Nb  Nb102  1  0.09667597  0.49830216  0.50157069  1
  Nb  Nb103  1  0.50280864  0.89494015  0.69603840  1
  Nb  Nb104  1  0.50257056  0.69734158  0.09586195  1
  Nb  Nb105  1  0.30374720  0.89871196  0.09650210  1
  Nb  Nb106  1  0.89017129  0.71786673  0.29715670  1
  Nb  Nb107  1  0.90114632  0.09600130  0.29989951  1
  Nb  Nb108  1  0.30174027  0.30743774  0.89978632  1
  Nb  Nb109  1  0.30250769  0.89911473  0.70108934  1
  Nb  Nb110  1  0.90341406  0.29844879  0.69705979  1
  Nb  Nb111  1  0.30433670  0.10963732  0.89616134  1
  Nb  Nb112  1  0.49947204  0.30417429  0.10521013  1
  Nb  Nb113  1  0.70363661  0.50501254  0.49786922  1
  Nb  Nb114  1  0.70373210  0.89759505  0.69910377  1
  Nb  Nb115  1  0.70106932  0.50053363  0.69733238  1
  Nb  Nb116  1  0.09816546  0.09737413  0.10026009  1
  Nb  Nb117  1  0.29931721  0.49420137  0.90180743  1
  Nb  Nb118  1  0.70252703  0.69640628  0.29815491  1
  Nb  Nb119  1  0.70119298  0.51057279  0.30966112  1
  Nb  Nb120  1  0.89676620  0.50359057  0.90580004  1
  Nb  Nb121  1  0.70017667  0.08855106  0.09702711  1
  Nb  Nb122  1  0.89855389  0.89923578  0.29854567  1
  Nb  Nb123  1  0.89170582  0.90105803  0.69412425  1
  Nb  Nb124  1  0.70104411  0.90515590  0.09538812  1
  Nb  Nb125  1  0.79951986  0.60493519  0.20518287  1
  Nb  Nb126  1  0.80347310  0.59799062  0.00204288  1
  Nb  Nb127  1  0.60059095  0.79868152  0.19230688  1
  Nb  Nb128  1  0.59579371  0.59945484  0.79564023  1
  Nb  Nb129  1  0.80560737  -0.00321672  0.39196055  1
  Nb  Nb130  1  0.00375204  0.00435172  0.00701409  1
  Nb  Nb131  1  0.79583254  0.20159747  0.00298775  1
  Nb  Nb132  1  0.79824915  0.40125067  -0.00134184  1
  Nb  Nb133  1  0.40028866  0.79905745  0.80086272  1
  Nb  Nb134  1  0.20007223  0.79377760  0.40421310  1
  Nb  Nb135  1  0.40082015  -0.00414337  0.60713258  1
  Nb  Nb136  1  0.19579309  0.40017343  0.39800653  1
  Nb  Nb137  1  0.20069996  0.79798967  0.60278175  1
  Nb  Nb138  1  0.20778771  0.80034893  0.79717585  1
  Nb  Nb139  1  0.79622724  0.59263252  0.60191663  1
  Nb  Nb140  1  0.59674059  0.80375116  0.00272740  1
  Nb  Nb141  1  -0.00644695  0.00081655  0.60401287  1
  Nb  Nb142  1  0.20344102  0.39441267  0.20589228  1
  Nb  Nb143  1  -0.00185594  0.20448960  0.79373039  1
  Nb  Nb144  1  0.20182836  0.59445083  -0.00177216  1
  Nb  Nb145  1  0.40387061  0.59805226  0.80328675  1
  Nb  Nb146  1  0.79429414  0.80043298  0.00303583  1
  Nb  Nb147  1  0.00057401  0.19722090  0.39383982  1
  Nb  Nb148  1  0.40031479  0.39353835  0.20146039  1
  Nb  Nb149  1  0.40696856  0.80179291  -0.00014809  1
  Pd  Pd150  1  0.40724689  0.59758531  0.40108366  1
  Pd  Pd151  1  0.19550966  0.40627927  0.00957191  1
  Pd  Pd152  1  0.60740272  0.39256049  0.59176956  1
  Pd  Pd153  1  -0.01193622  0.60409562  0.20812927  1
  Pd  Pd154  1  0.61076375  0.60937455  0.60359401  1
  Pd  Pd155  1  0.79327051  0.80619239  0.40540159  1
  Pd  Pd156  1  0.20051883  0.59056208  0.18916715  1
  Pd  Pd157  1  0.79692626  0.20457969  0.59953826  1
  Pd  Pd158  1  0.40011587  0.59069196  0.60527032  1
  Pd  Pd159  1  0.20939815  0.79185234  -0.00570146  1
  Pd  Pd160  1  -0.00849190  0.19213668  -0.00773438  1
  Pd  Pd161  1  0.20696206  0.20366144  0.18998482  1
  Pd  Pd162  1  0.80289786  0.20018025  0.80474892  1
  Pd  Pd163  1  0.00100451  0.19126603  0.59528086  1
  Pd  Pd164  1  0.00444736  -0.00638269  0.19696996  1
  Pd  Pd165  1  0.00569429  0.80376834  0.79594994  1
  Pd  Pd166  1  0.39264981  0.60590101  0.00131907  1
  Pd  Pd167  1  0.60304099  0.00359838  0.78983589  1
  Pd  Pd168  1  0.19494760  0.59807618  0.40850488  1
  Pd  Pd169  1  0.40343314  0.40090638  0.79438477  1
  Pd  Pd170  1  -0.00839362  0.00508912  0.40981448  1
  Pd  Pd171  1  0.60103227  0.20183748  0.40198790  1
  Pd  Pd172  1  0.39199505  0.79900270  0.40176895  1
  Pd  Pd173  1  0.58794223  -0.00125777  0.00212074  1
  Pd  Pd174  1  0.59673102  0.00280450  0.61059748  1
  Pd  Pd175  1  0.59245980  0.40016512  0.80166282  1
  Pd  Pd176  1  0.79835064  0.60797446  0.79746047  1
  Pd  Pd177  1  -0.00218803  0.40342619  0.00292742  1
  Pd  Pd178  1  0.40149354  0.59220996  0.19772134  1
  Pd  Pd179  1  0.19796375  0.80507691  0.20803816  1
  Pd  Pd180  1  0.39632273  0.00353125  0.40528113  1
  Pd  Pd181  1  0.60817379  0.80082728  0.39325009  1
  Pd  Pd182  1  0.20388700  0.19521253  -0.00024029  1
  Pd  Pd183  1  0.19385564  0.39952638  0.80169948  1
  Pd  Pd184  1  0.61219519  0.00073930  0.39419205  1
  Pd  Pd185  1  0.80769520  0.79847004  0.80592954  1
  Pd  Pd186  1  0.60339133  0.39719451  0.40049286  1
  Pd  Pd187  1  0.20267986  0.19674498  0.59523558  1
  Pd  Pd188  1  0.79840150  0.39854005  0.40573181  1
  Pd  Pd189  1  0.79682367  0.20088773  0.19149231  1
  Pd  Pd190  1  -0.00963901  0.60472690  0.39069374  1
  Pd  Pd191  1  0.40141942  0.19016003  0.40410465  1
  Pd  Pd192  1  0.00720133  0.79898944  0.39829818  1
  Pd  Pd193  1  -0.00387439  0.59770289  0.79714484  1
  Pd  Pd194  1  0.00137916  0.20255454  0.20484981  1
  Pd  Pd195  1  0.00768102  0.39686831  0.79994867  1
  Pd  Pd196  1  0.00628132  0.39067811  0.39952183  1
  Pd  Pd197  1  0.59961556  0.19731475  0.00235393  1
  Pd  Pd198  1  0.19700946  0.00618445  0.00001656  1
  Pd  Pd199  1  0.79861386  0.39677305  0.80522726  1
  Rh  Rh200  1  0.39911035  0.20140112  -0.00401042  1
  Rh  Rh201  1  0.40304807  0.39493223  0.00798518  1
  Rh  Rh202  1  0.40294485  -0.00320887  0.79446412  1
  Rh  Rh203  1  0.39924679  0.40180683  0.60506108  1
  Rh  Rh204  1  0.20278639  -0.00372152  0.19418473  1
  Rh  Rh205  1  -0.01043870  0.59108107  0.60551936  1
  Rh  Rh206  1  0.00782576  0.80350657  0.20602656  1
  Rh  Rh207  1  0.39595000  0.21033910  0.80545827  1
  Rh  Rh208  1  0.00218473  0.59680439  0.00090455  1
  Rh  Rh209  1  0.59542853  0.40655473  0.21047589  1
  Rh  Rh210  1  0.59518075  0.60276082  0.39892242  1
  Rh  Rh211  1  0.79073268  -0.00083093  0.79215753  1
  Rh  Rh212  1  0.39531339  0.19101816  0.59875545  1
  Rh  Rh213  1  0.79380457  0.41229658  0.19705555  1
  Rh  Rh214  1  0.19890719  -0.00570477  0.60476531  1
  Rh  Rh215  1  0.60295008  0.00147632  0.20081182  1
  Rh  Rh216  1  0.20547786  0.60008905  0.81224886  1
  Rh  Rh217  1  0.60010879  0.39747802  -0.00180978  1
  Rh  Rh218  1  0.39507926  0.80692397  0.60112415  1
  Rh  Rh219  1  0.79817937  0.00517419  0.20425384  1
  Rh  Rh220  1  0.39417637  0.40023987  0.39430393  1
  Rh  Rh221  1  0.80364980  -0.00213174  0.59502349  1
  Rh  Rh222  1  0.79541565  0.79193015  0.59463537  1
  Rh  Rh223  1  0.00953531  0.81055730  0.60619881  1
  Rh  Rh224  1  0.60900407  0.79677665  0.59603696  1
  Rh  Rh225  1  0.01069486  0.39210167  0.20489603  1
  Rh  Rh226  1  0.80696369  0.19623047  0.39991569  1
  Rh  Rh227  1  0.19816327  0.40416238  0.59065682  1
  Rh  Rh228  1  0.59607993  0.20117962  0.79762733  1
  Rh  Rh229  1  0.59416034  0.80120239  0.80288684  1
  Rh  Rh230  1  0.79385035  0.79227720  0.18950105  1
  Rh  Rh231  1  0.60173634  0.60100745  0.21094070  1
  Rh  Rh232  1  0.19673547  0.59975231  0.59138834  1
  Rh  Rh233  1  0.40981982  0.80169054  0.18867661  1
  Rh  Rh234  1  0.79684674  0.40421422  0.59614793  1
  Rh  Rh235  1  0.81180281  -0.00036973  0.00260627  1
  Rh  Rh236  1  0.40266340  0.00298032  -0.00130955  1
  Rh  Rh237  1  0.19871511  -0.00542235  0.80443619  1
  Rh  Rh238  1  0.19157790  0.20678331  0.40877257  1
  Rh  Rh239  1  0.60372882  0.19370655  0.19607805  1
  Rh  Rh240  1  0.80818382  0.60158925  0.39780001  1
  Rh  Rh241  1  0.39299385  0.20359644  0.19720541  1
  Rh  Rh242  1  0.60805762  0.60385674  -0.01221698  1
  Rh  Rh243  1  0.60176648  0.20501529  0.59987200  1
  Rh  Rh244  1  0.20575928  -0.01073437  0.39246486  1
  Rh  Rh245  1  -0.01119551  0.81351418  -0.00228976  1
  Rh  Rh246  1  -0.00020859  0.40316535  0.60269448  1
  Rh  Rh247  1  0.00021801  0.00626416  0.79894179  1
  Rh  Rh248  1  0.39218623  0.00472727  0.20024103  1
  Rh  Rh249  1  0.19899951  0.21203724  0.80763567  1
