# generated using pymatgen
data_ZrScNbPdRh
_symmetry_space_group_name_H-M   'P 1'
_cell_length_a   16.54943669
_cell_length_b   16.54931089
_cell_length_c   16.54887086
_cell_angle_alpha   89.98816579
_cell_angle_beta   90.01915765
_cell_angle_gamma   89.98922555
_symmetry_Int_Tables_number   1
_chemical_formula_structural   ZrScNbPdRh
_chemical_formula_sum   'Zr50 Sc50 Nb50 Pd50 Rh50'
_cell_volume   4532.43365789
_cell_formula_units_Z   50
loop_
 _symmetry_equiv_pos_site_id
 _symmetry_equiv_pos_as_xyz
  1  'x, y, z'
loop_
 _atom_site_type_symbol
 _atom_site_label
 _atom_site_symmetry_multiplicity
 _atom_site_fract_x
 _atom_site_fract_y
 _atom_site_fract_z
 _atom_site_occupancy
  Zr  Zr0  1  0.89997723  0.70085942  0.30345921  1
  Zr  Zr1  1  0.09721863  0.49704442  0.30759256  1
  Zr  Zr2  1  0.69956699  0.30389319  0.09191776  1
  Zr  Zr3  1  0.69616850  0.69728762  0.50242659  1
  Zr  Zr4  1  0.89865110  0.09514897  0.29788183  1
  Zr  Zr5  1  0.10509333  0.08717699  0.69905495  1
  Zr  Zr6  1  0.29841110  0.10661314  0.30100434  1
  Zr  Zr7  1  0.09522218  0.30900917  0.08788589  1
  Zr  Zr8  1  0.49626655  0.70027074  0.69395788  1
  Zr  Zr9  1  0.70232533  0.29646482  0.49907157  1
  Zr  Zr10  1  0.49899481  0.10078781  0.89383438  1
  Zr  Zr11  1  0.89720176  0.29971799  0.09523822  1
  Zr  Zr12  1  0.90764861  0.89526279  0.70260158  1
  Zr  Zr13  1  0.30397820  0.10158063  0.50629724  1
  Zr  Zr14  1  0.71475981  0.50271389  0.50206017  1
  Zr  Zr15  1  0.89543000  0.09713468  0.10283074  1
  Zr  Zr16  1  0.11263369  0.88994073  0.09669377  1
  Zr  Zr17  1  0.50505738  0.10705238  0.09997942  1
  Zr  Zr18  1  0.89726970  0.90727657  0.10662336  1
  Zr  Zr19  1  0.90241151  0.09274114  0.68418738  1
  Zr  Zr20  1  0.69271839  0.69423599  0.08980605  1
  Zr  Zr21  1  0.10129961  0.70079131  0.69439989  1
  Zr  Zr22  1  0.29617406  0.90104617  0.10477653  1
  Zr  Zr23  1  0.30044518  0.70195636  0.69906574  1
  Zr  Zr24  1  0.50179635  0.48978230  0.70179215  1
  Zr  Zr25  1  0.30244141  0.49892966  0.90045416  1
  Zr  Zr26  1  0.28712172  0.71245087  0.09986356  1
  Zr  Zr27  1  0.49770872  0.30152537  0.51008025  1
  Zr  Zr28  1  0.90120568  0.89538399  0.89359721  1
  Zr  Zr29  1  0.30376427  0.50012052  0.09497967  1
  Zr  Zr30  1  0.10716521  0.10151568  0.10586531  1
  Zr  Zr31  1  0.50118719  0.50024856  0.09314942  1
  Zr  Zr32  1  0.29543039  0.89443952  0.89962067  1
  Zr  Zr33  1  0.49878472  0.09905536  0.29870293  1
  Zr  Zr34  1  0.10118959  0.68936661  0.50412046  1
  Zr  Zr35  1  0.70946537  0.69608573  0.30464426  1
  Zr  Zr36  1  0.10526266  0.29441696  0.30426219  1
  Zr  Zr37  1  0.70177987  0.10186223  0.10229099  1
  Zr  Zr38  1  0.88976147  0.50750205  0.89035240  1
  Zr  Zr39  1  0.49672849  0.70192840  0.30658902  1
  Zr  Zr40  1  0.69550680  0.89138392  0.89816126  1
  Zr  Zr41  1  0.08570111  0.29937460  0.70632930  1
  Zr  Zr42  1  0.90681010  0.30725718  0.89361070  1
  Zr  Zr43  1  0.30347350  0.10114235  0.70489292  1
  Zr  Zr44  1  0.10691626  0.11032208  0.89508027  1
  Zr  Zr45  1  0.69118524  0.10273492  0.70168009  1
  Zr  Zr46  1  0.10031920  0.29929066  0.49785727  1
  Zr  Zr47  1  0.30655768  0.89952821  0.30281210  1
  Zr  Zr48  1  0.30316273  0.10174703  0.89650981  1
  Zr  Zr49  1  0.90024211  0.29445940  0.50648460  1
  Sc  Sc50  1  0.89783775  0.30106829  0.30351706  1
  Sc  Sc51  1  0.89605097  0.10509622  0.90125805  1
  Sc  Sc52  1  0.09522726  0.51025491  0.69865457  1
  Sc  Sc53  1  0.49411651  0.50449662  0.50407661  1
  Sc  Sc54  1  0.30238883  0.50769328  0.70541219  1
  Sc  Sc55  1  0.89510704  0.30296921  0.70130856  1
  Sc  Sc56  1  0.89132295  0.50283226  0.30098329  1
  Sc  Sc57  1  0.69658053  0.50686447  0.70317119  1
  Sc  Sc58  1  0.09365882  0.10731997  0.50435581  1
  Sc  Sc59  1  0.09344441  0.69849533  0.31441291  1
  Sc  Sc60  1  0.30273349  0.69469384  0.89258528  1
  Sc  Sc61  1  0.30460703  0.29587045  0.90301394  1
  Sc  Sc62  1  0.29776288  0.49952562  0.49686000  1
  Sc  Sc63  1  0.90387669  0.69286897  0.49584240  1
  Sc  Sc64  1  0.30724190  0.30259767  0.49643390  1
  Sc  Sc65  1  0.89979722  0.69829546  0.71425016  1
  Sc  Sc66  1  0.29989001  0.70477953  0.30541237  1
  Sc  Sc67  1  0.30011752  0.70322524  0.50305625  1
  Sc  Sc68  1  0.70858546  0.29746989  0.30571027  1
  Sc  Sc69  1  0.89571709  0.68456209  0.10134273  1
  Sc  Sc70  1  0.50212147  0.10401083  0.48535135  1
  Sc  Sc71  1  0.10178215  0.89326172  0.30068172  1
  Sc  Sc72  1  0.30261972  0.49886007  0.30417616  1
  Sc  Sc73  1  0.09866830  0.68762283  0.90071273  1
  Sc  Sc74  1  0.68944714  0.90978569  0.68914328  1
  Sc  Sc75  1  0.10024940  0.90389836  0.89248848  1
  Sc  Sc76  1  0.90009151  0.90411708  0.50132862  1
  Sc  Sc77  1  0.49985070  0.29956176  0.09320865  1
  Sc  Sc78  1  0.50112416  0.69490986  0.10145882  1
  Sc  Sc79  1  0.50856759  0.70283295  0.90513283  1
  Sc  Sc80  1  0.69791087  0.10393500  0.89809425  1
  Sc  Sc81  1  0.69461145  0.09940100  0.30643054  1
  Sc  Sc82  1  0.89804655  0.49654865  0.10309456  1
  Sc  Sc83  1  0.09957928  0.89021974  0.50935882  1
  Sc  Sc84  1  0.50121174  0.30097035  0.90193097  1
  Sc  Sc85  1  0.70343279  0.30612507  0.89602478  1
  Sc  Sc86  1  0.49039043  0.50769342  0.29402997  1
  Sc  Sc87  1  0.49407910  0.70395242  0.50261830  1
  Sc  Sc88  1  0.50747716  0.89526561  0.10578728  1
  Sc  Sc89  1  0.29595507  0.30187057  0.30458202  1
  Sc  Sc90  1  0.49948247  0.89631722  0.89077465  1
  Sc  Sc91  1  0.30078647  0.10501410  0.10578310  1
  Sc  Sc92  1  0.30525483  0.30228273  0.09623180  1
  Sc  Sc93  1  0.50298218  0.90359007  0.31289682  1
  Sc  Sc94  1  0.70570028  0.68782242  0.89200160  1
  Sc  Sc95  1  0.70471280  0.90262733  0.10471116  1
  Sc  Sc96  1  0.49957950  0.29435955  0.30587335  1
  Sc  Sc97  1  0.29683532  0.89991953  0.69526082  1
  Sc  Sc98  1  0.70758428  0.09730417  0.49743978  1
  Sc  Sc99  1  0.32002954  0.30151737  0.69637295  1
  Nb  Nb100  1  0.90439089  0.49616975  0.69295744  1
  Nb  Nb101  1  0.10300717  0.10799465  0.30597101  1
  Nb  Nb102  1  0.09687042  0.30639244  0.89771492  1
  Nb  Nb103  1  0.30300210  0.90509008  0.50152335  1
  Nb  Nb104  1  0.10539033  0.49181436  0.90448545  1
  Nb  Nb105  1  0.49868734  0.90059069  0.49948976  1
  Nb  Nb106  1  0.09550112  0.50112993  0.50599518  1
  Nb  Nb107  1  0.90504957  0.10241031  0.49668723  1
  Nb  Nb108  1  0.10095486  0.50379625  0.09551417  1
  Nb  Nb109  1  0.50059407  0.09755748  0.70403175  1
  Nb  Nb110  1  0.50612805  0.49477170  0.90036298  1
  Nb  Nb111  1  0.69845324  0.70199376  0.69666519  1
  Nb  Nb112  1  0.70192204  0.49902405  0.30142376  1
  Nb  Nb113  1  0.68253218  0.30071310  0.69641338  1
  Nb  Nb114  1  0.50886816  0.29707211  0.69565525  1
  Nb  Nb115  1  0.68942664  0.89575398  0.48929898  1
  Nb  Nb116  1  0.09593255  0.69810128  0.10020061  1
  Nb  Nb117  1  0.89471820  0.70485219  0.89713924  1
  Nb  Nb118  1  0.70582521  0.89186572  0.30769881  1
  Nb  Nb119  1  0.09779910  0.89757552  0.69918727  1
  Nb  Nb120  1  0.90431350  0.49410021  0.50939537  1
  Nb  Nb121  1  0.69505770  0.49695713  0.90704346  1
  Nb  Nb122  1  0.49907896  0.90207340  0.69679339  1
  Nb  Nb123  1  0.70172112  0.50080667  0.09696062  1
  Nb  Nb124  1  0.89761829  0.89845924  0.29541856  1
  Nb  Nb125  1  -0.00356724  0.79760850  0.00264901  1
  Nb  Nb126  1  0.80580320  0.79616675  -0.00338433  1
  Nb  Nb127  1  0.60873184  0.79663923  0.21112883  1
  Nb  Nb128  1  0.00340066  -0.00165590  0.00358003  1
  Nb  Nb129  1  0.19394579  0.40784876  0.19254731  1
  Nb  Nb130  1  0.60561137  0.40676965  0.20282617  1
  Nb  Nb131  1  0.39727702  0.80516722  0.00170394  1
  Nb  Nb132  1  0.19567749  0.79743539  0.79323000  1
  Nb  Nb133  1  -0.00282719  0.40126191  0.40938435  1
  Nb  Nb134  1  0.60389328  0.40862075  0.39727524  1
  Nb  Nb135  1  0.20048978  0.20642879  0.60525330  1
  Nb  Nb136  1  0.00383292  0.19843396  0.19969043  1
  Nb  Nb137  1  0.60375372  0.59585652  0.40000432  1
  Nb  Nb138  1  0.79223309  0.80010852  0.60257969  1
  Nb  Nb139  1  -0.00292619  0.79807014  0.19528227  1
  Nb  Nb140  1  0.59999419  0.79819249  0.78590389  1
  Nb  Nb141  1  0.79825495  -0.00261967  0.79377749  1
  Nb  Nb142  1  0.40252631  -0.00322469  0.00156886  1
  Nb  Nb143  1  0.40953418  -0.00113928  0.59986167  1
  Nb  Nb144  1  0.19623937  0.39807361  0.60532985  1
  Nb  Nb145  1  0.19695644  0.00390140  0.40304301  1
  Nb  Nb146  1  0.59617264  0.00123531  -0.00112990  1
  Nb  Nb147  1  0.00244956  0.00312776  0.39578335  1
  Nb  Nb148  1  0.19450057  0.39833783  0.80093802  1
  Nb  Nb149  1  0.19177020  0.59796868  0.19624721  1
  Pd  Pd150  1  0.38659996  0.60867060  0.19934623  1
  Pd  Pd151  1  0.60440005  0.59980374  0.20634945  1
  Pd  Pd152  1  0.00228240  0.60251029  0.20576968  1
  Pd  Pd153  1  0.80930785  0.60791617  0.60861805  1
  Pd  Pd154  1  0.79610283  -0.00546153  -0.01105149  1
  Pd  Pd155  1  0.39916616  0.39548173  0.80377752  1
  Pd  Pd156  1  0.00037266  0.19275449  0.00328793  1
  Pd  Pd157  1  0.79696783  -0.00828677  0.59770661  1
  Pd  Pd158  1  0.20472114  0.59790645  0.39862697  1
  Pd  Pd159  1  0.40592670  -0.00222759  0.19664041  1
  Pd  Pd160  1  0.41011870  0.40158656  0.39831714  1
  Pd  Pd161  1  0.20181423  0.00694299  -0.00368147  1
  Pd  Pd162  1  0.80132426  0.19678033  0.79155353  1
  Pd  Pd163  1  0.40273391  0.60968509  -0.00378857  1
  Pd  Pd164  1  0.60430313  0.21366467  0.20434024  1
  Pd  Pd165  1  0.59921403  0.80053164  0.59826302  1
  Pd  Pd166  1  0.79677005  0.20142401  0.60631075  1
  Pd  Pd167  1  0.39917839  0.21010268  0.20113952  1
  Pd  Pd168  1  0.59595952  0.18847407  0.59068632  1
  Pd  Pd169  1  0.79700557  0.20490251  -0.00871486  1
  Pd  Pd170  1  0.20658033  0.21471820  0.79151098  1
  Pd  Pd171  1  0.20096009  0.80613863  0.40609132  1
  Pd  Pd172  1  0.39610847  -0.00806568  0.79765175  1
  Pd  Pd173  1  0.20237738  0.60389908  0.00071281  1
  Pd  Pd174  1  0.19665093  -0.00074821  0.21289438  1
  Pd  Pd175  1  -0.00935900  0.18948989  0.79464103  1
  Pd  Pd176  1  -0.00502571  0.00881753  0.80709232  1
  Pd  Pd177  1  0.60423484  -0.00897965  0.20296720  1
  Pd  Pd178  1  0.00236876  0.59755243  0.80178794  1
  Pd  Pd179  1  -0.01066279  0.79261951  0.59611700  1
  Pd  Pd180  1  -0.01095183  0.41348586  -0.00572492  1
  Pd  Pd181  1  0.41367795  0.60111558  0.80625029  1
  Pd  Pd182  1  0.80378953  -0.00232684  0.39970658  1
  Pd  Pd183  1  0.59583110  0.60352646  0.80077606  1
  Pd  Pd184  1  0.79515039  0.39940183  0.19903250  1
  Pd  Pd185  1  0.79313174  0.39581567  0.61083543  1
  Pd  Pd186  1  0.20435712  0.20564106  0.00220947  1
  Pd  Pd187  1  0.79957301  0.79136562  0.18999760  1
  Pd  Pd188  1  0.40986808  0.79858464  0.19728614  1
  Pd  Pd189  1  0.01373177  -0.00226080  0.20231483  1
  Pd  Pd190  1  0.59735179  0.20865954  0.80676715  1
  Pd  Pd191  1  0.39446312  0.59510340  0.59829322  1
  Pd  Pd192  1  0.79054411  0.40372117  0.79083711  1
  Pd  Pd193  1  0.80111058  0.20121705  0.20551017  1
  Pd  Pd194  1  0.80797104  0.80208445  0.41339087  1
  Pd  Pd195  1  -0.00772504  0.59731445  -0.00514675  1
  Pd  Pd196  1  0.00202766  0.39469615  0.20801676  1
  Pd  Pd197  1  0.60522730  0.40980241  0.59153559  1
  Pd  Pd198  1  0.59331252  0.00972219  0.58642561  1
  Pd  Pd199  1  0.40244026  0.39445470  0.20151381  1
  Rh  Rh200  1  0.39744298  0.80998347  0.59735538  1
  Rh  Rh201  1  0.20278982  -0.00973244  0.79732016  1
  Rh  Rh202  1  0.19488440  0.21578575  0.19027148  1
  Rh  Rh203  1  0.39884613  0.80231930  0.40753899  1
  Rh  Rh204  1  0.60315395  -0.00132919  0.39937608  1
  Rh  Rh205  1  0.00607814  -0.00304025  0.58832263  1
  Rh  Rh206  1  0.80461356  0.59567164  0.40272200  1
  Rh  Rh207  1  0.59598576  0.59696802  0.59620338  1
  Rh  Rh208  1  0.01460479  0.79090974  0.80666113  1
  Rh  Rh209  1  -0.00802153  0.60547304  0.60342226  1
  Rh  Rh210  1  0.19417063  0.59726840  0.79865737  1
  Rh  Rh211  1  0.00428310  0.39893126  0.59924758  1
  Rh  Rh212  1  0.60193017  0.20895663  0.40239038  1
  Rh  Rh213  1  0.40367915  0.40082504  -0.00526781  1
  Rh  Rh214  1  0.40651428  0.19076574  0.60453002  1
  Rh  Rh215  1  0.60125323  0.80648710  0.00558092  1
  Rh  Rh216  1  0.40150574  0.79845771  0.80138392  1
  Rh  Rh217  1  0.39457738  0.40752455  0.60242134  1
  Rh  Rh218  1  0.40220757  0.60368902  0.40330653  1
  Rh  Rh219  1  0.39376344  0.00189231  0.40459778  1
  Rh  Rh220  1  0.19681162  0.78971636  -0.01711215  1
  Rh  Rh221  1  0.00271975  0.19765726  0.60708225  1
  Rh  Rh222  1  0.59790130  0.59387802  -0.00684210  1
  Rh  Rh223  1  0.60551264  -0.00709381  0.80450386  1
  Rh  Rh224  1  0.39843034  0.20243707  0.39679058  1
  Rh  Rh225  1  0.80405610  0.19518049  0.40040258  1
  Rh  Rh226  1  0.20888896  0.19477678  0.41326549  1
  Rh  Rh227  1  0.80400367  0.40459787  -0.00484627  1
  Rh  Rh228  1  0.80065251  0.59828571  -0.00090600  1
  Rh  Rh229  1  0.60263045  0.39815459  0.80220632  1
  Rh  Rh230  1  0.78626606  0.80556004  0.79312855  1
  Rh  Rh231  1  0.19390370  0.40395818  0.40478011  1
  Rh  Rh232  1  -0.00746370  0.58750985  0.40350397  1
  Rh  Rh233  1  0.20440396  0.59182423  0.59782444  1
  Rh  Rh234  1  0.39963910  0.19190045  0.00012510  1
  Rh  Rh235  1  0.18758119  0.78502176  0.21504319  1
  Rh  Rh236  1  0.59503177  0.79451425  0.39893356  1
  Rh  Rh237  1  0.80441051  0.40061133  0.40526188  1
  Rh  Rh238  1  0.60360023  0.19709362  -0.00536543  1
  Rh  Rh239  1  0.20554140  0.39689080  -0.00297295  1
  Rh  Rh240  1  0.79551461  0.59761495  0.19662412  1
  Rh  Rh241  1  -0.00671843  0.81145172  0.39374906  1
  Rh  Rh242  1  0.00260094  0.41321022  0.80063196  1
  Rh  Rh243  1  0.78598061  0.00233075  0.21242244  1
  Rh  Rh244  1  -0.00963794  0.19946192  0.39203925  1
  Rh  Rh245  1  0.20199692  0.00247459  0.59481029  1
  Rh  Rh246  1  0.20373206  0.80099360  0.60278282  1
  Rh  Rh247  1  0.59891125  0.40030632  0.00239663  1
  Rh  Rh248  1  0.79736159  0.59486443  0.79280679  1
  Rh  Rh249  1  0.40969853  0.20716375  0.79592804  1
