# generated using pymatgen
data_ZrScNbPdRh
_symmetry_space_group_name_H-M   'P 1'
_cell_length_a   16.55714249
_cell_length_b   16.55899559
_cell_length_c   16.55720611
_cell_angle_alpha   90.00756480
_cell_angle_beta   90.00727367
_cell_angle_gamma   90.01658571
_symmetry_Int_Tables_number   1
_chemical_formula_structural   ZrScNbPdRh
_chemical_formula_sum   'Zr50 Sc50 Nb50 Pd50 Rh50'
_cell_volume   4539.48313002
_cell_formula_units_Z   50
loop_
 _symmetry_equiv_pos_site_id
 _symmetry_equiv_pos_as_xyz
  1  'x, y, z'
loop_
 _atom_site_type_symbol
 _atom_site_label
 _atom_site_symmetry_multiplicity
 _atom_site_fract_x
 _atom_site_fract_y
 _atom_site_fract_z
 _atom_site_occupancy
  Zr  Zr0  1  0.70824592  0.09899358  0.29545388  1
  Zr  Zr1  1  0.29305747  0.10539864  0.90154930  1
  Zr  Zr2  1  0.29749828  0.09998519  0.70434306  1
  Zr  Zr3  1  0.10393504  0.70484177  0.49140041  1
  Zr  Zr4  1  0.10005717  0.49890956  0.09995494  1
  Zr  Zr5  1  0.90081919  0.49729488  0.09575579  1
  Zr  Zr6  1  0.89421294  0.49695760  0.30111391  1
  Zr  Zr7  1  0.29841301  0.09446733  0.49724341  1
  Zr  Zr8  1  0.50718316  0.90022134  0.89593296  1
  Zr  Zr9  1  0.09767929  0.49700740  0.49376640  1
  Zr  Zr10  1  0.30377414  0.51111367  0.09888036  1
  Zr  Zr11  1  0.69437017  0.29257576  0.49943454  1
  Zr  Zr12  1  0.09740247  0.89297352  0.30269306  1
  Zr  Zr13  1  0.50375276  0.68991911  0.88924719  1
  Zr  Zr14  1  0.30029043  0.89542085  0.10671930  1
  Zr  Zr15  1  0.70140665  0.49995140  0.69657709  1
  Zr  Zr16  1  0.91427565  0.50081688  0.90132673  1
  Zr  Zr17  1  0.29481623  0.70067130  0.29374128  1
  Zr  Zr18  1  0.50746914  0.08865086  0.68841010  1
  Zr  Zr19  1  0.10533541  0.30363218  0.70170954  1
  Zr  Zr20  1  0.70097968  0.50532291  0.49553262  1
  Zr  Zr21  1  0.68061514  0.51157473  0.89669240  1
  Zr  Zr22  1  0.69872241  0.29171278  0.70268337  1
  Zr  Zr23  1  0.70454897  0.89510463  0.50131589  1
  Zr  Zr24  1  0.49933084  0.90892227  0.10150093  1
  Zr  Zr25  1  0.09254303  0.10104834  0.49895520  1
  Zr  Zr26  1  0.09422520  0.30007443  0.49885670  1
  Zr  Zr27  1  0.50143174  0.51207779  0.70645209  1
  Zr  Zr28  1  0.69621392  0.90351309  0.71015906  1
  Zr  Zr29  1  0.10764776  0.49991383  0.89706684  1
  Zr  Zr30  1  0.29857556  0.30476228  0.50621712  1
  Zr  Zr31  1  0.90360297  0.70565904  0.90566602  1
  Zr  Zr32  1  0.50001982  0.50189912  0.30318990  1
  Zr  Zr33  1  0.11238630  0.70382628  0.10158808  1
  Zr  Zr34  1  0.70565867  0.90327719  0.30933019  1
  Zr  Zr35  1  0.10467508  0.69943841  0.69114850  1
  Zr  Zr36  1  0.30281670  0.29912482  0.10289674  1
  Zr  Zr37  1  0.10264115  0.09926927  0.90236990  1
  Zr  Zr38  1  0.09467378  0.30526057  0.30493308  1
  Zr  Zr39  1  0.50449531  0.69503585  0.29542564  1
  Zr  Zr40  1  0.50554790  0.89885312  0.30003111  1
  Zr  Zr41  1  0.29299256  0.10408113  0.29454902  1
  Zr  Zr42  1  0.49810351  0.49296432  0.50193457  1
  Zr  Zr43  1  0.10134166  0.09888726  0.30353886  1
  Zr  Zr44  1  0.49912586  0.89821009  0.70207357  1
  Zr  Zr45  1  0.89986186  0.90723741  0.49385492  1
  Zr  Zr46  1  0.89780474  0.89414135  0.09499077  1
  Zr  Zr47  1  0.70225418  0.70737210  0.89760252  1
  Zr  Zr48  1  0.88759236  0.10281437  0.10301049  1
  Zr  Zr49  1  0.69913498  0.69265785  0.09446584  1
  Sc  Sc50  1  0.09582914  0.29804229  0.10105341  1
  Sc  Sc51  1  0.70350278  0.30169377  0.29771661  1
  Sc  Sc52  1  0.70652700  0.70462301  0.69364971  1
  Sc  Sc53  1  0.29530811  0.49957085  0.29633283  1
  Sc  Sc54  1  0.50558022  0.09383836  0.29851782  1
  Sc  Sc55  1  0.50114816  0.68182864  0.49594858  1
  Sc  Sc56  1  0.30527002  0.50101266  0.49945634  1
  Sc  Sc57  1  0.89451730  0.90065631  0.69850699  1
  Sc  Sc58  1  0.49359044  0.29494805  0.10489298  1
  Sc  Sc59  1  0.09327596  0.89336649  0.90015006  1
  Sc  Sc60  1  0.30029073  0.10154792  0.10205383  1
  Sc  Sc61  1  0.69425056  0.09982815  0.50109021  1
  Sc  Sc62  1  0.49980592  0.29801342  0.70964078  1
  Sc  Sc63  1  0.30833649  0.29864176  0.89718032  1
  Sc  Sc64  1  0.50048692  0.30309362  0.29565046  1
  Sc  Sc65  1  0.89750471  0.30101666  0.10042715  1
  Sc  Sc66  1  0.09722282  0.69770365  0.89584281  1
  Sc  Sc67  1  0.29619008  0.90445851  0.90399589  1
  Sc  Sc68  1  0.50204058  0.92005229  0.49861149  1
  Sc  Sc69  1  0.29836442  0.50120513  0.70048261  1
  Sc  Sc70  1  0.29541979  0.90622768  0.29862760  1
  Sc  Sc71  1  0.49630349  0.50570476  0.10673590  1
  Sc  Sc72  1  0.29014734  0.69703773  0.49949026  1
  Sc  Sc73  1  0.89688464  0.89086342  0.89510140  1
  Sc  Sc74  1  0.10645802  0.89472961  0.09940841  1
  Sc  Sc75  1  0.09101587  0.90331351  0.70181636  1
  Sc  Sc76  1  0.09340399  0.10156824  0.70390476  1
  Sc  Sc77  1  0.30056194  0.68798466  0.90443445  1
  Sc  Sc78  1  0.91137634  0.50094556  0.69946864  1
  Sc  Sc79  1  0.70337687  0.29502542  0.10582690  1
  Sc  Sc80  1  0.30232518  0.30143696  0.29202403  1
  Sc  Sc81  1  0.90008466  0.28498762  0.70253205  1
  Sc  Sc82  1  0.90082333  0.29504190  0.90631738  1
  Sc  Sc83  1  0.89848907  0.50002022  0.49823422  1
  Sc  Sc84  1  0.10247754  0.29830064  0.90211738  1
  Sc  Sc85  1  0.50326816  0.10354298  0.91127025  1
  Sc  Sc86  1  0.89464456  0.10723532  0.89739314  1
  Sc  Sc87  1  0.29444309  0.89884878  0.49628475  1
  Sc  Sc88  1  0.11000155  0.10787031  0.10459895  1
  Sc  Sc89  1  0.29459156  0.29835007  0.70665798  1
  Sc  Sc90  1  0.69864912  0.09765985  0.09487766  1
  Sc  Sc91  1  0.10048419  0.90081354  0.49237447  1
  Sc  Sc92  1  0.89646983  0.29880785  0.29980273  1
  Sc  Sc93  1  0.70365284  0.09915371  0.70497933  1
  Sc  Sc94  1  0.89717454  0.09916927  0.30846188  1
  Sc  Sc95  1  0.09889124  0.50154277  0.70524413  1
  Sc  Sc96  1  0.69702553  0.49787439  0.29628888  1
  Sc  Sc97  1  0.70794639  0.69830639  0.49439705  1
  Sc  Sc98  1  0.69668564  0.28251424  0.89582196  1
  Sc  Sc99  1  0.90099722  0.70368192  0.70352725  1
  Nb  Nb100  1  0.70302008  0.70052000  0.29958751  1
  Nb  Nb101  1  0.49908536  0.09872324  0.10305874  1
  Nb  Nb102  1  0.69685798  0.90320895  0.90266806  1
  Nb  Nb103  1  0.50022035  0.29641127  0.50193226  1
  Nb  Nb104  1  0.89992663  0.69999149  0.09893720  1
  Nb  Nb105  1  0.70406522  0.89926134  0.09607802  1
  Nb  Nb106  1  0.69960110  0.09258329  0.90139739  1
  Nb  Nb107  1  0.48677007  0.49400048  0.90228518  1
  Nb  Nb108  1  0.70052457  0.49800584  0.09861395  1
  Nb  Nb109  1  0.30724165  0.49619883  0.90777734  1
  Nb  Nb110  1  0.09631470  0.50580657  0.29912901  1
  Nb  Nb111  1  0.90349683  0.29476543  0.49978550  1
  Nb  Nb112  1  0.90003126  0.70622731  0.29980894  1
  Nb  Nb113  1  0.90631623  0.09500146  0.68945683  1
  Nb  Nb114  1  0.89715700  0.70428982  0.49618996  1
  Nb  Nb115  1  0.89891346  0.90248657  0.29953603  1
  Nb  Nb116  1  0.30147046  0.70776705  0.69184099  1
  Nb  Nb117  1  0.30272736  0.89939085  0.69501414  1
  Nb  Nb118  1  0.49475468  0.70353890  0.10696439  1
  Nb  Nb119  1  0.30816509  0.70075722  0.10314415  1
  Nb  Nb120  1  0.90908596  0.10302486  0.50932885  1
  Nb  Nb121  1  0.09888593  0.69970762  0.30137708  1
  Nb  Nb122  1  0.49798681  0.30973451  0.90567002  1
  Nb  Nb123  1  0.50051880  0.10434386  0.50068718  1
  Nb  Nb124  1  0.49329160  0.70586719  0.69820084  1
  Nb  Nb125  1  -0.00180647  0.60611536  0.39285313  1
  Nb  Nb126  1  0.40554268  0.79464123  0.00405579  1
  Nb  Nb127  1  0.60756678  0.80036626  0.19595614  1
  Nb  Nb128  1  0.59574899  0.40050589  -0.00268812  1
  Nb  Nb129  1  -0.00413260  -0.00309780  0.19830905  1
  Nb  Nb130  1  0.40273948  0.79919941  0.59573345  1
  Nb  Nb131  1  0.39962949  -0.00001709  0.79864951  1
  Nb  Nb132  1  0.40338917  0.79913454  0.40157234  1
  Nb  Nb133  1  0.79783507  0.40359788  0.80264922  1
  Nb  Nb134  1  0.79987809  0.79772464  0.20053834  1
  Nb  Nb135  1  0.80212720  0.59453468  0.80513584  1
  Nb  Nb136  1  0.59791633  0.80176525  0.00462645  1
  Nb  Nb137  1  0.60030902  0.39729154  0.59997323  1
  Nb  Nb138  1  0.80410398  0.60512537  0.19761693  1
  Nb  Nb139  1  0.40325056  0.19756175  0.59531328  1
  Nb  Nb140  1  0.79832284  0.39338055  0.60171758  1
  Nb  Nb141  1  0.78696884  0.40633880  -0.00838643  1
  Nb  Nb142  1  0.19904886  -0.00050608  0.60323684  1
  Nb  Nb143  1  0.20643367  0.79836699  0.79077952  1
  Nb  Nb144  1  -0.00292433  0.79907958  0.59103039  1
  Nb  Nb145  1  0.59088025  0.79955390  0.59940181  1
  Nb  Nb146  1  0.40393304  0.19942915  0.40629838  1
  Nb  Nb147  1  0.20748062  0.40495623  -0.00069810  1
  Nb  Nb148  1  -0.00264591  0.00257739  0.00604625  1
  Nb  Nb149  1  -0.00186744  0.60749400  0.20306543  1
  Pd  Pd150  1  0.80170209  0.59375201  -0.00520277  1
  Pd  Pd151  1  0.61007139  -0.00210104  0.19647004  1
  Pd  Pd152  1  0.00028505  0.19385817  0.00549152  1
  Pd  Pd153  1  0.19319531  -0.00047543  0.00672731  1
  Pd  Pd154  1  -0.00544084  0.38959385  0.80026073  1
  Pd  Pd155  1  0.20010253  -0.00920137  0.79601899  1
  Pd  Pd156  1  0.81093754  0.59650552  0.60544148  1
  Pd  Pd157  1  0.39912575  0.00103159  0.39271214  1
  Pd  Pd158  1  0.59738112  0.39891250  0.19092512  1
  Pd  Pd159  1  -0.00381485  0.19322419  0.20456339  1
  Pd  Pd160  1  0.20732895  0.60460833  0.79813229  1
  Pd  Pd161  1  0.41023894  0.19083519  0.79714322  1
  Pd  Pd162  1  0.20519768  0.40163055  0.39784476  1
  Pd  Pd163  1  0.60184471  0.39664074  0.80174845  1
  Pd  Pd164  1  0.19980081  0.19348636  0.60156467  1
  Pd  Pd165  1  0.59857248  0.19805063  0.20011589  1
  Pd  Pd166  1  0.80753121  0.00339667  0.80367922  1
  Pd  Pd167  1  0.20789017  0.79484539  -0.01121385  1
  Pd  Pd168  1  0.00983913  0.60778582  0.00569349  1
  Pd  Pd169  1  0.59504609  0.19740941  0.38846884  1
  Pd  Pd170  1  0.59295446  0.79443105  0.40673069  1
  Pd  Pd171  1  0.59128265  0.19045852  0.80323199  1
  Pd  Pd172  1  0.60079167  0.60472300  0.60167633  1
  Pd  Pd173  1  0.00122963  0.19914625  0.80002292  1
  Pd  Pd174  1  0.39595437  0.39259234  0.39395486  1
  Pd  Pd175  1  0.40019595  0.19920345  0.00230741  1
  Pd  Pd176  1  0.60037439  0.20461863  0.00689259  1
  Pd  Pd177  1  0.20273141  0.59139665  0.59650078  1
  Pd  Pd178  1  0.20619839  0.20912561  0.39781042  1
  Pd  Pd179  1  0.80585268  -0.00101775  -0.00869952  1
  Pd  Pd180  1  -0.00322303  0.60723027  0.59099380  1
  Pd  Pd181  1  0.80315982  0.19664729  0.40543696  1
  Pd  Pd182  1  0.39734038  0.00488555  0.20558300  1
  Pd  Pd183  1  -0.00279463  0.40141603  0.20182067  1
  Pd  Pd184  1  0.38997141  0.80319287  0.80683379  1
  Pd  Pd185  1  0.39082302  0.60442614  0.39793100  1
  Pd  Pd186  1  0.79556500  0.00407235  0.59914407  1
  Pd  Pd187  1  0.79982711  0.39334361  0.40820391  1
  Pd  Pd188  1  0.80124553  0.19694112  0.59751470  1
  Pd  Pd189  1  -0.00956956  0.00114568  0.80876378  1
  Pd  Pd190  1  -0.00149849  0.80110385  0.19536440  1
  Pd  Pd191  1  0.40661366  0.39455177  0.61233306  1
  Pd  Pd192  1  0.19717231  0.40901479  0.60247773  1
  Pd  Pd193  1  0.39577171  0.40131974  0.79338346  1
  Pd  Pd194  1  0.39819851  -0.00153991  -0.00467537  1
  Pd  Pd195  1  0.38800851  0.60000809  0.79539124  1
  Pd  Pd196  1  0.58575010  0.59928501  0.00683177  1
  Pd  Pd197  1  0.19846998  0.39864497  0.19479901  1
  Pd  Pd198  1  0.60192393  0.39803717  0.40220271  1
  Pd  Pd199  1  -0.00726676  0.39407825  0.60250757  1
  Rh  Rh200  1  0.19307767  0.20415800  0.80422256  1
  Rh  Rh201  1  0.39786387  0.59704814  0.20699650  1
  Rh  Rh202  1  0.00632316  0.39269096  -0.00187220  1
  Rh  Rh203  1  0.20625139  0.21067006  -0.00046302  1
  Rh  Rh204  1  0.19618234  0.59405983  0.39785105  1
  Rh  Rh205  1  0.79312883  0.20551783  -0.00134945  1
  Rh  Rh206  1  0.79771339  0.79776223  0.79931365  1
  Rh  Rh207  1  0.40219015  0.40606547  0.20003418  1
  Rh  Rh208  1  -0.00660406  0.79815642  0.40422570  1
  Rh  Rh209  1  0.40103294  0.39841462  0.00861039  1
  Rh  Rh210  1  0.80268592  0.19339541  0.79889579  1
  Rh  Rh211  1  0.59343587  0.20465388  0.60617562  1
  Rh  Rh212  1  0.00452807  -0.00743846  0.59786615  1
  Rh  Rh213  1  0.60250801  -0.00081617  0.00233369  1
  Rh  Rh214  1  0.60719915  0.79509686  0.79639312  1
  Rh  Rh215  1  0.40629023  0.19124133  0.20790297  1
  Rh  Rh216  1  0.40709454  0.60680981  0.00065941  1
  Rh  Rh217  1  -0.00609638  0.40443079  0.39941692  1
  Rh  Rh218  1  0.19063101  -0.00222642  0.19786896  1
  Rh  Rh219  1  0.80275261  0.80273626  0.59815760  1
  Rh  Rh220  1  0.80006920  0.40370519  0.19190361  1
  Rh  Rh221  1  0.79374229  0.80197137  0.00029596  1
  Rh  Rh222  1  0.19506937  -0.00169720  0.40312176  1
  Rh  Rh223  1  -0.00197122  0.00340737  0.39342516  1
  Rh  Rh224  1  0.00513895  0.20533066  0.60488703  1
  Rh  Rh225  1  0.21003595  0.80155490  0.39297988  1
  Rh  Rh226  1  0.61139541  -0.00780517  0.59634449  1
  Rh  Rh227  1  0.19451735  0.20918930  0.20420457  1
  Rh  Rh228  1  0.20708793  0.40090921  0.80825499  1
  Rh  Rh229  1  0.80325769  0.60356196  0.39192957  1
  Rh  Rh230  1  0.39643030  0.60439649  0.60094961  1
  Rh  Rh231  1  0.80515015  0.80018236  0.39639362  1
  Rh  Rh232  1  0.60726789  0.59656830  0.39417439  1
  Rh  Rh233  1  0.79943402  0.20139457  0.20312179  1
  Rh  Rh234  1  0.60744519  0.60153883  0.20126789  1
  Rh  Rh235  1  0.59552095  0.00977836  0.80823207  1
  Rh  Rh236  1  0.19993851  0.59729695  0.00052537  1
  Rh  Rh237  1  0.19621649  0.60153678  0.20051295  1
  Rh  Rh238  1  0.80323716  -0.00610800  0.20041291  1
  Rh  Rh239  1  -0.00656409  0.20092566  0.39810488  1
  Rh  Rh240  1  0.60765103  0.61272477  0.78526673  1
  Rh  Rh241  1  0.40413262  0.80333181  0.20524009  1
  Rh  Rh242  1  0.80195305  0.00874539  0.40856693  1
  Rh  Rh243  1  0.00483029  0.80271511  0.00342165  1
  Rh  Rh244  1  0.20182971  0.80144577  0.20457761  1
  Rh  Rh245  1  0.00760113  0.79466893  0.78816947  1
  Rh  Rh246  1  0.39072913  0.00144863  0.60247092  1
  Rh  Rh247  1  -0.00371730  0.60617885  0.79823030  1
  Rh  Rh248  1  0.19532094  0.81144186  0.60452851  1
  Rh  Rh249  1  0.60634045  0.00668899  0.40162898  1
