# generated using pymatgen
data_ZrScNbPdRh
_symmetry_space_group_name_H-M   'P 1'
_cell_length_a   16.55449705
_cell_length_b   16.55847439
_cell_length_c   16.55272344
_cell_angle_alpha   89.97570882
_cell_angle_beta   90.01180646
_cell_angle_gamma   89.99269780
_symmetry_Int_Tables_number   1
_chemical_formula_structural   ZrScNbPdRh
_chemical_formula_sum   'Zr50 Sc50 Nb50 Pd50 Rh50'
_cell_volume   4537.38591524
_cell_formula_units_Z   50
loop_
 _symmetry_equiv_pos_site_id
 _symmetry_equiv_pos_as_xyz
  1  'x, y, z'
loop_
 _atom_site_type_symbol
 _atom_site_label
 _atom_site_symmetry_multiplicity
 _atom_site_fract_x
 _atom_site_fract_y
 _atom_site_fract_z
 _atom_site_occupancy
  Zr  Zr0  1  0.50774154  0.89913068  0.50082030  1
  Zr  Zr1  1  0.69788070  0.70709097  0.49488653  1
  Zr  Zr2  1  0.09676239  0.69835879  0.29852179  1
  Zr  Zr3  1  0.29908192  0.69622123  0.69777140  1
  Zr  Zr4  1  0.70492993  0.69368073  0.10933235  1
  Zr  Zr5  1  0.69865636  0.49051532  0.89924399  1
  Zr  Zr6  1  0.30435029  0.10333756  0.10511782  1
  Zr  Zr7  1  0.09590154  0.70271091  0.90095036  1
  Zr  Zr8  1  0.10491290  0.09986157  0.69977805  1
  Zr  Zr9  1  0.70309036  0.49603180  0.29660427  1
  Zr  Zr10  1  0.89485471  0.89350064  0.50338299  1
  Zr  Zr11  1  0.89898782  0.89826710  0.70219656  1
  Zr  Zr12  1  0.09522392  0.50650649  0.90404118  1
  Zr  Zr13  1  0.69824123  0.69892989  0.90071579  1
  Zr  Zr14  1  0.29507253  0.30277569  0.29815685  1
  Zr  Zr15  1  0.89919938  0.49307025  0.50543890  1
  Zr  Zr16  1  0.29942102  0.10209196  0.90304151  1
  Zr  Zr17  1  0.89992564  0.10299914  0.90891783  1
  Zr  Zr18  1  0.89170064  0.09820395  0.70082588  1
  Zr  Zr19  1  0.49781750  0.30993810  0.09602824  1
  Zr  Zr20  1  0.50085652  0.09776745  0.10300507  1
  Zr  Zr21  1  0.10676104  0.89748408  0.10012356  1
  Zr  Zr22  1  0.70049871  0.09586891  0.29779658  1
  Zr  Zr23  1  0.49852449  0.69702880  0.69963781  1
  Zr  Zr24  1  0.90140366  0.50173248  0.10190951  1
  Zr  Zr25  1  0.89990650  0.69557015  0.70873297  1
  Zr  Zr26  1  0.50026074  0.70261400  0.89909035  1
  Zr  Zr27  1  0.29578506  0.90044439  0.70114069  1
  Zr  Zr28  1  0.29449487  0.50166898  0.90660406  1
  Zr  Zr29  1  0.30497596  0.48962290  0.10357938  1
  Zr  Zr30  1  0.10248815  0.50685796  0.09924367  1
  Zr  Zr31  1  0.10467208  0.28930397  0.10428779  1
  Zr  Zr32  1  0.10365716  0.89462276  0.70175965  1
  Zr  Zr33  1  0.49545982  0.30362100  0.69953012  1
  Zr  Zr34  1  0.30480964  0.70354146  0.90130619  1
  Zr  Zr35  1  0.29580607  0.89639975  0.90380199  1
  Zr  Zr36  1  0.29471553  0.30435940  0.89892850  1
  Zr  Zr37  1  0.10513817  0.89851999  0.49647297  1
  Zr  Zr38  1  0.10215314  0.89399211  0.29764604  1
  Zr  Zr39  1  0.89561639  0.69816993  0.49593858  1
  Zr  Zr40  1  0.30160338  0.90798958  0.49699842  1
  Zr  Zr41  1  0.30235588  0.49855176  0.69340248  1
  Zr  Zr42  1  0.50290262  0.89887135  0.90547161  1
  Zr  Zr43  1  0.70570902  0.10018801  0.10005729  1
  Zr  Zr44  1  0.30773471  0.29956068  0.69528996  1
  Zr  Zr45  1  0.29873167  0.69724819  0.30190298  1
  Zr  Zr46  1  0.69493331  0.89660727  0.49819225  1
  Zr  Zr47  1  0.89881338  0.10773320  0.10616173  1
  Zr  Zr48  1  0.50841785  0.90187832  0.30327349  1
  Zr  Zr49  1  0.90192878  0.69859800  0.89520667  1
  Sc  Sc50  1  0.89088021  0.30428372  0.29017855  1
  Sc  Sc51  1  0.10261116  0.49294543  0.49680878  1
  Sc  Sc52  1  0.88818943  0.10325042  0.50692011  1
  Sc  Sc53  1  0.90162875  0.50251395  0.30452055  1
  Sc  Sc54  1  0.29766765  0.68736809  0.49820677  1
  Sc  Sc55  1  0.50582726  0.30773759  0.89257982  1
  Sc  Sc56  1  0.10841717  0.30696479  0.69552419  1
  Sc  Sc57  1  0.68977738  0.30891502  0.48989539  1
  Sc  Sc58  1  0.89651451  0.89843371  0.29652300  1
  Sc  Sc59  1  0.30479970  0.49609340  0.30555465  1
  Sc  Sc60  1  0.09917110  0.09891652  0.10140571  1
  Sc  Sc61  1  0.89178740  0.50711342  0.89319569  1
  Sc  Sc62  1  0.89327212  0.89699831  0.89720957  1
  Sc  Sc63  1  0.29385943  0.89596543  0.29457441  1
  Sc  Sc64  1  0.10475887  0.10569299  0.90959880  1
  Sc  Sc65  1  0.30042037  0.50396307  0.49667932  1
  Sc  Sc66  1  0.10247355  0.49714159  0.69161187  1
  Sc  Sc67  1  0.49884480  0.30576526  0.31570390  1
  Sc  Sc68  1  0.89983007  0.69866784  0.10400209  1
  Sc  Sc69  1  0.69141340  0.69236068  0.69956506  1
  Sc  Sc70  1  0.69492913  0.09590760  0.50058393  1
  Sc  Sc71  1  0.29848721  0.70880589  0.09578033  1
  Sc  Sc72  1  0.09181899  0.69862200  0.09375183  1
  Sc  Sc73  1  0.70440318  0.10204479  0.69858778  1
  Sc  Sc74  1  0.49036399  0.09517614  0.49735694  1
  Sc  Sc75  1  0.49928037  0.90285799  0.09985575  1
  Sc  Sc76  1  0.70674957  0.49651890  0.09889078  1
  Sc  Sc77  1  0.69806115  0.89845344  0.90427291  1
  Sc  Sc78  1  0.10302134  0.49630180  0.30463194  1
  Sc  Sc79  1  0.49707690  0.10191065  0.90468114  1
  Sc  Sc80  1  0.49324074  0.49481868  0.90386839  1
  Sc  Sc81  1  0.11246879  0.10609133  0.29508430  1
  Sc  Sc82  1  0.70303187  0.90496480  0.69559581  1
  Sc  Sc83  1  0.70125802  0.89969984  0.10032176  1
  Sc  Sc84  1  0.10358250  0.69775108  0.49446999  1
  Sc  Sc85  1  0.49712280  0.90660333  0.69454574  1
  Sc  Sc86  1  0.90202811  0.90361693  0.10581875  1
  Sc  Sc87  1  0.30985743  0.30284079  0.49007369  1
  Sc  Sc88  1  0.49180233  0.69813084  0.10452868  1
  Sc  Sc89  1  0.70319655  0.09687332  0.90358077  1
  Sc  Sc90  1  0.31211131  0.09929122  0.69755655  1
  Sc  Sc91  1  0.49819996  0.49421996  0.49795423  1
  Sc  Sc92  1  0.09757218  0.70221797  0.70199805  1
  Sc  Sc93  1  0.89771992  0.30664400  0.49865424  1
  Sc  Sc94  1  0.30105615  0.30018337  0.10362380  1
  Sc  Sc95  1  0.70550936  0.89802870  0.30738235  1
  Sc  Sc96  1  0.69895175  0.49851332  0.50121981  1
  Sc  Sc97  1  0.50503468  0.69351994  0.50356788  1
  Sc  Sc98  1  0.89243032  0.30976318  0.68924700  1
  Sc  Sc99  1  0.50253309  0.49677774  0.69524393  1
  Nb  Nb100  1  0.50324849  0.49930501  0.10439026  1
  Nb  Nb101  1  0.10118216  0.89973538  0.89796097  1
  Nb  Nb102  1  0.89980751  0.29845835  0.90541892  1
  Nb  Nb103  1  0.49888472  0.50637597  0.29184238  1
  Nb  Nb104  1  0.69096533  0.30712248  0.71303380  1
  Nb  Nb105  1  0.10102345  0.10045600  0.49535529  1
  Nb  Nb106  1  0.70937469  0.49034421  0.70659139  1
  Nb  Nb107  1  0.70968146  0.30300243  0.10243560  1
  Nb  Nb108  1  0.89720565  0.09905536  0.30093124  1
  Nb  Nb109  1  0.50282325  0.30565787  0.50887684  1
  Nb  Nb110  1  0.29649716  0.89625072  0.09876973  1
  Nb  Nb111  1  0.09680074  0.29804290  0.90029300  1
  Nb  Nb112  1  0.31326551  0.10689658  0.30669466  1
  Nb  Nb113  1  0.50247549  0.09971608  0.29488527  1
  Nb  Nb114  1  0.89782247  0.49979211  0.69964639  1
  Nb  Nb115  1  0.49881468  0.69372087  0.29826894  1
  Nb  Nb116  1  0.10590044  0.30115676  0.30160511  1
  Nb  Nb117  1  0.49913185  0.10765258  0.69891689  1
  Nb  Nb118  1  0.89304861  0.69840608  0.29718401  1
  Nb  Nb119  1  0.89592072  0.29783557  0.09559268  1
  Nb  Nb120  1  0.09962684  0.29680702  0.49093093  1
  Nb  Nb121  1  0.70302723  0.69724427  0.29812615  1
  Nb  Nb122  1  0.69746325  0.30160239  0.29772848  1
  Nb  Nb123  1  0.29532698  0.10245489  0.49121915  1
  Nb  Nb124  1  0.70242942  0.30619738  0.90446692  1
  Nb  Nb125  1  -0.00234093  0.39241182  -0.00038334  1
  Nb  Nb126  1  -0.00289865  0.19712339  0.39832318  1
  Nb  Nb127  1  0.20096487  0.59997111  0.19781981  1
  Nb  Nb128  1  -0.00355827  0.20463134  0.79739080  1
  Nb  Nb129  1  0.60059194  0.39835924  0.20015483  1
  Nb  Nb130  1  0.60015864  0.60136775  0.38776504  1
  Nb  Nb131  1  -0.00323308  0.39476495  0.80412641  1
  Nb  Nb132  1  0.00227114  0.00346009  0.79993986  1
  Nb  Nb133  1  0.80019727  0.21185264  0.80483529  1
  Nb  Nb134  1  0.00352416  0.00243977  0.59729463  1
  Nb  Nb135  1  0.60119026  0.79055354  0.20822379  1
  Nb  Nb136  1  0.60173028  0.20653633  0.20085026  1
  Nb  Nb137  1  0.00398603  0.39373460  0.19398227  1
  Nb  Nb138  1  0.20133560  0.19772932  0.58664382  1
  Nb  Nb139  1  0.59766123  0.59667977  0.00459452  1
  Nb  Nb140  1  -0.00012992  0.00714227  0.40281804  1
  Nb  Nb141  1  0.59296940  0.20653254  0.60444043  1
  Nb  Nb142  1  0.20166780  0.59992127  0.80222350  1
  Nb  Nb143  1  0.40487716  0.79605816  0.40115190  1
  Nb  Nb144  1  0.39877398  0.80056106  0.59428536  1
  Nb  Nb145  1  0.60720530  0.20880492  0.00610719  1
  Nb  Nb146  1  0.59600436  0.00613238  0.79824677  1
  Nb  Nb147  1  0.00736995  0.19950132  0.59544470  1
  Nb  Nb148  1  0.79776404  0.20133618  0.39330825  1
  Nb  Nb149  1  -0.00814312  0.59645835  0.59977684  1
  Pd  Pd150  1  0.00162133  0.59713193  0.40529082  1
  Pd  Pd151  1  0.20319321  0.00728527  0.59909985  1
  Pd  Pd152  1  0.60218943  0.59129619  0.59423098  1
  Pd  Pd153  1  0.79729243  0.59929063  -0.00232942  1
  Pd  Pd154  1  0.78581612  0.21321110  0.59654664  1
  Pd  Pd155  1  -0.00128682  0.20430528  0.20902679  1
  Pd  Pd156  1  0.20678518  0.39208194  0.58620948  1
  Pd  Pd157  1  0.00182086  0.79418487  0.59893237  1
  Pd  Pd158  1  -0.00530497  0.80345092  0.39571027  1
  Pd  Pd159  1  0.80375310  0.00278187  0.40641600  1
  Pd  Pd160  1  0.19785066  0.00480626  0.80593365  1
  Pd  Pd161  1  0.19324479  0.39307797  0.00481107  1
  Pd  Pd162  1  0.79437786  0.59471955  0.40024272  1
  Pd  Pd163  1  0.38859972  0.60033284  0.19475488  1
  Pd  Pd164  1  0.78763849  0.79822329  0.79574752  1
  Pd  Pd165  1  0.19826740  0.00242196  0.38800610  1
  Pd  Pd166  1  -0.00460381  0.39188121  0.38971364  1
  Pd  Pd167  1  0.00245889  0.00317252  0.20814325  1
  Pd  Pd168  1  0.78650613  0.39317130  0.59667873  1
  Pd  Pd169  1  0.59807163  0.79034560  0.01518997  1
  Pd  Pd170  1  0.79256089  0.79350452  0.60936604  1
  Pd  Pd171  1  0.80437921  0.80047095  0.00693008  1
  Pd  Pd172  1  0.40612159  0.20998974  -0.00594573  1
  Pd  Pd173  1  0.60714128  0.19355706  0.80413151  1
  Pd  Pd174  1  0.39677711  -0.00362409  0.00292360  1
  Pd  Pd175  1  0.80306546  -0.00790494  0.00282605  1
  Pd  Pd176  1  0.59956774  0.01033076  0.60602598  1
  Pd  Pd177  1  0.40852059  0.20253963  0.40320248  1
  Pd  Pd178  1  0.59862342  0.58964903  0.80658129  1
  Pd  Pd179  1  0.79914358  0.60154211  0.60343522  1
  Pd  Pd180  1  -0.00336927  0.79631674  0.19780196  1
  Pd  Pd181  1  0.19462634  0.40738724  0.80038002  1
  Pd  Pd182  1  0.40195364  -0.00565709  0.39235850  1
  Pd  Pd183  1  0.60695462  -0.00599067  0.19955641  1
  Pd  Pd184  1  0.40895398  0.20926079  0.20654881  1
  Pd  Pd185  1  0.39305315  -0.00711148  0.20382652  1
  Pd  Pd186  1  0.40520106  0.80538668  0.20466236  1
  Pd  Pd187  1  0.20721860  0.00590596  0.20385500  1
  Pd  Pd188  1  0.40030653  0.20275776  0.80801171  1
  Pd  Pd189  1  0.40337931  0.80647722  0.79238659  1
  Pd  Pd190  1  0.40575806  -0.00116480  0.80213346  1
  Pd  Pd191  1  0.00098529  -0.00519280  -0.00376426  1
  Pd  Pd192  1  0.19975179  0.20098159  0.79295284  1
  Pd  Pd193  1  0.39761161  0.59089742  0.79931519  1
  Pd  Pd194  1  -0.00728732  0.80656147  0.00035121  1
  Pd  Pd195  1  0.60296134  0.81201337  0.79161723  1
  Pd  Pd196  1  0.40345050  0.59828032  0.00660773  1
  Pd  Pd197  1  0.59908085  0.19478130  0.40244645  1
  Pd  Pd198  1  0.20648081  0.79180040  0.59185795  1
  Pd  Pd199  1  0.20087783  0.00278698  0.00447120  1
  Rh  Rh200  1  0.39966406  0.19769557  0.58965707  1
  Rh  Rh201  1  0.39734369  0.39770017  -0.00408987  1
  Rh  Rh202  1  0.80765392  0.39496407  0.80181975  1
  Rh  Rh203  1  0.59464743  0.41215985  0.39147384  1
  Rh  Rh204  1  0.00350740  0.59586221  0.20634410  1
  Rh  Rh205  1  0.19899854  0.79173037  0.80503796  1
  Rh  Rh206  1  0.20898745  0.19527535  0.20253523  1
  Rh  Rh207  1  -0.01263850  0.59833196  -0.00207902  1
  Rh  Rh208  1  0.18831789  0.60249028  0.60575963  1
  Rh  Rh209  1  0.79288153  0.20282320  -0.00342653  1
  Rh  Rh210  1  0.40828318  0.39585195  0.20737812  1
  Rh  Rh211  1  0.40477882  0.60174046  0.59761982  1
  Rh  Rh212  1  0.80110023  0.39465393  0.40029415  1
  Rh  Rh213  1  0.39767705  0.40305299  0.80039945  1
  Rh  Rh214  1  0.79073801  0.60032931  0.79719970  1
  Rh  Rh215  1  0.59454522  0.79859466  0.60694233  1
  Rh  Rh216  1  0.00287916  0.39925459  0.60581399  1
  Rh  Rh217  1  0.39607249  0.00139288  0.59872660  1
  Rh  Rh218  1  0.60142010  0.59737733  0.19734904  1
  Rh  Rh219  1  0.19759686  0.59596990  0.39129934  1
  Rh  Rh220  1  0.80036190  -0.00573721  0.59343416  1
  Rh  Rh221  1  0.80500503  0.79818086  0.39336793  1
  Rh  Rh222  1  0.79597308  0.80175463  0.20192406  1
  Rh  Rh223  1  0.40906950  0.60077617  0.40207213  1
  Rh  Rh224  1  0.20462134  0.39962840  0.40173252  1
  Rh  Rh225  1  0.40216133  0.80697827  0.00411206  1
  Rh  Rh226  1  0.60255559  0.40193255  0.00744565  1
  Rh  Rh227  1  0.59545831  0.40797752  0.79746539  1
  Rh  Rh228  1  0.80765820  0.40201499  -0.00055057  1
  Rh  Rh229  1  0.80878067  0.59555443  0.20451014  1
  Rh  Rh230  1  0.00861025  0.58832870  0.78855990  1
  Rh  Rh231  1  0.59528071  0.78889003  0.39208075  1
  Rh  Rh232  1  0.79658422  0.00539965  0.80502609  1
  Rh  Rh233  1  0.20011700  0.20170474  0.39758881  1
  Rh  Rh234  1  0.80063347  -0.00272636  0.19802757  1
  Rh  Rh235  1  0.60382287  0.39840865  0.60545832  1
  Rh  Rh236  1  0.00117613  0.81081264  0.80496913  1
  Rh  Rh237  1  0.19470292  0.79053542  0.19342478  1
  Rh  Rh238  1  0.80279678  0.40437789  0.19868310  1
  Rh  Rh239  1  0.19521518  0.79932197  -0.00093803  1
  Rh  Rh240  1  0.20653906  0.61056930  0.00038105  1
  Rh  Rh241  1  0.59772312  0.00850184  0.39981799  1
  Rh  Rh242  1  0.40369422  0.40461183  0.39949365  1
  Rh  Rh243  1  0.39668836  0.40377382  0.59459475  1
  Rh  Rh244  1  0.19308180  0.40711427  0.20175521  1
  Rh  Rh245  1  0.20478312  0.19987254  0.00364395  1
  Rh  Rh246  1  0.79689767  0.19903354  0.20606828  1
  Rh  Rh247  1  0.00353776  0.20163036  0.00154420  1
  Rh  Rh248  1  0.59899486  0.00816798  -0.00608989  1
  Rh  Rh249  1  0.20928160  0.79642020  0.40335205  1
