# generated using pymatgen
data_ZrScNbPdRh
_symmetry_space_group_name_H-M   'P 1'
_cell_length_a   16.55510845
_cell_length_b   16.55700085
_cell_length_c   16.55674335
_cell_angle_alpha   89.99335240
_cell_angle_beta   90.00613314
_cell_angle_gamma   90.03829696
_symmetry_Int_Tables_number   1
_chemical_formula_structural   ZrScNbPdRh
_chemical_formula_sum   'Zr50 Sc50 Nb50 Pd50 Rh50'
_cell_volume   4538.25103623
_cell_formula_units_Z   50
loop_
 _symmetry_equiv_pos_site_id
 _symmetry_equiv_pos_as_xyz
  1  'x, y, z'
loop_
 _atom_site_type_symbol
 _atom_site_label
 _atom_site_symmetry_multiplicity
 _atom_site_fract_x
 _atom_site_fract_y
 _atom_site_fract_z
 _atom_site_occupancy
  Zr  Zr0  1  0.09130642  0.10683956  0.10386205  1
  Zr  Zr1  1  0.48812401  0.49850627  0.90333014  1
  Zr  Zr2  1  0.69769943  0.49538222  0.30249950  1
  Zr  Zr3  1  0.10124970  0.69474642  0.30012911  1
  Zr  Zr4  1  0.10409459  0.69923198  0.10208819  1
  Zr  Zr5  1  0.30297141  0.29420107  0.69434894  1
  Zr  Zr6  1  0.30583010  0.90421054  0.69999728  1
  Zr  Zr7  1  0.50069728  0.51056779  0.69833928  1
  Zr  Zr8  1  0.69703804  0.10269744  0.90244560  1
  Zr  Zr9  1  0.29775405  0.49550464  0.49502602  1
  Zr  Zr10  1  0.90004855  0.48538242  0.49218036  1
  Zr  Zr11  1  0.29726768  0.69832060  0.90554558  1
  Zr  Zr12  1  0.11086617  0.29849013  0.49023338  1
  Zr  Zr13  1  0.69625894  0.90149096  0.29948453  1
  Zr  Zr14  1  0.50053257  0.69537466  0.89085436  1
  Zr  Zr15  1  0.69919470  0.71156370  0.49915759  1
  Zr  Zr16  1  0.49745160  0.89891751  0.70260563  1
  Zr  Zr17  1  0.49530110  0.69220370  0.09905984  1
  Zr  Zr18  1  0.69972361  0.29894836  0.89842965  1
  Zr  Zr19  1  0.90689958  0.09158625  0.91008114  1
  Zr  Zr20  1  0.30286334  0.89829286  0.90118360  1
  Zr  Zr21  1  0.49277820  0.89678053  0.50208828  1
  Zr  Zr22  1  0.11035161  0.90505663  0.68655673  1
  Zr  Zr23  1  0.89587505  0.89243966  0.90264580  1
  Zr  Zr24  1  0.49750888  0.69933975  0.50303560  1
  Zr  Zr25  1  0.09562224  0.69366101  0.49528798  1
  Zr  Zr26  1  0.69705921  0.49064306  0.10284903  1
  Zr  Zr27  1  0.69939149  0.90207899  0.90220791  1
  Zr  Zr28  1  0.08222835  0.09666575  0.30402800  1
  Zr  Zr29  1  0.49735334  0.09103703  0.09750746  1
  Zr  Zr30  1  0.70948126  0.69877047  0.89655660  1
  Zr  Zr31  1  0.29417393  0.50380062  0.69662403  1
  Zr  Zr32  1  0.89256562  0.29982517  0.70058878  1
  Zr  Zr33  1  0.70556624  0.31683165  0.50344820  1
  Zr  Zr34  1  0.69846390  0.90137105  0.50352474  1
  Zr  Zr35  1  0.69574277  0.49882123  0.90121968  1
  Zr  Zr36  1  0.30526172  0.30336861  0.89476313  1
  Zr  Zr37  1  0.09989525  0.09527161  0.50118899  1
  Zr  Zr38  1  0.10162802  0.68363412  0.70089219  1
  Zr  Zr39  1  0.49614337  0.10511452  0.48976366  1
  Zr  Zr40  1  0.30181517  0.69136543  0.30194109  1
  Zr  Zr41  1  0.09435710  0.30296262  0.90119735  1
  Zr  Zr42  1  0.89144257  0.10101795  0.10914081  1
  Zr  Zr43  1  0.29677095  0.30422622  0.10811700  1
  Zr  Zr44  1  0.09566740  0.50301623  0.10199549  1
  Zr  Zr45  1  0.70154730  0.30099550  0.09291867  1
  Zr  Zr46  1  0.29602966  0.89504175  0.51437642  1
  Zr  Zr47  1  0.89541136  0.10210332  0.70000166  1
  Zr  Zr48  1  0.69589325  0.70282858  0.30221607  1
  Zr  Zr49  1  0.50235774  0.89646868  0.29709435  1
  Sc  Sc50  1  0.70539710  0.68287961  0.10083441  1
  Sc  Sc51  1  0.30406962  0.09343635  0.10911302  1
  Sc  Sc52  1  0.50567117  0.10273124  0.29779872  1
  Sc  Sc53  1  0.69882384  0.90972929  0.10382105  1
  Sc  Sc54  1  0.49215389  0.09900544  0.70544957  1
  Sc  Sc55  1  0.29777558  0.30486979  0.30287652  1
  Sc  Sc56  1  0.50242387  0.30741296  0.09969433  1
  Sc  Sc57  1  0.31019224  0.50330853  0.10329739  1
  Sc  Sc58  1  0.30386844  0.89886590  0.09806016  1
  Sc  Sc59  1  0.69161803  0.30441277  0.29242178  1
  Sc  Sc60  1  0.69846420  0.49402665  0.69030905  1
  Sc  Sc61  1  0.49670995  0.29696737  0.89668833  1
  Sc  Sc62  1  0.10654742  0.49796619  0.30446276  1
  Sc  Sc63  1  0.70718940  0.29944765  0.70111100  1
  Sc  Sc64  1  0.29979858  0.50155256  0.29796174  1
  Sc  Sc65  1  0.91169970  0.30295903  0.31088502  1
  Sc  Sc66  1  0.70071623  0.10219966  0.10494876  1
  Sc  Sc67  1  0.49938289  0.90340381  0.09941094  1
  Sc  Sc68  1  0.69811255  0.89879724  0.69825557  1
  Sc  Sc69  1  0.30540206  0.70245213  0.69396330  1
  Sc  Sc70  1  0.89585922  0.50216797  0.09930652  1
  Sc  Sc71  1  0.90152857  0.50589738  0.89687292  1
  Sc  Sc72  1  0.90293749  0.30162926  0.09580930  1
  Sc  Sc73  1  0.89745983  0.69089130  0.70479455  1
  Sc  Sc74  1  0.30759775  0.10478656  0.29585918  1
  Sc  Sc75  1  0.09959971  0.69352218  0.90992157  1
  Sc  Sc76  1  0.50035953  0.49776216  0.09711645  1
  Sc  Sc77  1  0.89638215  0.89559212  0.49826199  1
  Sc  Sc78  1  0.68988182  0.69957838  0.70045437  1
  Sc  Sc79  1  0.70431419  0.10532062  0.70082360  1
  Sc  Sc80  1  0.50512141  0.49519235  0.50014108  1
  Sc  Sc81  1  0.89853450  0.90546433  0.69299639  1
  Sc  Sc82  1  0.89942458  0.09947707  0.50533489  1
  Sc  Sc83  1  0.30133117  0.10985804  0.50498040  1
  Sc  Sc84  1  0.30841360  0.69844963  0.49701780  1
  Sc  Sc85  1  0.90517750  0.49415729  0.29655551  1
  Sc  Sc86  1  0.29976696  0.89418088  0.28754731  1
  Sc  Sc87  1  0.90368502  0.90896919  0.30719730  1
  Sc  Sc88  1  0.89247953  0.30294871  0.89816211  1
  Sc  Sc89  1  0.49697534  0.70047406  0.30661463  1
  Sc  Sc90  1  0.90409795  0.69220355  0.08928922  1
  Sc  Sc91  1  0.10514076  0.30057391  0.29485458  1
  Sc  Sc92  1  0.09558008  0.90212804  0.90348654  1
  Sc  Sc93  1  0.11221217  0.89665142  0.10753513  1
  Sc  Sc94  1  0.49881995  0.30057610  0.30583817  1
  Sc  Sc95  1  0.50448839  0.09647860  0.89923161  1
  Sc  Sc96  1  0.29664759  0.70175851  0.10370590  1
  Sc  Sc97  1  0.89370804  0.90475970  0.09415594  1
  Sc  Sc98  1  0.90456426  0.49961579  0.70618918  1
  Sc  Sc99  1  0.50037119  0.90522944  0.89999274  1
  Nb  Nb100  1  0.10179173  0.30190829  0.69834880  1
  Nb  Nb101  1  0.10174248  0.10010938  0.89839113  1
  Nb  Nb102  1  0.29838026  0.10505296  0.89409750  1
  Nb  Nb103  1  0.70577538  0.49857199  0.49545091  1
  Nb  Nb104  1  0.09775028  0.89950275  0.30638325  1
  Nb  Nb105  1  0.89456800  0.10198452  0.30300126  1
  Nb  Nb106  1  0.89997206  0.70032177  0.49351415  1
  Nb  Nb107  1  0.70271870  0.10174288  0.30020250  1
  Nb  Nb108  1  0.90338268  0.29896607  0.50243601  1
  Nb  Nb109  1  0.10469918  0.49710045  0.50689887  1
  Nb  Nb110  1  0.10623482  0.30363906  0.09640211  1
  Nb  Nb111  1  0.69663262  0.10543661  0.49934296  1
  Nb  Nb112  1  0.90007486  0.70094064  0.89846498  1
  Nb  Nb113  1  0.90177548  0.70876868  0.31237680  1
  Nb  Nb114  1  0.30885715  0.30031416  0.49696256  1
  Nb  Nb115  1  0.10143112  0.89904843  0.49898661  1
  Nb  Nb116  1  0.50137346  0.69904462  0.69942558  1
  Nb  Nb117  1  0.50080810  0.30505365  0.69463819  1
  Nb  Nb118  1  0.49315849  0.29969480  0.50357732  1
  Nb  Nb119  1  0.29224504  0.09657775  0.70775077  1
  Nb  Nb120  1  0.10492515  0.50512731  0.89140442  1
  Nb  Nb121  1  0.50264228  0.50239781  0.30131938  1
  Nb  Nb122  1  0.29649405  0.49651786  0.90061902  1
  Nb  Nb123  1  0.10230129  0.49835936  0.69822469  1
  Nb  Nb124  1  0.10261227  0.10033642  0.70311843  1
  Nb  Nb125  1  0.00644512  0.20486592  0.60471524  1
  Nb  Nb126  1  0.80712170  0.79609641  0.20571167  1
  Nb  Nb127  1  0.79249562  0.00975096  0.39906671  1
  Nb  Nb128  1  0.00328687  0.79705714  0.79559023  1
  Nb  Nb129  1  0.79740806  0.19912431  0.40039769  1
  Nb  Nb130  1  0.59671212  0.00902078  0.59534880  1
  Nb  Nb131  1  0.80065891  0.59885650  0.58686778  1
  Nb  Nb132  1  0.00263676  0.79309869  0.59864169  1
  Nb  Nb133  1  0.39068034  0.19695299  -0.00087859  1
  Nb  Nb134  1  0.00998656  0.39721600  0.59987276  1
  Nb  Nb135  1  0.19614650  0.80427453  0.40083049  1
  Nb  Nb136  1  0.19649350  0.40319276  0.79823223  1
  Nb  Nb137  1  0.39353710  -0.00500003  0.40141972  1
  Nb  Nb138  1  0.59596606  0.20519909  0.59435554  1
  Nb  Nb139  1  0.59449323  0.40073500  0.79638644  1
  Nb  Nb140  1  0.00670141  0.19559038  0.79664212  1
  Nb  Nb141  1  0.19780197  0.40142313  -0.00399040  1
  Nb  Nb142  1  0.19579074  0.79810747  0.79783125  1
  Nb  Nb143  1  0.80115561  0.60259061  0.40085122  1
  Nb  Nb144  1  -0.00343803  0.79803943  0.20708087  1
  Nb  Nb145  1  0.20074266  0.01270025  -0.00484486  1
  Nb  Nb146  1  0.19995946  0.20010634  -0.00060249  1
  Nb  Nb147  1  0.80125792  0.00026259  0.80633376  1
  Nb  Nb148  1  0.20063370  -0.00538012  0.39939760  1
  Nb  Nb149  1  0.60275807  0.79428697  -0.00177071  1
  Pd  Pd150  1  0.40034107  0.79576245  0.19713608  1
  Pd  Pd151  1  0.01030578  -0.00830167  0.01212537  1
  Pd  Pd152  1  0.40383078  0.19351421  0.60609691  1
  Pd  Pd153  1  -0.00011043  0.40917495  -0.00158832  1
  Pd  Pd154  1  0.60724896  0.21475609  0.40390510  1
  Pd  Pd155  1  0.60206731  0.59927185  0.40518385  1
  Pd  Pd156  1  0.80960490  0.60475702  0.21101356  1
  Pd  Pd157  1  0.40065864  0.00478888  0.80587367  1
  Pd  Pd158  1  0.39898035  0.40705997  0.59991294  1
  Pd  Pd159  1  -0.00192070  0.20275905  -0.00270681  1
  Pd  Pd160  1  0.80866212  0.79096176  0.60814175  1
  Pd  Pd161  1  0.79219950  0.79460311  0.01423927  1
  Pd  Pd162  1  0.59688286  -0.00191892  0.40159759  1
  Pd  Pd163  1  0.39077442  0.60424002  0.79829287  1
  Pd  Pd164  1  0.59840842  0.80222859  0.80484115  1
  Pd  Pd165  1  0.19931493  0.00456962  0.20371175  1
  Pd  Pd166  1  0.19794320  0.19860834  0.60018568  1
  Pd  Pd167  1  0.58903406  0.20117322  0.00452119  1
  Pd  Pd168  1  0.19600719  0.20695616  0.80248670  1
  Pd  Pd169  1  0.79269835  0.59290405  0.79018141  1
  Pd  Pd170  1  -0.00736792  0.60537724  0.20411216  1
  Pd  Pd171  1  0.40777142  0.20477879  0.19663728  1
  Pd  Pd172  1  0.20800110  0.60541627  0.59154751  1
  Pd  Pd173  1  0.80429634  0.21325995  0.20835657  1
  Pd  Pd174  1  0.80615089  0.40496982  -0.00303046  1
  Pd  Pd175  1  0.80625032  0.80470533  0.78810637  1
  Pd  Pd176  1  0.19750223  -0.00865720  0.80587327  1
  Pd  Pd177  1  -0.00285562  -0.00450223  0.79559688  1
  Pd  Pd178  1  0.00471738  0.80143372  0.00463664  1
  Pd  Pd179  1  0.00313090  0.39595504  0.19868198  1
  Pd  Pd180  1  -0.01112363  0.59374987  0.59679196  1
  Pd  Pd181  1  0.40038522  0.40293007  0.78976842  1
  Pd  Pd182  1  0.40284500  0.40298358  0.39503131  1
  Pd  Pd183  1  -0.00552006  -0.01069301  0.19489320  1
  Pd  Pd184  1  0.19673655  0.19457697  0.20360953  1
  Pd  Pd185  1  -0.00574166  0.21142903  0.20142507  1
  Pd  Pd186  1  -0.00332772  -0.00087032  0.59704730  1
  Pd  Pd187  1  0.59612886  0.20081853  0.19436519  1
  Pd  Pd188  1  -0.00281461  0.58777946  0.39716082  1
  Pd  Pd189  1  0.20511829  0.59146124  0.00842096  1
  Pd  Pd190  1  0.59461083  0.59713144  0.20185050  1
  Pd  Pd191  1  0.60746761  0.59980463  0.59303285  1
  Pd  Pd192  1  0.80647708  0.39236304  0.20356765  1
  Pd  Pd193  1  0.20549170  0.19193672  0.39133635  1
  Pd  Pd194  1  0.59491487  0.20510441  0.78892143  1
  Pd  Pd195  1  0.60836203  0.79418394  0.18486878  1
  Pd  Pd196  1  0.40907522  0.79990601  0.00041615  1
  Pd  Pd197  1  0.00125967  0.39773054  0.79626467  1
  Pd  Pd198  1  0.59997122  0.60206311  -0.00281387  1
  Pd  Pd199  1  0.40582322  0.40297952  0.20666835  1
  Rh  Rh200  1  0.79725321  0.80787989  0.39394968  1
  Rh  Rh201  1  -0.00096622  0.59562774  -0.00624158  1
  Rh  Rh202  1  0.78951366  0.40642374  0.79978454  1
  Rh  Rh203  1  0.19527629  0.79475172  0.20896142  1
  Rh  Rh204  1  0.39126583  0.00789147  -0.00474499  1
  Rh  Rh205  1  0.81120648  0.18778713  0.81518900  1
  Rh  Rh206  1  0.19092063  0.78709318  0.59861784  1
  Rh  Rh207  1  0.00155607  0.60558464  0.80793209  1
  Rh  Rh208  1  0.40478810  -0.00456250  0.20948568  1
  Rh  Rh209  1  0.20362236  0.40019306  0.39944436  1
  Rh  Rh210  1  0.39530582  0.20055534  0.39578570  1
  Rh  Rh211  1  0.01363391  0.40044018  0.40413866  1
  Rh  Rh212  1  -0.00551176  0.00048916  0.40800498  1
  Rh  Rh213  1  0.19794058  0.81126389  -0.00664868  1
  Rh  Rh214  1  0.20286451  0.60121008  0.40459307  1
  Rh  Rh215  1  0.59226129  0.80597241  0.60273363  1
  Rh  Rh216  1  0.20875225  0.01181693  0.59543795  1
  Rh  Rh217  1  0.59303471  0.80102336  0.40379094  1
  Rh  Rh218  1  0.59389166  0.39876832  0.40203970  1
  Rh  Rh219  1  0.59723467  0.39608226  0.60269343  1
  Rh  Rh220  1  0.80264422  0.19844936  0.00088228  1
  Rh  Rh221  1  0.40046001  0.59787900  0.59648506  1
  Rh  Rh222  1  0.59417888  0.39685469  -0.01050866  1
  Rh  Rh223  1  0.20540807  0.60198505  0.80081832  1
  Rh  Rh224  1  0.39093507  0.80689093  0.39696497  1
  Rh  Rh225  1  0.39526336  0.60070710  0.00024345  1
  Rh  Rh226  1  0.60899476  0.00229544  0.78921294  1
  Rh  Rh227  1  0.60138294  -0.00518385  0.00357983  1
  Rh  Rh228  1  0.79806262  0.20325337  0.58838158  1
  Rh  Rh229  1  0.19691482  0.40791190  0.19400891  1
  Rh  Rh230  1  0.39537632  0.79497195  0.79763921  1
  Rh  Rh231  1  0.80166083  -0.00628528  0.20894659  1
  Rh  Rh232  1  0.80172871  0.59517458  -0.00434487  1
  Rh  Rh233  1  0.81111923  0.40860731  0.60706491  1
  Rh  Rh234  1  0.79251138  0.00818142  -0.00141088  1
  Rh  Rh235  1  0.20413395  0.59574904  0.19680149  1
  Rh  Rh236  1  0.59370377  0.40347088  0.20096794  1
  Rh  Rh237  1  0.39974665  0.00948847  0.59701377  1
  Rh  Rh238  1  0.59879583  0.00719895  0.20002665  1
  Rh  Rh239  1  0.20170859  0.39484299  0.60007697  1
  Rh  Rh240  1  0.60315388  0.59288175  0.79845003  1
  Rh  Rh241  1  0.40419333  0.19762961  0.79933545  1
  Rh  Rh242  1  0.78869209  0.00328249  0.59900840  1
  Rh  Rh243  1  0.00581739  0.80603908  0.40338026  1
  Rh  Rh244  1  0.40473912  0.59042243  0.40056808  1
  Rh  Rh245  1  -0.00652003  0.19755734  0.40798475  1
  Rh  Rh246  1  0.39450314  0.39329328  0.00493983  1
  Rh  Rh247  1  0.40588139  0.59908032  0.20418947  1
  Rh  Rh248  1  0.79828100  0.39483645  0.38823475  1
  Rh  Rh249  1  0.40620447  0.79386597  0.60692186  1
