# generated using pymatgen
data_ZrScNbPdRh
_symmetry_space_group_name_H-M   'P 1'
_cell_length_a   16.56515215
_cell_length_b   16.56487390
_cell_length_c   16.56103895
_cell_angle_alpha   89.97335922
_cell_angle_beta   90.03452402
_cell_angle_gamma   89.96298172
_symmetry_Int_Tables_number   1
_chemical_formula_structural   ZrScNbPdRh
_chemical_formula_sum   'Zr50 Sc50 Nb50 Pd50 Rh50'
_cell_volume   4544.34113271
_cell_formula_units_Z   50
loop_
 _symmetry_equiv_pos_site_id
 _symmetry_equiv_pos_as_xyz
  1  'x, y, z'
loop_
 _atom_site_type_symbol
 _atom_site_label
 _atom_site_symmetry_multiplicity
 _atom_site_fract_x
 _atom_site_fract_y
 _atom_site_fract_z
 _atom_site_occupancy
  Zr  Zr0  1  0.50018187  0.30153855  0.50080452  1
  Zr  Zr1  1  0.90665084  0.09282405  0.50148575  1
  Zr  Zr2  1  0.70927957  0.09442882  0.10112639  1
  Zr  Zr3  1  0.50687846  0.89710487  0.09663945  1
  Zr  Zr4  1  0.29275925  0.70402340  0.69807763  1
  Zr  Zr5  1  0.10224675  0.69328238  0.69540592  1
  Zr  Zr6  1  0.10444032  0.70720914  0.90072681  1
  Zr  Zr7  1  0.90057686  0.30311849  0.50195378  1
  Zr  Zr8  1  0.29932982  0.89786811  0.89684837  1
  Zr  Zr9  1  0.48968198  0.70148772  0.49899161  1
  Zr  Zr10  1  0.49398843  0.09221642  0.09620504  1
  Zr  Zr11  1  0.28301751  0.10086918  0.48746657  1
  Zr  Zr12  1  0.50210888  0.09875508  0.29630850  1
  Zr  Zr13  1  0.09786326  0.49259413  0.90030685  1
  Zr  Zr14  1  0.71020060  0.29978926  0.70396643  1
  Zr  Zr15  1  0.29559704  0.30525781  0.69766331  1
  Zr  Zr16  1  0.29598610  0.70204711  0.90025594  1
  Zr  Zr17  1  0.10446566  0.29799140  0.09780033  1
  Zr  Zr18  1  0.70672672  0.50157763  0.49187853  1
  Zr  Zr19  1  0.90074253  0.50966027  0.30512477  1
  Zr  Zr20  1  0.49448830  0.30326896  0.09627918  1
  Zr  Zr21  1  0.51265341  0.70037821  0.10220970  1
  Zr  Zr22  1  0.29395915  0.30135896  0.29943470  1
  Zr  Zr23  1  0.89576295  0.70152899  0.90105551  1
  Zr  Zr24  1  0.09147773  0.29635695  0.89806953  1
  Zr  Zr25  1  0.69875068  0.49961288  0.70923614  1
  Zr  Zr26  1  0.29764052  0.50963207  0.70206772  1
  Zr  Zr27  1  0.49223123  0.89209024  0.29185686  1
  Zr  Zr28  1  0.29831560  0.09446280  0.29540121  1
  Zr  Zr29  1  0.09596201  0.89840518  0.89931148  1
  Zr  Zr30  1  0.69899968  0.30165093  0.10920172  1
  Zr  Zr31  1  0.50609055  0.50374170  0.89053928  1
  Zr  Zr32  1  0.50562664  0.30857051  0.90025438  1
  Zr  Zr33  1  0.48868396  0.49860443  0.49730480  1
  Zr  Zr34  1  0.30412146  0.90084301  0.70094918  1
  Zr  Zr35  1  0.30202095  0.30633460  0.49625659  1
  Zr  Zr36  1  0.29560090  0.70620556  0.29527449  1
  Zr  Zr37  1  0.89422724  0.90310333  0.10757353  1
  Zr  Zr38  1  0.70566641  0.70247534  0.70666564  1
  Zr  Zr39  1  0.70260651  0.29753276  0.49737532  1
  Zr  Zr40  1  0.50354332  0.89495236  0.50564917  1
  Zr  Zr41  1  0.50309454  0.90917284  0.69897694  1
  Zr  Zr42  1  0.11051985  0.69009168  0.10639545  1
  Zr  Zr43  1  0.10536318  0.30009031  0.50581966  1
  Zr  Zr44  1  0.70013499  0.69398773  0.90929457  1
  Zr  Zr45  1  0.49572355  0.50137434  0.70287688  1
  Zr  Zr46  1  0.29712922  0.11168877  0.09016661  1
  Zr  Zr47  1  0.89049715  0.89991527  0.69781246  1
  Zr  Zr48  1  0.70048277  0.30163640  0.30089465  1
  Zr  Zr49  1  0.49996481  0.70371854  0.29779297  1
  Sc  Sc50  1  0.30169369  0.49952055  0.50390584  1
  Sc  Sc51  1  0.08631951  0.89459202  0.10009774  1
  Sc  Sc52  1  0.08703360  0.50560084  0.29236703  1
  Sc  Sc53  1  0.49224931  0.70118014  0.69738765  1
  Sc  Sc54  1  0.90197313  0.29647344  0.89854211  1
  Sc  Sc55  1  0.30396362  0.28609492  0.90268568  1
  Sc  Sc56  1  0.90021029  0.70355385  0.29779817  1
  Sc  Sc57  1  0.70821875  0.09543090  0.90754924  1
  Sc  Sc58  1  0.50100559  0.69876269  0.90236093  1
  Sc  Sc59  1  0.10097878  0.31065476  0.30359743  1
  Sc  Sc60  1  0.90220764  0.70621923  0.69981159  1
  Sc  Sc61  1  0.31593932  0.90263187  0.10047064  1
  Sc  Sc62  1  0.70653234  0.10643572  0.30040059  1
  Sc  Sc63  1  0.09061135  0.89067780  0.70239131  1
  Sc  Sc64  1  0.50574238  0.10215267  0.50961618  1
  Sc  Sc65  1  0.29400861  0.89668581  0.29829948  1
  Sc  Sc66  1  0.30704525  0.10717557  0.70719915  1
  Sc  Sc67  1  0.90970208  0.50061545  0.49841773  1
  Sc  Sc68  1  0.49324149  0.29886365  0.69981972  1
  Sc  Sc69  1  0.69492171  0.50005217  0.89600874  1
  Sc  Sc70  1  0.30329720  0.51178939  0.89830672  1
  Sc  Sc71  1  0.90194738  0.30725961  0.30041145  1
  Sc  Sc72  1  0.69446032  0.90456424  0.90845451  1
  Sc  Sc73  1  0.70629943  0.10182051  0.50511178  1
  Sc  Sc74  1  0.89871827  0.09354386  0.10039221  1
  Sc  Sc75  1  0.70438340  0.69682996  0.29520635  1
  Sc  Sc76  1  0.10664494  0.08668288  0.31658202  1
  Sc  Sc77  1  0.90267596  0.30426491  0.70414751  1
  Sc  Sc78  1  0.50284236  0.09424865  0.70045271  1
  Sc  Sc79  1  0.90388732  0.10370303  0.90502396  1
  Sc  Sc80  1  0.09554513  0.70724918  0.50750377  1
  Sc  Sc81  1  0.90437907  0.10195562  0.69648224  1
  Sc  Sc82  1  0.09358017  0.90285786  0.49075221  1
  Sc  Sc83  1  0.30336596  0.49270434  0.30740945  1
  Sc  Sc84  1  0.90338675  0.50234125  0.10833368  1
  Sc  Sc85  1  0.70086410  0.71257422  0.48881970  1
  Sc  Sc86  1  0.51045253  0.31010420  0.29529392  1
  Sc  Sc87  1  0.70129961  0.49798060  0.29087800  1
  Sc  Sc88  1  0.49949842  0.90405327  0.90428588  1
  Sc  Sc89  1  0.29516550  0.89558865  0.50532321  1
  Sc  Sc90  1  0.89425550  0.89893275  0.49364286  1
  Sc  Sc91  1  0.90461473  0.89608224  0.90423235  1
  Sc  Sc92  1  0.10379917  0.49404875  0.70000399  1
  Sc  Sc93  1  0.90451674  0.29209173  0.09425387  1
  Sc  Sc94  1  0.70446814  0.89230783  0.09508376  1
  Sc  Sc95  1  0.50542945  0.49516619  0.09801936  1
  Sc  Sc96  1  0.90287445  0.69541123  0.49325690  1
  Sc  Sc97  1  0.90236855  0.48744756  0.90166564  1
  Sc  Sc98  1  0.90012465  0.08384172  0.29620123  1
  Sc  Sc99  1  0.49700067  0.09144738  0.89969529  1
  Nb  Nb100  1  0.29623617  0.09692781  0.90041880  1
  Nb  Nb101  1  0.69661181  0.90451334  0.69213200  1
  Nb  Nb102  1  0.70457020  0.51385313  0.09978681  1
  Nb  Nb103  1  0.09917904  0.10219763  0.09841681  1
  Nb  Nb104  1  0.90762091  0.89877588  0.29866511  1
  Nb  Nb105  1  0.09909285  0.10789461  0.70183645  1
  Nb  Nb106  1  0.10089967  0.10396512  0.89809254  1
  Nb  Nb107  1  0.29891775  0.30266880  0.09944371  1
  Nb  Nb108  1  0.70574221  0.89439984  0.31163858  1
  Nb  Nb109  1  0.09765976  0.10013187  0.50330537  1
  Nb  Nb110  1  0.29899009  0.68600305  0.09480163  1
  Nb  Nb111  1  0.69734529  0.09081558  0.70285721  1
  Nb  Nb112  1  0.70519592  0.29997400  0.90190192  1
  Nb  Nb113  1  0.70598559  0.68901480  0.09521558  1
  Nb  Nb114  1  0.09973226  0.50079041  0.09515409  1
  Nb  Nb115  1  0.29238521  0.69759647  0.50674117  1
  Nb  Nb116  1  0.49957007  0.50658538  0.29794592  1
  Nb  Nb117  1  0.10270650  0.29409678  0.70859349  1
  Nb  Nb118  1  0.10156145  0.71181478  0.29579870  1
  Nb  Nb119  1  0.29461272  0.50295812  0.09763437  1
  Nb  Nb120  1  0.69833693  0.89990442  0.50105571  1
  Nb  Nb121  1  0.09122503  0.89296926  0.29456226  1
  Nb  Nb122  1  0.88151233  0.69330572  0.09462802  1
  Nb  Nb123  1  0.09415358  0.51075432  0.50032884  1
  Nb  Nb124  1  0.90021954  0.50096648  0.70126153  1
  Nb  Nb125  1  0.00348500  0.19686540  0.40299960  1
  Nb  Nb126  1  0.19059432  0.00678142  0.60730386  1
  Nb  Nb127  1  0.20344338  0.40000507  0.00533666  1
  Nb  Nb128  1  0.60483235  0.80570405  0.79588726  1
  Nb  Nb129  1  0.79750271  0.59871482  0.60180674  1
  Nb  Nb130  1  0.60843160  0.19827509  0.80537030  1
  Nb  Nb131  1  0.40151523  0.19879102  0.39426413  1
  Nb  Nb132  1  0.79605263  -0.00207230  0.79424175  1
  Nb  Nb133  1  0.60361684  0.40394082  0.59857367  1
  Nb  Nb134  1  0.19586243  0.00493992  -0.00217050  1
  Nb  Nb135  1  0.19496908  0.60774474  0.40136930  1
  Nb  Nb136  1  0.00053368  0.59815682  0.80299011  1
  Nb  Nb137  1  0.60539192  -0.00728891  0.20636800  1
  Nb  Nb138  1  0.39573510  0.59808853  0.19513101  1
  Nb  Nb139  1  0.60057880  -0.00834198  0.39834384  1
  Nb  Nb140  1  0.60392915  0.20263049  -0.00237290  1
  Nb  Nb141  1  0.40427356  0.00121906  0.40047515  1
  Nb  Nb142  1  0.59398717  0.59960788  0.39969664  1
  Nb  Nb143  1  0.00073314  0.60088031  0.00070511  1
  Nb  Nb144  1  0.79345272  0.39891798  0.00468485  1
  Nb  Nb145  1  0.19268524  0.00083149  0.19048242  1
  Nb  Nb146  1  0.00947416  0.19135249  0.20558603  1
  Nb  Nb147  1  0.60407674  0.59780302  0.59451295  1
  Nb  Nb148  1  0.39551475  0.20549770  0.19863447  1
  Nb  Nb149  1  0.19347667  0.00672715  0.80037502  1
  Pd  Pd150  1  -0.00488287  0.00332045  0.79760212  1
  Pd  Pd151  1  0.20427288  0.58873000  0.21449485  1
  Pd  Pd152  1  0.80100138  0.18886230  0.80156076  1
  Pd  Pd153  1  -0.00123972  0.20718901  0.60077847  1
  Pd  Pd154  1  0.39066267  0.39961366  0.80507338  1
  Pd  Pd155  1  0.80408297  0.19482686  0.60367952  1
  Pd  Pd156  1  0.38994206  0.40697743  -0.00813397  1
  Pd  Pd157  1  0.20605271  0.19594454  0.60507016  1
  Pd  Pd158  1  0.80240328  0.79380774  0.58975819  1
  Pd  Pd159  1  0.01043865  0.61337023  0.39493537  1
  Pd  Pd160  1  0.41126172  0.79861779  0.80189372  1
  Pd  Pd161  1  -0.00305816  0.39269726  0.19405624  1
  Pd  Pd162  1  -0.00611790  0.78906492  0.01240850  1
  Pd  Pd163  1  0.79192356  0.81299585  0.81096553  1
  Pd  Pd164  1  0.39207748  0.60451711  0.39227176  1
  Pd  Pd165  1  0.79679087  0.80078019  0.20248409  1
  Pd  Pd166  1  0.59781052  0.19228675  0.40082986  1
  Pd  Pd167  1  0.20523550  0.81115495  0.18578493  1
  Pd  Pd168  1  0.81606801  0.19885608  0.20473171  1
  Pd  Pd169  1  0.19472520  0.79866658  0.40587078  1
  Pd  Pd170  1  0.38828769  0.00974613  0.59123210  1
  Pd  Pd171  1  0.80519907  0.40301304  0.39580765  1
  Pd  Pd172  1  0.00506738  -0.00788498  0.60302359  1
  Pd  Pd173  1  -0.00670869  0.80468305  0.59399760  1
  Pd  Pd174  1  0.41108470  0.19615409  0.80500389  1
  Pd  Pd175  1  0.18838756  0.41662940  0.40298709  1
  Pd  Pd176  1  0.40242866  0.79449715  0.00213721  1
  Pd  Pd177  1  0.20926960  0.39503398  0.81268833  1
  Pd  Pd178  1  0.80635510  0.40257979  0.19533489  1
  Pd  Pd179  1  0.81404504  0.19666683  0.39448323  1
  Pd  Pd180  1  0.19739902  0.41030634  0.19695748  1
  Pd  Pd181  1  0.60064622  0.79099456  0.60631737  1
  Pd  Pd182  1  0.20407734  0.81152650  0.01272122  1
  Pd  Pd183  1  0.60379596  0.20550753  0.61238402  1
  Pd  Pd184  1  0.19477867  0.19464794  0.20877683  1
  Pd  Pd185  1  0.19708670  0.40745769  0.59843191  1
  Pd  Pd186  1  0.41010684  0.59637992  0.00440561  1
  Pd  Pd187  1  -0.00831410  0.78812009  0.19082967  1
  Pd  Pd188  1  0.39933133  0.40312576  0.20261194  1
  Pd  Pd189  1  -0.00011589  0.00410772  0.00099826  1
  Pd  Pd190  1  0.61564732  0.80268768  0.20076624  1
  Pd  Pd191  1  0.39196167  0.19441969  0.59206253  1
  Pd  Pd192  1  0.59466561  0.19290018  0.19063774  1
  Pd  Pd193  1  0.80950755  0.59391027  0.80272088  1
  Pd  Pd194  1  0.39097443  0.80605048  0.40565968  1
  Pd  Pd195  1  0.59804602  0.40806477  0.40105705  1
  Pd  Pd196  1  0.60989889  0.40227462  0.00454050  1
  Pd  Pd197  1  0.79654852  -0.00014479  0.40048958  1
  Pd  Pd198  1  0.00679850  0.40092915  0.60428054  1
  Pd  Pd199  1  0.79920040  0.40829806  0.60000597  1
  Rh  Rh200  1  0.60628852  -0.00062823  0.80420147  1
  Rh  Rh201  1  0.40099233  0.40104873  0.60667963  1
  Rh  Rh202  1  0.59717202  0.59442089  0.00033241  1
  Rh  Rh203  1  -0.00182249  0.40149950  0.78956501  1
  Rh  Rh204  1  -0.00120641  -0.00137083  0.39741125  1
  Rh  Rh205  1  0.80307339  0.60002995  0.20606574  1
  Rh  Rh206  1  0.00047595  0.19526260  0.00475701  1
  Rh  Rh207  1  0.39219285  -0.00173586  -0.00798049  1
  Rh  Rh208  1  0.80331261  0.40178691  0.80933315  1
  Rh  Rh209  1  0.39467323  0.00144096  0.80182387  1
  Rh  Rh210  1  0.39891755  0.00411995  0.20345516  1
  Rh  Rh211  1  0.19263560  0.59201907  -0.00840546  1
  Rh  Rh212  1  0.40852525  0.20054409  -0.00083129  1
  Rh  Rh213  1  0.79109174  -0.01040756  0.20651712  1
  Rh  Rh214  1  0.39772507  0.60233399  0.60347536  1
  Rh  Rh215  1  0.60384708  0.00621439  0.00949452  1
  Rh  Rh216  1  -0.00242301  0.80037438  0.39663425  1
  Rh  Rh217  1  -0.00333508  0.19992127  0.79805227  1
  Rh  Rh218  1  0.19508350  0.80982456  0.60152910  1
  Rh  Rh219  1  0.60322898  0.79547406  -0.00628349  1
  Rh  Rh220  1  0.80698847  0.80022788  0.39856113  1
  Rh  Rh221  1  0.39449567  0.79816925  0.60037036  1
  Rh  Rh222  1  0.39183107  0.78405686  0.18474806  1
  Rh  Rh223  1  0.59677259  0.59738428  0.20357288  1
  Rh  Rh224  1  0.19325206  0.20768510  0.39688828  1
  Rh  Rh225  1  0.00973641  0.00421415  0.20523237  1
  Rh  Rh226  1  0.79779294  0.00250952  0.60171560  1
  Rh  Rh227  1  0.40659793  0.39025085  0.39252177  1
  Rh  Rh228  1  0.60266587  0.40909726  0.19665787  1
  Rh  Rh229  1  0.20191439  -0.01683938  0.40004892  1
  Rh  Rh230  1  0.59931822  0.79897781  0.39615176  1
  Rh  Rh231  1  0.19981877  0.19932579  0.80114263  1
  Rh  Rh232  1  0.79904090  0.80316372  -0.00033423  1
  Rh  Rh233  1  0.19288651  0.60195696  0.80445901  1
  Rh  Rh234  1  0.39772316  0.60978399  0.79919186  1
  Rh  Rh235  1  0.80808796  0.58405662  -0.00653522  1
  Rh  Rh236  1  -0.00180861  0.40331621  0.00903653  1
  Rh  Rh237  1  -0.00359247  0.61014243  0.19274553  1
  Rh  Rh238  1  0.80916338  -0.00658053  -0.00801459  1
  Rh  Rh239  1  0.19659901  0.80577604  0.79237850  1
  Rh  Rh240  1  0.19447952  0.20443393  -0.00799101  1
  Rh  Rh241  1  -0.00062224  0.79103085  0.79861164  1
  Rh  Rh242  1  0.59384513  0.61567631  0.79339581  1
  Rh  Rh243  1  -0.00841077  0.59765116  0.61006723  1
  Rh  Rh244  1  0.79513815  0.60324559  0.39972516  1
  Rh  Rh245  1  0.19825807  0.59444863  0.59108430  1
  Rh  Rh246  1  0.00361516  0.39545875  0.40667081  1
  Rh  Rh247  1  0.79620485  0.20665476  0.00439189  1
  Rh  Rh248  1  0.60620842  0.00272575  0.58992624  1
  Rh  Rh249  1  0.60262560  0.38751753  0.79048743  1
