# generated using pymatgen
data_ZrScNbPdRh
_symmetry_space_group_name_H-M   'P 1'
_cell_length_a   16.56631475
_cell_length_b   16.55955404
_cell_length_c   16.56406698
_cell_angle_alpha   89.99492285
_cell_angle_beta   89.98933668
_cell_angle_gamma   89.95376106
_symmetry_Int_Tables_number   1
_chemical_formula_structural   ZrScNbPdRh
_chemical_formula_sum   'Zr50 Sc50 Nb50 Pd50 Rh50'
_cell_volume   4544.03190963
_cell_formula_units_Z   50
loop_
 _symmetry_equiv_pos_site_id
 _symmetry_equiv_pos_as_xyz
  1  'x, y, z'
loop_
 _atom_site_type_symbol
 _atom_site_label
 _atom_site_symmetry_multiplicity
 _atom_site_fract_x
 _atom_site_fract_y
 _atom_site_fract_z
 _atom_site_occupancy
  Zr  Zr0  1  0.29626126  0.89345627  0.10351462  1
  Zr  Zr1  1  0.30387646  0.70134798  0.09775857  1
  Zr  Zr2  1  0.50846574  0.69935016  0.50622964  1
  Zr  Zr3  1  0.09967269  0.29730097  0.29537486  1
  Zr  Zr4  1  0.48862125  0.90196503  0.70622001  1
  Zr  Zr5  1  0.69600164  0.49770672  0.30340485  1
  Zr  Zr6  1  0.49816130  0.10782176  0.69477535  1
  Zr  Zr7  1  0.09237593  0.10331263  0.49729005  1
  Zr  Zr8  1  0.90580172  0.30243396  0.09317028  1
  Zr  Zr9  1  0.29747418  0.49622070  0.31295437  1
  Zr  Zr10  1  0.88612256  0.49967480  0.70384414  1
  Zr  Zr11  1  0.09854991  0.50194665  0.29875380  1
  Zr  Zr12  1  0.29778880  0.31590770  0.49922744  1
  Zr  Zr13  1  0.51139516  0.10531987  0.29284075  1
  Zr  Zr14  1  0.90005133  0.10014221  0.29134160  1
  Zr  Zr15  1  0.50383831  0.70155538  0.30765925  1
  Zr  Zr16  1  0.69659879  0.50138035  0.50409148  1
  Zr  Zr17  1  0.49000673  0.29631863  0.50974933  1
  Zr  Zr18  1  0.69477225  0.09606214  0.68762529  1
  Zr  Zr19  1  0.30169953  0.68765691  0.90263962  1
  Zr  Zr20  1  0.10309448  0.10238921  0.90629989  1
  Zr  Zr21  1  0.51326697  0.10017975  0.50006546  1
  Zr  Zr22  1  0.90962728  0.50318496  0.29512075  1
  Zr  Zr23  1  0.89622393  0.70959672  0.09602923  1
  Zr  Zr24  1  0.70274770  0.10074329  0.10393453  1
  Zr  Zr25  1  0.10558846  0.89873234  0.70980764  1
  Zr  Zr26  1  0.29687770  0.49987524  0.70991626  1
  Zr  Zr27  1  0.69276508  0.69359743  0.69310175  1
  Zr  Zr28  1  0.31380808  0.70582977  0.49462338  1
  Zr  Zr29  1  0.09980156  0.90563464  0.08959240  1
  Zr  Zr30  1  0.89532319  0.49336807  0.90587839  1
  Zr  Zr31  1  0.10133881  0.29812994  0.90202720  1
  Zr  Zr32  1  0.11511047  0.49669573  0.49254279  1
  Zr  Zr33  1  0.89662799  0.70901941  0.49556062  1
  Zr  Zr34  1  0.70492961  0.89725950  0.51355853  1
  Zr  Zr35  1  0.50302113  0.90465606  0.29232692  1
  Zr  Zr36  1  0.49313084  0.89999629  0.09423747  1
  Zr  Zr37  1  0.31129044  0.29794418  0.69645587  1
  Zr  Zr38  1  0.69263879  0.90033478  0.70314578  1
  Zr  Zr39  1  0.69686154  0.70063795  0.49625302  1
  Zr  Zr40  1  0.09937781  0.70083050  0.70609834  1
  Zr  Zr41  1  0.09486617  0.69790211  0.29979287  1
  Zr  Zr42  1  0.29616588  0.09960928  0.29489692  1
  Zr  Zr43  1  0.10823103  0.49628520  0.89845437  1
  Zr  Zr44  1  0.69996979  0.09380455  0.90590557  1
  Zr  Zr45  1  0.69088405  0.90192522  0.89746620  1
  Zr  Zr46  1  0.89569623  0.69583650  0.89873098  1
  Zr  Zr47  1  0.10097203  0.91054356  0.49414567  1
  Zr  Zr48  1  0.89854808  0.69850351  0.70287856  1
  Zr  Zr49  1  0.50578959  0.29749942  0.70395847  1
  Sc  Sc50  1  0.30027879  0.28926783  0.29657772  1
  Sc  Sc51  1  0.10709833  0.71117671  0.09421136  1
  Sc  Sc52  1  0.89643678  0.29639571  0.69730678  1
  Sc  Sc53  1  0.70993866  0.29578211  0.49844019  1
  Sc  Sc54  1  0.69823499  0.69877703  0.09358585  1
  Sc  Sc55  1  0.09156209  0.29559690  0.70831729  1
  Sc  Sc56  1  0.49687001  0.49427840  0.49718205  1
  Sc  Sc57  1  0.89536771  0.28602439  0.50360936  1
  Sc  Sc58  1  0.69036630  0.69393675  0.90096612  1
  Sc  Sc59  1  0.68738666  0.49745337  0.09018774  1
  Sc  Sc60  1  0.49938298  0.70188108  0.70963478  1
  Sc  Sc61  1  0.30663580  0.70617184  0.71124950  1
  Sc  Sc62  1  0.69708538  0.29627255  0.30012311  1
  Sc  Sc63  1  0.11094755  0.91426884  0.29043404  1
  Sc  Sc64  1  0.09262603  0.10607911  0.70328665  1
  Sc  Sc65  1  0.89725178  0.29395886  0.29781942  1
  Sc  Sc66  1  0.88959707  0.90714033  0.69156612  1
  Sc  Sc67  1  0.50701053  0.50700558  0.89882998  1
  Sc  Sc68  1  0.90549881  0.29872090  0.90168524  1
  Sc  Sc69  1  0.09428516  0.69771684  0.49053582  1
  Sc  Sc70  1  0.89840659  0.89667446  0.91502374  1
  Sc  Sc71  1  0.31420915  0.90082763  0.49920017  1
  Sc  Sc72  1  0.50485681  0.50398718  0.70751636  1
  Sc  Sc73  1  0.50444106  0.28909849  0.90105098  1
  Sc  Sc74  1  0.30875164  0.70828827  0.29372857  1
  Sc  Sc75  1  0.88651593  0.49865991  0.49757493  1
  Sc  Sc76  1  0.49280690  0.69313945  0.09554759  1
  Sc  Sc77  1  0.70489765  0.90385877  0.29104119  1
  Sc  Sc78  1  0.50218818  0.89082081  0.50331746  1
  Sc  Sc79  1  0.89798924  0.10347042  0.90798720  1
  Sc  Sc80  1  0.09390185  0.48839600  0.10619291  1
  Sc  Sc81  1  0.49419578  0.09326124  0.90621901  1
  Sc  Sc82  1  0.70003497  0.50000533  0.89523812  1
  Sc  Sc83  1  0.30283047  0.10543654  0.49126168  1
  Sc  Sc84  1  0.69338159  0.30382491  0.90205400  1
  Sc  Sc85  1  0.70825776  0.90122882  0.09848693  1
  Sc  Sc86  1  0.50926518  0.50035302  0.29922761  1
  Sc  Sc87  1  0.31025652  0.09938133  0.70801501  1
  Sc  Sc88  1  0.89838768  0.70404953  0.30480082  1
  Sc  Sc89  1  0.50882919  0.29217523  0.10287848  1
  Sc  Sc90  1  0.30008258  0.91073821  0.89354253  1
  Sc  Sc91  1  0.30011617  0.90234540  0.29128888  1
  Sc  Sc92  1  0.10402128  0.49690610  0.70968908  1
  Sc  Sc93  1  0.10313543  0.10289914  0.29681663  1
  Sc  Sc94  1  0.49779328  0.70423306  0.89916126  1
  Sc  Sc95  1  0.30562110  0.10707492  0.09829134  1
  Sc  Sc96  1  0.10079603  0.29623809  0.10210707  1
  Sc  Sc97  1  0.90090751  0.10343404  0.69384759  1
  Sc  Sc98  1  0.09534016  0.71055393  0.89871162  1
  Sc  Sc99  1  0.69625277  0.30104228  0.09569893  1
  Nb  Nb100  1  0.69855313  0.49339347  0.70081572  1
  Nb  Nb101  1  0.89599759  0.90079334  0.29283796  1
  Nb  Nb102  1  0.90118527  0.09847514  0.10172271  1
  Nb  Nb103  1  0.89676778  0.90589883  0.11214935  1
  Nb  Nb104  1  0.69807664  0.69672174  0.29493445  1
  Nb  Nb105  1  0.70411373  0.09909599  0.49439002  1
  Nb  Nb106  1  0.90103726  0.49692828  0.09979828  1
  Nb  Nb107  1  0.29735400  0.29529173  0.90461741  1
  Nb  Nb108  1  0.30156255  0.50245361  0.09907702  1
  Nb  Nb109  1  0.69906418  0.09886425  0.30618197  1
  Nb  Nb110  1  0.30220685  0.11479464  0.89880065  1
  Nb  Nb111  1  0.30219816  0.49872494  0.50856788  1
  Nb  Nb112  1  0.50664952  0.09932776  0.10494002  1
  Nb  Nb113  1  0.09719590  0.90643422  0.90039821  1
  Nb  Nb114  1  0.49766023  0.89545631  0.89824811  1
  Nb  Nb115  1  0.29476887  0.49330062  0.90149028  1
  Nb  Nb116  1  0.89849437  0.09437177  0.50047463  1
  Nb  Nb117  1  0.30357744  0.30276521  0.10186222  1
  Nb  Nb118  1  0.49465368  0.49340864  0.10308346  1
  Nb  Nb119  1  0.09887243  0.30077617  0.50272595  1
  Nb  Nb120  1  0.90106317  0.90300361  0.49597411  1
  Nb  Nb121  1  0.50217799  0.30072629  0.29210042  1
  Nb  Nb122  1  0.09235199  0.09790281  0.10572343  1
  Nb  Nb123  1  0.30089390  0.90277498  0.69556822  1
  Nb  Nb124  1  0.69934903  0.29830221  0.70075197  1
  Nb  Nb125  1  0.60610995  0.39713069  0.60628187  1
  Nb  Nb126  1  -0.00392028  0.81082279  0.19860164  1
  Nb  Nb127  1  0.79398636  0.79953023  0.79937426  1
  Nb  Nb128  1  0.39505509  0.39759524  0.81279330  1
  Nb  Nb129  1  0.79144302  0.19752949  0.79755252  1
  Nb  Nb130  1  -0.00042137  0.40408640  0.59509421  1
  Nb  Nb131  1  0.39453983  0.59643344  0.60051963  1
  Nb  Nb132  1  0.00232393  0.59633294  0.59864431  1
  Nb  Nb133  1  0.60033995  0.79671030  0.19925959  1
  Nb  Nb134  1  0.20023561  0.80208166  0.59736460  1
  Nb  Nb135  1  0.40024719  0.40015770  0.19471238  1
  Nb  Nb136  1  0.20385010  0.60575519  0.59796568  1
  Nb  Nb137  1  0.80111769  0.40787616  0.19530194  1
  Nb  Nb138  1  -0.00345111  0.59700440  0.00087644  1
  Nb  Nb139  1  0.40980089  0.00508779  0.39281567  1
  Nb  Nb140  1  0.39394489  0.39945284  0.00190060  1
  Nb  Nb141  1  0.00194024  0.80223619  0.59696602  1
  Nb  Nb142  1  0.80399378  0.00113952  0.40256371  1
  Nb  Nb143  1  0.20522641  0.59763814  0.19700756  1
  Nb  Nb144  1  0.20087087  0.80351576  0.40225060  1
  Nb  Nb145  1  0.19883812  0.20033756  0.59700496  1
  Nb  Nb146  1  0.00290375  -0.00311100  0.80821430  1
  Nb  Nb147  1  0.80008937  0.59601284  0.19686524  1
  Nb  Nb148  1  0.00249803  0.39603260  0.40657723  1
  Nb  Nb149  1  0.20352902  0.00079403  0.60277560  1
  Pd  Pd150  1  0.60451890  0.18931737  0.80628636  1
  Pd  Pd151  1  0.80729301  0.39480294  0.39243674  1
  Pd  Pd152  1  0.79069112  0.80305330  -0.00731082  1
  Pd  Pd153  1  0.39207226  0.00041531  -0.00147384  1
  Pd  Pd154  1  0.19963312  0.01183153  0.79672896  1
  Pd  Pd155  1  0.79162460  0.80923665  0.39357297  1
  Pd  Pd156  1  0.00789639  0.81468215  0.39177830  1
  Pd  Pd157  1  0.20771428  0.40249230  0.20241564  1
  Pd  Pd158  1  0.18800759  0.59659315  0.00733864  1
  Pd  Pd159  1  0.40597008  0.59601559  0.40289536  1
  Pd  Pd160  1  0.20205625  0.19934108  0.79119776  1
  Pd  Pd161  1  0.20804639  0.80500261  -0.01411236  1
  Pd  Pd162  1  0.00179008  0.59041944  0.80456347  1
  Pd  Pd163  1  0.20026190  0.20436120  0.40436950  1
  Pd  Pd164  1  -0.00558546  0.40113914  0.79457386  1
  Pd  Pd165  1  0.19898371  0.39726290  0.00786453  1
  Pd  Pd166  1  0.00223470  0.61414208  0.18538608  1
  Pd  Pd167  1  0.19750528  0.19665852  0.01090865  1
  Pd  Pd168  1  0.60313987  0.60323288  0.19214036  1
  Pd  Pd169  1  0.39890758  0.00850549  0.59090555  1
  Pd  Pd170  1  0.79854484  0.59452075  0.00545624  1
  Pd  Pd171  1  0.79994507  0.60119244  0.39286020  1
  Pd  Pd172  1  0.79528233  0.20755814  0.19734129  1
  Pd  Pd173  1  0.19127521  0.39657585  0.61240709  1
  Pd  Pd174  1  0.80989777  0.00163491  0.80414363  1
  Pd  Pd175  1  0.58919069  0.39954778  -0.00547834  1
  Pd  Pd176  1  -0.00497589  0.20328356  0.39836192  1
  Pd  Pd177  1  0.40710253  0.39552368  0.38876135  1
  Pd  Pd178  1  0.58806461  0.00739462  0.79821308  1
  Pd  Pd179  1  0.39663546  0.59344671  0.20823748  1
  Pd  Pd180  1  0.39815432  0.00646150  0.19827035  1
  Pd  Pd181  1  0.21023590  0.00750456  0.00242826  1
  Pd  Pd182  1  0.20871297  0.79983415  0.80626198  1
  Pd  Pd183  1  0.59961128  0.21165386  0.40331112  1
  Pd  Pd184  1  0.79721775  0.20661937  -0.00569193  1
  Pd  Pd185  1  0.59822539  -0.00135703  0.00658634  1
  Pd  Pd186  1  0.00563454  -0.00400415  0.60973104  1
  Pd  Pd187  1  0.61038758  0.80842231  0.39211028  1
  Pd  Pd188  1  -0.00604928  0.00009921  0.38653628  1
  Pd  Pd189  1  0.60541515  -0.01038673  0.40350947  1
  Pd  Pd190  1  0.40551802  0.59123217  -0.00595026  1
  Pd  Pd191  1  0.59666131  0.39071103  0.40939959  1
  Pd  Pd192  1  0.40499901  0.19777877  0.39546977  1
  Pd  Pd193  1  -0.00783567  0.00316459  -0.00086152  1
  Pd  Pd194  1  0.79872666  0.38803146  0.80522311  1
  Pd  Pd195  1  0.80192101  0.60403670  0.59799934  1
  Pd  Pd196  1  0.40770992  0.20409906  0.00667718  1
  Pd  Pd197  1  -0.01545229  0.81333056  0.79696115  1
  Pd  Pd198  1  0.20953000  0.61323015  0.39779649  1
  Pd  Pd199  1  0.59732381  0.79804808  0.00615154  1
  Rh  Rh200  1  0.39444304  0.80461326  -0.00820673  1
  Rh  Rh201  1  0.78889735  0.60508792  0.79932836  1
  Rh  Rh202  1  0.59291886  0.59829463  0.00147439  1
  Rh  Rh203  1  0.19005122  0.79229217  0.20968787  1
  Rh  Rh204  1  0.59139716  0.80341899  0.61006265  1
  Rh  Rh205  1  0.40074093  0.79094696  0.61032128  1
  Rh  Rh206  1  0.00366576  0.20618529  0.59674194  1
  Rh  Rh207  1  0.60900347  0.20082241  0.19836224  1
  Rh  Rh208  1  0.38943468  0.19256388  0.59292667  1
  Rh  Rh209  1  0.59988645  0.59827239  0.40333869  1
  Rh  Rh210  1  0.39795741  0.81498236  0.38764052  1
  Rh  Rh211  1  -0.00833163  0.38839909  0.20647994  1
  Rh  Rh212  1  0.40076105  0.00439721  0.80535266  1
  Rh  Rh213  1  0.60734154  -0.00493784  0.19083532  1
  Rh  Rh214  1  0.80006195  0.00537116  0.59287165  1
  Rh  Rh215  1  0.79564355  0.39722811  0.00482507  1
  Rh  Rh216  1  0.40649219  0.20435267  0.19773381  1
  Rh  Rh217  1  0.00014837  0.80079329  0.00637549  1
  Rh  Rh218  1  0.79843440  0.39553108  0.60198520  1
  Rh  Rh219  1  0.79534215  0.00902161  0.20371776  1
  Rh  Rh220  1  0.40368799  0.20304478  0.80680369  1
  Rh  Rh221  1  0.60951643  0.20920718  0.59008018  1
  Rh  Rh222  1  0.00401895  0.19645417  0.00448154  1
  Rh  Rh223  1  -0.01377104  0.19083481  0.80526647  1
  Rh  Rh224  1  0.59651040  0.40068926  0.79834306  1
  Rh  Rh225  1  0.19624215  0.38944007  0.39082535  1
  Rh  Rh226  1  0.79839888  0.78901446  0.20357782  1
  Rh  Rh227  1  0.21841928  -0.00674985  0.40739865  1
  Rh  Rh228  1  0.59918866  0.19070838  0.00146320  1
  Rh  Rh229  1  0.80245990  0.18912741  0.39691991  1
  Rh  Rh230  1  0.80195673  -0.00113532  0.00409664  1
  Rh  Rh231  1  0.39936983  0.59224563  0.80225298  1
  Rh  Rh232  1  0.19782076  0.19535228  0.19273256  1
  Rh  Rh233  1  0.00853536  0.40411767  -0.00376897  1
  Rh  Rh234  1  0.60057741  0.39659328  0.20064626  1
  Rh  Rh235  1  0.60387184  0.60147561  0.79989575  1
  Rh  Rh236  1  0.39540878  0.80476373  0.80748978  1
  Rh  Rh237  1  -0.00727480  0.58644191  0.41354359  1
  Rh  Rh238  1  0.80619020  0.79648106  0.60545187  1
  Rh  Rh239  1  0.00317290  -0.00189267  0.19970699  1
  Rh  Rh240  1  0.79669543  0.19349597  0.60449911  1
  Rh  Rh241  1  0.41193386  0.41111726  0.61465938  1
  Rh  Rh242  1  0.20650559  0.38374513  0.79802244  1
  Rh  Rh243  1  0.59181335  0.58959877  0.59996456  1
  Rh  Rh244  1  0.19913436  0.60776867  0.80120868  1
  Rh  Rh245  1  0.20330547  0.00845099  0.18636170  1
  Rh  Rh246  1  -0.00119421  0.19882393  0.19442598  1
  Rh  Rh247  1  0.60166570  0.79896039  0.80073252  1
  Rh  Rh248  1  0.59339412  -0.00712742  0.59920296  1
  Rh  Rh249  1  0.41242511  0.79771916  0.19831505  1
