# generated using pymatgen
data_ZrScNbPdRh
_symmetry_space_group_name_H-M   'P 1'
_cell_length_a   16.55972507
_cell_length_b   16.55929966
_cell_length_c   16.56256020
_cell_angle_alpha   90.00738267
_cell_angle_beta   90.01117665
_cell_angle_gamma   89.97224060
_symmetry_Int_Tables_number   1
_chemical_formula_structural   ZrScNbPdRh
_chemical_formula_sum   'Zr50 Sc50 Nb50 Pd50 Rh50'
_cell_volume   4541.74236145
_cell_formula_units_Z   50
loop_
 _symmetry_equiv_pos_site_id
 _symmetry_equiv_pos_as_xyz
  1  'x, y, z'
loop_
 _atom_site_type_symbol
 _atom_site_label
 _atom_site_symmetry_multiplicity
 _atom_site_fract_x
 _atom_site_fract_y
 _atom_site_fract_z
 _atom_site_occupancy
  Zr  Zr0  1  0.90344936  0.09397600  0.70226255  1
  Zr  Zr1  1  0.69098180  0.90871113  0.89450757  1
  Zr  Zr2  1  0.49921846  0.89518850  0.28918786  1
  Zr  Zr3  1  0.89240308  0.70658953  0.50572245  1
  Zr  Zr4  1  0.68613002  0.90349970  0.09799960  1
  Zr  Zr5  1  0.49795326  0.89836135  0.09309686  1
  Zr  Zr6  1  0.90686726  0.10196827  0.09336943  1
  Zr  Zr7  1  0.91154557  0.30368870  0.09892561  1
  Zr  Zr8  1  0.09146809  0.71564827  0.69825154  1
  Zr  Zr9  1  0.09923620  0.10017550  0.49507075  1
  Zr  Zr10  1  0.68622640  0.30378425  0.70973946  1
  Zr  Zr11  1  0.69527518  0.29896794  0.29776097  1
  Zr  Zr12  1  0.30721091  0.51048319  0.89368569  1
  Zr  Zr13  1  0.29951749  0.09379060  0.90255876  1
  Zr  Zr14  1  0.89830143  0.70440897  0.29462247  1
  Zr  Zr15  1  0.49349018  0.89562067  0.50046167  1
  Zr  Zr16  1  0.29281391  0.10096402  0.70587207  1
  Zr  Zr17  1  0.91060821  0.09058999  0.30535027  1
  Zr  Zr18  1  0.10567412  0.29370821  0.70057480  1
  Zr  Zr19  1  0.50595523  0.10414410  0.29606434  1
  Zr  Zr20  1  0.89249684  0.50498251  0.70587725  1
  Zr  Zr21  1  0.50003851  0.50897755  0.09436734  1
  Zr  Zr22  1  0.10343536  0.50064236  0.70444314  1
  Zr  Zr23  1  0.50076580  0.49772128  0.28613737  1
  Zr  Zr24  1  0.89920783  0.10053765  0.89846309  1
  Zr  Zr25  1  0.29922401  0.69906383  0.49308681  1
  Zr  Zr26  1  0.90409819  0.70064515  0.09920774  1
  Zr  Zr27  1  0.90490147  0.89861646  0.29821829  1
  Zr  Zr28  1  0.29468234  0.70190296  0.09646595  1
  Zr  Zr29  1  0.89596595  0.29646176  0.50173261  1
  Zr  Zr30  1  0.50413329  0.09217946  0.09659662  1
  Zr  Zr31  1  0.49737557  0.09574882  0.50129275  1
  Zr  Zr32  1  0.69692890  0.69605841  0.89498519  1
  Zr  Zr33  1  0.29632697  0.30131768  0.30044641  1
  Zr  Zr34  1  0.90169739  0.50132652  0.90173771  1
  Zr  Zr35  1  0.49952029  0.70440592  0.10244602  1
  Zr  Zr36  1  0.30221283  0.89452884  0.50134037  1
  Zr  Zr37  1  0.69960696  0.08924184  0.71365104  1
  Zr  Zr38  1  0.28449113  0.30299935  0.49881013  1
  Zr  Zr39  1  0.10935082  0.70407042  0.90430371  1
  Zr  Zr40  1  0.90759076  0.29633399  0.70581917  1
  Zr  Zr41  1  0.29488054  0.31492429  0.90726779  1
  Zr  Zr42  1  0.51040588  0.89962954  0.69844684  1
  Zr  Zr43  1  0.49723783  0.29680484  0.70163811  1
  Zr  Zr44  1  0.11359210  0.49941756  0.90072310  1
  Zr  Zr45  1  0.09616060  0.09835604  0.70273624  1
  Zr  Zr46  1  0.90092003  0.70359568  0.90369644  1
  Zr  Zr47  1  0.10900089  0.70327959  0.50077569  1
  Zr  Zr48  1  0.29705490  0.90220126  0.90353265  1
  Zr  Zr49  1  0.50063786  0.69425066  0.29726016  1
  Sc  Sc50  1  0.90780945  0.50118836  0.09825360  1
  Sc  Sc51  1  0.10153868  0.90056398  0.50645993  1
  Sc  Sc52  1  0.28321625  0.09666371  0.30509961  1
  Sc  Sc53  1  0.50324865  0.50438692  0.49571914  1
  Sc  Sc54  1  0.50135646  0.48811815  0.70994469  1
  Sc  Sc55  1  0.30334312  0.89496540  0.09706382  1
  Sc  Sc56  1  0.12061012  0.50351586  0.50037611  1
  Sc  Sc57  1  0.51070056  0.70823891  0.70608974  1
  Sc  Sc58  1  0.90788498  0.90350786  0.90454137  1
  Sc  Sc59  1  0.90532979  0.89519440  0.09814971  1
  Sc  Sc60  1  0.69868682  0.09967548  0.09772830  1
  Sc  Sc61  1  0.50213128  0.29616387  0.51268087  1
  Sc  Sc62  1  0.09583459  0.90268561  0.69961754  1
  Sc  Sc63  1  0.70325857  0.89647846  0.50868963  1
  Sc  Sc64  1  0.89605433  0.90361333  0.49881650  1
  Sc  Sc65  1  0.30125542  0.89450486  0.30404511  1
  Sc  Sc66  1  0.29565254  0.70236319  0.70406045  1
  Sc  Sc67  1  0.70096657  0.29591078  0.50043495  1
  Sc  Sc68  1  0.70702342  0.09924710  0.50512474  1
  Sc  Sc69  1  0.09748582  0.30022146  0.90110072  1
  Sc  Sc70  1  0.90160440  0.29851708  0.30271051  1
  Sc  Sc71  1  0.09954711  0.89986657  0.10514007  1
  Sc  Sc72  1  0.49912738  0.70119790  0.50035016  1
  Sc  Sc73  1  0.90199504  0.09637877  0.50330809  1
  Sc  Sc74  1  0.70586627  0.29720113  0.09848888  1
  Sc  Sc75  1  0.69441303  0.50678392  0.29662907  1
  Sc  Sc76  1  0.49388828  0.09401532  0.89336074  1
  Sc  Sc77  1  0.69998140  0.50229987  0.49326292  1
  Sc  Sc78  1  0.49509532  0.10567979  0.70027640  1
  Sc  Sc79  1  0.90488129  0.50008642  0.29262738  1
  Sc  Sc80  1  0.89980287  0.29794300  0.90597841  1
  Sc  Sc81  1  0.10494020  0.29633306  0.30847363  1
  Sc  Sc82  1  0.29501840  0.09193749  0.50148503  1
  Sc  Sc83  1  0.49220440  0.30223624  0.88351852  1
  Sc  Sc84  1  0.70212706  0.50388457  0.89170941  1
  Sc  Sc85  1  0.69804193  0.10612790  0.29417433  1
  Sc  Sc86  1  0.10125747  0.50351838  0.29158088  1
  Sc  Sc87  1  0.88813078  0.50447203  0.49844002  1
  Sc  Sc88  1  0.09775827  0.50472624  0.10206619  1
  Sc  Sc89  1  0.30306984  0.49503660  0.08848442  1
  Sc  Sc90  1  0.70386122  0.69870931  0.49741686  1
  Sc  Sc91  1  0.70216132  0.69865445  0.29526035  1
  Sc  Sc92  1  0.69626942  0.50132599  0.10126856  1
  Sc  Sc93  1  0.29638493  0.69829024  0.29451285  1
  Sc  Sc94  1  0.50149743  0.68851467  0.90533646  1
  Sc  Sc95  1  0.09839418  0.09451038  0.90013092  1
  Sc  Sc96  1  0.49143001  0.31948309  0.10899001  1
  Sc  Sc97  1  0.09917221  0.90707482  0.29624103  1
  Sc  Sc98  1  0.30342131  0.29962867  0.70240976  1
  Sc  Sc99  1  0.70650667  0.89568887  0.29826322  1
  Nb  Nb100  1  0.30091794  0.90150180  0.70004437  1
  Nb  Nb101  1  0.69945477  0.10486879  0.89933662  1
  Nb  Nb102  1  0.69879639  0.70281258  0.09335298  1
  Nb  Nb103  1  0.30223273  0.50177605  0.49948837  1
  Nb  Nb104  1  0.29558526  0.10492494  0.10034673  1
  Nb  Nb105  1  0.49437567  0.90016829  0.90313717  1
  Nb  Nb106  1  0.10291235  0.69628684  0.29398150  1
  Nb  Nb107  1  0.70320681  0.69748734  0.69990906  1
  Nb  Nb108  1  0.49658323  0.30186466  0.29904116  1
  Nb  Nb109  1  0.70119710  0.50642402  0.70255535  1
  Nb  Nb110  1  0.11000513  0.10584477  0.10800439  1
  Nb  Nb111  1  0.90548841  0.88820598  0.69616482  1
  Nb  Nb112  1  0.30139700  0.70285690  0.90282284  1
  Nb  Nb113  1  0.49872790  0.50014482  0.90429030  1
  Nb  Nb114  1  0.09832334  0.09440594  0.29806533  1
  Nb  Nb115  1  0.09814033  0.89936532  0.89148781  1
  Nb  Nb116  1  0.69249291  0.29571643  0.90009960  1
  Nb  Nb117  1  0.30258479  0.50041749  0.69743008  1
  Nb  Nb118  1  0.69433624  0.88755063  0.70452219  1
  Nb  Nb119  1  0.29524064  0.29719506  0.09992258  1
  Nb  Nb120  1  0.89726605  0.70211467  0.69766403  1
  Nb  Nb121  1  0.29797443  0.49868004  0.30514424  1
  Nb  Nb122  1  0.10546220  0.29713727  0.10253192  1
  Nb  Nb123  1  0.09908829  0.30284957  0.50177952  1
  Nb  Nb124  1  0.10679276  0.69582851  0.11440966  1
  Nb  Nb125  1  0.59738564  0.80351705  0.39908534  1
  Nb  Nb126  1  0.00466397  0.40437185  0.41067241  1
  Nb  Nb127  1  0.79949475  0.79960456  0.79487641  1
  Nb  Nb128  1  0.80276488  0.39678523  0.19891059  1
  Nb  Nb129  1  0.00214598  0.79281624  0.39648604  1
  Nb  Nb130  1  0.39678332  0.00793494  0.19677085  1
  Nb  Nb131  1  0.20185049  0.39498223  0.19673431  1
  Nb  Nb132  1  0.39900040  0.59473000  0.60382013  1
  Nb  Nb133  1  0.59179622  0.39557963  0.39336391  1
  Nb  Nb134  1  -0.00090653  0.40386583  0.59640315  1
  Nb  Nb135  1  0.39354388  0.19861469  0.19826194  1
  Nb  Nb136  1  0.40001427  0.20449676  0.39636305  1
  Nb  Nb137  1  -0.00148294  0.59938427  0.59993709  1
  Nb  Nb138  1  0.60252274  0.59842314  0.60726383  1
  Nb  Nb139  1  0.39937309  0.80421811  0.80761581  1
  Nb  Nb140  1  0.00360136  0.60394726  0.40401533  1
  Nb  Nb141  1  0.79910500  0.39982700  0.60947767  1
  Nb  Nb142  1  0.00017261  0.60666428  0.79803389  1
  Nb  Nb143  1  0.59696269  -0.00489254  0.40113723  1
  Nb  Nb144  1  0.80600486  0.00121982  0.19694601  1
  Nb  Nb145  1  0.39808404  0.20267206  0.00652233  1
  Nb  Nb146  1  0.59345385  0.20586760  -0.00679203  1
  Nb  Nb147  1  0.59853389  0.39739769  -0.00820935  1
  Nb  Nb148  1  0.01090887  0.19499267  0.20001770  1
  Nb  Nb149  1  0.40008167  0.39958159  0.39978040  1
  Pd  Pd150  1  0.00972654  0.60315192  -0.00324184  1
  Pd  Pd151  1  0.40036324  0.00745657  0.38901338  1
  Pd  Pd152  1  0.79681256  -0.00310538  0.00511677  1
  Pd  Pd153  1  0.19290195  0.80688668  0.00571937  1
  Pd  Pd154  1  0.40162008  0.40446404  0.59450801  1
  Pd  Pd155  1  0.19820257  -0.00286277  0.60342107  1
  Pd  Pd156  1  0.60641510  0.40833518  0.59181541  1
  Pd  Pd157  1  0.79508085  0.80996701  -0.00660717  1
  Pd  Pd158  1  0.19312213  -0.00521680  0.00435072  1
  Pd  Pd159  1  0.40325124  -0.00648343  0.79214332  1
  Pd  Pd160  1  0.00893320  0.40230547  -0.00232200  1
  Pd  Pd161  1  0.80403567  0.60095257  0.39151949  1
  Pd  Pd162  1  0.40784745  0.60815070  0.79119333  1
  Pd  Pd163  1  0.19355941  0.80498642  0.39156928  1
  Pd  Pd164  1  0.19888778  0.39987377  0.60773401  1
  Pd  Pd165  1  0.20926335  -0.00900201  0.19889009  1
  Pd  Pd166  1  0.79200915  0.20467261  0.61341949  1
  Pd  Pd167  1  0.80882687  -0.01407557  0.79786546  1
  Pd  Pd168  1  0.20117561  0.20246997  0.81046165  1
  Pd  Pd169  1  0.81229724  0.19818663  0.20081692  1
  Pd  Pd170  1  0.59610019  0.20010934  0.40856048  1
  Pd  Pd171  1  0.79651181  0.39262849  0.80225661  1
  Pd  Pd172  1  0.01158107  0.00072324  0.00371770  1
  Pd  Pd173  1  0.00296096  0.20051361  0.59774224  1
  Pd  Pd174  1  0.00145435  0.20440576  0.39733846  1
  Pd  Pd175  1  0.80015043  0.19210772  0.39673662  1
  Pd  Pd176  1  0.80093235  0.20595494  0.79862788  1
  Pd  Pd177  1  0.01178598  0.79861374  0.00557493  1
  Pd  Pd178  1  0.79690020  0.40318059  0.39415917  1
  Pd  Pd179  1  0.59137359  0.21100183  0.18377609  1
  Pd  Pd180  1  0.79555916  0.20041362  -0.00141799  1
  Pd  Pd181  1  0.39701287  0.00241173  0.60844137  1
  Pd  Pd182  1  0.20311014  0.60679634  0.60789772  1
  Pd  Pd183  1  0.40217100  0.59707415  0.40205069  1
  Pd  Pd184  1  0.19699471  0.60820219  0.79434433  1
  Pd  Pd185  1  0.20528955  0.80702300  0.79676480  1
  Pd  Pd186  1  0.79012223  0.00316105  0.39343334  1
  Pd  Pd187  1  0.80116176  -0.00734481  0.60986487  1
  Pd  Pd188  1  0.19939777  0.19932541  -0.00937573  1
  Pd  Pd189  1  0.60678831  0.19059978  0.60510781  1
  Pd  Pd190  1  0.39771835  0.78997176  0.61137385  1
  Pd  Pd191  1  0.38891863  0.59730940  0.19246895  1
  Pd  Pd192  1  0.80087201  0.59309926  0.19298912  1
  Pd  Pd193  1  0.79544456  0.59600710  0.00451282  1
  Pd  Pd194  1  0.60367566  0.00309257  0.59705822  1
  Pd  Pd195  1  0.79277488  0.40338985  0.00364481  1
  Pd  Pd196  1  0.00282642  0.40295319  0.80122969  1
  Pd  Pd197  1  0.79425016  0.80679275  0.18817711  1
  Pd  Pd198  1  0.38850992  0.19820591  0.59224299  1
  Pd  Pd199  1  0.59642297  0.79595213  -0.00769696  1
  Rh  Rh200  1  0.60650253  0.78888366  0.58958866  1
  Rh  Rh201  1  0.19576047  -0.00688739  0.40293779  1
  Rh  Rh202  1  -0.00453409  -0.00214049  0.59995630  1
  Rh  Rh203  1  0.40283016  0.79290989  -0.00760284  1
  Rh  Rh204  1  0.59515625  0.19051029  0.80433841  1
  Rh  Rh205  1  0.00431047  0.38697306  0.20969023  1
  Rh  Rh206  1  0.59787591  0.79856489  0.80963928  1
  Rh  Rh207  1  0.60548575  0.60983484  0.19002667  1
  Rh  Rh208  1  0.60108408  0.40832991  0.80893431  1
  Rh  Rh209  1  0.39338586  0.80293378  0.19960093  1
  Rh  Rh210  1  0.79478989  0.59412846  0.59913235  1
  Rh  Rh211  1  0.00998637  0.19625131  0.00401431  1
  Rh  Rh212  1  0.19228449  0.40382479  0.00966968  1
  Rh  Rh213  1  0.19775189  0.20403789  0.20677317  1
  Rh  Rh214  1  0.00673121  -0.01063629  0.40819993  1
  Rh  Rh215  1  0.19629849  0.40955905  0.39420650  1
  Rh  Rh216  1  0.79483673  0.80469417  0.60637158  1
  Rh  Rh217  1  0.79901769  0.80029350  0.40131957  1
  Rh  Rh218  1  -0.00590398  0.80044164  0.80618569  1
  Rh  Rh219  1  -0.00236792  0.60655950  0.20235891  1
  Rh  Rh220  1  -0.00257573  -0.00463178  0.79934422  1
  Rh  Rh221  1  0.39463298  0.00490509  0.00741295  1
  Rh  Rh222  1  -0.00242923  0.00738994  0.19068852  1
  Rh  Rh223  1  0.80724681  0.61062221  0.80383348  1
  Rh  Rh224  1  0.19913691  0.19527465  0.59824672  1
  Rh  Rh225  1  0.40828228  0.39690625  -0.00507908  1
  Rh  Rh226  1  0.00035885  0.19655558  0.80815043  1
  Rh  Rh227  1  0.19921766  0.19346402  0.40460312  1
  Rh  Rh228  1  0.20699494  0.58873830  0.19708492  1
  Rh  Rh229  1  0.38666294  0.40264306  0.20422757  1
  Rh  Rh230  1  0.00723870  0.79589703  0.20314888  1
  Rh  Rh231  1  0.39367096  0.40339998  0.79964325  1
  Rh  Rh232  1  0.19928502  0.80268542  0.20227929  1
  Rh  Rh233  1  0.60560526  0.79339969  0.20330446  1
  Rh  Rh234  1  0.19479505  -0.00519944  0.79795843  1
  Rh  Rh235  1  0.39559232  0.60618701  0.00128439  1
  Rh  Rh236  1  0.38879748  0.20066328  0.80802061  1
  Rh  Rh237  1  0.60716081  -0.00410937  0.21111217  1
  Rh  Rh238  1  0.59211412  0.00267036  0.80116202  1
  Rh  Rh239  1  0.61136375  0.39703713  0.19768747  1
  Rh  Rh240  1  0.59982267  0.60342101  0.40401044  1
  Rh  Rh241  1  0.20268087  0.59980138  0.00418174  1
  Rh  Rh242  1  0.20679617  0.80514825  0.60493024  1
  Rh  Rh243  1  0.40451850  0.79056818  0.39244182  1
  Rh  Rh244  1  0.59414309  0.59533993  0.79426862  1
  Rh  Rh245  1  0.60663675  0.59396965  0.00017190  1
  Rh  Rh246  1  0.60045369  0.01055247  -0.01288394  1
  Rh  Rh247  1  0.19823076  0.59838653  0.39248390  1
  Rh  Rh248  1  -0.00146182  0.80054671  0.58788028  1
  Rh  Rh249  1  0.20669465  0.39905966  0.79456230  1
