# generated using pymatgen
data_ZrScNbPdRh
_symmetry_space_group_name_H-M   'P 1'
_cell_length_a   16.55921078
_cell_length_b   16.55834205
_cell_length_c   16.56259266
_cell_angle_alpha   90.03168523
_cell_angle_beta   89.97766618
_cell_angle_gamma   90.01347361
_symmetry_Int_Tables_number   1
_chemical_formula_structural   ZrScNbPdRh
_chemical_formula_sum   'Zr50 Sc50 Nb50 Pd50 Rh50'
_cell_volume   4541.34706637
_cell_formula_units_Z   50
loop_
 _symmetry_equiv_pos_site_id
 _symmetry_equiv_pos_as_xyz
  1  'x, y, z'
loop_
 _atom_site_type_symbol
 _atom_site_label
 _atom_site_symmetry_multiplicity
 _atom_site_fract_x
 _atom_site_fract_y
 _atom_site_fract_z
 _atom_site_occupancy
  Zr  Zr0  1  0.09712907  0.09517556  0.71193242  1
  Zr  Zr1  1  0.09207999  0.90114585  0.29706544  1
  Zr  Zr2  1  0.89486135  0.90997644  0.30276861  1
  Zr  Zr3  1  0.09819055  0.30100032  0.70218723  1
  Zr  Zr4  1  0.30450206  0.30216375  0.09733497  1
  Zr  Zr5  1  0.10220077  0.50506189  0.09461435  1
  Zr  Zr6  1  0.30035421  0.89824322  0.10055456  1
  Zr  Zr7  1  0.10386142  0.70410407  0.10245540  1
  Zr  Zr8  1  0.49852130  0.49239133  0.30172286  1
  Zr  Zr9  1  0.69802886  0.90471568  0.30616979  1
  Zr  Zr10  1  0.69661975  0.29381586  0.69762825  1
  Zr  Zr11  1  0.89283457  0.49877872  0.30210614  1
  Zr  Zr12  1  0.90989343  0.70147619  0.09482290  1
  Zr  Zr13  1  0.31644636  0.70088818  0.89467787  1
  Zr  Zr14  1  0.30241271  0.50028923  0.08918007  1
  Zr  Zr15  1  0.49611776  0.30248245  0.29663833  1
  Zr  Zr16  1  0.10259868  0.29864668  0.29701123  1
  Zr  Zr17  1  0.69990350  0.49590002  0.69806654  1
  Zr  Zr18  1  0.69560505  0.30278435  0.49914223  1
  Zr  Zr19  1  0.30233809  0.70003862  0.09709409  1
  Zr  Zr20  1  0.48978037  0.70211449  0.70562117  1
  Zr  Zr21  1  0.70415942  0.10909285  0.89434704  1
  Zr  Zr22  1  0.70230373  0.90468257  0.89847471  1
  Zr  Zr23  1  0.10681878  0.49927411  0.89412388  1
  Zr  Zr24  1  0.90253023  0.50256051  0.69304134  1
  Zr  Zr25  1  0.30438111  0.30087259  0.69800299  1
  Zr  Zr26  1  0.69759575  0.71058470  0.68723620  1
  Zr  Zr27  1  0.70027723  0.49735941  0.29578279  1
  Zr  Zr28  1  0.69419971  0.70129839  0.89889660  1
  Zr  Zr29  1  0.10097649  0.49675647  0.70029299  1
  Zr  Zr30  1  0.49622811  0.49959546  0.69942089  1
  Zr  Zr31  1  0.09917503  0.49658904  0.30244616  1
  Zr  Zr32  1  0.10648317  0.90889029  0.09423554  1
  Zr  Zr33  1  0.09997295  0.29586259  0.10476784  1
  Zr  Zr34  1  0.10172148  0.50457976  0.50719526  1
  Zr  Zr35  1  0.29635249  0.29899381  0.29857508  1
  Zr  Zr36  1  0.69195561  0.89445232  0.50886764  1
  Zr  Zr37  1  0.29159000  0.50760024  0.70509601  1
  Zr  Zr38  1  0.50265140  0.70249749  0.49789583  1
  Zr  Zr39  1  0.29598320  0.09133286  0.49953281  1
  Zr  Zr40  1  0.49479086  0.89879996  0.11401126  1
  Zr  Zr41  1  0.88400567  0.29511452  0.50112441  1
  Zr  Zr42  1  0.49426461  0.29490070  0.89418224  1
  Zr  Zr43  1  0.10425545  0.91016378  0.89795803  1
  Zr  Zr44  1  0.68939730  0.69880960  0.10716205  1
  Zr  Zr45  1  0.50094039  0.10696512  0.70350690  1
  Zr  Zr46  1  0.09774644  0.10662072  0.30507940  1
  Zr  Zr47  1  0.89949346  0.70451151  0.89809746  1
  Zr  Zr48  1  0.48955573  0.89692716  0.89316114  1
  Zr  Zr49  1  0.69804119  0.49772995  0.09925627  1
  Sc  Sc50  1  0.50624851  0.70516593  0.29501995  1
  Sc  Sc51  1  0.10236742  0.29925589  0.48858305  1
  Sc  Sc52  1  0.29990359  0.30147788  0.50145176  1
  Sc  Sc53  1  0.69774861  0.29572225  0.30571447  1
  Sc  Sc54  1  0.89361777  0.49610385  0.10704965  1
  Sc  Sc55  1  0.69649642  0.91124923  0.11132255  1
  Sc  Sc56  1  0.89027277  0.69873600  0.50277717  1
  Sc  Sc57  1  0.29646114  0.49763311  0.50439984  1
  Sc  Sc58  1  0.29753538  0.90658822  0.69781601  1
  Sc  Sc59  1  0.89936532  0.29989321  0.70960352  1
  Sc  Sc60  1  0.89641588  0.69461350  0.69327423  1
  Sc  Sc61  1  0.30999117  0.09632272  0.69720670  1
  Sc  Sc62  1  0.91759468  0.90903658  0.10347494  1
  Sc  Sc63  1  0.30605948  0.90432256  0.30312500  1
  Sc  Sc64  1  0.69609569  0.49282121  0.90212610  1
  Sc  Sc65  1  0.50267877  0.49007256  0.90509685  1
  Sc  Sc66  1  0.70073489  0.30675114  0.90048949  1
  Sc  Sc67  1  0.29390112  0.70071456  0.30161964  1
  Sc  Sc68  1  0.89127643  0.89573920  0.48911397  1
  Sc  Sc69  1  0.70142667  0.70105213  0.49720325  1
  Sc  Sc70  1  0.91360987  0.89969381  0.90109316  1
  Sc  Sc71  1  0.11117969  0.70023947  0.49673229  1
  Sc  Sc72  1  0.90304933  0.30248912  0.30078204  1
  Sc  Sc73  1  0.50615677  0.90190325  0.68898380  1
  Sc  Sc74  1  0.49530620  0.69613209  0.10209010  1
  Sc  Sc75  1  0.89779072  0.70458965  0.30682820  1
  Sc  Sc76  1  0.11171436  0.90030992  0.49266869  1
  Sc  Sc77  1  0.50097041  0.09446980  0.50786798  1
  Sc  Sc78  1  0.30133730  0.09040814  0.10656135  1
  Sc  Sc79  1  0.90700226  0.90331253  0.70919217  1
  Sc  Sc80  1  0.10431333  0.69999828  0.30179546  1
  Sc  Sc81  1  0.30238946  0.90470777  0.90332864  1
  Sc  Sc82  1  0.30124727  0.49504166  0.29850743  1
  Sc  Sc83  1  0.10126020  0.90452465  0.70795733  1
  Sc  Sc84  1  0.50926318  0.09560935  0.29855123  1
  Sc  Sc85  1  0.88808360  0.49975868  0.50119484  1
  Sc  Sc86  1  0.89892315  0.29760858  0.10067619  1
  Sc  Sc87  1  0.70560983  0.30571652  0.09647986  1
  Sc  Sc88  1  0.70439854  0.11099977  0.49812114  1
  Sc  Sc89  1  0.69740034  0.69629659  0.30251376  1
  Sc  Sc90  1  0.49874632  0.29908008  0.69590723  1
  Sc  Sc91  1  0.50217790  0.49344449  0.49925879  1
  Sc  Sc92  1  0.69988153  0.49872341  0.49682545  1
  Sc  Sc93  1  0.89555554  0.49983502  0.88905962  1
  Sc  Sc94  1  0.50142178  0.49520532  0.10396791  1
  Sc  Sc95  1  0.49619247  0.09800664  0.11029391  1
  Sc  Sc96  1  0.09514506  0.30059452  0.89358649  1
  Sc  Sc97  1  0.69567683  0.09765347  0.10682172  1
  Sc  Sc98  1  0.09312860  0.70014648  0.90578177  1
  Sc  Sc99  1  0.10406982  0.68516136  0.69213508  1
  Nb  Nb100  1  0.29544123  0.49040111  0.90764288  1
  Nb  Nb101  1  0.29650377  0.70596235  0.49527071  1
  Nb  Nb102  1  0.30138662  0.29701943  0.90697214  1
  Nb  Nb103  1  0.70359558  0.90467085  0.69749892  1
  Nb  Nb104  1  0.30042208  0.10643870  0.30474520  1
  Nb  Nb105  1  0.30095246  0.69889109  0.69817934  1
  Nb  Nb106  1  0.49589871  0.29713210  0.49056991  1
  Nb  Nb107  1  0.90610263  0.11036860  0.90127823  1
  Nb  Nb108  1  0.09696928  0.10122786  0.49817426  1
  Nb  Nb109  1  0.49756796  0.09891122  0.89462404  1
  Nb  Nb110  1  0.50159351  0.70780346  0.89642133  1
  Nb  Nb111  1  0.49846625  0.29710624  0.09601027  1
  Nb  Nb112  1  0.90849588  0.10212177  0.10204816  1
  Nb  Nb113  1  0.89969370  0.09819665  0.49641518  1
  Nb  Nb114  1  0.50452038  0.89766208  0.31115021  1
  Nb  Nb115  1  0.49616711  0.89591827  0.48745655  1
  Nb  Nb116  1  0.90018669  0.30096053  0.90766743  1
  Nb  Nb117  1  0.09252625  0.09710318  0.09663143  1
  Nb  Nb118  1  0.30544991  0.89295727  0.49537611  1
  Nb  Nb119  1  0.71051374  0.09197366  0.29594486  1
  Nb  Nb120  1  0.70187470  0.09915705  0.69975189  1
  Nb  Nb121  1  0.89863945  0.10249638  0.70098668  1
  Nb  Nb122  1  0.89483759  0.09278448  0.30687468  1
  Nb  Nb123  1  0.10603328  0.09820648  0.90377184  1
  Nb  Nb124  1  0.30818904  0.09893725  0.89463317  1
  Nb  Nb125  1  0.19297431  0.19432063  0.60294778  1
  Nb  Nb126  1  0.80326084  0.00579170  0.60486334  1
  Nb  Nb127  1  0.20670440  0.19548291  0.80533910  1
  Nb  Nb128  1  -0.00161570  0.39361197  0.59812831  1
  Nb  Nb129  1  0.59477043  0.60404453  0.79863288  1
  Nb  Nb130  1  -0.00358945  0.00384461  0.59251052  1
  Nb  Nb131  1  0.20227798  0.19382282  -0.00441461  1
  Nb  Nb132  1  0.39310357  0.79957393  0.59135849  1
  Nb  Nb133  1  0.00289831  0.80534457  0.59741271  1
  Nb  Nb134  1  -0.00106922  0.39926420  -0.00361423  1
  Nb  Nb135  1  0.60404896  0.00441691  0.79771108  1
  Nb  Nb136  1  0.79635516  0.60659920  0.00118924  1
  Nb  Nb137  1  0.59635117  0.00253644  -0.00765430  1
  Nb  Nb138  1  0.39992582  0.19803837  0.39916279  1
  Nb  Nb139  1  0.20541931  0.79215243  0.79739814  1
  Nb  Nb140  1  0.80539937  0.00618523  -0.00065521  1
  Nb  Nb141  1  0.59260406  0.19661831  -0.00161094  1
  Nb  Nb142  1  0.00065615  0.59527922  0.40179743  1
  Nb  Nb143  1  0.80159821  0.80460554  0.19586828  1
  Nb  Nb144  1  0.59742252  0.80619994  -0.00021234  1
  Nb  Nb145  1  0.39764762  0.60391923  0.40313348  1
  Nb  Nb146  1  0.79732299  0.80235927  0.80103112  1
  Nb  Nb147  1  0.80485266  0.18806671  0.20481853  1
  Nb  Nb148  1  -0.00181038  0.19438635  0.59720436  1
  Nb  Nb149  1  0.79616918  0.80478100  0.00470008  1
  Pd  Pd150  1  0.79304964  0.19399557  0.01117187  1
  Pd  Pd151  1  0.39982393  0.19651447  0.20567108  1
  Pd  Pd152  1  0.80618079  -0.00181491  0.80248664  1
  Pd  Pd153  1  0.60318399  0.39178103  0.19809924  1
  Pd  Pd154  1  0.19966313  -0.00295402  0.39282103  1
  Pd  Pd155  1  0.19830107  0.00590395  0.20817715  1
  Pd  Pd156  1  0.39565835  0.40305697  0.80284794  1
  Pd  Pd157  1  0.39426977  0.60329414  0.58951452  1
  Pd  Pd158  1  0.39616723  0.79741995  0.21020013  1
  Pd  Pd159  1  0.20342907  0.40713554  0.19442067  1
  Pd  Pd160  1  0.20448287  0.40200859  0.40302926  1
  Pd  Pd161  1  0.20153133  0.18978325  0.19050655  1
  Pd  Pd162  1  0.00286114  0.60454032  0.79834899  1
  Pd  Pd163  1  0.79964656  0.39599815  0.79838885  1
  Pd  Pd164  1  0.60113368  0.59944828  0.60287877  1
  Pd  Pd165  1  0.59540367  0.60290515  -0.00457056  1
  Pd  Pd166  1  0.19247793  0.00110558  0.60089690  1
  Pd  Pd167  1  0.40402491  0.58597615  0.81171029  1
  Pd  Pd168  1  -0.00559451  0.40387312  0.41075804  1
  Pd  Pd169  1  0.40999223  0.59630919  -0.00614265  1
  Pd  Pd170  1  0.40041151  0.40029498  0.59549855  1
  Pd  Pd171  1  0.20405811  0.61039113  -0.00886682  1
  Pd  Pd172  1  0.00227628  0.79233960  0.40931553  1
  Pd  Pd173  1  0.20427199  0.59508929  0.20204345  1
  Pd  Pd174  1  0.00743648  0.78893499  0.78644008  1
  Pd  Pd175  1  0.60588221  0.00835550  0.40868144  1
  Pd  Pd176  1  -0.01070919  0.58599860  -0.00466556  1
  Pd  Pd177  1  0.80241489  0.20836549  0.79960781  1
  Pd  Pd178  1  0.78842270  0.60530460  0.79968671  1
  Pd  Pd179  1  0.19843216  0.80221615  0.60776694  1
  Pd  Pd180  1  0.20784495  0.39102216  0.80411705  1
  Pd  Pd181  1  -0.00096753  0.60296486  0.21001020  1
  Pd  Pd182  1  0.20342810  0.80497601  0.20580357  1
  Pd  Pd183  1  0.59695062  0.19913249  0.59596868  1
  Pd  Pd184  1  0.80336337  0.61078405  0.19629834  1
  Pd  Pd185  1  0.59543983  0.19346100  0.39860714  1
  Pd  Pd186  1  -0.00381209  0.79885928  0.20278541  1
  Pd  Pd187  1  0.59448641  0.59739800  0.39696642  1
  Pd  Pd188  1  0.40422285  -0.00819360  0.59945699  1
  Pd  Pd189  1  -0.00221300  0.39974743  0.19300967  1
  Pd  Pd190  1  -0.00748769  0.20377405  0.40064983  1
  Pd  Pd191  1  0.40399105  0.00374353  0.00377630  1
  Pd  Pd192  1  0.40050687  0.18932241  0.00522965  1
  Pd  Pd193  1  0.20175715  0.79686258  -0.01155179  1
  Pd  Pd194  1  0.60861003  0.20474051  0.19572843  1
  Pd  Pd195  1  0.40384689  0.00817851  0.39598938  1
  Pd  Pd196  1  0.60328854  0.80549736  0.79746438  1
  Pd  Pd197  1  0.00726517  0.20588085  -0.00306652  1
  Pd  Pd198  1  0.59520359  0.39622775  0.59788350  1
  Pd  Pd199  1  0.39872717  0.59978151  0.20933486  1
  Rh  Rh200  1  0.78967697  0.00083361  0.41505928  1
  Rh  Rh201  1  0.80206950  0.39777952  0.60650590  1
  Rh  Rh202  1  0.79379179  0.39795795  0.39530036  1
  Rh  Rh203  1  0.60181802  0.40008938  0.40113718  1
  Rh  Rh204  1  -0.00398011  0.00580356  -0.00786221  1
  Rh  Rh205  1  0.59476816  0.38624560  0.00178357  1
  Rh  Rh206  1  0.59309024  -0.00311449  0.20352455  1
  Rh  Rh207  1  -0.00736091  0.40191053  0.80106815  1
  Rh  Rh208  1  -0.00645634  0.00959134  0.80674234  1
  Rh  Rh209  1  0.21052918  -0.00047913  0.80437547  1
  Rh  Rh210  1  -0.00398131  0.60197430  0.58862366  1
  Rh  Rh211  1  0.18894813  0.38912070  -0.00110146  1
  Rh  Rh212  1  0.60806761  0.00540471  0.60179973  1
  Rh  Rh213  1  0.39061359  0.81048417  0.78574593  1
  Rh  Rh214  1  0.20813102  0.60205805  0.59596696  1
  Rh  Rh215  1  0.60461253  0.80666165  0.20085409  1
  Rh  Rh216  1  0.79133236  0.79930926  0.39108775  1
  Rh  Rh217  1  0.58858372  0.80013126  0.59709704  1
  Rh  Rh218  1  0.00474707  0.00964601  0.20743363  1
  Rh  Rh219  1  0.79733843  0.38654467  0.20589499  1
  Rh  Rh220  1  0.39670253  0.39871834  0.40359598  1
  Rh  Rh221  1  0.20138443  0.59458102  0.39959257  1
  Rh  Rh222  1  0.81671365  0.81450646  0.61171636  1
  Rh  Rh223  1  0.79012591  0.59672033  0.59695359  1
  Rh  Rh224  1  0.40556929  0.80001815  0.00739149  1
  Rh  Rh225  1  0.59310917  0.59325064  0.20506091  1
  Rh  Rh226  1  0.20486468  0.60716782  0.80860537  1
  Rh  Rh227  1  0.80079478  0.19901961  0.39024491  1
  Rh  Rh228  1  0.60496861  0.79755944  0.39899909  1
  Rh  Rh229  1  -0.00685163  0.19361593  0.20840366  1
  Rh  Rh230  1  0.39492665  0.20035404  0.58873987  1
  Rh  Rh231  1  0.39965859  0.79204537  0.39847732  1
  Rh  Rh232  1  0.80977574  0.41025672  -0.00298886  1
  Rh  Rh233  1  0.39748581  0.40028195  0.19288082  1
  Rh  Rh234  1  0.60059475  0.20056142  0.80276266  1
  Rh  Rh235  1  0.20892589  0.19984549  0.40883761  1
  Rh  Rh236  1  0.20164697  0.80755786  0.39091857  1
  Rh  Rh237  1  0.00085405  0.19738019  0.80367298  1
  Rh  Rh238  1  0.80321282  0.59977399  0.40028455  1
  Rh  Rh239  1  0.39437114  0.20247847  0.79671753  1
  Rh  Rh240  1  0.80316909  0.19651774  0.60582257  1
  Rh  Rh241  1  0.40545272  0.40064783  0.00076885  1
  Rh  Rh242  1  0.40144737  -0.00107653  0.21290159  1
  Rh  Rh243  1  0.40533559  -0.00341358  0.79133976  1
  Rh  Rh244  1  0.00725748  0.80861134  0.00482823  1
  Rh  Rh245  1  0.20719221  0.00812210  0.00037441  1
  Rh  Rh246  1  0.19226446  0.39239046  0.59839156  1
  Rh  Rh247  1  0.59836976  0.40277291  0.79508610  1
  Rh  Rh248  1  0.00324912  -0.00184890  0.40312731  1
  Rh  Rh249  1  0.81102625  0.00070155  0.18853299  1
