# generated using pymatgen
data_ZrScNbPdRh
_symmetry_space_group_name_H-M   'P 1'
_cell_length_a   16.55818670
_cell_length_b   16.55366728
_cell_length_c   16.55727103
_cell_angle_alpha   89.97975669
_cell_angle_beta   89.98260633
_cell_angle_gamma   90.00512792
_symmetry_Int_Tables_number   1
_chemical_formula_structural   ZrScNbPdRh
_chemical_formula_sum   'Zr50 Sc50 Nb50 Pd50 Rh50'
_cell_volume   4538.32617427
_cell_formula_units_Z   50
loop_
 _symmetry_equiv_pos_site_id
 _symmetry_equiv_pos_as_xyz
  1  'x, y, z'
loop_
 _atom_site_type_symbol
 _atom_site_label
 _atom_site_symmetry_multiplicity
 _atom_site_fract_x
 _atom_site_fract_y
 _atom_site_fract_z
 _atom_site_occupancy
  Zr  Zr0  1  0.51136761  0.30092478  0.70323016  1
  Zr  Zr1  1  0.70193311  0.70449774  0.89906989  1
  Zr  Zr2  1  0.29861836  0.49983766  0.69809657  1
  Zr  Zr3  1  0.30117723  0.89828709  0.70592965  1
  Zr  Zr4  1  0.90454010  0.70549991  0.69958165  1
  Zr  Zr5  1  0.10068340  0.89129939  0.10121317  1
  Zr  Zr6  1  0.09537580  0.50338511  0.89741332  1
  Zr  Zr7  1  0.30146022  0.70276084  0.70195295  1
  Zr  Zr8  1  0.29607858  0.49337119  0.09493666  1
  Zr  Zr9  1  0.09326122  0.89817331  0.50111163  1
  Zr  Zr10  1  0.70549452  0.29564499  0.50505819  1
  Zr  Zr11  1  0.49472421  0.90131594  0.69878580  1
  Zr  Zr12  1  0.70652667  0.70806084  0.69762864  1
  Zr  Zr13  1  0.28902175  0.70656885  0.10228712  1
  Zr  Zr14  1  0.30123735  0.70148216  0.30296520  1
  Zr  Zr15  1  0.49740060  0.49851105  0.70557721  1
  Zr  Zr16  1  0.89538938  0.10684818  0.09795446  1
  Zr  Zr17  1  0.09829865  0.49934886  0.69967319  1
  Zr  Zr18  1  0.50080116  0.09986942  0.10824911  1
  Zr  Zr19  1  0.90473241  0.49944820  0.70052366  1
  Zr  Zr20  1  0.89936114  0.90176161  0.10269813  1
  Zr  Zr21  1  0.90324803  0.09515637  0.90335756  1
  Zr  Zr22  1  0.69709479  0.09937142  0.30595771  1
  Zr  Zr23  1  0.49228557  0.90581668  0.89549840  1
  Zr  Zr24  1  0.89775771  0.49366348  0.50150246  1
  Zr  Zr25  1  0.09927443  0.70301768  0.90247634  1
  Zr  Zr26  1  0.30134401  0.10251675  0.30565642  1
  Zr  Zr27  1  0.50562202  0.50197987  0.09679949  1
  Zr  Zr28  1  0.49819896  0.09820030  0.69639325  1
  Zr  Zr29  1  0.70455128  0.89605411  0.89651084  1
  Zr  Zr30  1  0.69731233  0.10147757  0.10782430  1
  Zr  Zr31  1  0.49878751  0.28944689  0.29962737  1
  Zr  Zr32  1  0.50321863  0.49071198  0.29021136  1
  Zr  Zr33  1  0.70640418  0.10669580  0.70559563  1
  Zr  Zr34  1  0.50509004  0.09955808  0.49182634  1
  Zr  Zr35  1  0.49601502  0.49752789  0.89782164  1
  Zr  Zr36  1  0.30701645  0.09990023  0.50606862  1
  Zr  Zr37  1  0.09338860  0.90801284  0.30626238  1
  Zr  Zr38  1  0.49436835  0.69883837  0.69613586  1
  Zr  Zr39  1  0.90159837  0.30568767  0.49866988  1
  Zr  Zr40  1  0.29647634  0.69855973  0.50154346  1
  Zr  Zr41  1  0.09211285  0.51614579  0.09484338  1
  Zr  Zr42  1  0.89816816  0.30097563  0.29980009  1
  Zr  Zr43  1  0.30695855  0.50109426  0.89655426  1
  Zr  Zr44  1  0.29583648  0.90293820  0.90401889  1
  Zr  Zr45  1  0.50293117  0.90463097  0.10635285  1
  Zr  Zr46  1  0.50034896  0.29350092  0.49902811  1
  Zr  Zr47  1  0.09802208  0.49710542  0.51068476  1
  Zr  Zr48  1  0.69782827  0.71130423  0.10065660  1
  Zr  Zr49  1  0.70563059  0.70748191  0.49235159  1
  Sc  Sc50  1  0.70456608  0.90744138  0.70613087  1
  Sc  Sc51  1  0.89415410  0.29806184  0.90979653  1
  Sc  Sc52  1  0.70014658  0.49572127  0.90642418  1
  Sc  Sc53  1  0.70484328  0.29885932  0.29570750  1
  Sc  Sc54  1  0.30079530  0.89331666  0.29886628  1
  Sc  Sc55  1  0.30301891  0.29032002  0.49590410  1
  Sc  Sc56  1  0.29727662  0.10419822  0.69444138  1
  Sc  Sc57  1  0.10315967  0.70552512  0.29472715  1
  Sc  Sc58  1  0.50248648  0.70738688  0.09739170  1
  Sc  Sc59  1  0.49976088  0.29805338  0.89516085  1
  Sc  Sc60  1  0.30506972  0.30043748  0.89647577  1
  Sc  Sc61  1  0.30176959  0.90310138  0.50458151  1
  Sc  Sc62  1  0.49559539  0.69997517  0.90326131  1
  Sc  Sc63  1  0.90304572  0.70421409  0.89640098  1
  Sc  Sc64  1  0.89986608  0.90549002  0.69969337  1
  Sc  Sc65  1  0.89239476  0.28957466  0.68644115  1
  Sc  Sc66  1  0.90071725  0.90218783  0.30767043  1
  Sc  Sc67  1  0.90170722  0.09464815  0.30004028  1
  Sc  Sc68  1  0.30013996  0.90163809  0.09335001  1
  Sc  Sc69  1  0.10045392  0.30502496  0.89212488  1
  Sc  Sc70  1  0.09925006  0.50789923  0.29332836  1
  Sc  Sc71  1  0.90680511  0.49507984  0.90408935  1
  Sc  Sc72  1  0.70747899  0.50028476  0.49945106  1
  Sc  Sc73  1  0.30177824  0.71252280  0.90000938  1
  Sc  Sc74  1  0.08693706  0.09268031  0.09151586  1
  Sc  Sc75  1  0.30622819  0.09979101  0.90125674  1
  Sc  Sc76  1  0.09258513  0.90171179  0.69992660  1
  Sc  Sc77  1  0.89337464  0.30018923  0.09979726  1
  Sc  Sc78  1  0.30065546  0.49235317  0.29815605  1
  Sc  Sc79  1  0.11336768  0.09409182  0.49967294  1
  Sc  Sc80  1  0.50695298  0.49864712  0.50779233  1
  Sc  Sc81  1  0.89186973  0.70804434  0.50417587  1
  Sc  Sc82  1  0.91362223  0.69841390  0.10732002  1
  Sc  Sc83  1  0.29326251  0.50042828  0.50085864  1
  Sc  Sc84  1  0.10767608  0.30176195  0.69230660  1
  Sc  Sc85  1  0.89015210  0.49715199  0.30651323  1
  Sc  Sc86  1  0.89977495  0.90220988  0.49993675  1
  Sc  Sc87  1  0.09532170  0.90108986  0.90739222  1
  Sc  Sc88  1  0.69005680  0.49105271  0.68775276  1
  Sc  Sc89  1  0.30951762  0.09424782  0.09397138  1
  Sc  Sc90  1  0.49906672  0.90633831  0.49668204  1
  Sc  Sc91  1  0.49777800  0.10580807  0.90143338  1
  Sc  Sc92  1  0.89485092  0.10183082  0.50439842  1
  Sc  Sc93  1  0.70824472  0.29661755  0.10277589  1
  Sc  Sc94  1  0.10536998  0.09932264  0.69118790  1
  Sc  Sc95  1  0.09851217  0.30794737  0.09828708  1
  Sc  Sc96  1  0.70277702  0.89374337  0.29986276  1
  Sc  Sc97  1  0.50088748  0.70835110  0.50015717  1
  Sc  Sc98  1  0.30678587  0.29975748  0.29651320  1
  Sc  Sc99  1  0.49700672  0.29022209  0.10490805  1
  Nb  Nb100  1  0.50426213  0.70753440  0.29969639  1
  Nb  Nb101  1  0.70097790  0.49476823  0.10614482  1
  Nb  Nb102  1  0.30084154  0.29895923  0.69322795  1
  Nb  Nb103  1  0.70338180  0.90190872  0.49790827  1
  Nb  Nb104  1  0.69564910  0.29652889  0.89554802  1
  Nb  Nb105  1  0.70165040  0.69884766  0.30394397  1
  Nb  Nb106  1  0.70106939  0.90053218  0.09757169  1
  Nb  Nb107  1  0.69719726  0.30105068  0.70623754  1
  Nb  Nb108  1  0.50417651  0.09439962  0.29398913  1
  Nb  Nb109  1  0.90302910  0.09842917  0.70644723  1
  Nb  Nb110  1  0.89535437  0.50110441  0.10116976  1
  Nb  Nb111  1  0.09815715  0.29932459  0.29735424  1
  Nb  Nb112  1  0.09937676  0.69714095  0.10202272  1
  Nb  Nb113  1  0.09721434  0.69895172  0.70164942  1
  Nb  Nb114  1  0.09696660  0.30336472  0.49903643  1
  Nb  Nb115  1  0.69534512  0.49780631  0.29255670  1
  Nb  Nb116  1  0.69894575  0.09286928  0.49625945  1
  Nb  Nb117  1  0.09932991  0.09531884  0.90024959  1
  Nb  Nb118  1  0.89163762  0.69309372  0.30731128  1
  Nb  Nb119  1  0.29487296  0.29194347  0.09793234  1
  Nb  Nb120  1  0.10140870  0.10196255  0.30082902  1
  Nb  Nb121  1  0.10098892  0.69674537  0.50356541  1
  Nb  Nb122  1  0.50392708  0.89261915  0.29688088  1
  Nb  Nb123  1  0.70418906  0.10435527  0.90369687  1
  Nb  Nb124  1  0.89787132  0.90681716  0.89600783  1
  Nb  Nb125  1  -0.00093615  0.60375299  0.40478781  1
  Nb  Nb126  1  -0.00367779  0.40571477  0.19887127  1
  Nb  Nb127  1  0.60417170  0.60008149  0.79852688  1
  Nb  Nb128  1  0.19487901  0.00661970  0.20158768  1
  Nb  Nb129  1  0.79682560  0.59400336  0.80108931  1
  Nb  Nb130  1  0.19889389  0.19839943  0.00187391  1
  Nb  Nb131  1  0.79978269  0.59741828  0.00656940  1
  Nb  Nb132  1  0.19712402  0.60394505  0.79768174  1
  Nb  Nb133  1  -0.00101212  0.19181292  0.79697686  1
  Nb  Nb134  1  0.60845290  0.00072344  0.00086454  1
  Nb  Nb135  1  0.79540115  -0.00250391  -0.00065885  1
  Nb  Nb136  1  0.40071327  0.39430185  0.60462183  1
  Nb  Nb137  1  0.19715606  0.00158085  0.80461879  1
  Nb  Nb138  1  0.60204090  0.40143280  0.39547853  1
  Nb  Nb139  1  0.60616456  0.80768271  0.59742069  1
  Nb  Nb140  1  0.00983410  0.20345744  0.39984307  1
  Nb  Nb141  1  0.19553027  0.19593280  0.19629334  1
  Nb  Nb142  1  0.60354140  0.39695398  0.00338775  1
  Nb  Nb143  1  0.79367733  0.39679118  0.79815742  1
  Nb  Nb144  1  0.79303817  0.59967735  0.19981448  1
  Nb  Nb145  1  0.40268939  0.60294095  0.20245812  1
  Nb  Nb146  1  0.40882571  0.60063557  0.39205851  1
  Nb  Nb147  1  0.60053738  0.60020039  0.39017951  1
  Nb  Nb148  1  0.19296716  0.79440302  0.60151863  1
  Nb  Nb149  1  0.18990920  0.39277306  0.39897301  1
  Pd  Pd150  1  0.80093522  0.00247294  0.60041156  1
  Pd  Pd151  1  0.60036848  0.20268239  0.00156475  1
  Pd  Pd152  1  0.81277646  0.79820588  0.00099583  1
  Pd  Pd153  1  0.40222978  0.79996608  0.40615319  1
  Pd  Pd154  1  0.20579005  -0.00696681  0.39838426  1
  Pd  Pd155  1  -0.00314399  0.79746442  0.21052015  1
  Pd  Pd156  1  -0.00771150  0.60538867  0.59262129  1
  Pd  Pd157  1  -0.00010868  0.80937957  0.80148625  1
  Pd  Pd158  1  0.59974596  -0.01003954  0.39207305  1
  Pd  Pd159  1  0.00629471  0.19516492  0.59672298  1
  Pd  Pd160  1  0.60439824  0.61037610  0.59548524  1
  Pd  Pd161  1  0.80529011  0.79502129  0.20584072  1
  Pd  Pd162  1  0.39308723  0.60772416  0.00875112  1
  Pd  Pd163  1  0.20521725  0.40299692  0.80196155  1
  Pd  Pd164  1  -0.00184702  0.00736922  0.59610362  1
  Pd  Pd165  1  0.39917545  0.79778597  0.19339839  1
  Pd  Pd166  1  0.19386945  0.39651386  0.20246691  1
  Pd  Pd167  1  0.60675524  0.59672890  -0.00417082  1
  Pd  Pd168  1  0.00183610  0.20462513  0.20104746  1
  Pd  Pd169  1  0.40128765  -0.00283915  0.39304861  1
  Pd  Pd170  1  0.60155229  0.00854384  0.80735746  1
  Pd  Pd171  1  0.00117848  0.00159062  0.19916751  1
  Pd  Pd172  1  -0.00127429  0.39753190  0.00668751  1
  Pd  Pd173  1  0.39991941  0.59290405  0.58911202  1
  Pd  Pd174  1  0.00557838  0.40642692  0.39048559  1
  Pd  Pd175  1  0.40057028  0.40688278  0.41098688  1
  Pd  Pd176  1  0.19840128  0.39447556  -0.00750689  1
  Pd  Pd177  1  0.00900136  0.20935878  -0.00706568  1
  Pd  Pd178  1  0.19827145  0.20633147  0.39777231  1
  Pd  Pd179  1  0.19792904  0.80541942  0.40564094  1
  Pd  Pd180  1  0.80875404  0.20659804  0.80419669  1
  Pd  Pd181  1  -0.00533210  0.79940742  -0.00066920  1
  Pd  Pd182  1  0.60457239  -0.00298916  0.60002088  1
  Pd  Pd183  1  0.39928658  0.19973872  0.79486556  1
  Pd  Pd184  1  0.40841652  0.38882845  0.00518053  1
  Pd  Pd185  1  0.39952371  0.39820476  0.18935678  1
  Pd  Pd186  1  0.80728400  0.19531131  0.39945215  1
  Pd  Pd187  1  0.19684991  0.59141708  0.39642788  1
  Pd  Pd188  1  0.19493594  0.19383614  0.80449253  1
  Pd  Pd189  1  -0.00568694  0.79013339  0.39980326  1
  Pd  Pd190  1  0.79814944  -0.00040852  0.20102464  1
  Pd  Pd191  1  0.20638966  0.60543350  -0.00968191  1
  Pd  Pd192  1  -0.01336031  0.38064015  0.79217031  1
  Pd  Pd193  1  0.59092107  0.80996146  -0.00481446  1
  Pd  Pd194  1  0.59970193  0.61026704  0.20028209  1
  Pd  Pd195  1  0.20796206  0.59691510  0.20291660  1
  Pd  Pd196  1  0.60590388  0.19435314  0.59947576  1
  Pd  Pd197  1  0.80046995  0.59808126  0.60554821  1
  Pd  Pd198  1  0.59276498  0.79567782  0.79390599  1
  Pd  Pd199  1  0.39146251  -0.00263647  0.20629278  1
  Rh  Rh200  1  0.80081060  0.00336277  0.80455886  1
  Rh  Rh201  1  0.19914811  0.00769977  -0.00023666  1
  Rh  Rh202  1  0.39483572  0.20226766  0.00129401  1
  Rh  Rh203  1  0.60375741  0.80371230  0.20333202  1
  Rh  Rh204  1  0.79250943  0.40062553  -0.00325337  1
  Rh  Rh205  1  -0.01184377  0.59607196  0.21281622  1
  Rh  Rh206  1  -0.00019763  0.60206555  0.80330668  1
  Rh  Rh207  1  0.78744908  0.39856872  0.39847545  1
  Rh  Rh208  1  0.21094657  0.39011399  0.58784049  1
  Rh  Rh209  1  0.80346232  0.80787213  0.39778802  1
  Rh  Rh210  1  0.79704832  0.59536082  0.39673571  1
  Rh  Rh211  1  0.19618486  0.79890790  0.00174745  1
  Rh  Rh212  1  0.60071861  0.38575392  0.19575688  1
  Rh  Rh213  1  0.00740027  0.00454499  0.79744749  1
  Rh  Rh214  1  0.79901034  -0.00126788  0.40322707  1
  Rh  Rh215  1  0.40392277  0.20412704  0.60508022  1
  Rh  Rh216  1  0.40550523  0.79801277  0.80440881  1
  Rh  Rh217  1  0.79935871  0.39829681  0.60723022  1
  Rh  Rh218  1  0.39560443  0.39003731  0.79057054  1
  Rh  Rh219  1  0.80655004  0.40371857  0.20108215  1
  Rh  Rh220  1  -0.00764410  -0.00831910  0.00133478  1
  Rh  Rh221  1  0.40103027  0.80489517  0.00374823  1
  Rh  Rh222  1  0.60422657  0.20209540  0.20606007  1
  Rh  Rh223  1  0.19097604  0.80262926  0.79395551  1
  Rh  Rh224  1  0.80191245  0.19477122  0.20631373  1
  Rh  Rh225  1  0.60113104  0.80226208  0.40376988  1
  Rh  Rh226  1  0.60588920  -0.00812408  0.20376296  1
  Rh  Rh227  1  0.20240631  -0.01142506  0.60964744  1
  Rh  Rh228  1  0.39230112  0.19423649  0.20049607  1
  Rh  Rh229  1  0.60713072  0.40741547  0.81051296  1
  Rh  Rh230  1  0.39788027  0.60770525  0.80490687  1
  Rh  Rh231  1  0.79444909  0.19203004  0.59927555  1
  Rh  Rh232  1  -0.00924603  0.60592680  -0.00447442  1
  Rh  Rh233  1  0.59763808  0.39139562  0.58919959  1
  Rh  Rh234  1  0.60364143  0.20285628  0.39712923  1
  Rh  Rh235  1  0.81042804  0.79986441  0.79712714  1
  Rh  Rh236  1  0.19827495  0.20395641  0.59221768  1
  Rh  Rh237  1  -0.00280850  0.01373073  0.40758923  1
  Rh  Rh238  1  0.39060240  0.00895699  0.79705720  1
  Rh  Rh239  1  0.79616881  0.81375019  0.60179222  1
  Rh  Rh240  1  0.00310036  0.79745558  0.59838123  1
  Rh  Rh241  1  0.79494589  0.19726094  -0.00036129  1
  Rh  Rh242  1  0.19942774  0.60747476  0.60962761  1
  Rh  Rh243  1  0.41291031  0.00174170  0.00030971  1
  Rh  Rh244  1  0.40473043  0.19120936  0.39571646  1
  Rh  Rh245  1  0.19574829  0.80856386  0.20214610  1
  Rh  Rh246  1  -0.00243893  0.39347237  0.60851611  1
  Rh  Rh247  1  0.40041460  0.00181432  0.60082188  1
  Rh  Rh248  1  0.59844753  0.19242119  0.80126472  1
  Rh  Rh249  1  0.40016292  0.80572451  0.59497953  1
