# generated using pymatgen
data_ZrScNbPdRh
_symmetry_space_group_name_H-M   'P 1'
_cell_length_a   16.55827889
_cell_length_b   16.56045079
_cell_length_c   16.56028967
_cell_angle_alpha   90.01384280
_cell_angle_beta   90.00022445
_cell_angle_gamma   90.00589336
_symmetry_Int_Tables_number   1
_chemical_formula_structural   ZrScNbPdRh
_chemical_formula_sum   'Zr50 Sc50 Nb50 Pd50 Rh50'
_cell_volume   4541.03931162
_cell_formula_units_Z   50
loop_
 _symmetry_equiv_pos_site_id
 _symmetry_equiv_pos_as_xyz
  1  'x, y, z'
loop_
 _atom_site_type_symbol
 _atom_site_label
 _atom_site_symmetry_multiplicity
 _atom_site_fract_x
 _atom_site_fract_y
 _atom_site_fract_z
 _atom_site_occupancy
  Zr  Zr0  1  0.70174690  0.29282478  0.49031932  1
  Zr  Zr1  1  0.10275652  0.50825834  0.89345436  1
  Zr  Zr2  1  0.29853981  0.50706169  0.11115886  1
  Zr  Zr3  1  0.69998122  0.08865613  0.30951103  1
  Zr  Zr4  1  0.49193619  0.89711574  0.89078830  1
  Zr  Zr5  1  0.48952632  0.10424019  0.10091784  1
  Zr  Zr6  1  0.29670217  0.10300263  0.29164094  1
  Zr  Zr7  1  0.30588385  0.90022298  0.70489260  1
  Zr  Zr8  1  0.49950067  0.50924085  0.49498611  1
  Zr  Zr9  1  0.29545612  0.28467076  0.09741337  1
  Zr  Zr10  1  0.89870872  0.49492710  0.30162659  1
  Zr  Zr11  1  0.90322299  0.50876929  0.90383657  1
  Zr  Zr12  1  0.70240177  0.49930636  0.50664969  1
  Zr  Zr13  1  0.30017105  0.29869360  0.29855181  1
  Zr  Zr14  1  0.90459013  0.09031677  0.10471516  1
  Zr  Zr15  1  0.89813140  0.49630758  0.49940940  1
  Zr  Zr16  1  0.30150943  0.69887960  0.28258502  1
  Zr  Zr17  1  0.49836753  0.48466226  0.89881744  1
  Zr  Zr18  1  0.30380385  0.50080738  0.50363387  1
  Zr  Zr19  1  0.09658828  0.49895416  0.50695623  1
  Zr  Zr20  1  0.70646828  0.70337186  0.10436591  1
  Zr  Zr21  1  0.89689805  0.30503398  0.49757009  1
  Zr  Zr22  1  0.29730727  0.10030333  0.90185214  1
  Zr  Zr23  1  0.70301742  0.50288597  0.69370382  1
  Zr  Zr24  1  0.69006927  0.30226102  0.90578336  1
  Zr  Zr25  1  0.29463772  0.90438834  0.89528992  1
  Zr  Zr26  1  0.50463871  0.50042608  0.68993861  1
  Zr  Zr27  1  0.89554634  0.29725447  0.30761906  1
  Zr  Zr28  1  0.49879640  0.30308151  0.71031565  1
  Zr  Zr29  1  0.28579600  0.09710679  0.09949945  1
  Zr  Zr30  1  0.50059791  0.30112977  0.09204376  1
  Zr  Zr31  1  0.29067891  0.10029464  0.70520187  1
  Zr  Zr32  1  0.30307994  0.89734195  0.50147612  1
  Zr  Zr33  1  0.09640976  0.71149801  0.49864779  1
  Zr  Zr34  1  0.70347550  0.49970954  0.90267827  1
  Zr  Zr35  1  0.89174368  0.10433468  0.50363627  1
  Zr  Zr36  1  0.89844753  0.28545359  0.70645741  1
  Zr  Zr37  1  0.09673327  0.09198388  0.51161894  1
  Zr  Zr38  1  0.50728596  0.30476458  0.30596511  1
  Zr  Zr39  1  0.89664601  0.90474133  0.29505823  1
  Zr  Zr40  1  0.50643519  0.09586611  0.70130383  1
  Zr  Zr41  1  0.10439650  0.71106109  0.30076280  1
  Zr  Zr42  1  0.70099070  0.70526278  0.70071818  1
  Zr  Zr43  1  0.90933026  0.89309260  0.90048631  1
  Zr  Zr44  1  0.70828198  0.09551731  0.69985676  1
  Zr  Zr45  1  0.10497336  0.50494516  0.29127002  1
  Zr  Zr46  1  0.68996906  0.08867224  0.10044117  1
  Zr  Zr47  1  0.50422658  0.10170292  0.90164704  1
  Zr  Zr48  1  0.29978971  0.30315108  0.50480116  1
  Zr  Zr49  1  0.50643969  0.89702663  0.70461592  1
  Sc  Sc50  1  0.29874758  0.69975160  0.69980927  1
  Sc  Sc51  1  0.70029875  0.69528443  0.30468838  1
  Sc  Sc52  1  0.89994039  0.71170609  0.70375709  1
  Sc  Sc53  1  0.89870586  0.70055485  0.27950456  1
  Sc  Sc54  1  0.69703131  0.90318814  0.89366003  1
  Sc  Sc55  1  0.09569072  0.09825126  0.28538793  1
  Sc  Sc56  1  0.10420325  0.29852572  0.70104402  1
  Sc  Sc57  1  0.10219017  0.89820974  0.89435512  1
  Sc  Sc58  1  0.50321339  0.89931647  0.31069868  1
  Sc  Sc59  1  0.10024909  0.49531067  0.09211807  1
  Sc  Sc60  1  0.90297359  0.09804797  0.88689097  1
  Sc  Sc61  1  0.50376432  0.30728924  0.50413558  1
  Sc  Sc62  1  0.29950446  0.89387075  0.09424492  1
  Sc  Sc63  1  0.69452063  0.90364363  0.49932520  1
  Sc  Sc64  1  0.69842648  0.69211107  0.49681629  1
  Sc  Sc65  1  0.29723710  0.29933564  0.70433862  1
  Sc  Sc66  1  0.10320421  0.09020255  0.90047499  1
  Sc  Sc67  1  0.29634127  0.89304682  0.29860502  1
  Sc  Sc68  1  0.70064363  0.48579680  0.10079506  1
  Sc  Sc69  1  0.29712308  0.49320710  0.89366837  1
  Sc  Sc70  1  0.09851265  0.69706705  0.70686314  1
  Sc  Sc71  1  0.10531995  0.50522073  0.70215939  1
  Sc  Sc72  1  0.49551204  0.89639787  0.49875050  1
  Sc  Sc73  1  0.49236449  0.49985984  0.09498593  1
  Sc  Sc74  1  0.90114504  0.09834452  0.30304372  1
  Sc  Sc75  1  0.89417304  0.29496231  0.90099436  1
  Sc  Sc76  1  0.70608690  0.90090414  0.70229677  1
  Sc  Sc77  1  0.89681955  0.50461469  0.09555663  1
  Sc  Sc78  1  0.10093477  0.91326181  0.09579359  1
  Sc  Sc79  1  0.50180554  0.90670433  0.10015577  1
  Sc  Sc80  1  0.90238174  0.50710305  0.69332063  1
  Sc  Sc81  1  0.71438234  0.70580075  0.89524548  1
  Sc  Sc82  1  0.50996878  0.09407195  0.50025030  1
  Sc  Sc83  1  0.30152174  0.71518660  0.89909482  1
  Sc  Sc84  1  0.89905966  0.89643308  0.09781239  1
  Sc  Sc85  1  0.69811128  0.49290460  0.29893449  1
  Sc  Sc86  1  0.30555011  0.09721279  0.51260649  1
  Sc  Sc87  1  0.09062508  0.30244021  0.50310109  1
  Sc  Sc88  1  0.30524788  0.50210170  0.30184941  1
  Sc  Sc89  1  0.89401097  0.30646277  0.10029753  1
  Sc  Sc90  1  0.31174996  0.70173160  0.50430353  1
  Sc  Sc91  1  0.11253770  0.30944361  0.90729713  1
  Sc  Sc92  1  0.09918115  0.70127443  0.10833478  1
  Sc  Sc93  1  0.50545908  0.09626486  0.30381723  1
  Sc  Sc94  1  0.69626534  0.29911422  0.69315437  1
  Sc  Sc95  1  0.29475906  0.50040752  0.69852030  1
  Sc  Sc96  1  0.91381406  0.89727938  0.50641368  1
  Sc  Sc97  1  0.70510181  0.90437140  0.10494216  1
  Sc  Sc98  1  0.09145465  0.29386144  0.30326086  1
  Sc  Sc99  1  0.09926269  0.70314871  0.89310887  1
  Nb  Nb100  1  0.49980581  0.70281176  0.89836066  1
  Nb  Nb101  1  0.49974897  0.70180014  0.69960556  1
  Nb  Nb102  1  0.69733369  0.89408030  0.29973453  1
  Nb  Nb103  1  0.10102927  0.89672175  0.49658260  1
  Nb  Nb104  1  0.10410418  0.89829998  0.31245533  1
  Nb  Nb105  1  0.90477341  0.70170288  0.90489516  1
  Nb  Nb106  1  0.10087446  0.10776934  0.09681993  1
  Nb  Nb107  1  0.49154892  0.30110944  0.90004336  1
  Nb  Nb108  1  0.30930080  0.69833958  0.09652073  1
  Nb  Nb109  1  0.48824847  0.70019878  0.09786540  1
  Nb  Nb110  1  0.08822502  0.09378206  0.70539084  1
  Nb  Nb111  1  0.09787917  0.29386955  0.10195152  1
  Nb  Nb112  1  0.90721091  0.09510228  0.70104697  1
  Nb  Nb113  1  0.70016340  0.29847569  0.29390757  1
  Nb  Nb114  1  0.70075838  0.30080385  0.10418435  1
  Nb  Nb115  1  0.09189420  0.90222505  0.69351198  1
  Nb  Nb116  1  0.90078986  0.70266803  0.49586381  1
  Nb  Nb117  1  0.50512716  0.69620450  0.30355335  1
  Nb  Nb118  1  0.70320056  0.10152720  0.90048861  1
  Nb  Nb119  1  0.89637667  0.70604065  0.08988338  1
  Nb  Nb120  1  0.90685927  0.90339900  0.70337286  1
  Nb  Nb121  1  0.49900245  0.49965138  0.29830751  1
  Nb  Nb122  1  0.50577447  0.69935122  0.49987272  1
  Nb  Nb123  1  0.30756269  0.30093118  0.89494457  1
  Nb  Nb124  1  0.69555725  0.09873188  0.50319184  1
  Nb  Nb125  1  -0.00459507  0.40228845  0.80367918  1
  Nb  Nb126  1  0.40922792  0.60211719  0.80083335  1
  Nb  Nb127  1  0.19445073  0.80790348  0.59955908  1
  Nb  Nb128  1  0.80232495  0.80089920  0.39894787  1
  Nb  Nb129  1  0.39672798  0.00253623  0.20080739  1
  Nb  Nb130  1  0.59575898  0.60761851  -0.00097993  1
  Nb  Nb131  1  0.40209594  0.39522280  0.20158480  1
  Nb  Nb132  1  0.59625536  0.79448000  0.59985285  1
  Nb  Nb133  1  0.59489523  0.79272825  0.00168669  1
  Nb  Nb134  1  0.59153579  0.60287327  0.19607669  1
  Nb  Nb135  1  0.39768301  0.20092313  0.40201333  1
  Nb  Nb136  1  0.19735231  0.60238646  0.40118705  1
  Nb  Nb137  1  0.20837831  0.60629944  0.00324105  1
  Nb  Nb138  1  0.00053314  0.19796797  0.00539655  1
  Nb  Nb139  1  0.20129914  0.19526799  0.40462636  1
  Nb  Nb140  1  0.79168680  0.19805004  0.19755563  1
  Nb  Nb141  1  0.79589496  0.19293410  0.00487603  1
  Nb  Nb142  1  0.00011190  0.39736265  0.19884549  1
  Nb  Nb143  1  0.59610110  0.79287567  0.19954120  1
  Nb  Nb144  1  0.19892535  0.40186631  0.40202741  1
  Nb  Nb145  1  0.80323370  0.40122878  0.79897931  1
  Nb  Nb146  1  0.00051015  0.60404669  0.39927795  1
  Nb  Nb147  1  0.60552447  0.20362957  0.20038993  1
  Nb  Nb148  1  0.19631011  -0.00048534  0.40214849  1
  Nb  Nb149  1  0.59621577  0.60434495  0.80453065  1
  Pd  Pd150  1  0.79500997  0.80384248  0.58994765  1
  Pd  Pd151  1  0.40962342  0.81113466  0.20161503  1
  Pd  Pd152  1  0.79787192  0.20073169  0.60149722  1
  Pd  Pd153  1  0.60318362  0.19948032  0.00468950  1
  Pd  Pd154  1  0.19613269  0.80841277  0.18888955  1
  Pd  Pd155  1  0.39246863  0.00818265  0.39490556  1
  Pd  Pd156  1  0.59742802  -0.01041850  -0.00772431  1
  Pd  Pd157  1  0.00063556  0.20092794  0.60048964  1
  Pd  Pd158  1  0.01100690  0.79813589  0.00543154  1
  Pd  Pd159  1  0.19954759  -0.00651424  0.60268333  1
  Pd  Pd160  1  0.60553172  0.19838263  0.79891840  1
  Pd  Pd161  1  0.38644812  0.39760987  0.00787491  1
  Pd  Pd162  1  0.00299682  0.81019165  0.19424274  1
  Pd  Pd163  1  0.39875461  0.39971929  0.60730360  1
  Pd  Pd164  1  -0.00191621  0.59573702  0.19511780  1
  Pd  Pd165  1  0.59635661  0.20105207  0.59959085  1
  Pd  Pd166  1  0.80680358  0.60491467  0.39566125  1
  Pd  Pd167  1  0.20838634  0.40452574  0.00403772  1
  Pd  Pd168  1  0.60813462  0.40400650  0.79551320  1
  Pd  Pd169  1  -0.01354070  0.79663355  0.38959817  1
  Pd  Pd170  1  0.39640580  -0.00380280  0.00382875  1
  Pd  Pd171  1  0.00576694  -0.00771841  0.20054821  1
  Pd  Pd172  1  0.19121831  0.20108205  0.80642730  1
  Pd  Pd173  1  -0.00420791  0.60949055  0.59880319  1
  Pd  Pd174  1  0.39864349  0.79201406  0.39460933  1
  Pd  Pd175  1  0.40739381  0.00034506  0.60383934  1
  Pd  Pd176  1  0.80298315  -0.00972397  0.41043964  1
  Pd  Pd177  1  0.00608268  0.18867701  0.40353075  1
  Pd  Pd178  1  0.80341378  0.60025653  0.79660539  1
  Pd  Pd179  1  0.60570958  0.40685781  0.40488231  1
  Pd  Pd180  1  0.19349832  0.79521187  0.00384167  1
  Pd  Pd181  1  0.00303874  0.00544772  0.39964408  1
  Pd  Pd182  1  0.80500084  -0.00519227  0.80345904  1
  Pd  Pd183  1  0.79271167  0.80968568  -0.00430693  1
  Pd  Pd184  1  0.39521118  0.60734593  0.39527443  1
  Pd  Pd185  1  0.40994696  0.19952715  0.59749209  1
  Pd  Pd186  1  0.80740306  0.61054363  0.60062424  1
  Pd  Pd187  1  0.19336849  0.20157752  0.59897548  1
  Pd  Pd188  1  0.01346875  0.20784519  0.81536344  1
  Pd  Pd189  1  0.39540555  0.59859049  -0.01414433  1
  Pd  Pd190  1  0.01029729  0.61011467  0.00502321  1
  Pd  Pd191  1  0.80603650  0.00031485  -0.00834935  1
  Pd  Pd192  1  0.79274739  0.59123552  0.19621774  1
  Pd  Pd193  1  -0.00554271  0.39254613  -0.00149210  1
  Pd  Pd194  1  0.20094414  0.61234847  0.59476138  1
  Pd  Pd195  1  0.40027597  0.19542957  0.80037737  1
  Pd  Pd196  1  0.80561396  -0.00811009  0.59644852  1
  Pd  Pd197  1  0.19741342  0.39160771  0.20256351  1
  Pd  Pd198  1  -0.00329021  0.39575115  0.61485597  1
  Pd  Pd199  1  0.79327182  0.60080587  0.00525742  1
  Rh  Rh200  1  0.40465309  0.79822395  0.60372909  1
  Rh  Rh201  1  0.19620648  0.39898505  0.79558328  1
  Rh  Rh202  1  0.79456606  0.19396330  0.39487492  1
  Rh  Rh203  1  0.19299749  -0.00255517  0.79281459  1
  Rh  Rh204  1  0.60082021  -0.00462797  0.40485645  1
  Rh  Rh205  1  0.40320387  0.60291103  0.60568199  1
  Rh  Rh206  1  0.59993282  -0.00964015  0.60056351  1
  Rh  Rh207  1  0.40413703  0.80774314  -0.00110129  1
  Rh  Rh208  1  0.80790468  0.80584524  0.80431606  1
  Rh  Rh209  1  0.80923990  0.39628643  0.20371878  1
  Rh  Rh210  1  0.79537998  0.80339207  0.20392777  1
  Rh  Rh211  1  0.19534338  0.20102237  -0.00967173  1
  Rh  Rh212  1  0.19652380  0.80460660  0.78825963  1
  Rh  Rh213  1  0.41656673  0.20056870  0.21252214  1
  Rh  Rh214  1  0.21205865  0.79837107  0.40775659  1
  Rh  Rh215  1  0.19812156  0.39851791  0.59815769  1
  Rh  Rh216  1  -0.01218178  0.20742200  0.19103623  1
  Rh  Rh217  1  0.39614539  0.79382302  0.79495795  1
  Rh  Rh218  1  0.01095610  0.41230748  0.39073723  1
  Rh  Rh219  1  0.39556523  0.20029686  -0.01051860  1
  Rh  Rh220  1  0.80156485  0.39416188  -0.00765080  1
  Rh  Rh221  1  0.80360387  0.39080526  0.60563675  1
  Rh  Rh222  1  0.78915788  0.20352038  0.80557122  1
  Rh  Rh223  1  0.60041188  0.59335660  0.39373944  1
  Rh  Rh224  1  0.79047334  0.40115485  0.40037266  1
  Rh  Rh225  1  0.60468894  0.79574568  0.79971863  1
  Rh  Rh226  1  -0.00706249  0.59903177  0.79955551  1
  Rh  Rh227  1  0.58988075  0.40156729  0.19447322  1
  Rh  Rh228  1  0.00051185  0.80055611  0.79716251  1
  Rh  Rh229  1  0.60171140  0.39704316  0.59438253  1
  Rh  Rh230  1  0.00234929  -0.00558503  0.80251571  1
  Rh  Rh231  1  0.21298292  0.60614463  0.81027347  1
  Rh  Rh232  1  0.40756943  0.59437157  0.20477854  1
  Rh  Rh233  1  0.59925388  0.60799679  0.60285245  1
  Rh  Rh234  1  0.59157102  -0.00616689  0.20685421  1
  Rh  Rh235  1  0.60526873  0.00605457  0.80275655  1
  Rh  Rh236  1  -0.00676306  -0.00017342  0.60066124  1
  Rh  Rh237  1  0.19813344  0.60663048  0.19560143  1
  Rh  Rh238  1  0.39464595  0.40359683  0.79313607  1
  Rh  Rh239  1  0.19786109  -0.00163343  -0.00161085  1
  Rh  Rh240  1  0.39643887  0.39566443  0.39422978  1
  Rh  Rh241  1  0.79812145  0.00159010  0.20180636  1
  Rh  Rh242  1  0.59848568  0.40354146  0.00441350  1
  Rh  Rh243  1  0.59873721  0.19649054  0.39784795  1
  Rh  Rh244  1  -0.00074505  0.00557437  -0.00408138  1
  Rh  Rh245  1  0.60710595  0.79717898  0.40295064  1
  Rh  Rh246  1  0.18792373  0.20435155  0.20689809  1
  Rh  Rh247  1  0.00342253  0.79726020  0.60701529  1
  Rh  Rh248  1  0.40035733  0.01027046  0.79891875  1
  Rh  Rh249  1  0.20175447  -0.00850464  0.20522122  1
