# generated using pymatgen
data_ZrScNbPdRh
_symmetry_space_group_name_H-M   'P 1'
_cell_length_a   16.56780499
_cell_length_b   16.56695783
_cell_length_c   16.57058192
_cell_angle_alpha   90.00063138
_cell_angle_beta   89.99924851
_cell_angle_gamma   89.99815677
_symmetry_Int_Tables_number   1
_chemical_formula_structural   ZrScNbPdRh
_chemical_formula_sum   'Zr50 Sc50 Nb50 Pd50 Rh50'
_cell_volume   4548.26227930
_cell_formula_units_Z   50
loop_
 _symmetry_equiv_pos_site_id
 _symmetry_equiv_pos_as_xyz
  1  'x, y, z'
loop_
 _atom_site_type_symbol
 _atom_site_label
 _atom_site_symmetry_multiplicity
 _atom_site_fract_x
 _atom_site_fract_y
 _atom_site_fract_z
 _atom_site_occupancy
  Zr  Zr0  1  0.29917298  0.50776590  0.70380281  1
  Zr  Zr1  1  0.69472389  0.89829677  0.48961338  1
  Zr  Zr2  1  0.90778159  0.68446238  0.90775213  1
  Zr  Zr3  1  0.90181104  0.50283847  0.48942881  1
  Zr  Zr4  1  0.68990749  0.89826246  0.10181703  1
  Zr  Zr5  1  0.09957489  0.29452097  0.49974969  1
  Zr  Zr6  1  0.30148118  0.69510788  0.30206606  1
  Zr  Zr7  1  0.69319290  0.70315122  0.10909147  1
  Zr  Zr8  1  0.29765510  0.49594444  0.29096986  1
  Zr  Zr9  1  0.30488290  0.90160862  0.50212782  1
  Zr  Zr10  1  0.49629920  0.09862573  0.90678650  1
  Zr  Zr11  1  0.89702771  0.69878369  0.49740452  1
  Zr  Zr12  1  0.90131006  0.10014418  0.10181355  1
  Zr  Zr13  1  0.89615871  0.70436077  0.30375399  1
  Zr  Zr14  1  0.48726436  0.29990053  0.29496334  1
  Zr  Zr15  1  0.50383705  0.30070755  0.69451970  1
  Zr  Zr16  1  0.30883605  0.88899871  0.29601670  1
  Zr  Zr17  1  0.90042872  0.10850271  0.70504118  1
  Zr  Zr18  1  0.10239591  0.49507503  0.11370630  1
  Zr  Zr19  1  0.70622529  0.30408679  0.49860060  1
  Zr  Zr20  1  0.31286305  0.50339601  0.90301690  1
  Zr  Zr21  1  0.30299283  0.30349535  0.10016757  1
  Zr  Zr22  1  0.10592114  0.69610658  0.30092199  1
  Zr  Zr23  1  0.49360117  0.08565941  0.49339067  1
  Zr  Zr24  1  0.69538411  0.89844807  0.90550573  1
  Zr  Zr25  1  0.50261965  0.09450920  0.09964912  1
  Zr  Zr26  1  0.70452960  0.30134414  0.29328081  1
  Zr  Zr27  1  0.70027060  0.09769741  0.90679418  1
  Zr  Zr28  1  0.70443449  0.29194894  0.68578756  1
  Zr  Zr29  1  0.29576433  0.69985314  0.89698276  1
  Zr  Zr30  1  0.30675283  0.28796959  0.69675580  1
  Zr  Zr31  1  0.49296283  0.89587669  0.49691986  1
  Zr  Zr32  1  0.50568362  0.49694324  0.89812553  1
  Zr  Zr33  1  0.70138447  0.30090989  0.10621032  1
  Zr  Zr34  1  0.90093949  0.50774694  0.09549767  1
  Zr  Zr35  1  0.90231872  0.89544143  0.90641084  1
  Zr  Zr36  1  0.48970640  0.89677613  0.69461359  1
  Zr  Zr37  1  0.29637346  0.69941575  0.10807092  1
  Zr  Zr38  1  0.50304721  0.09666988  0.29670966  1
  Zr  Zr39  1  0.49412409  0.30623254  0.50003810  1
  Zr  Zr40  1  0.49080579  0.10115352  0.69612041  1
  Zr  Zr41  1  0.09829310  0.91420200  0.50414379  1
  Zr  Zr42  1  0.90096036  0.30069538  0.49897533  1
  Zr  Zr43  1  0.09122652  0.29783019  0.70483070  1
  Zr  Zr44  1  0.50331801  0.90548554  0.30395734  1
  Zr  Zr45  1  0.10094542  0.31069376  0.29473747  1
  Zr  Zr46  1  0.09631923  0.70430040  0.09409313  1
  Zr  Zr47  1  0.49680250  0.30237977  0.89805395  1
  Zr  Zr48  1  0.90083857  0.70914445  0.69899348  1
  Zr  Zr49  1  0.50013544  0.29642275  0.09968741  1
  Sc  Sc50  1  0.89908016  0.70840704  0.09684462  1
  Sc  Sc51  1  0.89684944  0.10016147  0.29555560  1
  Sc  Sc52  1  0.69792936  0.10412021  0.10306313  1
  Sc  Sc53  1  0.49682476  0.70223848  0.29413709  1
  Sc  Sc54  1  0.10828086  0.10019868  0.69290769  1
  Sc  Sc55  1  0.09432222  0.49545208  0.49800239  1
  Sc  Sc56  1  0.89311874  0.90289800  0.29430083  1
  Sc  Sc57  1  0.70605572  0.50046673  0.50815096  1
  Sc  Sc58  1  0.29963830  0.90121794  0.70813738  1
  Sc  Sc59  1  0.29010372  0.90277858  0.90001023  1
  Sc  Sc60  1  0.69834053  0.90416097  0.29818651  1
  Sc  Sc61  1  0.09737463  0.09816958  0.30404205  1
  Sc  Sc62  1  0.08622365  0.51181091  0.88983763  1
  Sc  Sc63  1  0.30468214  0.09513005  0.08899053  1
  Sc  Sc64  1  0.70415422  0.69481182  0.50383673  1
  Sc  Sc65  1  0.70284236  0.70493021  0.90494332  1
  Sc  Sc66  1  0.89997588  0.30021620  0.11256855  1
  Sc  Sc67  1  0.69826193  0.30170858  0.89872079  1
  Sc  Sc68  1  0.90174837  0.90053396  0.50334024  1
  Sc  Sc69  1  0.10122416  0.50692220  0.70080903  1
  Sc  Sc70  1  0.90267744  0.29979979  0.70342648  1
  Sc  Sc71  1  0.70475483  0.88339458  0.70823083  1
  Sc  Sc72  1  0.50092442  0.69211035  0.10628233  1
  Sc  Sc73  1  0.89946416  0.10479822  0.90482729  1
  Sc  Sc74  1  0.68698336  0.49748254  0.10532791  1
  Sc  Sc75  1  0.29844754  0.09877746  0.89095695  1
  Sc  Sc76  1  0.09714774  0.49759640  0.30702668  1
  Sc  Sc77  1  0.10472364  0.69593225  0.49522431  1
  Sc  Sc78  1  0.70420288  0.49760681  0.69579466  1
  Sc  Sc79  1  0.49426120  0.69542300  0.90358220  1
  Sc  Sc80  1  0.49263635  0.69191867  0.50540682  1
  Sc  Sc81  1  0.70645415  0.69218925  0.69788055  1
  Sc  Sc82  1  0.10187766  0.08970687  0.10513903  1
  Sc  Sc83  1  0.69801117  0.71551032  0.30195045  1
  Sc  Sc84  1  0.10171311  0.90639527  0.28789085  1
  Sc  Sc85  1  0.89563273  0.30286720  0.30101848  1
  Sc  Sc86  1  0.30391460  0.28876465  0.90226249  1
  Sc  Sc87  1  0.89889593  0.50432768  0.71473585  1
  Sc  Sc88  1  0.70949055  0.10852764  0.49951635  1
  Sc  Sc89  1  0.49567056  0.49946184  0.28589618  1
  Sc  Sc90  1  0.50134724  0.50160070  0.50990853  1
  Sc  Sc91  1  0.49239684  0.49859946  0.09302508  1
  Sc  Sc92  1  0.90884600  0.10163710  0.49186435  1
  Sc  Sc93  1  0.50056365  0.90069947  0.90513322  1
  Sc  Sc94  1  0.90941571  0.90137471  0.10276646  1
  Sc  Sc95  1  0.30800330  0.50082781  0.49732836  1
  Sc  Sc96  1  0.49993692  0.49740164  0.69572749  1
  Sc  Sc97  1  0.30351268  0.70121543  0.49814692  1
  Sc  Sc98  1  0.29760423  0.10558772  0.31329105  1
  Sc  Sc99  1  0.30373140  0.69906187  0.70504275  1
  Nb  Nb100  1  0.09272485  0.89410109  0.70415830  1
  Nb  Nb101  1  0.10133609  0.09999315  0.89459249  1
  Nb  Nb102  1  0.48760110  0.90660824  0.10678895  1
  Nb  Nb103  1  0.89548878  0.49954460  0.90069977  1
  Nb  Nb104  1  0.10459461  0.70160151  0.70663572  1
  Nb  Nb105  1  0.30182753  0.09893861  0.69713911  1
  Nb  Nb106  1  0.70748419  0.50361469  0.89358214  1
  Nb  Nb107  1  0.11467526  0.10100497  0.49503170  1
  Nb  Nb108  1  0.10127521  0.29860639  0.89957174  1
  Nb  Nb109  1  0.29755132  0.50287439  0.09545737  1
  Nb  Nb110  1  0.29530357  0.29514163  0.48971693  1
  Nb  Nb111  1  0.10454265  0.70415601  0.89739013  1
  Nb  Nb112  1  0.29684950  0.89790386  0.09996722  1
  Nb  Nb113  1  0.10465212  0.89835850  0.89812906  1
  Nb  Nb114  1  0.30087907  0.30319842  0.30538433  1
  Nb  Nb115  1  0.69751129  0.10425540  0.30037264  1
  Nb  Nb116  1  0.28130326  0.10241449  0.50536050  1
  Nb  Nb117  1  0.10890666  0.89928341  0.08862169  1
  Nb  Nb118  1  0.10086524  0.30235055  0.09938078  1
  Nb  Nb119  1  0.70122140  0.49242074  0.29630972  1
  Nb  Nb120  1  0.91158930  0.30601880  0.89519232  1
  Nb  Nb121  1  0.89776643  0.50052290  0.29963165  1
  Nb  Nb122  1  0.70309286  0.10128255  0.70038916  1
  Nb  Nb123  1  0.90569527  0.90237158  0.70135724  1
  Nb  Nb124  1  0.50143735  0.69627071  0.69908846  1
  Nb  Nb125  1  0.79941535  0.59844911  0.20591652  1
  Nb  Nb126  1  -0.00032657  0.60749252  0.60192358  1
  Nb  Nb127  1  0.19266153  0.80131124  0.60676509  1
  Nb  Nb128  1  0.19478760  0.40209336  -0.00565011  1
  Nb  Nb129  1  0.59420133  0.80103587  0.60172097  1
  Nb  Nb130  1  0.79904234  -0.00124521  0.61012054  1
  Nb  Nb131  1  0.20143928  0.20767680  0.20037097  1
  Nb  Nb132  1  0.60824254  -0.00401576  0.60507214  1
  Nb  Nb133  1  0.20262343  0.39288485  0.60345520  1
  Nb  Nb134  1  0.39257781  0.80534483  0.01074409  1
  Nb  Nb135  1  0.80573985  0.40389722  -0.00549825  1
  Nb  Nb136  1  0.00344156  0.80219292  0.39846388  1
  Nb  Nb137  1  0.80233029  -0.00381531  0.79832112  1
  Nb  Nb138  1  0.60041200  0.40087436  0.39564020  1
  Nb  Nb139  1  0.60479009  0.00290276  0.79244731  1
  Nb  Nb140  1  0.19770184  0.59608618  -0.00017448  1
  Nb  Nb141  1  0.00878074  0.20677552  -0.00133048  1
  Nb  Nb142  1  0.59829844  0.20424708  0.39715590  1
  Nb  Nb143  1  0.20004554  0.39747675  0.80271243  1
  Nb  Nb144  1  0.00301957  -0.00509834  0.80081451  1
  Nb  Nb145  1  0.60002019  0.19393372  0.79520471  1
  Nb  Nb146  1  0.60265914  0.59688905  0.80164644  1
  Nb  Nb147  1  0.60319309  0.59123802  0.39380772  1
  Nb  Nb148  1  -0.00566856  0.60175273  0.20545047  1
  Nb  Nb149  1  0.00149741  0.39742395  -0.00393478  1
  Pd  Pd150  1  0.38878515  0.00829029  0.20595957  1
  Pd  Pd151  1  -0.00465675  -0.00505959  0.39222106  1
  Pd  Pd152  1  0.58357705  0.79699481  0.00693546  1
  Pd  Pd153  1  0.58948728  0.78318010  0.40833728  1
  Pd  Pd154  1  0.79646688  0.39210916  0.80008440  1
  Pd  Pd155  1  0.19379086  0.80886666  0.40762177  1
  Pd  Pd156  1  0.80085420  0.80171281  0.00641811  1
  Pd  Pd157  1  0.00893652  0.79391386  0.58984144  1
  Pd  Pd158  1  0.79632627  0.20311455  0.80824821  1
  Pd  Pd159  1  -0.00095777  0.79758579  0.81006538  1
  Pd  Pd160  1  0.59424471  0.79375157  0.79572057  1
  Pd  Pd161  1  0.80082142  0.00291200  0.40501458  1
  Pd  Pd162  1  0.00154128  0.19130322  0.59545060  1
  Pd  Pd163  1  0.00354331  0.20236612  0.39311485  1
  Pd  Pd164  1  0.39663365  0.19387080  0.58553198  1
  Pd  Pd165  1  0.20428754  -0.00878192  0.61134838  1
  Pd  Pd166  1  0.00461452  0.80002512  0.20349925  1
  Pd  Pd167  1  -0.00365551  0.01132156  0.60510793  1
  Pd  Pd168  1  0.19686195  0.60049931  0.59461180  1
  Pd  Pd169  1  0.60003865  0.20454555  -0.00343180  1
  Pd  Pd170  1  0.20262124  0.58997823  0.40593621  1
  Pd  Pd171  1  0.39368629  0.39735597  0.79659173  1
  Pd  Pd172  1  0.19669654  0.19678900  0.00578062  1
  Pd  Pd173  1  0.80573280  0.79644959  0.80850808  1
  Pd  Pd174  1  0.60714261  0.39999244  -0.00031546  1
  Pd  Pd175  1  0.60948678  0.39881002  0.79097814  1
  Pd  Pd176  1  0.41023803  0.59299803  0.39507573  1
  Pd  Pd177  1  0.60425659  0.60079045  -0.00600043  1
  Pd  Pd178  1  0.20482643  -0.00918756  0.39051954  1
  Pd  Pd179  1  0.79352527  0.80680729  0.59423224  1
  Pd  Pd180  1  0.78605493  0.59681965  0.01013828  1
  Pd  Pd181  1  0.40116777  0.19418534  0.40606352  1
  Pd  Pd182  1  0.00586878  0.00581809  -0.00449426  1
  Pd  Pd183  1  0.20264308  0.40519913  0.40846502  1
  Pd  Pd184  1  0.00826123  0.19670230  0.19885091  1
  Pd  Pd185  1  0.81089663  0.21360576  -0.00004100  1
  Pd  Pd186  1  0.40267355  -0.00275632  0.80610433  1
  Pd  Pd187  1  0.79940372  -0.00383180  0.00461901  1
  Pd  Pd188  1  0.19410988  0.80249920  0.19953123  1
  Pd  Pd189  1  0.19973597  0.20068377  0.79524049  1
  Pd  Pd190  1  0.20088135  0.00464386  -0.00410287  1
  Pd  Pd191  1  0.78659387  0.59832283  0.39338771  1
  Pd  Pd192  1  0.40162122  0.80082084  0.81065240  1
  Pd  Pd193  1  0.59605306  0.19010164  0.59167279  1
  Pd  Pd194  1  0.81455677  0.40617547  0.60556559  1
  Pd  Pd195  1  0.00017953  0.41220928  0.60808766  1
  Pd  Pd196  1  0.21011417  0.00852467  0.20449934  1
  Pd  Pd197  1  0.38986335  0.40108259  0.59956636  1
  Pd  Pd198  1  0.38868009  0.18965365  0.19651397  1
  Pd  Pd199  1  0.79414915  0.00118816  0.19374876  1
  Rh  Rh200  1  0.00259824  0.60693477  0.39880748  1
  Rh  Rh201  1  0.19948502  0.59534984  0.80823354  1
  Rh  Rh202  1  -0.00308746  0.61042120  0.79227225  1
  Rh  Rh203  1  0.61237368  0.01290069  0.40510614  1
  Rh  Rh204  1  0.01130004  0.59533889  0.00661243  1
  Rh  Rh205  1  0.39650594  0.59701224  0.19732224  1
  Rh  Rh206  1  0.19458874  0.59993421  0.19865979  1
  Rh  Rh207  1  0.40083442  0.19764449  -0.00048884  1
  Rh  Rh208  1  0.60324978  -0.00069276  0.19840092  1
  Rh  Rh209  1  0.41434739  0.59857615  0.79564073  1
  Rh  Rh210  1  0.00661734  0.80377345  -0.00429131  1
  Rh  Rh211  1  0.39521164  0.60203043  0.60468484  1
  Rh  Rh212  1  -0.00910802  0.40690042  0.20017956  1
  Rh  Rh213  1  0.80624069  0.40979079  0.19021104  1
  Rh  Rh214  1  0.39678848  0.39596435  0.00065382  1
  Rh  Rh215  1  0.39422303  0.79119274  0.60315194  1
  Rh  Rh216  1  0.58986739  0.80818398  0.20086159  1
  Rh  Rh217  1  0.20896605  0.39462505  0.19729196  1
  Rh  Rh218  1  0.79631648  0.60755197  0.80183208  1
  Rh  Rh219  1  0.00271901  0.19038273  0.80706157  1
  Rh  Rh220  1  0.20230755  0.79529119  -0.00191399  1
  Rh  Rh221  1  0.58949322  0.39567086  0.20097933  1
  Rh  Rh222  1  0.79764923  0.80000505  0.19571226  1
  Rh  Rh223  1  0.81419147  0.59430246  0.60436718  1
  Rh  Rh224  1  0.38645767  0.00244923  0.39857725  1
  Rh  Rh225  1  0.39659153  0.40361054  0.19295856  1
  Rh  Rh226  1  0.79870926  0.40141872  0.40082995  1
  Rh  Rh227  1  0.40536092  0.79817285  0.19585337  1
  Rh  Rh228  1  0.79750040  0.19974545  0.39503072  1
  Rh  Rh229  1  0.00554122  0.40395685  0.80045467  1
  Rh  Rh230  1  0.39291857  0.61201985  0.00695690  1
  Rh  Rh231  1  0.60859544  0.60295402  0.21187722  1
  Rh  Rh232  1  -0.00449067  0.39411264  0.39510537  1
  Rh  Rh233  1  0.19223589  0.00186265  0.79549896  1
  Rh  Rh234  1  0.60001389  0.20023532  0.20513234  1
  Rh  Rh235  1  0.80117802  0.19341294  0.20135098  1
  Rh  Rh236  1  0.39455818  -0.00888641  -0.00504746  1
  Rh  Rh237  1  0.19965027  0.80391984  0.79451684  1
  Rh  Rh238  1  0.40623470  0.19608709  0.80285147  1
  Rh  Rh239  1  0.81339892  0.19476813  0.59360501  1
  Rh  Rh240  1  0.80738828  0.80958295  0.40224161  1
  Rh  Rh241  1  0.00157628  -0.00204710  0.19609085  1
  Rh  Rh242  1  0.40260756  0.40615140  0.39972968  1
  Rh  Rh243  1  0.59788726  -0.00341592  0.00315602  1
  Rh  Rh244  1  0.40338293  0.79416526  0.39742814  1
  Rh  Rh245  1  0.60378498  0.40169331  0.59441159  1
  Rh  Rh246  1  0.19296326  0.20603545  0.39034262  1
  Rh  Rh247  1  0.19937591  0.20615352  0.60266781  1
  Rh  Rh248  1  0.38990989  0.00475152  0.59813735  1
  Rh  Rh249  1  0.60106823  0.60558671  0.60223810  1
