# generated using pymatgen
data_ZrScNbPdRh
_symmetry_space_group_name_H-M   'P 1'
_cell_length_a   16.55582622
_cell_length_b   16.55367222
_cell_length_c   16.55502381
_cell_angle_alpha   89.99391573
_cell_angle_beta   90.02166151
_cell_angle_gamma   90.00515822
_symmetry_Int_Tables_number   1
_chemical_formula_structural   ZrScNbPdRh
_chemical_formula_sum   'Zr50 Sc50 Nb50 Pd50 Rh50'
_cell_volume   4537.06482976
_cell_formula_units_Z   50
loop_
 _symmetry_equiv_pos_site_id
 _symmetry_equiv_pos_as_xyz
  1  'x, y, z'
loop_
 _atom_site_type_symbol
 _atom_site_label
 _atom_site_symmetry_multiplicity
 _atom_site_fract_x
 _atom_site_fract_y
 _atom_site_fract_z
 _atom_site_occupancy
  Zr  Zr0  1  0.69481147  0.89095030  0.10204363  1
  Zr  Zr1  1  0.30522727  0.70600839  0.29414833  1
  Zr  Zr2  1  0.10140519  0.10029979  0.69043830  1
  Zr  Zr3  1  0.89527856  0.49410660  0.69546925  1
  Zr  Zr4  1  0.10099413  0.49789265  0.09945994  1
  Zr  Zr5  1  0.30733911  0.49570717  0.69560294  1
  Zr  Zr6  1  0.29895132  0.09988062  0.69587165  1
  Zr  Zr7  1  0.90600523  0.50389013  0.89863683  1
  Zr  Zr8  1  0.09432132  0.49669505  0.89750537  1
  Zr  Zr9  1  0.30188586  0.69659308  0.69999201  1
  Zr  Zr10  1  0.69830679  0.70616643  0.30482700  1
  Zr  Zr11  1  0.69930299  0.49925849  0.29464632  1
  Zr  Zr12  1  0.90170437  0.90667937  0.30179879  1
  Zr  Zr13  1  0.90706436  0.29961815  0.89552741  1
  Zr  Zr14  1  0.48999037  0.49775656  0.49654313  1
  Zr  Zr15  1  0.50551147  0.29546948  0.09579799  1
  Zr  Zr16  1  0.89709306  0.90734543  0.70330998  1
  Zr  Zr17  1  0.69069703  0.10350119  0.89411937  1
  Zr  Zr18  1  0.69821051  0.30774377  0.09849236  1
  Zr  Zr19  1  0.50089040  0.68752183  0.30083888  1
  Zr  Zr20  1  0.09583342  0.70735026  0.09680930  1
  Zr  Zr21  1  0.30184344  0.89669297  0.09260444  1
  Zr  Zr22  1  0.09373650  0.69804752  0.89979078  1
  Zr  Zr23  1  0.69406605  0.10301107  0.49823654  1
  Zr  Zr24  1  0.09949819  0.30424615  0.49781892  1
  Zr  Zr25  1  0.10180520  0.30846961  0.90113339  1
  Zr  Zr26  1  0.29962435  0.90003658  0.30805321  1
  Zr  Zr27  1  0.29917045  0.49609033  0.89488065  1
  Zr  Zr28  1  0.50838606  0.49903802  0.10391068  1
  Zr  Zr29  1  0.70109090  0.30280582  0.69036582  1
  Zr  Zr30  1  0.69751047  0.90164454  0.30476221  1
  Zr  Zr31  1  0.29742793  0.30229204  0.89158486  1
  Zr  Zr32  1  0.09922425  0.90350218  0.90804361  1
  Zr  Zr33  1  0.30835652  0.09412222  0.89194560  1
  Zr  Zr34  1  0.71053827  0.49015291  0.51321119  1
  Zr  Zr35  1  0.49540986  0.10470718  0.09453188  1
  Zr  Zr36  1  0.49372105  0.09985928  0.50598765  1
  Zr  Zr37  1  0.70494781  0.10282840  0.30576080  1
  Zr  Zr38  1  0.69616857  0.90173135  0.89018618  1
  Zr  Zr39  1  0.49050771  0.30513441  0.31240037  1
  Zr  Zr40  1  0.90858966  0.10253856  0.10326208  1
  Zr  Zr41  1  0.09089717  0.10170696  0.30212711  1
  Zr  Zr42  1  0.49676393  0.90506557  0.49958504  1
  Zr  Zr43  1  0.50038357  0.69346897  0.70735998  1
  Zr  Zr44  1  0.30811006  0.70443562  0.09201376  1
  Zr  Zr45  1  0.09662648  0.90548487  0.09985305  1
  Zr  Zr46  1  0.50876246  0.70084882  0.49666493  1
  Zr  Zr47  1  0.89511131  0.50853222  0.10226077  1
  Zr  Zr48  1  0.69661322  0.89101820  0.50039589  1
  Zr  Zr49  1  0.29993100  0.11118355  0.10177197  1
  Sc  Sc50  1  0.90205423  0.69748487  0.10234255  1
  Sc  Sc51  1  0.49827061  0.88538648  0.30796925  1
  Sc  Sc52  1  0.90054815  0.30366384  0.49701287  1
  Sc  Sc53  1  0.28292555  0.69782690  0.50356189  1
  Sc  Sc54  1  0.50170063  0.49542595  0.88539893  1
  Sc  Sc55  1  0.11173630  0.30055555  0.09966289  1
  Sc  Sc56  1  0.69847526  0.70596131  0.89790553  1
  Sc  Sc57  1  0.29990555  0.49562573  0.09858573  1
  Sc  Sc58  1  0.49146087  0.09895714  0.70785614  1
  Sc  Sc59  1  0.10152142  0.90754417  0.69074772  1
  Sc  Sc60  1  0.10678394  0.89587611  0.50130038  1
  Sc  Sc61  1  0.49749049  0.70784126  0.10398395  1
  Sc  Sc62  1  0.69167084  0.30330647  0.89390006  1
  Sc  Sc63  1  0.10337603  0.70207843  0.29548489  1
  Sc  Sc64  1  0.09818805  0.10064031  0.90161341  1
  Sc  Sc65  1  0.70610231  0.49546094  0.09768171  1
  Sc  Sc66  1  0.89324536  0.70572115  0.69016685  1
  Sc  Sc67  1  0.49560009  0.90325038  0.89782811  1
  Sc  Sc68  1  0.90239370  0.90637951  0.89964719  1
  Sc  Sc69  1  0.90031554  0.69521497  0.90783565  1
  Sc  Sc70  1  0.50322428  0.90018457  0.70843106  1
  Sc  Sc71  1  0.70805675  0.29524196  0.29530993  1
  Sc  Sc72  1  0.11031863  0.49343561  0.30370748  1
  Sc  Sc73  1  0.49084097  0.70055915  0.89693420  1
  Sc  Sc74  1  0.10065965  0.89995559  0.30409271  1
  Sc  Sc75  1  0.69449060  0.48905327  0.70343842  1
  Sc  Sc76  1  0.09722739  0.10706871  0.09807748  1
  Sc  Sc77  1  0.89726242  0.30072213  0.10519161  1
  Sc  Sc78  1  0.70620511  0.10162109  0.70184098  1
  Sc  Sc79  1  0.30387717  0.09714396  0.50132377  1
  Sc  Sc80  1  0.70054535  0.49411867  0.90220857  1
  Sc  Sc81  1  0.91017328  0.09939220  0.89523360  1
  Sc  Sc82  1  0.90608140  0.89693214  0.09803246  1
  Sc  Sc83  1  0.69285423  0.11768516  0.10849838  1
  Sc  Sc84  1  0.49644620  0.30618568  0.69985815  1
  Sc  Sc85  1  0.49656532  0.29186948  0.50601490  1
  Sc  Sc86  1  0.10551421  0.70311527  0.68534661  1
  Sc  Sc87  1  0.89960861  0.29551763  0.30680150  1
  Sc  Sc88  1  0.70554550  0.70291606  0.09692856  1
  Sc  Sc89  1  0.29336967  0.29531815  0.30108235  1
  Sc  Sc90  1  0.89451102  0.89937767  0.50593312  1
  Sc  Sc91  1  0.10060651  0.49121170  0.69795279  1
  Sc  Sc92  1  0.10402852  0.29531382  0.69387522  1
  Sc  Sc93  1  0.30445788  0.49648807  0.31019601  1
  Sc  Sc94  1  0.29687906  0.90543732  0.49953750  1
  Sc  Sc95  1  0.90633439  0.10256345  0.69551940  1
  Sc  Sc96  1  0.49950386  0.09951856  0.31489110  1
  Sc  Sc97  1  0.30086273  0.29691143  0.50027671  1
  Sc  Sc98  1  0.10511604  0.29976406  0.30327636  1
  Sc  Sc99  1  0.90237217  0.10549071  0.49409385  1
  Nb  Nb100  1  0.28519660  0.49782187  0.50324917  1
  Nb  Nb101  1  0.70030356  0.70385216  0.69692547  1
  Nb  Nb102  1  0.90249264  0.50155102  0.29875101  1
  Nb  Nb103  1  0.89903529  0.10291821  0.29757139  1
  Nb  Nb104  1  0.89480223  0.69408697  0.50192532  1
  Nb  Nb105  1  0.29956202  0.90506126  0.69889521  1
  Nb  Nb106  1  0.50042701  0.90166387  0.10385352  1
  Nb  Nb107  1  0.90127137  0.29619440  0.70210344  1
  Nb  Nb108  1  0.90293429  0.69200450  0.30132455  1
  Nb  Nb109  1  0.50090163  0.29549738  0.89966503  1
  Nb  Nb110  1  0.70737515  0.69822854  0.51086559  1
  Nb  Nb111  1  0.30228616  0.30244553  0.10376347  1
  Nb  Nb112  1  0.50209655  0.10342314  0.89835965  1
  Nb  Nb113  1  0.90389117  0.49710375  0.49477129  1
  Nb  Nb114  1  0.70022589  0.89514652  0.70310178  1
  Nb  Nb115  1  0.29909528  0.70162049  0.90011908  1
  Nb  Nb116  1  0.29847070  0.29780324  0.70145626  1
  Nb  Nb117  1  0.09845985  0.11045065  0.50533576  1
  Nb  Nb118  1  0.50047931  0.50115510  0.69490425  1
  Nb  Nb119  1  0.29552600  0.89575433  0.89901065  1
  Nb  Nb120  1  0.10477778  0.49928665  0.49796594  1
  Nb  Nb121  1  0.50059415  0.50059332  0.30505901  1
  Nb  Nb122  1  0.09664041  0.69608685  0.49865277  1
  Nb  Nb123  1  0.69585914  0.30029116  0.50172251  1
  Nb  Nb124  1  0.29859373  0.09773412  0.29825818  1
  Nb  Nb125  1  0.60438190  -0.00357122  0.60413563  1
  Nb  Nb126  1  0.20089841  0.60393714  0.80159168  1
  Nb  Nb127  1  -0.00203372  0.40658371  0.20558019  1
  Nb  Nb128  1  0.39814200  0.80121630  0.60443032  1
  Nb  Nb129  1  0.00541904  0.80165613  0.79639753  1
  Nb  Nb130  1  -0.00568934  0.78705751  0.40613887  1
  Nb  Nb131  1  0.40350295  0.39229798  0.00143573  1
  Nb  Nb132  1  0.80523523  0.59871558  0.40376090  1
  Nb  Nb133  1  0.20124987  0.80129903  0.80196717  1
  Nb  Nb134  1  0.79102136  0.00705283  0.00623809  1
  Nb  Nb135  1  0.20433082  0.60244141  0.19310387  1
  Nb  Nb136  1  -0.00098853  0.59615732  0.40154307  1
  Nb  Nb137  1  0.79663487  0.00394766  0.19794851  1
  Nb  Nb138  1  0.60364970  0.59943432  0.60301725  1
  Nb  Nb139  1  0.20109137  0.60243074  -0.00320943  1
  Nb  Nb140  1  -0.00196202  0.59596165  0.58779422  1
  Nb  Nb141  1  0.59921504  0.00301305  0.00418356  1
  Nb  Nb142  1  0.40030192  -0.00062870  0.20149119  1
  Nb  Nb143  1  0.59608116  -0.00173426  0.19900291  1
  Nb  Nb144  1  0.40296204  0.39750453  0.19832197  1
  Nb  Nb145  1  0.79768130  0.60083459  0.79334138  1
  Nb  Nb146  1  0.79929145  0.19759991  -0.00358028  1
  Nb  Nb147  1  0.20541850  0.00479382  0.20183540  1
  Nb  Nb148  1  0.60256728  0.40142160  0.40424249  1
  Nb  Nb149  1  0.59745870  0.59925132  -0.00137425  1
  Pd  Pd150  1  0.81002284  0.79297959  0.80344316  1
  Pd  Pd151  1  0.58975047  0.19822452  0.21391548  1
  Pd  Pd152  1  0.20132039  0.80420221  0.19796132  1
  Pd  Pd153  1  0.61422783  0.59043235  0.41190125  1
  Pd  Pd154  1  0.60140339  0.21005901  0.39824761  1
  Pd  Pd155  1  0.59092018  0.79837154  -0.00781010  1
  Pd  Pd156  1  0.39492790  0.80660017  0.79730502  1
  Pd  Pd157  1  0.00334727  -0.00559257  0.40979483  1
  Pd  Pd158  1  0.19497653  -0.00349566  0.79828148  1
  Pd  Pd159  1  -0.00196022  0.61053592  0.78023486  1
  Pd  Pd160  1  0.40492028  0.58980154  -0.00620170  1
  Pd  Pd161  1  0.59518737  0.19136851  0.61028508  1
  Pd  Pd162  1  0.00444802  0.21469230  0.20197547  1
  Pd  Pd163  1  0.39375997  0.20628330  -0.00978174  1
  Pd  Pd164  1  -0.00354370  0.79805738  0.59890331  1
  Pd  Pd165  1  0.80630124  0.80701968  -0.00560315  1
  Pd  Pd166  1  0.79490104  0.40007805  0.39438861  1
  Pd  Pd167  1  0.80348760  0.00397090  0.40194840  1
  Pd  Pd168  1  0.80297932  0.19925423  0.80324175  1
  Pd  Pd169  1  0.80270383  0.00860352  0.80437566  1
  Pd  Pd170  1  0.20252164  0.19537381  0.40381219  1
  Pd  Pd171  1  0.20294517  0.19883988  -0.00731152  1
  Pd  Pd172  1  0.79277907  0.60500914  0.20344987  1
  Pd  Pd173  1  0.79964583  0.40225087  0.80242984  1
  Pd  Pd174  1  0.19490539  0.19738570  0.80092386  1
  Pd  Pd175  1  -0.00086676  0.39833958  0.60097353  1
  Pd  Pd176  1  0.80863399  0.80291959  0.20113370  1
  Pd  Pd177  1  -0.00567629  0.39645340  0.01216981  1
  Pd  Pd178  1  0.59293192  0.80009835  0.60749788  1
  Pd  Pd179  1  0.39703991  0.39345320  0.59535654  1
  Pd  Pd180  1  0.19284583  0.00860307  0.40137675  1
  Pd  Pd181  1  0.38760452  0.60494739  0.40833569  1
  Pd  Pd182  1  0.60738728  0.60789501  0.18976780  1
  Pd  Pd183  1  -0.00294900  0.80138462  0.20933140  1
  Pd  Pd184  1  0.40343876  -0.00317167  0.00010352  1
  Pd  Pd185  1  0.59493264  0.39309329  0.21178687  1
  Pd  Pd186  1  0.20172848  0.01024954  0.00556602  1
  Pd  Pd187  1  0.00010565  0.00097327  0.58962659  1
  Pd  Pd188  1  0.40397259  0.20102164  0.21099717  1
  Pd  Pd189  1  0.19907581  0.60447457  0.38978370  1
  Pd  Pd190  1  0.80599420  0.20248586  0.59370433  1
  Pd  Pd191  1  0.39239669  0.79127062  0.41353983  1
  Pd  Pd192  1  0.79334703  0.00205244  0.59821458  1
  Pd  Pd193  1  0.80627256  0.79473865  0.40105897  1
  Pd  Pd194  1  0.01070168  0.20044821  0.79591827  1
  Pd  Pd195  1  0.59483827  0.20629046  0.78847916  1
  Pd  Pd196  1  0.60863165  0.59940474  0.80222018  1
  Pd  Pd197  1  0.40177272  0.60667193  0.59045583  1
  Pd  Pd198  1  0.39347330  0.58908726  0.19938167  1
  Pd  Pd199  1  0.80706526  0.39305136  -0.00509351  1
  Rh  Rh200  1  0.00256496  0.39065977  0.79040651  1
  Rh  Rh201  1  0.19405546  0.19535331  0.20197293  1
  Rh  Rh202  1  0.80105093  0.80748149  0.60283984  1
  Rh  Rh203  1  0.00000713  0.20156016  0.40122528  1
  Rh  Rh204  1  0.60149361  0.79606178  0.40126361  1
  Rh  Rh205  1  0.01204168  0.59331594  0.20442320  1
  Rh  Rh206  1  0.39466495  0.59325577  0.80118969  1
  Rh  Rh207  1  0.78948966  0.60193951  -0.01052859  1
  Rh  Rh208  1  -0.00430088  0.20634021  0.59805367  1
  Rh  Rh209  1  0.19905583  0.79513020  -0.00490616  1
  Rh  Rh210  1  0.59126601  0.40734239  -0.00790822  1
  Rh  Rh211  1  0.20963920  0.40126847  0.00085745  1
  Rh  Rh212  1  0.00513970  0.40221023  0.39269491  1
  Rh  Rh213  1  0.39529563  0.39991337  0.40305629  1
  Rh  Rh214  1  0.59602679  -0.00362445  0.40326801  1
  Rh  Rh215  1  0.79810368  0.59494808  0.60511688  1
  Rh  Rh216  1  0.59791990  0.00029226  0.79805247  1
  Rh  Rh217  1  -0.00281336  0.20681474  -0.00022541  1
  Rh  Rh218  1  0.40445268  0.39556596  0.80004922  1
  Rh  Rh219  1  0.40621930  0.80587496  -0.00535233  1
  Rh  Rh220  1  0.20436157  0.20017714  0.59499984  1
  Rh  Rh221  1  0.39494578  0.20207209  0.60775561  1
  Rh  Rh222  1  0.59632607  0.39561392  0.79612970  1
  Rh  Rh223  1  0.20049618  0.00413029  0.59287487  1
  Rh  Rh224  1  0.00698632  -0.00430443  0.79542017  1
  Rh  Rh225  1  0.59856681  0.79791620  0.80119132  1
  Rh  Rh226  1  0.80051590  0.20077174  0.40575567  1
  Rh  Rh227  1  0.59005573  0.40556104  0.59348044  1
  Rh  Rh228  1  0.20913197  0.80787225  0.60351805  1
  Rh  Rh229  1  0.39121377  0.19528123  0.40227947  1
  Rh  Rh230  1  -0.00691029  0.80133678  -0.00690466  1
  Rh  Rh231  1  0.20475629  0.39478993  0.40409405  1
  Rh  Rh232  1  -0.00562155  0.00290725  0.00184587  1
  Rh  Rh233  1  0.59476518  0.79757921  0.20735922  1
  Rh  Rh234  1  0.40022410  -0.00328250  0.80062180  1
  Rh  Rh235  1  0.40522494  -0.00749685  0.60737258  1
  Rh  Rh236  1  0.40323390  0.80696030  0.20100410  1
  Rh  Rh237  1  0.20407510  0.40353234  0.20284190  1
  Rh  Rh238  1  0.00242467  0.59896196  0.00875989  1
  Rh  Rh239  1  0.19139767  0.58876541  0.60696985  1
  Rh  Rh240  1  0.60714475  0.19930990  -0.00501508  1
  Rh  Rh241  1  0.19375534  0.79721198  0.40123880  1
  Rh  Rh242  1  0.40172589  0.20374703  0.79874895  1
  Rh  Rh243  1  0.80897976  0.39764174  0.20397507  1
  Rh  Rh244  1  0.00163270  0.00001548  0.20077696  1
  Rh  Rh245  1  0.19818177  0.40321339  0.79032002  1
  Rh  Rh246  1  0.20387798  0.39516424  0.60046917  1
  Rh  Rh247  1  0.81034525  0.38787834  0.60091181  1
  Rh  Rh248  1  0.39990168  0.00169377  0.39465526  1
  Rh  Rh249  1  0.80522476  0.19683796  0.19548200  1
