# generated using pymatgen
data_ZrScNbPdRh
_symmetry_space_group_name_H-M   'P 1'
_cell_length_a   16.56049951
_cell_length_b   16.55739763
_cell_length_c   16.55972025
_cell_angle_alpha   89.99148263
_cell_angle_beta   89.99900067
_cell_angle_gamma   89.96526935
_symmetry_Int_Tables_number   1
_chemical_formula_structural   ZrScNbPdRh
_chemical_formula_sum   'Zr50 Sc50 Nb50 Pd50 Rh50'
_cell_volume   4540.65412809
_cell_formula_units_Z   50
loop_
 _symmetry_equiv_pos_site_id
 _symmetry_equiv_pos_as_xyz
  1  'x, y, z'
loop_
 _atom_site_type_symbol
 _atom_site_label
 _atom_site_symmetry_multiplicity
 _atom_site_fract_x
 _atom_site_fract_y
 _atom_site_fract_z
 _atom_site_occupancy
  Zr  Zr0  1  0.09626743  0.70019119  0.10525436  1
  Zr  Zr1  1  0.10146129  0.70137824  0.89950990  1
  Zr  Zr2  1  0.30440601  0.09872818  0.10434243  1
  Zr  Zr3  1  0.89320808  0.10288394  0.90158096  1
  Zr  Zr4  1  0.10660063  0.31010417  0.70044568  1
  Zr  Zr5  1  0.90713740  0.68744071  0.49405020  1
  Zr  Zr6  1  0.29978445  0.30840230  0.30559773  1
  Zr  Zr7  1  0.49903375  0.49397214  0.30069120  1
  Zr  Zr8  1  0.09315044  0.70019356  0.30091985  1
  Zr  Zr9  1  0.70508767  0.50069104  0.10975299  1
  Zr  Zr10  1  0.69413924  0.90250334  0.50435574  1
  Zr  Zr11  1  0.30872038  0.10343237  0.50116117  1
  Zr  Zr12  1  0.70123771  0.89387892  0.70005184  1
  Zr  Zr13  1  0.89769115  0.50726250  0.89426669  1
  Zr  Zr14  1  0.69363096  0.70056279  0.70620504  1
  Zr  Zr15  1  0.30157463  0.10318684  0.29425154  1
  Zr  Zr16  1  0.49631791  0.49709501  0.08560300  1
  Zr  Zr17  1  0.09572756  0.50543163  0.90534186  1
  Zr  Zr18  1  0.50197467  0.70107678  0.09081972  1
  Zr  Zr19  1  0.10738908  0.89599947  0.51355451  1
  Zr  Zr20  1  0.49993563  0.89204696  0.10021321  1
  Zr  Zr21  1  0.09008838  0.48916869  0.50865602  1
  Zr  Zr22  1  0.30216325  0.30086924  0.10157324  1
  Zr  Zr23  1  0.89424722  0.89496033  0.09653010  1
  Zr  Zr24  1  0.90090344  0.10795611  0.49534212  1
  Zr  Zr25  1  0.29243201  0.89593323  0.69548724  1
  Zr  Zr26  1  0.70865178  0.69652329  0.29993478  1
  Zr  Zr27  1  0.90045293  0.09997734  0.70111773  1
  Zr  Zr28  1  0.30342451  0.89392791  0.50019807  1
  Zr  Zr29  1  0.10117370  0.30682481  0.31105987  1
  Zr  Zr30  1  0.29161223  0.68711160  0.30739796  1
  Zr  Zr31  1  0.10203290  0.29626832  0.90682319  1
  Zr  Zr32  1  0.30355613  0.69877420  0.50646126  1
  Zr  Zr33  1  0.10609107  0.09404626  0.69565725  1
  Zr  Zr34  1  0.69474585  0.71093770  0.09899604  1
  Zr  Zr35  1  0.90143612  0.29620304  0.10332885  1
  Zr  Zr36  1  0.29539610  0.30255854  0.70247245  1
  Zr  Zr37  1  0.70452764  0.09937376  0.89567813  1
  Zr  Zr38  1  0.09671053  0.10412024  0.50184336  1
  Zr  Zr39  1  0.88202808  0.50903541  0.30212335  1
  Zr  Zr40  1  0.89911524  0.89560993  0.70320408  1
  Zr  Zr41  1  0.49821916  0.10227577  0.29063096  1
  Zr  Zr42  1  0.30408704  0.89969223  0.09603656  1
  Zr  Zr43  1  0.70274227  0.49988614  0.69463677  1
  Zr  Zr44  1  0.51077611  0.29397020  0.09905308  1
  Zr  Zr45  1  0.10076009  0.89078007  0.30624143  1
  Zr  Zr46  1  0.49281629  0.29542272  0.50230294  1
  Zr  Zr47  1  0.50585271  0.30162454  0.69674250  1
  Zr  Zr48  1  0.90444468  0.30668897  0.90398401  1
  Zr  Zr49  1  0.70067737  0.89343711  0.29686502  1
  Sc  Sc50  1  0.70394454  0.30106289  0.90402089  1
  Sc  Sc51  1  0.89493891  0.69889667  0.89490366  1
  Sc  Sc52  1  0.90042644  0.88944391  0.30020737  1
  Sc  Sc53  1  0.49424043  0.08936482  0.89736582  1
  Sc  Sc54  1  0.89595715  0.69986782  0.10628224  1
  Sc  Sc55  1  0.89477422  0.31044353  0.70240218  1
  Sc  Sc56  1  0.09744425  0.69881743  0.69954261  1
  Sc  Sc57  1  0.30060988  0.89950837  0.29435430  1
  Sc  Sc58  1  0.29434611  0.50708485  0.49998885  1
  Sc  Sc59  1  0.90410878  0.50847316  0.10102924  1
  Sc  Sc60  1  0.70017364  0.09281925  0.49870894  1
  Sc  Sc61  1  0.30259083  0.89806463  0.89017560  1
  Sc  Sc62  1  0.69875050  0.69721881  0.51538574  1
  Sc  Sc63  1  0.09679589  0.88975801  0.10717675  1
  Sc  Sc64  1  0.50492966  0.09033563  0.49834801  1
  Sc  Sc65  1  0.90020061  0.69464375  0.70424626  1
  Sc  Sc66  1  0.69869159  0.30461569  0.10247842  1
  Sc  Sc67  1  0.49970590  0.50454167  0.50690779  1
  Sc  Sc68  1  0.49675572  0.89984157  0.29782071  1
  Sc  Sc69  1  0.30541891  0.09449219  0.70020128  1
  Sc  Sc70  1  0.51438899  0.31293882  0.90802673  1
  Sc  Sc71  1  0.50257265  0.69307281  0.89809768  1
  Sc  Sc72  1  0.69956986  0.31585214  0.50149006  1
  Sc  Sc73  1  0.70203487  0.11713570  0.08768309  1
  Sc  Sc74  1  0.90200460  0.10411094  0.29479957  1
  Sc  Sc75  1  0.49805809  0.89456865  0.69923527  1
  Sc  Sc76  1  0.30152448  0.70308039  0.89759014  1
  Sc  Sc77  1  0.69482496  0.50250167  0.89471677  1
  Sc  Sc78  1  0.88846762  0.89506363  0.89904828  1
  Sc  Sc79  1  0.29709824  0.09975347  0.89602515  1
  Sc  Sc80  1  0.10082018  0.10321211  0.29139844  1
  Sc  Sc81  1  0.09257228  0.29856449  0.09549460  1
  Sc  Sc82  1  0.50424946  0.69318729  0.69580520  1
  Sc  Sc83  1  0.09652900  0.51049209  0.10538882  1
  Sc  Sc84  1  0.11027454  0.50379671  0.29994334  1
  Sc  Sc85  1  0.30464311  0.51409560  0.90227998  1
  Sc  Sc86  1  0.89816505  0.89284018  0.50046487  1
  Sc  Sc87  1  0.49875157  0.30493157  0.29767091  1
  Sc  Sc88  1  0.70409738  0.09490763  0.69196476  1
  Sc  Sc89  1  0.70064218  0.31095771  0.70073963  1
  Sc  Sc90  1  0.49083590  0.88934390  0.89519887  1
  Sc  Sc91  1  0.89047776  0.29765764  0.30413782  1
  Sc  Sc92  1  0.70705575  0.10186002  0.30740026  1
  Sc  Sc93  1  0.69538122  0.69866445  0.89956376  1
  Sc  Sc94  1  0.10231687  0.69962508  0.49801356  1
  Sc  Sc95  1  0.49999544  0.09831213  0.68754775  1
  Sc  Sc96  1  0.49172175  0.69941735  0.29642245  1
  Sc  Sc97  1  0.30298758  0.69615236  0.09757511  1
  Sc  Sc98  1  0.28880391  0.29404643  0.89973884  1
  Sc  Sc99  1  0.09477900  0.11097682  0.10308347  1
  Nb  Nb100  1  0.10650262  0.50330678  0.70123496  1
  Nb  Nb101  1  0.50057298  0.89112975  0.49791433  1
  Nb  Nb102  1  0.69582184  0.49412973  0.30513119  1
  Nb  Nb103  1  0.50064317  0.69968894  0.50071593  1
  Nb  Nb104  1  0.90580763  0.50183977  0.69950299  1
  Nb  Nb105  1  0.90154384  0.10074941  0.10214824  1
  Nb  Nb106  1  0.10177786  0.10362286  0.90243443  1
  Nb  Nb107  1  0.70454103  0.50377639  0.49346294  1
  Nb  Nb108  1  0.10130936  0.30460381  0.49975560  1
  Nb  Nb109  1  0.89486084  0.49765433  0.51037306  1
  Nb  Nb110  1  0.29326828  0.68320294  0.69497130  1
  Nb  Nb111  1  0.50094227  0.49849717  0.70638759  1
  Nb  Nb112  1  0.50375009  0.50075671  0.89788028  1
  Nb  Nb113  1  0.69733634  0.89415333  0.09656936  1
  Nb  Nb114  1  0.50190416  0.10035897  0.09819223  1
  Nb  Nb115  1  0.29580298  0.50470434  0.69695952  1
  Nb  Nb116  1  0.90170659  0.70089756  0.30338996  1
  Nb  Nb117  1  0.10050198  0.90101840  0.70253187  1
  Nb  Nb118  1  0.29639519  0.30164610  0.50004603  1
  Nb  Nb119  1  0.69238357  0.32151913  0.29886737  1
  Nb  Nb120  1  0.29878888  0.49809198  0.28975074  1
  Nb  Nb121  1  0.91580816  0.30614494  0.50325233  1
  Nb  Nb122  1  0.10048863  0.90033486  0.89910937  1
  Nb  Nb123  1  0.30019649  0.49799333  0.10491810  1
  Nb  Nb124  1  0.69946166  0.89669515  0.90125606  1
  Nb  Nb125  1  0.00595956  0.19983653  0.80135173  1
  Nb  Nb126  1  0.60247703  -0.00486857  0.00016858  1
  Nb  Nb127  1  0.19029374  -0.00112957  -0.00189393  1
  Nb  Nb128  1  0.80750734  0.20778674  0.59208115  1
  Nb  Nb129  1  0.19905702  0.00110093  0.40203240  1
  Nb  Nb130  1  0.60228968  0.20886147  0.39840376  1
  Nb  Nb131  1  0.00671723  -0.00204625  0.40208416  1
  Nb  Nb132  1  0.40850726  0.20790822  0.80184076  1
  Nb  Nb133  1  0.60052433  0.59745123  0.20418822  1
  Nb  Nb134  1  0.20268183  0.40858678  0.00650115  1
  Nb  Nb135  1  0.40206812  0.40517122  0.79896169  1
  Nb  Nb136  1  0.79530286  -0.00095293  0.18997446  1
  Nb  Nb137  1  0.59562368  0.79374240  0.40553126  1
  Nb  Nb138  1  0.39363305  0.40432596  0.60784525  1
  Nb  Nb139  1  0.60673819  0.00081270  0.18864116  1
  Nb  Nb140  1  -0.00450692  0.40278437  0.20545051  1
  Nb  Nb141  1  0.19927697  0.20715468  0.59355776  1
  Nb  Nb142  1  0.00669532  -0.00084528  0.80574210  1
  Nb  Nb143  1  0.60296648  0.59999992  0.39966510  1
  Nb  Nb144  1  0.80660433  0.40486718  0.00205578  1
  Nb  Nb145  1  0.60458737  -0.00306583  0.80276515  1
  Nb  Nb146  1  0.59846823  0.19546443  0.79903361  1
  Nb  Nb147  1  0.00211679  0.00047416  -0.00362918  1
  Nb  Nb148  1  0.40510439  0.19964655  -0.00125948  1
  Nb  Nb149  1  0.00516375  0.40491667  0.79920666  1
  Pd  Pd150  1  -0.00651722  0.61135969  0.00030029  1
  Pd  Pd151  1  0.40000781  0.79718089  0.39352132  1
  Pd  Pd152  1  -0.00777390  -0.00576559  0.59865265  1
  Pd  Pd153  1  0.80853271  0.39523122  0.40774469  1
  Pd  Pd154  1  0.00161643  0.21077476  0.61103578  1
  Pd  Pd155  1  0.80660305  0.78985906  0.59851059  1
  Pd  Pd156  1  0.00294402  0.58729745  0.39764571  1
  Pd  Pd157  1  0.39254379  0.79308092  0.20261240  1
  Pd  Pd158  1  0.20358446  0.41403496  0.81504713  1
  Pd  Pd159  1  0.40306619  0.60053941  0.79809720  1
  Pd  Pd160  1  0.79666053  0.20770958  0.78920508  1
  Pd  Pd161  1  -0.00606575  0.79973101  -0.00385965  1
  Pd  Pd162  1  0.78970420  0.21468791  0.40810373  1
  Pd  Pd163  1  0.39730556  0.00093000  -0.00371455  1
  Pd  Pd164  1  0.40398818  0.59983975  0.19520824  1
  Pd  Pd165  1  0.80719417  0.00370758  0.59628686  1
  Pd  Pd166  1  0.19294336  -0.00363620  0.19667702  1
  Pd  Pd167  1  0.40452248  -0.00799883  0.60061155  1
  Pd  Pd168  1  0.20365939  0.59980226  0.00539945  1
  Pd  Pd169  1  0.40758813  0.19994937  0.39482266  1
  Pd  Pd170  1  0.79069354  0.19964438  0.20204181  1
  Pd  Pd171  1  0.81151851  -0.00365837  0.39081623  1
  Pd  Pd172  1  0.19215495  0.59415785  0.40834536  1
  Pd  Pd173  1  0.59583193  0.40733681  0.59407864  1
  Pd  Pd174  1  -0.00095462  0.79241092  0.60020935  1
  Pd  Pd175  1  0.40415566  0.59318416  0.40235198  1
  Pd  Pd176  1  0.40655654  0.39640737  0.19558636  1
  Pd  Pd177  1  0.00222099  0.19745816  0.39197455  1
  Pd  Pd178  1  0.19568114  0.21049744  0.19890618  1
  Pd  Pd179  1  0.79385397  0.79312098  0.41174754  1
  Pd  Pd180  1  0.20423068  0.80513113  -0.00129886  1
  Pd  Pd181  1  0.20063779  0.79344205  0.79420981  1
  Pd  Pd182  1  0.20785139  0.79284354  0.20163608  1
  Pd  Pd183  1  0.39687854  -0.00252812  0.39509689  1
  Pd  Pd184  1  0.79807728  0.00104886  0.00588845  1
  Pd  Pd185  1  0.59700465  -0.00088578  0.39007397  1
  Pd  Pd186  1  -0.00034729  0.80260504  0.80278651  1
  Pd  Pd187  1  0.40204522  0.79268121  0.60903724  1
  Pd  Pd188  1  0.39004109  0.39401617  -0.01261336  1
  Pd  Pd189  1  0.18820596  0.39757039  0.19289857  1
  Pd  Pd190  1  0.79469613  0.60042856  0.00071943  1
  Pd  Pd191  1  0.39797707  0.78754292  0.78927695  1
  Pd  Pd192  1  -0.00591099  -0.00467887  0.20019053  1
  Pd  Pd193  1  0.80253070  0.60291585  0.60508297  1
  Pd  Pd194  1  0.39521062  0.40979881  0.40956070  1
  Pd  Pd195  1  -0.00920458  0.41060383  0.39013557  1
  Pd  Pd196  1  0.20049734  0.00027715  0.80487950  1
  Pd  Pd197  1  0.20063650  0.19514750  0.40260034  1
  Pd  Pd198  1  0.61202687  0.19694854  0.21007018  1
  Pd  Pd199  1  0.61497897  0.19900497  0.59558971  1
  Rh  Rh200  1  0.59539663  -0.00854527  0.60540372  1
  Rh  Rh201  1  0.59835199  0.80371869  0.80312371  1
  Rh  Rh202  1  0.59994883  0.59638351  0.79776156  1
  Rh  Rh203  1  0.00255891  0.59818674  0.60288613  1
  Rh  Rh204  1  0.20605777  0.40829085  0.40403444  1
  Rh  Rh205  1  0.00480397  0.59673619  0.79476548  1
  Rh  Rh206  1  -0.00297943  0.40014095  0.61112200  1
  Rh  Rh207  1  0.59701443  0.79687548  0.21043049  1
  Rh  Rh208  1  0.19997377  0.79034123  0.60780899  1
  Rh  Rh209  1  0.79803567  0.79130473  -0.00459742  1
  Rh  Rh210  1  0.20240526  0.18988231  0.78821813  1
  Rh  Rh211  1  0.60006126  0.59368100  0.59797333  1
  Rh  Rh212  1  0.00070456  0.21135701  0.20762846  1
  Rh  Rh213  1  0.79650364  0.60631055  0.19874831  1
  Rh  Rh214  1  0.59014229  0.18871173  -0.01533375  1
  Rh  Rh215  1  0.40147635  0.20799278  0.19512432  1
  Rh  Rh216  1  0.59584369  0.80422581  -0.01237844  1
  Rh  Rh217  1  0.80525355  0.39855719  0.59534255  1
  Rh  Rh218  1  0.40550219  0.00277325  0.79298567  1
  Rh  Rh219  1  0.79364030  0.59854580  0.79292136  1
  Rh  Rh220  1  0.38983359  0.20787109  0.60658007  1
  Rh  Rh221  1  0.60104405  0.39895115  0.80131207  1
  Rh  Rh222  1  0.80431970  0.80141157  0.19960604  1
  Rh  Rh223  1  0.00192980  0.40977777  0.00496948  1
  Rh  Rh224  1  0.19738713  0.60279497  0.80132140  1
  Rh  Rh225  1  0.00007550  0.80318887  0.40732549  1
  Rh  Rh226  1  0.59287845  0.40127428  0.40920837  1
  Rh  Rh227  1  0.40813672  -0.00395937  0.19892486  1
  Rh  Rh228  1  0.59453667  0.80094325  0.59691590  1
  Rh  Rh229  1  0.79854188  -0.00881393  0.79542822  1
  Rh  Rh230  1  0.80828852  0.39885247  0.19488323  1
  Rh  Rh231  1  0.20859652  0.00577301  0.59238284  1
  Rh  Rh232  1  0.20985160  0.19513138  0.01002943  1
  Rh  Rh233  1  0.61469946  0.41016398  0.00302477  1
  Rh  Rh234  1  0.20573784  0.40109541  0.59181549  1
  Rh  Rh235  1  -0.00467045  0.59717683  0.21109349  1
  Rh  Rh236  1  0.40285652  0.59667624  0.60430210  1
  Rh  Rh237  1  -0.00659237  0.79558676  0.20159056  1
  Rh  Rh238  1  0.80345511  0.40685431  0.80665807  1
  Rh  Rh239  1  0.39689898  0.79535816  -0.00535420  1
  Rh  Rh240  1  0.79512165  0.60394716  0.40691009  1
  Rh  Rh241  1  0.60281622  0.59676653  0.00445475  1
  Rh  Rh242  1  0.80604451  0.21097291  0.00234437  1
  Rh  Rh243  1  0.20652305  0.80196743  0.40096034  1
  Rh  Rh244  1  0.40015668  0.60137188  -0.00071049  1
  Rh  Rh245  1  0.20328831  0.60327499  0.19637525  1
  Rh  Rh246  1  0.19006609  0.60041332  0.59575315  1
  Rh  Rh247  1  0.59255795  0.40788742  0.19209632  1
  Rh  Rh248  1  -0.00656781  0.18925742  -0.00370708  1
  Rh  Rh249  1  0.79554514  0.79443889  0.80225383  1
