# generated using pymatgen
data_ZrScNbPdRh
_symmetry_space_group_name_H-M   'P 1'
_cell_length_a   16.55156274
_cell_length_b   16.55622645
_cell_length_c   16.55236989
_cell_angle_alpha   90.03116390
_cell_angle_beta   90.01595297
_cell_angle_gamma   90.00720338
_symmetry_Int_Tables_number   1
_chemical_formula_structural   ZrScNbPdRh
_chemical_formula_sum   'Zr50 Sc50 Nb50 Pd50 Rh50'
_cell_volume   4535.86855739
_cell_formula_units_Z   50
loop_
 _symmetry_equiv_pos_site_id
 _symmetry_equiv_pos_as_xyz
  1  'x, y, z'
loop_
 _atom_site_type_symbol
 _atom_site_label
 _atom_site_symmetry_multiplicity
 _atom_site_fract_x
 _atom_site_fract_y
 _atom_site_fract_z
 _atom_site_occupancy
  Zr  Zr0  1  0.29005187  0.50642255  0.50903742  1
  Zr  Zr1  1  0.90769042  0.69819100  0.29669586  1
  Zr  Zr2  1  0.91014621  0.67849764  0.90247225  1
  Zr  Zr3  1  0.50540138  0.10477530  0.10302259  1
  Zr  Zr4  1  0.70670135  0.49644529  0.90257122  1
  Zr  Zr5  1  0.50434346  0.69589385  0.89107458  1
  Zr  Zr6  1  0.50134210  0.90665935  0.10178327  1
  Zr  Zr7  1  0.49843251  0.90170652  0.50266161  1
  Zr  Zr8  1  0.10738528  0.49772576  0.69049030  1
  Zr  Zr9  1  0.09797629  0.50236733  0.49522233  1
  Zr  Zr10  1  0.29435305  0.90927133  0.70394022  1
  Zr  Zr11  1  0.29922867  0.09602014  0.49790534  1
  Zr  Zr12  1  0.10532902  0.70359842  0.29517200  1
  Zr  Zr13  1  0.70507639  0.89587256  0.09693766  1
  Zr  Zr14  1  0.10996449  0.90574776  0.09224016  1
  Zr  Zr15  1  0.89467343  0.69883909  0.49383591  1
  Zr  Zr16  1  0.30760353  0.69453698  0.90303844  1
  Zr  Zr17  1  0.30206127  0.90472229  0.50351060  1
  Zr  Zr18  1  0.89962460  0.90404463  0.09347860  1
  Zr  Zr19  1  0.29589666  0.49995935  0.29581009  1
  Zr  Zr20  1  0.10808547  0.09391625  0.69820030  1
  Zr  Zr21  1  0.69749002  0.89569646  0.50133972  1
  Zr  Zr22  1  0.70593060  0.49622706  0.10417167  1
  Zr  Zr23  1  0.68918858  0.30100037  0.10005312  1
  Zr  Zr24  1  0.29547056  0.89865770  0.30746530  1
  Zr  Zr25  1  0.30225059  0.29684475  0.89773495  1
  Zr  Zr26  1  0.49567124  0.49946520  0.70018395  1
  Zr  Zr27  1  0.10162336  0.09626752  0.10344544  1
  Zr  Zr28  1  0.30518258  0.50160249  0.70219514  1
  Zr  Zr29  1  0.89885270  0.50658465  0.08830447  1
  Zr  Zr30  1  0.90127054  0.29596237  0.89638447  1
  Zr  Zr31  1  0.50230241  0.29602881  0.89815037  1
  Zr  Zr32  1  0.10187981  0.09764032  0.29690859  1
  Zr  Zr33  1  0.90409147  0.09799868  0.70944886  1
  Zr  Zr34  1  0.90202926  0.90770292  0.89585205  1
  Zr  Zr35  1  0.30674501  0.30347286  0.29636262  1
  Zr  Zr36  1  0.10480945  0.30276295  0.90491427  1
  Zr  Zr37  1  0.10107375  0.49286362  0.10299751  1
  Zr  Zr38  1  0.09590728  0.69651590  0.49011313  1
  Zr  Zr39  1  0.08699813  0.50084603  0.90424238  1
  Zr  Zr40  1  0.70330607  0.70043102  0.30517595  1
  Zr  Zr41  1  0.29961943  0.10280386  0.30547001  1
  Zr  Zr42  1  0.89523309  0.49867520  0.50939339  1
  Zr  Zr43  1  0.69858130  0.90102380  0.29961177  1
  Zr  Zr44  1  0.68785511  0.70631553  0.70338078  1
  Zr  Zr45  1  0.10341952  0.10093193  0.49696566  1
  Zr  Zr46  1  0.70228377  0.89469634  0.90076194  1
  Zr  Zr47  1  0.89566847  0.28789924  0.49737997  1
  Zr  Zr48  1  0.30323373  0.09544677  0.10359481  1
  Zr  Zr49  1  0.89698388  0.30087751  0.69595852  1
  Sc  Sc50  1  0.09884654  0.10260792  0.90081733  1
  Sc  Sc51  1  0.89798058  0.89938325  0.30198773  1
  Sc  Sc52  1  0.09487154  0.51515728  0.29613756  1
  Sc  Sc53  1  0.30011940  0.09710277  0.70290974  1
  Sc  Sc54  1  0.10385528  0.70041594  0.89498997  1
  Sc  Sc55  1  0.69371099  0.29172897  0.50277646  1
  Sc  Sc56  1  0.89552959  0.50215944  0.28081043  1
  Sc  Sc57  1  0.69863745  0.29559299  0.89989411  1
  Sc  Sc58  1  0.30212954  0.09359576  0.89170964  1
  Sc  Sc59  1  0.70914277  0.70269251  0.09423355  1
  Sc  Sc60  1  0.50386351  0.69989002  0.50478837  1
  Sc  Sc61  1  0.49927680  0.90263632  0.69253245  1
  Sc  Sc62  1  0.69634104  0.70379095  0.89606843  1
  Sc  Sc63  1  0.49991463  0.89661824  0.90296207  1
  Sc  Sc64  1  0.49898409  0.69622264  0.69929966  1
  Sc  Sc65  1  0.10459413  0.90379499  0.49834660  1
  Sc  Sc66  1  0.71008371  0.11058978  0.90318192  1
  Sc  Sc67  1  0.29588072  0.70355287  0.09344352  1
  Sc  Sc68  1  0.50016533  0.49570516  0.31226623  1
  Sc  Sc69  1  0.50054039  0.49221546  0.09914778  1
  Sc  Sc70  1  0.70259570  0.49946706  0.69538165  1
  Sc  Sc71  1  0.09903557  0.29829593  0.50994303  1
  Sc  Sc72  1  0.90352207  0.09609598  0.49699834  1
  Sc  Sc73  1  0.49934266  0.09544688  0.70249686  1
  Sc  Sc74  1  0.90413483  0.10565965  0.31082380  1
  Sc  Sc75  1  0.70966191  0.10320379  0.49832525  1
  Sc  Sc76  1  0.89704473  0.69908459  0.10445993  1
  Sc  Sc77  1  0.29493223  0.69601237  0.69192910  1
  Sc  Sc78  1  0.90159963  0.69788423  0.71330655  1
  Sc  Sc79  1  0.70173780  0.10720384  0.70287741  1
  Sc  Sc80  1  0.69483138  0.10522503  0.30368447  1
  Sc  Sc81  1  0.49968707  0.09994345  0.49511111  1
  Sc  Sc82  1  0.90481542  0.10111876  0.08488376  1
  Sc  Sc83  1  0.49331334  0.70196016  0.08262745  1
  Sc  Sc84  1  0.09714528  0.30326577  0.10408459  1
  Sc  Sc85  1  0.69647306  0.29406304  0.69571384  1
  Sc  Sc86  1  0.70000515  0.51006163  0.50140039  1
  Sc  Sc87  1  0.10388983  0.29459191  0.70112946  1
  Sc  Sc88  1  0.30190805  0.30481007  0.70114009  1
  Sc  Sc89  1  0.29623486  0.70471185  0.49582917  1
  Sc  Sc90  1  0.49732401  0.90360154  0.30371172  1
  Sc  Sc91  1  0.69465461  0.49891277  0.29815248  1
  Sc  Sc92  1  0.29887369  0.29770914  0.49321568  1
  Sc  Sc93  1  0.50103911  0.69699738  0.31728853  1
  Sc  Sc94  1  0.49956226  0.10563081  0.89728869  1
  Sc  Sc95  1  0.49785451  0.10178368  0.29790764  1
  Sc  Sc96  1  0.10032395  0.70247153  0.70603409  1
  Sc  Sc97  1  0.08863037  0.29215722  0.28876818  1
  Sc  Sc98  1  0.09967997  0.89996307  0.29248097  1
  Sc  Sc99  1  0.50019153  0.49964413  0.50489585  1
  Nb  Nb100  1  0.29765695  0.49051925  0.10105555  1
  Nb  Nb101  1  0.09257798  0.89716454  0.70938430  1
  Nb  Nb102  1  0.89964509  0.29877068  0.29839459  1
  Nb  Nb103  1  0.50492632  0.30527547  0.69486190  1
  Nb  Nb104  1  0.89802076  0.49687217  0.88953091  1
  Nb  Nb105  1  0.90128236  0.49806123  0.70920118  1
  Nb  Nb106  1  0.30696625  0.49967676  0.90205616  1
  Nb  Nb107  1  0.70097262  0.89669513  0.70383705  1
  Nb  Nb108  1  0.49025269  0.50552930  0.89528158  1
  Nb  Nb109  1  0.49653277  0.29633307  0.09857065  1
  Nb  Nb110  1  0.70127462  0.30174984  0.30292093  1
  Nb  Nb111  1  0.50468251  0.29876196  0.31595555  1
  Nb  Nb112  1  0.29186844  0.90073174  0.90504035  1
  Nb  Nb113  1  0.89531951  0.90168236  0.50298928  1
  Nb  Nb114  1  0.90189903  0.89932228  0.70309734  1
  Nb  Nb115  1  0.29843128  0.30870597  0.10260052  1
  Nb  Nb116  1  0.10099496  0.70125618  0.09648447  1
  Nb  Nb117  1  0.10794915  0.89642453  0.89871788  1
  Nb  Nb118  1  0.89916133  0.10191481  0.90240476  1
  Nb  Nb119  1  0.69764463  0.10057822  0.10424929  1
  Nb  Nb120  1  0.29930785  0.90317971  0.08955994  1
  Nb  Nb121  1  0.29931898  0.70062236  0.29727694  1
  Nb  Nb122  1  0.90284039  0.30562762  0.11804007  1
  Nb  Nb123  1  0.50286874  0.30031384  0.50041847  1
  Nb  Nb124  1  0.69770984  0.70340976  0.49878973  1
  Nb  Nb125  1  0.39969852  0.60346216  0.19961071  1
  Nb  Nb126  1  0.79719878  0.00952748  0.19643709  1
  Nb  Nb127  1  0.59911307  0.59348173  -0.00124454  1
  Nb  Nb128  1  0.20350941  0.40706865  0.80732141  1
  Nb  Nb129  1  0.39834216  0.79609737  0.20110812  1
  Nb  Nb130  1  0.60754224  0.00376536  0.00028023  1
  Nb  Nb131  1  -0.00578529  0.39857054  0.39683211  1
  Nb  Nb132  1  0.39252757  0.80378906  0.80162640  1
  Nb  Nb133  1  0.20252237  0.58995631  0.00098045  1
  Nb  Nb134  1  0.59322575  0.60667253  0.19505739  1
  Nb  Nb135  1  0.59306361  0.79380936  0.19880209  1
  Nb  Nb136  1  -0.00701869  0.80445542  0.60217618  1
  Nb  Nb137  1  0.80314093  0.39354795  0.39562739  1
  Nb  Nb138  1  0.40720580  0.20621118  0.59727950  1
  Nb  Nb139  1  0.19159610  0.40215107  0.39563718  1
  Nb  Nb140  1  0.79871335  0.20250719  0.19965605  1
  Nb  Nb141  1  0.39833093  0.39624153  0.00148583  1
  Nb  Nb142  1  -0.00542042  0.60198052  0.60228705  1
  Nb  Nb143  1  0.20719949  0.20260701  0.00652855  1
  Nb  Nb144  1  0.60764150  -0.00381673  0.80399959  1
  Nb  Nb145  1  0.59193935  0.40133689  0.79866663  1
  Nb  Nb146  1  0.80468833  -0.01013916  0.60708957  1
  Nb  Nb147  1  0.80164082  0.80185581  0.60375653  1
  Nb  Nb148  1  0.60307340  -0.00249784  0.40250107  1
  Nb  Nb149  1  0.00642991  0.80211363  -0.00276570  1
  Pd  Pd150  1  0.20824631  0.79700239  0.79973424  1
  Pd  Pd151  1  0.78987756  0.39444636  0.59380107  1
  Pd  Pd152  1  -0.00221294  0.19275994  0.60145412  1
  Pd  Pd153  1  0.80249552  0.20876121  0.01031772  1
  Pd  Pd154  1  0.18923248  0.80239522  0.59986043  1
  Pd  Pd155  1  0.41270205  0.40215681  0.20106250  1
  Pd  Pd156  1  -0.00061527  0.40112449  0.59872593  1
  Pd  Pd157  1  0.00262305  -0.00663497  0.39772782  1
  Pd  Pd158  1  0.79297173  0.00570788  0.79874264  1
  Pd  Pd159  1  0.80728541  0.79286246  0.80424801  1
  Pd  Pd160  1  0.39205673  0.40506641  0.40924015  1
  Pd  Pd161  1  0.20811282  0.80582220  0.19353736  1
  Pd  Pd162  1  0.00505468  0.20637501  0.00593428  1
  Pd  Pd163  1  0.40106250  0.79847215  0.40041408  1
  Pd  Pd164  1  0.81508626  0.78903536  -0.01231494  1
  Pd  Pd165  1  0.60917195  0.00850448  0.60136132  1
  Pd  Pd166  1  0.80783549  0.38899935  0.00093695  1
  Pd  Pd167  1  0.00018806  -0.00384046  0.59833650  1
  Pd  Pd168  1  0.78946156  0.39125209  0.79566414  1
  Pd  Pd169  1  0.00075133  0.80300699  0.18955613  1
  Pd  Pd170  1  0.80186263  0.80210915  0.39950396  1
  Pd  Pd171  1  0.79067979  0.60233015  0.79578155  1
  Pd  Pd172  1  0.19938925  0.59391643  0.80667726  1
  Pd  Pd173  1  0.59154335  0.40484608  -0.00902659  1
  Pd  Pd174  1  0.40236283  0.20077598  0.78667623  1
  Pd  Pd175  1  0.59031182  0.40111903  0.20630404  1
  Pd  Pd176  1  0.39425913  0.20064298  0.00369905  1
  Pd  Pd177  1  0.00747501  0.39722814  0.79356868  1
  Pd  Pd178  1  0.20518593  0.60306663  0.19054736  1
  Pd  Pd179  1  0.39898963  0.80641555  -0.00284622  1
  Pd  Pd180  1  0.59798887  0.59888512  0.59877861  1
  Pd  Pd181  1  0.19206925  0.21269104  0.39492690  1
  Pd  Pd182  1  0.40426356  0.20499428  0.20331820  1
  Pd  Pd183  1  0.61068474  0.40247520  0.41064544  1
  Pd  Pd184  1  0.59373496  0.19042341  0.59895784  1
  Pd  Pd185  1  -0.01211181  0.39349603  0.00312188  1
  Pd  Pd186  1  0.80182033  0.58824967  0.39040182  1
  Pd  Pd187  1  0.00547052  0.20005971  0.79881594  1
  Pd  Pd188  1  0.59924988  0.20774284  0.20864974  1
  Pd  Pd189  1  0.21329609  0.20231744  0.60343170  1
  Pd  Pd190  1  0.39339607  -0.00711992  0.20624962  1
  Pd  Pd191  1  0.80272550  0.61138132  0.61267495  1
  Pd  Pd192  1  0.39495600  0.59879805  0.40202558  1
  Pd  Pd193  1  0.00327443  0.80966928  0.40294183  1
  Pd  Pd194  1  0.40752461  0.00413933  -0.00846682  1
  Pd  Pd195  1  -0.01285229  0.00480322  0.20254154  1
  Pd  Pd196  1  0.39538815  0.39500528  0.59120130  1
  Pd  Pd197  1  0.00778801  0.00304612  0.80793741  1
  Pd  Pd198  1  0.20257839  0.20489971  0.19552759  1
  Pd  Pd199  1  0.39872289  0.79655079  0.60696192  1
  Rh  Rh200  1  0.20551237  0.39302534  0.59964910  1
  Rh  Rh201  1  0.40919286  -0.01148220  0.80266157  1
  Rh  Rh202  1  0.60085359  0.19327090  -0.00053734  1
  Rh  Rh203  1  0.80770906  0.18868498  0.60552577  1
  Rh  Rh204  1  0.79078792  0.60484903  0.20017276  1
  Rh  Rh205  1  0.20827518  -0.00509998  0.20312454  1
  Rh  Rh206  1  0.19534014  -0.00583591  0.60239888  1
  Rh  Rh207  1  0.00724347  0.59228935  0.78890603  1
  Rh  Rh208  1  0.20138460  0.01140148  -0.00718693  1
  Rh  Rh209  1  0.80344273  0.20383606  0.79879690  1
  Rh  Rh210  1  0.19605129  0.79214239  -0.00246070  1
  Rh  Rh211  1  0.19475528  -0.00171786  0.39609897  1
  Rh  Rh212  1  0.20834407  0.39870490  -0.00552849  1
  Rh  Rh213  1  0.39798458  0.01069255  0.59943887  1
  Rh  Rh214  1  0.18922824  0.61219287  0.59654439  1
  Rh  Rh215  1  0.19344876  0.00065529  0.80461237  1
  Rh  Rh216  1  0.79462589  0.00260955  0.39896622  1
  Rh  Rh217  1  0.59877784  0.20008499  0.79854429  1
  Rh  Rh218  1  0.59481202  0.80480582  0.39876223  1
  Rh  Rh219  1  0.60517911  0.58598405  0.80665906  1
  Rh  Rh220  1  0.79425762  0.60142907  -0.00486552  1
  Rh  Rh221  1  -0.00087101  0.80075702  0.80618610  1
  Rh  Rh222  1  0.20629600  0.59987158  0.39661110  1
  Rh  Rh223  1  -0.01526048  0.59010020  0.40168292  1
  Rh  Rh224  1  0.39958309  0.58588015  0.01271738  1
  Rh  Rh225  1  0.79565551  0.39398134  0.20340919  1
  Rh  Rh226  1  0.59853321  0.19506260  0.40006375  1
  Rh  Rh227  1  0.40489278  0.20132572  0.40469998  1
  Rh  Rh228  1  0.00812718  -0.00503778  -0.00963782  1
  Rh  Rh229  1  0.79653306  0.20266835  0.39347120  1
  Rh  Rh230  1  0.60315964  0.59981865  0.39997637  1
  Rh  Rh231  1  0.19230224  0.39535882  0.21200040  1
  Rh  Rh232  1  0.00106706  0.60323530  0.19051706  1
  Rh  Rh233  1  0.00829917  0.20488383  0.40386650  1
  Rh  Rh234  1  0.40640230  0.00369796  0.39856604  1
  Rh  Rh235  1  0.60760339  -0.00692853  0.20023324  1
  Rh  Rh236  1  -0.01064085  0.18885209  0.19444723  1
  Rh  Rh237  1  0.79845780  0.80482870  0.20579370  1
  Rh  Rh238  1  0.79429264  0.00862024  0.00279341  1
  Rh  Rh239  1  0.19947657  0.20486508  0.80553860  1
  Rh  Rh240  1  0.39480610  0.61049901  0.79087102  1
  Rh  Rh241  1  0.19676245  0.79981361  0.39957800  1
  Rh  Rh242  1  0.40249490  0.39421314  0.80561607  1
  Rh  Rh243  1  0.00934733  0.60486232  0.00823302  1
  Rh  Rh244  1  0.00139234  0.40838257  0.20516125  1
  Rh  Rh245  1  0.60060166  0.79893853  0.00653702  1
  Rh  Rh246  1  0.40020799  0.60348805  0.59684622  1
  Rh  Rh247  1  0.58498564  0.81122078  0.79407975  1
  Rh  Rh248  1  0.60083133  0.79747073  0.59937214  1
  Rh  Rh249  1  0.60298379  0.40369428  0.60190594  1
