# generated using pymatgen
data_ZrScNbPdRh
_symmetry_space_group_name_H-M   'P 1'
_cell_length_a   16.56240722
_cell_length_b   16.56326600
_cell_length_c   16.55682983
_cell_angle_alpha   89.97806387
_cell_angle_beta   89.99005477
_cell_angle_gamma   89.97571487
_symmetry_Int_Tables_number   1
_chemical_formula_structural   ZrScNbPdRh
_chemical_formula_sum   'Zr50 Sc50 Nb50 Pd50 Rh50'
_cell_volume   4541.99386146
_cell_formula_units_Z   50
loop_
 _symmetry_equiv_pos_site_id
 _symmetry_equiv_pos_as_xyz
  1  'x, y, z'
loop_
 _atom_site_type_symbol
 _atom_site_label
 _atom_site_symmetry_multiplicity
 _atom_site_fract_x
 _atom_site_fract_y
 _atom_site_fract_z
 _atom_site_occupancy
  Zr  Zr0  1  0.89833831  0.90235986  0.09579371  1
  Zr  Zr1  1  0.69726170  0.89299385  0.10647762  1
  Zr  Zr2  1  0.90421581  0.69982912  0.30069075  1
  Zr  Zr3  1  0.69634122  0.29705128  0.09718490  1
  Zr  Zr4  1  0.30056949  0.88453873  0.30123701  1
  Zr  Zr5  1  0.29894074  0.49298614  0.09993682  1
  Zr  Zr6  1  0.49245025  0.49840405  0.89930243  1
  Zr  Zr7  1  0.50161730  0.49614891  0.50244409  1
  Zr  Zr8  1  0.90370426  0.09899540  0.09476199  1
  Zr  Zr9  1  0.89951496  0.09854232  0.49910841  1
  Zr  Zr10  1  0.50064465  0.09880113  0.49191147  1
  Zr  Zr11  1  0.30032887  0.10019345  0.89679391  1
  Zr  Zr12  1  0.48647299  0.70265594  0.29962975  1
  Zr  Zr13  1  0.30273719  0.89447161  0.09720971  1
  Zr  Zr14  1  0.09841154  0.10066704  0.10355343  1
  Zr  Zr15  1  0.30169118  0.10078776  0.49842180  1
  Zr  Zr16  1  0.10533144  0.89929381  0.69885875  1
  Zr  Zr17  1  0.29592597  0.89827490  0.90130822  1
  Zr  Zr18  1  0.50159194  0.89395167  0.70223269  1
  Zr  Zr19  1  0.88712269  0.09485385  0.69280659  1
  Zr  Zr20  1  0.29899169  0.89078318  0.69980837  1
  Zr  Zr21  1  0.29662964  0.69243728  0.89819057  1
  Zr  Zr22  1  0.49388025  0.29935017  0.89519471  1
  Zr  Zr23  1  0.90141871  0.50259905  0.29985288  1
  Zr  Zr24  1  0.70663628  0.29998046  0.90572776  1
  Zr  Zr25  1  0.29848192  0.49815127  0.90392008  1
  Zr  Zr26  1  0.09891991  0.30642493  0.89103709  1
  Zr  Zr27  1  0.52225407  0.09621297  0.70305968  1
  Zr  Zr28  1  0.09426656  0.70174066  0.90303009  1
  Zr  Zr29  1  0.30322126  0.70924998  0.49701666  1
  Zr  Zr30  1  0.30052443  0.09277190  0.30597126  1
  Zr  Zr31  1  0.90560940  0.09604551  0.30673397  1
  Zr  Zr32  1  0.10805326  0.89773084  0.89349045  1
  Zr  Zr33  1  0.49427964  0.89597337  0.90302402  1
  Zr  Zr34  1  0.89414712  0.29841812  0.09038070  1
  Zr  Zr35  1  0.69630581  0.69964138  0.70241494  1
  Zr  Zr36  1  0.69918156  0.49360164  0.08707506  1
  Zr  Zr37  1  0.49344555  0.70847936  0.70451747  1
  Zr  Zr38  1  0.29424866  0.90583134  0.49430176  1
  Zr  Zr39  1  0.90495623  0.29826866  0.90072708  1
  Zr  Zr40  1  0.30484544  0.29504556  0.50652894  1
  Zr  Zr41  1  0.29709541  0.30579492  0.28625262  1
  Zr  Zr42  1  0.69419688  0.29971814  0.30466504  1
  Zr  Zr43  1  0.90696795  0.70277341  0.08821637  1
  Zr  Zr44  1  0.49680287  0.50163603  0.30053928  1
  Zr  Zr45  1  0.90231955  0.30128559  0.30533345  1
  Zr  Zr46  1  0.69546992  0.50165488  0.49332343  1
  Zr  Zr47  1  0.49808873  0.69586858  0.90098424  1
  Zr  Zr48  1  0.90852039  0.89154641  0.90533431  1
  Zr  Zr49  1  0.70650580  0.29004608  0.69993198  1
  Sc  Sc50  1  0.10602443  0.90216162  0.09426037  1
  Sc  Sc51  1  0.50384577  0.10008557  0.30430518  1
  Sc  Sc52  1  0.09878605  0.70261563  0.50523716  1
  Sc  Sc53  1  0.10951020  0.50625462  0.89698920  1
  Sc  Sc54  1  0.49363591  0.49214878  0.70287369  1
  Sc  Sc55  1  0.30658217  0.70607968  0.10118388  1
  Sc  Sc56  1  0.09942383  0.30894895  0.29976199  1
  Sc  Sc57  1  0.89478446  0.09931583  0.90608409  1
  Sc  Sc58  1  0.10333764  0.10589110  0.69710748  1
  Sc  Sc59  1  0.09423500  0.10299244  0.89983020  1
  Sc  Sc60  1  0.70150045  0.90649794  0.90454566  1
  Sc  Sc61  1  0.49863015  0.29832778  0.49858319  1
  Sc  Sc62  1  0.69560383  0.89332654  0.49067120  1
  Sc  Sc63  1  0.29779594  0.10371428  0.10719062  1
  Sc  Sc64  1  0.90434186  0.50308463  0.70097894  1
  Sc  Sc65  1  0.09282452  0.29992735  0.49911840  1
  Sc  Sc66  1  0.90787231  0.30396853  0.69495177  1
  Sc  Sc67  1  0.09195708  0.49803452  0.30427411  1
  Sc  Sc68  1  0.10510052  0.90543392  0.30346702  1
  Sc  Sc69  1  0.89516120  0.30015801  0.50368981  1
  Sc  Sc70  1  0.50992460  0.90074859  0.30858473  1
  Sc  Sc71  1  0.49518465  0.50145246  0.09144735  1
  Sc  Sc72  1  0.69027292  0.49702329  0.89575782  1
  Sc  Sc73  1  0.90244909  0.89990587  0.31178228  1
  Sc  Sc74  1  0.70141974  0.71136119  0.30759020  1
  Sc  Sc75  1  0.09785348  0.50475159  0.70440543  1
  Sc  Sc76  1  0.50281635  0.09627200  0.10565005  1
  Sc  Sc77  1  0.69909411  0.49576039  0.69623306  1
  Sc  Sc78  1  0.89743499  0.49818217  0.49935250  1
  Sc  Sc79  1  0.10315519  0.09567399  0.50304796  1
  Sc  Sc80  1  0.70086842  0.30637875  0.50183939  1
  Sc  Sc81  1  0.51038652  0.70450450  0.49923294  1
  Sc  Sc82  1  0.09734662  0.50047538  0.50124879  1
  Sc  Sc83  1  0.90499626  0.71125914  0.50087329  1
  Sc  Sc84  1  0.09879079  0.50764150  0.09477841  1
  Sc  Sc85  1  0.69885643  0.90896980  0.70304861  1
  Sc  Sc86  1  0.29756395  0.50190996  0.70943693  1
  Sc  Sc87  1  0.50563458  0.89417333  0.09601168  1
  Sc  Sc88  1  0.90246800  0.89334408  0.69085161  1
  Sc  Sc89  1  0.29006872  0.10215447  0.69185219  1
  Sc  Sc90  1  0.29895409  0.49886537  0.50628634  1
  Sc  Sc91  1  0.69213515  0.09573560  0.10323059  1
  Sc  Sc92  1  0.90774578  0.90222684  0.50107708  1
  Sc  Sc93  1  0.10122813  0.71033307  0.30460533  1
  Sc  Sc94  1  0.49443788  0.30303387  0.69792970  1
  Sc  Sc95  1  0.30218417  0.29672814  0.70606365  1
  Sc  Sc96  1  0.50120104  0.29168095  0.30294325  1
  Sc  Sc97  1  0.49878146  0.09807265  0.89771768  1
  Sc  Sc98  1  0.68890955  0.09951681  0.30945275  1
  Sc  Sc99  1  0.49038961  0.29593366  0.10686676  1
  Nb  Nb100  1  0.70165517  0.10012329  0.70470656  1
  Nb  Nb101  1  0.09695499  0.70211876  0.70493314  1
  Nb  Nb102  1  0.29042389  0.30169807  0.10025835  1
  Nb  Nb103  1  0.30035927  0.70041177  0.29901561  1
  Nb  Nb104  1  0.10413813  0.10308988  0.29711486  1
  Nb  Nb105  1  0.10414116  0.69959553  0.09890375  1
  Nb  Nb106  1  0.69855048  0.10415032  0.51462484  1
  Nb  Nb107  1  0.09817572  0.89779428  0.49822152  1
  Nb  Nb108  1  0.30100257  0.50329612  0.29837116  1
  Nb  Nb109  1  0.10128475  0.30225249  0.09789052  1
  Nb  Nb110  1  0.89989589  0.50310629  0.09702134  1
  Nb  Nb111  1  0.50536328  0.70153150  0.09829027  1
  Nb  Nb112  1  0.70441500  0.68920040  0.89427804  1
  Nb  Nb113  1  0.70129593  0.69591763  0.50524999  1
  Nb  Nb114  1  0.10210371  0.30567090  0.70202018  1
  Nb  Nb115  1  0.29959147  0.69891472  0.69782515  1
  Nb  Nb116  1  0.90257107  0.69550918  0.89238445  1
  Nb  Nb117  1  0.49567196  0.89958934  0.49996244  1
  Nb  Nb118  1  0.69874289  0.50143090  0.29778036  1
  Nb  Nb119  1  0.90262305  0.69716058  0.70650296  1
  Nb  Nb120  1  0.29737937  0.30271930  0.90469946  1
  Nb  Nb121  1  0.70006395  0.90528417  0.29759144  1
  Nb  Nb122  1  0.70189924  0.69921456  0.10041013  1
  Nb  Nb123  1  0.90257470  0.50665972  0.89652980  1
  Nb  Nb124  1  0.69641506  0.10493206  0.87948052  1
  Nb  Nb125  1  0.20476724  0.60435346  0.20690536  1
  Nb  Nb126  1  0.59987408  0.19989973  -0.00746481  1
  Nb  Nb127  1  0.20265617  0.21026967  0.00065627  1
  Nb  Nb128  1  0.00022733  0.80075581  0.19483731  1
  Nb  Nb129  1  0.19711885  0.39504493  0.60641447  1
  Nb  Nb130  1  0.60494480  0.60259564  0.19626367  1
  Nb  Nb131  1  0.79657311  0.59942492  0.19357944  1
  Nb  Nb132  1  -0.00138984  -0.00275527  0.79646499  1
  Nb  Nb133  1  0.80564305  0.40137286  0.80428393  1
  Nb  Nb134  1  -0.00236074  0.40461142  -0.00210375  1
  Nb  Nb135  1  0.79804352  -0.00024980  0.20586831  1
  Nb  Nb136  1  -0.00113457  0.20168498  0.19915224  1
  Nb  Nb137  1  0.20823143  0.60087599  0.39453159  1
  Nb  Nb138  1  0.80320116  0.19746994  0.20389983  1
  Nb  Nb139  1  0.39338802  0.40286596  0.39540107  1
  Nb  Nb140  1  0.80393500  0.78982394  0.80261850  1
  Nb  Nb141  1  0.79862517  0.40335276  0.19987812  1
  Nb  Nb142  1  0.20174267  0.20015424  0.39424987  1
  Nb  Nb143  1  0.39805939  -0.00376518  0.79129174  1
  Nb  Nb144  1  0.40515451  -0.00410477  0.60126272  1
  Nb  Nb145  1  0.80223637  0.60334459  -0.00471931  1
  Nb  Nb146  1  0.39837196  0.60689132  0.60351444  1
  Nb  Nb147  1  0.79738505  0.60797840  0.60010316  1
  Nb  Nb148  1  0.60329310  0.40664159  0.20142285  1
  Nb  Nb149  1  0.39967946  -0.00816817  0.20467142  1
  Pd  Pd150  1  0.79161959  0.79344895  -0.01000833  1
  Pd  Pd151  1  0.40050338  0.00566414  0.00562231  1
  Pd  Pd152  1  0.80155571  0.60605071  0.40289213  1
  Pd  Pd153  1  0.60500664  0.80511820  0.59807711  1
  Pd  Pd154  1  0.40046559  0.39343961  0.00438621  1
  Pd  Pd155  1  0.61127619  0.80402775  0.81007146  1
  Pd  Pd156  1  0.40169563  0.19011376  0.79009505  1
  Pd  Pd157  1  0.79179440  -0.01023675  0.59101732  1
  Pd  Pd158  1  0.39855014  0.19665377  0.00580733  1
  Pd  Pd159  1  0.60101764  0.00732878  -0.00562127  1
  Pd  Pd160  1  0.20703506  -0.00756838  0.20027936  1
  Pd  Pd161  1  0.81014614  -0.01258694  0.80200751  1
  Pd  Pd162  1  -0.00744170  0.60350186  0.59761285  1
  Pd  Pd163  1  0.79222877  0.19601824  0.40228100  1
  Pd  Pd164  1  0.81270647  0.20539487  0.79759811  1
  Pd  Pd165  1  0.79618654  0.79931477  0.60427972  1
  Pd  Pd166  1  0.80882548  0.80155803  0.20454962  1
  Pd  Pd167  1  0.60817981  0.79327692  -0.00818768  1
  Pd  Pd168  1  -0.00361317  -0.00507197  0.20462396  1
  Pd  Pd169  1  0.78924179  0.00616106  0.00287872  1
  Pd  Pd170  1  0.00748388  0.60329229  0.40619878  1
  Pd  Pd171  1  0.19977996  0.20007822  0.80413474  1
  Pd  Pd172  1  0.59725557  0.20767081  0.59719215  1
  Pd  Pd173  1  -0.00242562  0.39720538  0.19044964  1
  Pd  Pd174  1  0.20329102  0.59578403  0.59857974  1
  Pd  Pd175  1  0.60181849  -0.00757245  0.59241460  1
  Pd  Pd176  1  0.60603884  0.39427889  0.79548994  1
  Pd  Pd177  1  0.59527519  0.79478667  0.20768860  1
  Pd  Pd178  1  0.01024171  0.19911356  0.39785135  1
  Pd  Pd179  1  0.00067123  0.19745625  0.60232534  1
  Pd  Pd180  1  0.60161828  0.39380571  0.60319331  1
  Pd  Pd181  1  0.19917730  0.01097634  0.00043346  1
  Pd  Pd182  1  0.40022073  0.60071827  0.18867791  1
  Pd  Pd183  1  -0.00744240  0.18889948  0.79097263  1
  Pd  Pd184  1  0.20336401  0.40105392  0.40890780  1
  Pd  Pd185  1  0.59236201  0.59350722  0.79339309  1
  Pd  Pd186  1  0.80094510  0.40238056  0.39915582  1
  Pd  Pd187  1  0.79308983  0.00095842  0.40365478  1
  Pd  Pd188  1  0.18784446  0.41317629  0.19851204  1
  Pd  Pd189  1  0.00478973  0.60784649  0.19977306  1
  Pd  Pd190  1  0.39631325  0.59640358  0.41214574  1
  Pd  Pd191  1  0.40144295  0.19047300  0.20313248  1
  Pd  Pd192  1  0.60094201  0.60904618  0.39089669  1
  Pd  Pd193  1  0.19597935  0.79918684  0.59674810  1
  Pd  Pd194  1  0.60249443  0.60274051  0.00047610  1
  Pd  Pd195  1  0.40998527  0.18734669  0.61019745  1
  Pd  Pd196  1  0.00429951  0.40329365  0.59957206  1
  Pd  Pd197  1  0.80177023  0.80140778  0.40359458  1
  Pd  Pd198  1  0.59494912  0.59798978  0.60854553  1
  Pd  Pd199  1  0.00603368  0.00245453  0.60455344  1
  Rh  Rh200  1  0.18944649  0.20486308  0.20103434  1
  Rh  Rh201  1  0.40505370  -0.00827901  0.39824525  1
  Rh  Rh202  1  0.59602631  -0.00834135  0.80811917  1
  Rh  Rh203  1  0.40070985  0.79100366  -0.00244834  1
  Rh  Rh204  1  0.80149876  0.20081719  0.59669188  1
  Rh  Rh205  1  0.41022903  0.80700921  0.19697732  1
  Rh  Rh206  1  0.19179990  0.39707014  -0.00215604  1
  Rh  Rh207  1  0.19466631  0.79496882  0.40470724  1
  Rh  Rh208  1  0.79912019  0.59562065  0.79675271  1
  Rh  Rh209  1  0.60446176  0.00045892  0.40756348  1
  Rh  Rh210  1  0.19130781  0.21170199  0.59265742  1
  Rh  Rh211  1  0.00491502  0.80578754  0.39682315  1
  Rh  Rh212  1  0.00897486  0.60004912  0.80087258  1
  Rh  Rh213  1  0.39012496  0.80027472  0.80902967  1
  Rh  Rh214  1  0.39186973  0.39941427  0.80221857  1
  Rh  Rh215  1  0.39298152  0.40745710  0.59672136  1
  Rh  Rh216  1  0.00941931  -0.00528841  -0.01156035  1
  Rh  Rh217  1  0.59857636  -0.00425447  0.20394245  1
  Rh  Rh218  1  0.20586112  0.60353190  0.01205846  1
  Rh  Rh219  1  0.19790004  0.00822850  0.79668434  1
  Rh  Rh220  1  0.19146385  0.79452803  0.19684089  1
  Rh  Rh221  1  0.20424625  0.39935609  0.79441295  1
  Rh  Rh222  1  0.40097276  0.79998646  0.59256771  1
  Rh  Rh223  1  0.01248941  0.80366932  0.00639969  1
  Rh  Rh224  1  -0.00282960  0.40849283  0.80465923  1
  Rh  Rh225  1  0.40101091  0.59914573  0.79450919  1
  Rh  Rh226  1  0.00498058  0.79662603  0.60362135  1
  Rh  Rh227  1  0.00929087  0.00105917  0.40449366  1
  Rh  Rh228  1  0.81116414  0.41325106  -0.00884327  1
  Rh  Rh229  1  0.01245894  0.20890659  0.00308788  1
  Rh  Rh230  1  0.38882171  0.21214714  0.38931265  1
  Rh  Rh231  1  0.78390750  0.18325749  0.00204136  1
  Rh  Rh232  1  0.20111572  0.79372170  0.00076861  1
  Rh  Rh233  1  0.59754078  0.20910157  0.80246587  1
  Rh  Rh234  1  0.60575358  0.19994414  0.41205049  1
  Rh  Rh235  1  0.20137184  0.78783288  0.79929870  1
  Rh  Rh236  1  -0.00383624  0.80422172  0.79145567  1
  Rh  Rh237  1  0.00049854  0.59578590  -0.00527220  1
  Rh  Rh238  1  0.60031080  0.79721193  0.39962748  1
  Rh  Rh239  1  0.40469718  0.80335471  0.40338595  1
  Rh  Rh240  1  0.39673905  0.60355924  0.00414628  1
  Rh  Rh241  1  0.58230341  0.38626903  0.00465010  1
  Rh  Rh242  1  0.60283077  0.20444371  0.19486226  1
  Rh  Rh243  1  -0.00602781  0.40058901  0.40689532  1
  Rh  Rh244  1  0.59003246  0.39739344  0.39472755  1
  Rh  Rh245  1  0.40701201  0.40049162  0.20344022  1
  Rh  Rh246  1  0.80127247  0.40924127  0.60681997  1
  Rh  Rh247  1  0.20211123  -0.00405186  0.59829596  1
  Rh  Rh248  1  0.19205584  0.00521850  0.40160248  1
  Rh  Rh249  1  0.19616685  0.60614541  0.79601705  1
