# generated using pymatgen
data_ZrScNbPdRh
_symmetry_space_group_name_H-M   'P 1'
_cell_length_a   16.55935169
_cell_length_b   16.55876747
_cell_length_c   16.56140589
_cell_angle_alpha   90.00890592
_cell_angle_beta   89.98247421
_cell_angle_gamma   90.00757262
_symmetry_Int_Tables_number   1
_chemical_formula_structural   ZrScNbPdRh
_chemical_formula_sum   'Zr50 Sc50 Nb50 Pd50 Rh50'
_cell_volume   4541.17783006
_cell_formula_units_Z   50
loop_
 _symmetry_equiv_pos_site_id
 _symmetry_equiv_pos_as_xyz
  1  'x, y, z'
loop_
 _atom_site_type_symbol
 _atom_site_label
 _atom_site_symmetry_multiplicity
 _atom_site_fract_x
 _atom_site_fract_y
 _atom_site_fract_z
 _atom_site_occupancy
  Zr  Zr0  1  0.10340532  0.70487032  0.69977970  1
  Zr  Zr1  1  0.10082814  0.09630033  0.70097181  1
  Zr  Zr2  1  0.50208717  0.49657986  0.49437891  1
  Zr  Zr3  1  0.30003196  0.70271794  0.49143372  1
  Zr  Zr4  1  0.29699382  0.49945788  0.48697422  1
  Zr  Zr5  1  0.69570900  0.49499609  0.30056612  1
  Zr  Zr6  1  0.69733776  0.10086121  0.31188024  1
  Zr  Zr7  1  0.50456206  0.90600356  0.29777797  1
  Zr  Zr8  1  0.69361831  0.29461176  0.30239145  1
  Zr  Zr9  1  0.10441348  0.70154944  0.29623940  1
  Zr  Zr10  1  0.90100452  0.29727184  0.69639501  1
  Zr  Zr11  1  0.89274076  0.09424381  0.90499255  1
  Zr  Zr12  1  0.09694243  0.89246250  0.90395237  1
  Zr  Zr13  1  0.89737423  0.09887725  0.30504861  1
  Zr  Zr14  1  0.10363172  0.89813020  0.69938486  1
  Zr  Zr15  1  0.69471672  0.30250862  0.89646048  1
  Zr  Zr16  1  0.30313944  0.89600209  0.49795445  1
  Zr  Zr17  1  0.90296165  0.09150618  0.09998780  1
  Zr  Zr18  1  0.10926449  0.30261322  0.09674993  1
  Zr  Zr19  1  0.10635069  0.89534008  0.50131334  1
  Zr  Zr20  1  0.09984154  0.31198778  0.89979352  1
  Zr  Zr21  1  0.49779850  0.09857223  0.69577052  1
  Zr  Zr22  1  0.90498928  0.30231029  0.89470205  1
  Zr  Zr23  1  0.70284412  0.90503860  0.30525519  1
  Zr  Zr24  1  0.09427178  0.10068254  0.50226767  1
  Zr  Zr25  1  0.09349988  0.49237310  0.50020137  1
  Zr  Zr26  1  0.09629131  0.49385990  0.70526868  1
  Zr  Zr27  1  0.89909558  0.30212821  0.09773554  1
  Zr  Zr28  1  0.29303027  0.49264206  0.90031064  1
  Zr  Zr29  1  0.70408281  0.70469346  0.49956814  1
  Zr  Zr30  1  0.89652402  0.69247352  0.50033333  1
  Zr  Zr31  1  0.49794701  0.29714481  0.30242711  1
  Zr  Zr32  1  0.89349375  0.88944536  0.49487543  1
  Zr  Zr33  1  0.49571882  0.50670439  0.09909019  1
  Zr  Zr34  1  0.29944753  0.89959577  0.69224780  1
  Zr  Zr35  1  0.30117323  0.11208798  0.08949683  1
  Zr  Zr36  1  0.09294393  0.50014407  0.90582051  1
  Zr  Zr37  1  0.50207683  0.69865665  0.91147701  1
  Zr  Zr38  1  0.10104778  0.10527225  0.09843983  1
  Zr  Zr39  1  0.69409839  0.50676088  0.10344594  1
  Zr  Zr40  1  0.89966830  0.90204590  0.91340993  1
  Zr  Zr41  1  0.50114394  0.90296596  0.69853862  1
  Zr  Zr42  1  0.70036428  0.90651807  0.50457314  1
  Zr  Zr43  1  0.89559252  0.69452916  0.89882360  1
  Zr  Zr44  1  0.69725879  0.90268752  0.70028900  1
  Zr  Zr45  1  0.11201605  0.70272913  0.09545617  1
  Zr  Zr46  1  0.30973927  0.69650123  0.10386341  1
  Zr  Zr47  1  0.89902072  0.89694323  0.29096163  1
  Zr  Zr48  1  0.70039644  0.09091854  0.90418288  1
  Zr  Zr49  1  0.50536727  0.88834732  0.09957432  1
  Sc  Sc50  1  0.50036765  0.49629526  0.30169484  1
  Sc  Sc51  1  0.49227213  0.49125081  0.90317040  1
  Sc  Sc52  1  0.29969861  0.70337202  0.70925869  1
  Sc  Sc53  1  0.69470261  0.50715627  0.49444217  1
  Sc  Sc54  1  0.29862913  0.88939990  0.30463435  1
  Sc  Sc55  1  0.30206586  0.49399534  0.10102552  1
  Sc  Sc56  1  0.10014277  0.30342128  0.30387194  1
  Sc  Sc57  1  0.09491944  0.70063515  0.49676469  1
  Sc  Sc58  1  0.10467937  0.69854555  0.89813956  1
  Sc  Sc59  1  0.70625797  0.70117250  0.69876770  1
  Sc  Sc60  1  0.09731159  0.10562103  0.30057601  1
  Sc  Sc61  1  0.08884150  0.29643540  0.70840936  1
  Sc  Sc62  1  0.49454781  0.70095805  0.29644706  1
  Sc  Sc63  1  0.29652618  0.69884143  0.90435910  1
  Sc  Sc64  1  0.31171627  0.30449573  0.48899643  1
  Sc  Sc65  1  0.89709118  0.69417683  0.69587885  1
  Sc  Sc66  1  0.30352954  0.09528622  0.50102262  1
  Sc  Sc67  1  0.69769493  0.69766966  0.90951051  1
  Sc  Sc68  1  0.30875889  0.89420556  0.09875999  1
  Sc  Sc69  1  0.50132790  0.30689418  0.49291274  1
  Sc  Sc70  1  0.49845869  0.70334528  0.49335666  1
  Sc  Sc71  1  0.69048317  0.30615852  0.70436865  1
  Sc  Sc72  1  0.11478380  0.50142886  0.30840369  1
  Sc  Sc73  1  0.30721858  0.49142808  0.71101621  1
  Sc  Sc74  1  0.50014463  0.90301631  0.51142913  1
  Sc  Sc75  1  0.10141969  0.10328703  0.89254170  1
  Sc  Sc76  1  0.70098001  0.69476243  0.29697026  1
  Sc  Sc77  1  0.49036593  0.30395006  0.10029177  1
  Sc  Sc78  1  0.89068579  0.70836354  0.10051694  1
  Sc  Sc79  1  0.29931186  0.89149760  0.90238330  1
  Sc  Sc80  1  0.30405413  0.29624104  0.90008225  1
  Sc  Sc81  1  0.30337621  0.30838569  0.29246132  1
  Sc  Sc82  1  0.49713702  0.70572070  0.71039873  1
  Sc  Sc83  1  0.30746196  0.10521471  0.30023420  1
  Sc  Sc84  1  0.70761514  0.09359215  0.69532863  1
  Sc  Sc85  1  0.69876859  0.89570202  0.10075203  1
  Sc  Sc86  1  0.50685850  0.90100012  0.90137739  1
  Sc  Sc87  1  0.90237871  0.70744949  0.30308371  1
  Sc  Sc88  1  0.91238828  0.29135738  0.50207079  1
  Sc  Sc89  1  0.90398502  0.10080155  0.69396792  1
  Sc  Sc90  1  0.90451075  0.29838215  0.30280678  1
  Sc  Sc91  1  0.69780991  0.09914840  0.09722610  1
  Sc  Sc92  1  0.49679826  0.09448163  0.09993472  1
  Sc  Sc93  1  0.09849792  0.89253249  0.29996971  1
  Sc  Sc94  1  0.90040559  0.90476501  0.69899736  1
  Sc  Sc95  1  0.50946867  0.10744252  0.29934611  1
  Sc  Sc96  1  0.89772966  0.50686927  0.09150977  1
  Sc  Sc97  1  0.49525850  0.10042160  0.90417003  1
  Sc  Sc98  1  0.69484791  0.30609880  0.10594578  1
  Sc  Sc99  1  0.89605776  0.50572565  0.29940171  1
  Nb  Nb100  1  0.91266136  0.90242298  0.10138129  1
  Nb  Nb101  1  0.29819511  0.10039547  0.89994745  1
  Nb  Nb102  1  0.69932568  0.50100049  0.70215223  1
  Nb  Nb103  1  0.90049562  0.49791560  0.50881051  1
  Nb  Nb104  1  0.29525241  0.68951732  0.30131691  1
  Nb  Nb105  1  0.09790811  0.49806476  0.09002903  1
  Nb  Nb106  1  0.49815948  0.30486317  0.70322827  1
  Nb  Nb107  1  0.89310750  0.50364029  0.89357163  1
  Nb  Nb108  1  0.70901600  0.29082642  0.50007691  1
  Nb  Nb109  1  0.70450364  0.90770671  0.89705429  1
  Nb  Nb110  1  0.50272920  0.29783184  0.89477748  1
  Nb  Nb111  1  0.29686611  0.10380829  0.70590878  1
  Nb  Nb112  1  0.89070830  0.50369858  0.69724072  1
  Nb  Nb113  1  0.50428026  0.48914885  0.69519064  1
  Nb  Nb114  1  0.67635319  0.69994792  0.09873878  1
  Nb  Nb115  1  0.89001765  0.10538648  0.50226410  1
  Nb  Nb116  1  0.70313562  0.50001958  0.89149694  1
  Nb  Nb117  1  0.09480584  0.90414975  0.09728127  1
  Nb  Nb118  1  0.30401483  0.29839222  0.70063934  1
  Nb  Nb119  1  0.51093139  0.70010012  0.09700051  1
  Nb  Nb120  1  0.70481936  0.10604855  0.49832376  1
  Nb  Nb121  1  0.50212844  0.10051817  0.49963773  1
  Nb  Nb122  1  0.29844666  0.29891926  0.09533837  1
  Nb  Nb123  1  0.30382275  0.51125959  0.29875175  1
  Nb  Nb124  1  0.10273177  0.30196765  0.50081340  1
  Nb  Nb125  1  0.20114372  0.39407383  0.60005684  1
  Nb  Nb126  1  0.19991573  0.00093499  0.00285770  1
  Nb  Nb127  1  0.60044166  0.59043454  0.79696861  1
  Nb  Nb128  1  0.20043779  0.00057106  0.19201299  1
  Nb  Nb129  1  0.79666076  0.40731680  -0.00878194  1
  Nb  Nb130  1  0.40177346  0.20365556  0.60532117  1
  Nb  Nb131  1  0.39134214  0.00477685  0.79768267  1
  Nb  Nb132  1  0.00002791  0.20206206  -0.00157479  1
  Nb  Nb133  1  0.20620285  0.20689845  0.60142400  1
  Nb  Nb134  1  0.40630146  0.00017016  0.40199872  1
  Nb  Nb135  1  0.60264879  0.80613075  0.39915995  1
  Nb  Nb136  1  0.79951259  0.40456370  0.59755884  1
  Nb  Nb137  1  0.00779217  0.59783473  0.19408341  1
  Nb  Nb138  1  0.79964130  0.19800728  0.20213218  1
  Nb  Nb139  1  0.80130018  0.39805780  0.40941736  1
  Nb  Nb140  1  0.79868032  0.19881639  0.80287926  1
  Nb  Nb141  1  0.00600280  0.41056081  0.19358097  1
  Nb  Nb142  1  0.59646884  0.20544466  -0.00424156  1
  Nb  Nb143  1  -0.00562649  -0.00099989  0.40449775  1
  Nb  Nb144  1  0.20498054  0.59182235  0.60005521  1
  Nb  Nb145  1  0.40151626  0.59400366  0.60181799  1
  Nb  Nb146  1  0.59402950  0.59582781  0.60724240  1
  Nb  Nb147  1  0.59753037  0.20187982  0.59755039  1
  Nb  Nb148  1  0.20000831  0.20413182  0.40846124  1
  Nb  Nb149  1  0.79813306  0.80704163  0.80790732  1
  Pd  Pd150  1  -0.00152549  0.60947151  0.00438703  1
  Pd  Pd151  1  0.58878228  0.39790119  0.19843432  1
  Pd  Pd152  1  0.20382247  0.80833118  0.19571539  1
  Pd  Pd153  1  0.40235163  0.19980496  0.19729031  1
  Pd  Pd154  1  0.80816579  0.39723461  0.20263712  1
  Pd  Pd155  1  0.20441130  0.19856564  0.21108544  1
  Pd  Pd156  1  0.60082029  0.40110804  -0.00066366  1
  Pd  Pd157  1  -0.00578266  0.79767247  0.60132936  1
  Pd  Pd158  1  0.59251991  0.00746700  0.80151876  1
  Pd  Pd159  1  0.60912271  0.79153128  0.80584643  1
  Pd  Pd160  1  0.00138654  0.59630859  0.39147254  1
  Pd  Pd161  1  0.79175116  0.80257732  0.00152980  1
  Pd  Pd162  1  0.39299318  0.00101241  0.20621846  1
  Pd  Pd163  1  0.39473212  0.59848386  -0.00212437  1
  Pd  Pd164  1  0.20498426  -0.00902375  0.80862785  1
  Pd  Pd165  1  0.40174761  0.19796724  0.80128185  1
  Pd  Pd166  1  0.19739907  0.58950168  0.19132913  1
  Pd  Pd167  1  -0.00344382  0.20940426  0.19596259  1
  Pd  Pd168  1  0.00951312  -0.00089983  0.21108248  1
  Pd  Pd169  1  0.20008899  0.59795220  0.79705069  1
  Pd  Pd170  1  0.40063439  0.79580716  0.20548256  1
  Pd  Pd171  1  0.80412459  0.60664185  0.19668354  1
  Pd  Pd172  1  -0.01002658  0.79812237  0.79849577  1
  Pd  Pd173  1  0.39350438  0.40000014  0.59778363  1
  Pd  Pd174  1  0.79070343  0.59970596  0.00469528  1
  Pd  Pd175  1  -0.00781429  -0.00369739  0.59114550  1
  Pd  Pd176  1  0.61019717  0.39746651  0.59021300  1
  Pd  Pd177  1  -0.00673208  0.40438451  0.39207361  1
  Pd  Pd178  1  0.59560648  0.79036578  0.59762060  1
  Pd  Pd179  1  0.80052412  0.59439339  0.39973860  1
  Pd  Pd180  1  0.19912089  0.40676207  0.20072563  1
  Pd  Pd181  1  -0.00321050  -0.00068587  0.80347812  1
  Pd  Pd182  1  0.40827178  0.59444159  0.79852320  1
  Pd  Pd183  1  -0.00074666  0.60002025  0.79629398  1
  Pd  Pd184  1  0.80300824  0.39442548  0.79488209  1
  Pd  Pd185  1  0.40131427  0.80746773  0.80750733  1
  Pd  Pd186  1  0.20198510  0.00733482  0.38896397  1
  Pd  Pd187  1  0.79322617  0.00387818  0.19474773  1
  Pd  Pd188  1  0.00782976  0.60121664  0.60370267  1
  Pd  Pd189  1  0.60543110  0.19082013  0.79785141  1
  Pd  Pd190  1  0.40226763  0.78746728  0.60148915  1
  Pd  Pd191  1  0.39563208  -0.00582365  -0.00678895  1
  Pd  Pd192  1  0.59145937  0.60025634  0.21096713  1
  Pd  Pd193  1  0.00028334  0.78919760  0.00436191  1
  Pd  Pd194  1  0.79414284  0.20984895  0.00206612  1
  Pd  Pd195  1  0.79140128  0.79610428  0.19686970  1
  Pd  Pd196  1  0.60409407  0.00354397  0.19355414  1
  Pd  Pd197  1  0.20593094  0.00681294  0.59850431  1
  Pd  Pd198  1  0.40785159  0.60019737  0.39973383  1
  Pd  Pd199  1  0.19780742  0.20850509  0.79970470  1
  Rh  Rh200  1  0.20384872  0.78871856  0.59853497  1
  Rh  Rh201  1  0.19490901  0.20105524  -0.01184943  1
  Rh  Rh202  1  0.80686216  0.00028290  0.40763755  1
  Rh  Rh203  1  0.39875271  0.40471578  0.38680836  1
  Rh  Rh204  1  0.39807985  0.40353079  0.20010662  1
  Rh  Rh205  1  0.40696829  0.20592469  -0.00294251  1
  Rh  Rh206  1  0.00766794  0.19916786  0.60018018  1
  Rh  Rh207  1  0.00333725  0.79147942  0.19168192  1
  Rh  Rh208  1  0.59948843  0.00086033  0.00318504  1
  Rh  Rh209  1  0.00980699  0.00891438  -0.00619153  1
  Rh  Rh210  1  0.20770760  0.39869786  0.00119701  1
  Rh  Rh211  1  0.00461764  0.19421616  0.40387390  1
  Rh  Rh212  1  0.20633146  0.39134627  0.39873336  1
  Rh  Rh213  1  0.60538004  0.80905607  -0.00754168  1
  Rh  Rh214  1  0.80607504  -0.00056033  0.79479753  1
  Rh  Rh215  1  0.19987660  0.80255720  0.80083450  1
  Rh  Rh216  1  0.39837422  0.19224935  0.40621773  1
  Rh  Rh217  1  0.20720920  0.59622040  0.00120560  1
  Rh  Rh218  1  0.59541446  0.20375072  0.41042625  1
  Rh  Rh219  1  -0.01052902  0.41211300  0.79707672  1
  Rh  Rh220  1  0.79695219  -0.01208055  0.01365001  1
  Rh  Rh221  1  0.40351406  0.39545755  0.80461774  1
  Rh  Rh222  1  0.79305419  0.60922963  0.79960177  1
  Rh  Rh223  1  0.80346788  -0.00030943  0.59606257  1
  Rh  Rh224  1  0.80394307  0.80336353  0.61156954  1
  Rh  Rh225  1  0.41016383  0.81121932  0.39563955  1
  Rh  Rh226  1  0.79346315  0.79776817  0.39358447  1
  Rh  Rh227  1  0.60358460  0.19894355  0.18739843  1
  Rh  Rh228  1  0.39586014  0.39197512  -0.00103403  1
  Rh  Rh229  1  0.00031005  0.80402929  0.39978891  1
  Rh  Rh230  1  0.60068461  0.58812259  -0.00997056  1
  Rh  Rh231  1  0.60341538  0.79772437  0.20979115  1
  Rh  Rh232  1  0.19639190  0.79444895  0.39912603  1
  Rh  Rh233  1  0.78993688  0.59375518  0.59712104  1
  Rh  Rh234  1  -0.00205038  0.39862631  0.60665297  1
  Rh  Rh235  1  0.79069420  0.20696596  0.61212274  1
  Rh  Rh236  1  0.39370307  0.00644781  0.60098603  1
  Rh  Rh237  1  0.60875570  0.39378402  0.40286534  1
  Rh  Rh238  1  0.60719808  0.01094721  0.59518055  1
  Rh  Rh239  1  0.80597387  0.20756593  0.39351870  1
  Rh  Rh240  1  0.40334637  0.60071275  0.20002901  1
  Rh  Rh241  1  -0.01024301  0.18810618  0.80668926  1
  Rh  Rh242  1  -0.01183046  0.40011831  0.00190625  1
  Rh  Rh243  1  0.19483903  0.60558726  0.40722715  1
  Rh  Rh244  1  0.20224019  0.39316963  0.79475550  1
  Rh  Rh245  1  0.40414516  0.79689166  -0.00022666  1
  Rh  Rh246  1  0.59798602  0.61227308  0.40263412  1
  Rh  Rh247  1  0.59204013  0.40778229  0.80576839  1
  Rh  Rh248  1  0.59346245  -0.00348125  0.41023079  1
  Rh  Rh249  1  0.20363430  0.80557551  0.00479983  1
