# generated using pymatgen
data_ZrScNbPdRh
_symmetry_space_group_name_H-M   'P 1'
_cell_length_a   16.55839135
_cell_length_b   16.55181274
_cell_length_c   16.55805886
_cell_angle_alpha   89.98097526
_cell_angle_beta   90.00962952
_cell_angle_gamma   89.99276705
_symmetry_Int_Tables_number   1
_chemical_formula_structural   ZrScNbPdRh
_chemical_formula_sum   'Zr50 Sc50 Nb50 Pd50 Rh50'
_cell_volume   4538.08990720
_cell_formula_units_Z   50
loop_
 _symmetry_equiv_pos_site_id
 _symmetry_equiv_pos_as_xyz
  1  'x, y, z'
loop_
 _atom_site_type_symbol
 _atom_site_label
 _atom_site_symmetry_multiplicity
 _atom_site_fract_x
 _atom_site_fract_y
 _atom_site_fract_z
 _atom_site_occupancy
  Zr  Zr0  1  0.70581908  0.69463850  0.69786851  1
  Zr  Zr1  1  0.90442890  0.90318128  0.10051238  1
  Zr  Zr2  1  0.09368695  0.71498294  0.69228356  1
  Zr  Zr3  1  0.69556980  0.09899012  0.69919348  1
  Zr  Zr4  1  0.69553525  0.09827591  0.29609039  1
  Zr  Zr5  1  0.88922606  0.49693446  0.49645088  1
  Zr  Zr6  1  0.30208647  0.10696801  0.09064235  1
  Zr  Zr7  1  0.10172400  0.89932802  0.51591174  1
  Zr  Zr8  1  0.88958301  0.50061922  0.69903441  1
  Zr  Zr9  1  0.10192146  0.10004227  0.29665575  1
  Zr  Zr10  1  0.88986467  0.29842833  0.91037436  1
  Zr  Zr11  1  0.69195194  0.50726470  0.50715132  1
  Zr  Zr12  1  0.90193733  0.49947716  0.90505521  1
  Zr  Zr13  1  0.69969861  0.10264325  0.89791467  1
  Zr  Zr14  1  0.30161072  0.89992237  0.29011030  1
  Zr  Zr15  1  0.90142646  0.89413601  0.29615276  1
  Zr  Zr16  1  0.09620399  0.89717634  0.29146206  1
  Zr  Zr17  1  0.09847729  0.89815674  0.09954330  1
  Zr  Zr18  1  0.89628976  0.30470835  0.69778801  1
  Zr  Zr19  1  0.29626100  0.70239267  0.50661506  1
  Zr  Zr20  1  0.10154982  0.29649203  0.09873479  1
  Zr  Zr21  1  0.09274160  0.50051495  0.08913774  1
  Zr  Zr22  1  0.50546025  0.10828949  0.29465738  1
  Zr  Zr23  1  0.90299501  0.50780630  0.30126126  1
  Zr  Zr24  1  0.29431447  0.49605800  0.30350742  1
  Zr  Zr25  1  0.09869258  0.69452068  0.91160881  1
  Zr  Zr26  1  0.50273768  0.50016231  0.09706143  1
  Zr  Zr27  1  0.30915827  0.49768987  0.50550370  1
  Zr  Zr28  1  0.30358406  0.29642476  0.29281381  1
  Zr  Zr29  1  0.29693589  0.29446811  0.90098892  1
  Zr  Zr30  1  0.50052448  0.90298702  0.29954135  1
  Zr  Zr31  1  0.49594074  0.30072893  0.10915579  1
  Zr  Zr32  1  0.89819164  0.89947794  0.90325523  1
  Zr  Zr33  1  0.10213629  0.30959711  0.90264415  1
  Zr  Zr34  1  0.29941052  0.29954967  0.70381027  1
  Zr  Zr35  1  0.50595416  0.90489636  0.50173248  1
  Zr  Zr36  1  0.09935856  0.89944597  0.89631809  1
  Zr  Zr37  1  0.29863861  0.10657996  0.70272876  1
  Zr  Zr38  1  0.70465637  0.30504947  0.49960581  1
  Zr  Zr39  1  0.09876611  0.50004439  0.29666309  1
  Zr  Zr40  1  0.70287622  0.31106251  0.09530920  1
  Zr  Zr41  1  0.90239796  0.09650876  0.08710521  1
  Zr  Zr42  1  0.09439489  0.48975536  0.70703246  1
  Zr  Zr43  1  0.30492452  0.10143280  0.89556625  1
  Zr  Zr44  1  0.10290968  0.29554138  0.70556556  1
  Zr  Zr45  1  0.30180600  0.69638281  0.09622628  1
  Zr  Zr46  1  0.90029396  0.09469253  0.69831803  1
  Zr  Zr47  1  0.30413808  0.90693087  0.49678682  1
  Zr  Zr48  1  0.10283821  0.08936458  0.69793525  1
  Zr  Zr49  1  0.50831763  0.69180026  0.10054144  1
  Sc  Sc50  1  0.50196032  0.10207824  0.70723232  1
  Sc  Sc51  1  0.29634105  0.69453640  0.29087830  1
  Sc  Sc52  1  0.69522624  0.29607158  0.29899383  1
  Sc  Sc53  1  0.90321860  0.69938796  0.30724094  1
  Sc  Sc54  1  0.50077118  0.09957620  0.89675992  1
  Sc  Sc55  1  0.70118059  0.70484810  0.50078661  1
  Sc  Sc56  1  0.31459728  0.29775150  0.49807921  1
  Sc  Sc57  1  0.50379705  0.10033476  0.09892613  1
  Sc  Sc58  1  0.29195141  0.49800311  0.91272645  1
  Sc  Sc59  1  0.50263754  0.50236503  0.29129530  1
  Sc  Sc60  1  0.50849607  0.89858570  0.09773170  1
  Sc  Sc61  1  0.29953538  0.70109885  0.90359958  1
  Sc  Sc62  1  0.89465187  0.30281356  0.49972331  1
  Sc  Sc63  1  0.50058159  0.30209473  0.69964819  1
  Sc  Sc64  1  0.69152230  0.50272358  0.10251605  1
  Sc  Sc65  1  0.70365019  0.50155478  0.30039149  1
  Sc  Sc66  1  0.30739205  0.90596062  0.89529226  1
  Sc  Sc67  1  0.50553372  0.50191804  0.68778280  1
  Sc  Sc68  1  0.69471691  0.50054622  0.70513094  1
  Sc  Sc69  1  0.09278681  0.29864851  0.49396232  1
  Sc  Sc70  1  0.50759691  0.50966353  0.90805060  1
  Sc  Sc71  1  0.69670394  0.90088153  0.69335975  1
  Sc  Sc72  1  0.69938405  0.89800228  0.50105660  1
  Sc  Sc73  1  0.90725993  0.69524686  0.10060269  1
  Sc  Sc74  1  0.70063582  0.09203801  0.49771354  1
  Sc  Sc75  1  0.70123537  0.90116478  0.30644390  1
  Sc  Sc76  1  0.10073816  0.69890863  0.10224103  1
  Sc  Sc77  1  0.69148853  0.70183387  0.89366162  1
  Sc  Sc78  1  0.09426853  0.70289333  0.49690720  1
  Sc  Sc79  1  0.69747835  0.30632046  0.70947667  1
  Sc  Sc80  1  0.50247522  0.90725333  0.70450025  1
  Sc  Sc81  1  0.30647421  0.49760470  0.10280010  1
  Sc  Sc82  1  0.49297452  0.10145752  0.49419210  1
  Sc  Sc83  1  0.89704181  0.30723368  0.30771386  1
  Sc  Sc84  1  0.30621595  0.09693369  0.29500573  1
  Sc  Sc85  1  0.50800623  0.70142796  0.70872482  1
  Sc  Sc86  1  0.10637279  0.09756609  0.90411272  1
  Sc  Sc87  1  0.10057190  0.09740085  0.09505799  1
  Sc  Sc88  1  0.50075621  0.29749741  0.89702405  1
  Sc  Sc89  1  0.69316571  0.69705806  0.30267572  1
  Sc  Sc90  1  0.30577648  0.90169972  0.70451899  1
  Sc  Sc91  1  0.89194449  0.89182149  0.50054952  1
  Sc  Sc92  1  0.69616124  0.89986540  0.90427387  1
  Sc  Sc93  1  0.70012868  0.90357957  0.08934402  1
  Sc  Sc94  1  0.89798081  0.09249410  0.29753716  1
  Sc  Sc95  1  0.89575709  0.10067332  0.49975528  1
  Sc  Sc96  1  0.90050665  0.49593076  0.10611736  1
  Sc  Sc97  1  0.50352511  0.90308350  0.89486668  1
  Sc  Sc98  1  0.30151920  0.29957388  0.09700870  1
  Sc  Sc99  1  0.09790292  0.50184927  0.48915245  1
  Nb  Nb100  1  0.49522417  0.29126000  0.30544558  1
  Nb  Nb101  1  0.30485733  0.89439622  0.10197869  1
  Nb  Nb102  1  0.09861136  0.50113700  0.90046468  1
  Nb  Nb103  1  0.90229247  0.29639239  0.09952306  1
  Nb  Nb104  1  0.89941625  0.10157087  0.90143618  1
  Nb  Nb105  1  0.89561293  0.70081726  0.89241350  1
  Nb  Nb106  1  0.69977764  0.49141624  0.90646156  1
  Nb  Nb107  1  0.09123866  0.89918713  0.70220802  1
  Nb  Nb108  1  0.89691375  0.70364017  0.70296336  1
  Nb  Nb109  1  0.30049802  0.70178933  0.70201551  1
  Nb  Nb110  1  0.50476710  0.69404253  0.49611626  1
  Nb  Nb111  1  0.91641037  0.89206422  0.70414284  1
  Nb  Nb112  1  0.29242516  0.10054125  0.50078104  1
  Nb  Nb113  1  0.50202042  0.70056560  0.30385264  1
  Nb  Nb114  1  0.30113711  0.50249265  0.69873412  1
  Nb  Nb115  1  0.50054928  0.30414896  0.49955836  1
  Nb  Nb116  1  0.69798682  0.70253215  0.09668713  1
  Nb  Nb117  1  0.10182687  0.09427067  0.50283182  1
  Nb  Nb118  1  0.89475340  0.69719897  0.50637498  1
  Nb  Nb119  1  0.50105254  0.49819417  0.50262358  1
  Nb  Nb120  1  0.49610834  0.70215907  0.90158282  1
  Nb  Nb121  1  0.10509123  0.29536360  0.29730986  1
  Nb  Nb122  1  0.69725454  0.10154372  0.09982390  1
  Nb  Nb123  1  0.09467055  0.69581773  0.30346321  1
  Nb  Nb124  1  0.69767089  0.30893529  0.90167972  1
  Nb  Nb125  1  0.60719063  0.20525349  0.00148895  1
  Nb  Nb126  1  0.80782211  -0.00037815  0.80029592  1
  Nb  Nb127  1  0.19535384  0.59706404  0.60799079  1
  Nb  Nb128  1  -0.00408522  0.20415508  0.19907757  1
  Nb  Nb129  1  0.20101586  0.80270146  0.39562724  1
  Nb  Nb130  1  0.80291953  0.19962428  0.19095184  1
  Nb  Nb131  1  0.39531551  0.59838629  0.79963982  1
  Nb  Nb132  1  0.40648323  0.60273764  0.40320984  1
  Nb  Nb133  1  0.59113896  0.39844145  0.40404407  1
  Nb  Nb134  1  -0.00377831  0.19785058  0.80182246  1
  Nb  Nb135  1  0.00299857  0.19521197  0.60381836  1
  Nb  Nb136  1  0.60036842  0.20485102  0.59499259  1
  Nb  Nb137  1  0.40494558  0.79620554  0.59701979  1
  Nb  Nb138  1  0.40309902  0.79893870  0.00269499  1
  Nb  Nb139  1  0.40219049  0.79397238  0.39991782  1
  Nb  Nb140  1  0.20072575  0.19378394  0.40211524  1
  Nb  Nb141  1  0.79611745  0.60282344  -0.00274819  1
  Nb  Nb142  1  0.20296722  0.40329775  0.60102947  1
  Nb  Nb143  1  0.39593982  0.41076402  0.79904941  1
  Nb  Nb144  1  0.19650449  0.79773312  0.79606188  1
  Nb  Nb145  1  0.79858210  0.79778209  0.19584974  1
  Nb  Nb146  1  -0.00562854  0.60184647  0.60424717  1
  Nb  Nb147  1  -0.00190697  0.60432604  0.79853680  1
  Nb  Nb148  1  0.00674161  -0.00208942  0.40430151  1
  Nb  Nb149  1  0.19692129  0.60082392  0.79608651  1
  Pd  Pd150  1  0.80181794  0.79109110  0.00396359  1
  Pd  Pd151  1  0.80558930  -0.00314252  0.40131022  1
  Pd  Pd152  1  0.59801730  0.39661657  0.21024959  1
  Pd  Pd153  1  0.40799530  0.19724068  0.60116035  1
  Pd  Pd154  1  0.40769816  0.79485296  0.19703086  1
  Pd  Pd155  1  0.21037961  0.80860835  -0.00699786  1
  Pd  Pd156  1  0.60034351  0.80342140  0.40025147  1
  Pd  Pd157  1  -0.00247736  0.00671595  0.80882209  1
  Pd  Pd158  1  0.19417484  0.59663084  0.19339894  1
  Pd  Pd159  1  0.79671027  0.60814777  0.19276351  1
  Pd  Pd160  1  0.19562351  0.79181459  0.20233004  1
  Pd  Pd161  1  0.60330353  0.80469927  0.79821654  1
  Pd  Pd162  1  0.79981243  0.19760421  0.39100913  1
  Pd  Pd163  1  0.40229359  0.00368695  0.39508970  1
  Pd  Pd164  1  0.40469892  0.00524204  0.18984393  1
  Pd  Pd165  1  -0.00425824  0.79702146  0.00047311  1
  Pd  Pd166  1  0.60292383  0.20209539  0.40801514  1
  Pd  Pd167  1  0.40522008  0.60854668  0.60394595  1
  Pd  Pd168  1  0.80127987  0.39738786  0.20308604  1
  Pd  Pd169  1  -0.01059841  0.39565490  0.80773895  1
  Pd  Pd170  1  0.19580700  -0.00177600  0.39585986  1
  Pd  Pd171  1  0.58828319  0.40785001  0.80341579  1
  Pd  Pd172  1  0.80507330  -0.01118692  0.60554747  1
  Pd  Pd173  1  0.20916609  -0.00728449  0.60970902  1
  Pd  Pd174  1  0.80050671  0.19982555  0.79740245  1
  Pd  Pd175  1  0.20344136  0.60702431  0.40571273  1
  Pd  Pd176  1  0.79298403  0.81131238  0.79467849  1
  Pd  Pd177  1  0.40090811  0.59727130  0.20571863  1
  Pd  Pd178  1  0.40666669  -0.00762558  0.00210391  1
  Pd  Pd179  1  0.59492635  0.79595596  0.60267832  1
  Pd  Pd180  1  -0.00039833  0.40001045  0.39798002  1
  Pd  Pd181  1  0.40514161  0.39825941  -0.00827261  1
  Pd  Pd182  1  0.79602037  -0.00217798  0.19441735  1
  Pd  Pd183  1  0.20362483  0.00432526  0.18830539  1
  Pd  Pd184  1  0.00024699  0.39338363  0.20392122  1
  Pd  Pd185  1  0.00323100  0.80461407  0.40660963  1
  Pd  Pd186  1  0.00434138  0.40005343  0.59050543  1
  Pd  Pd187  1  0.79136630  0.19823211  0.00409342  1
  Pd  Pd188  1  0.60954242  0.80282465  0.20068698  1
  Pd  Pd189  1  0.79414969  0.60628926  0.40120908  1
  Pd  Pd190  1  0.60302561  -0.00735578  0.19688443  1
  Pd  Pd191  1  0.20618739  -0.00749389  0.00267754  1
  Pd  Pd192  1  0.19502785  0.21009125  0.58896943  1
  Pd  Pd193  1  0.00157206  0.19334088  0.39989348  1
  Pd  Pd194  1  0.79680272  0.20228557  0.60091156  1
  Pd  Pd195  1  0.40225262  0.00133309  0.60703338  1
  Pd  Pd196  1  0.40822384  0.40650097  0.39076935  1
  Pd  Pd197  1  0.20086576  0.40138186  0.19213822  1
  Pd  Pd198  1  0.79591722  0.59516295  0.80916145  1
  Pd  Pd199  1  0.20208306  0.38663404  0.40798083  1
  Rh  Rh200  1  0.59151944  0.79709075  -0.00388591  1
  Rh  Rh201  1  0.20014982  0.40164236  0.00662021  1
  Rh  Rh202  1  0.20212363  0.59422315  0.00406571  1
  Rh  Rh203  1  0.40018358  0.40100166  0.20488268  1
  Rh  Rh204  1  0.79789602  0.79408096  0.39379998  1
  Rh  Rh205  1  0.60270249  0.39332800  0.59569274  1
  Rh  Rh206  1  0.78996094  0.40210365  0.60516796  1
  Rh  Rh207  1  0.59971084  0.60716310  0.60366297  1
  Rh  Rh208  1  0.00457080  -0.00197032  -0.00554681  1
  Rh  Rh209  1  -0.00986837  0.60149143  -0.00342324  1
  Rh  Rh210  1  0.41152685  0.20234679  0.00059457  1
  Rh  Rh211  1  0.39681204  0.79282626  0.80224186  1
  Rh  Rh212  1  0.00580982  0.20277496  -0.00328307  1
  Rh  Rh213  1  0.59625586  0.59601568  0.80308310  1
  Rh  Rh214  1  0.59916810  0.01106185  -0.00302392  1
  Rh  Rh215  1  0.80244489  0.80190972  0.60688871  1
  Rh  Rh216  1  0.00461857  0.79243152  0.81037013  1
  Rh  Rh217  1  0.21017438  0.80617883  0.60410989  1
  Rh  Rh218  1  0.20157069  -0.00722254  0.79641069  1
  Rh  Rh219  1  0.19845003  0.20066923  -0.00305582  1
  Rh  Rh220  1  -0.00979057  0.00074033  0.59006085  1
  Rh  Rh221  1  -0.00450329  0.78973832  0.19894142  1
  Rh  Rh222  1  0.39302710  0.19348660  0.39952111  1
  Rh  Rh223  1  0.61073573  0.60450285  -0.00446734  1
  Rh  Rh224  1  0.80230281  0.41108043  0.00584403  1
  Rh  Rh225  1  0.21027006  0.40784929  0.80069634  1
  Rh  Rh226  1  0.59495263  0.58916238  0.39757426  1
  Rh  Rh227  1  0.59962281  0.00206335  0.40042168  1
  Rh  Rh228  1  0.39849041  0.19603829  0.19647677  1
  Rh  Rh229  1  0.60919878  -0.00227966  0.80052205  1
  Rh  Rh230  1  -0.01236277  0.79730462  0.59187574  1
  Rh  Rh231  1  0.00076094  0.00918185  0.20199575  1
  Rh  Rh232  1  -0.00482193  0.59875206  0.40807243  1
  Rh  Rh233  1  0.40330723  0.20645402  0.80129228  1
  Rh  Rh234  1  0.60794769  0.20750298  0.19150219  1
  Rh  Rh235  1  0.39738792  0.60512485  -0.00587165  1
  Rh  Rh236  1  0.60209442  0.20512433  0.80059258  1
  Rh  Rh237  1  0.00414249  0.60187197  0.20284848  1
  Rh  Rh238  1  0.39917678  0.39491191  0.60877793  1
  Rh  Rh239  1  0.80053046  0.60019530  0.59918926  1
  Rh  Rh240  1  0.59525092  0.01187124  0.59733416  1
  Rh  Rh241  1  -0.00356151  0.39581269  0.00069321  1
  Rh  Rh242  1  0.60419356  0.60097628  0.20299159  1
  Rh  Rh243  1  0.79563311  0.00167314  -0.00635291  1
  Rh  Rh244  1  0.40101650  0.00683946  0.79713723  1
  Rh  Rh245  1  0.79068431  0.40439217  0.39650880  1
  Rh  Rh246  1  0.19225391  0.19378880  0.80695109  1
  Rh  Rh247  1  0.59279064  0.39438245  -0.00133849  1
  Rh  Rh248  1  0.79798092  0.40189957  0.80373187  1
  Rh  Rh249  1  0.19732077  0.19745171  0.20203742  1
