# generated using pymatgen
data_ZrScNbPdRh
_symmetry_space_group_name_H-M   'P 1'
_cell_length_a   16.55745729
_cell_length_b   16.55871824
_cell_length_c   16.56359283
_cell_angle_alpha   90.01217692
_cell_angle_beta   89.99916585
_cell_angle_gamma   90.00339533
_symmetry_Int_Tables_number   1
_chemical_formula_structural   ZrScNbPdRh
_chemical_formula_sum   'Zr50 Sc50 Nb50 Pd50 Rh50'
_cell_volume   4541.24460832
_cell_formula_units_Z   50
loop_
 _symmetry_equiv_pos_site_id
 _symmetry_equiv_pos_as_xyz
  1  'x, y, z'
loop_
 _atom_site_type_symbol
 _atom_site_label
 _atom_site_symmetry_multiplicity
 _atom_site_fract_x
 _atom_site_fract_y
 _atom_site_fract_z
 _atom_site_occupancy
  Zr  Zr0  1  0.09678168  0.29714862  0.11056827  1
  Zr  Zr1  1  0.09892246  0.90029608  0.29689477  1
  Zr  Zr2  1  0.29982875  0.09675789  0.49364686  1
  Zr  Zr3  1  0.70808648  0.49010643  0.09696490  1
  Zr  Zr4  1  0.09195242  0.70420866  0.30258471  1
  Zr  Zr5  1  0.30815130  0.69945224  0.90484768  1
  Zr  Zr6  1  0.49841337  0.49966003  0.50503713  1
  Zr  Zr7  1  0.10263918  0.90370081  0.09659975  1
  Zr  Zr8  1  0.09651353  0.49687666  0.50101591  1
  Zr  Zr9  1  0.89550451  0.90349189  0.69749013  1
  Zr  Zr10  1  0.69804060  0.89630059  0.29275576  1
  Zr  Zr11  1  0.30786431  0.49922623  0.70154740  1
  Zr  Zr12  1  0.70168885  0.30095576  0.70761058  1
  Zr  Zr13  1  0.09460489  0.49600619  0.09979844  1
  Zr  Zr14  1  0.68697622  0.29664040  0.29865051  1
  Zr  Zr15  1  0.89148257  0.70595838  0.30765851  1
  Zr  Zr16  1  0.50124972  0.29835399  0.69328292  1
  Zr  Zr17  1  0.89833341  0.30574665  0.09636838  1
  Zr  Zr18  1  0.30803343  0.49678812  0.50010567  1
  Zr  Zr19  1  0.70091081  0.70509605  0.89882009  1
  Zr  Zr20  1  0.50347363  0.29248983  0.89972751  1
  Zr  Zr21  1  0.30387556  0.09823636  0.68840496  1
  Zr  Zr22  1  0.49162653  0.51103380  0.89610341  1
  Zr  Zr23  1  0.91107996  0.70375429  0.49820440  1
  Zr  Zr24  1  0.69580987  0.70913919  0.10404976  1
  Zr  Zr25  1  0.68812442  0.10703819  0.89974992  1
  Zr  Zr26  1  0.89590397  0.48927946  0.71013247  1
  Zr  Zr27  1  0.30010462  0.91018537  0.30943110  1
  Zr  Zr28  1  0.69001034  0.49657596  0.29562503  1
  Zr  Zr29  1  0.29773173  0.50445215  0.89415357  1
  Zr  Zr30  1  0.30166531  0.30031935  0.69419656  1
  Zr  Zr31  1  0.71099766  0.69357083  0.49842365  1
  Zr  Zr32  1  0.50238085  0.49689853  0.31104270  1
  Zr  Zr33  1  0.11347363  0.71079627  0.10721652  1
  Zr  Zr34  1  0.50575021  0.09224128  0.09835207  1
  Zr  Zr35  1  0.90219230  0.10588990  0.09926745  1
  Zr  Zr36  1  0.30591447  0.29749383  0.49689206  1
  Zr  Zr37  1  0.50772565  0.89373381  0.11181639  1
  Zr  Zr38  1  0.91035190  0.71343075  0.70814045  1
  Zr  Zr39  1  0.91259253  0.10215588  0.89992904  1
  Zr  Zr40  1  0.69217869  0.50009019  0.50011268  1
  Zr  Zr41  1  0.09767573  0.10395269  0.69617293  1
  Zr  Zr42  1  0.10000496  0.70042239  0.69379830  1
  Zr  Zr43  1  0.49453748  0.90109618  0.50099997  1
  Zr  Zr44  1  0.89620826  0.49838591  0.30160641  1
  Zr  Zr45  1  0.30426230  0.09905827  0.09651328  1
  Zr  Zr46  1  0.29761879  0.50168985  0.10478464  1
  Zr  Zr47  1  0.30062156  0.89679764  0.90120932  1
  Zr  Zr48  1  0.89921806  0.50803617  0.91612535  1
  Zr  Zr49  1  0.09896540  0.29431862  0.89473763  1
  Sc  Sc50  1  0.09018137  0.30292742  0.69559217  1
  Sc  Sc51  1  0.50302693  0.30054991  0.49737444  1
  Sc  Sc52  1  0.50456666  0.70473176  0.30480286  1
  Sc  Sc53  1  0.89971904  0.09968941  0.30323647  1
  Sc  Sc54  1  0.31339820  0.69995484  0.50133462  1
  Sc  Sc55  1  0.69967890  0.70166600  0.30622562  1
  Sc  Sc56  1  0.49812709  0.70912230  0.89525255  1
  Sc  Sc57  1  0.30671473  0.89619261  0.69727102  1
  Sc  Sc58  1  0.30021323  0.69823517  0.29477755  1
  Sc  Sc59  1  0.89348120  0.89822324  0.30233737  1
  Sc  Sc60  1  0.69945911  0.10024321  0.29801758  1
  Sc  Sc61  1  0.69438946  0.70424197  0.70082755  1
  Sc  Sc62  1  0.50127594  0.11648163  0.29948034  1
  Sc  Sc63  1  0.10124236  0.90027310  0.49668697  1
  Sc  Sc64  1  0.89629045  0.10383376  0.70315572  1
  Sc  Sc65  1  0.50474006  0.29199574  0.10197004  1
  Sc  Sc66  1  0.10172636  0.48886025  0.29994209  1
  Sc  Sc67  1  0.10046617  0.69960339  0.88889215  1
  Sc  Sc68  1  0.09677251  0.29756459  0.49738161  1
  Sc  Sc69  1  0.89050357  0.10191437  0.48742555  1
  Sc  Sc70  1  0.89274653  0.30071772  0.89324753  1
  Sc  Sc71  1  0.90149121  0.90485575  0.88471552  1
  Sc  Sc72  1  0.51049446  0.49548268  0.10607683  1
  Sc  Sc73  1  0.29184105  0.88872090  0.10160936  1
  Sc  Sc74  1  0.50248371  0.09766080  0.70142812  1
  Sc  Sc75  1  0.89227880  0.50837509  0.50267786  1
  Sc  Sc76  1  0.89684619  0.29792725  0.70203854  1
  Sc  Sc77  1  0.30807079  0.29118756  0.89953694  1
  Sc  Sc78  1  0.10119980  0.09942653  0.08674008  1
  Sc  Sc79  1  0.69707056  0.90682095  0.11156293  1
  Sc  Sc80  1  0.09828808  0.89061281  0.69792272  1
  Sc  Sc81  1  0.70033651  0.50237025  0.69279548  1
  Sc  Sc82  1  0.30624694  0.90688175  0.50222919  1
  Sc  Sc83  1  0.69297192  0.10113892  0.69374208  1
  Sc  Sc84  1  0.50571186  0.69693898  0.50085041  1
  Sc  Sc85  1  0.10044587  0.09825853  0.30683730  1
  Sc  Sc86  1  0.69451706  0.90846744  0.69992334  1
  Sc  Sc87  1  0.69481016  0.29368767  0.50616900  1
  Sc  Sc88  1  0.90870515  0.28941676  0.30130809  1
  Sc  Sc89  1  0.09538080  0.49963393  0.89374290  1
  Sc  Sc90  1  0.89870974  0.69800996  0.09265518  1
  Sc  Sc91  1  0.89683531  0.29233112  0.49629925  1
  Sc  Sc92  1  0.50059433  0.90704839  0.89410980  1
  Sc  Sc93  1  0.10187694  0.49363543  0.70486296  1
  Sc  Sc94  1  0.29904806  0.70387797  0.71056068  1
  Sc  Sc95  1  0.69647382  0.90254773  0.88669602  1
  Sc  Sc96  1  0.29617645  0.28803662  0.10656679  1
  Sc  Sc97  1  0.70394467  0.49777688  0.90502794  1
  Sc  Sc98  1  0.30184800  0.49649735  0.30835881  1
  Sc  Sc99  1  0.69972353  0.90695105  0.50403321  1
  Nb  Nb100  1  0.70305609  0.09957893  0.10182568  1
  Nb  Nb101  1  0.09489749  0.09359581  0.49950340  1
  Nb  Nb102  1  0.30811618  0.09618701  0.89972176  1
  Nb  Nb103  1  0.50598151  0.89619621  0.69644411  1
  Nb  Nb104  1  0.10424393  0.09476714  0.89775264  1
  Nb  Nb105  1  0.50163079  0.10091373  0.50582036  1
  Nb  Nb106  1  0.89879095  0.50226596  0.09927241  1
  Nb  Nb107  1  0.48851537  0.09965324  0.90301801  1
  Nb  Nb108  1  0.30609444  0.69901129  0.09651791  1
  Nb  Nb109  1  0.09893285  0.69900268  0.50288450  1
  Nb  Nb110  1  0.50018720  0.90679870  0.30409462  1
  Nb  Nb111  1  0.10310340  0.29368174  0.30028282  1
  Nb  Nb112  1  0.89884252  0.70558058  0.89998120  1
  Nb  Nb113  1  0.50595713  0.69865870  0.70315412  1
  Nb  Nb114  1  0.30648364  0.28224172  0.30129307  1
  Nb  Nb115  1  0.89986862  0.90279883  0.49558017  1
  Nb  Nb116  1  0.10171201  0.91131588  0.90952834  1
  Nb  Nb117  1  0.89501559  0.90496964  0.10015600  1
  Nb  Nb118  1  0.69074047  0.10293241  0.49485491  1
  Nb  Nb119  1  0.49456952  0.70015252  0.09693595  1
  Nb  Nb120  1  0.49603422  0.30071348  0.29914815  1
  Nb  Nb121  1  0.50373473  0.50248512  0.69973378  1
  Nb  Nb122  1  0.70124580  0.29757273  0.09134357  1
  Nb  Nb123  1  0.69849285  0.30160539  0.90458647  1
  Nb  Nb124  1  0.30534343  0.10411032  0.30095491  1
  Nb  Nb125  1  -0.00528190  0.59859100  0.19763782  1
  Nb  Nb126  1  -0.00224729  0.80700895  -0.00426220  1
  Nb  Nb127  1  0.59724768  0.60570714  0.00354356  1
  Nb  Nb128  1  -0.00444501  0.00138208  0.59188224  1
  Nb  Nb129  1  0.19887128  0.79405112  0.40256835  1
  Nb  Nb130  1  0.20162424  0.00413510  0.80453138  1
  Nb  Nb131  1  0.80599756  0.60571709  0.80553648  1
  Nb  Nb132  1  0.40040076  0.39513890  0.20377320  1
  Nb  Nb133  1  0.20372565  0.59971421  0.00268264  1
  Nb  Nb134  1  -0.00188811  -0.00277425  0.19499760  1
  Nb  Nb135  1  0.80381943  0.80955484  -0.00258145  1
  Nb  Nb136  1  0.19961979  0.59993328  0.59558819  1
  Nb  Nb137  1  0.20297964  0.18970857  0.79919816  1
  Nb  Nb138  1  0.19591451  0.60426027  0.40820887  1
  Nb  Nb139  1  0.79435904  0.20357095  0.19182279  1
  Nb  Nb140  1  0.20264753  0.40016424  0.00093990  1
  Nb  Nb141  1  0.79324341  0.39713754  0.39730091  1
  Nb  Nb142  1  0.40447480  0.59928966  0.19526886  1
  Nb  Nb143  1  0.40034325  0.00117191  0.20746182  1
  Nb  Nb144  1  0.59876871  0.39964535  0.80086978  1
  Nb  Nb145  1  0.79954562  0.00226524  0.00055132  1
  Nb  Nb146  1  0.59429884  0.00307830  0.40073944  1
  Nb  Nb147  1  0.80209304  0.59670925  0.19597752  1
  Nb  Nb148  1  0.39632017  0.40096835  0.00539332  1
  Nb  Nb149  1  0.80644870  0.80358126  0.59819076  1
  Pd  Pd150  1  -0.00396813  0.59558205  0.79623121  1
  Pd  Pd151  1  0.39842760  -0.01322442  0.01177896  1
  Pd  Pd152  1  0.01285261  0.61442137  0.00674625  1
  Pd  Pd153  1  0.80175586  0.00398089  0.59529413  1
  Pd  Pd154  1  0.20762289  0.79639250  0.59111226  1
  Pd  Pd155  1  0.39565835  0.79555345  0.39568620  1
  Pd  Pd156  1  0.20242890  0.38958543  0.80337363  1
  Pd  Pd157  1  -0.00928285  0.39638117  0.40266438  1
  Pd  Pd158  1  0.19200047  0.18705221  0.20302734  1
  Pd  Pd159  1  0.00459259  0.59324071  0.39325145  1
  Pd  Pd160  1  0.79789034  0.19545199  0.59812847  1
  Pd  Pd161  1  0.80827607  0.61201371  0.61573293  1
  Pd  Pd162  1  0.20897539  0.39154980  0.20503924  1
  Pd  Pd163  1  0.40704722  0.39510428  0.80476559  1
  Pd  Pd164  1  -0.00440086  0.39992709  0.20652167  1
  Pd  Pd165  1  0.60785239  -0.00817247  -0.00341901  1
  Pd  Pd166  1  0.20317615  0.39526401  0.39577729  1
  Pd  Pd167  1  0.59698193  0.19701498  0.00380501  1
  Pd  Pd168  1  0.79393547  0.01232162  0.80551639  1
  Pd  Pd169  1  0.60550452  0.80700272  0.40639939  1
  Pd  Pd170  1  0.00341422  0.39278771  -0.00683255  1
  Pd  Pd171  1  -0.01003524  0.19289893  0.59305279  1
  Pd  Pd172  1  0.19305836  -0.00807894  0.60354715  1
  Pd  Pd173  1  0.60804316  0.79930080  0.59571740  1
  Pd  Pd174  1  0.00826952  -0.00389959  0.78877675  1
  Pd  Pd175  1  -0.01109743  0.40090215  0.59519314  1
  Pd  Pd176  1  0.19911711  0.59955877  0.20568257  1
  Pd  Pd177  1  0.20263923  0.20283487  -0.00667356  1
  Pd  Pd178  1  0.60936528  0.59432705  0.80599227  1
  Pd  Pd179  1  0.59090363  0.40622787  -0.00658481  1
  Pd  Pd180  1  0.40336596  0.79397910  0.60647062  1
  Pd  Pd181  1  0.60334035  0.80513479  -0.00324720  1
  Pd  Pd182  1  0.00217787  0.20716214  -0.00188581  1
  Pd  Pd183  1  0.19963563  0.00752760  0.19926759  1
  Pd  Pd184  1  0.19922644  0.40168189  0.59899060  1
  Pd  Pd185  1  0.79583549  0.19429898  0.80324870  1
  Pd  Pd186  1  0.80236542  0.39323562  0.20651598  1
  Pd  Pd187  1  0.19449663  0.19754596  0.40401824  1
  Pd  Pd188  1  0.39948792  0.60767312  0.60859491  1
  Pd  Pd189  1  0.19665233  0.80678267  0.80498532  1
  Pd  Pd190  1  0.59947760  0.60622134  0.19656370  1
  Pd  Pd191  1  0.19604728  0.20444602  0.59790036  1
  Pd  Pd192  1  0.79006785  -0.00145754  0.39545118  1
  Pd  Pd193  1  -0.01180574  0.80058314  0.19192110  1
  Pd  Pd194  1  0.39876016  0.19614854  0.79271065  1
  Pd  Pd195  1  0.00055598  0.59092988  0.60948405  1
  Pd  Pd196  1  0.39823350  0.80082431  0.20830124  1
  Pd  Pd197  1  0.80072195  0.39423974  0.59077675  1
  Pd  Pd198  1  0.40007683  -0.00486528  0.79166323  1
  Pd  Pd199  1  0.40753059  0.81055596  0.00037550  1
  Rh  Rh200  1  0.59279484  0.00870660  0.21205422  1
  Rh  Rh201  1  0.79778859  0.19696556  -0.00004633  1
  Rh  Rh202  1  0.39939211  0.60391901  0.39064116  1
  Rh  Rh203  1  0.00172185  0.19138253  0.20386420  1
  Rh  Rh204  1  0.59252949  0.38960890  0.19559578  1
  Rh  Rh205  1  0.00736969  0.19661342  0.40152283  1
  Rh  Rh206  1  0.80770194  0.01143206  0.19756869  1
  Rh  Rh207  1  0.79066791  0.58873218  0.38986860  1
  Rh  Rh208  1  0.59224298  0.00567240  0.79908487  1
  Rh  Rh209  1  0.39834391  0.39087057  0.39412532  1
  Rh  Rh210  1  0.01028261  0.80989822  0.81026830  1
  Rh  Rh211  1  0.59705077  0.20151998  0.79955433  1
  Rh  Rh212  1  0.59713808  0.60307416  0.60042590  1
  Rh  Rh213  1  0.59529622  0.00065119  0.59447256  1
  Rh  Rh214  1  -0.00471111  0.81232509  0.59095121  1
  Rh  Rh215  1  0.40603725  0.19784940  0.40667570  1
  Rh  Rh216  1  0.59881867  0.40127818  0.60759901  1
  Rh  Rh217  1  0.80377611  0.79153428  0.19360937  1
  Rh  Rh218  1  0.78922679  0.61168615  0.00313952  1
  Rh  Rh219  1  0.59609751  0.80525047  0.79521198  1
  Rh  Rh220  1  0.60538455  0.19969467  0.19353467  1
  Rh  Rh221  1  0.79199221  0.40780032  0.80764872  1
  Rh  Rh222  1  0.40327526  0.19763362  0.19440229  1
  Rh  Rh223  1  0.19369904  0.78985299  -0.01082362  1
  Rh  Rh224  1  0.20112418  0.60058576  0.79652282  1
  Rh  Rh225  1  0.59999147  0.19909391  0.60193740  1
  Rh  Rh226  1  0.59595657  0.79417933  0.20774270  1
  Rh  Rh227  1  0.79342070  0.80882928  0.41051155  1
  Rh  Rh228  1  0.40582093  0.39880404  0.59973492  1
  Rh  Rh229  1  0.00422563  0.20243922  0.79729719  1
  Rh  Rh230  1  0.41080353  0.01400556  0.39625444  1
  Rh  Rh231  1  0.21283698  0.00241199  -0.00436724  1
  Rh  Rh232  1  0.79384835  0.79650467  0.79544434  1
  Rh  Rh233  1  -0.00954383  -0.00435940  0.00332917  1
  Rh  Rh234  1  0.59517139  0.19762878  0.40358638  1
  Rh  Rh235  1  0.40371878  0.19786553  0.59408445  1
  Rh  Rh236  1  -0.00495600  0.39846141  0.80566361  1
  Rh  Rh237  1  0.21173688  0.80275625  0.21283408  1
  Rh  Rh238  1  0.00470112  0.80839539  0.40381570  1
  Rh  Rh239  1  -0.00079161  -0.00199730  0.39783665  1
  Rh  Rh240  1  0.60200582  0.39348803  0.40561695  1
  Rh  Rh241  1  0.40157815  0.60916776  0.79035518  1
  Rh  Rh242  1  0.40667054  -0.00071101  0.60296834  1
  Rh  Rh243  1  0.40890587  0.80277017  0.79487682  1
  Rh  Rh244  1  0.40348884  0.20170027  0.00426101  1
  Rh  Rh245  1  0.80464801  0.39367376  -0.00635998  1
  Rh  Rh246  1  0.40372515  0.59248394  0.01022275  1
  Rh  Rh247  1  0.19714493  -0.00133359  0.40329610  1
  Rh  Rh248  1  0.79076265  0.20678074  0.39116927  1
  Rh  Rh249  1  0.60016436  0.60303872  0.40531844  1
