# generated using pymatgen
data_ZrScNbPdRh
_symmetry_space_group_name_H-M   'P 1'
_cell_length_a   16.56402976
_cell_length_b   16.55788493
_cell_length_c   16.56118179
_cell_angle_alpha   90.01628215
_cell_angle_beta   89.97265787
_cell_angle_gamma   90.00009286
_symmetry_Int_Tables_number   1
_chemical_formula_structural   ZrScNbPdRh
_chemical_formula_sum   'Zr50 Sc50 Nb50 Pd50 Rh50'
_cell_volume   4542.15677089
_cell_formula_units_Z   50
loop_
 _symmetry_equiv_pos_site_id
 _symmetry_equiv_pos_as_xyz
  1  'x, y, z'
loop_
 _atom_site_type_symbol
 _atom_site_label
 _atom_site_symmetry_multiplicity
 _atom_site_fract_x
 _atom_site_fract_y
 _atom_site_fract_z
 _atom_site_occupancy
  Zr  Zr0  1  0.69360624  0.89776271  0.29742162  1
  Zr  Zr1  1  0.90340211  0.49739560  0.89616518  1
  Zr  Zr2  1  0.30335703  0.89254170  0.71002786  1
  Zr  Zr3  1  0.10538886  0.09278170  0.49842700  1
  Zr  Zr4  1  0.70372870  0.70376236  0.49495817  1
  Zr  Zr5  1  0.90402885  0.31100399  0.30312800  1
  Zr  Zr6  1  0.29895584  0.70252077  0.70697131  1
  Zr  Zr7  1  0.90173687  0.09858172  0.29207732  1
  Zr  Zr8  1  0.89849010  0.70094669  0.10142128  1
  Zr  Zr9  1  0.09973391  0.09525018  0.30586764  1
  Zr  Zr10  1  0.90364415  0.91399009  0.89834910  1
  Zr  Zr11  1  0.09411178  0.71010555  0.30104768  1
  Zr  Zr12  1  0.29583064  0.70059955  0.29304843  1
  Zr  Zr13  1  0.30092429  0.49852940  0.49730274  1
  Zr  Zr14  1  0.69953342  0.29737296  0.09332826  1
  Zr  Zr15  1  0.30541886  0.10290388  0.10816642  1
  Zr  Zr16  1  0.10546444  0.10026164  0.70371619  1
  Zr  Zr17  1  0.90147634  0.10602841  0.89886058  1
  Zr  Zr18  1  0.30284740  0.30281908  0.90118793  1
  Zr  Zr19  1  0.50087586  0.90210592  0.50017252  1
  Zr  Zr20  1  0.09976328  0.30597503  0.09795679  1
  Zr  Zr21  1  0.49942274  0.90878044  0.09893163  1
  Zr  Zr22  1  0.90749263  0.90515290  0.09887242  1
  Zr  Zr23  1  0.09970401  0.68639258  0.90380964  1
  Zr  Zr24  1  0.29660597  0.90388900  0.09395019  1
  Zr  Zr25  1  0.09506013  0.10555575  0.90041154  1
  Zr  Zr26  1  0.69660420  0.89587254  0.49461398  1
  Zr  Zr27  1  0.90164140  0.30162616  0.09333715  1
  Zr  Zr28  1  0.89737756  0.30420814  0.50394074  1
  Zr  Zr29  1  0.89772144  0.50262954  0.69712513  1
  Zr  Zr30  1  0.30320892  0.48707948  0.30258838  1
  Zr  Zr31  1  0.90164970  0.49858647  0.49025691  1
  Zr  Zr32  1  0.29759507  0.70298255  0.89964008  1
  Zr  Zr33  1  0.89793236  0.69636116  0.49881143  1
  Zr  Zr34  1  0.09150323  0.50648951  0.50514926  1
  Zr  Zr35  1  0.30349464  0.70380889  0.51175492  1
  Zr  Zr36  1  0.29256654  0.10478618  0.29784402  1
  Zr  Zr37  1  0.09945454  0.89664753  0.49447773  1
  Zr  Zr38  1  0.70542992  0.69434774  0.69280633  1
  Zr  Zr39  1  0.51012256  0.09238587  0.89742622  1
  Zr  Zr40  1  0.09371611  0.50531265  0.70572134  1
  Zr  Zr41  1  0.10665516  0.90029778  0.69975764  1
  Zr  Zr42  1  0.30394358  0.50653502  0.70188140  1
  Zr  Zr43  1  0.70561027  0.69425909  0.90088365  1
  Zr  Zr44  1  0.90952180  0.89591294  0.29660750  1
  Zr  Zr45  1  0.50565583  0.49902270  0.30538034  1
  Zr  Zr46  1  0.49308643  0.90470911  0.89598329  1
  Zr  Zr47  1  0.69159263  0.90124768  0.10058162  1
  Zr  Zr48  1  0.50445651  0.50391054  0.08757318  1
  Zr  Zr49  1  0.29204679  0.70071431  0.09699966  1
  Sc  Sc50  1  0.51422674  0.29734439  0.50306855  1
  Sc  Sc51  1  0.70443109  0.30019167  0.89524662  1
  Sc  Sc52  1  0.10634048  0.09369874  0.10215461  1
  Sc  Sc53  1  0.10327262  0.90826025  0.91056626  1
  Sc  Sc54  1  0.09839056  0.89968850  0.10202137  1
  Sc  Sc55  1  0.29642325  0.10042695  0.50389986  1
  Sc  Sc56  1  0.89801651  0.69360773  0.30425039  1
  Sc  Sc57  1  0.88668453  0.89375487  0.50000921  1
  Sc  Sc58  1  0.49753414  0.09835798  0.29928676  1
  Sc  Sc59  1  0.10178898  0.69287054  0.70235176  1
  Sc  Sc60  1  0.51110649  0.69832864  0.50349894  1
  Sc  Sc61  1  0.50314968  0.49125990  0.70078954  1
  Sc  Sc62  1  0.50266943  0.70665732  0.09729811  1
  Sc  Sc63  1  0.89800965  0.69352708  0.90720459  1
  Sc  Sc64  1  0.29110152  0.90133871  0.50801115  1
  Sc  Sc65  1  0.70336745  0.69817988  0.30406835  1
  Sc  Sc66  1  0.09852776  0.50049565  0.09609067  1
  Sc  Sc67  1  0.30058492  0.90936779  0.29334827  1
  Sc  Sc68  1  0.10393525  0.69663314  0.10110637  1
  Sc  Sc69  1  0.70409368  0.69639305  0.09060849  1
  Sc  Sc70  1  0.90133949  0.29743539  0.90279888  1
  Sc  Sc71  1  0.69263971  0.29662139  0.29580932  1
  Sc  Sc72  1  0.10902283  0.29347000  0.30253916  1
  Sc  Sc73  1  0.50821809  0.29994608  0.89512330  1
  Sc  Sc74  1  0.70466690  0.10179808  0.70507391  1
  Sc  Sc75  1  0.48977077  0.70293463  0.69581469  1
  Sc  Sc76  1  0.28938858  0.49684256  0.10319654  1
  Sc  Sc77  1  0.49872735  0.10562380  0.50604744  1
  Sc  Sc78  1  0.69003110  0.49977819  0.50069562  1
  Sc  Sc79  1  0.70933091  0.50163442  0.30172049  1
  Sc  Sc80  1  0.08975889  0.30157226  0.90209827  1
  Sc  Sc81  1  0.30295392  0.29021265  0.69441575  1
  Sc  Sc82  1  0.29859103  0.09024677  0.90200776  1
  Sc  Sc83  1  0.51103911  0.70721393  0.29778285  1
  Sc  Sc84  1  0.70736170  0.90700929  0.68697916  1
  Sc  Sc85  1  0.09660089  0.70312079  0.49986326  1
  Sc  Sc86  1  0.50157431  0.90173327  0.29555559  1
  Sc  Sc87  1  0.30593144  0.50712449  0.89784488  1
  Sc  Sc88  1  0.49414587  0.69268347  0.90490685  1
  Sc  Sc89  1  0.49551982  0.30187979  0.29568454  1
  Sc  Sc90  1  0.70478010  0.49408254  0.90507351  1
  Sc  Sc91  1  0.69135568  0.90773306  0.90604797  1
  Sc  Sc92  1  0.09680958  0.29155914  0.70205528  1
  Sc  Sc93  1  0.69970197  0.30525028  0.69381517  1
  Sc  Sc94  1  0.89642617  0.49651656  0.10898770  1
  Sc  Sc95  1  0.09327287  0.29053679  0.49667484  1
  Sc  Sc96  1  0.90694192  0.10933602  0.49860274  1
  Sc  Sc97  1  0.50813039  0.29763374  0.69553311  1
  Sc  Sc98  1  0.09467970  0.50113943  0.29294292  1
  Sc  Sc99  1  0.68883208  0.09951151  0.50532035  1
  Nb  Nb100  1  0.70183324  0.50033317  0.09825239  1
  Nb  Nb101  1  0.50060390  0.49987492  0.89449051  1
  Nb  Nb102  1  0.09471776  0.90404404  0.30136081  1
  Nb  Nb103  1  0.89635212  0.29202771  0.69307575  1
  Nb  Nb104  1  0.70081042  0.29257260  0.50308080  1
  Nb  Nb105  1  0.49548029  0.29248451  0.09906871  1
  Nb  Nb106  1  0.49880892  0.49504847  0.49373549  1
  Nb  Nb107  1  0.89773119  0.90482036  0.70436955  1
  Nb  Nb108  1  0.49510941  0.09902426  0.70160925  1
  Nb  Nb109  1  0.90124615  0.08920394  0.71099572  1
  Nb  Nb110  1  0.09903732  0.49656108  0.89580079  1
  Nb  Nb111  1  0.70478731  0.09971983  0.90385909  1
  Nb  Nb112  1  0.30098017  0.89520467  0.90419984  1
  Nb  Nb113  1  0.29955503  0.30424913  0.49307458  1
  Nb  Nb114  1  0.30058057  0.09828427  0.69788231  1
  Nb  Nb115  1  0.89478778  0.70053467  0.70265818  1
  Nb  Nb116  1  0.30086203  0.29834430  0.30040362  1
  Nb  Nb117  1  0.49568278  0.90084244  0.70599813  1
  Nb  Nb118  1  0.50334745  0.11287431  0.10055483  1
  Nb  Nb119  1  0.89884800  0.50267753  0.30055762  1
  Nb  Nb120  1  0.69883926  0.49965855  0.70824476  1
  Nb  Nb121  1  0.70385049  0.10237026  0.29378107  1
  Nb  Nb122  1  0.89834297  0.10640042  0.09859268  1
  Nb  Nb123  1  0.30490539  0.29552775  0.10896576  1
  Nb  Nb124  1  0.70304801  0.10747817  0.10779374  1
  Nb  Nb125  1  0.19924657  0.40273537  0.79679461  1
  Nb  Nb126  1  0.80074526  0.80383381  0.79910447  1
  Nb  Nb127  1  0.40340556  0.39440902  0.00426256  1
  Nb  Nb128  1  0.39806910  0.39682340  0.59069412  1
  Nb  Nb129  1  0.20713382  0.20564776  0.00577587  1
  Nb  Nb130  1  0.60219831  0.59269990  0.19373355  1
  Nb  Nb131  1  0.79451971  0.00733719  0.39248324  1
  Nb  Nb132  1  -0.00445546  -0.00368542  0.60713973  1
  Nb  Nb133  1  -0.00128915  0.20019331  0.19715455  1
  Nb  Nb134  1  0.39977931  0.60392256  0.39785665  1
  Nb  Nb135  1  0.80193696  0.80245883  0.19609420  1
  Nb  Nb136  1  0.20380305  0.60110915  0.39817784  1
  Nb  Nb137  1  0.40349530  0.59794211  0.20263401  1
  Nb  Nb138  1  0.40209256  0.18964016  0.79590421  1
  Nb  Nb139  1  0.39815123  0.79774889  0.40159713  1
  Nb  Nb140  1  0.39278972  0.20779081  0.40212267  1
  Nb  Nb141  1  0.39947163  0.00096992  0.61207961  1
  Nb  Nb142  1  0.79701907  0.01246906  0.00730388  1
  Nb  Nb143  1  -0.00644759  0.80083309  0.79873512  1
  Nb  Nb144  1  0.20173724  0.40027479  0.60121323  1
  Nb  Nb145  1  0.60276205  0.79777902  0.79634440  1
  Nb  Nb146  1  -0.00874265  0.80275500  0.61039823  1
  Nb  Nb147  1  0.59849026  0.40258849  0.18786922  1
  Nb  Nb148  1  0.60197293  0.59836891  0.80005383  1
  Nb  Nb149  1  0.79389861  0.19982199  0.39956471  1
  Pd  Pd150  1  0.39135927  0.59514440  0.00730910  1
  Pd  Pd151  1  0.59463484  0.59297072  0.60684934  1
  Pd  Pd152  1  0.39409261  0.00209856  0.41002559  1
  Pd  Pd153  1  0.79282725  0.39663213  0.19919148  1
  Pd  Pd154  1  0.39966907  0.19967092  -0.01111558  1
  Pd  Pd155  1  0.78851916  0.39535757  0.40177785  1
  Pd  Pd156  1  0.79913029  -0.00712029  0.19712133  1
  Pd  Pd157  1  0.59877691  0.80209791  0.60849936  1
  Pd  Pd158  1  0.60616287  0.39385797  0.39590729  1
  Pd  Pd159  1  0.19995607  0.20609033  0.59377870  1
  Pd  Pd160  1  0.20522533  0.40028099  -0.00708879  1
  Pd  Pd161  1  0.59806070  0.39587570  -0.00347033  1
  Pd  Pd162  1  0.00637559  0.79792105  -0.00675860  1
  Pd  Pd163  1  0.01103792  0.40049137  0.39659231  1
  Pd  Pd164  1  0.18674886  0.79878708  0.81121661  1
  Pd  Pd165  1  0.79808240  0.19071070  0.59829081  1
  Pd  Pd166  1  0.79312939  0.40775770  0.59816427  1
  Pd  Pd167  1  0.60119850  0.19950333  0.79583559  1
  Pd  Pd168  1  -0.00071084  0.60143981  0.20065939  1
  Pd  Pd169  1  0.59617484  0.19696198  0.39431090  1
  Pd  Pd170  1  -0.00471431  0.59168763  0.00803814  1
  Pd  Pd171  1  0.20701133  0.20581572  0.80855786  1
  Pd  Pd172  1  0.39969457  0.38983026  0.79462379  1
  Pd  Pd173  1  -0.00148274  0.39045723  0.79247283  1
  Pd  Pd174  1  0.59369687  0.00213380  0.60743439  1
  Pd  Pd175  1  0.79845068  0.58982503  0.59221423  1
  Pd  Pd176  1  0.19499741  0.80953924  0.19870870  1
  Pd  Pd177  1  0.61006779  -0.00610624  0.79003606  1
  Pd  Pd178  1  0.40211212  0.79825365  0.20319739  1
  Pd  Pd179  1  0.80092094  0.81456484  -0.00291683  1
  Pd  Pd180  1  0.40110241  0.00729920  0.00285295  1
  Pd  Pd181  1  -0.01293916  -0.00513469  0.41189443  1
  Pd  Pd182  1  0.18691903  0.40383239  0.40533827  1
  Pd  Pd183  1  0.80639327  0.21324169  0.20558017  1
  Pd  Pd184  1  0.19453657  0.39816312  0.20341811  1
  Pd  Pd185  1  0.60162657  0.00815733  0.39632249  1
  Pd  Pd186  1  0.80732282  0.01129496  0.58769299  1
  Pd  Pd187  1  0.80383549  0.39236150  0.79713705  1
  Pd  Pd188  1  0.20218342  -0.00187631  0.80684717  1
  Pd  Pd189  1  0.20777640  0.80142534  0.39763530  1
  Pd  Pd190  1  0.40734030  0.40578614  0.19022628  1
  Pd  Pd191  1  0.60378455  0.19842783  -0.00497773  1
  Pd  Pd192  1  0.40290692  0.80074933  0.00001924  1
  Pd  Pd193  1  0.00555338  0.39465059  0.60590088  1
  Pd  Pd194  1  0.19700261  0.60066567  0.59714316  1
  Pd  Pd195  1  0.59424988  0.79621676  -0.00910074  1
  Pd  Pd196  1  0.41164231  0.59167775  0.59662117  1
  Pd  Pd197  1  0.59391617  0.01016556  0.19856316  1
  Pd  Pd198  1  -0.00047644  0.19010927  0.60671739  1
  Pd  Pd199  1  0.80181778  0.20519371  0.79731667  1
  Rh  Rh200  1  0.41007231  0.39058853  0.40591261  1
  Rh  Rh201  1  0.39159697  0.00284642  0.79822832  1
  Rh  Rh202  1  0.40535856  0.00544003  0.19521470  1
  Rh  Rh203  1  0.01152778  0.19598179  0.00990143  1
  Rh  Rh204  1  -0.00728119  0.60618000  0.80114337  1
  Rh  Rh205  1  0.20342190  0.00464990  0.00154430  1
  Rh  Rh206  1  0.20643846  0.19814915  0.40579657  1
  Rh  Rh207  1  0.00696949  0.00725284  0.19503475  1
  Rh  Rh208  1  0.20050296  -0.00062413  0.60333309  1
  Rh  Rh209  1  0.40042197  0.19963149  0.59774227  1
  Rh  Rh210  1  0.19457104  0.80046728  -0.00146249  1
  Rh  Rh211  1  -0.00146110  0.79521495  0.19700976  1
  Rh  Rh212  1  0.60495293  0.60017091  -0.00605034  1
  Rh  Rh213  1  0.20210331  0.59578848  0.20563222  1
  Rh  Rh214  1  0.60389999  0.40637322  0.80166727  1
  Rh  Rh215  1  -0.00582349  0.79999451  0.40789232  1
  Rh  Rh216  1  0.59466197  0.20388712  0.20131105  1
  Rh  Rh217  1  0.40728301  0.79375964  0.80881914  1
  Rh  Rh218  1  0.79005579  -0.00439333  0.81061663  1
  Rh  Rh219  1  0.80450740  0.40020957  -0.00086410  1
  Rh  Rh220  1  0.61327582  0.78640818  0.19393615  1
  Rh  Rh221  1  -0.00694660  0.60901884  0.60397049  1
  Rh  Rh222  1  0.20234065  0.59321884  0.80528994  1
  Rh  Rh223  1  0.40431793  0.19656731  0.21215026  1
  Rh  Rh224  1  0.59954312  0.60194921  0.39556523  1
  Rh  Rh225  1  0.19317297  0.20562159  0.19326354  1
  Rh  Rh226  1  0.19473091  -0.00586228  0.20297249  1
  Rh  Rh227  1  0.60474400  0.01542924  0.01179622  1
  Rh  Rh228  1  0.80222545  0.79860493  0.60469920  1
  Rh  Rh229  1  0.80697653  0.58766495  0.00152235  1
  Rh  Rh230  1  0.20087725  0.59314777  -0.00294489  1
  Rh  Rh231  1  0.01125622  -0.00251988  0.79619743  1
  Rh  Rh232  1  -0.00472994  0.40849621  0.00030574  1
  Rh  Rh233  1  -0.00854571  0.20300531  0.38959436  1
  Rh  Rh234  1  0.59218897  0.80044118  0.40127727  1
  Rh  Rh235  1  0.60509959  0.19740787  0.60870369  1
  Rh  Rh236  1  -0.00317553  0.01068589  0.00563706  1
  Rh  Rh237  1  0.79547597  0.19832796  -0.00316919  1
  Rh  Rh238  1  0.79534160  0.60625563  0.19939620  1
  Rh  Rh239  1  0.79804711  0.59327071  0.40341629  1
  Rh  Rh240  1  0.20507894  -0.00503684  0.39627277  1
  Rh  Rh241  1  0.00238926  0.39635512  0.20202165  1
  Rh  Rh242  1  -0.00982328  0.20353423  0.79327339  1
  Rh  Rh243  1  0.00537461  0.60110799  0.39302991  1
  Rh  Rh244  1  0.40202052  0.81174184  0.59337759  1
  Rh  Rh245  1  0.80279954  0.80771378  0.38659753  1
  Rh  Rh246  1  0.60018014  0.40277147  0.59808452  1
  Rh  Rh247  1  0.19093880  0.79293619  0.60361038  1
  Rh  Rh248  1  0.41030887  0.60373274  0.79766910  1
  Rh  Rh249  1  0.79671536  0.59956264  0.80134010  1
