# generated using pymatgen
data_ZrScNbPdRh
_symmetry_space_group_name_H-M   'P 1'
_cell_length_a   16.56378850
_cell_length_b   16.56334943
_cell_length_c   16.56327027
_cell_angle_alpha   90.00369132
_cell_angle_beta   90.00730794
_cell_angle_gamma   89.99095593
_symmetry_Int_Tables_number   1
_chemical_formula_structural   ZrScNbPdRh
_chemical_formula_sum   'Zr50 Sc50 Nb50 Pd50 Rh50'
_cell_volume   4544.16318701
_cell_formula_units_Z   50
loop_
 _symmetry_equiv_pos_site_id
 _symmetry_equiv_pos_as_xyz
  1  'x, y, z'
loop_
 _atom_site_type_symbol
 _atom_site_label
 _atom_site_symmetry_multiplicity
 _atom_site_fract_x
 _atom_site_fract_y
 _atom_site_fract_z
 _atom_site_occupancy
  Zr  Zr0  1  0.08905585  0.71140435  0.89897573  1
  Zr  Zr1  1  0.11163874  0.68358231  0.51409105  1
  Zr  Zr2  1  0.50107052  0.30692573  0.90876953  1
  Zr  Zr3  1  0.70548327  0.50137675  0.69608849  1
  Zr  Zr4  1  0.70356753  0.70114147  0.70157904  1
  Zr  Zr5  1  0.90361330  0.89755969  0.29103013  1
  Zr  Zr6  1  0.49916568  0.30119400  0.69950087  1
  Zr  Zr7  1  0.30296680  0.89909540  0.90099975  1
  Zr  Zr8  1  0.30113060  0.30840791  0.89643759  1
  Zr  Zr9  1  0.30611520  0.29696522  0.30384207  1
  Zr  Zr10  1  0.49342175  0.09671487  0.50280718  1
  Zr  Zr11  1  0.50564517  0.69579216  0.70038977  1
  Zr  Zr12  1  0.90196456  0.69300177  0.70837253  1
  Zr  Zr13  1  0.10908571  0.30808430  0.69837260  1
  Zr  Zr14  1  0.69562748  0.70308539  0.29679400  1
  Zr  Zr15  1  0.50650752  0.90367938  0.10002972  1
  Zr  Zr16  1  0.69681500  0.90349453  0.90753278  1
  Zr  Zr17  1  0.29750139  0.89847225  0.09867932  1
  Zr  Zr18  1  0.50352386  0.89628022  0.50593373  1
  Zr  Zr19  1  0.70055888  0.89455225  0.50814858  1
  Zr  Zr20  1  0.50575929  0.09372949  0.89823999  1
  Zr  Zr21  1  0.09458407  0.10161118  0.90465047  1
  Zr  Zr22  1  0.69431854  0.29772240  0.10188531  1
  Zr  Zr23  1  0.89652896  0.90534412  0.70170078  1
  Zr  Zr24  1  0.29900255  0.90550411  0.70174342  1
  Zr  Zr25  1  0.90076833  0.29840801  0.49994104  1
  Zr  Zr26  1  0.09232762  0.49841378  0.10628666  1
  Zr  Zr27  1  0.50210152  0.90501434  0.70332204  1
  Zr  Zr28  1  0.90068361  0.49645646  0.51319037  1
  Zr  Zr29  1  0.10153650  0.29843022  0.90138826  1
  Zr  Zr30  1  0.89838072  0.11170571  0.10278739  1
  Zr  Zr31  1  0.09975022  0.70317522  0.10281942  1
  Zr  Zr32  1  0.10315641  0.09921969  0.29781621  1
  Zr  Zr33  1  0.50051355  0.69544228  0.30185934  1
  Zr  Zr34  1  0.10408310  0.89355901  0.70732589  1
  Zr  Zr35  1  0.70270311  0.10091376  0.29425866  1
  Zr  Zr36  1  0.10217511  0.49925305  0.29836349  1
  Zr  Zr37  1  0.30804151  0.29225427  0.09518953  1
  Zr  Zr38  1  0.89935876  0.69450196  0.90341005  1
  Zr  Zr39  1  0.49942229  0.89850483  0.89696523  1
  Zr  Zr40  1  0.90434889  0.09936696  0.30220034  1
  Zr  Zr41  1  0.70308980  0.10617444  0.49196772  1
  Zr  Zr42  1  0.30803245  0.10274687  0.69018230  1
  Zr  Zr43  1  0.10348958  0.10137005  0.50154070  1
  Zr  Zr44  1  0.09604981  0.89141457  0.09566636  1
  Zr  Zr45  1  0.49688941  0.50132242  0.89273263  1
  Zr  Zr46  1  0.29851382  0.69254598  0.29135857  1
  Zr  Zr47  1  0.30136127  0.89707333  0.50568364  1
  Zr  Zr48  1  0.29688426  0.10157023  0.29217343  1
  Zr  Zr49  1  0.50446347  0.50519484  0.70463867  1
  Sc  Sc50  1  0.69557679  0.29404846  0.30136963  1
  Sc  Sc51  1  0.10282771  0.08686824  0.69363278  1
  Sc  Sc52  1  0.08716402  0.49278325  0.89037829  1
  Sc  Sc53  1  0.31095492  0.50112497  0.89807223  1
  Sc  Sc54  1  0.69857847  0.49848938  0.89073947  1
  Sc  Sc55  1  0.49782693  0.48701581  0.10257883  1
  Sc  Sc56  1  0.49784570  0.70350663  0.89456499  1
  Sc  Sc57  1  0.68486243  0.50524436  0.29553254  1
  Sc  Sc58  1  0.09035896  0.29581051  0.09384259  1
  Sc  Sc59  1  0.90642526  0.29969388  0.90156100  1
  Sc  Sc60  1  0.50221393  0.09320184  0.70065076  1
  Sc  Sc61  1  0.29708030  0.09666917  0.91339146  1
  Sc  Sc62  1  0.90262809  0.90409867  0.50593916  1
  Sc  Sc63  1  0.49159383  0.29800103  0.48074681  1
  Sc  Sc64  1  0.70677782  0.29939926  0.49231404  1
  Sc  Sc65  1  0.31023027  0.70177987  0.90583469  1
  Sc  Sc66  1  0.69810239  0.50511576  0.10327066  1
  Sc  Sc67  1  0.68723000  0.69810215  0.50405949  1
  Sc  Sc68  1  0.29487766  0.29627870  0.49476237  1
  Sc  Sc69  1  0.90878672  0.90280901  0.90365871  1
  Sc  Sc70  1  0.69827678  0.69764974  0.10580568  1
  Sc  Sc71  1  0.70448273  0.09780461  0.70819370  1
  Sc  Sc72  1  0.69292963  0.29836898  0.90064636  1
  Sc  Sc73  1  0.49507300  0.49727725  0.30166538  1
  Sc  Sc74  1  0.70004613  0.09923695  0.09842134  1
  Sc  Sc75  1  0.48977121  0.70488423  0.10192795  1
  Sc  Sc76  1  0.30261926  0.30564711  0.69399795  1
  Sc  Sc77  1  0.29938845  0.70577664  0.10036651  1
  Sc  Sc78  1  0.10021240  0.90605208  0.50975026  1
  Sc  Sc79  1  0.50564107  0.89409105  0.29259474  1
  Sc  Sc80  1  0.49576930  0.09925894  0.29717553  1
  Sc  Sc81  1  0.30078425  0.50820264  0.10662198  1
  Sc  Sc82  1  0.89322870  0.30253546  0.69273966  1
  Sc  Sc83  1  0.69771456  0.70518896  0.89579038  1
  Sc  Sc84  1  0.90311862  0.09872250  0.51050944  1
  Sc  Sc85  1  0.11433948  0.30910144  0.30741054  1
  Sc  Sc86  1  0.10736204  0.10489667  0.09862023  1
  Sc  Sc87  1  0.09666964  0.50121486  0.69206737  1
  Sc  Sc88  1  0.30268233  0.89818424  0.28952963  1
  Sc  Sc89  1  0.89833185  0.69171683  0.51035797  1
  Sc  Sc90  1  0.29621799  0.49861413  0.29875980  1
  Sc  Sc91  1  0.89399316  0.09293976  0.90210204  1
  Sc  Sc92  1  0.29149672  0.70536418  0.68742540  1
  Sc  Sc93  1  0.89792300  0.29265906  0.29724199  1
  Sc  Sc94  1  0.09701171  0.89833300  0.28690569  1
  Sc  Sc95  1  0.30049407  0.49629873  0.70882614  1
  Sc  Sc96  1  0.70132249  0.10201127  0.90351322  1
  Sc  Sc97  1  0.10030832  0.90131950  0.90183446  1
  Sc  Sc98  1  0.70192731  0.30395923  0.70428158  1
  Sc  Sc99  1  0.30598399  0.10519342  0.49335461  1
  Nb  Nb100  1  0.49356098  0.10701449  0.09789906  1
  Nb  Nb101  1  0.90245808  0.69563049  0.30051077  1
  Nb  Nb102  1  0.50222421  0.51167758  0.49924881  1
  Nb  Nb103  1  0.30167013  0.69771461  0.49630432  1
  Nb  Nb104  1  0.89820334  0.50589977  0.10302299  1
  Nb  Nb105  1  0.69578236  0.89346773  0.70054185  1
  Nb  Nb106  1  0.09768933  0.70234844  0.29980167  1
  Nb  Nb107  1  0.89629224  0.50443793  0.89992181  1
  Nb  Nb108  1  0.10075393  0.49059203  0.49679877  1
  Nb  Nb109  1  0.49859691  0.30438470  0.28668273  1
  Nb  Nb110  1  0.89980680  0.68910421  0.10514800  1
  Nb  Nb111  1  0.09744560  0.69832238  0.70518228  1
  Nb  Nb112  1  0.69975396  0.89875922  0.29496702  1
  Nb  Nb113  1  0.90611764  0.09969722  0.70564303  1
  Nb  Nb114  1  0.09984707  0.30821684  0.49722257  1
  Nb  Nb115  1  0.89217359  0.50653449  0.70670485  1
  Nb  Nb116  1  0.89614919  0.89817074  0.09962361  1
  Nb  Nb117  1  0.70229743  0.89937377  0.11120371  1
  Nb  Nb118  1  0.89610726  0.30424544  0.10027607  1
  Nb  Nb119  1  0.90204448  0.50731432  0.29248830  1
  Nb  Nb120  1  0.69935253  0.50081922  0.49714046  1
  Nb  Nb121  1  0.30312763  0.10011868  0.10675215  1
  Nb  Nb122  1  0.49223477  0.69026505  0.50182171  1
  Nb  Nb123  1  0.29949498  0.51734221  0.49774720  1
  Nb  Nb124  1  0.50170971  0.29678472  0.10134136  1
  Nb  Nb125  1  0.19380850  0.60459329  0.80429443  1
  Nb  Nb126  1  0.80787845  0.40651367  0.00571085  1
  Nb  Nb127  1  0.79615541  -0.00855442  0.39516511  1
  Nb  Nb128  1  -0.00036020  0.59690798  0.39957784  1
  Nb  Nb129  1  0.60729615  -0.00486378  0.39746157  1
  Nb  Nb130  1  0.59367283  0.59910023  -0.00336611  1
  Nb  Nb131  1  0.59872595  0.20502615  0.59601364  1
  Nb  Nb132  1  0.20182981  -0.00480642  0.39626158  1
  Nb  Nb133  1  0.19895614  0.79682629  0.40117651  1
  Nb  Nb134  1  0.80333354  0.41293632  0.39275449  1
  Nb  Nb135  1  0.40703335  0.41062754  0.58885708  1
  Nb  Nb136  1  0.39694015  0.79135443  0.40456544  1
  Nb  Nb137  1  0.20104531  0.19888705  0.79903753  1
  Nb  Nb138  1  0.80417101  0.79748164  0.39621792  1
  Nb  Nb139  1  0.00412222  0.79307806  0.60504543  1
  Nb  Nb140  1  0.19987547  0.40591079  0.00041055  1
  Nb  Nb141  1  0.00285464  0.78983852  0.40434077  1
  Nb  Nb142  1  0.00338330  0.19661906  0.79270085  1
  Nb  Nb143  1  0.19358011  0.59712034  -0.00610216  1
  Nb  Nb144  1  0.80450553  0.40503968  0.19894963  1
  Nb  Nb145  1  0.80183327  0.59895915  0.39669386  1
  Nb  Nb146  1  0.80249483  0.80180086  0.01099353  1
  Nb  Nb147  1  0.39806833  0.19998595  0.80344575  1
  Nb  Nb148  1  0.00846284  0.20461545  0.40632392  1
  Nb  Nb149  1  0.59657000  0.40239461  0.58906595  1
  Pd  Pd150  1  0.39174498  0.59682755  0.61058140  1
  Pd  Pd151  1  0.80854315  0.20328827  0.80373185  1
  Pd  Pd152  1  0.79992136  0.20839957  -0.00538759  1
  Pd  Pd153  1  -0.00406605  0.39143102  0.20697906  1
  Pd  Pd154  1  0.19572131  0.21078685  0.19519622  1
  Pd  Pd155  1  0.79662067  -0.00532277  0.80411330  1
  Pd  Pd156  1  0.59542755  0.19911140  0.79505095  1
  Pd  Pd157  1  0.60398442  0.79100607  0.00609514  1
  Pd  Pd158  1  0.39365814  0.40901331  0.40454229  1
  Pd  Pd159  1  0.60432203  0.00546609  0.00722913  1
  Pd  Pd160  1  0.00775083  0.20257735  0.60313316  1
  Pd  Pd161  1  0.00220701  -0.00405970  0.40394153  1
  Pd  Pd162  1  0.00899867  0.20914690  0.20841101  1
  Pd  Pd163  1  0.40499749  -0.00184052  0.19902620  1
  Pd  Pd164  1  0.40502165  0.79741283  0.60200184  1
  Pd  Pd165  1  0.39359409  0.40052087  0.19723129  1
  Pd  Pd166  1  0.60975715  0.00996173  0.59850384  1
  Pd  Pd167  1  -0.01004767  0.39587713  0.79022320  1
  Pd  Pd168  1  0.21320528  0.40880918  0.59094186  1
  Pd  Pd169  1  -0.00308735  0.39990285  0.60940343  1
  Pd  Pd170  1  0.80372611  0.80714296  0.81168315  1
  Pd  Pd171  1  0.19495867  0.60039678  0.39422472  1
  Pd  Pd172  1  0.40276054  0.19683510  -0.00797152  1
  Pd  Pd173  1  0.19844308  0.20112968  0.60140936  1
  Pd  Pd174  1  0.80686577  0.79421498  0.59625685  1
  Pd  Pd175  1  0.60361187  0.40032097  0.39809771  1
  Pd  Pd176  1  -0.00272896  0.40396355  0.00086220  1
  Pd  Pd177  1  0.19738340  -0.00130724  0.00643523  1
  Pd  Pd178  1  0.80466182  0.79128238  0.19895691  1
  Pd  Pd179  1  0.20384135  0.00944238  0.80336438  1
  Pd  Pd180  1  0.59716142  0.80010229  0.40265844  1
  Pd  Pd181  1  -0.00768068  0.39939298  0.39157264  1
  Pd  Pd182  1  0.79444776  0.00739563  0.60009995  1
  Pd  Pd183  1  0.79264568  0.19733273  0.60651924  1
  Pd  Pd184  1  0.60858637  0.40983682  0.00123367  1
  Pd  Pd185  1  0.39553946  0.79406973  0.79126534  1
  Pd  Pd186  1  0.20849913  0.79158252  0.80797969  1
  Pd  Pd187  1  0.58729811  0.59936279  0.18863788  1
  Pd  Pd188  1  0.59040324  0.19489952  0.39818536  1
  Pd  Pd189  1  0.80319197  0.39475455  0.80963292  1
  Pd  Pd190  1  0.40109685  -0.01164105  0.39294804  1
  Pd  Pd191  1  0.00619677  0.59656001  -0.00249449  1
  Pd  Pd192  1  0.78746397  0.60062449  -0.00316002  1
  Pd  Pd193  1  0.80213970  0.00472449  0.19880320  1
  Pd  Pd194  1  0.00369178  0.00402285  0.18645631  1
  Pd  Pd195  1  0.40126210  -0.00078949  0.00296375  1
  Pd  Pd196  1  0.40174907  0.59712914  0.00571829  1
  Pd  Pd197  1  0.20522885  0.39197216  0.18939784  1
  Pd  Pd198  1  0.59505067  0.19383707  0.19893378  1
  Pd  Pd199  1  -0.00289688  0.00550847  0.00802701  1
  Rh  Rh200  1  0.60514854  0.59740540  0.59915829  1
  Rh  Rh201  1  -0.00664535  0.79239246  0.19632480  1
  Rh  Rh202  1  0.79655133  0.20669855  0.19869990  1
  Rh  Rh203  1  0.40076881  0.60040120  0.39286849  1
  Rh  Rh204  1  0.61070934  -0.00427063  0.79956929  1
  Rh  Rh205  1  0.59765598  0.00490412  0.19998121  1
  Rh  Rh206  1  0.40417567  0.80802141  0.00224023  1
  Rh  Rh207  1  0.39833963  -0.00288122  0.59966911  1
  Rh  Rh208  1  -0.00038971  -0.00812801  0.60781304  1
  Rh  Rh209  1  0.40527711  0.20036557  0.20142668  1
  Rh  Rh210  1  -0.01016369  0.19560831  -0.00543837  1
  Rh  Rh211  1  0.59365346  0.79396833  0.60503412  1
  Rh  Rh212  1  0.40845798  0.20971819  0.60103377  1
  Rh  Rh213  1  0.59608119  0.19598158  0.00376716  1
  Rh  Rh214  1  0.79439507  0.59714404  0.20629867  1
  Rh  Rh215  1  0.19820232  0.40531275  0.80737441  1
  Rh  Rh216  1  0.79764656  -0.00725823  0.00707604  1
  Rh  Rh217  1  0.19501506  0.60241074  0.19304425  1
  Rh  Rh218  1  0.19193981  0.80169275  0.59512166  1
  Rh  Rh219  1  0.20320743  0.79418807  -0.00487599  1
  Rh  Rh220  1  0.19509075  0.19422188  0.40139273  1
  Rh  Rh221  1  0.38701039  0.61135120  0.79282201  1
  Rh  Rh222  1  0.81519944  0.19607491  0.39974423  1
  Rh  Rh223  1  0.40123239  0.80131682  0.20432363  1
  Rh  Rh224  1  0.60604301  0.60391311  0.80692082  1
  Rh  Rh225  1  0.60127301  0.40087957  0.79346008  1
  Rh  Rh226  1  -0.00801296  0.80656794  0.79457740  1
  Rh  Rh227  1  -0.01383433  0.79552166  0.00924587  1
  Rh  Rh228  1  0.20535087  0.20564241  -0.00073171  1
  Rh  Rh229  1  0.00250043  0.59287231  0.79789842  1
  Rh  Rh230  1  0.40254013  0.59685803  0.20023112  1
  Rh  Rh231  1  0.60153719  0.60207394  0.40005617  1
  Rh  Rh232  1  0.39355504  0.00889863  0.80335161  1
  Rh  Rh233  1  0.40355693  0.19853714  0.39006072  1
  Rh  Rh234  1  0.39455317  0.40353111  0.00809333  1
  Rh  Rh235  1  0.60389550  0.39580086  0.20244781  1
  Rh  Rh236  1  0.19735615  -0.00365003  0.19739732  1
  Rh  Rh237  1  0.00236591  0.00393233  0.80021854  1
  Rh  Rh238  1  0.79335307  0.60297276  0.59710728  1
  Rh  Rh239  1  0.21015697  0.40713719  0.40753404  1
  Rh  Rh240  1  0.59970667  0.80350734  0.79731389  1
  Rh  Rh241  1  0.59711902  0.79779278  0.19347587  1
  Rh  Rh242  1  0.20994125  0.00366552  0.59065503  1
  Rh  Rh243  1  0.00087587  0.59688714  0.60241561  1
  Rh  Rh244  1  0.20129288  0.80134935  0.20327752  1
  Rh  Rh245  1  0.20477048  0.58960781  0.61204830  1
  Rh  Rh246  1  0.79187812  0.39967538  0.59230158  1
  Rh  Rh247  1  0.00589233  0.60512143  0.20365314  1
  Rh  Rh248  1  0.79549042  0.59995054  0.80576562  1
  Rh  Rh249  1  0.40443881  0.39497162  0.79251691  1
