# generated using pymatgen
data_ZrScNbPdRh
_symmetry_space_group_name_H-M   'P 1'
_cell_length_a   16.57027691
_cell_length_b   16.56529272
_cell_length_c   16.56634000
_cell_angle_alpha   89.97648061
_cell_angle_beta   89.99652855
_cell_angle_gamma   90.02238638
_symmetry_Int_Tables_number   1
_chemical_formula_structural   ZrScNbPdRh
_chemical_formula_sum   'Zr50 Sc50 Nb50 Pd50 Rh50'
_cell_volume   4547.31857283
_cell_formula_units_Z   50
loop_
 _symmetry_equiv_pos_site_id
 _symmetry_equiv_pos_as_xyz
  1  'x, y, z'
loop_
 _atom_site_type_symbol
 _atom_site_label
 _atom_site_symmetry_multiplicity
 _atom_site_fract_x
 _atom_site_fract_y
 _atom_site_fract_z
 _atom_site_occupancy
  Zr  Zr0  1  0.69590260  0.69871694  0.31058164  1
  Zr  Zr1  1  0.09155470  0.10237595  0.49227683  1
  Zr  Zr2  1  0.30824490  0.10506236  0.10273169  1
  Zr  Zr3  1  0.89688229  0.50451476  0.90207480  1
  Zr  Zr4  1  0.69925343  0.30053654  0.70153638  1
  Zr  Zr5  1  0.09923191  0.69873448  0.50189407  1
  Zr  Zr6  1  0.29452673  0.10816686  0.30765834  1
  Zr  Zr7  1  0.70131877  0.70501659  0.70220824  1
  Zr  Zr8  1  0.49727707  0.48985964  0.08897566  1
  Zr  Zr9  1  0.69843777  0.10683865  0.69939341  1
  Zr  Zr10  1  0.09774398  0.30749280  0.09302223  1
  Zr  Zr11  1  0.09491882  0.31058675  0.49858504  1
  Zr  Zr12  1  0.70447017  0.50368375  0.29648795  1
  Zr  Zr13  1  0.30235994  0.69616576  0.29978216  1
  Zr  Zr14  1  0.49958166  0.49971014  0.50140892  1
  Zr  Zr15  1  0.69933472  0.89326642  0.88840833  1
  Zr  Zr16  1  0.10200771  0.89227036  0.50104681  1
  Zr  Zr17  1  0.10394481  0.30804463  0.70697467  1
  Zr  Zr18  1  0.90605415  0.10522392  0.09277953  1
  Zr  Zr19  1  0.49534201  0.89860927  0.69945096  1
  Zr  Zr20  1  0.69941036  0.69884144  0.11721285  1
  Zr  Zr21  1  0.89689870  0.89711158  0.70211830  1
  Zr  Zr22  1  0.10672530  0.69340863  0.09579796  1
  Zr  Zr23  1  0.88823449  0.69631843  0.29800445  1
  Zr  Zr24  1  0.49308559  0.30339877  0.49538888  1
  Zr  Zr25  1  0.29199799  0.30140427  0.10135069  1
  Zr  Zr26  1  0.49382313  0.10235714  0.70221046  1
  Zr  Zr27  1  0.70414423  0.89070948  0.30215572  1
  Zr  Zr28  1  0.29651739  0.50743101  0.50012648  1
  Zr  Zr29  1  0.30099575  0.69434313  0.10121510  1
  Zr  Zr30  1  0.29912048  0.29378272  0.49133896  1
  Zr  Zr31  1  0.90355885  0.69476733  0.50067022  1
  Zr  Zr32  1  0.91258718  0.49604926  0.50541508  1
  Zr  Zr33  1  0.09758578  0.69810737  0.90055935  1
  Zr  Zr34  1  0.50182392  0.28964522  0.10204401  1
  Zr  Zr35  1  0.50340019  0.69918453  0.30564026  1
  Zr  Zr36  1  0.90402296  0.50039214  0.30061490  1
  Zr  Zr37  1  0.29698942  0.90300286  0.89150062  1
  Zr  Zr38  1  0.30726360  0.89710071  0.10583592  1
  Zr  Zr39  1  0.69968172  0.49695121  0.70163900  1
  Zr  Zr40  1  0.50537007  0.10192068  0.09621249  1
  Zr  Zr41  1  0.70732657  0.69076042  0.89249517  1
  Zr  Zr42  1  0.29097027  0.50140025  0.69877241  1
  Zr  Zr43  1  0.89627231  0.10347549  0.48160337  1
  Zr  Zr44  1  0.90451752  0.48910463  0.10338317  1
  Zr  Zr45  1  0.69805035  0.30705207  0.89603529  1
  Zr  Zr46  1  0.11613736  0.30489603  0.29879249  1
  Zr  Zr47  1  0.09883905  0.90325049  0.29955753  1
  Zr  Zr48  1  0.29051766  0.70356237  0.51037304  1
  Zr  Zr49  1  0.90365468  0.90520713  0.89706849  1
  Sc  Sc50  1  0.69924893  0.10613823  0.09958529  1
  Sc  Sc51  1  0.90603053  0.29950243  0.90378288  1
  Sc  Sc52  1  0.09495914  0.89836229  0.09170243  1
  Sc  Sc53  1  0.49494918  0.50357215  0.70991577  1
  Sc  Sc54  1  0.09798082  0.10574826  0.09899703  1
  Sc  Sc55  1  0.69949156  0.49643700  0.50401426  1
  Sc  Sc56  1  0.72505778  0.10329940  0.30485465  1
  Sc  Sc57  1  0.09419728  0.49917874  0.89560574  1
  Sc  Sc58  1  0.90957050  0.89833499  0.49693528  1
  Sc  Sc59  1  0.90283925  0.10241335  0.89349385  1
  Sc  Sc60  1  0.09706216  0.69270038  0.30459166  1
  Sc  Sc61  1  0.69656880  0.90021928  0.10570827  1
  Sc  Sc62  1  0.49602403  0.70068777  0.11451302  1
  Sc  Sc63  1  0.70286557  0.10741592  0.89689979  1
  Sc  Sc64  1  0.49602576  0.70008699  0.50054776  1
  Sc  Sc65  1  0.50295237  0.49070412  0.89577650  1
  Sc  Sc66  1  0.50372774  0.89960830  0.10846018  1
  Sc  Sc67  1  0.49848036  0.50427955  0.31511197  1
  Sc  Sc68  1  0.49222337  0.10105508  0.51152574  1
  Sc  Sc69  1  0.30788088  0.50260125  0.89988219  1
  Sc  Sc70  1  0.90693230  0.09934410  0.70364217  1
  Sc  Sc71  1  0.90518079  0.89711779  0.10482809  1
  Sc  Sc72  1  0.48866982  0.10832478  0.29245700  1
  Sc  Sc73  1  0.89718609  0.29295966  0.29503124  1
  Sc  Sc74  1  0.70466232  0.29853058  0.09972727  1
  Sc  Sc75  1  0.69523222  0.89157865  0.69484487  1
  Sc  Sc76  1  0.30021241  0.91534773  0.29917208  1
  Sc  Sc77  1  0.91131344  0.09595674  0.29370079  1
  Sc  Sc78  1  0.29416115  0.29577903  0.89696817  1
  Sc  Sc79  1  0.28728428  0.69076674  0.90223068  1
  Sc  Sc80  1  0.50302293  0.30009181  0.70144401  1
  Sc  Sc81  1  0.09520052  0.10081609  0.89541441  1
  Sc  Sc82  1  0.70945575  0.49231428  0.09897693  1
  Sc  Sc83  1  0.89876517  0.90089693  0.29782722  1
  Sc  Sc84  1  0.49902110  0.70161565  0.69577072  1
  Sc  Sc85  1  0.49375517  0.89917868  0.29914122  1
  Sc  Sc86  1  0.29723621  0.90235178  0.69533906  1
  Sc  Sc87  1  0.89820206  0.69323150  0.69575408  1
  Sc  Sc88  1  0.90693489  0.30158138  0.70065754  1
  Sc  Sc89  1  0.29487597  0.50484291  0.09832290  1
  Sc  Sc90  1  0.50413405  0.68727760  0.88355009  1
  Sc  Sc91  1  0.10462090  0.69645737  0.69564050  1
  Sc  Sc92  1  0.09834124  0.90352739  0.89892450  1
  Sc  Sc93  1  0.69279901  0.30717386  0.50649582  1
  Sc  Sc94  1  0.09558244  0.90275575  0.69811427  1
  Sc  Sc95  1  0.30661380  0.10522012  0.71027626  1
  Sc  Sc96  1  0.49568406  0.90388102  0.51330866  1
  Sc  Sc97  1  0.90088282  0.68726584  0.89949804  1
  Sc  Sc98  1  0.90295510  0.69257880  0.09891025  1
  Sc  Sc99  1  0.29513845  0.50430468  0.30120291  1
  Nb  Nb100  1  0.69856702  0.29942985  0.29737663  1
  Nb  Nb101  1  0.29948454  0.69988924  0.69971078  1
  Nb  Nb102  1  0.31150430  0.29698047  0.30333480  1
  Nb  Nb103  1  0.29958679  0.90373329  0.50327654  1
  Nb  Nb104  1  0.09091853  0.49386116  0.69029766  1
  Nb  Nb105  1  0.70160214  0.09971540  0.49750135  1
  Nb  Nb106  1  0.29479801  0.30304376  0.69361929  1
  Nb  Nb107  1  0.90451769  0.30102060  0.09629442  1
  Nb  Nb108  1  0.69690501  0.70736017  0.50202825  1
  Nb  Nb109  1  0.49838415  0.29899423  0.30388752  1
  Nb  Nb110  1  0.69828592  0.90293195  0.49928507  1
  Nb  Nb111  1  0.30803767  0.09799315  0.90144462  1
  Nb  Nb112  1  0.09655774  0.30300266  0.90123170  1
  Nb  Nb113  1  0.09892693  0.50125853  0.49809743  1
  Nb  Nb114  1  0.89937271  0.29920053  0.49321702  1
  Nb  Nb115  1  0.70017225  0.50294154  0.90018099  1
  Nb  Nb116  1  0.50211688  0.30339439  0.90864368  1
  Nb  Nb117  1  0.29841405  0.09991826  0.50357274  1
  Nb  Nb118  1  0.90953026  0.49942648  0.70444045  1
  Nb  Nb119  1  0.50138380  0.89852861  0.89917867  1
  Nb  Nb120  1  0.10554568  0.49419848  0.11482235  1
  Nb  Nb121  1  0.49237495  0.09942646  0.90112161  1
  Nb  Nb122  1  0.10379141  0.09737268  0.30065734  1
  Nb  Nb123  1  0.09893365  0.49817256  0.30473601  1
  Nb  Nb124  1  0.09906497  0.10435046  0.69276999  1
  Nb  Nb125  1  0.60526060  0.60051104  0.00043806  1
  Nb  Nb126  1  0.59389429  0.39330225  0.20515478  1
  Nb  Nb127  1  0.80315385  0.39671356  0.39988951  1
  Nb  Nb128  1  0.19802960  0.19892924  0.60019179  1
  Nb  Nb129  1  0.40592980  0.80044756  -0.00946094  1
  Nb  Nb130  1  -0.00056781  0.79654284  0.80020296  1
  Nb  Nb131  1  0.40251875  -0.00206592  -0.00573376  1
  Nb  Nb132  1  0.40183898  0.39321708  0.20681114  1
  Nb  Nb133  1  0.39094172  0.39789675  0.60059961  1
  Nb  Nb134  1  0.59926885  0.79211217  -0.00360535  1
  Nb  Nb135  1  0.21131361  0.00497248  -0.00307599  1
  Nb  Nb136  1  0.60510673  0.00613722  0.40081962  1
  Nb  Nb137  1  0.79998630  -0.00490082  -0.00259192  1
  Nb  Nb138  1  0.39004792  0.80446657  0.40729558  1
  Nb  Nb139  1  0.39387361  0.79756931  0.80186256  1
  Nb  Nb140  1  0.19810639  0.01065158  0.59644686  1
  Nb  Nb141  1  0.80344116  0.19771028  0.59259907  1
  Nb  Nb142  1  0.79742243  0.00452336  0.59253224  1
  Nb  Nb143  1  0.59268074  0.00233455  0.80313705  1
  Nb  Nb144  1  0.20046596  0.79829126  0.20003181  1
  Nb  Nb145  1  0.79497914  0.79999795  -0.00127986  1
  Nb  Nb146  1  0.80299230  0.40612216  0.80076917  1
  Nb  Nb147  1  0.60475645  0.00753631  0.21348472  1
  Nb  Nb148  1  0.60554686  0.60358915  0.60060429  1
  Nb  Nb149  1  0.60177585  0.19733931  0.39642287  1
  Pd  Pd150  1  0.20639345  0.80808955  0.00460015  1
  Pd  Pd151  1  -0.00215167  0.20577618  0.59878836  1
  Pd  Pd152  1  0.79730301  0.59224685  0.41217665  1
  Pd  Pd153  1  0.80261625  0.39550752  -0.00534789  1
  Pd  Pd154  1  0.81039130  0.39409589  0.60091455  1
  Pd  Pd155  1  0.79610310  0.59688288  0.59873286  1
  Pd  Pd156  1  0.19769717  0.19506713  0.79827050  1
  Pd  Pd157  1  0.00670737  0.58821908  0.00711602  1
  Pd  Pd158  1  0.19705104  0.19950162  0.19952622  1
  Pd  Pd159  1  0.00526689  0.79235429  0.20281323  1
  Pd  Pd160  1  0.19428319  0.19357011  -0.00685485  1
  Pd  Pd161  1  0.60768442  0.39784352  0.39449939  1
  Pd  Pd162  1  0.20123594  0.40686995  0.80749354  1
  Pd  Pd163  1  0.40589498  0.59651870  0.60507718  1
  Pd  Pd164  1  -0.00463627  0.00153948  0.59727128  1
  Pd  Pd165  1  0.39144436  0.39056216  0.00208137  1
  Pd  Pd166  1  0.20621482  0.80260578  0.38979488  1
  Pd  Pd167  1  -0.00439409  0.79576923  0.39191737  1
  Pd  Pd168  1  0.00724469  0.20827815  0.38536815  1
  Pd  Pd169  1  0.60036655  0.20111549  0.59135791  1
  Pd  Pd170  1  0.00023932  0.38951073  0.20782931  1
  Pd  Pd171  1  0.40867454  0.00123593  0.40536559  1
  Pd  Pd172  1  0.20706538  0.40555438  0.39908127  1
  Pd  Pd173  1  0.00517570  -0.00015038  0.19419808  1
  Pd  Pd174  1  0.19691350  -0.00019641  0.40666950  1
  Pd  Pd175  1  0.00148216  0.20410698  0.80229027  1
  Pd  Pd176  1  0.40676510  0.58509010  0.20351074  1
  Pd  Pd177  1  0.79144436  0.00466987  0.79592051  1
  Pd  Pd178  1  0.58568536  0.81148648  0.40938551  1
  Pd  Pd179  1  0.00876310  0.20695719  0.20298033  1
  Pd  Pd180  1  0.40345559  0.21484316  0.80504976  1
  Pd  Pd181  1  0.60462243  0.00119419  0.60306763  1
  Pd  Pd182  1  0.79839235  0.00154573  0.19032486  1
  Pd  Pd183  1  0.39732490  0.39260764  0.79531106  1
  Pd  Pd184  1  0.00280114  0.60114975  0.19961319  1
  Pd  Pd185  1  0.19311273  -0.00235118  0.18855192  1
  Pd  Pd186  1  0.19643868  0.79850169  0.79272057  1
  Pd  Pd187  1  0.59063268  0.58330078  0.19406154  1
  Pd  Pd188  1  0.41218962  0.60899142  -0.00525322  1
  Pd  Pd189  1  0.80654125  0.80270053  0.40831943  1
  Pd  Pd190  1  0.60447522  0.20297733  -0.00798641  1
  Pd  Pd191  1  0.59166491  0.19772356  0.80855620  1
  Pd  Pd192  1  0.60287154  -0.00644590  -0.00130645  1
  Pd  Pd193  1  0.19343042  0.59253114  0.79772001  1
  Pd  Pd194  1  0.19432182  0.01026843  0.79607304  1
  Pd  Pd195  1  0.19931126  0.40794959  -0.00883420  1
  Pd  Pd196  1  0.80480642  0.80669601  0.59198300  1
  Pd  Pd197  1  -0.00952285  0.79629977  -0.00689872  1
  Pd  Pd198  1  0.80230233  0.19805077  -0.00406592  1
  Pd  Pd199  1  0.80421775  0.20113125  0.19337331  1
  Rh  Rh200  1  -0.00037666  0.79431363  0.60890917  1
  Rh  Rh201  1  -0.00134890  0.00568792  0.00055297  1
  Rh  Rh202  1  0.78847381  0.21615036  0.40846113  1
  Rh  Rh203  1  0.19345381  0.19932799  0.40321808  1
  Rh  Rh204  1  0.00391049  0.40448209  -0.00150168  1
  Rh  Rh205  1  0.59849081  0.80827417  0.20337144  1
  Rh  Rh206  1  0.80369764  0.59223891  0.78940225  1
  Rh  Rh207  1  0.39501139  0.20564491  0.19861205  1
  Rh  Rh208  1  0.20080383  0.39812477  0.59483187  1
  Rh  Rh209  1  0.79066943  0.60627745  0.01144185  1
  Rh  Rh210  1  0.60650556  0.40223809  0.00538256  1
  Rh  Rh211  1  0.00145305  -0.00414076  0.39476299  1
  Rh  Rh212  1  0.39345037  0.79795467  0.60253690  1
  Rh  Rh213  1  0.81652715  0.79137494  0.80715032  1
  Rh  Rh214  1  0.00609761  -0.00379316  0.79553008  1
  Rh  Rh215  1  0.21065796  0.40389659  0.20532584  1
  Rh  Rh216  1  0.00378093  0.20309154  -0.00434250  1
  Rh  Rh217  1  0.80022353  -0.01090137  0.40382899  1
  Rh  Rh218  1  0.80571876  0.79883438  0.19489461  1
  Rh  Rh219  1  0.79854849  0.39369721  0.20518675  1
  Rh  Rh220  1  -0.00487783  0.39658342  0.39143030  1
  Rh  Rh221  1  0.59764667  0.79406082  0.59622366  1
  Rh  Rh222  1  0.60786193  0.19691680  0.21096328  1
  Rh  Rh223  1  -0.00127734  0.39414903  0.60056847  1
  Rh  Rh224  1  0.40709965  0.18927277  0.40482245  1
  Rh  Rh225  1  0.19146915  0.58752765  -0.00043240  1
  Rh  Rh226  1  -0.00477692  0.40072838  0.80548167  1
  Rh  Rh227  1  0.19368324  0.59827961  0.40101967  1
  Rh  Rh228  1  0.39433834  0.79918513  0.21038012  1
  Rh  Rh229  1  0.39125004  0.20781796  0.60190991  1
  Rh  Rh230  1  0.80708567  0.21139671  0.79233795  1
  Rh  Rh231  1  0.58798193  0.80250803  0.79913680  1
  Rh  Rh232  1  0.40541156  -0.00643641  0.80067562  1
  Rh  Rh233  1  0.38711431  0.00551081  0.60604797  1
  Rh  Rh234  1  0.39470575  0.60975137  0.40498573  1
  Rh  Rh235  1  0.39238515  0.40659849  0.40019837  1
  Rh  Rh236  1  0.19093277  0.59435000  0.60237656  1
  Rh  Rh237  1  0.00502757  0.60131302  0.60278813  1
  Rh  Rh238  1  0.58368365  0.40955097  0.60856287  1
  Rh  Rh239  1  0.60414414  0.59469081  0.79606715  1
  Rh  Rh240  1  0.38916903  0.60761346  0.79846103  1
  Rh  Rh241  1  0.60155612  0.40087810  0.80144094  1
  Rh  Rh242  1  0.39902315  0.20298907  -0.00627878  1
  Rh  Rh243  1  0.80569652  0.59522697  0.19441638  1
  Rh  Rh244  1  0.00518559  0.60385483  0.79169856  1
  Rh  Rh245  1  0.41030176  0.00544490  0.19353077  1
  Rh  Rh246  1  0.19846561  0.80962874  0.60630365  1
  Rh  Rh247  1  0.19433695  0.60170921  0.20443210  1
  Rh  Rh248  1  0.00210381  0.59875022  0.40069250  1
  Rh  Rh249  1  0.60756311  0.60171049  0.41323514  1
