# generated using pymatgen
data_ZrScNbPdRh
_symmetry_space_group_name_H-M   'P 1'
_cell_length_a   16.55495197
_cell_length_b   16.56013551
_cell_length_c   16.56023994
_cell_angle_alpha   89.98497171
_cell_angle_beta   90.01605762
_cell_angle_gamma   89.98453593
_symmetry_Int_Tables_number   1
_chemical_formula_structural   ZrScNbPdRh
_chemical_formula_sum   'Zr50 Sc50 Nb50 Pd50 Rh50'
_cell_volume   4540.02650635
_cell_formula_units_Z   50
loop_
 _symmetry_equiv_pos_site_id
 _symmetry_equiv_pos_as_xyz
  1  'x, y, z'
loop_
 _atom_site_type_symbol
 _atom_site_label
 _atom_site_symmetry_multiplicity
 _atom_site_fract_x
 _atom_site_fract_y
 _atom_site_fract_z
 _atom_site_occupancy
  Zr  Zr0  1  0.50116043  0.09877626  0.49674622  1
  Zr  Zr1  1  0.10227841  0.90449147  0.69330986  1
  Zr  Zr2  1  0.69116004  0.30187401  0.70875157  1
  Zr  Zr3  1  0.68987770  0.09398340  0.90007270  1
  Zr  Zr4  1  0.10436226  0.70495866  0.48709509  1
  Zr  Zr5  1  0.30083778  0.30429509  0.90592704  1
  Zr  Zr6  1  0.10579290  0.69677029  0.29366083  1
  Zr  Zr7  1  0.29513785  0.88363679  0.69190535  1
  Zr  Zr8  1  0.30035138  0.10185813  0.90566006  1
  Zr  Zr9  1  0.09878418  0.29659299  0.69143296  1
  Zr  Zr10  1  0.50259935  0.91241196  0.90251834  1
  Zr  Zr11  1  0.49927630  0.10771491  0.70206580  1
  Zr  Zr12  1  0.09963372  0.11549111  0.30235224  1
  Zr  Zr13  1  0.48419308  0.70110608  0.69892050  1
  Zr  Zr14  1  0.69685630  0.49909980  0.29770801  1
  Zr  Zr15  1  0.09737865  0.88252169  0.31012811  1
  Zr  Zr16  1  0.10318763  0.70849547  0.69989131  1
  Zr  Zr17  1  0.90464638  0.71066765  0.28722708  1
  Zr  Zr18  1  0.30125909  0.49475764  0.09487763  1
  Zr  Zr19  1  0.89874349  0.51025760  0.90107120  1
  Zr  Zr20  1  0.49706857  0.49933893  0.11033009  1
  Zr  Zr21  1  0.31255003  0.49788475  0.70449440  1
  Zr  Zr22  1  0.89716020  0.90812463  0.69699430  1
  Zr  Zr23  1  0.69947613  0.89725766  0.50337603  1
  Zr  Zr24  1  0.90682905  0.50182679  0.10373352  1
  Zr  Zr25  1  0.10041775  0.49292992  0.49556489  1
  Zr  Zr26  1  0.70458260  0.90352976  0.09874679  1
  Zr  Zr27  1  0.89656698  0.30075940  0.30828363  1
  Zr  Zr28  1  0.89828180  0.90488165  0.29867266  1
  Zr  Zr29  1  0.49769513  0.89739469  0.69841669  1
  Zr  Zr30  1  0.31780107  0.50108291  0.30025878  1
  Zr  Zr31  1  0.30782248  0.89812847  0.30072710  1
  Zr  Zr32  1  0.69634747  0.30543334  0.08954000  1
  Zr  Zr33  1  0.70560983  0.70642937  0.69056923  1
  Zr  Zr34  1  0.09276621  0.09841085  0.70608768  1
  Zr  Zr35  1  0.68971914  0.50063794  0.10513168  1
  Zr  Zr36  1  0.50617946  0.28820306  0.50225335  1
  Zr  Zr37  1  0.10084826  0.49843707  0.10815454  1
  Zr  Zr38  1  0.49670726  0.90586666  0.30452516  1
  Zr  Zr39  1  0.70048009  0.50341221  0.70321398  1
  Zr  Zr40  1  0.50041276  0.50144779  0.48299050  1
  Zr  Zr41  1  0.09280605  0.69823150  0.89753441  1
  Zr  Zr42  1  0.89337191  0.89667556  0.10556879  1
  Zr  Zr43  1  0.10062719  0.29511932  0.90121785  1
  Zr  Zr44  1  0.88781749  0.30319358  0.90027145  1
  Zr  Zr45  1  0.30079062  0.90624630  0.90152629  1
  Zr  Zr46  1  0.69733879  0.50478497  0.49638422  1
  Zr  Zr47  1  0.29927622  0.49891378  0.49769112  1
  Zr  Zr48  1  0.30293207  0.30393621  0.10420130  1
  Zr  Zr49  1  0.10037341  0.90940224  0.89414946  1
  Sc  Sc50  1  0.89676996  0.10872280  0.30301758  1
  Sc  Sc51  1  0.50412175  0.49164901  0.70810843  1
  Sc  Sc52  1  0.70473233  0.10382252  0.30561810  1
  Sc  Sc53  1  0.50718553  0.29897163  0.89793184  1
  Sc  Sc54  1  0.29261675  0.29441631  0.30280367  1
  Sc  Sc55  1  0.89972175  0.50608539  0.69645620  1
  Sc  Sc56  1  0.89497034  0.09577083  0.10715684  1
  Sc  Sc57  1  0.09631886  0.30243794  0.49752967  1
  Sc  Sc58  1  0.30573861  0.10356298  0.30281024  1
  Sc  Sc59  1  0.09436219  0.10348904  0.50589855  1
  Sc  Sc60  1  0.89399701  0.10061654  0.69610605  1
  Sc  Sc61  1  0.70008232  0.89504284  0.30434230  1
  Sc  Sc62  1  0.69709806  0.29330779  0.49372570  1
  Sc  Sc63  1  0.88927390  0.29460706  0.10076319  1
  Sc  Sc64  1  0.09469139  0.49241304  0.68522946  1
  Sc  Sc65  1  0.10322361  0.69002556  0.10389995  1
  Sc  Sc66  1  0.09499829  0.50179809  0.91899450  1
  Sc  Sc67  1  0.28683943  0.29836699  0.50060212  1
  Sc  Sc68  1  0.89637358  0.10331192  0.49888423  1
  Sc  Sc69  1  0.49687240  0.90313814  0.10534763  1
  Sc  Sc70  1  0.30053880  0.09813770  0.10041798  1
  Sc  Sc71  1  0.49825764  0.30921312  0.30677889  1
  Sc  Sc72  1  0.90269820  0.69421210  0.70439073  1
  Sc  Sc73  1  0.70408604  0.10084647  0.69937596  1
  Sc  Sc74  1  0.30134365  0.70447615  0.30302930  1
  Sc  Sc75  1  0.10427649  0.90475264  0.09193635  1
  Sc  Sc76  1  0.69349663  0.10092106  0.49885295  1
  Sc  Sc77  1  0.30401858  0.90068539  0.10788682  1
  Sc  Sc78  1  0.50225173  0.70193547  0.30192800  1
  Sc  Sc79  1  0.50582274  0.89583253  0.49357880  1
  Sc  Sc80  1  0.10734330  0.30158293  0.10829383  1
  Sc  Sc81  1  0.49244533  0.49983874  0.90052774  1
  Sc  Sc82  1  0.71277380  0.68925016  0.91192048  1
  Sc  Sc83  1  0.31178408  0.70405868  0.49877553  1
  Sc  Sc84  1  0.49629124  0.10019319  0.31259064  1
  Sc  Sc85  1  0.89916830  0.90529165  0.49560014  1
  Sc  Sc86  1  0.29522827  0.10671401  0.69874846  1
  Sc  Sc87  1  0.70234667  0.90382899  0.69074528  1
  Sc  Sc88  1  0.30828175  0.69136979  0.89225202  1
  Sc  Sc89  1  0.70043931  0.71006216  0.49576172  1
  Sc  Sc90  1  0.30061767  0.10810272  0.49443863  1
  Sc  Sc91  1  0.49770612  0.09379833  0.08622649  1
  Sc  Sc92  1  0.70189858  0.49012186  0.90173086  1
  Sc  Sc93  1  0.90672542  0.49364212  0.50172099  1
  Sc  Sc94  1  0.89716249  0.09545920  0.88545812  1
  Sc  Sc95  1  0.30089238  0.69259104  0.11174554  1
  Sc  Sc96  1  0.29867685  0.29751462  0.69917284  1
  Sc  Sc97  1  0.10444142  0.10136857  0.09909671  1
  Sc  Sc98  1  0.70541804  0.10438644  0.09901333  1
  Sc  Sc99  1  0.89693806  0.90572244  0.90260493  1
  Nb  Nb100  1  0.49395153  0.09138486  0.89755189  1
  Nb  Nb101  1  0.70292438  0.29649321  0.29236942  1
  Nb  Nb102  1  0.29732003  0.49448708  0.89732487  1
  Nb  Nb103  1  0.50431424  0.70097689  0.90184489  1
  Nb  Nb104  1  0.09706314  0.29941898  0.30261421  1
  Nb  Nb105  1  0.89347097  0.29626550  0.70252057  1
  Nb  Nb106  1  0.69906616  0.70169509  0.10812303  1
  Nb  Nb107  1  0.89860180  0.30194403  0.50327609  1
  Nb  Nb108  1  0.29824392  0.90132752  0.50001802  1
  Nb  Nb109  1  0.50055427  0.30355869  0.69777894  1
  Nb  Nb110  1  0.88942136  0.70566830  0.09250816  1
  Nb  Nb111  1  0.50486072  0.30556265  0.10368900  1
  Nb  Nb112  1  0.90038846  0.69907366  0.50079444  1
  Nb  Nb113  1  0.50666312  0.70071321  0.49927769  1
  Nb  Nb114  1  0.90151384  0.69843042  0.90345187  1
  Nb  Nb115  1  0.70222334  0.30064790  0.90369054  1
  Nb  Nb116  1  0.50433475  0.50414519  0.29937269  1
  Nb  Nb117  1  0.10275577  0.89953237  0.50203300  1
  Nb  Nb118  1  0.69954923  0.69589951  0.29500500  1
  Nb  Nb119  1  0.10006707  0.09605760  0.90379793  1
  Nb  Nb120  1  0.90388134  0.49975441  0.29954734  1
  Nb  Nb121  1  0.50848673  0.69456858  0.09486982  1
  Nb  Nb122  1  0.30002084  0.69515522  0.69583271  1
  Nb  Nb123  1  0.08428420  0.49655810  0.29655463  1
  Nb  Nb124  1  0.69961705  0.89719998  0.90150311  1
  Nb  Nb125  1  0.40548257  0.79351731  0.00043830  1
  Nb  Nb126  1  0.60383995  0.79653158  0.80705658  1
  Nb  Nb127  1  0.19586064  -0.00498969  0.40037027  1
  Nb  Nb128  1  -0.00165088  0.79593862  -0.00266690  1
  Nb  Nb129  1  0.60051648  0.60978000  0.79922089  1
  Nb  Nb130  1  0.00221877  0.80239824  0.59461788  1
  Nb  Nb131  1  0.59481177  0.60320884  0.60037375  1
  Nb  Nb132  1  0.40790759  0.39441944  0.59756612  1
  Nb  Nb133  1  0.19529543  0.40459616  0.80366891  1
  Nb  Nb134  1  0.79665123  0.79952894  0.80638913  1
  Nb  Nb135  1  0.59552607  0.20229436  0.19827507  1
  Nb  Nb136  1  0.79880780  0.39291974  0.60138570  1
  Nb  Nb137  1  0.19433179  -0.00203104  0.21319222  1
  Nb  Nb138  1  0.80786310  0.60205557  0.39290470  1
  Nb  Nb139  1  0.60137958  0.79561898  0.00063038  1
  Nb  Nb140  1  -0.00113789  0.39495817  0.80008494  1
  Nb  Nb141  1  0.20105371  0.59239468  0.79513490  1
  Nb  Nb142  1  -0.00439875  0.59962588  0.39260828  1
  Nb  Nb143  1  0.41057639  0.20515690  0.19523655  1
  Nb  Nb144  1  0.00077759  0.19471518  -0.00577192  1
  Nb  Nb145  1  0.00658086  -0.00128797  0.20740483  1
  Nb  Nb146  1  0.20557402  0.60294106  0.60275053  1
  Nb  Nb147  1  0.20293398  0.79678810  -0.00335690  1
  Nb  Nb148  1  0.60035879  0.00680962  0.20216612  1
  Nb  Nb149  1  0.39731038  -0.00245715  0.59783951  1
  Pd  Pd150  1  -0.00518098  0.20167254  0.80381291  1
  Pd  Pd151  1  0.40518857  0.59005089  0.59392035  1
  Pd  Pd152  1  0.80268629  0.79588539  0.39732323  1
  Pd  Pd153  1  0.79692879  0.59124006  0.01044004  1
  Pd  Pd154  1  0.40045919  0.80160327  0.80921419  1
  Pd  Pd155  1  0.79223918  0.20436451  0.59782913  1
  Pd  Pd156  1  -0.00344220  0.19906340  0.19146802  1
  Pd  Pd157  1  0.59943919  0.80694088  0.19835233  1
  Pd  Pd158  1  0.19899588  0.59428091  0.39665757  1
  Pd  Pd159  1  -0.00530525  0.38486008  0.19831359  1
  Pd  Pd160  1  0.40918722  0.39813900  -0.00174952  1
  Pd  Pd161  1  0.39608590  0.20071346  0.59765601  1
  Pd  Pd162  1  0.80334604  0.59929351  0.20056786  1
  Pd  Pd163  1  0.20334397  0.40603090  0.21122321  1
  Pd  Pd164  1  0.20593908  0.01048790  0.59287786  1
  Pd  Pd165  1  0.19749103  0.40221366  0.38792996  1
  Pd  Pd166  1  0.59451543  0.00338847  0.60172769  1
  Pd  Pd167  1  0.60523166  -0.00421812  0.79064395  1
  Pd  Pd168  1  -0.00489038  0.19956258  0.59697305  1
  Pd  Pd169  1  0.79512988  0.00384721  0.40201133  1
  Pd  Pd170  1  0.00553831  0.00624685  0.39801812  1
  Pd  Pd171  1  0.20748345  0.60521172  -0.00588871  1
  Pd  Pd172  1  0.38841133  0.00165576  0.78697665  1
  Pd  Pd173  1  0.80532077  0.40558691  0.79412898  1
  Pd  Pd174  1  0.79775862  0.59593930  0.59053465  1
  Pd  Pd175  1  0.60561970  0.39307757  0.39567598  1
  Pd  Pd176  1  -0.00624834  0.00296939  0.00654187  1
  Pd  Pd177  1  0.40820970  0.79166325  0.19396610  1
  Pd  Pd178  1  0.39548405  0.38793851  0.40758188  1
  Pd  Pd179  1  0.59394220  0.19696671  0.00051695  1
  Pd  Pd180  1  0.01097362  0.58610807  0.79617337  1
  Pd  Pd181  1  0.20666432  0.79245877  0.80925889  1
  Pd  Pd182  1  0.80597489  0.18757540  -0.00753700  1
  Pd  Pd183  1  -0.00360168  0.38874856  0.00092413  1
  Pd  Pd184  1  0.20686296  0.58852002  0.20960345  1
  Pd  Pd185  1  0.01131627  0.80325995  0.18324598  1
  Pd  Pd186  1  0.60365610  0.59564701  -0.00641787  1
  Pd  Pd187  1  -0.01160472  0.80915270  0.79954780  1
  Pd  Pd188  1  0.20093247  0.20265228  0.80008911  1
  Pd  Pd189  1  0.60044831  0.40479328  0.59531024  1
  Pd  Pd190  1  0.00924162  0.60814143  0.59082824  1
  Pd  Pd191  1  0.80311177  0.00576276  -0.00379307  1
  Pd  Pd192  1  0.80035254  0.39988114  0.19569884  1
  Pd  Pd193  1  0.40884829  0.20372590  0.00245314  1
  Pd  Pd194  1  0.40110614  0.20500717  0.80418245  1
  Pd  Pd195  1  0.39582355  0.60243505  0.00104666  1
  Pd  Pd196  1  0.20748170  0.00369436  0.79426961  1
  Pd  Pd197  1  0.59943629  0.19865387  0.80433583  1
  Pd  Pd198  1  0.19689307  0.20076495  0.00701542  1
  Pd  Pd199  1  0.79929975  0.40417020  0.40631683  1
  Rh  Rh200  1  -0.00454878  0.60950217  0.01247723  1
  Rh  Rh201  1  0.60380918  0.19642175  0.60628405  1
  Rh  Rh202  1  0.59544851  0.40589131  -0.00486957  1
  Rh  Rh203  1  0.39227917  -0.00084872  0.41149946  1
  Rh  Rh204  1  0.79017829  0.80063457  0.20323011  1
  Rh  Rh205  1  0.60149971  0.79700586  0.39574293  1
  Rh  Rh206  1  0.60654929  0.60984025  0.39963703  1
  Rh  Rh207  1  0.59545987  0.60395851  0.20604431  1
  Rh  Rh208  1  0.79977378  0.20148274  0.40385187  1
  Rh  Rh209  1  0.39922726  0.20711859  0.39500174  1
  Rh  Rh210  1  0.39488427  -0.00547979  0.00420914  1
  Rh  Rh211  1  0.19733059  0.80640218  0.19132332  1
  Rh  Rh212  1  0.79963123  0.40818732  0.00593300  1
  Rh  Rh213  1  0.19399995  0.19652595  0.40502898  1
  Rh  Rh214  1  0.79782994  0.00312844  0.59141198  1
  Rh  Rh215  1  -0.00588559  0.60652315  0.19785342  1
  Rh  Rh216  1  0.19707519  0.40078509  0.00035185  1
  Rh  Rh217  1  0.59876437  0.40244128  0.80895145  1
  Rh  Rh218  1  0.59964221  0.39341791  0.20705584  1
  Rh  Rh219  1  -0.00105273  0.00018104  0.79727234  1
  Rh  Rh220  1  0.21404166  0.40781617  0.60882245  1
  Rh  Rh221  1  0.40732844  0.60468354  0.20365811  1
  Rh  Rh222  1  0.40174611  0.39472181  0.20539565  1
  Rh  Rh223  1  0.79899869  0.80070519  -0.00502189  1
  Rh  Rh224  1  0.39718491  0.38911796  0.79813697  1
  Rh  Rh225  1  0.79502547  0.60631678  0.80027345  1
  Rh  Rh226  1  -0.00289795  0.20777448  0.40588653  1
  Rh  Rh227  1  0.20651964  -0.00324188  0.00678280  1
  Rh  Rh228  1  0.78919700  0.19746885  0.80428999  1
  Rh  Rh229  1  0.40393612  0.60790890  0.39611389  1
  Rh  Rh230  1  0.40351179  0.59827328  0.80379950  1
  Rh  Rh231  1  0.21057518  0.19458625  0.19941835  1
  Rh  Rh232  1  0.81610085  0.80087065  0.60488286  1
  Rh  Rh233  1  0.19342875  0.19660517  0.59843345  1
  Rh  Rh234  1  0.21253047  0.80414481  0.40284918  1
  Rh  Rh235  1  0.59143012  0.79420137  0.60519684  1
  Rh  Rh236  1  0.40479923  0.79884127  0.40399635  1
  Rh  Rh237  1  -0.01462694  0.39120944  0.60801728  1
  Rh  Rh238  1  0.60275300  0.20363648  0.38729861  1
  Rh  Rh239  1  -0.00256858  -0.00262996  0.59753180  1
  Rh  Rh240  1  0.60655538  -0.00330701  0.39391344  1
  Rh  Rh241  1  0.79292663  0.20206297  0.20010881  1
  Rh  Rh242  1  0.60226628  -0.00260982  0.00741940  1
  Rh  Rh243  1  0.19747772  0.79030748  0.58959098  1
  Rh  Rh244  1  0.40425104  0.80795698  0.58896329  1
  Rh  Rh245  1  0.40267627  0.01444110  0.20083186  1
  Rh  Rh246  1  0.79244834  -0.00540727  0.79829447  1
  Rh  Rh247  1  0.79735506  0.00210629  0.20867813  1
  Rh  Rh248  1  -0.00139237  0.39782133  0.39718961  1
  Rh  Rh249  1  -0.01117938  0.79556904  0.40853226  1
