# generated using pymatgen
data_ZrScNbPdRh
_symmetry_space_group_name_H-M   'P 1'
_cell_length_a   16.54936577
_cell_length_b   16.55199239
_cell_length_c   16.55001490
_cell_angle_alpha   90.00914382
_cell_angle_beta   89.97398994
_cell_angle_gamma   90.02307947
_symmetry_Int_Tables_number   1
_chemical_formula_structural   ZrScNbPdRh
_chemical_formula_sum   'Zr50 Sc50 Nb50 Pd50 Rh50'
_cell_volume   4533.46154542
_cell_formula_units_Z   50
loop_
 _symmetry_equiv_pos_site_id
 _symmetry_equiv_pos_as_xyz
  1  'x, y, z'
loop_
 _atom_site_type_symbol
 _atom_site_label
 _atom_site_symmetry_multiplicity
 _atom_site_fract_x
 _atom_site_fract_y
 _atom_site_fract_z
 _atom_site_occupancy
  Zr  Zr0  1  0.69979867  0.09728193  0.10647668  1
  Zr  Zr1  1  0.29839577  0.10129272  0.09975120  1
  Zr  Zr2  1  0.09913148  0.50103881  0.89697410  1
  Zr  Zr3  1  0.49403015  0.49751106  0.09375265  1
  Zr  Zr4  1  0.90892702  0.30158016  0.30060108  1
  Zr  Zr5  1  0.50047453  0.89560362  0.29764221  1
  Zr  Zr6  1  0.29809036  0.29729303  0.10566805  1
  Zr  Zr7  1  0.09728790  0.09404015  0.70333484  1
  Zr  Zr8  1  0.71299188  0.30300918  0.89673745  1
  Zr  Zr9  1  0.10464713  0.50297341  0.09889397  1
  Zr  Zr10  1  0.89985615  0.30214998  0.09218247  1
  Zr  Zr11  1  0.08939492  0.10405561  0.29666958  1
  Zr  Zr12  1  0.29691559  0.30426036  0.49483842  1
  Zr  Zr13  1  0.50209639  0.49677201  0.49617078  1
  Zr  Zr14  1  0.49831562  0.09996816  0.51215944  1
  Zr  Zr15  1  0.11053623  0.30132187  0.30362665  1
  Zr  Zr16  1  0.30516205  0.29880257  0.70277702  1
  Zr  Zr17  1  0.50197050  0.09514061  0.29860270  1
  Zr  Zr18  1  0.69949050  0.10120127  0.50206099  1
  Zr  Zr19  1  0.10065272  0.30514428  0.51192559  1
  Zr  Zr20  1  0.09932083  0.89315995  0.30576820  1
  Zr  Zr21  1  0.30849241  0.49565336  0.30114156  1
  Zr  Zr22  1  0.29855324  0.50024341  0.09975474  1
  Zr  Zr23  1  0.29870970  0.09235853  0.50735619  1
  Zr  Zr24  1  0.90023787  0.89525244  0.49477758  1
  Zr  Zr25  1  0.50340722  0.30130770  0.09907604  1
  Zr  Zr26  1  0.70612402  0.29810224  0.70099188  1
  Zr  Zr27  1  0.29977212  0.88561586  0.89570285  1
  Zr  Zr28  1  0.10326232  0.50350089  0.29371594  1
  Zr  Zr29  1  0.89396561  0.10093342  0.90030424  1
  Zr  Zr30  1  0.90020140  0.09716932  0.50233810  1
  Zr  Zr31  1  0.49766726  0.10120165  0.11210647  1
  Zr  Zr32  1  0.10179410  0.50134568  0.50571158  1
  Zr  Zr33  1  0.10355388  0.70064115  0.30214402  1
  Zr  Zr34  1  0.10165373  0.89837220  0.89447712  1
  Zr  Zr35  1  0.90822469  0.50665457  0.09471234  1
  Zr  Zr36  1  0.29496190  0.08833828  0.90787862  1
  Zr  Zr37  1  0.10890716  0.10041908  0.09081403  1
  Zr  Zr38  1  0.90126661  0.90729319  0.29874614  1
  Zr  Zr39  1  0.70107959  0.70383270  0.30154660  1
  Zr  Zr40  1  0.30128046  0.10225559  0.29612398  1
  Zr  Zr41  1  0.70027838  0.50549755  0.50879352  1
  Zr  Zr42  1  0.10314562  0.89370141  0.09934693  1
  Zr  Zr43  1  0.90633070  0.70937380  0.31210663  1
  Zr  Zr44  1  0.69496113  0.90351423  0.50203213  1
  Zr  Zr45  1  0.69135833  0.50140978  0.70436669  1
  Zr  Zr46  1  0.69870987  0.90271202  0.29740546  1
  Zr  Zr47  1  0.90065822  0.50490045  0.89426655  1
  Zr  Zr48  1  0.29908201  0.89719694  0.31510969  1
  Zr  Zr49  1  0.89774544  0.69223061  0.50302764  1
  Sc  Sc50  1  0.49929424  0.30093060  0.29992476  1
  Sc  Sc51  1  0.69408794  0.30217984  0.30581567  1
  Sc  Sc52  1  0.30868196  0.50695123  0.69969925  1
  Sc  Sc53  1  0.29960386  0.69927726  0.09432192  1
  Sc  Sc54  1  0.48502744  0.08522954  0.88925183  1
  Sc  Sc55  1  0.89867031  0.69718862  0.89377301  1
  Sc  Sc56  1  0.69053666  0.09272862  0.29743091  1
  Sc  Sc57  1  0.89196948  0.90721134  0.09420168  1
  Sc  Sc58  1  0.31138763  0.10002455  0.70654960  1
  Sc  Sc59  1  0.90119213  0.51547581  0.70241000  1
  Sc  Sc60  1  0.70436201  0.09318523  0.69851360  1
  Sc  Sc61  1  0.48506921  0.90018097  0.90039563  1
  Sc  Sc62  1  0.70322185  0.49638411  0.31422693  1
  Sc  Sc63  1  0.30415617  0.70949180  0.50328207  1
  Sc  Sc64  1  0.69469449  0.50478733  0.07891315  1
  Sc  Sc65  1  0.70082948  0.89860168  0.09682507  1
  Sc  Sc66  1  0.90291955  0.29439912  0.51223179  1
  Sc  Sc67  1  0.90494017  0.50696795  0.30678814  1
  Sc  Sc68  1  0.49419981  0.69420508  0.69524435  1
  Sc  Sc69  1  0.09515705  0.09435974  0.50669103  1
  Sc  Sc70  1  0.69402795  0.70840284  0.08881911  1
  Sc  Sc71  1  0.30466031  0.70356053  0.70009336  1
  Sc  Sc72  1  0.49678022  0.50251510  0.89674726  1
  Sc  Sc73  1  0.70973626  0.90098795  0.90022722  1
  Sc  Sc74  1  0.09455856  0.49412799  0.70086863  1
  Sc  Sc75  1  0.29096084  0.89336698  0.69583992  1
  Sc  Sc76  1  0.10721462  0.29808362  0.10000301  1
  Sc  Sc77  1  0.30019654  0.89838102  0.08605365  1
  Sc  Sc78  1  0.89922416  0.09788095  0.69446797  1
  Sc  Sc79  1  0.90564824  0.09699585  0.09911086  1
  Sc  Sc80  1  0.10424445  0.69412143  0.10598014  1
  Sc  Sc81  1  0.09928410  0.70135557  0.90036572  1
  Sc  Sc82  1  0.90616886  0.29554600  0.70304918  1
  Sc  Sc83  1  0.69500278  0.30571212  0.49922510  1
  Sc  Sc84  1  0.49995641  0.89223624  0.09876737  1
  Sc  Sc85  1  0.09502362  0.89577664  0.70219136  1
  Sc  Sc86  1  0.49260683  0.31462388  0.90131190  1
  Sc  Sc87  1  0.89648652  0.89789515  0.89456312  1
  Sc  Sc88  1  0.09653972  0.70378055  0.70185874  1
  Sc  Sc89  1  0.30268441  0.49990423  0.49650817  1
  Sc  Sc90  1  0.69764736  0.30338113  0.09202169  1
  Sc  Sc91  1  0.09813795  0.09968966  0.89799693  1
  Sc  Sc92  1  0.31204982  0.69821457  0.30051571  1
  Sc  Sc93  1  0.50775600  0.29741521  0.50090519  1
  Sc  Sc94  1  0.09620777  0.70365838  0.50181655  1
  Sc  Sc95  1  0.29417786  0.30586365  0.89665127  1
  Sc  Sc96  1  0.49998342  0.29406312  0.70013670  1
  Sc  Sc97  1  0.69540078  0.68654145  0.69667957  1
  Sc  Sc98  1  0.69697600  0.69618021  0.90048163  1
  Sc  Sc99  1  0.49428459  0.90258623  0.50726937  1
  Nb  Nb100  1  0.29817776  0.29912793  0.30444092  1
  Nb  Nb101  1  0.89924792  0.70760859  0.70233051  1
  Nb  Nb102  1  0.69931934  0.49982512  0.89015391  1
  Nb  Nb103  1  0.69460144  0.89535009  0.69933765  1
  Nb  Nb104  1  0.90304244  0.29950627  0.89834727  1
  Nb  Nb105  1  0.50377040  0.70297751  0.10456046  1
  Nb  Nb106  1  0.50156045  0.49606726  0.69671073  1
  Nb  Nb107  1  0.89745494  0.69998322  0.09591141  1
  Nb  Nb108  1  0.69825979  0.70110738  0.50070437  1
  Nb  Nb109  1  0.90287507  0.49845985  0.50440895  1
  Nb  Nb110  1  0.10182374  0.29887825  0.70546576  1
  Nb  Nb111  1  0.11923208  0.89875791  0.50491279  1
  Nb  Nb112  1  0.50776496  0.90989724  0.70285451  1
  Nb  Nb113  1  0.30762958  0.70087976  0.89223861  1
  Nb  Nb114  1  0.09494462  0.30387176  0.88393492  1
  Nb  Nb115  1  0.49475038  0.50894623  0.30017277  1
  Nb  Nb116  1  0.49814633  0.70085124  0.29711140  1
  Nb  Nb117  1  0.49903430  0.70044092  0.49469124  1
  Nb  Nb118  1  0.89600921  0.88814534  0.70522118  1
  Nb  Nb119  1  0.48655692  0.71012789  0.89659072  1
  Nb  Nb120  1  0.70125522  0.10136396  0.90015652  1
  Nb  Nb121  1  0.30432780  0.50425799  0.90195310  1
  Nb  Nb122  1  0.28681518  0.89915278  0.50091407  1
  Nb  Nb123  1  0.90015396  0.10232046  0.29942533  1
  Nb  Nb124  1  0.49927483  0.09486195  0.70217018  1
  Nb  Nb125  1  0.60182129  0.41329244  0.20031343  1
  Nb  Nb126  1  0.40138188  0.19809364  0.00168721  1
  Nb  Nb127  1  0.79677118  0.60229615  0.19679787  1
  Nb  Nb128  1  0.79921473  0.40552354  0.19728558  1
  Nb  Nb129  1  0.59640248  0.80430663  0.79452071  1
  Nb  Nb130  1  0.19893662  0.20204540  0.60830928  1
  Nb  Nb131  1  0.40592931  0.40005345  0.60078360  1
  Nb  Nb132  1  0.20152971  0.60071309  0.39904820  1
  Nb  Nb133  1  0.39605260  0.19758977  0.39959189  1
  Nb  Nb134  1  -0.00405066  0.79667313  0.00378655  1
  Nb  Nb135  1  0.80457635  0.19593118  0.39546173  1
  Nb  Nb136  1  0.59742436  0.59994806  0.20188327  1
  Nb  Nb137  1  0.59551527  0.79540916  0.40300938  1
  Nb  Nb138  1  0.80381890  0.20365349  0.20546525  1
  Nb  Nb139  1  0.19822269  -0.00249562  0.20233058  1
  Nb  Nb140  1  0.00375925  0.40177934  0.40788501  1
  Nb  Nb141  1  0.80256904  0.40783820  0.60100134  1
  Nb  Nb142  1  0.79680747  0.79782225  0.60475682  1
  Nb  Nb143  1  0.59925683  0.00776744  -0.00430680  1
  Nb  Nb144  1  0.00248390  0.39567528  -0.01133552  1
  Nb  Nb145  1  0.59957501  0.19209016  0.80708816  1
  Nb  Nb146  1  0.59497048  0.19329183  -0.01047130  1
  Nb  Nb147  1  0.59457044  0.60644295  0.39836377  1
  Nb  Nb148  1  0.20763075  0.59984033  0.80594095  1
  Nb  Nb149  1  0.80458739  0.79438172  0.19982733  1
  Pd  Pd150  1  0.59945310  0.79322703  0.60259348  1
  Pd  Pd151  1  0.39285134  -0.01040000  0.60810739  1
  Pd  Pd152  1  0.81150290  0.39132513  0.40696493  1
  Pd  Pd153  1  0.58815656  0.60895400  0.80633016  1
  Pd  Pd154  1  0.60359587  -0.00265370  0.80806724  1
  Pd  Pd155  1  0.39105068  -0.01474417  0.19621889  1
  Pd  Pd156  1  0.80204253  0.00116057  0.79413048  1
  Pd  Pd157  1  0.00263973  0.60302997  0.60644743  1
  Pd  Pd158  1  0.60429689  0.19711847  0.61115626  1
  Pd  Pd159  1  0.19989072  0.19010120  0.40959707  1
  Pd  Pd160  1  0.00767476  -0.00474970  0.40649387  1
  Pd  Pd161  1  -0.00821058  0.79932937  0.19144876  1
  Pd  Pd162  1  -0.00014976  0.20239844  0.18919865  1
  Pd  Pd163  1  0.20328775  0.19421575  0.79997470  1
  Pd  Pd164  1  0.40520183  0.60701866  0.00123318  1
  Pd  Pd165  1  0.81078104  0.40492831  0.78924457  1
  Pd  Pd166  1  0.59925398  0.19589105  0.39755426  1
  Pd  Pd167  1  -0.00091189  -0.00830560  -0.00627056  1
  Pd  Pd168  1  0.40422226  0.00193174  0.40525109  1
  Pd  Pd169  1  0.20781592  0.41255299  0.79375229  1
  Pd  Pd170  1  0.79762672  0.59939501  0.39926426  1
  Pd  Pd171  1  -0.00228957  -0.01323548  0.60378787  1
  Pd  Pd172  1  0.58917168  0.60408127  -0.00619235  1
  Pd  Pd173  1  0.39087665  0.80234417  0.19487031  1
  Pd  Pd174  1  -0.00135303  0.20548443  0.40950479  1
  Pd  Pd175  1  0.19675815  0.39480354  -0.00395241  1
  Pd  Pd176  1  0.59619159  0.39184613  0.80125683  1
  Pd  Pd177  1  0.59508398  0.81004578  -0.01513623  1
  Pd  Pd178  1  0.79780143  0.60360436  -0.00358109  1
  Pd  Pd179  1  -0.00125111  0.80447535  0.59640817  1
  Pd  Pd180  1  0.80274349  -0.01033189  0.60537583  1
  Pd  Pd181  1  0.00435738  -0.00119181  0.19343787  1
  Pd  Pd182  1  0.21031751  0.40147120  0.61139320  1
  Pd  Pd183  1  0.79690275  0.00700122  0.39584532  1
  Pd  Pd184  1  0.19080652  0.00887130  0.39474312  1
  Pd  Pd185  1  0.79631845  0.19490470  0.00726184  1
  Pd  Pd186  1  0.40414371  0.39591009  0.20204046  1
  Pd  Pd187  1  -0.00013761  0.40031362  0.19710629  1
  Pd  Pd188  1  0.40138216  0.59609039  0.59363635  1
  Pd  Pd189  1  0.80404118  0.40858011  -0.00107412  1
  Pd  Pd190  1  0.20128313  0.60729539  -0.00679297  1
  Pd  Pd191  1  -0.00635968  0.19270444  0.79782803  1
  Pd  Pd192  1  0.20472056  -0.00386182  0.79594711  1
  Pd  Pd193  1  0.40618308  0.20301540  0.81218623  1
  Pd  Pd194  1  0.78684835  0.78990352  0.79649220  1
  Pd  Pd195  1  0.00889838  0.20593468  -0.00449177  1
  Pd  Pd196  1  -0.00666101  0.60832911  0.20223227  1
  Pd  Pd197  1  0.21133841  0.80247108  0.20094433  1
  Pd  Pd198  1  0.20253524  0.60638780  0.60270399  1
  Pd  Pd199  1  0.40235768  0.80820063  0.60294164  1
  Rh  Rh200  1  -0.00074570  0.79871899  0.80897080  1
  Rh  Rh201  1  -0.00896054  0.40053791  0.60519528  1
  Rh  Rh202  1  0.39964331  0.40621444  0.79320052  1
  Rh  Rh203  1  0.39894695  0.20846029  0.20501726  1
  Rh  Rh204  1  0.80675045  0.79771483  0.00228164  1
  Rh  Rh205  1  0.40016897  0.59674835  0.80069561  1
  Rh  Rh206  1  0.21313977  0.60206867  0.20787285  1
  Rh  Rh207  1  0.00793060  0.60674897  0.79637648  1
  Rh  Rh208  1  0.00779670  0.80627604  0.41065255  1
  Rh  Rh209  1  0.19460727  0.41252593  0.39507038  1
  Rh  Rh210  1  0.00998240  0.19861000  0.60872739  1
  Rh  Rh211  1  0.60112164  0.39777263  0.60725716  1
  Rh  Rh212  1  0.39701439  0.60549281  0.40556303  1
  Rh  Rh213  1  0.39069134  -0.01242217  0.79065171  1
  Rh  Rh214  1  0.19716871  0.79271339  0.60238393  1
  Rh  Rh215  1  0.61167463  0.21469764  0.19614721  1
  Rh  Rh216  1  0.40761489  0.80432698  0.78671627  1
  Rh  Rh217  1  0.40393271  0.80456186  0.40621763  1
  Rh  Rh218  1  0.60642575  0.79705769  0.20252749  1
  Rh  Rh219  1  0.79341973  0.20727697  0.59279575  1
  Rh  Rh220  1  0.19650664  0.19499141  0.20419884  1
  Rh  Rh221  1  0.79597077  0.00422870  -0.00096187  1
  Rh  Rh222  1  0.38780979  0.39518561  -0.00016766  1
  Rh  Rh223  1  0.59097647  -0.00552939  0.40672370  1
  Rh  Rh224  1  0.79647384  0.60339021  0.79987742  1
  Rh  Rh225  1  0.60595112  0.39774193  -0.00778187  1
  Rh  Rh226  1  0.00362261  0.60314129  -0.00214109  1
  Rh  Rh227  1  0.19809637  0.78938558  0.79869103  1
  Rh  Rh228  1  0.80142508  0.19530881  0.79776303  1
  Rh  Rh229  1  0.01018476  0.59232445  0.40299666  1
  Rh  Rh230  1  0.80184144  0.00148343  0.20233891  1
  Rh  Rh231  1  0.40277908  0.60410155  0.18907260  1
  Rh  Rh232  1  0.59100673  0.60233950  0.59376542  1
  Rh  Rh233  1  0.20184165  0.20741893  -0.01362783  1
  Rh  Rh234  1  0.40888209  0.00576735  0.00955922  1
  Rh  Rh235  1  0.40187843  0.79275626  0.00684873  1
  Rh  Rh236  1  0.59811297  -0.01268080  0.18936208  1
  Rh  Rh237  1  0.60118662  0.00539681  0.60217433  1
  Rh  Rh238  1  -0.00959433  -0.00160761  0.79827895  1
  Rh  Rh239  1  0.20473149  0.40015170  0.20139629  1
  Rh  Rh240  1  0.20242840  0.78801071  0.40369820  1
  Rh  Rh241  1  0.59182157  0.40840792  0.39073052  1
  Rh  Rh242  1  0.39263378  0.20876072  0.59063827  1
  Rh  Rh243  1  0.19474165  0.79420726  -0.00552447  1
  Rh  Rh244  1  0.79185535  0.80461471  0.40416214  1
  Rh  Rh245  1  0.80252244  0.60153990  0.60364166  1
  Rh  Rh246  1  0.20142711  0.00486846  0.60993779  1
  Rh  Rh247  1  0.19655584  -0.00883881  -0.00005049  1
  Rh  Rh248  1  0.40721252  0.38865854  0.40520611  1
  Rh  Rh249  1  -0.00657379  0.40123194  0.79814119  1
