# generated using pymatgen
data_ZrScNbPdRh
_symmetry_space_group_name_H-M   'P 1'
_cell_length_a   16.56094857
_cell_length_b   16.55386860
_cell_length_c   16.55627769
_cell_angle_alpha   89.98672601
_cell_angle_beta   89.98149446
_cell_angle_gamma   90.00673942
_symmetry_Int_Tables_number   1
_chemical_formula_structural   ZrScNbPdRh
_chemical_formula_sum   'Zr50 Sc50 Nb50 Pd50 Rh50'
_cell_volume   4538.86616030
_cell_formula_units_Z   50
loop_
 _symmetry_equiv_pos_site_id
 _symmetry_equiv_pos_as_xyz
  1  'x, y, z'
loop_
 _atom_site_type_symbol
 _atom_site_label
 _atom_site_symmetry_multiplicity
 _atom_site_fract_x
 _atom_site_fract_y
 _atom_site_fract_z
 _atom_site_occupancy
  Zr  Zr0  1  0.10291144  0.89994987  0.69047321  1
  Zr  Zr1  1  0.29789776  0.10636595  0.70111182  1
  Zr  Zr2  1  0.31090846  0.30587148  0.09963668  1
  Zr  Zr3  1  0.30468789  0.30164920  0.70496465  1
  Zr  Zr4  1  0.70661391  0.70917229  0.69763248  1
  Zr  Zr5  1  0.71434891  0.89623006  0.10629370  1
  Zr  Zr6  1  0.70846998  0.09777030  0.30738005  1
  Zr  Zr7  1  0.29606504  0.49813929  0.88981112  1
  Zr  Zr8  1  0.49917480  0.49503633  0.10283301  1
  Zr  Zr9  1  0.50657278  0.69936083  0.09274287  1
  Zr  Zr10  1  0.10162318  0.09504767  0.70170787  1
  Zr  Zr11  1  0.90033505  0.70688139  0.89877565  1
  Zr  Zr12  1  0.30533119  0.49727442  0.69778893  1
  Zr  Zr13  1  0.71034207  0.49681984  0.30254299  1
  Zr  Zr14  1  0.70093773  0.90798039  0.89066509  1
  Zr  Zr15  1  0.28850976  0.90306937  0.49127954  1
  Zr  Zr16  1  0.10807925  0.30750896  0.49593887  1
  Zr  Zr17  1  0.30890230  0.09102651  0.30336001  1
  Zr  Zr18  1  0.90260978  0.49543949  0.90501052  1
  Zr  Zr19  1  0.10090780  0.49278663  0.70861055  1
  Zr  Zr20  1  0.09303990  0.71299889  0.50248389  1
  Zr  Zr21  1  0.30824846  0.70258506  0.89843122  1
  Zr  Zr22  1  0.08641013  0.30042232  0.69308430  1
  Zr  Zr23  1  0.29297432  0.90325163  0.69360692  1
  Zr  Zr24  1  0.50538390  0.49502974  0.90109352  1
  Zr  Zr25  1  0.50591591  0.29889442  0.29044571  1
  Zr  Zr26  1  0.09603439  0.90031417  0.09444579  1
  Zr  Zr27  1  0.89548713  0.29948167  0.70790922  1
  Zr  Zr28  1  0.70120829  0.10218086  0.50319613  1
  Zr  Zr29  1  0.50194059  0.10544166  0.10191552  1
  Zr  Zr30  1  0.50126654  0.48987607  0.69881936  1
  Zr  Zr31  1  0.29938860  0.89744263  0.90605547  1
  Zr  Zr32  1  0.50160083  0.50114880  0.50916693  1
  Zr  Zr33  1  0.89475495  0.71187215  0.09946242  1
  Zr  Zr34  1  0.09292060  0.90326084  0.89818097  1
  Zr  Zr35  1  0.68682539  0.49565547  0.49437629  1
  Zr  Zr36  1  0.69519517  0.49320861  0.69764919  1
  Zr  Zr37  1  0.69907963  0.69963245  0.91165763  1
  Zr  Zr38  1  0.49654508  0.29923875  0.09772266  1
  Zr  Zr39  1  0.30412121  0.11135940  0.50334265  1
  Zr  Zr40  1  0.47682897  0.90238204  0.29821507  1
  Zr  Zr41  1  0.09484323  0.29581954  0.29904005  1
  Zr  Zr42  1  0.49844898  0.68996801  0.69324164  1
  Zr  Zr43  1  0.29985411  0.71088543  0.29944111  1
  Zr  Zr44  1  0.29615420  0.30256446  0.30306084  1
  Zr  Zr45  1  0.09338033  0.69483360  0.90164952  1
  Zr  Zr46  1  0.29228483  0.49043326  0.50161933  1
  Zr  Zr47  1  0.89779365  0.49889331  0.09759402  1
  Zr  Zr48  1  0.51477593  0.50051711  0.31097582  1
  Zr  Zr49  1  0.30101871  0.69706604  0.69935556  1
  Sc  Sc50  1  0.29605241  0.51100891  0.29452140  1
  Sc  Sc51  1  0.49572966  0.90678687  0.49170713  1
  Sc  Sc52  1  0.49108379  0.69402041  0.30054938  1
  Sc  Sc53  1  0.51255141  0.10335877  0.90011051  1
  Sc  Sc54  1  0.69886891  0.30078550  0.30611382  1
  Sc  Sc55  1  0.50308923  0.10167325  0.30434724  1
  Sc  Sc56  1  0.71573938  0.90264969  0.30815332  1
  Sc  Sc57  1  0.50689940  0.10686712  0.50087665  1
  Sc  Sc58  1  0.29834113  0.70136411  0.49407715  1
  Sc  Sc59  1  0.69785584  0.10038638  0.09906412  1
  Sc  Sc60  1  0.88857174  0.89796048  0.70956768  1
  Sc  Sc61  1  0.90256830  0.49252846  0.69437746  1
  Sc  Sc62  1  0.50772873  0.29403377  0.50508414  1
  Sc  Sc63  1  0.89560261  0.50226204  0.49853172  1
  Sc  Sc64  1  0.89264455  0.10370876  0.49989824  1
  Sc  Sc65  1  0.08442152  0.30192816  0.89455499  1
  Sc  Sc66  1  0.70057279  0.29327295  0.50398012  1
  Sc  Sc67  1  0.29258914  0.10446756  0.89994906  1
  Sc  Sc68  1  0.90268367  0.29495490  0.51557283  1
  Sc  Sc69  1  0.70795742  0.70110311  0.50088545  1
  Sc  Sc70  1  0.09293050  0.09283266  0.09284099  1
  Sc  Sc71  1  0.09835722  0.69994083  0.09821763  1
  Sc  Sc72  1  0.10060079  0.11453260  0.50202562  1
  Sc  Sc73  1  0.29678232  0.70016370  0.10624490  1
  Sc  Sc74  1  0.08669285  0.70131820  0.69805620  1
  Sc  Sc75  1  0.50148701  0.68988705  0.49585067  1
  Sc  Sc76  1  0.89956385  0.89550387  0.29078088  1
  Sc  Sc77  1  0.70257293  0.10328616  0.89536283  1
  Sc  Sc78  1  0.70527532  0.69743849  0.09981003  1
  Sc  Sc79  1  0.90159762  0.70035850  0.50140039  1
  Sc  Sc80  1  0.70301298  0.50618686  0.09623539  1
  Sc  Sc81  1  0.70423718  0.49275843  0.90432467  1
  Sc  Sc82  1  0.10697872  0.49901311  0.29560946  1
  Sc  Sc83  1  0.50666345  0.90914072  0.70153914  1
  Sc  Sc84  1  0.70306231  0.29626376  0.70171739  1
  Sc  Sc85  1  0.71040851  0.90606801  0.49857354  1
  Sc  Sc86  1  0.89825084  0.89082376  0.48752096  1
  Sc  Sc87  1  0.09559956  0.09433605  0.90040361  1
  Sc  Sc88  1  0.70914321  0.69297686  0.29956774  1
  Sc  Sc89  1  0.30171923  0.89540604  0.10665135  1
  Sc  Sc90  1  0.69718979  0.29571746  0.10137224  1
  Sc  Sc91  1  0.49762192  0.30065154  0.90159149  1
  Sc  Sc92  1  0.10186030  0.70026875  0.30225322  1
  Sc  Sc93  1  0.49594647  0.89630054  0.09770671  1
  Sc  Sc94  1  0.09277734  0.31231666  0.10275302  1
  Sc  Sc95  1  0.90058169  0.30489273  0.08957054  1
  Sc  Sc96  1  0.09622117  0.49753892  0.50037478  1
  Sc  Sc97  1  0.70744841  0.30143895  0.89475960  1
  Sc  Sc98  1  0.89449649  0.10139922  0.70105196  1
  Sc  Sc99  1  0.30187031  0.09649367  0.09554563  1
  Nb  Nb100  1  0.29904463  0.30249529  0.49879928  1
  Nb  Nb101  1  0.30268963  0.30117162  0.90717394  1
  Nb  Nb102  1  0.90252157  0.69357822  0.30173837  1
  Nb  Nb103  1  0.90763244  0.10167170  0.29455988  1
  Nb  Nb104  1  0.90223083  0.30203371  0.29253944  1
  Nb  Nb105  1  0.09310740  0.10375138  0.29503792  1
  Nb  Nb106  1  0.09569661  0.50344510  0.90740234  1
  Nb  Nb107  1  0.50102413  0.70574253  0.90152459  1
  Nb  Nb108  1  0.49710291  0.89408114  0.90119486  1
  Nb  Nb109  1  0.89072274  0.69875221  0.70010666  1
  Nb  Nb110  1  0.50086509  0.10523629  0.69910549  1
  Nb  Nb111  1  0.50300401  0.29251128  0.70195082  1
  Nb  Nb112  1  0.09791153  0.90087689  0.49931785  1
  Nb  Nb113  1  0.69364416  0.08406592  0.70294483  1
  Nb  Nb114  1  0.90025199  0.90392868  0.90148376  1
  Nb  Nb115  1  0.29665159  0.90116212  0.30374414  1
  Nb  Nb116  1  0.90147169  0.10084602  0.90239861  1
  Nb  Nb117  1  0.09842733  0.50665360  0.09104472  1
  Nb  Nb118  1  0.89494525  0.49926075  0.29793486  1
  Nb  Nb119  1  0.90148605  0.09126874  0.10256309  1
  Nb  Nb120  1  0.69942869  0.90356010  0.70108751  1
  Nb  Nb121  1  0.29697970  0.50107560  0.09608818  1
  Nb  Nb122  1  0.10639778  0.90067639  0.31238885  1
  Nb  Nb123  1  0.89270105  0.29496295  0.89605979  1
  Nb  Nb124  1  0.90186158  0.90230444  0.09714102  1
  Nb  Nb125  1  0.81159598  0.19656987  0.20260615  1
  Nb  Nb126  1  0.39935115  0.39720466  0.40250732  1
  Nb  Nb127  1  0.59987186  0.80157943  0.39632312  1
  Nb  Nb128  1  0.19982656  0.21220228  0.00376498  1
  Nb  Nb129  1  0.60081761  0.80488446  0.20901161  1
  Nb  Nb130  1  0.60077354  -0.00746845  0.20369931  1
  Nb  Nb131  1  0.80942521  0.00049791  0.00069421  1
  Nb  Nb132  1  0.00207788  -0.00406759  0.59251188  1
  Nb  Nb133  1  0.19809714  0.40494014  -0.00291389  1
  Nb  Nb134  1  0.19489758  -0.00026287  0.20999565  1
  Nb  Nb135  1  0.19692779  0.59872786  0.60243078  1
  Nb  Nb136  1  0.59659124  0.79905647  0.79913613  1
  Nb  Nb137  1  -0.00825229  0.39744962  0.39041770  1
  Nb  Nb138  1  0.79944746  0.60208761  0.79722750  1
  Nb  Nb139  1  0.19761795  0.79957481  0.80029271  1
  Nb  Nb140  1  0.60323694  0.60533830  0.80254715  1
  Nb  Nb141  1  0.00550284  0.00312663  0.39652683  1
  Nb  Nb142  1  0.40439229  -0.00228775  -0.00833991  1
  Nb  Nb143  1  0.40306564  0.80601065  0.59825824  1
  Nb  Nb144  1  -0.00626629  0.59716154  0.20136382  1
  Nb  Nb145  1  0.40406785  0.00209075  0.80096772  1
  Nb  Nb146  1  0.59975336  0.80524672  0.59880977  1
  Nb  Nb147  1  0.40127257  0.59748651  -0.00136868  1
  Nb  Nb148  1  0.19638630  0.19511667  0.19832338  1
  Nb  Nb149  1  0.39856560  0.00500838  0.60466093  1
  Pd  Pd150  1  0.19360068  0.60310765  0.40625359  1
  Pd  Pd151  1  0.59864051  -0.00653547  0.39429980  1
  Pd  Pd152  1  0.80095238  0.19375580  0.00546087  1
  Pd  Pd153  1  -0.00255917  0.19173704  0.79885030  1
  Pd  Pd154  1  0.00216825  0.59556154  0.60160242  1
  Pd  Pd155  1  0.00060603  0.80606436  0.79366019  1
  Pd  Pd156  1  0.19997343  0.40009158  0.19344241  1
  Pd  Pd157  1  0.19365826  0.38892331  0.80640707  1
  Pd  Pd158  1  0.79651308  0.59412328  0.60062907  1
  Pd  Pd159  1  0.20768205  0.60147561  0.00012860  1
  Pd  Pd160  1  0.40896372  0.20821707  0.39924811  1
  Pd  Pd161  1  0.60448067  0.20804430  -0.00578857  1
  Pd  Pd162  1  0.19196858  0.80599424  0.20125511  1
  Pd  Pd163  1  0.60765765  0.39398861  0.00239355  1
  Pd  Pd164  1  0.19254256  0.01519793  0.40231866  1
  Pd  Pd165  1  0.40548324  0.38805692  0.59484990  1
  Pd  Pd166  1  0.19083207  0.20937523  0.80879947  1
  Pd  Pd167  1  -0.01044415  0.59462955  0.79508787  1
  Pd  Pd168  1  0.19216762  0.60818879  0.79424368  1
  Pd  Pd169  1  0.00374307  0.59217454  0.39408416  1
  Pd  Pd170  1  0.60553394  0.60571212  0.20386290  1
  Pd  Pd171  1  0.40220352  0.80873130  0.78744801  1
  Pd  Pd172  1  0.60199378  -0.00569185  0.00681940  1
  Pd  Pd173  1  -0.00074847  0.20211643  0.18361883  1
  Pd  Pd174  1  0.60689416  0.20381334  0.79901960  1
  Pd  Pd175  1  0.39977958  0.41153055  0.21318500  1
  Pd  Pd176  1  0.61123905  0.40286989  0.19585802  1
  Pd  Pd177  1  0.40311907  0.19589951  0.80960820  1
  Pd  Pd178  1  0.81095746  -0.00441987  0.59883980  1
  Pd  Pd179  1  0.80015899  0.60113491  0.40676105  1
  Pd  Pd180  1  0.19853752  0.20870811  0.60489579  1
  Pd  Pd181  1  0.39383614  0.19460968  0.20193493  1
  Pd  Pd182  1  0.19794057  0.79587770  -0.00270157  1
  Pd  Pd183  1  0.79404607  0.39137985  0.19388796  1
  Pd  Pd184  1  0.80831114  0.38912232  0.40964044  1
  Pd  Pd185  1  0.00072655  0.41091517  0.20190626  1
  Pd  Pd186  1  0.20379886  -0.00444633  0.80648007  1
  Pd  Pd187  1  -0.01678614  0.80915257  0.60514595  1
  Pd  Pd188  1  0.80906546  0.20754142  0.39575753  1
  Pd  Pd189  1  0.00545908  -0.00951187  0.20603809  1
  Pd  Pd190  1  0.79718200  0.39950281  0.59458418  1
  Pd  Pd191  1  0.00542190  0.79678916  0.20615035  1
  Pd  Pd192  1  0.39972234  0.59967273  0.19403856  1
  Pd  Pd193  1  0.41045243  0.59573397  0.80613979  1
  Pd  Pd194  1  -0.00899854  0.20256516  0.40674029  1
  Pd  Pd195  1  0.60691126  0.81125221  0.00327886  1
  Pd  Pd196  1  0.59538100  -0.00299197  0.59320738  1
  Pd  Pd197  1  0.20075276  0.19415135  0.39200249  1
  Pd  Pd198  1  0.39450376  0.59112626  0.40456872  1
  Pd  Pd199  1  0.00371915  0.20177895  0.00379424  1
  Rh  Rh200  1  0.80041596  0.81014309  -0.00754914  1
  Rh  Rh201  1  0.39767904  0.79666858  0.00942529  1
  Rh  Rh202  1  0.79468744  0.79714390  0.80739091  1
  Rh  Rh203  1  0.59911887  0.38726464  0.60321493  1
  Rh  Rh204  1  0.20487289  0.78767415  0.60164583  1
  Rh  Rh205  1  0.79146714  0.19259971  0.61014348  1
  Rh  Rh206  1  0.79964071  0.79165034  0.39585827  1
  Rh  Rh207  1  0.79809701  0.39487666  0.00054463  1
  Rh  Rh208  1  0.80723909  0.60252215  0.19571281  1
  Rh  Rh209  1  -0.00220028  0.19107718  0.60462992  1
  Rh  Rh210  1  0.59409162  0.39010472  0.40457569  1
  Rh  Rh211  1  0.59418837  0.59443778  -0.00359874  1
  Rh  Rh212  1  0.61274168  0.18834102  0.20707531  1
  Rh  Rh213  1  0.00139831  0.39728383  -0.00583946  1
  Rh  Rh214  1  0.19721454  0.79401669  0.40038153  1
  Rh  Rh215  1  0.39932930  0.00744822  0.41399452  1
  Rh  Rh216  1  0.79630901  0.19234972  0.79700950  1
  Rh  Rh217  1  0.80669182  0.00813969  0.80672846  1
  Rh  Rh218  1  0.80680405  0.60033995  -0.00447011  1
  Rh  Rh219  1  0.40472099  0.79190118  0.19673203  1
  Rh  Rh220  1  0.81904947  0.00295644  0.39705666  1
  Rh  Rh221  1  0.19778343  0.39920359  0.60796154  1
  Rh  Rh222  1  0.20522228  0.00355329  0.00843214  1
  Rh  Rh223  1  0.60796212  0.60895498  0.39806310  1
  Rh  Rh224  1  -0.00655675  0.00052016  0.79165746  1
  Rh  Rh225  1  -0.00647643  0.40266758  0.80561721  1
  Rh  Rh226  1  0.61156920  0.60621527  0.60409996  1
  Rh  Rh227  1  0.39985982  0.00267828  0.18814752  1
  Rh  Rh228  1  -0.00037769  0.40273318  0.59020256  1
  Rh  Rh229  1  0.59284705  -0.00162873  0.80277371  1
  Rh  Rh230  1  0.59923839  0.39696167  0.79851083  1
  Rh  Rh231  1  0.39370231  0.41081609  -0.00681096  1
  Rh  Rh232  1  0.40269373  0.20256253  0.60215958  1
  Rh  Rh233  1  0.39728569  0.18969387  -0.00512013  1
  Rh  Rh234  1  0.19920912  0.40276453  0.39338533  1
  Rh  Rh235  1  0.40589453  0.39215179  0.80150641  1
  Rh  Rh236  1  -0.00786840  0.60575692  0.00893013  1
  Rh  Rh237  1  0.79711497  0.00906773  0.19608513  1
  Rh  Rh238  1  0.19088803  0.60119442  0.19447421  1
  Rh  Rh239  1  0.40352420  0.79910857  0.40752107  1
  Rh  Rh240  1  -0.00739092  0.00040753  -0.00434508  1
  Rh  Rh241  1  -0.00070332  0.80109303  -0.00052486  1
  Rh  Rh242  1  0.19727419  0.01207896  0.58772982  1
  Rh  Rh243  1  0.38573239  0.60449231  0.58977131  1
  Rh  Rh244  1  0.60197463  0.20182973  0.39786937  1
  Rh  Rh245  1  0.79879661  0.80777380  0.59672316  1
  Rh  Rh246  1  0.79907411  0.79360747  0.20792626  1
  Rh  Rh247  1  -0.00136048  0.80338472  0.39305573  1
  Rh  Rh248  1  0.60701088  0.19563650  0.60982466  1
  Rh  Rh249  1  0.80447537  0.40618190  0.80175467  1
