# generated using pymatgen
data_ZrScNbPdRh
_symmetry_space_group_name_H-M   'P 1'
_cell_length_a   16.55562115
_cell_length_b   16.55494454
_cell_length_c   16.55092524
_cell_angle_alpha   90.02062405
_cell_angle_beta   89.99902966
_cell_angle_gamma   90.00542050
_symmetry_Int_Tables_number   1
_chemical_formula_structural   ZrScNbPdRh
_chemical_formula_sum   'Zr50 Sc50 Nb50 Pd50 Rh50'
_cell_volume   4536.23407412
_cell_formula_units_Z   50
loop_
 _symmetry_equiv_pos_site_id
 _symmetry_equiv_pos_as_xyz
  1  'x, y, z'
loop_
 _atom_site_type_symbol
 _atom_site_label
 _atom_site_symmetry_multiplicity
 _atom_site_fract_x
 _atom_site_fract_y
 _atom_site_fract_z
 _atom_site_occupancy
  Zr  Zr0  1  0.29971073  0.29092425  0.29852253  1
  Zr  Zr1  1  0.09976742  0.09932752  0.30315812  1
  Zr  Zr2  1  0.09143108  0.50063246  0.69359234  1
  Zr  Zr3  1  0.90801655  0.69908297  0.29700537  1
  Zr  Zr4  1  0.10644922  0.10241163  0.69775222  1
  Zr  Zr5  1  0.69784040  0.90008508  0.30468172  1
  Zr  Zr6  1  0.10146484  0.90312115  0.70634613  1
  Zr  Zr7  1  0.69695692  0.88739793  0.50102702  1
  Zr  Zr8  1  0.68946770  0.49963749  0.89520337  1
  Zr  Zr9  1  0.50696877  0.10119036  0.49871704  1
  Zr  Zr10  1  0.89354415  0.29889806  0.10751392  1
  Zr  Zr11  1  0.50574570  0.49773379  0.09917077  1
  Zr  Zr12  1  0.29664776  0.89545411  0.90108935  1
  Zr  Zr13  1  0.50899478  0.29829242  0.50439535  1
  Zr  Zr14  1  0.30256924  0.50301298  0.89593648  1
  Zr  Zr15  1  0.70915698  0.70532946  0.09692530  1
  Zr  Zr16  1  0.30471627  0.50789379  0.09157330  1
  Zr  Zr17  1  0.10807568  0.70606575  0.89767894  1
  Zr  Zr18  1  0.49135097  0.91266404  0.89765368  1
  Zr  Zr19  1  0.70501533  0.49772394  0.49725899  1
  Zr  Zr20  1  0.70471675  0.10524959  0.50740467  1
  Zr  Zr21  1  0.89666620  0.89604259  0.09450363  1
  Zr  Zr22  1  0.50794564  0.49907641  0.70281567  1
  Zr  Zr23  1  0.09986445  0.51098234  0.50131957  1
  Zr  Zr24  1  0.90029076  0.69912833  0.49494835  1
  Zr  Zr25  1  0.10026321  0.89547683  0.89460046  1
  Zr  Zr26  1  0.29885245  0.50547112  0.50476095  1
  Zr  Zr27  1  0.30755332  0.10374650  0.11196675  1
  Zr  Zr28  1  0.09418913  0.70283891  0.30616731  1
  Zr  Zr29  1  0.50341721  0.70065623  0.29445981  1
  Zr  Zr30  1  0.50073688  0.10002134  0.71007430  1
  Zr  Zr31  1  0.30650765  0.49833612  0.69332717  1
  Zr  Zr32  1  0.89856083  0.50110679  0.51088587  1
  Zr  Zr33  1  0.29819922  0.69666969  0.90423873  1
  Zr  Zr34  1  0.29757181  0.70554018  0.28512973  1
  Zr  Zr35  1  0.09549098  0.29696405  0.30226457  1
  Zr  Zr36  1  0.50648067  0.50353519  0.29680592  1
  Zr  Zr37  1  0.49817215  0.09334428  0.30361159  1
  Zr  Zr38  1  0.69310615  0.29390015  0.10234376  1
  Zr  Zr39  1  0.69655057  0.90123197  0.90956518  1
  Zr  Zr40  1  0.09307844  0.89584630  0.29414699  1
  Zr  Zr41  1  0.50627277  0.30649613  0.30757997  1
  Zr  Zr42  1  0.89681544  0.09899231  0.29919681  1
  Zr  Zr43  1  0.09357626  0.29680876  0.89264443  1
  Zr  Zr44  1  0.89977326  0.49406030  0.88732357  1
  Zr  Zr45  1  0.50006988  0.50402305  0.90016723  1
  Zr  Zr46  1  0.69814277  0.50203759  0.10375570  1
  Zr  Zr47  1  0.70972550  0.49997383  0.69971771  1
  Zr  Zr48  1  0.89731753  0.49858611  0.10656453  1
  Zr  Zr49  1  0.50818447  0.10154108  0.10132194  1
  Sc  Sc50  1  0.70094924  0.69461556  0.31089901  1
  Sc  Sc51  1  0.49615769  0.69630406  0.09962926  1
  Sc  Sc52  1  0.10094736  0.30724261  0.50347390  1
  Sc  Sc53  1  0.31877949  0.09282352  0.89575633  1
  Sc  Sc54  1  0.30306009  0.89252661  0.10128971  1
  Sc  Sc55  1  0.49752358  0.70070272  0.69533045  1
  Sc  Sc56  1  0.89942437  0.70477589  0.89404905  1
  Sc  Sc57  1  0.08952914  0.29743529  0.09552298  1
  Sc  Sc58  1  0.29449321  0.90558600  0.70609967  1
  Sc  Sc59  1  0.50661587  0.30796598  0.89741429  1
  Sc  Sc60  1  0.30798671  0.30927220  0.50916640  1
  Sc  Sc61  1  0.49622390  0.48914924  0.49529462  1
  Sc  Sc62  1  0.89504387  0.49391323  0.29867902  1
  Sc  Sc63  1  0.89307952  0.30260433  0.49626285  1
  Sc  Sc64  1  0.89535814  0.69354941  0.70411085  1
  Sc  Sc65  1  0.10484656  0.09931628  0.49859416  1
  Sc  Sc66  1  0.09094651  0.89841887  0.09944113  1
  Sc  Sc67  1  0.89357586  0.30175039  0.30199347  1
  Sc  Sc68  1  0.90518113  0.89758138  0.30342153  1
  Sc  Sc69  1  0.31284297  0.29918492  0.89087964  1
  Sc  Sc70  1  0.50512828  0.90692761  0.30880031  1
  Sc  Sc71  1  0.88842523  0.09856641  0.90015628  1
  Sc  Sc72  1  0.49436343  0.30202509  0.69777907  1
  Sc  Sc73  1  0.49776120  0.89240160  0.69742854  1
  Sc  Sc74  1  0.70043714  0.69384950  0.90201691  1
  Sc  Sc75  1  0.09621767  0.49636530  0.09896610  1
  Sc  Sc76  1  0.29911916  0.10918881  0.69837581  1
  Sc  Sc77  1  0.70069367  0.69822890  0.70534250  1
  Sc  Sc78  1  0.08943009  0.50337062  0.29693972  1
  Sc  Sc79  1  0.50572161  0.71506986  0.50787237  1
  Sc  Sc80  1  0.10732619  0.70626555  0.10366006  1
  Sc  Sc81  1  0.90469209  0.29402576  0.90237755  1
  Sc  Sc82  1  0.70759637  0.89929085  0.70144813  1
  Sc  Sc83  1  0.29824078  0.69907482  0.09629715  1
  Sc  Sc84  1  0.10058093  0.50534982  0.89894452  1
  Sc  Sc85  1  0.70603097  0.29983243  0.30184093  1
  Sc  Sc86  1  0.30748318  0.50328559  0.29819594  1
  Sc  Sc87  1  0.89613296  0.09662389  0.50129457  1
  Sc  Sc88  1  0.90151716  0.09672425  0.09060642  1
  Sc  Sc89  1  0.88682350  0.08857030  0.69785845  1
  Sc  Sc90  1  0.30523579  0.69231076  0.69467334  1
  Sc  Sc91  1  0.69721985  0.10418305  0.30409785  1
  Sc  Sc92  1  0.08682580  0.10435427  0.89886343  1
  Sc  Sc93  1  0.90059481  0.31167056  0.70743063  1
  Sc  Sc94  1  0.69694430  0.29160551  0.90012688  1
  Sc  Sc95  1  0.69487669  0.30095205  0.69349348  1
  Sc  Sc96  1  0.50395621  0.90129931  0.08991242  1
  Sc  Sc97  1  0.09364646  0.90786440  0.50161933  1
  Sc  Sc98  1  0.70056958  0.29865907  0.49935276  1
  Sc  Sc99  1  0.29477776  0.90934484  0.50189079  1
  Nb  Nb100  1  0.90278049  0.89574019  0.70018308  1
  Nb  Nb101  1  0.89725478  0.69627296  0.09803781  1
  Nb  Nb102  1  0.69517961  0.09692788  0.70509993  1
  Nb  Nb103  1  0.68824640  0.09795761  0.89218742  1
  Nb  Nb104  1  0.29479618  0.30329164  0.69936717  1
  Nb  Nb105  1  0.89401792  0.89912199  0.51346807  1
  Nb  Nb106  1  0.09810252  0.70291998  0.69815882  1
  Nb  Nb107  1  0.69116862  0.49617756  0.29872022  1
  Nb  Nb108  1  0.29828846  0.90280869  0.30229611  1
  Nb  Nb109  1  0.30185045  0.29776150  0.09970731  1
  Nb  Nb110  1  0.10702052  0.29557354  0.70020057  1
  Nb  Nb111  1  0.50306365  0.10099881  0.89863413  1
  Nb  Nb112  1  0.50406157  0.90213989  0.50198532  1
  Nb  Nb113  1  0.50296783  0.30046556  0.09775933  1
  Nb  Nb114  1  0.69946986  0.69810624  0.50385782  1
  Nb  Nb115  1  0.89667907  0.50168445  0.69904234  1
  Nb  Nb116  1  0.70260769  0.89786027  0.09814473  1
  Nb  Nb117  1  0.50437894  0.70622229  0.89834138  1
  Nb  Nb118  1  0.90531924  0.90139522  0.89153481  1
  Nb  Nb119  1  0.30013520  0.09526136  0.30631377  1
  Nb  Nb120  1  0.70563601  0.09799073  0.09191499  1
  Nb  Nb121  1  0.29567835  0.69663757  0.49989899  1
  Nb  Nb122  1  0.09833375  0.69804396  0.50051124  1
  Nb  Nb123  1  0.30263233  0.09666078  0.49550383  1
  Nb  Nb124  1  0.09936974  0.09752985  0.10122074  1
  Nb  Nb125  1  0.20112934  0.79649638  0.40333152  1
  Nb  Nb126  1  -0.00099117  0.80056749  0.60360918  1
  Nb  Nb127  1  -0.00129631  0.19357491  0.19986387  1
  Nb  Nb128  1  0.19340714  0.79417505  0.59550903  1
  Nb  Nb129  1  0.79401903  -0.00220562  0.19090150  1
  Nb  Nb130  1  0.19904158  0.39604530  0.79509976  1
  Nb  Nb131  1  0.40623935  0.20189224  0.00500272  1
  Nb  Nb132  1  0.20629627  0.19855343  0.00168498  1
  Nb  Nb133  1  0.40062416  0.39464289  0.19306122  1
  Nb  Nb134  1  0.00217634  0.20137803  0.60625906  1
  Nb  Nb135  1  0.19958807  0.00746840  0.00614599  1
  Nb  Nb136  1  -0.00588428  0.60528038  0.00223886  1
  Nb  Nb137  1  0.60107105  -0.00043309  0.60249102  1
  Nb  Nb138  1  0.39833078  0.61408869  0.40264778  1
  Nb  Nb139  1  0.60650117  0.59955823  0.59576875  1
  Nb  Nb140  1  0.59650480  0.80165999  0.80819449  1
  Nb  Nb141  1  0.60807590  0.80322949  0.19596325  1
  Nb  Nb142  1  0.20515078  0.39485948  0.19657328  1
  Nb  Nb143  1  0.39787858  0.19388153  0.40119338  1
  Nb  Nb144  1  0.79711115  0.40127655  0.00160907  1
  Nb  Nb145  1  0.20468996  0.39142510  -0.00291414  1
  Nb  Nb146  1  0.20120517  0.00270076  0.20279578  1
  Nb  Nb147  1  0.39295422  0.80320355  0.40225131  1
  Nb  Nb148  1  0.40488789  0.00370626  0.59459334  1
  Nb  Nb149  1  0.20156688  0.40407470  0.39541121  1
  Pd  Pd150  1  -0.00694148  0.19992880  0.40757044  1
  Pd  Pd151  1  0.60111244  0.00488794  0.00011072  1
  Pd  Pd152  1  0.79637337  -0.00581796  0.80609938  1
  Pd  Pd153  1  -0.01405698  0.19179624  0.78751428  1
  Pd  Pd154  1  0.20718350  0.20955897  0.41324726  1
  Pd  Pd155  1  0.79815607  -0.00250868  0.40030190  1
  Pd  Pd156  1  0.59726591  0.60714229  0.00370495  1
  Pd  Pd157  1  0.41276917  0.20448657  0.20564014  1
  Pd  Pd158  1  0.20850082  0.19833684  0.81167295  1
  Pd  Pd159  1  0.19840576  0.59627012  0.79046101  1
  Pd  Pd160  1  0.79513918  0.60023184  0.21096150  1
  Pd  Pd161  1  0.18957715  0.19969889  0.19511778  1
  Pd  Pd162  1  0.79333147  0.80088594  0.80548780  1
  Pd  Pd163  1  -0.00287887  0.40675171  -0.00295132  1
  Pd  Pd164  1  0.39829246  0.19626040  0.59643778  1
  Pd  Pd165  1  0.19466698  -0.00813498  0.39715537  1
  Pd  Pd166  1  0.59640500  0.20953703  0.79636991  1
  Pd  Pd167  1  0.60717491  -0.00459033  0.19642380  1
  Pd  Pd168  1  0.80518597  0.79969535  0.39647137  1
  Pd  Pd169  1  0.40654654  0.60610159  0.80038774  1
  Pd  Pd170  1  -0.00584131  -0.00304164  0.40515182  1
  Pd  Pd171  1  0.38556569  0.80929925  0.59463536  1
  Pd  Pd172  1  0.80830343  0.20662783  0.60882968  1
  Pd  Pd173  1  0.80009980  0.80351663  0.20881956  1
  Pd  Pd174  1  0.19416129  0.59138358  0.19775369  1
  Pd  Pd175  1  0.80249587  0.79181414  0.60649536  1
  Pd  Pd176  1  -0.00352879  0.39136637  0.60123194  1
  Pd  Pd177  1  0.00030360  0.60507362  0.80389842  1
  Pd  Pd178  1  0.00556754  0.60400274  0.19107332  1
  Pd  Pd179  1  -0.00137140  0.79285338  -0.00001316  1
  Pd  Pd180  1  0.00191275  0.40500433  0.40142940  1
  Pd  Pd181  1  0.60117167  0.19885383  0.20719888  1
  Pd  Pd182  1  0.39918582  0.39455932  -0.00063842  1
  Pd  Pd183  1  0.79942530  0.20268824  0.79373068  1
  Pd  Pd184  1  0.20158613  0.01442926  0.81222103  1
  Pd  Pd185  1  0.00138457  -0.00165996  -0.00616264  1
  Pd  Pd186  1  0.80602795  0.80176597  -0.01181595  1
  Pd  Pd187  1  0.80432113  0.59420703  0.39456822  1
  Pd  Pd188  1  0.19942474  0.20194994  0.58946613  1
  Pd  Pd189  1  0.40232925  0.79645773  0.00025362  1
  Pd  Pd190  1  0.58987545  0.60285835  0.41251309  1
  Pd  Pd191  1  -0.00096909  0.00436185  0.60280358  1
  Pd  Pd192  1  -0.00378815  0.00772673  0.79799843  1
  Pd  Pd193  1  0.79221370  0.39025620  0.80621603  1
  Pd  Pd194  1  0.41396910  0.81254838  0.20396489  1
  Pd  Pd195  1  0.39903031  0.79764480  0.79837884  1
  Pd  Pd196  1  0.79738291  0.20235281  -0.00360978  1
  Pd  Pd197  1  0.39959040  -0.01034779  0.19808182  1
  Pd  Pd198  1  0.20465792  0.59924616  0.38911870  1
  Pd  Pd199  1  0.80750026  0.59160661  -0.00996715  1
  Rh  Rh200  1  0.79622941  0.40389810  0.39776484  1
  Rh  Rh201  1  0.59551491  0.61010993  0.79148156  1
  Rh  Rh202  1  0.19955145  0.81114885  0.00464948  1
  Rh  Rh203  1  0.59923876  0.20061626  0.39730874  1
  Rh  Rh204  1  0.39131055  0.39655629  0.39083419  1
  Rh  Rh205  1  0.20952476  0.78922552  0.78910155  1
  Rh  Rh206  1  0.60979853  0.61231961  0.19500175  1
  Rh  Rh207  1  0.00742507  0.40129659  0.79463535  1
  Rh  Rh208  1  0.39890115  -0.00081088  0.78856554  1
  Rh  Rh209  1  -0.00789152  0.59284523  0.40160853  1
  Rh  Rh210  1  0.60313165  0.19351064  0.60916888  1
  Rh  Rh211  1  -0.00315355  0.79917689  0.79381126  1
  Rh  Rh212  1  0.59968103  0.39563630  0.20087491  1
  Rh  Rh213  1  0.59595258  0.19487808  -0.00515522  1
  Rh  Rh214  1  0.60252315  0.40663838  0.59857092  1
  Rh  Rh215  1  0.40450479  0.40116329  0.60440438  1
  Rh  Rh216  1  0.61214992  0.00258254  0.41208600  1
  Rh  Rh217  1  0.79820276  -0.00097387  -0.00465126  1
  Rh  Rh218  1  0.39934878  -0.00143994  0.40659503  1
  Rh  Rh219  1  0.59712726  0.79617405  0.00098198  1
  Rh  Rh220  1  0.19615839  0.60414568  0.60817906  1
  Rh  Rh221  1  0.80048554  0.59858094  0.80316188  1
  Rh  Rh222  1  0.60941052  0.39860170  0.40244947  1
  Rh  Rh223  1  0.80188348  0.39529801  0.60055215  1
  Rh  Rh224  1  -0.00083029  0.19627964  0.00524101  1
  Rh  Rh225  1  0.60859012  0.39778196  -0.00054752  1
  Rh  Rh226  1  -0.00666991  0.60834435  0.60245519  1
  Rh  Rh227  1  0.40509347  0.20403487  0.80404496  1
  Rh  Rh228  1  0.39671772  0.00806907  0.00822921  1
  Rh  Rh229  1  0.79129983  -0.00456331  0.60029769  1
  Rh  Rh230  1  0.80434051  0.18790606  0.19780290  1
  Rh  Rh231  1  0.00124329  0.80694705  0.41358859  1
  Rh  Rh232  1  0.39765137  0.39923940  0.79316413  1
  Rh  Rh233  1  0.60058946  -0.00967653  0.79476063  1
  Rh  Rh234  1  0.60247501  0.39663752  0.79704878  1
  Rh  Rh235  1  0.19800166  0.80944216  0.20193551  1
  Rh  Rh236  1  -0.00602280  0.79451507  0.19036395  1
  Rh  Rh237  1  0.19793747  0.40410356  0.60073158  1
  Rh  Rh238  1  -0.00480480  0.00574782  0.19961779  1
  Rh  Rh239  1  0.41539544  0.59771124  0.58671284  1
  Rh  Rh240  1  0.00390105  0.38915657  0.20367381  1
  Rh  Rh241  1  0.79683243  0.60461691  0.60126650  1
  Rh  Rh242  1  0.59368343  0.79583582  0.39425259  1
  Rh  Rh243  1  0.40671073  0.60695895  -0.00488805  1
  Rh  Rh244  1  0.60887088  0.79947184  0.61270437  1
  Rh  Rh245  1  0.78966276  0.40128178  0.19916786  1
  Rh  Rh246  1  0.20655305  -0.00059480  0.60170954  1
  Rh  Rh247  1  0.79965081  0.20015164  0.40209947  1
  Rh  Rh248  1  0.18828872  0.59356932  0.00475380  1
  Rh  Rh249  1  0.40139811  0.59271642  0.20086036  1
