# generated using pymatgen
data_ZrScNbPdRh
_symmetry_space_group_name_H-M   'P 1'
_cell_length_a   16.55958671
_cell_length_b   16.55373867
_cell_length_c   16.56100942
_cell_angle_alpha   90.00458435
_cell_angle_beta   90.03648244
_cell_angle_gamma   89.98629613
_symmetry_Int_Tables_number   1
_chemical_formula_structural   ZrScNbPdRh
_chemical_formula_sum   'Zr50 Sc50 Nb50 Pd50 Rh50'
_cell_volume   4539.75369627
_cell_formula_units_Z   50
loop_
 _symmetry_equiv_pos_site_id
 _symmetry_equiv_pos_as_xyz
  1  'x, y, z'
loop_
 _atom_site_type_symbol
 _atom_site_label
 _atom_site_symmetry_multiplicity
 _atom_site_fract_x
 _atom_site_fract_y
 _atom_site_fract_z
 _atom_site_occupancy
  Zr  Zr0  1  0.30701538  0.10798308  0.49476198  1
  Zr  Zr1  1  0.48832325  0.89967552  0.70444483  1
  Zr  Zr2  1  0.69385073  0.49729932  0.90237510  1
  Zr  Zr3  1  0.49946171  0.70089457  0.89996290  1
  Zr  Zr4  1  0.89726222  0.11232250  0.29734454  1
  Zr  Zr5  1  0.30388425  0.90488190  0.49836550  1
  Zr  Zr6  1  0.90018303  0.88699745  0.50334357  1
  Zr  Zr7  1  0.09856595  0.89143352  0.89969688  1
  Zr  Zr8  1  0.49879885  0.31548781  0.90082039  1
  Zr  Zr9  1  0.69438459  0.50084659  0.50050577  1
  Zr  Zr10  1  0.10988139  0.09905807  0.09494927  1
  Zr  Zr11  1  0.70275801  0.69070128  0.50154661  1
  Zr  Zr12  1  0.49699889  0.49440162  0.09822930  1
  Zr  Zr13  1  0.50017301  0.69460032  0.50602618  1
  Zr  Zr14  1  0.10701856  0.29705863  0.70987833  1
  Zr  Zr15  1  0.29932788  0.70591284  0.90919242  1
  Zr  Zr16  1  0.10653523  0.70564053  0.69631173  1
  Zr  Zr17  1  0.30311812  0.29873802  0.69957926  1
  Zr  Zr18  1  0.89374682  0.69420650  0.09972634  1
  Zr  Zr19  1  0.89821348  0.29585373  0.49901471  1
  Zr  Zr20  1  0.89904294  0.89807388  0.10138719  1
  Zr  Zr21  1  0.10566759  0.50147768  0.49938590  1
  Zr  Zr22  1  0.30593823  0.30003685  0.30450363  1
  Zr  Zr23  1  0.89813779  0.89290381  0.30282928  1
  Zr  Zr24  1  0.49429516  0.10769469  0.69258456  1
  Zr  Zr25  1  0.09552084  0.49808011  0.10605926  1
  Zr  Zr26  1  0.50255464  0.09569979  0.48888700  1
  Zr  Zr27  1  0.70562986  0.69604677  0.69960087  1
  Zr  Zr28  1  0.89753231  0.69401087  0.49851936  1
  Zr  Zr29  1  0.09881952  0.50305291  0.30005762  1
  Zr  Zr30  1  0.09191936  0.10109539  0.89570609  1
  Zr  Zr31  1  0.69710116  0.10135252  0.08999278  1
  Zr  Zr32  1  0.90510261  0.71109340  0.89947417  1
  Zr  Zr33  1  0.29812893  0.10015328  0.10006932  1
  Zr  Zr34  1  0.30323119  0.89667715  0.09294185  1
  Zr  Zr35  1  0.10432439  0.69704678  0.09595245  1
  Zr  Zr36  1  0.29853613  0.09283897  0.90573982  1
  Zr  Zr37  1  0.30327553  0.49745846  0.29580700  1
  Zr  Zr38  1  0.69643687  0.69872902  0.10127761  1
  Zr  Zr39  1  0.11102143  0.30492888  0.49624575  1
  Zr  Zr40  1  0.69976726  0.10052279  0.90398694  1
  Zr  Zr41  1  0.49500776  0.89963536  0.49996722  1
  Zr  Zr42  1  0.10482409  0.10105085  0.29203789  1
  Zr  Zr43  1  0.70056156  0.29834565  0.29929178  1
  Zr  Zr44  1  0.69618715  0.10981649  0.49943220  1
  Zr  Zr45  1  0.50084783  0.10328863  0.90330981  1
  Zr  Zr46  1  0.90465062  0.50232586  0.30198177  1
  Zr  Zr47  1  0.30663114  0.49591785  0.90247578  1
  Zr  Zr48  1  0.30808672  0.10590694  0.29649164  1
  Zr  Zr49  1  0.69766866  0.09802368  0.30698103  1
  Sc  Sc50  1  0.89750423  0.50145608  0.10205911  1
  Sc  Sc51  1  0.29299321  0.10134596  0.70102357  1
  Sc  Sc52  1  0.70115300  0.90668243  0.49884028  1
  Sc  Sc53  1  0.11404174  0.10266956  0.49981089  1
  Sc  Sc54  1  0.89402213  0.70804430  0.69424160  1
  Sc  Sc55  1  0.89628232  0.30364816  0.70288850  1
  Sc  Sc56  1  0.89590500  0.49467182  0.90280405  1
  Sc  Sc57  1  0.69445874  0.50217907  0.29701856  1
  Sc  Sc58  1  0.10154080  0.49138357  0.90956857  1
  Sc  Sc59  1  0.10780757  0.49529825  0.70056211  1
  Sc  Sc60  1  0.29309880  0.50045346  0.69375358  1
  Sc  Sc61  1  0.30106402  0.70008319  0.51314105  1
  Sc  Sc62  1  0.30283039  0.69925496  0.10945482  1
  Sc  Sc63  1  0.69878721  0.89208203  0.30678125  1
  Sc  Sc64  1  0.49601017  0.70198112  0.30245530  1
  Sc  Sc65  1  0.09652384  0.29981626  0.89815015  1
  Sc  Sc66  1  0.89485003  0.89946039  0.70108512  1
  Sc  Sc67  1  0.89553004  0.69677003  0.30346167  1
  Sc  Sc68  1  0.51199423  0.29936051  0.49440563  1
  Sc  Sc69  1  0.70035239  0.69173883  0.90421048  1
  Sc  Sc70  1  0.30053957  0.89949001  0.89735202  1
  Sc  Sc71  1  0.69876776  0.49936760  0.70337020  1
  Sc  Sc72  1  0.89612816  0.30060087  0.10878554  1
  Sc  Sc73  1  0.70915779  0.90544494  0.69646177  1
  Sc  Sc74  1  0.09981692  0.30052290  0.09837843  1
  Sc  Sc75  1  0.89092560  0.49876606  0.70461240  1
  Sc  Sc76  1  0.88960673  0.10204705  0.49908930  1
  Sc  Sc77  1  0.89848693  0.10308672  0.08996441  1
  Sc  Sc78  1  0.70429854  0.09942726  0.68816222  1
  Sc  Sc79  1  0.70540839  0.30569550  0.69201823  1
  Sc  Sc80  1  0.49766862  0.89378781  0.31146829  1
  Sc  Sc81  1  0.70139032  0.30768923  0.09807976  1
  Sc  Sc82  1  0.09117636  0.30046808  0.29657030  1
  Sc  Sc83  1  0.49756218  0.70393274  0.10230465  1
  Sc  Sc84  1  0.49810233  0.30324126  0.29755744  1
  Sc  Sc85  1  0.50356996  0.49691152  0.29937211  1
  Sc  Sc86  1  0.48795067  0.90236333  0.90546615  1
  Sc  Sc87  1  0.69642384  0.30745903  0.90572748  1
  Sc  Sc88  1  0.30424314  0.70866833  0.70122178  1
  Sc  Sc89  1  0.29589097  0.30164809  0.89026696  1
  Sc  Sc90  1  0.10759077  0.89970768  0.69736445  1
  Sc  Sc91  1  0.69888637  0.69305366  0.30280530  1
  Sc  Sc92  1  0.10825563  0.89515230  0.10406390  1
  Sc  Sc93  1  0.29921054  0.90376509  0.70413914  1
  Sc  Sc94  1  0.30635776  0.88715156  0.29389765  1
  Sc  Sc95  1  0.49545022  0.10365936  0.08633267  1
  Sc  Sc96  1  0.30307683  0.29535988  0.11036791  1
  Sc  Sc97  1  0.29873724  0.50287293  0.10510909  1
  Sc  Sc98  1  0.89619972  0.09238514  0.70244825  1
  Sc  Sc99  1  0.70042981  0.91066107  0.90443190  1
  Nb  Nb100  1  0.50363900  0.50348066  0.50483347  1
  Nb  Nb101  1  0.09770925  0.70246345  0.50261531  1
  Nb  Nb102  1  0.69562060  0.90238403  0.09988296  1
  Nb  Nb103  1  0.70432619  0.50993225  0.09546221  1
  Nb  Nb104  1  0.50050864  0.10021886  0.30064146  1
  Nb  Nb105  1  0.50158082  0.29625700  0.09945256  1
  Nb  Nb106  1  0.89668109  0.09252483  0.89866485  1
  Nb  Nb107  1  0.09823841  0.89729475  0.49745133  1
  Nb  Nb108  1  0.90014572  0.29649257  0.89326610  1
  Nb  Nb109  1  0.89583871  0.29969271  0.29913988  1
  Nb  Nb110  1  0.30140430  0.31007660  0.49617038  1
  Nb  Nb111  1  0.10110659  0.70025132  0.89733594  1
  Nb  Nb112  1  0.09947707  0.09937166  0.69514844  1
  Nb  Nb113  1  0.10793969  0.70004775  0.29707995  1
  Nb  Nb114  1  0.29566907  0.49230806  0.49777587  1
  Nb  Nb115  1  0.90405525  0.50410324  0.49578356  1
  Nb  Nb116  1  0.50345881  0.89886061  0.10272613  1
  Nb  Nb117  1  0.49692634  0.30814276  0.70922354  1
  Nb  Nb118  1  0.50205446  0.49842698  0.70150690  1
  Nb  Nb119  1  0.30199222  0.69493232  0.30219604  1
  Nb  Nb120  1  0.09939823  0.89598990  0.29984832  1
  Nb  Nb121  1  0.50052227  0.49499609  0.89101618  1
  Nb  Nb122  1  0.70466807  0.29977497  0.49641725  1
  Nb  Nb123  1  0.89766601  0.91277969  0.90034818  1
  Nb  Nb124  1  0.49845286  0.69866022  0.69886827  1
  Nb  Nb125  1  0.40461014  0.40323537  0.59482326  1
  Nb  Nb126  1  0.79624699  -0.00051554  0.19802190  1
  Nb  Nb127  1  0.59990798  0.20286615  0.79703208  1
  Nb  Nb128  1  0.20325765  0.60457848  0.40153963  1
  Nb  Nb129  1  0.59540386  0.00427654  0.79675112  1
  Nb  Nb130  1  0.79843861  0.19792542  0.80743415  1
  Nb  Nb131  1  0.19544554  0.79625272  0.39958556  1
  Nb  Nb132  1  0.00156536  0.59740805  0.59999557  1
  Nb  Nb133  1  0.00157324  0.39983233  0.59700917  1
  Nb  Nb134  1  0.79983008  0.80578224  0.00238417  1
  Nb  Nb135  1  0.80273154  0.39854702  0.40153352  1
  Nb  Nb136  1  0.20061674  0.60498011  0.80715308  1
  Nb  Nb137  1  0.59625258  0.19422265  0.19634370  1
  Nb  Nb138  1  0.00586236  -0.00344266  0.39880213  1
  Nb  Nb139  1  0.59813410  0.80321928  0.79556692  1
  Nb  Nb140  1  0.59746260  -0.00034664  0.19777814  1
  Nb  Nb141  1  -0.00239925  -0.00237303  0.20494047  1
  Nb  Nb142  1  0.40321861  0.59665863  0.79941206  1
  Nb  Nb143  1  0.00521985  0.19893659  0.60310240  1
  Nb  Nb144  1  0.39524942  0.59240553  0.40845290  1
  Nb  Nb145  1  0.59695199  0.79700255  0.60705044  1
  Nb  Nb146  1  0.00683153  0.00152971  0.59260734  1
  Nb  Nb147  1  0.00707832  0.60506429  0.79948427  1
  Nb  Nb148  1  0.40916971  0.00018934  0.19769690  1
  Nb  Nb149  1  0.19832618  -0.00852698  0.39479540  1
  Pd  Pd150  1  0.59784295  0.80290652  0.20758864  1
  Pd  Pd151  1  0.59286261  0.60170739  0.20054571  1
  Pd  Pd152  1  -0.00316342  0.39581163  0.40153925  1
  Pd  Pd153  1  0.20003482  0.20027358  0.39239696  1
  Pd  Pd154  1  0.20136886  0.20369973  0.60027894  1
  Pd  Pd155  1  -0.00206570  0.80318531  0.79054854  1
  Pd  Pd156  1  0.80430343  0.20932297  -0.00388216  1
  Pd  Pd157  1  0.39482511  0.59133501  0.60364918  1
  Pd  Pd158  1  0.39195270  0.39297736  0.00916148  1
  Pd  Pd159  1  -0.00900645  0.39294123  0.00386107  1
  Pd  Pd160  1  0.19852724  0.39391912  0.20178331  1
  Pd  Pd161  1  0.00148238  0.19671926  0.18881368  1
  Pd  Pd162  1  0.19536289  0.00057151  0.80338697  1
  Pd  Pd163  1  0.20757600  -0.00872298  0.20543186  1
  Pd  Pd164  1  0.20638393  0.39436908  0.00435817  1
  Pd  Pd165  1  -0.00953592  0.19624693  0.79284855  1
  Pd  Pd166  1  0.59137880  0.59481129  0.00349558  1
  Pd  Pd167  1  0.79120443  0.80026544  0.19883785  1
  Pd  Pd168  1  0.00450679  0.19265319  0.40898228  1
  Pd  Pd169  1  -0.00465214  0.20471001  0.00211520  1
  Pd  Pd170  1  0.59623146  0.60323957  0.79666380  1
  Pd  Pd171  1  0.60431045  0.79492342  0.40964535  1
  Pd  Pd172  1  0.80589901  -0.00173299  0.39924927  1
  Pd  Pd173  1  0.00288747  0.79445494  0.19883048  1
  Pd  Pd174  1  0.78995906  0.80725030  0.81163240  1
  Pd  Pd175  1  0.80458401  0.39915474  0.00068109  1
  Pd  Pd176  1  0.59556336  0.39561280  0.60283084  1
  Pd  Pd177  1  0.40516699  0.60049598  -0.00042492  1
  Pd  Pd178  1  0.41120904  0.40340420  0.40507372  1
  Pd  Pd179  1  0.39229884  0.21118256  -0.00617160  1
  Pd  Pd180  1  0.80004757  0.40910072  0.20531627  1
  Pd  Pd181  1  -0.00340493  0.59458083  -0.00792945  1
  Pd  Pd182  1  0.59913468  0.21031268  0.60583521  1
  Pd  Pd183  1  0.00314638  0.79342090  0.39664648  1
  Pd  Pd184  1  0.60496003  0.80492870  -0.01014995  1
  Pd  Pd185  1  0.80957514  0.60040156  0.80666343  1
  Pd  Pd186  1  -0.00198890  0.80334857  0.00474421  1
  Pd  Pd187  1  0.59891096  -0.00704410  0.60401698  1
  Pd  Pd188  1  0.39228883  0.00498170  0.60404821  1
  Pd  Pd189  1  -0.00030343  0.40945423  0.79564985  1
  Pd  Pd190  1  0.20231079  0.20888105  -0.00591740  1
  Pd  Pd191  1  0.40600235  0.21299795  0.58924045  1
  Pd  Pd192  1  0.40062360  0.19728434  0.80540184  1
  Pd  Pd193  1  0.60069238  0.39588883  0.19396826  1
  Pd  Pd194  1  0.00646424  -0.00369422  0.00777286  1
  Pd  Pd195  1  0.20562679  0.80788129  0.59617160  1
  Pd  Pd196  1  -0.00234583  0.60811393  0.20194621  1
  Pd  Pd197  1  0.00212872  -0.00726573  0.78941858  1
  Pd  Pd198  1  0.80610650  0.40717138  0.59246864  1
  Pd  Pd199  1  0.20104896  0.59586845  0.00006074  1
  Rh  Rh200  1  0.20024459  0.59942279  0.20102762  1
  Rh  Rh201  1  0.40103950  0.01031739  0.79958580  1
  Rh  Rh202  1  0.59962563  0.40626552  0.00744694  1
  Rh  Rh203  1  0.59943272  -0.00440991  0.39710656  1
  Rh  Rh204  1  0.19726609  0.60313954  0.59980189  1
  Rh  Rh205  1  -0.00016897  0.80063273  0.60548028  1
  Rh  Rh206  1  0.39191591  0.41042215  0.78806590  1
  Rh  Rh207  1  0.80633871  0.20012923  0.60883040  1
  Rh  Rh208  1  0.20245931  0.40762255  0.80397600  1
  Rh  Rh209  1  0.40047018  -0.00284723  0.00603001  1
  Rh  Rh210  1  0.80334761  0.60383447  -0.00463863  1
  Rh  Rh211  1  0.41117484  0.19462857  0.19653275  1
  Rh  Rh212  1  0.60506542  0.60125300  0.60881257  1
  Rh  Rh213  1  0.79662378  0.59671491  0.20307906  1
  Rh  Rh214  1  0.20597340  0.79757021  0.80305020  1
  Rh  Rh215  1  0.78881079  0.80131256  0.59391864  1
  Rh  Rh216  1  0.59786720  0.20479618  0.39208177  1
  Rh  Rh217  1  0.80617730  0.59196181  0.60151362  1
  Rh  Rh218  1  0.40042038  0.79292329  0.80309693  1
  Rh  Rh219  1  0.79710853  0.20699265  0.39865455  1
  Rh  Rh220  1  0.40231558  0.39904827  0.19695053  1
  Rh  Rh221  1  0.19936326  0.79981058  0.00228857  1
  Rh  Rh222  1  -0.00369001  0.39813486  0.19781131  1
  Rh  Rh223  1  0.80321085  -0.00568773  0.00680866  1
  Rh  Rh224  1  0.59765785  0.21409609  -0.00115888  1
  Rh  Rh225  1  0.79584157  0.58950563  0.39583782  1
  Rh  Rh226  1  0.00922790  0.60818537  0.40350367  1
  Rh  Rh227  1  0.79448901  0.39268388  0.80735394  1
  Rh  Rh228  1  0.40779194  0.20726194  0.40307421  1
  Rh  Rh229  1  0.19709025  0.20826231  0.20217545  1
  Rh  Rh230  1  0.59048292  -0.00797139  -0.00293808  1
  Rh  Rh231  1  0.39301142  -0.00138856  0.38743486  1
  Rh  Rh232  1  0.40237541  0.80426647  0.59934172  1
  Rh  Rh233  1  0.60818597  0.39545569  0.79342659  1
  Rh  Rh234  1  0.81047477  -0.00092797  0.59138345  1
  Rh  Rh235  1  0.20242087  0.39148411  0.60500420  1
  Rh  Rh236  1  0.79010758  0.19358643  0.19615890  1
  Rh  Rh237  1  0.60689738  0.40122090  0.40086836  1
  Rh  Rh238  1  0.79337091  0.79262405  0.40403389  1
  Rh  Rh239  1  0.58972779  0.59885955  0.39574733  1
  Rh  Rh240  1  0.40122855  0.79913667  0.00489447  1
  Rh  Rh241  1  0.40448888  0.80157393  0.19848113  1
  Rh  Rh242  1  0.39096417  0.78637844  0.40705157  1
  Rh  Rh243  1  0.19894025  0.40240952  0.38746363  1
  Rh  Rh244  1  0.79232415  0.00669121  0.80027896  1
  Rh  Rh245  1  0.40478850  0.59942442  0.20834305  1
  Rh  Rh246  1  0.19904400  0.19061234  0.80559141  1
  Rh  Rh247  1  0.19950858  -0.00044586  0.59287457  1
  Rh  Rh248  1  0.20405817  0.79547905  0.20158273  1
  Rh  Rh249  1  0.19270929  -0.00597218  -0.00835592  1
