# generated using pymatgen
data_ZrScNbPdRh
_symmetry_space_group_name_H-M   'P 1'
_cell_length_a   16.56213262
_cell_length_b   16.55989854
_cell_length_c   16.56474733
_cell_angle_alpha   90.02117379
_cell_angle_beta   89.98690686
_cell_angle_gamma   90.02959229
_symmetry_Int_Tables_number   1
_chemical_formula_structural   ZrScNbPdRh
_chemical_formula_sum   'Zr50 Sc50 Nb50 Pd50 Rh50'
_cell_volume   4543.16642964
_cell_formula_units_Z   50
loop_
 _symmetry_equiv_pos_site_id
 _symmetry_equiv_pos_as_xyz
  1  'x, y, z'
loop_
 _atom_site_type_symbol
 _atom_site_label
 _atom_site_symmetry_multiplicity
 _atom_site_fract_x
 _atom_site_fract_y
 _atom_site_fract_z
 _atom_site_occupancy
  Zr  Zr0  1  0.10152822  0.30672293  0.50177851  1
  Zr  Zr1  1  0.88418355  0.90019223  0.09737819  1
  Zr  Zr2  1  0.10416741  0.49927616  0.70045752  1
  Zr  Zr3  1  0.90360614  0.30242508  0.29888146  1
  Zr  Zr4  1  0.29541905  0.89577837  0.48988816  1
  Zr  Zr5  1  0.10386577  0.50504583  0.49353807  1
  Zr  Zr6  1  0.29985435  0.30691794  0.69937184  1
  Zr  Zr7  1  0.09530987  0.10542965  0.49078933  1
  Zr  Zr8  1  0.09400584  0.69493450  0.49828689  1
  Zr  Zr9  1  0.29372571  0.69531637  0.50065708  1
  Zr  Zr10  1  0.50058881  0.10905220  0.69863836  1
  Zr  Zr11  1  0.50144356  0.10477382  0.09731315  1
  Zr  Zr12  1  0.09734134  0.69076882  0.09634072  1
  Zr  Zr13  1  0.31511065  0.30677651  0.10198239  1
  Zr  Zr14  1  0.68963693  0.29886975  0.10131170  1
  Zr  Zr15  1  0.09825841  0.09985082  0.29643055  1
  Zr  Zr16  1  0.89771842  0.51016805  0.50042975  1
  Zr  Zr17  1  0.30246087  0.70712285  0.30211472  1
  Zr  Zr18  1  0.50159988  0.69504199  0.89454876  1
  Zr  Zr19  1  0.50226582  0.50741721  0.31743465  1
  Zr  Zr20  1  0.70798948  0.50430224  0.30604665  1
  Zr  Zr21  1  0.89918934  0.70330290  0.10349427  1
  Zr  Zr22  1  0.10270408  0.30315481  0.70395490  1
  Zr  Zr23  1  0.29484692  0.49381393  0.09741206  1
  Zr  Zr24  1  0.09467426  0.88445354  0.49713626  1
  Zr  Zr25  1  0.30172987  0.30464975  0.49703545  1
  Zr  Zr26  1  0.50525630  0.90252502  0.49799325  1
  Zr  Zr27  1  0.69686727  0.50233119  0.49929207  1
  Zr  Zr28  1  0.69223049  0.49877670  0.89833910  1
  Zr  Zr29  1  0.10166125  0.69599625  0.69545502  1
  Zr  Zr30  1  0.29969788  0.49694080  0.89855208  1
  Zr  Zr31  1  0.30295234  0.10596643  0.49536335  1
  Zr  Zr32  1  0.69815422  0.30981557  0.29869310  1
  Zr  Zr33  1  0.49898906  0.29916731  0.29367060  1
  Zr  Zr34  1  0.10413640  0.30444832  0.10056910  1
  Zr  Zr35  1  0.69712121  0.89854192  0.29872499  1
  Zr  Zr36  1  0.89552199  0.09106118  0.49315696  1
  Zr  Zr37  1  0.09197528  0.89295909  0.70184499  1
  Zr  Zr38  1  0.88901299  0.30509789  0.70426139  1
  Zr  Zr39  1  0.49582146  0.49734095  0.50531244  1
  Zr  Zr40  1  0.10204114  0.90070825  0.89570472  1
  Zr  Zr41  1  0.89932023  0.89802074  0.89562813  1
  Zr  Zr42  1  0.49995689  0.90381229  0.09658927  1
  Zr  Zr43  1  0.29758478  0.10676376  0.70455020  1
  Zr  Zr44  1  0.70541068  0.69257454  0.70091810  1
  Zr  Zr45  1  0.70899555  0.70174469  0.49430807  1
  Zr  Zr46  1  0.29810391  0.90925050  0.90900971  1
  Zr  Zr47  1  0.29797242  0.70074710  0.09555131  1
  Zr  Zr48  1  0.91011592  0.29398516  0.08892096  1
  Zr  Zr49  1  0.49570801  0.09685837  0.89762989  1
  Sc  Sc50  1  0.89930710  0.10273820  0.09960664  1
  Sc  Sc51  1  0.90464370  0.50294860  0.10098138  1
  Sc  Sc52  1  0.30477539  0.49746879  0.49946315  1
  Sc  Sc53  1  0.70376238  0.09227074  0.09720214  1
  Sc  Sc54  1  0.89757225  0.69253159  0.89143551  1
  Sc  Sc55  1  0.49933486  0.30088591  0.50747427  1
  Sc  Sc56  1  0.30179797  0.69084196  0.70631277  1
  Sc  Sc57  1  0.30805562  0.49821495  0.70048728  1
  Sc  Sc58  1  0.09965690  0.09833520  0.70844534  1
  Sc  Sc59  1  0.68962897  0.10200748  0.70394664  1
  Sc  Sc60  1  0.50856469  0.90923946  0.69923033  1
  Sc  Sc61  1  0.69912667  0.49565245  0.10471596  1
  Sc  Sc62  1  0.10051932  0.49978457  0.90670804  1
  Sc  Sc63  1  0.50765633  0.30586057  0.90540246  1
  Sc  Sc64  1  0.09338410  0.10439997  0.10006239  1
  Sc  Sc65  1  0.10508899  0.69085569  0.89404999  1
  Sc  Sc66  1  0.90041913  0.90013797  0.29645786  1
  Sc  Sc67  1  0.70346474  0.49370605  0.69843550  1
  Sc  Sc68  1  0.10938622  0.90295468  0.10119953  1
  Sc  Sc69  1  0.90632662  0.09506943  0.29686955  1
  Sc  Sc70  1  0.70319948  0.89336826  0.91169056  1
  Sc  Sc71  1  0.89075539  0.09901339  0.70322974  1
  Sc  Sc72  1  0.10140900  0.29732279  0.31053308  1
  Sc  Sc73  1  0.30858264  0.09392106  0.09242894  1
  Sc  Sc74  1  0.09083444  0.70261587  0.30578724  1
  Sc  Sc75  1  0.50115414  0.48635618  0.09202412  1
  Sc  Sc76  1  0.30000386  0.70547900  0.89454463  1
  Sc  Sc77  1  0.50078141  0.71240685  0.09359210  1
  Sc  Sc78  1  0.69860297  0.90161196  0.10092521  1
  Sc  Sc79  1  0.90087050  0.69512261  0.69558651  1
  Sc  Sc80  1  0.89474469  0.50331700  0.70023731  1
  Sc  Sc81  1  0.29542254  0.89224928  0.71006428  1
  Sc  Sc82  1  0.70095264  0.08998581  0.30328036  1
  Sc  Sc83  1  0.50612478  0.09874618  0.30950970  1
  Sc  Sc84  1  0.70032432  0.71092019  0.09549323  1
  Sc  Sc85  1  0.89368407  0.69955453  0.29881445  1
  Sc  Sc86  1  0.90481186  0.30953398  0.50021228  1
  Sc  Sc87  1  0.50688810  0.10504535  0.50349467  1
  Sc  Sc88  1  0.29830190  0.89485350  0.09841316  1
  Sc  Sc89  1  0.49844584  0.69446812  0.49070508  1
  Sc  Sc90  1  0.70549879  0.29898770  0.89596325  1
  Sc  Sc91  1  0.10834012  0.09963143  0.89699045  1
  Sc  Sc92  1  0.49502777  0.89843133  0.90105857  1
  Sc  Sc93  1  0.70656824  0.90372414  0.50140915  1
  Sc  Sc94  1  0.50496782  0.49889845  0.89419194  1
  Sc  Sc95  1  0.70136659  0.10831198  0.89885109  1
  Sc  Sc96  1  0.69706625  0.69528696  0.90093483  1
  Sc  Sc97  1  0.09430576  0.30740716  0.90425569  1
  Sc  Sc98  1  0.30213342  0.49195486  0.31043097  1
  Sc  Sc99  1  0.68883655  0.31103612  0.50711073  1
  Nb  Nb100  1  0.29613719  0.90443972  0.30002678  1
  Nb  Nb101  1  0.50150529  0.29788627  0.10278790  1
  Nb  Nb102  1  0.90984127  0.70637063  0.49511082  1
  Nb  Nb103  1  0.89296690  0.10865135  0.90511639  1
  Nb  Nb104  1  0.49815347  0.69298987  0.69858380  1
  Nb  Nb105  1  0.10408361  0.49967414  0.10095504  1
  Nb  Nb106  1  0.89787912  0.29362668  0.90395752  1
  Nb  Nb107  1  0.69480078  0.69799934  0.30099559  1
  Nb  Nb108  1  0.30026888  0.10553054  0.89989007  1
  Nb  Nb109  1  0.50674481  0.30142947  0.69735241  1
  Nb  Nb110  1  0.10993084  0.90240532  0.29871666  1
  Nb  Nb111  1  0.89841452  0.50077581  0.29848752  1
  Nb  Nb112  1  0.29625815  0.30213909  0.89764270  1
  Nb  Nb113  1  0.50181242  0.70171767  0.29758973  1
  Nb  Nb114  1  0.50079855  0.50500634  0.70222509  1
  Nb  Nb115  1  0.69204807  0.29499764  0.69966547  1
  Nb  Nb116  1  0.29705864  0.10002911  0.30476191  1
  Nb  Nb117  1  0.10201052  0.50395897  0.30102989  1
  Nb  Nb118  1  0.70283990  0.10111101  0.49507279  1
  Nb  Nb119  1  0.90164887  0.89577832  0.50518020  1
  Nb  Nb120  1  0.30250316  0.29411673  0.30112945  1
  Nb  Nb121  1  0.89632202  0.89966313  0.69923332  1
  Nb  Nb122  1  0.70353026  0.89505417  0.69975044  1
  Nb  Nb123  1  0.89426903  0.48727995  0.90411696  1
  Nb  Nb124  1  0.49549263  0.89546106  0.30083859  1
  Nb  Nb125  1  0.19602901  0.00055160  0.59686484  1
  Nb  Nb126  1  0.80033591  0.59345680  -0.00190986  1
  Nb  Nb127  1  0.00622574  0.40832921  0.20226768  1
  Nb  Nb128  1  0.39898721  0.59855215  0.00258700  1
  Nb  Nb129  1  -0.00353101  0.19691965  0.60456011  1
  Nb  Nb130  1  0.40337150  0.80050830  0.60055695  1
  Nb  Nb131  1  0.79846744  -0.00651415  0.79851110  1
  Nb  Nb132  1  -0.00078479  0.80248610  -0.00111338  1
  Nb  Nb133  1  0.20007626  0.59444767  0.20209360  1
  Nb  Nb134  1  0.39789761  -0.00496624  0.21239002  1
  Nb  Nb135  1  0.59810345  0.60121939  0.60140169  1
  Nb  Nb136  1  -0.00459948  -0.00306535  -0.00653095  1
  Nb  Nb137  1  0.39193192  -0.00288086  0.59810919  1
  Nb  Nb138  1  0.79570910  0.20028830  0.59480003  1
  Nb  Nb139  1  0.21130039  0.20089231  0.20111667  1
  Nb  Nb140  1  0.59460776  0.60657414  0.20529100  1
  Nb  Nb141  1  0.19572023  0.19874799  0.59864376  1
  Nb  Nb142  1  0.60297057  0.79814946  0.79163089  1
  Nb  Nb143  1  0.79900699  0.20477836  0.20428821  1
  Nb  Nb144  1  0.20828129  0.20491085  0.00034413  1
  Nb  Nb145  1  -0.00314526  -0.00341387  0.60123042  1
  Nb  Nb146  1  0.79655459  0.20215237  0.40195663  1
  Nb  Nb147  1  0.40274053  0.60165300  0.19855491  1
  Nb  Nb148  1  -0.00930276  0.20386781  0.80333775  1
  Nb  Nb149  1  0.39841463  0.20627405  0.80363985  1
  Pd  Pd150  1  0.79370911  0.40056333  0.80127232  1
  Pd  Pd151  1  0.59885911  0.59894844  0.01346348  1
  Pd  Pd152  1  0.39998920  0.80385397  0.19657339  1
  Pd  Pd153  1  0.40208684  0.79759237  0.40543810  1
  Pd  Pd154  1  0.40738289  0.41112842  0.20806824  1
  Pd  Pd155  1  0.19266123  -0.00035820  0.40432552  1
  Pd  Pd156  1  0.60270581  0.19985690  -0.00488944  1
  Pd  Pd157  1  0.39713421  0.00237572  0.79357003  1
  Pd  Pd158  1  0.80648865  0.79442016  0.59890051  1
  Pd  Pd159  1  0.20767207  0.80050251  0.60556806  1
  Pd  Pd160  1  0.79983525  0.39661398  0.40881437  1
  Pd  Pd161  1  0.39834888  0.18687783  0.20378905  1
  Pd  Pd162  1  0.60286793  0.00109669  -0.00786307  1
  Pd  Pd163  1  0.40869612  0.20297667  0.40012697  1
  Pd  Pd164  1  0.40958482  0.39554664  0.80138557  1
  Pd  Pd165  1  0.60352380  0.00483898  0.59766131  1
  Pd  Pd166  1  0.19329627  0.79244329  0.20364061  1
  Pd  Pd167  1  0.20280008  -0.00321150  0.79549517  1
  Pd  Pd168  1  0.59209442  0.41320662  0.20584454  1
  Pd  Pd169  1  0.79739949  0.00423486  0.60627984  1
  Pd  Pd170  1  0.40859953  0.80339948  0.79284681  1
  Pd  Pd171  1  -0.00778358  0.59992788  -0.00715071  1
  Pd  Pd172  1  0.19191605  0.79517503  -0.00627586  1
  Pd  Pd173  1  0.79045581  0.60493806  0.19164303  1
  Pd  Pd174  1  0.40024535  0.20810590  -0.00742806  1
  Pd  Pd175  1  -0.00004024  0.78821821  0.80167527  1
  Pd  Pd176  1  0.80571024  0.80531672  0.39458274  1
  Pd  Pd177  1  0.59282362  0.00293447  0.20203332  1
  Pd  Pd178  1  0.59602872  0.79199516  0.60277699  1
  Pd  Pd179  1  0.79559281  0.40036461  0.00654865  1
  Pd  Pd180  1  0.61116292  -0.00980088  0.80907700  1
  Pd  Pd181  1  0.20799793  0.00992445  0.19198345  1
  Pd  Pd182  1  0.79418041  0.79967645  0.80222294  1
  Pd  Pd183  1  0.00056804  0.40976073  0.39493700  1
  Pd  Pd184  1  0.00538755  0.80848759  0.19523858  1
  Pd  Pd185  1  0.20723894  0.59146706  0.60257566  1
  Pd  Pd186  1  -0.00312951  0.59069856  0.80159282  1
  Pd  Pd187  1  0.60215879  0.79868986  0.19743207  1
  Pd  Pd188  1  0.40565463  0.00244904  0.40105123  1
  Pd  Pd189  1  0.60813839  0.18943162  0.20362070  1
  Pd  Pd190  1  0.00299494  0.59663564  0.20639376  1
  Pd  Pd191  1  0.60174378  0.80189506  0.40185448  1
  Pd  Pd192  1  0.00162945  -0.01186876  0.40036168  1
  Pd  Pd193  1  0.60619982  0.20750954  0.40217377  1
  Pd  Pd194  1  0.81161576  0.39385283  0.18803161  1
  Pd  Pd195  1  -0.01024916  0.01117856  0.80152993  1
  Pd  Pd196  1  -0.00210245  0.40060882  0.80386890  1
  Pd  Pd197  1  0.19749099  0.39702541  0.21242994  1
  Pd  Pd198  1  -0.00371175  0.40484499  0.60413826  1
  Pd  Pd199  1  -0.00139234  -0.00885000  0.18914381  1
  Rh  Rh200  1  0.60279874  0.39625400  -0.00021669  1
  Rh  Rh201  1  0.59529859  0.40942631  0.60923173  1
  Rh  Rh202  1  0.40589078  0.39002636  0.39856056  1
  Rh  Rh203  1  0.00000778  0.40784912  0.00472106  1
  Rh  Rh204  1  0.19763509  0.79618260  0.80024949  1
  Rh  Rh205  1  0.80037729  -0.00470516  0.39654434  1
  Rh  Rh206  1  0.20151982  0.39950011  0.39853905  1
  Rh  Rh207  1  0.59541214  0.80402711  -0.00949709  1
  Rh  Rh208  1  0.39233635  0.60537201  0.39725254  1
  Rh  Rh209  1  0.39988053  -0.00272480  0.00442354  1
  Rh  Rh210  1  0.80633755  0.60516839  0.40007752  1
  Rh  Rh211  1  0.39875922  0.59695786  0.80846544  1
  Rh  Rh212  1  0.20422927  0.40328849  0.59549512  1
  Rh  Rh213  1  0.40499974  0.40098725  -0.00661818  1
  Rh  Rh214  1  0.19535047  0.01098152  0.00367438  1
  Rh  Rh215  1  0.60425329  0.60546063  0.40295789  1
  Rh  Rh216  1  0.19815053  0.20847888  0.80449135  1
  Rh  Rh217  1  -0.00449266  0.80526135  0.39044084  1
  Rh  Rh218  1  0.80021669  0.19585979  0.79296710  1
  Rh  Rh219  1  0.20254920  0.20408158  0.39814476  1
  Rh  Rh220  1  0.19581162  0.40640355  0.80456278  1
  Rh  Rh221  1  0.80809955  0.78436478  -0.00509395  1
  Rh  Rh222  1  0.60195333  0.39655297  0.79392517  1
  Rh  Rh223  1  0.59079909  0.20678121  0.80537854  1
  Rh  Rh224  1  0.39517095  0.20043597  0.60757712  1
  Rh  Rh225  1  0.20770834  0.59906517  0.00136102  1
  Rh  Rh226  1  -0.00789943  0.59821799  0.39538008  1
  Rh  Rh227  1  0.20347639  0.60122837  0.39296857  1
  Rh  Rh228  1  0.60207118  -0.00566095  0.40221264  1
  Rh  Rh229  1  0.20184004  0.59499683  0.79847969  1
  Rh  Rh230  1  0.80140419  0.00641926  0.20227045  1
  Rh  Rh231  1  -0.00800284  0.79881537  0.60466530  1
  Rh  Rh232  1  0.79237392  0.20317223  0.01103397  1
  Rh  Rh233  1  -0.01217969  0.20225221  0.40483588  1
  Rh  Rh234  1  0.40383384  0.40003094  0.60541000  1
  Rh  Rh235  1  0.19364576  0.79587771  0.39140395  1
  Rh  Rh236  1  0.60288657  0.60166028  0.78985971  1
  Rh  Rh237  1  0.79188238  0.79926417  0.20548163  1
  Rh  Rh238  1  0.01211234  0.18880096  -0.01301262  1
  Rh  Rh239  1  0.80309604  0.00484656  -0.00722445  1
  Rh  Rh240  1  -0.00109434  0.59851400  0.60033160  1
  Rh  Rh241  1  0.80161324  0.58852881  0.80951742  1
  Rh  Rh242  1  0.60772695  0.19790078  0.59634951  1
  Rh  Rh243  1  0.19909382  0.39431086  -0.00394682  1
  Rh  Rh244  1  0.40385956  0.60380918  0.59799704  1
  Rh  Rh245  1  0.39994117  0.79629593  -0.00486915  1
  Rh  Rh246  1  0.59362335  0.39490175  0.39921201  1
  Rh  Rh247  1  0.00142723  0.20922253  0.20532941  1
  Rh  Rh248  1  0.79682394  0.39453336  0.59949428  1
  Rh  Rh249  1  0.79813182  0.60475409  0.59305058  1
