# generated using pymatgen
data_ZrScNbPdRh
_symmetry_space_group_name_H-M   'P 1'
_cell_length_a   16.56766902
_cell_length_b   16.56045209
_cell_length_c   16.56348566
_cell_angle_alpha   89.98999591
_cell_angle_beta   89.99821643
_cell_angle_gamma   90.00554473
_symmetry_Int_Tables_number   1
_chemical_formula_structural   ZrScNbPdRh
_chemical_formula_sum   'Zr50 Sc50 Nb50 Pd50 Rh50'
_cell_volume   4544.49181643
_cell_formula_units_Z   50
loop_
 _symmetry_equiv_pos_site_id
 _symmetry_equiv_pos_as_xyz
  1  'x, y, z'
loop_
 _atom_site_type_symbol
 _atom_site_label
 _atom_site_symmetry_multiplicity
 _atom_site_fract_x
 _atom_site_fract_y
 _atom_site_fract_z
 _atom_site_occupancy
  Zr  Zr0  1  0.70179162  0.50707850  0.70919156  1
  Zr  Zr1  1  0.29893558  0.68955081  0.09623011  1
  Zr  Zr2  1  0.30477294  0.70820461  0.49474655  1
  Zr  Zr3  1  0.51238006  0.89674344  0.30057101  1
  Zr  Zr4  1  0.70560614  0.30251159  0.49298341  1
  Zr  Zr5  1  0.50515590  0.10109811  0.49195030  1
  Zr  Zr6  1  0.09233056  0.89225057  0.10560566  1
  Zr  Zr7  1  0.90414199  0.50612701  0.70992654  1
  Zr  Zr8  1  0.70135983  0.10208671  0.49683551  1
  Zr  Zr9  1  0.49314819  0.29983016  0.70502123  1
  Zr  Zr10  1  0.29222185  0.50509915  0.90796454  1
  Zr  Zr11  1  0.10493231  0.89181937  0.49269436  1
  Zr  Zr12  1  0.90085662  0.50348300  0.09163070  1
  Zr  Zr13  1  0.10534776  0.30297974  0.90119342  1
  Zr  Zr14  1  0.69114704  0.70023743  0.89100213  1
  Zr  Zr15  1  0.10081682  0.10424502  0.90508367  1
  Zr  Zr16  1  0.09703384  0.09218388  0.10060921  1
  Zr  Zr17  1  0.49453956  0.49602886  0.69646164  1
  Zr  Zr18  1  0.90419000  0.49863399  0.30346132  1
  Zr  Zr19  1  0.30085293  0.69975439  0.70100253  1
  Zr  Zr20  1  0.50293407  0.69413697  0.10628306  1
  Zr  Zr21  1  0.10072832  0.89533136  0.29732807  1
  Zr  Zr22  1  0.89771458  0.89827923  0.10223734  1
  Zr  Zr23  1  0.89887049  0.70272553  0.30842287  1
  Zr  Zr24  1  0.09815589  0.30191794  0.70337748  1
  Zr  Zr25  1  0.89470087  0.90173570  0.69741522  1
  Zr  Zr26  1  0.89963135  0.09502512  0.70184247  1
  Zr  Zr27  1  0.29666422  0.09559948  0.29396805  1
  Zr  Zr28  1  0.89975915  0.10074336  0.50366915  1
  Zr  Zr29  1  0.69620832  0.31215366  0.90848747  1
  Zr  Zr30  1  0.70293958  0.50403185  0.50381684  1
  Zr  Zr31  1  0.10024957  0.29938903  0.50282624  1
  Zr  Zr32  1  0.70201310  0.09182405  0.70548195  1
  Zr  Zr33  1  0.69805183  0.89626823  0.70010087  1
  Zr  Zr34  1  0.89594084  0.30104665  0.89851504  1
  Zr  Zr35  1  0.11393408  0.49799786  0.30654492  1
  Zr  Zr36  1  0.49424675  0.70147863  0.89649378  1
  Zr  Zr37  1  0.68955774  0.09865741  0.10382469  1
  Zr  Zr38  1  0.90556955  0.29621022  0.10087259  1
  Zr  Zr39  1  0.90738799  0.70886352  0.69496063  1
  Zr  Zr40  1  0.89500821  0.50553790  0.49981601  1
  Zr  Zr41  1  0.09802668  0.49962157  0.88995609  1
  Zr  Zr42  1  0.90113611  0.29874674  0.49867308  1
  Zr  Zr43  1  0.90273465  0.09977788  0.90674520  1
  Zr  Zr44  1  0.69760648  0.49600573  0.09208173  1
  Zr  Zr45  1  0.29713375  0.89384335  0.30766207  1
  Zr  Zr46  1  0.69441532  0.89205970  0.49915098  1
  Zr  Zr47  1  0.10038155  0.30383472  0.30277661  1
  Zr  Zr48  1  0.50130410  0.50794226  0.49358469  1
  Zr  Zr49  1  0.90587286  0.70682815  0.09957027  1
  Sc  Sc50  1  0.49596764  0.69690408  0.30414534  1
  Sc  Sc51  1  0.10068849  0.09517193  0.50554261  1
  Sc  Sc52  1  0.70389733  0.29720763  0.30028715  1
  Sc  Sc53  1  0.10009313  0.69310462  0.69546938  1
  Sc  Sc54  1  0.29033971  0.90826882  0.09536579  1
  Sc  Sc55  1  0.09528827  0.89896984  0.91115344  1
  Sc  Sc56  1  0.90661318  0.89083043  0.30348473  1
  Sc  Sc57  1  0.49255841  0.29249378  0.90059191  1
  Sc  Sc58  1  0.69682765  0.70503056  0.69908132  1
  Sc  Sc59  1  0.30209767  0.29841930  0.70518429  1
  Sc  Sc60  1  0.70175445  0.70840806  0.10125637  1
  Sc  Sc61  1  0.68960891  0.89997485  0.90004182  1
  Sc  Sc62  1  0.30255167  0.49800676  0.10335012  1
  Sc  Sc63  1  0.69038102  0.29629265  0.09687326  1
  Sc  Sc64  1  0.90066215  0.70110246  0.90256223  1
  Sc  Sc65  1  0.09884567  0.09715804  0.69146487  1
  Sc  Sc66  1  0.29849174  0.29375082  0.90554045  1
  Sc  Sc67  1  0.10789877  0.29779080  0.09987743  1
  Sc  Sc68  1  0.09179163  0.89602958  0.69242676  1
  Sc  Sc69  1  0.51023513  0.30235690  0.29531843  1
  Sc  Sc70  1  0.70310134  0.29863107  0.71844068  1
  Sc  Sc71  1  0.90363615  0.89949742  0.90307881  1
  Sc  Sc72  1  0.90226621  0.10005926  0.09847424  1
  Sc  Sc73  1  0.29435588  0.50092531  0.69748601  1
  Sc  Sc74  1  0.29144100  0.50309021  0.50010553  1
  Sc  Sc75  1  0.90163184  0.88884290  0.49902254  1
  Sc  Sc76  1  0.29992907  0.89807319  0.50464734  1
  Sc  Sc77  1  0.69493212  0.70929234  0.29510664  1
  Sc  Sc78  1  0.10552598  0.69815304  0.90856416  1
  Sc  Sc79  1  0.49611304  0.49701608  0.10151662  1
  Sc  Sc80  1  0.90199932  0.10502304  0.29916600  1
  Sc  Sc81  1  0.49950102  0.30600865  0.49986748  1
  Sc  Sc82  1  0.09934433  0.08930513  0.29587061  1
  Sc  Sc83  1  0.68526464  0.10823260  0.30104801  1
  Sc  Sc84  1  0.70163935  0.10452740  0.90013362  1
  Sc  Sc85  1  0.69536204  0.49872116  0.30227193  1
  Sc  Sc86  1  0.89732435  0.30399477  0.70535015  1
  Sc  Sc87  1  0.29477179  0.10192707  0.09168938  1
  Sc  Sc88  1  0.68971658  0.89624713  0.10147672  1
  Sc  Sc89  1  0.49893983  0.49746451  0.89634081  1
  Sc  Sc90  1  0.29920546  0.69269009  0.29896883  1
  Sc  Sc91  1  0.30420575  0.10281361  0.90173709  1
  Sc  Sc92  1  0.29931536  0.30851657  0.50989574  1
  Sc  Sc93  1  0.50118608  0.51020691  0.29084459  1
  Sc  Sc94  1  0.90370836  0.29893321  0.30569609  1
  Sc  Sc95  1  0.50701922  0.70466615  0.70612653  1
  Sc  Sc96  1  0.31147942  0.90205010  0.69128341  1
  Sc  Sc97  1  0.29076775  0.30872427  0.28869521  1
  Sc  Sc98  1  0.29979670  0.09221976  0.69427441  1
  Sc  Sc99  1  0.30228091  0.69429266  0.89912233  1
  Nb  Nb100  1  0.49868736  0.09722642  0.70345522  1
  Nb  Nb101  1  0.09751422  0.50562150  0.69725884  1
  Nb  Nb102  1  0.69399736  0.70136115  0.50206493  1
  Nb  Nb103  1  0.30619324  0.90150756  0.89593790  1
  Nb  Nb104  1  0.30422045  0.09755382  0.49952745  1
  Nb  Nb105  1  0.30394043  0.50122657  0.30355277  1
  Nb  Nb106  1  0.49917380  0.90558244  0.09605760  1
  Nb  Nb107  1  0.49686727  0.89355776  0.50252715  1
  Nb  Nb108  1  0.50088235  0.09795312  0.10003585  1
  Nb  Nb109  1  0.70798960  0.50156378  0.90451521  1
  Nb  Nb110  1  0.10228080  0.50398018  0.09504497  1
  Nb  Nb111  1  0.49198814  0.08894657  0.89341211  1
  Nb  Nb112  1  0.70457665  0.89649397  0.29786374  1
  Nb  Nb113  1  0.49519433  0.29501468  0.09364264  1
  Nb  Nb114  1  0.50413091  0.70636275  0.49779370  1
  Nb  Nb115  1  0.89304474  0.49763425  0.90141372  1
  Nb  Nb116  1  0.10292371  0.69775356  0.10719978  1
  Nb  Nb117  1  0.49856257  0.90981412  0.70585281  1
  Nb  Nb118  1  0.10168848  0.50450022  0.51006760  1
  Nb  Nb119  1  0.48980784  0.90551442  0.89488637  1
  Nb  Nb120  1  0.90022813  0.69641559  0.49603995  1
  Nb  Nb121  1  0.10284242  0.70088291  0.29474306  1
  Nb  Nb122  1  0.09603876  0.69335317  0.50224315  1
  Nb  Nb123  1  0.49875203  0.10192536  0.29553946  1
  Nb  Nb124  1  0.30960022  0.29838479  0.09275214  1
  Nb  Nb125  1  0.79560680  -0.00460953  0.39478169  1
  Nb  Nb126  1  0.20143886  -0.00926205  0.80188135  1
  Nb  Nb127  1  0.40361268  0.19949957  0.19525969  1
  Nb  Nb128  1  0.20494624  0.80737375  0.80185975  1
  Nb  Nb129  1  0.40471321  0.00120325  0.39716937  1
  Nb  Nb130  1  0.40215610  0.80775634  0.00167873  1
  Nb  Nb131  1  0.40646799  0.19294171  0.59675270  1
  Nb  Nb132  1  0.20690097  0.19873829  0.40182319  1
  Nb  Nb133  1  0.40172532  0.80737551  0.19283123  1
  Nb  Nb134  1  0.39456399  0.20184707  0.39522761  1
  Nb  Nb135  1  0.00027436  0.40524077  -0.00490086  1
  Nb  Nb136  1  0.79374023  -0.00300994  0.20743718  1
  Nb  Nb137  1  0.80665081  0.59799319  0.19830686  1
  Nb  Nb138  1  0.79559287  0.19844270  0.60329655  1
  Nb  Nb139  1  0.39561445  0.40295128  0.39340233  1
  Nb  Nb140  1  0.40600772  0.00036966  0.19930628  1
  Nb  Nb141  1  0.60474038  0.39857290  0.60370973  1
  Nb  Nb142  1  0.00078633  0.19947090  0.80293540  1
  Nb  Nb143  1  0.40371786  0.60665251  0.59388257  1
  Nb  Nb144  1  0.00662378  0.60073345  0.20075671  1
  Nb  Nb145  1  0.59285486  -0.00041815  0.60238811  1
  Nb  Nb146  1  0.80374455  0.40331006  0.19540159  1
  Nb  Nb147  1  0.60257796  0.59866888  -0.00516187  1
  Nb  Nb148  1  0.00271350  0.40987421  0.60286476  1
  Nb  Nb149  1  0.60051166  0.20078759  0.60661063  1
  Pd  Pd150  1  0.40923347  0.79465282  0.60626878  1
  Pd  Pd151  1  0.79243242  0.61228313  0.00248570  1
  Pd  Pd152  1  0.59157272  0.19383780  -0.00937311  1
  Pd  Pd153  1  0.80224995  0.61089413  0.60576907  1
  Pd  Pd154  1  0.59801190  0.00421569  -0.00750212  1
  Pd  Pd155  1  0.60360727  0.39742814  0.19551411  1
  Pd  Pd156  1  0.00967308  0.00197421  0.80188641  1
  Pd  Pd157  1  0.80048553  0.79306223  0.59353009  1
  Pd  Pd158  1  0.19601483  0.40124375  0.60693756  1
  Pd  Pd159  1  0.40376456  0.39460886  0.20480338  1
  Pd  Pd160  1  0.21151940  0.79887758  0.19622931  1
  Pd  Pd161  1  0.01226560  0.19047707  0.39752583  1
  Pd  Pd162  1  0.19649503  0.79903410  0.60639411  1
  Pd  Pd163  1  0.01135224  0.79799271  0.80477650  1
  Pd  Pd164  1  0.00034877  -0.00953561  0.59149494  1
  Pd  Pd165  1  0.19867088  -0.00119379  -0.00699788  1
  Pd  Pd166  1  0.79936516  0.39569694  0.61080735  1
  Pd  Pd167  1  0.59509625  0.40077568  0.40154433  1
  Pd  Pd168  1  0.20844198  0.40298448  0.79782880  1
  Pd  Pd169  1  0.00508445  0.59966478  -0.00200460  1
  Pd  Pd170  1  0.00168018  0.61065600  0.80592469  1
  Pd  Pd171  1  0.59959287  0.40434055  0.80116260  1
  Pd  Pd172  1  0.79699438  0.19829666  0.20151375  1
  Pd  Pd173  1  0.79348752  -0.00434737  0.00723516  1
  Pd  Pd174  1  0.59023554  0.79644285  -0.00150446  1
  Pd  Pd175  1  0.40083890  0.40376758  -0.00593329  1
  Pd  Pd176  1  0.20314305  0.00344454  0.40556705  1
  Pd  Pd177  1  0.80111286  0.80193047  0.80586848  1
  Pd  Pd178  1  0.60228480  -0.00418095  0.40089734  1
  Pd  Pd179  1  0.79509814  0.20145748  0.00514259  1
  Pd  Pd180  1  0.59453730  0.59970804  0.60483015  1
  Pd  Pd181  1  -0.00832330  -0.00111929  0.40076455  1
  Pd  Pd182  1  0.20210677  0.19947918  0.19860721  1
  Pd  Pd183  1  0.20175536  0.40425719  0.18957133  1
  Pd  Pd184  1  0.79912125  -0.00696560  0.81266262  1
  Pd  Pd185  1  0.80476807  0.61177560  0.79934681  1
  Pd  Pd186  1  0.00925850  0.60069368  0.39656710  1
  Pd  Pd187  1  0.78691613  0.60706882  0.39321730  1
  Pd  Pd188  1  0.59676968  0.19695528  0.80576674  1
  Pd  Pd189  1  0.19943120  0.18721480  0.79404157  1
  Pd  Pd190  1  0.00647553  0.19677020  0.20358806  1
  Pd  Pd191  1  0.00119453  0.40590885  0.19280400  1
  Pd  Pd192  1  0.79478267  0.80281463  -0.00626703  1
  Pd  Pd193  1  0.20146286  0.60611869  0.40542015  1
  Pd  Pd194  1  0.38894504  0.40099245  0.81007674  1
  Pd  Pd195  1  0.39786229  0.59486510  0.79322867  1
  Pd  Pd196  1  0.20759211  0.79815104  -0.00410253  1
  Pd  Pd197  1  0.60613667  0.60756839  0.39354384  1
  Pd  Pd198  1  0.00374408  0.40567326  0.41098012  1
  Pd  Pd199  1  0.20906703  0.19780535  0.59816389  1
  Rh  Rh200  1  0.19779915  0.59207237  0.19909453  1
  Rh  Rh201  1  0.79364052  0.00070507  0.58764929  1
  Rh  Rh202  1  0.80043922  0.40059072  0.38834781  1
  Rh  Rh203  1  0.19618230  0.60717878  0.79736560  1
  Rh  Rh204  1  0.79783520  0.40574026  0.80162194  1
  Rh  Rh205  1  0.40937319  0.60079250  0.00223135  1
  Rh  Rh206  1  0.20170648  0.20185433  0.00578091  1
  Rh  Rh207  1  0.59823360  0.59350614  0.80569220  1
  Rh  Rh208  1  0.80821892  0.19386798  0.79903070  1
  Rh  Rh209  1  0.59418266  0.20726130  0.19576360  1
  Rh  Rh210  1  0.39751185  0.59606968  0.40397872  1
  Rh  Rh211  1  0.58864277  0.40488921  -0.00269273  1
  Rh  Rh212  1  0.40163087  0.00109369  0.00396196  1
  Rh  Rh213  1  0.80671046  0.39119709  0.00656638  1
  Rh  Rh214  1  -0.00171648  -0.00369076  0.00581959  1
  Rh  Rh215  1  0.20040946  -0.00515774  0.19650200  1
  Rh  Rh216  1  0.40414898  0.19058181  0.00293793  1
  Rh  Rh217  1  0.59238636  0.80579944  0.60453841  1
  Rh  Rh218  1  0.80361152  0.19277380  0.40109504  1
  Rh  Rh219  1  0.59968040  -0.00122603  0.80175105  1
  Rh  Rh220  1  0.60208542  -0.00263123  0.20056551  1
  Rh  Rh221  1  0.19654725  0.59813442  0.00147240  1
  Rh  Rh222  1  0.20828952  0.60596369  0.59786822  1
  Rh  Rh223  1  0.39819764  0.80323955  0.80137167  1
  Rh  Rh224  1  -0.00563161  0.59826237  0.59685305  1
  Rh  Rh225  1  -0.01123653  -0.00178744  0.20008875  1
  Rh  Rh226  1  0.60112375  0.79467453  0.39921589  1
  Rh  Rh227  1  0.19778721  0.40051933  0.00541927  1
  Rh  Rh228  1  0.20608620  0.39314916  0.40394263  1
  Rh  Rh229  1  0.61230156  0.60074349  0.19093442  1
  Rh  Rh230  1  -0.00141972  0.79304315  0.20565361  1
  Rh  Rh231  1  0.59340154  0.79981855  0.19865103  1
  Rh  Rh232  1  0.40514035  0.80604482  0.39287734  1
  Rh  Rh233  1  0.59484148  0.21230401  0.40125927  1
  Rh  Rh234  1  0.00294991  0.79721864  -0.00028620  1
  Rh  Rh235  1  -0.01115937  0.21060521  0.61265033  1
  Rh  Rh236  1  0.40923160  0.00350692  0.58982515  1
  Rh  Rh237  1  0.19491196  0.78986640  0.39929686  1
  Rh  Rh238  1  0.39449824  0.60350505  0.20139952  1
  Rh  Rh239  1  0.79462439  0.79803509  0.40530350  1
  Rh  Rh240  1  0.80433878  0.80144303  0.20176982  1
  Rh  Rh241  1  0.39515123  0.19266228  0.79446266  1
  Rh  Rh242  1  0.59319279  0.80997864  0.79821966  1
  Rh  Rh243  1  0.19849753  -0.00671889  0.60212603  1
  Rh  Rh244  1  0.00151755  0.79647578  0.59209917  1
  Rh  Rh245  1  -0.00200316  0.39775561  0.80125454  1
  Rh  Rh246  1  0.38915328  0.00562224  0.79774410  1
  Rh  Rh247  1  0.00426157  0.20896479  -0.00392184  1
  Rh  Rh248  1  0.00909038  0.79065160  0.40271992  1
  Rh  Rh249  1  0.40764197  0.40891924  0.58662418  1
