# generated using pymatgen
data_ZrScNbPdRh
_symmetry_space_group_name_H-M   'P 1'
_cell_length_a   16.55962002
_cell_length_b   16.55494296
_cell_length_c   16.55544569
_cell_angle_alpha   90.01116798
_cell_angle_beta   89.98592122
_cell_angle_gamma   89.98510104
_symmetry_Int_Tables_number   1
_chemical_formula_structural   ZrScNbPdRh
_chemical_formula_sum   'Zr50 Sc50 Nb50 Pd50 Rh50'
_cell_volume   4538.56852542
_cell_formula_units_Z   50
loop_
 _symmetry_equiv_pos_site_id
 _symmetry_equiv_pos_as_xyz
  1  'x, y, z'
loop_
 _atom_site_type_symbol
 _atom_site_label
 _atom_site_symmetry_multiplicity
 _atom_site_fract_x
 _atom_site_fract_y
 _atom_site_fract_z
 _atom_site_occupancy
  Zr  Zr0  1  0.90482920  0.69872383  0.70411071  1
  Zr  Zr1  1  0.10898280  0.90399883  0.50717515  1
  Zr  Zr2  1  0.69703560  0.29122281  0.30767462  1
  Zr  Zr3  1  0.70332819  0.90307130  0.89535617  1
  Zr  Zr4  1  0.49153271  0.29783544  0.69517177  1
  Zr  Zr5  1  0.49585898  0.89927481  0.89773764  1
  Zr  Zr6  1  0.09895558  0.49805853  0.69939549  1
  Zr  Zr7  1  0.50381632  0.90254366  0.29615936  1
  Zr  Zr8  1  0.70155261  0.71044624  0.29670578  1
  Zr  Zr9  1  0.49380369  0.50018210  0.29844265  1
  Zr  Zr10  1  0.10016302  0.90746964  0.70642886  1
  Zr  Zr11  1  0.69515836  0.70696797  0.50326822  1
  Zr  Zr12  1  0.70568640  0.69600799  0.89927939  1
  Zr  Zr13  1  0.29485484  0.90283237  0.70429171  1
  Zr  Zr14  1  0.91282001  0.10245378  0.70203679  1
  Zr  Zr15  1  0.09619505  0.10433992  0.10280878  1
  Zr  Zr16  1  0.89718631  0.29728690  0.89573892  1
  Zr  Zr17  1  0.29907578  0.49677240  0.29908461  1
  Zr  Zr18  1  0.90607918  0.10187421  0.49680596  1
  Zr  Zr19  1  0.29355077  0.89729168  0.09936193  1
  Zr  Zr20  1  0.89898601  0.50399362  0.90140953  1
  Zr  Zr21  1  0.29773641  0.69414240  0.30488857  1
  Zr  Zr22  1  0.09533559  0.10193561  0.89009494  1
  Zr  Zr23  1  0.09999727  0.30273204  0.09358390  1
  Zr  Zr24  1  0.49489749  0.50164602  0.50238792  1
  Zr  Zr25  1  0.49396697  0.69304635  0.49817723  1
  Zr  Zr26  1  0.69861254  0.49769673  0.49752429  1
  Zr  Zr27  1  0.90499064  0.49660521  0.30125942  1
  Zr  Zr28  1  0.49525010  0.29471947  0.90380474  1
  Zr  Zr29  1  0.50120197  0.50020616  0.69863844  1
  Zr  Zr30  1  0.70470139  0.10230218  0.70172436  1
  Zr  Zr31  1  0.50329510  0.89723863  0.09710610  1
  Zr  Zr32  1  0.90013061  0.89540985  0.70433540  1
  Zr  Zr33  1  0.49119104  0.70267424  0.90056136  1
  Zr  Zr34  1  0.50202869  0.29517829  0.49821779  1
  Zr  Zr35  1  0.70799865  0.49857826  0.09821966  1
  Zr  Zr36  1  0.30362367  0.10008672  0.88966668  1
  Zr  Zr37  1  0.29300502  0.30062194  0.70465117  1
  Zr  Zr38  1  0.90200786  0.09824853  0.30279875  1
  Zr  Zr39  1  0.09803431  0.69714228  0.50128541  1
  Zr  Zr40  1  0.09641153  0.68798362  0.30528756  1
  Zr  Zr41  1  0.49706613  0.10129732  0.51344322  1
  Zr  Zr42  1  0.49665250  0.50786043  0.90077555  1
  Zr  Zr43  1  0.89803804  0.70236183  0.89271400  1
  Zr  Zr44  1  0.29482930  0.10523638  0.69767436  1
  Zr  Zr45  1  0.70303642  0.10824079  0.49548078  1
  Zr  Zr46  1  0.50075876  0.30198109  0.28828089  1
  Zr  Zr47  1  0.90705773  0.89837013  0.89927138  1
  Zr  Zr48  1  0.70081010  0.70292121  0.09797258  1
  Zr  Zr49  1  0.50229234  0.10090411  0.90317382  1
  Sc  Sc50  1  0.09444833  0.10034455  0.29458536  1
  Sc  Sc51  1  0.50060222  0.69948115  0.70303458  1
  Sc  Sc52  1  0.09948730  0.50086449  0.30865596  1
  Sc  Sc53  1  0.10006056  0.49895141  0.50066545  1
  Sc  Sc54  1  0.29324076  0.50085881  0.69536498  1
  Sc  Sc55  1  0.89816141  0.69368791  0.08246361  1
  Sc  Sc56  1  0.70306752  0.89919974  0.10044628  1
  Sc  Sc57  1  0.70873523  0.10031861  0.90267907  1
  Sc  Sc58  1  0.69768526  0.48776686  0.29579581  1
  Sc  Sc59  1  0.11225319  0.49570752  0.90381535  1
  Sc  Sc60  1  0.29235157  0.30284522  0.90278341  1
  Sc  Sc61  1  0.09841821  0.89712579  0.29922419  1
  Sc  Sc62  1  0.29416071  0.30179163  0.29693678  1
  Sc  Sc63  1  0.29331785  0.70330089  0.08864377  1
  Sc  Sc64  1  0.89611209  0.90227925  0.29921909  1
  Sc  Sc65  1  0.89768769  0.30056065  0.69321760  1
  Sc  Sc66  1  0.90511879  0.70298075  0.49564791  1
  Sc  Sc67  1  0.90070215  0.29909477  0.49932925  1
  Sc  Sc68  1  0.90587541  0.30569115  0.09730228  1
  Sc  Sc69  1  0.50259136  0.69800179  0.09565450  1
  Sc  Sc70  1  0.28520942  0.90595633  0.29955125  1
  Sc  Sc71  1  0.09503088  0.30208288  0.30800807  1
  Sc  Sc72  1  0.10077878  0.89342152  0.09791476  1
  Sc  Sc73  1  0.70134060  0.49943552  0.88923804  1
  Sc  Sc74  1  0.30349870  0.50175137  0.09117081  1
  Sc  Sc75  1  0.48834888  0.09765160  0.70535665  1
  Sc  Sc76  1  0.50430018  0.90535950  0.70463950  1
  Sc  Sc77  1  0.90249012  0.50177506  0.69698506  1
  Sc  Sc78  1  0.49486675  0.49821544  0.10254574  1
  Sc  Sc79  1  0.90744219  0.49302377  0.50668303  1
  Sc  Sc80  1  0.49790451  0.90778388  0.51649451  1
  Sc  Sc81  1  0.89840218  0.09939062  0.90353759  1
  Sc  Sc82  1  0.50034426  0.69299659  0.29685641  1
  Sc  Sc83  1  0.30481544  0.29778346  0.09998758  1
  Sc  Sc84  1  0.90591501  0.29961177  0.30420048  1
  Sc  Sc85  1  0.09538727  0.30275233  0.50272311  1
  Sc  Sc86  1  0.70161711  0.09418451  0.09741347  1
  Sc  Sc87  1  0.29685721  0.30209409  0.51154735  1
  Sc  Sc88  1  0.90347951  0.90608947  0.49290355  1
  Sc  Sc89  1  0.70657479  0.90283048  0.29355593  1
  Sc  Sc90  1  0.70614270  0.09712422  0.30111770  1
  Sc  Sc91  1  0.51223377  0.11261666  0.29331990  1
  Sc  Sc92  1  0.29103339  0.69371900  0.50148455  1
  Sc  Sc93  1  0.89819717  0.90279465  0.09369200  1
  Sc  Sc94  1  0.10399121  0.70221142  0.90119057  1
  Sc  Sc95  1  0.10450631  0.29968916  0.90326365  1
  Sc  Sc96  1  0.90543892  0.49361845  0.09593610  1
  Sc  Sc97  1  0.70591061  0.30175032  0.10500788  1
  Sc  Sc98  1  0.10541146  0.69611937  0.70376608  1
  Sc  Sc99  1  0.29963039  0.88605315  0.89755583  1
  Nb  Nb100  1  0.10004783  0.69444053  0.10298380  1
  Nb  Nb101  1  0.70213324  0.89617003  0.69259283  1
  Nb  Nb102  1  0.90043961  0.69768066  0.30273062  1
  Nb  Nb103  1  0.10123535  0.90325748  0.90003928  1
  Nb  Nb104  1  0.29285910  0.71013534  0.70937990  1
  Nb  Nb105  1  0.29458331  0.09941839  0.29771729  1
  Nb  Nb106  1  0.70178757  0.29845622  0.50507197  1
  Nb  Nb107  1  0.10120780  0.50005145  0.09855200  1
  Nb  Nb108  1  0.29665173  0.09305581  0.50119658  1
  Nb  Nb109  1  0.30153432  0.50225929  0.89659394  1
  Nb  Nb110  1  0.50368317  0.28951071  0.09884985  1
  Nb  Nb111  1  0.09908739  0.29313166  0.70366098  1
  Nb  Nb112  1  0.10056663  0.10433321  0.69515607  1
  Nb  Nb113  1  0.70198964  0.30015168  0.89106326  1
  Nb  Nb114  1  0.89974755  0.10120159  0.10651457  1
  Nb  Nb115  1  0.29298495  0.09624138  0.10826687  1
  Nb  Nb116  1  0.69513314  0.90495565  0.50839667  1
  Nb  Nb117  1  0.09873880  0.09992371  0.51440746  1
  Nb  Nb118  1  0.70249542  0.49865960  0.69645786  1
  Nb  Nb119  1  0.30116116  0.49472208  0.49471432  1
  Nb  Nb120  1  0.30282546  0.69800179  0.89292532  1
  Nb  Nb121  1  0.49687894  0.10869102  0.09825652  1
  Nb  Nb122  1  0.71044485  0.70612439  0.69924826  1
  Nb  Nb123  1  0.70406573  0.30516602  0.70184284  1
  Nb  Nb124  1  0.29906348  0.90263303  0.50332556  1
  Nb  Nb125  1  0.19502800  0.40517887  0.19377665  1
  Nb  Nb126  1  0.39571769  0.00454842  0.00835505  1
  Nb  Nb127  1  0.39610970  0.80488683  0.20410653  1
  Nb  Nb128  1  0.39873941  0.39626921  0.40171240  1
  Nb  Nb129  1  -0.00173091  0.78518118  0.19892469  1
  Nb  Nb130  1  0.59839243  0.39239814  -0.00439092  1
  Nb  Nb131  1  0.59519396  0.80827350  0.40596394  1
  Nb  Nb132  1  0.20279534  0.19078299  0.40617974  1
  Nb  Nb133  1  0.80812042  0.19727005  0.20045704  1
  Nb  Nb134  1  0.39721161  0.40441511  0.80316384  1
  Nb  Nb135  1  0.00387598  0.39681347  0.79932629  1
  Nb  Nb136  1  0.79800011  -0.00240546  0.60111843  1
  Nb  Nb137  1  0.39902898  0.80899437  0.40265961  1
  Nb  Nb138  1  0.39238911  0.19484480  0.39969935  1
  Nb  Nb139  1  0.80555171  0.60224641  0.20548434  1
  Nb  Nb140  1  0.59680962  -0.00139202  0.40590543  1
  Nb  Nb141  1  0.20086555  0.00259338  -0.00233442  1
  Nb  Nb142  1  0.38979160  0.80032085  0.59989004  1
  Nb  Nb143  1  0.39784610  0.00468827  0.39686585  1
  Nb  Nb144  1  0.39857699  0.00575028  0.19918176  1
  Nb  Nb145  1  0.00543755  0.80302432  0.60239455  1
  Nb  Nb146  1  0.60472638  0.20728582  0.80052940  1
  Nb  Nb147  1  0.79933713  0.60119111  0.39846073  1
  Nb  Nb148  1  0.79462141  0.60383885  0.59827466  1
  Nb  Nb149  1  0.60747852  0.39545285  0.60253161  1
  Pd  Pd150  1  0.80438888  0.39886954  0.40107728  1
  Pd  Pd151  1  0.60598577  0.59893352  0.60712193  1
  Pd  Pd152  1  0.80750725  0.19670618  0.60112941  1
  Pd  Pd153  1  0.60633679  0.60778090  0.79427320  1
  Pd  Pd154  1  0.00751000  0.39889550  0.20095054  1
  Pd  Pd155  1  0.79519627  0.39662985  -0.00443716  1
  Pd  Pd156  1  0.60501197  0.80042082  -0.00617685  1
  Pd  Pd157  1  0.39350192  0.60962396  0.18927690  1
  Pd  Pd158  1  0.20247567  0.79863740  0.40059409  1
  Pd  Pd159  1  0.59356918  0.39786978  0.40439752  1
  Pd  Pd160  1  0.58817296  0.79836674  0.60258976  1
  Pd  Pd161  1  0.60699712  0.60425486  0.38998856  1
  Pd  Pd162  1  0.59833730  0.00032896  0.00150292  1
  Pd  Pd163  1  0.00729738  0.59736364  -0.00644283  1
  Pd  Pd164  1  0.60228650  0.20134410  0.61077776  1
  Pd  Pd165  1  -0.00800556  0.60058257  0.19389863  1
  Pd  Pd166  1  0.39537070  0.19809942  0.20462342  1
  Pd  Pd167  1  0.20277045  0.60212794  -0.00498611  1
  Pd  Pd168  1  0.39231685  0.59696780  0.79059657  1
  Pd  Pd169  1  0.40341514  0.39972244  -0.00137865  1
  Pd  Pd170  1  0.19505956  0.79260293  0.20332476  1
  Pd  Pd171  1  0.00493296  0.00280440  0.00282884  1
  Pd  Pd172  1  0.38834788  0.19481860  0.00239924  1
  Pd  Pd173  1  0.61375530  0.20385895  -0.00084006  1
  Pd  Pd174  1  0.79562422  0.80420005  0.40524141  1
  Pd  Pd175  1  0.00041464  -0.01290012  0.19621369  1
  Pd  Pd176  1  0.00501821  0.79606579  0.00393619  1
  Pd  Pd177  1  0.20204658  0.59914448  0.60058324  1
  Pd  Pd178  1  0.19132376  0.21024110  0.20659859  1
  Pd  Pd179  1  0.59218007  0.39547010  0.79980514  1
  Pd  Pd180  1  0.00248039  0.80480368  0.39905958  1
  Pd  Pd181  1  0.60332428  0.79586032  0.79832891  1
  Pd  Pd182  1  0.00987192  0.59301836  0.80842604  1
  Pd  Pd183  1  0.60287203  0.59108870  0.00113690  1
  Pd  Pd184  1  0.60027350  0.00759152  0.19979809  1
  Pd  Pd185  1  0.20530746  0.19315826  -0.00145034  1
  Pd  Pd186  1  0.01062436  0.00074221  0.39849888  1
  Pd  Pd187  1  0.81097833  0.40463566  0.79516956  1
  Pd  Pd188  1  0.19324872  0.00628294  0.39853958  1
  Pd  Pd189  1  0.19307140  0.39907329  0.59766977  1
  Pd  Pd190  1  0.80567293  0.00035092  0.79626257  1
  Pd  Pd191  1  -0.00491915  0.20040482  -0.00153340  1
  Pd  Pd192  1  0.60181949  0.00790146  0.79671670  1
  Pd  Pd193  1  0.59849330  0.39907348  0.18940275  1
  Pd  Pd194  1  0.81424174  0.79478434  0.19000991  1
  Pd  Pd195  1  0.38625568  0.60691031  0.60739167  1
  Pd  Pd196  1  0.60786173  0.59747467  0.19966690  1
  Pd  Pd197  1  0.81281697  0.80212485  0.59112933  1
  Pd  Pd198  1  0.20363107  0.59296948  0.19629298  1
  Pd  Pd199  1  0.79948112  0.20214775  0.00829489  1
  Rh  Rh200  1  -0.00057774  0.00233683  0.80093961  1
  Rh  Rh201  1  0.19456793  0.80043344  -0.00717200  1
  Rh  Rh202  1  0.39741789  -0.00616372  0.80534388  1
  Rh  Rh203  1  0.00450373  0.39407969  0.60875409  1
  Rh  Rh204  1  0.20382674  0.40292812  0.00734866  1
  Rh  Rh205  1  0.00043814  0.40103328  0.40598225  1
  Rh  Rh206  1  0.61510592  0.19716502  0.19079052  1
  Rh  Rh207  1  -0.00565734  0.20504875  0.20042497  1
  Rh  Rh208  1  -0.00558758  0.60915992  0.59705609  1
  Rh  Rh209  1  0.00961228  0.19563052  0.40566064  1
  Rh  Rh210  1  -0.00592350  -0.00626022  0.60171754  1
  Rh  Rh211  1  0.19371499  0.80005569  0.80636533  1
  Rh  Rh212  1  -0.00003896  0.20678246  0.79995071  1
  Rh  Rh213  1  0.20039690  0.59281558  0.40576351  1
  Rh  Rh214  1  0.39908747  0.79983634  0.00460558  1
  Rh  Rh215  1  0.40067567  0.20896085  0.79987683  1
  Rh  Rh216  1  0.80357606  -0.00164373  0.00061846  1
  Rh  Rh217  1  0.40263819  0.40403907  0.60127263  1
  Rh  Rh218  1  0.40196554  0.80130773  0.79060000  1
  Rh  Rh219  1  0.79800333  0.59552953  0.00145652  1
  Rh  Rh220  1  0.19830701  0.79791069  0.60205661  1
  Rh  Rh221  1  0.20571410  0.39440841  0.39841187  1
  Rh  Rh222  1  0.00955014  0.79935320  0.79710979  1
  Rh  Rh223  1  0.00302076  0.40436457  -0.01111491  1
  Rh  Rh224  1  0.39082521  -0.00525515  0.60458512  1
  Rh  Rh225  1  0.59286885  0.79540195  0.20260392  1
  Rh  Rh226  1  -0.00826301  0.59377735  0.40823737  1
  Rh  Rh227  1  0.79614919  0.80297965  0.80480331  1
  Rh  Rh228  1  0.38901194  0.19785453  0.59753536  1
  Rh  Rh229  1  0.00061159  0.20552065  0.59805699  1
  Rh  Rh230  1  0.79504315  0.40438201  0.59759146  1
  Rh  Rh231  1  0.79951084  0.20025127  0.79737282  1
  Rh  Rh232  1  0.19925656  0.40093304  0.79901032  1
  Rh  Rh233  1  0.60839417  0.00962775  0.60443966  1
  Rh  Rh234  1  0.39496062  0.39593689  0.19931090  1
  Rh  Rh235  1  0.39358883  0.59593877  0.40042423  1
  Rh  Rh236  1  0.80329118  0.00630376  0.19759041  1
  Rh  Rh237  1  0.79743462  0.80621970  -0.00485687  1
  Rh  Rh238  1  0.19707402  0.20096578  0.59519448  1
  Rh  Rh239  1  0.80465684  0.39605262  0.20568422  1
  Rh  Rh240  1  0.19193246  -0.00068143  0.19481997  1
  Rh  Rh241  1  0.19618345  0.20074051  0.80165486  1
  Rh  Rh242  1  0.79062949  -0.00541896  0.40695443  1
  Rh  Rh243  1  0.79629882  0.59602936  0.79026263  1
  Rh  Rh244  1  0.20239005  0.00359535  0.60678408  1
  Rh  Rh245  1  0.59561504  0.19479288  0.40207607  1
  Rh  Rh246  1  0.80564450  0.20575269  0.39522190  1
  Rh  Rh247  1  0.39624284  0.60627628  0.00050523  1
  Rh  Rh248  1  0.19904975  0.00110456  0.80608732  1
  Rh  Rh249  1  0.20386091  0.59999718  0.80321352  1
