# generated using pymatgen
data_ZrScNbPdRh
_symmetry_space_group_name_H-M   'P 1'
_cell_length_a   16.56726258
_cell_length_b   16.56772219
_cell_length_c   16.56462951
_cell_angle_alpha   89.97872991
_cell_angle_beta   90.02430491
_cell_angle_gamma   89.99422756
_symmetry_Int_Tables_number   1
_chemical_formula_structural   ZrScNbPdRh
_chemical_formula_sum   'Zr50 Sc50 Nb50 Pd50 Rh50'
_cell_volume   4546.68864151
_cell_formula_units_Z   50
loop_
 _symmetry_equiv_pos_site_id
 _symmetry_equiv_pos_as_xyz
  1  'x, y, z'
loop_
 _atom_site_type_symbol
 _atom_site_label
 _atom_site_symmetry_multiplicity
 _atom_site_fract_x
 _atom_site_fract_y
 _atom_site_fract_z
 _atom_site_occupancy
  Zr  Zr0  1  0.90898879  0.90423916  0.30349882  1
  Zr  Zr1  1  0.10439470  0.89781744  0.49305116  1
  Zr  Zr2  1  0.91465415  0.50128101  0.10109078  1
  Zr  Zr3  1  0.90529863  0.29904485  0.29743900  1
  Zr  Zr4  1  0.50807938  0.30503099  0.69978739  1
  Zr  Zr5  1  0.68798311  0.29775555  0.89472906  1
  Zr  Zr6  1  0.69962475  0.89758872  0.50802980  1
  Zr  Zr7  1  0.89831759  0.10675803  0.30156532  1
  Zr  Zr8  1  0.70171927  0.70316307  0.50306456  1
  Zr  Zr9  1  0.90261777  0.89810572  0.90574482  1
  Zr  Zr10  1  0.89567436  0.70236421  0.50277483  1
  Zr  Zr11  1  0.90482467  0.50142979  0.51304556  1
  Zr  Zr12  1  0.70848903  0.90559787  0.90080779  1
  Zr  Zr13  1  0.08864132  0.49805849  0.69863567  1
  Zr  Zr14  1  0.88970180  0.70128462  0.09691309  1
  Zr  Zr15  1  0.29541762  0.49528061  0.29511988  1
  Zr  Zr16  1  0.89911319  0.69556382  0.69940807  1
  Zr  Zr17  1  0.70659859  0.69796611  0.29660015  1
  Zr  Zr18  1  0.89451968  0.49514869  0.30836273  1
  Zr  Zr19  1  0.29421224  0.89993813  0.70324341  1
  Zr  Zr20  1  0.51219629  0.49360015  0.90495191  1
  Zr  Zr21  1  0.30082878  0.89795444  0.90004438  1
  Zr  Zr22  1  0.70181331  0.10954308  0.31051577  1
  Zr  Zr23  1  0.69977954  0.10529334  0.70081241  1
  Zr  Zr24  1  0.30021749  0.89552920  0.30982985  1
  Zr  Zr25  1  0.09912451  0.49027261  0.50357679  1
  Zr  Zr26  1  0.50655769  0.69209271  0.88999684  1
  Zr  Zr27  1  0.90358266  0.10999050  0.69812016  1
  Zr  Zr28  1  0.09745367  0.10127924  0.70041704  1
  Zr  Zr29  1  0.50169780  0.09739939  0.10471808  1
  Zr  Zr30  1  0.30231792  0.49429308  0.49526375  1
  Zr  Zr31  1  0.70002393  0.70705811  0.70139490  1
  Zr  Zr32  1  0.30012673  0.29063532  0.90058993  1
  Zr  Zr33  1  0.89603372  0.70396171  0.89103199  1
  Zr  Zr34  1  0.29542962  0.90139870  0.50204090  1
  Zr  Zr35  1  0.29511191  0.29891444  0.30718742  1
  Zr  Zr36  1  0.29923696  0.70247578  0.70257299  1
  Zr  Zr37  1  0.09898161  0.30451352  0.90180333  1
  Zr  Zr38  1  0.50436678  0.90998197  0.50247562  1
  Zr  Zr39  1  0.90081456  0.89769724  0.70963853  1
  Zr  Zr40  1  0.89606119  0.90433116  0.09067025  1
  Zr  Zr41  1  0.10631366  0.70564540  0.70316940  1
  Zr  Zr42  1  0.09880730  0.69840292  0.30358072  1
  Zr  Zr43  1  0.30370170  0.69789012  0.30104331  1
  Zr  Zr44  1  0.70864505  0.49705952  0.50048456  1
  Zr  Zr45  1  0.69947725  0.50570604  0.08965313  1
  Zr  Zr46  1  0.90206131  0.10323933  0.10409642  1
  Zr  Zr47  1  0.70178281  0.89529208  0.10066255  1
  Zr  Zr48  1  0.69475255  0.09625706  0.09440066  1
  Zr  Zr49  1  0.50500908  0.50106561  0.51153292  1
  Sc  Sc50  1  0.10295048  0.09586817  0.50825744  1
  Sc  Sc51  1  0.89761873  0.30495957  0.11082298  1
  Sc  Sc52  1  0.70313488  0.49736093  0.89981190  1
  Sc  Sc53  1  0.31405661  0.89611174  0.09725071  1
  Sc  Sc54  1  0.49555586  0.70571033  0.10190459  1
  Sc  Sc55  1  0.89674193  0.30625315  0.88904181  1
  Sc  Sc56  1  0.10620508  0.30096963  0.29791597  1
  Sc  Sc57  1  0.89939650  0.30050368  0.70102206  1
  Sc  Sc58  1  0.09084416  0.68793114  0.08911709  1
  Sc  Sc59  1  0.29648170  0.09267187  0.70405236  1
  Sc  Sc60  1  0.49562867  0.49519027  0.09867044  1
  Sc  Sc61  1  0.90265879  0.90134770  0.49469646  1
  Sc  Sc62  1  0.70566345  0.29928192  0.70085150  1
  Sc  Sc63  1  0.09165242  0.89131203  0.89563351  1
  Sc  Sc64  1  0.30126062  0.10247991  0.89505727  1
  Sc  Sc65  1  0.10155216  0.10852563  0.89580737  1
  Sc  Sc66  1  0.69109625  0.90301178  0.70092759  1
  Sc  Sc67  1  0.90111440  0.68959147  0.30137600  1
  Sc  Sc68  1  0.49895419  0.30257120  0.08602008  1
  Sc  Sc69  1  0.50508489  0.10975569  0.90226346  1
  Sc  Sc70  1  0.70392433  0.30365943  0.09922570  1
  Sc  Sc71  1  0.29560854  0.09979742  0.30661988  1
  Sc  Sc72  1  0.69158594  0.89347425  0.30219351  1
  Sc  Sc73  1  0.29748529  0.29178911  0.69819510  1
  Sc  Sc74  1  0.50072946  0.90375033  0.10692909  1
  Sc  Sc75  1  0.30275685  0.09944035  0.09802565  1
  Sc  Sc76  1  0.90136313  0.09457542  0.89410179  1
  Sc  Sc77  1  0.30077638  0.70288789  0.49096911  1
  Sc  Sc78  1  0.71735123  0.30050898  0.30335826  1
  Sc  Sc79  1  0.08999535  0.49697771  0.29730731  1
  Sc  Sc80  1  0.89389625  0.30713464  0.50697233  1
  Sc  Sc81  1  0.29736707  0.09337940  0.49309000  1
  Sc  Sc82  1  0.30579682  0.50214675  0.69905360  1
  Sc  Sc83  1  0.49553380  0.29545281  0.31218789  1
  Sc  Sc84  1  0.49461607  0.30374149  0.49721033  1
  Sc  Sc85  1  0.28615490  0.50359652  0.90542515  1
  Sc  Sc86  1  0.30049008  0.70574721  0.09343986  1
  Sc  Sc87  1  0.09551400  0.10456578  0.10266090  1
  Sc  Sc88  1  0.69525538  0.49546902  0.69227516  1
  Sc  Sc89  1  0.49116287  0.70886876  0.30327305  1
  Sc  Sc90  1  0.09918803  0.69903679  0.49774837  1
  Sc  Sc91  1  0.48564907  0.50668528  0.29939354  1
  Sc  Sc92  1  0.29154507  0.30789293  0.10349607  1
  Sc  Sc93  1  0.50020214  0.70064592  0.50176600  1
  Sc  Sc94  1  0.08390045  0.90033955  0.08601807  1
  Sc  Sc95  1  0.69396019  0.10098164  0.89558453  1
  Sc  Sc96  1  0.09927649  0.10280301  0.29927285  1
  Sc  Sc97  1  0.29084976  0.70178484  0.89600996  1
  Sc  Sc98  1  0.50172398  0.50801804  0.69944350  1
  Sc  Sc99  1  0.50333272  0.08613100  0.70046659  1
  Nb  Nb100  1  0.70012406  0.29900691  0.50237711  1
  Nb  Nb101  1  0.90315296  0.49777139  0.70290242  1
  Nb  Nb102  1  0.50154021  0.70311117  0.69931274  1
  Nb  Nb103  1  0.50329179  0.89810920  0.89234917  1
  Nb  Nb104  1  0.10737714  0.49152336  0.08637441  1
  Nb  Nb105  1  0.69999247  0.69864340  0.09489438  1
  Nb  Nb106  1  0.50557955  0.10490962  0.49049211  1
  Nb  Nb107  1  0.69975123  0.50151266  0.30265266  1
  Nb  Nb108  1  0.10254719  0.69632146  0.89988961  1
  Nb  Nb109  1  0.11125818  0.29911829  0.50744040  1
  Nb  Nb110  1  0.70208283  0.10489093  0.49858976  1
  Nb  Nb111  1  0.29488071  0.50190071  0.10038296  1
  Nb  Nb112  1  0.29468662  0.29601439  0.49465160  1
  Nb  Nb113  1  0.09512279  0.49677503  0.90778882  1
  Nb  Nb114  1  0.10055192  0.29583179  0.69806014  1
  Nb  Nb115  1  0.70028051  0.69406189  0.90902111  1
  Nb  Nb116  1  0.49980716  0.10188904  0.30864173  1
  Nb  Nb117  1  0.91338693  0.49347533  0.88571814  1
  Nb  Nb118  1  0.89403647  0.10296112  0.49891855  1
  Nb  Nb119  1  0.50054203  0.30190652  0.89643015  1
  Nb  Nb120  1  0.50065170  0.89559103  0.70151179  1
  Nb  Nb121  1  0.09985049  0.89575433  0.30071651  1
  Nb  Nb122  1  0.09452963  0.30915674  0.09936951  1
  Nb  Nb123  1  0.49246544  0.90526434  0.30164356  1
  Nb  Nb124  1  0.10373893  0.89847336  0.69074838  1
  Nb  Nb125  1  0.19939324  -0.00297621  0.00197001  1
  Nb  Nb126  1  0.00329786  0.80372913  0.60375717  1
  Nb  Nb127  1  0.40527613  0.19783804  0.20453238  1
  Nb  Nb128  1  0.39899321  0.39624453  0.80742106  1
  Nb  Nb129  1  0.59791978  0.19649725  0.59037705  1
  Nb  Nb130  1  0.40392921  0.80470559  0.60786494  1
  Nb  Nb131  1  0.60138129  0.40242426  0.20825090  1
  Nb  Nb132  1  0.19849253  0.59780355  0.19277441  1
  Nb  Nb133  1  0.19171700  0.80076011  0.19835388  1
  Nb  Nb134  1  0.19906764  0.59731447  0.59866237  1
  Nb  Nb135  1  0.80139178  0.00791235  0.59677504  1
  Nb  Nb136  1  0.19603961  0.39728531  0.80008123  1
  Nb  Nb137  1  0.00152258  0.79869292  0.19963943  1
  Nb  Nb138  1  0.80354199  0.20070939  -0.00221866  1
  Nb  Nb139  1  -0.00456439  0.20852828  0.00193270  1
  Nb  Nb140  1  0.19624870  -0.01227754  0.19672519  1
  Nb  Nb141  1  0.59560231  0.20333408  0.20530198  1
  Nb  Nb142  1  0.39863727  0.59747210  -0.00256528  1
  Nb  Nb143  1  0.00055009  0.20227431  0.41027315  1
  Nb  Nb144  1  0.40438467  0.19466880  0.59213111  1
  Nb  Nb145  1  0.60444851  0.79681192  -0.00435968  1
  Nb  Nb146  1  0.60395371  0.59661768  0.39612586  1
  Nb  Nb147  1  0.60310488  0.59898993  0.20198610  1
  Nb  Nb148  1  0.79885563  0.00172373  0.20254333  1
  Nb  Nb149  1  0.60550741  0.40517992  0.39725725  1
  Pd  Pd150  1  0.39782607  0.60396028  0.18930013  1
  Pd  Pd151  1  0.19407226  0.19552719  0.00730057  1
  Pd  Pd152  1  0.19505133  0.58872516  0.79516200  1
  Pd  Pd153  1  0.79408654  0.40415578  0.79476233  1
  Pd  Pd154  1  0.19076929  -0.00393550  0.80924187  1
  Pd  Pd155  1  0.20488737  0.19418241  0.19546915  1
  Pd  Pd156  1  0.61045597  0.59367898  0.79271937  1
  Pd  Pd157  1  0.79395065  0.59147605  0.79854848  1
  Pd  Pd158  1  -0.00681453  -0.00673962  0.59771697  1
  Pd  Pd159  1  0.59376347  0.79392607  0.19739835  1
  Pd  Pd160  1  0.79379669  -0.00619349  0.39923747  1
  Pd  Pd161  1  0.80971992  0.80712513  0.20772607  1
  Pd  Pd162  1  0.21071238  0.19037711  0.59948089  1
  Pd  Pd163  1  0.79929505  0.59173496  0.19706864  1
  Pd  Pd164  1  0.19770208  0.59189764  0.39880915  1
  Pd  Pd165  1  0.59155307  -0.00910827  -0.00600939  1
  Pd  Pd166  1  0.81302795  0.58974797  -0.01121165  1
  Pd  Pd167  1  0.40697047  0.38699274  0.20013433  1
  Pd  Pd168  1  -0.00074292  0.20749916  0.59298573  1
  Pd  Pd169  1  0.60789596  0.80259064  0.80631715  1
  Pd  Pd170  1  0.60658734  0.00583116  0.21266182  1
  Pd  Pd171  1  0.39958518  0.79815723  0.80022674  1
  Pd  Pd172  1  0.60514703  -0.00317179  0.39638720  1
  Pd  Pd173  1  0.41267039  0.79342468  -0.01188007  1
  Pd  Pd174  1  0.79622858  0.41044271  0.19564195  1
  Pd  Pd175  1  0.39953649  0.19754773  0.00666849  1
  Pd  Pd176  1  0.39910300  0.00235962  0.59774933  1
  Pd  Pd177  1  0.80362621  0.80309374  0.39442385  1
  Pd  Pd178  1  0.00601164  0.60490632  0.80254567  1
  Pd  Pd179  1  0.00708072  0.01232196  0.40398002  1
  Pd  Pd180  1  0.39323343  0.39025666  0.60729324  1
  Pd  Pd181  1  0.39368352  0.61107294  0.59537919  1
  Pd  Pd182  1  0.19359461  0.80433017  0.00546266  1
  Pd  Pd183  1  -0.00184876  0.59807073  0.40677522  1
  Pd  Pd184  1  0.40713494  0.19975279  0.78808313  1
  Pd  Pd185  1  0.39007362  0.40594411  -0.00662875  1
  Pd  Pd186  1  0.40548571  0.40371431  0.40002342  1
  Pd  Pd187  1  0.40672792  0.00301319  0.80736577  1
  Pd  Pd188  1  0.39107879  0.00549170  0.20868653  1
  Pd  Pd189  1  0.59343324  0.79440509  0.39999244  1
  Pd  Pd190  1  0.80799074  0.39760101  -0.00387217  1
  Pd  Pd191  1  0.00396641  0.38826519  0.40589759  1
  Pd  Pd192  1  0.00230034  -0.00397687  0.19869424  1
  Pd  Pd193  1  0.00770151  -0.00057150  0.80218625  1
  Pd  Pd194  1  0.20842377  0.40297464  0.60889355  1
  Pd  Pd195  1  0.79958931  0.00463750  0.79323699  1
  Pd  Pd196  1  0.39786196  0.58954788  0.80874234  1
  Pd  Pd197  1  0.40121894  0.00385742  -0.00779854  1
  Pd  Pd198  1  -0.00881341  0.60139912  -0.01033996  1
  Pd  Pd199  1  0.79610032  0.59666108  0.60788209  1
  Rh  Rh200  1  0.81066358  0.21029968  0.40868297  1
  Rh  Rh201  1  -0.00044633  0.20602908  0.80393652  1
  Rh  Rh202  1  0.19042866  0.19885389  0.40646772  1
  Rh  Rh203  1  0.80253970  0.01202545  0.00303526  1
  Rh  Rh204  1  0.00484808  0.40276263  0.19951112  1
  Rh  Rh205  1  0.60451489  0.21239475  0.40037200  1
  Rh  Rh206  1  0.00936268  0.21023851  0.20129010  1
  Rh  Rh207  1  0.19952804  0.79622057  0.39804423  1
  Rh  Rh208  1  0.40770101  0.81024105  0.41161549  1
  Rh  Rh209  1  0.20404334  0.60461959  0.00408028  1
  Rh  Rh210  1  0.19290217  0.00228812  0.39271699  1
  Rh  Rh211  1  0.20220006  0.79244633  0.59268687  1
  Rh  Rh212  1  -0.00298598  0.79475939  0.40088933  1
  Rh  Rh213  1  0.00893891  0.01537082  -0.00956221  1
  Rh  Rh214  1  -0.00263199  0.78712282  -0.00009705  1
  Rh  Rh215  1  0.79389149  0.19895925  0.59863712  1
  Rh  Rh216  1  -0.00905706  0.39488716  -0.00004031  1
  Rh  Rh217  1  0.79977430  0.60020504  0.40462209  1
  Rh  Rh218  1  0.20029602  0.00301002  0.60315099  1
  Rh  Rh219  1  0.78707620  0.19102180  0.18854455  1
  Rh  Rh220  1  0.00703242  0.39314694  0.79305654  1
  Rh  Rh221  1  0.58781376  0.60921396  0.01144082  1
  Rh  Rh222  1  0.80138355  0.19953584  0.80885340  1
  Rh  Rh223  1  0.00556855  0.79605484  0.79522173  1
  Rh  Rh224  1  0.00576500  0.60103750  0.19679914  1
  Rh  Rh225  1  0.19530961  0.80624912  0.80551692  1
  Rh  Rh226  1  0.59105738  0.79758041  0.60153762  1
  Rh  Rh227  1  0.39067688  0.19553290  0.40287641  1
  Rh  Rh228  1  0.60586708  0.20687578  0.00649305  1
  Rh  Rh229  1  0.19736591  0.20376569  0.79366807  1
  Rh  Rh230  1  0.59415722  0.19820738  0.79048172  1
  Rh  Rh231  1  0.60547101  0.39446548  0.00534207  1
  Rh  Rh232  1  0.39508498  0.80431002  0.20515088  1
  Rh  Rh233  1  0.40757157  0.59461994  0.40954751  1
  Rh  Rh234  1  0.59811395  0.40444698  0.79660064  1
  Rh  Rh235  1  0.40136814  0.00014247  0.39985011  1
  Rh  Rh236  1  0.60411851  0.60848965  0.59795098  1
  Rh  Rh237  1  0.60847155  0.00952170  0.59855251  1
  Rh  Rh238  1  0.80042347  0.39743649  0.40447819  1
  Rh  Rh239  1  0.20548255  0.39437140  -0.00589721  1
  Rh  Rh240  1  0.80253884  0.40084009  0.60798621  1
  Rh  Rh241  1  -0.00212936  0.39048021  0.60501777  1
  Rh  Rh242  1  0.79412061  0.79694874  -0.00752397  1
  Rh  Rh243  1  0.59669898  -0.00011044  0.80420760  1
  Rh  Rh244  1  0.80989889  0.81379019  0.60516430  1
  Rh  Rh245  1  0.60278718  0.39121620  0.59306808  1
  Rh  Rh246  1  0.19261036  0.40775798  0.20024550  1
  Rh  Rh247  1  0.19489562  0.39969438  0.39833894  1
  Rh  Rh248  1  0.00654398  0.61039516  0.59997956  1
  Rh  Rh249  1  0.79210855  0.80012741  0.80302028  1
