# generated using pymatgen
data_ZrScNbPdRh
_symmetry_space_group_name_H-M   'P 1'
_cell_length_a   16.55770093
_cell_length_b   16.55558012
_cell_length_c   16.54955543
_cell_angle_alpha   90.02530015
_cell_angle_beta   90.02451322
_cell_angle_gamma   90.01379702
_symmetry_Int_Tables_number   1
_chemical_formula_structural   ZrScNbPdRh
_chemical_formula_sum   'Zr50 Sc50 Nb50 Pd50 Rh50'
_cell_volume   4536.60194392
_cell_formula_units_Z   50
loop_
 _symmetry_equiv_pos_site_id
 _symmetry_equiv_pos_as_xyz
  1  'x, y, z'
loop_
 _atom_site_type_symbol
 _atom_site_label
 _atom_site_symmetry_multiplicity
 _atom_site_fract_x
 _atom_site_fract_y
 _atom_site_fract_z
 _atom_site_occupancy
  Zr  Zr0  1  0.90127813  0.89365097  0.70182146  1
  Zr  Zr1  1  0.89608544  0.29285242  0.29857412  1
  Zr  Zr2  1  0.68821654  0.89579965  0.30077175  1
  Zr  Zr3  1  0.69923664  0.89621317  0.90103966  1
  Zr  Zr4  1  0.89762870  0.70849083  0.89714534  1
  Zr  Zr5  1  0.10186824  0.10030723  0.49524148  1
  Zr  Zr6  1  0.29181156  0.49783543  0.69935929  1
  Zr  Zr7  1  0.31070343  0.69509548  0.49842962  1
  Zr  Zr8  1  0.30614726  0.09779367  0.49814251  1
  Zr  Zr9  1  0.50272523  0.90282587  0.10476721  1
  Zr  Zr10  1  0.89638160  0.90461874  0.29915181  1
  Zr  Zr11  1  0.89410307  0.49558183  0.29340501  1
  Zr  Zr12  1  0.10626993  0.09966857  0.71411007  1
  Zr  Zr13  1  0.09909329  0.30060790  0.30136361  1
  Zr  Zr14  1  0.09988878  0.30050220  0.69895098  1
  Zr  Zr15  1  0.89745182  0.70288215  0.70064685  1
  Zr  Zr16  1  0.29589023  0.50085935  0.90458802  1
  Zr  Zr17  1  0.09936815  0.89700465  0.09858312  1
  Zr  Zr18  1  0.09654713  0.69232508  0.10234637  1
  Zr  Zr19  1  0.50313648  0.50095442  0.89938404  1
  Zr  Zr20  1  0.89222354  0.09548345  0.49653374  1
  Zr  Zr21  1  0.70119539  0.30518700  0.90241466  1
  Zr  Zr22  1  0.30671445  0.89705587  0.49833660  1
  Zr  Zr23  1  0.30543792  0.69894964  0.89925968  1
  Zr  Zr24  1  0.69663792  0.50773046  0.69733253  1
  Zr  Zr25  1  0.09515834  0.49542480  0.69880230  1
  Zr  Zr26  1  0.49992316  0.28970492  0.69449566  1
  Zr  Zr27  1  0.10129239  0.10347282  0.89986191  1
  Zr  Zr28  1  0.09353091  0.69685354  0.49221215  1
  Zr  Zr29  1  0.50443727  0.30111413  0.90344953  1
  Zr  Zr30  1  0.10324959  0.50239524  0.89742147  1
  Zr  Zr31  1  0.30184276  0.29269882  0.49855117  1
  Zr  Zr32  1  0.69363847  0.69402041  0.29152027  1
  Zr  Zr33  1  0.50030771  0.29487579  0.11091570  1
  Zr  Zr34  1  0.30384350  0.90509926  0.30119563  1
  Zr  Zr35  1  0.29933636  0.30445989  0.90137051  1
  Zr  Zr36  1  0.29552700  0.10381130  0.30675521  1
  Zr  Zr37  1  0.89792272  0.10052195  0.90643715  1
  Zr  Zr38  1  0.30367829  0.90095918  0.10543086  1
  Zr  Zr39  1  0.50437250  0.69763531  0.69029132  1
  Zr  Zr40  1  0.90872612  0.89544655  0.49460455  1
  Zr  Zr41  1  0.69687178  0.90451020  0.10038399  1
  Zr  Zr42  1  0.69857583  0.49638453  0.89865989  1
  Zr  Zr43  1  0.50164520  0.69976719  0.31085836  1
  Zr  Zr44  1  0.70683247  0.09944108  0.29531495  1
  Zr  Zr45  1  0.90681470  0.69613739  0.09766962  1
  Zr  Zr46  1  0.29466709  0.30110483  0.29667372  1
  Zr  Zr47  1  0.11027786  0.50286830  0.30337168  1
  Zr  Zr48  1  0.29477753  0.50164274  0.49813255  1
  Zr  Zr49  1  0.50774320  0.89719154  0.70058962  1
  Sc  Sc50  1  0.90299710  0.49911182  0.50172952  1
  Sc  Sc51  1  0.89987147  0.89587059  0.90193544  1
  Sc  Sc52  1  0.50418339  0.90323995  0.89412305  1
  Sc  Sc53  1  0.90538836  0.10343245  0.70027731  1
  Sc  Sc54  1  0.70047697  0.29360013  0.70596560  1
  Sc  Sc55  1  0.31640190  0.90653465  0.70581494  1
  Sc  Sc56  1  0.91414813  0.69562400  0.29932226  1
  Sc  Sc57  1  0.48804390  0.69991478  0.10453987  1
  Sc  Sc58  1  0.70217525  0.49319620  0.49809162  1
  Sc  Sc59  1  0.08926441  0.69452696  0.70332796  1
  Sc  Sc60  1  0.50105482  0.89485586  0.49318128  1
  Sc  Sc61  1  0.30099764  0.30241544  0.10527226  1
  Sc  Sc62  1  0.31012955  0.90350582  0.89587628  1
  Sc  Sc63  1  0.90657682  0.30533389  0.69906194  1
  Sc  Sc64  1  0.50367556  0.50110879  0.70087701  1
  Sc  Sc65  1  0.09959568  0.90975744  0.89879484  1
  Sc  Sc66  1  0.09593702  0.09507876  0.09877774  1
  Sc  Sc67  1  0.10327846  0.30406250  0.10547811  1
  Sc  Sc68  1  0.69215602  0.90844529  0.49911169  1
  Sc  Sc69  1  0.90016884  0.10105740  0.30155084  1
  Sc  Sc70  1  0.30911273  0.69989378  0.69192758  1
  Sc  Sc71  1  0.29690169  0.09441371  0.89319320  1
  Sc  Sc72  1  0.09087503  0.90742481  0.30214052  1
  Sc  Sc73  1  0.30325102  0.10398546  0.11058294  1
  Sc  Sc74  1  0.50168986  0.70763881  0.89622756  1
  Sc  Sc75  1  0.09760592  0.30427529  0.89902180  1
  Sc  Sc76  1  0.89080756  0.30182665  0.90309490  1
  Sc  Sc77  1  0.69633479  0.30864647  0.30200617  1
  Sc  Sc78  1  0.50604302  0.10275629  0.90191012  1
  Sc  Sc79  1  0.70051135  0.49706482  0.11458813  1
  Sc  Sc80  1  0.88531705  0.09988278  0.10483869  1
  Sc  Sc81  1  0.90014836  0.50155740  0.69392680  1
  Sc  Sc82  1  0.69142409  0.09777894  0.49319691  1
  Sc  Sc83  1  0.69802577  0.29637432  0.10326555  1
  Sc  Sc84  1  0.89430253  0.49384360  0.89722975  1
  Sc  Sc85  1  0.90159241  0.90378074  0.09692240  1
  Sc  Sc86  1  0.50912169  0.49875762  0.29382014  1
  Sc  Sc87  1  0.69896762  0.10088056  0.90199359  1
  Sc  Sc88  1  0.50002291  0.89606475  0.30258948  1
  Sc  Sc89  1  0.30357885  0.68442976  0.29864822  1
  Sc  Sc90  1  0.90904763  0.69567237  0.49975377  1
  Sc  Sc91  1  0.69698725  0.69916356  0.70395402  1
  Sc  Sc92  1  0.50074432  0.50762313  0.49693837  1
  Sc  Sc93  1  0.89624607  0.29857080  0.10294288  1
  Sc  Sc94  1  0.09355667  0.69595065  0.90062735  1
  Sc  Sc95  1  0.09923710  0.30707195  0.49985915  1
  Sc  Sc96  1  0.50333377  0.09277828  0.69723351  1
  Sc  Sc97  1  0.89824279  0.30275356  0.49833884  1
  Sc  Sc98  1  0.68330265  0.69885282  0.50482646  1
  Sc  Sc99  1  0.10033576  0.50102188  0.50191954  1
  Nb  Nb100  1  0.09961472  0.10599665  0.30475793  1
  Nb  Nb101  1  0.70041925  0.50262168  0.30047191  1
  Nb  Nb102  1  0.49231038  0.70150300  0.50459092  1
  Nb  Nb103  1  0.69548682  0.29581091  0.50168278  1
  Nb  Nb104  1  0.10536212  0.69852320  0.30100415  1
  Nb  Nb105  1  0.50104748  0.11265978  0.30106210  1
  Nb  Nb106  1  0.70306051  0.69868902  0.90541257  1
  Nb  Nb107  1  0.29969826  0.29814942  0.69809622  1
  Nb  Nb108  1  0.90004896  0.50320970  0.09782392  1
  Nb  Nb109  1  0.50065824  0.30163704  0.30299935  1
  Nb  Nb110  1  0.69115677  0.09316470  0.10289142  1
  Nb  Nb111  1  0.09928078  0.89743729  0.70019625  1
  Nb  Nb112  1  0.69966766  0.90758019  0.69335902  1
  Nb  Nb113  1  0.09956048  0.89468582  0.50209842  1
  Nb  Nb114  1  0.30340995  0.51471835  0.10227774  1
  Nb  Nb115  1  0.10264236  0.50309634  0.09111197  1
  Nb  Nb116  1  0.70186053  0.08911563  0.69128005  1
  Nb  Nb117  1  0.49443785  0.50097599  0.09644105  1
  Nb  Nb118  1  0.50395236  0.29402504  0.49540752  1
  Nb  Nb119  1  0.50634021  0.10480975  0.10245649  1
  Nb  Nb120  1  0.30302544  0.49803884  0.30162814  1
  Nb  Nb121  1  0.49687954  0.12013012  0.49642323  1
  Nb  Nb122  1  0.70246359  0.70171661  0.09971187  1
  Nb  Nb123  1  0.30181992  0.10040658  0.70198121  1
  Nb  Nb124  1  0.29939508  0.69725721  0.09991943  1
  Nb  Nb125  1  0.00104810  0.40828677  0.00676085  1
  Nb  Nb126  1  0.39574755  0.20211231  0.79616264  1
  Nb  Nb127  1  0.79604914  -0.00205699  0.79409079  1
  Nb  Nb128  1  0.79700920  0.80398154  0.59604737  1
  Nb  Nb129  1  0.40249627  0.39360630  0.59484346  1
  Nb  Nb130  1  0.79907015  0.79599664  0.20117231  1
  Nb  Nb131  1  0.20042486  0.80141064  0.79650068  1
  Nb  Nb132  1  0.39954343  0.59661132  0.80029397  1
  Nb  Nb133  1  0.19619091  0.80492219  0.59946417  1
  Nb  Nb134  1  0.79583704  0.60103510  0.39289864  1
  Nb  Nb135  1  0.19801644  0.79714855  0.39771129  1
  Nb  Nb136  1  0.60571884  0.60378495  0.00347804  1
  Nb  Nb137  1  0.19927053  -0.00294236  0.60369341  1
  Nb  Nb138  1  0.20384750  0.19369602  0.60580851  1
  Nb  Nb139  1  0.79632841  0.79261641  0.39860072  1
  Nb  Nb140  1  0.79563368  0.60195173  0.00384597  1
  Nb  Nb141  1  0.20503965  0.79810337  0.00289849  1
  Nb  Nb142  1  0.40779552  0.00606771  0.00867443  1
  Nb  Nb143  1  0.40400405  0.39621532  0.39833034  1
  Nb  Nb144  1  0.79452175  0.19594511  0.59789844  1
  Nb  Nb145  1  0.20033687  0.79293858  0.20179166  1
  Nb  Nb146  1  0.59668499  0.39042265  0.59379054  1
  Nb  Nb147  1  0.00862346  -0.00389176  0.60038215  1
  Nb  Nb148  1  0.40030477  0.40619259  0.00577415  1
  Nb  Nb149  1  0.20037357  0.19962032  -0.00256176  1
  Pd  Pd150  1  0.00503693  0.58977315  0.20487949  1
  Pd  Pd151  1  -0.00793373  0.20888368  0.80702667  1
  Pd  Pd152  1  0.00487647  0.21114860  0.00537428  1
  Pd  Pd153  1  0.59106883  0.60125199  0.19030376  1
  Pd  Pd154  1  0.60346197  0.59602787  0.40568889  1
  Pd  Pd155  1  0.80130923  0.40064754  0.78868264  1
  Pd  Pd156  1  0.40127821  0.80879335  -0.00088916  1
  Pd  Pd157  1  0.19579978  0.39621193  0.79939141  1
  Pd  Pd158  1  0.40323744  0.39983478  0.79699595  1
  Pd  Pd159  1  0.59204816  0.79448125  0.00554385  1
  Pd  Pd160  1  0.40107165  0.40586936  0.20050017  1
  Pd  Pd161  1  0.59962820  0.40522825  0.01301454  1
  Pd  Pd162  1  -0.00143930  0.40379351  0.39873805  1
  Pd  Pd163  1  0.19262132  0.19402362  0.19386395  1
  Pd  Pd164  1  0.79827763  0.40108425  0.40095924  1
  Pd  Pd165  1  -0.00230735  0.20232387  0.40461889  1
  Pd  Pd166  1  0.19333965  0.61124630  0.60386971  1
  Pd  Pd167  1  0.40633208  0.00042816  0.59638509  1
  Pd  Pd168  1  0.79376478  0.39099760  0.60436361  1
  Pd  Pd169  1  0.80185295  0.59849263  0.80518577  1
  Pd  Pd170  1  -0.01106857  0.59403263  0.80309905  1
  Pd  Pd171  1  0.00030196  0.19401455  0.19540943  1
  Pd  Pd172  1  0.40930284  0.01092292  0.20242338  1
  Pd  Pd173  1  0.19450178  -0.00777206  0.40162147  1
  Pd  Pd174  1  0.79363270  -0.00742340  0.39870379  1
  Pd  Pd175  1  -0.00909660  -0.00250656  0.79949760  1
  Pd  Pd176  1  -0.00572030  0.00149321  0.00169800  1
  Pd  Pd177  1  0.00002368  0.80271560  0.20410381  1
  Pd  Pd178  1  0.00211106  0.40571920  0.19467288  1
  Pd  Pd179  1  0.79680822  0.39346727  0.19666925  1
  Pd  Pd180  1  0.60714239  0.20020847  0.00209433  1
  Pd  Pd181  1  0.79689446  0.60932647  0.58740955  1
  Pd  Pd182  1  -0.00326939  0.00915664  0.19958821  1
  Pd  Pd183  1  0.60541555  0.79695790  0.79622248  1
  Pd  Pd184  1  0.60057793  0.39752040  0.78894392  1
  Pd  Pd185  1  0.19364280  0.00027242  0.20445648  1
  Pd  Pd186  1  0.80411916  0.80049466  0.00926930  1
  Pd  Pd187  1  0.19927831  0.60824670  -0.00215546  1
  Pd  Pd188  1  0.41318446  0.00550132  0.39858750  1
  Pd  Pd189  1  0.39267354  0.19744917  -0.00490636  1
  Pd  Pd190  1  0.79099061  0.19761629  0.00633797  1
  Pd  Pd191  1  0.20188147  0.41117684  0.19302835  1
  Pd  Pd192  1  0.80140320  0.19316727  0.79282322  1
  Pd  Pd193  1  -0.00037015  0.19533872  0.59493669  1
  Pd  Pd194  1  0.59208616  0.00429965  0.21069092  1
  Pd  Pd195  1  0.39516805  0.79215374  0.20945784  1
  Pd  Pd196  1  0.59902892  0.19139813  0.79527267  1
  Pd  Pd197  1  0.58683812  0.00410430  0.58694851  1
  Pd  Pd198  1  0.60970501  0.20072032  0.39009472  1
  Pd  Pd199  1  0.21186131  0.00138458  0.00097435  1
  Rh  Rh200  1  0.20201936  0.60384846  0.40112451  1
  Rh  Rh201  1  0.59863760  0.59177198  0.59515600  1
  Rh  Rh202  1  0.40067061  0.19873827  0.20665793  1
  Rh  Rh203  1  0.39600467  0.19841468  0.60524392  1
  Rh  Rh204  1  0.40460053  0.58648715  0.60732575  1
  Rh  Rh205  1  0.20339357  0.39198364  0.59632164  1
  Rh  Rh206  1  -0.00209224  0.40095134  0.80703546  1
  Rh  Rh207  1  0.00175742  0.79919992  0.39113000  1
  Rh  Rh208  1  0.39801060  0.79097176  0.79241111  1
  Rh  Rh209  1  -0.01103384  0.59126283  -0.00969504  1
  Rh  Rh210  1  0.81243646  -0.00079827  0.60543851  1
  Rh  Rh211  1  -0.00254024  0.79803255  0.60306206  1
  Rh  Rh212  1  0.79631178  0.20507201  0.40381788  1
  Rh  Rh213  1  0.00147515  0.59711936  0.60079259  1
  Rh  Rh214  1  0.59823453  0.40040708  0.19991788  1
  Rh  Rh215  1  0.20244017  0.39601663  0.00911161  1
  Rh  Rh216  1  0.79550489  0.00217473  -0.00525338  1
  Rh  Rh217  1  0.60227787  0.80355558  0.59742045  1
  Rh  Rh218  1  0.41011977  0.01245283  0.80888124  1
  Rh  Rh219  1  0.40246793  0.80814387  0.60216788  1
  Rh  Rh220  1  0.59514297  0.60736205  0.80852769  1
  Rh  Rh221  1  0.59516176  0.00274122  -0.00116786  1
  Rh  Rh222  1  0.59039422  0.01020843  0.39773983  1
  Rh  Rh223  1  0.79309491  0.20099942  0.20110473  1
  Rh  Rh224  1  0.00874393  0.80442888  -0.00491899  1
  Rh  Rh225  1  0.59921669  0.79587151  0.19441899  1
  Rh  Rh226  1  0.60904371  0.00172544  0.80274645  1
  Rh  Rh227  1  0.60109405  0.79633512  0.40578110  1
  Rh  Rh228  1  0.20164383  0.59756612  0.19964639  1
  Rh  Rh229  1  0.40545510  0.59011327  0.39355930  1
  Rh  Rh230  1  0.00354920  0.00526694  0.40237374  1
  Rh  Rh231  1  0.80495194  0.60546274  0.19999921  1
  Rh  Rh232  1  0.19363541  0.20592966  0.40405887  1
  Rh  Rh233  1  0.40837566  0.59751056  -0.00619859  1
  Rh  Rh234  1  0.20548508  -0.01371616  0.79491014  1
  Rh  Rh235  1  0.59686554  0.40180855  0.40309184  1
  Rh  Rh236  1  0.01083225  0.80133508  0.80805664  1
  Rh  Rh237  1  0.60874219  0.19713944  0.60203509  1
  Rh  Rh238  1  0.79808777  -0.00754946  0.19884416  1
  Rh  Rh239  1  0.40430490  0.59739266  0.20586150  1
  Rh  Rh240  1  0.39430471  0.79515193  0.39505081  1
  Rh  Rh241  1  0.60496154  0.20119785  0.20606656  1
  Rh  Rh242  1  0.20716551  0.20796627  0.80274247  1
  Rh  Rh243  1  0.20450659  0.39791506  0.40168951  1
  Rh  Rh244  1  0.39799475  0.20709106  0.38875167  1
  Rh  Rh245  1  0.00040784  0.40193012  0.59775135  1
  Rh  Rh246  1  0.78815050  0.80695299  0.79106489  1
  Rh  Rh247  1  0.20890304  0.61233298  0.79259575  1
  Rh  Rh248  1  0.80382891  0.40568830  0.00889656  1
  Rh  Rh249  1  -0.00485380  0.58937668  0.39364730  1
