# generated using pymatgen
data_ZrScNbPdRh
_symmetry_space_group_name_H-M   'P 1'
_cell_length_a   16.55756147
_cell_length_b   16.56226505
_cell_length_c   16.56189950
_cell_angle_alpha   90.00237602
_cell_angle_beta   90.01589696
_cell_angle_gamma   90.00527252
_symmetry_Int_Tables_number   1
_chemical_formula_structural   ZrScNbPdRh
_chemical_formula_sum   'Zr50 Sc50 Nb50 Pd50 Rh50'
_cell_volume   4541.78145240
_cell_formula_units_Z   50
loop_
 _symmetry_equiv_pos_site_id
 _symmetry_equiv_pos_as_xyz
  1  'x, y, z'
loop_
 _atom_site_type_symbol
 _atom_site_label
 _atom_site_symmetry_multiplicity
 _atom_site_fract_x
 _atom_site_fract_y
 _atom_site_fract_z
 _atom_site_occupancy
  Zr  Zr0  1  0.10282939  0.70294038  0.10287474  1
  Zr  Zr1  1  0.90502063  0.29841519  0.29616112  1
  Zr  Zr2  1  0.30088162  0.69315756  0.50788479  1
  Zr  Zr3  1  0.10903076  0.50942047  0.50247353  1
  Zr  Zr4  1  0.10400983  0.90030362  0.70742698  1
  Zr  Zr5  1  0.29924495  0.50016928  0.11051897  1
  Zr  Zr6  1  0.10005068  0.50620674  0.29432677  1
  Zr  Zr7  1  0.29766594  0.89633500  0.10127313  1
  Zr  Zr8  1  0.69513397  0.30018715  0.29171025  1
  Zr  Zr9  1  0.90573414  0.29890327  0.90671589  1
  Zr  Zr10  1  0.49217488  0.30287663  0.89389524  1
  Zr  Zr11  1  0.49268598  0.70198603  0.10323260  1
  Zr  Zr12  1  0.89303081  0.50151113  0.71052739  1
  Zr  Zr13  1  0.30575310  0.10179175  0.28857354  1
  Zr  Zr14  1  0.70044368  0.70090015  0.30280985  1
  Zr  Zr15  1  0.69533975  0.69805079  0.49874790  1
  Zr  Zr16  1  0.69615327  0.50710789  0.29367204  1
  Zr  Zr17  1  0.89719660  0.10419021  0.49618311  1
  Zr  Zr18  1  0.10982723  0.90604125  0.50290320  1
  Zr  Zr19  1  0.89266909  0.90313207  0.70513007  1
  Zr  Zr20  1  0.10061506  0.29826818  0.49545400  1
  Zr  Zr21  1  0.90166078  0.09627727  0.89626801  1
  Zr  Zr22  1  0.30691184  0.30574423  0.29219033  1
  Zr  Zr23  1  0.89617878  0.29829837  0.49520109  1
  Zr  Zr24  1  0.31121650  0.49621124  0.90452194  1
  Zr  Zr25  1  0.49742372  0.89631847  0.31480840  1
  Zr  Zr26  1  0.30104340  0.89924491  0.69577490  1
  Zr  Zr27  1  0.70101270  0.49809375  0.89855501  1
  Zr  Zr28  1  0.70318944  0.49871427  0.69329007  1
  Zr  Zr29  1  0.29723510  0.69811015  0.09642536  1
  Zr  Zr30  1  0.69687353  0.09634689  0.10197695  1
  Zr  Zr31  1  0.88868543  0.70336692  0.09433966  1
  Zr  Zr32  1  0.09263639  0.70199638  0.29551545  1
  Zr  Zr33  1  0.31061430  0.29555573  0.70701047  1
  Zr  Zr34  1  0.49899719  0.89548518  0.69849392  1
  Zr  Zr35  1  0.10512332  0.70007612  0.70202117  1
  Zr  Zr36  1  0.10263769  0.50174338  0.10704515  1
  Zr  Zr37  1  0.09446998  0.49653190  0.70479588  1
  Zr  Zr38  1  0.11084039  0.08756989  0.09615893  1
  Zr  Zr39  1  0.10526960  0.10603267  0.49713462  1
  Zr  Zr40  1  0.89233135  0.29650770  0.10011864  1
  Zr  Zr41  1  0.09631994  0.90762762  0.90167889  1
  Zr  Zr42  1  0.50492238  0.70007676  0.69436990  1
  Zr  Zr43  1  0.50844927  0.90373547  0.08901761  1
  Zr  Zr44  1  0.49963778  0.48849461  0.30265718  1
  Zr  Zr45  1  0.69866063  0.49207789  0.09276322  1
  Zr  Zr46  1  0.70080626  0.10130208  0.89617449  1
  Zr  Zr47  1  0.50600101  0.50156326  0.50648202  1
  Zr  Zr48  1  0.29890967  0.29835644  0.51006549  1
  Zr  Zr49  1  0.50420806  0.30336545  0.49426094  1
  Sc  Sc50  1  0.89854708  0.10563612  0.09694356  1
  Sc  Sc51  1  0.88259795  0.89519176  0.50559230  1
  Sc  Sc52  1  0.70645631  0.70084968  0.90239984  1
  Sc  Sc53  1  0.89804622  0.90900426  0.10015805  1
  Sc  Sc54  1  0.31152139  0.29133395  0.09925554  1
  Sc  Sc55  1  0.88650914  0.50781015  0.50521059  1
  Sc  Sc56  1  0.69773665  0.68234198  0.09647979  1
  Sc  Sc57  1  0.69886959  0.30010772  0.50584441  1
  Sc  Sc58  1  0.30600802  0.70824720  0.70055803  1
  Sc  Sc59  1  0.10491085  0.29563618  0.69930554  1
  Sc  Sc60  1  0.89987586  0.89553798  0.29183385  1
  Sc  Sc61  1  0.10013054  0.09586026  0.70909112  1
  Sc  Sc62  1  0.50583350  0.09800480  0.69957345  1
  Sc  Sc63  1  0.70026435  0.90585673  0.69658911  1
  Sc  Sc64  1  0.10150463  0.30142138  0.29151580  1
  Sc  Sc65  1  0.89765439  0.10888755  0.29521532  1
  Sc  Sc66  1  0.88345156  0.70176213  0.49560891  1
  Sc  Sc67  1  0.69985142  0.30171444  0.70152496  1
  Sc  Sc68  1  0.30069151  0.09600833  0.49791982  1
  Sc  Sc69  1  0.50011310  0.08983871  0.49993501  1
  Sc  Sc70  1  0.69295707  0.10097842  0.29744887  1
  Sc  Sc71  1  0.08870350  0.49379021  0.89856635  1
  Sc  Sc72  1  0.50144871  0.29440056  0.29782295  1
  Sc  Sc73  1  0.89412147  0.49704861  0.10356396  1
  Sc  Sc74  1  0.50215688  0.50239662  0.09932546  1
  Sc  Sc75  1  0.89350767  0.69579536  0.30009038  1
  Sc  Sc76  1  0.50695820  0.49497675  0.89969102  1
  Sc  Sc77  1  0.29558286  0.89013293  0.89581698  1
  Sc  Sc78  1  0.51097935  0.49909093  0.70086927  1
  Sc  Sc79  1  0.50129968  0.70129261  0.30253569  1
  Sc  Sc80  1  0.89326884  0.30768647  0.70551901  1
  Sc  Sc81  1  0.30118765  0.70358338  0.90630229  1
  Sc  Sc82  1  0.50089996  0.29619879  0.70314443  1
  Sc  Sc83  1  0.69328736  0.90432736  0.30419661  1
  Sc  Sc84  1  0.69484332  0.09839858  0.50917675  1
  Sc  Sc85  1  0.69561848  0.09744848  0.70423572  1
  Sc  Sc86  1  0.50704623  0.71136165  0.89242730  1
  Sc  Sc87  1  0.29553542  0.11415840  0.90369957  1
  Sc  Sc88  1  0.08845995  0.29941939  0.09985479  1
  Sc  Sc89  1  0.30681848  0.50001051  0.68440280  1
  Sc  Sc90  1  0.50045087  0.09923308  0.30126675  1
  Sc  Sc91  1  0.10672372  0.10318703  0.29853363  1
  Sc  Sc92  1  0.30967199  0.90392578  0.30074514  1
  Sc  Sc93  1  0.11033719  0.70436473  0.90411585  1
  Sc  Sc94  1  0.88801215  0.09504154  0.70602039  1
  Sc  Sc95  1  0.30599622  0.10310522  0.69492256  1
  Sc  Sc96  1  0.31005108  0.70704226  0.29284265  1
  Sc  Sc97  1  0.51044513  0.10325756  0.89135336  1
  Sc  Sc98  1  0.10403634  0.69573459  0.50038177  1
  Sc  Sc99  1  0.09619429  0.10638179  0.90304425  1
  Nb  Nb100  1  0.49763914  0.10474170  0.09973234  1
  Nb  Nb101  1  0.31220142  0.90207516  0.49748414  1
  Nb  Nb102  1  0.69804153  0.90230153  0.09594290  1
  Nb  Nb103  1  0.69344631  0.90084295  0.49500792  1
  Nb  Nb104  1  0.30963544  0.09345879  0.10086765  1
  Nb  Nb105  1  0.09348709  0.89334027  0.10748215  1
  Nb  Nb106  1  0.09198944  0.89481273  0.29664407  1
  Nb  Nb107  1  0.50619849  0.29523307  0.10020669  1
  Nb  Nb108  1  0.69074181  0.90596222  0.91272563  1
  Nb  Nb109  1  0.89872791  0.50028772  0.30310978  1
  Nb  Nb110  1  0.30187533  0.30387850  0.89750643  1
  Nb  Nb111  1  0.89998984  0.49907498  0.89438532  1
  Nb  Nb112  1  0.30172989  0.50182493  0.49778026  1
  Nb  Nb113  1  0.70157126  0.29812937  0.09300849  1
  Nb  Nb114  1  0.10288462  0.30020991  0.90078776  1
  Nb  Nb115  1  0.70044034  0.68963494  0.70542079  1
  Nb  Nb116  1  0.89123092  0.89563933  0.90109880  1
  Nb  Nb117  1  0.50495341  0.90445538  0.89677633  1
  Nb  Nb118  1  0.89431939  0.69907489  0.89981775  1
  Nb  Nb119  1  0.49780953  0.70559138  0.50099249  1
  Nb  Nb120  1  0.89225538  0.69935972  0.70671974  1
  Nb  Nb121  1  0.50204973  0.89548507  0.50078813  1
  Nb  Nb122  1  0.70083282  0.30259242  0.91135089  1
  Nb  Nb123  1  0.69775979  0.49736536  0.49866968  1
  Nb  Nb124  1  0.29876084  0.49568781  0.29828289  1
  Nb  Nb125  1  -0.00293470  0.19855047  0.59884833  1
  Nb  Nb126  1  0.60243515  0.80269658  0.19435149  1
  Nb  Nb127  1  -0.00016860  0.40952574  0.40118468  1
  Nb  Nb128  1  0.40312793  -0.00436735  0.80638226  1
  Nb  Nb129  1  -0.00190569  -0.00459913  0.40200909  1
  Nb  Nb130  1  0.39833210  0.59309552  0.40448679  1
  Nb  Nb131  1  -0.00279586  0.40228636  0.59516870  1
  Nb  Nb132  1  -0.00608288  0.80139139  -0.00306316  1
  Nb  Nb133  1  0.80065598  0.00060955  0.40183598  1
  Nb  Nb134  1  0.20160797  0.39375595  -0.00457087  1
  Nb  Nb135  1  0.20574480  0.39832119  0.80618962  1
  Nb  Nb136  1  0.60042729  0.20467920  0.00236929  1
  Nb  Nb137  1  0.20389428  0.40659875  0.39933023  1
  Nb  Nb138  1  0.79927552  0.40372270  0.39571610  1
  Nb  Nb139  1  -0.00989940  0.79724471  0.80385443  1
  Nb  Nb140  1  0.40210776  0.00385161  -0.00306380  1
  Nb  Nb141  1  0.78725091  0.80346225  0.19224197  1
  Nb  Nb142  1  -0.00274490  -0.00061550  0.59657217  1
  Nb  Nb143  1  -0.00559494  0.79905328  0.60413705  1
  Nb  Nb144  1  0.00300538  0.80659760  0.40605366  1
  Nb  Nb145  1  -0.00710590  0.60516924  -0.00497404  1
  Nb  Nb146  1  0.20794945  0.59141644  0.80140912  1
  Nb  Nb147  1  -0.00847624  0.60509758  0.60813039  1
  Nb  Nb148  1  0.40131034  0.60106311  0.79791037  1
  Nb  Nb149  1  0.19895151  0.80505000  0.39926595  1
  Pd  Pd150  1  0.79993005  0.40034101  0.20345200  1
  Pd  Pd151  1  -0.00054812  0.40593981  0.00555225  1
  Pd  Pd152  1  0.79909345  -0.00196881  0.20799027  1
  Pd  Pd153  1  0.40985404  0.19450937  0.59571941  1
  Pd  Pd154  1  0.39702581  0.19653060  0.40228378  1
  Pd  Pd155  1  0.79006554  0.80511287  0.80368485  1
  Pd  Pd156  1  0.20192372  -0.00457331  0.38828477  1
  Pd  Pd157  1  0.40849168  0.19426908  -0.00750971  1
  Pd  Pd158  1  0.19811996  0.20672259  0.01029983  1
  Pd  Pd159  1  0.19908314  -0.00801103  0.20655293  1
  Pd  Pd160  1  0.59664620  0.20053289  0.60217286  1
  Pd  Pd161  1  0.19719229  0.39955562  0.60300477  1
  Pd  Pd162  1  0.20046050  0.20473450  0.18850874  1
  Pd  Pd163  1  0.41100404  0.60518279  -0.01044319  1
  Pd  Pd164  1  0.20515072  0.80272406  0.20791911  1
  Pd  Pd165  1  0.60402604  0.19585346  0.40416639  1
  Pd  Pd166  1  0.00699952  0.18950431  0.19355310  1
  Pd  Pd167  1  -0.00869014  0.60462839  0.41108032  1
  Pd  Pd168  1  0.41195325  -0.00632647  0.19512209  1
  Pd  Pd169  1  0.59313177  0.60478637  -0.00778219  1
  Pd  Pd170  1  0.20084570  0.79907636  0.59371926  1
  Pd  Pd171  1  0.19229079  0.58732783  -0.00834738  1
  Pd  Pd172  1  0.78648088  0.19944638  0.39456304  1
  Pd  Pd173  1  0.80252861  0.00313381  -0.00176375  1
  Pd  Pd174  1  -0.00412420  -0.00128596  0.00192874  1
  Pd  Pd175  1  0.21111076  0.20868928  0.39244383  1
  Pd  Pd176  1  0.21288677  0.00857040  0.80706160  1
  Pd  Pd177  1  0.40905050  0.39862518  0.60363013  1
  Pd  Pd178  1  0.80146053  0.19892130  0.60943768  1
  Pd  Pd179  1  0.79180529  0.79407048  0.60575261  1
  Pd  Pd180  1  0.20111867  0.00858812  0.60444573  1
  Pd  Pd181  1  0.60683233  0.78851257  0.00447384  1
  Pd  Pd182  1  0.00646905  0.60988664  0.80571877  1
  Pd  Pd183  1  0.59179178  -0.00543295  0.20523132  1
  Pd  Pd184  1  0.20065125  0.20117013  0.79685607  1
  Pd  Pd185  1  0.39589765  0.39999124  0.40422225  1
  Pd  Pd186  1  0.61293678  0.80504008  0.79833312  1
  Pd  Pd187  1  0.59576769  0.39958399  0.19308624  1
  Pd  Pd188  1  0.21144477  0.60741954  0.38687524  1
  Pd  Pd189  1  0.59123723  0.60169052  0.40045140  1
  Pd  Pd190  1  0.79808051  0.20753196  0.80106591  1
  Pd  Pd191  1  0.20987597  -0.00375645  -0.00706308  1
  Pd  Pd192  1  -0.01181729  0.60232349  0.19107858  1
  Pd  Pd193  1  0.40096691  0.80618507  -0.00526108  1
  Pd  Pd194  1  0.60925758  0.80039111  0.60215730  1
  Pd  Pd195  1  0.40447769  0.59602981  0.20983591  1
  Pd  Pd196  1  -0.00252440  0.20313910  0.79143889  1
  Pd  Pd197  1  0.60447549  0.39560695  0.79765854  1
  Pd  Pd198  1  -0.00049309  0.00835738  0.20544396  1
  Pd  Pd199  1  0.40158874  0.39867998  0.01032344  1
  Rh  Rh200  1  0.59382792  0.39259159  0.00027889  1
  Rh  Rh201  1  0.40044540  0.00511683  0.40250528  1
  Rh  Rh202  1  0.00342194  0.38774540  0.79615616  1
  Rh  Rh203  1  0.79632140  0.80747653  0.00402638  1
  Rh  Rh204  1  0.19839026  0.79348157  0.80378612  1
  Rh  Rh205  1  0.80882017  0.40267728  -0.00412047  1
  Rh  Rh206  1  0.59759463  -0.00592845  0.59911790  1
  Rh  Rh207  1  0.00709602  0.19848242  0.39778501  1
  Rh  Rh208  1  -0.00377764  0.40379718  0.20409244  1
  Rh  Rh209  1  0.59390001  0.60284570  0.19948512  1
  Rh  Rh210  1  0.40031304  0.80322444  0.59345745  1
  Rh  Rh211  1  0.40152240  0.18817886  0.80233508  1
  Rh  Rh212  1  0.19075553  0.80952136  0.00351402  1
  Rh  Rh213  1  0.40664732  0.19970639  0.20184481  1
  Rh  Rh214  1  0.79439163  0.59114703  0.39869187  1
  Rh  Rh215  1  0.80510673  0.58698305  -0.00699285  1
  Rh  Rh216  1  0.79562205  0.39555373  0.81077103  1
  Rh  Rh217  1  0.80066763  0.81255942  0.38813087  1
  Rh  Rh218  1  0.40374931  -0.00423274  0.60381744  1
  Rh  Rh219  1  -0.00614620  -0.00419532  0.79760622  1
  Rh  Rh220  1  0.59935060  -0.00639674  0.79636711  1
  Rh  Rh221  1  0.41085402  0.80908254  0.19619416  1
  Rh  Rh222  1  0.59548400  0.01325576  -0.00304193  1
  Rh  Rh223  1  0.60513021  0.60309347  0.59929738  1
  Rh  Rh224  1  0.60073302  0.39519901  0.60077469  1
  Rh  Rh225  1  0.78954564  -0.00710177  0.80985443  1
  Rh  Rh226  1  0.59948048  0.60118212  0.80142754  1
  Rh  Rh227  1  0.40081782  0.79951966  0.80190327  1
  Rh  Rh228  1  0.20148839  0.39206134  0.19534488  1
  Rh  Rh229  1  0.79140116  0.59817968  0.80521919  1
  Rh  Rh230  1  0.60494158  0.20916076  0.80533088  1
  Rh  Rh231  1  0.39264532  0.79121686  0.40956611  1
  Rh  Rh232  1  0.19759974  0.19415220  0.60618685  1
  Rh  Rh233  1  0.79608255  0.60472694  0.60167431  1
  Rh  Rh234  1  0.19915095  0.59876929  0.61264818  1
  Rh  Rh235  1  0.40752920  0.39796283  0.19297279  1
  Rh  Rh236  1  0.79948995  0.60161908  0.20011003  1
  Rh  Rh237  1  0.00421123  0.19448392  0.00287114  1
  Rh  Rh238  1  0.40766245  0.60072224  0.60069575  1
  Rh  Rh239  1  0.39791500  0.41037806  0.79083374  1
  Rh  Rh240  1  -0.01331223  0.79547518  0.19519229  1
  Rh  Rh241  1  0.80042620  0.39954309  0.59199380  1
  Rh  Rh242  1  0.60049096  0.79774600  0.39874702  1
  Rh  Rh243  1  0.59874358  0.19780710  0.19322582  1
  Rh  Rh244  1  0.79469150  0.19482838  -0.00135663  1
  Rh  Rh245  1  0.60301982  0.00301727  0.40422972  1
  Rh  Rh246  1  0.20707614  0.60989414  0.20630740  1
  Rh  Rh247  1  0.61038365  0.39598916  0.40097171  1
  Rh  Rh248  1  0.79439130  0.20004075  0.19833572  1
  Rh  Rh249  1  0.79675090  0.00384015  0.59297613  1
