# generated using pymatgen
data_ZrScNbPdRh
_symmetry_space_group_name_H-M   'P 1'
_cell_length_a   16.55923818
_cell_length_b   16.56220711
_cell_length_c   16.56050250
_cell_angle_alpha   89.99889714
_cell_angle_beta   89.98075522
_cell_angle_gamma   90.01047620
_symmetry_Int_Tables_number   1
_chemical_formula_structural   ZrScNbPdRh
_chemical_formula_sum   'Zr50 Sc50 Nb50 Pd50 Rh50'
_cell_volume   4541.84221651
_cell_formula_units_Z   50
loop_
 _symmetry_equiv_pos_site_id
 _symmetry_equiv_pos_as_xyz
  1  'x, y, z'
loop_
 _atom_site_type_symbol
 _atom_site_label
 _atom_site_symmetry_multiplicity
 _atom_site_fract_x
 _atom_site_fract_y
 _atom_site_fract_z
 _atom_site_occupancy
  Zr  Zr0  1  0.10204848  0.10348337  0.50446364  1
  Zr  Zr1  1  0.50962297  0.90184066  0.10293116  1
  Zr  Zr2  1  0.70449622  0.10000930  0.69155052  1
  Zr  Zr3  1  0.70389230  0.50095631  0.09262390  1
  Zr  Zr4  1  0.10330998  0.30693596  0.29503965  1
  Zr  Zr5  1  0.10087548  0.89112837  0.09710629  1
  Zr  Zr6  1  0.30337396  0.09302321  0.29448374  1
  Zr  Zr7  1  0.09940900  0.90210640  0.90007607  1
  Zr  Zr8  1  0.69486486  0.71008291  0.49875190  1
  Zr  Zr9  1  0.29527048  0.31554916  0.90456024  1
  Zr  Zr10  1  0.49795421  0.09806794  0.69518297  1
  Zr  Zr11  1  0.49923254  0.29709535  0.69495431  1
  Zr  Zr12  1  0.69714829  0.89612343  0.10204627  1
  Zr  Zr13  1  0.29349183  0.29770267  0.29664120  1
  Zr  Zr14  1  0.29722395  0.70736734  0.49831672  1
  Zr  Zr15  1  0.70631198  0.09933538  0.89666537  1
  Zr  Zr16  1  0.89212845  0.09941991  0.30101984  1
  Zr  Zr17  1  0.90349187  0.30587960  0.50564285  1
  Zr  Zr18  1  0.49178202  0.50912656  0.30527114  1
  Zr  Zr19  1  0.49727165  0.70391515  0.49299385  1
  Zr  Zr20  1  0.09428613  0.30350717  0.90463761  1
  Zr  Zr21  1  0.70287735  0.89069309  0.69761838  1
  Zr  Zr22  1  0.69821798  0.29709732  0.29997919  1
  Zr  Zr23  1  0.70437003  0.49750267  0.29418091  1
  Zr  Zr24  1  0.29190382  0.90227364  0.10211018  1
  Zr  Zr25  1  0.89755267  0.50463750  0.10271984  1
  Zr  Zr26  1  0.30138606  0.90305042  0.30754491  1
  Zr  Zr27  1  0.30239196  0.50025037  0.09888548  1
  Zr  Zr28  1  0.50493327  0.29188492  0.29196852  1
  Zr  Zr29  1  0.29832281  0.30418370  0.10646309  1
  Zr  Zr30  1  0.69183571  0.49596095  0.89916810  1
  Zr  Zr31  1  0.89961186  0.90273473  0.89121238  1
  Zr  Zr32  1  0.69649201  0.69539959  0.90147849  1
  Zr  Zr33  1  0.30116639  0.10716157  0.69817478  1
  Zr  Zr34  1  0.30234835  0.09516891  0.49293533  1
  Zr  Zr35  1  0.90010739  0.70045912  0.49596899  1
  Zr  Zr36  1  0.89841173  0.49343580  0.90683739  1
  Zr  Zr37  1  0.91241477  0.30522697  0.08650316  1
  Zr  Zr38  1  0.49861511  0.89790422  0.90332005  1
  Zr  Zr39  1  0.89174376  0.90197618  0.49975125  1
  Zr  Zr40  1  0.70422837  0.69986010  0.10158074  1
  Zr  Zr41  1  0.50075486  0.89518377  0.69678638  1
  Zr  Zr42  1  0.90553293  0.69286759  0.10261105  1
  Zr  Zr43  1  0.89835865  0.89415733  0.10374348  1
  Zr  Zr44  1  0.90221297  0.10276282  0.89362959  1
  Zr  Zr45  1  0.30384970  0.29916138  0.50664672  1
  Zr  Zr46  1  0.50076264  0.30122645  0.50431642  1
  Zr  Zr47  1  0.10704874  0.68977949  0.30164745  1
  Zr  Zr48  1  0.89935143  0.10271368  0.69836986  1
  Zr  Zr49  1  0.10019324  0.10812794  0.70280308  1
  Sc  Sc50  1  0.69534563  0.49011773  0.50559820  1
  Sc  Sc51  1  0.09354935  0.70402749  0.90532910  1
  Sc  Sc52  1  0.69129277  0.30475399  0.10160975  1
  Sc  Sc53  1  0.89925432  0.09330052  0.10121046  1
  Sc  Sc54  1  0.30078053  0.10087174  0.89920092  1
  Sc  Sc55  1  0.31394446  0.90402748  0.69966884  1
  Sc  Sc56  1  0.50742235  0.10518529  0.50723418  1
  Sc  Sc57  1  0.30909494  0.68531758  0.89194118  1
  Sc  Sc58  1  0.50684774  0.69598690  0.09400609  1
  Sc  Sc59  1  0.70531122  0.89604955  0.90474241  1
  Sc  Sc60  1  0.09968393  0.30289793  0.50065174  1
  Sc  Sc61  1  0.69727378  0.29195330  0.50208518  1
  Sc  Sc62  1  0.10725248  0.89377962  0.50221439  1
  Sc  Sc63  1  0.10780434  0.90383931  0.29579185  1
  Sc  Sc64  1  0.10482054  0.49872578  0.70367318  1
  Sc  Sc65  1  0.29560648  0.50311807  0.29560613  1
  Sc  Sc66  1  0.89889561  0.69512102  0.29220570  1
  Sc  Sc67  1  0.10639994  0.70052711  0.69145052  1
  Sc  Sc68  1  0.10447783  0.69591310  0.49876744  1
  Sc  Sc69  1  0.89174659  0.90004013  0.29231542  1
  Sc  Sc70  1  0.09388009  0.10226862  0.89594695  1
  Sc  Sc71  1  0.49497746  0.90089672  0.49984062  1
  Sc  Sc72  1  0.30641328  0.49760610  0.49854130  1
  Sc  Sc73  1  0.90472752  0.49257757  0.49366501  1
  Sc  Sc74  1  0.49483642  0.50075546  0.90170439  1
  Sc  Sc75  1  0.89766153  0.90463601  0.69952176  1
  Sc  Sc76  1  0.50083426  0.10372474  0.91792701  1
  Sc  Sc77  1  0.09266758  0.90272363  0.70101505  1
  Sc  Sc78  1  0.50106232  0.90201122  0.29850684  1
  Sc  Sc79  1  0.69555592  0.89475827  0.29384428  1
  Sc  Sc80  1  0.29922879  0.90756845  0.90251255  1
  Sc  Sc81  1  0.89219950  0.71600050  0.70221592  1
  Sc  Sc82  1  0.09341010  0.49520515  0.10782914  1
  Sc  Sc83  1  0.30525108  0.90007300  0.49542021  1
  Sc  Sc84  1  0.70185108  0.89962481  0.49654480  1
  Sc  Sc85  1  0.90643041  0.50151811  0.29619716  1
  Sc  Sc86  1  0.89743936  0.70136952  0.90393665  1
  Sc  Sc87  1  0.70307443  0.31033721  0.69604905  1
  Sc  Sc88  1  0.49374896  0.49553095  0.50400052  1
  Sc  Sc89  1  0.69509189  0.30458878  0.90586943  1
  Sc  Sc90  1  0.90587657  0.29968115  0.89547167  1
  Sc  Sc91  1  0.70177978  0.11045434  0.29353080  1
  Sc  Sc92  1  0.50220543  0.48740633  0.70543270  1
  Sc  Sc93  1  0.89555743  0.30876503  0.30115044  1
  Sc  Sc94  1  0.49973458  0.30539671  0.90144253  1
  Sc  Sc95  1  0.09826924  0.09194816  0.10064270  1
  Sc  Sc96  1  0.11291268  0.09938145  0.30062881  1
  Sc  Sc97  1  0.50313224  0.69497990  0.89643518  1
  Sc  Sc98  1  0.09593872  0.50037392  0.49451155  1
  Sc  Sc99  1  0.30858314  0.29882456  0.70821026  1
  Nb  Nb100  1  0.10742044  0.69780924  0.10083427  1
  Nb  Nb101  1  0.89203066  0.09515989  0.49817238  1
  Nb  Nb102  1  0.70025164  0.49965947  0.69958113  1
  Nb  Nb103  1  0.68743188  0.70064470  0.30337858  1
  Nb  Nb104  1  0.30419651  0.69687609  0.70030836  1
  Nb  Nb105  1  0.30107290  0.10387933  0.10062915  1
  Nb  Nb106  1  0.29252093  0.69844282  0.10475613  1
  Nb  Nb107  1  0.11225417  0.49661650  0.89898805  1
  Nb  Nb108  1  0.89538211  0.49081442  0.69729457  1
  Nb  Nb109  1  0.29696884  0.50582785  0.71643546  1
  Nb  Nb110  1  0.50116519  0.29553978  0.09574051  1
  Nb  Nb111  1  0.29140830  0.49824925  0.89563482  1
  Nb  Nb112  1  0.50295967  0.49743360  0.10173638  1
  Nb  Nb113  1  0.10108197  0.29789198  0.10128720  1
  Nb  Nb114  1  0.30606710  0.69766173  0.29986037  1
  Nb  Nb115  1  0.10057916  0.29862347  0.69574329  1
  Nb  Nb116  1  0.70802619  0.09855178  0.49440897  1
  Nb  Nb117  1  0.69107784  0.10199929  0.09334842  1
  Nb  Nb118  1  0.50097114  0.70121193  0.30521349  1
  Nb  Nb119  1  0.91093733  0.31080845  0.69681349  1
  Nb  Nb120  1  0.50381967  0.10472760  0.10604190  1
  Nb  Nb121  1  0.50379863  0.09877954  0.29850224  1
  Nb  Nb122  1  0.69385666  0.69901272  0.69939570  1
  Nb  Nb123  1  0.49700861  0.70498594  0.69963633  1
  Nb  Nb124  1  0.09431855  0.49960026  0.30230936  1
  Nb  Nb125  1  0.59656099  0.39630635  0.39431312  1
  Nb  Nb126  1  -0.00720174  0.59508522  0.79579849  1
  Nb  Nb127  1  0.39431505  0.79624420  0.00838705  1
  Nb  Nb128  1  0.59900788  0.60025463  0.20466286  1
  Nb  Nb129  1  0.60083595  0.19510318  0.79770404  1
  Nb  Nb130  1  0.19993570  0.59838354  0.00240264  1
  Nb  Nb131  1  0.20594548  0.79823378  0.79813177  1
  Nb  Nb132  1  0.60413298  0.01015578  0.39874497  1
  Nb  Nb133  1  0.00192764  0.20211688  0.20278599  1
  Nb  Nb134  1  0.40336583  0.19758862  0.39475093  1
  Nb  Nb135  1  0.79832084  0.19729527  0.00088262  1
  Nb  Nb136  1  0.20341486  0.39955449  0.60761370  1
  Nb  Nb137  1  0.20209176  0.00615074  0.60276099  1
  Nb  Nb138  1  0.79874247  0.59446844  0.79143638  1
  Nb  Nb139  1  -0.00402634  0.00076384  0.40320851  1
  Nb  Nb140  1  0.00017056  0.80280914  0.39659803  1
  Nb  Nb141  1  0.59785515  0.60415976  0.60672653  1
  Nb  Nb142  1  0.79627903  0.59864729  0.60309745  1
  Nb  Nb143  1  0.79276481  0.60139051  0.40256114  1
  Nb  Nb144  1  -0.01206148  0.59607629  0.60928618  1
  Nb  Nb145  1  0.60080109  0.00236502  0.79879373  1
  Nb  Nb146  1  0.39974177  0.60515453  0.61083489  1
  Nb  Nb147  1  0.19943445  0.20396318  0.00720086  1
  Nb  Nb148  1  0.39665894  0.79235722  0.19832067  1
  Nb  Nb149  1  -0.00387233  0.19472559  0.39878160  1
  Pd  Pd150  1  0.40852121  0.19862102  0.81279055  1
  Pd  Pd151  1  0.20078574  0.20254256  0.40091470  1
  Pd  Pd152  1  0.20695788  0.59306871  0.40230387  1
  Pd  Pd153  1  0.00654901  0.40586608  0.79917409  1
  Pd  Pd154  1  0.19956045  0.20781536  0.81084163  1
  Pd  Pd155  1  0.59458791  0.40597038  0.20260681  1
  Pd  Pd156  1  0.80477939  0.79738141  0.00024561  1
  Pd  Pd157  1  0.21082824  0.78784221  -0.01471647  1
  Pd  Pd158  1  0.60233857  0.80543862  0.80562719  1
  Pd  Pd159  1  0.59624111  0.59521019  0.79448224  1
  Pd  Pd160  1  0.20222681  0.58799264  0.59852144  1
  Pd  Pd161  1  0.00546613  0.79489222  0.20754924  1
  Pd  Pd162  1  0.39309720  0.20514330  0.00018608  1
  Pd  Pd163  1  0.40711712  0.60715619  0.19453171  1
  Pd  Pd164  1  0.79651533  0.21539693  0.80158117  1
  Pd  Pd165  1  0.80501079  0.39230351  0.19065448  1
  Pd  Pd166  1  0.40506849  0.40267198  0.00161349  1
  Pd  Pd167  1  0.20302655  0.79909585  0.20972032  1
  Pd  Pd168  1  0.20884714  0.81299561  0.61009478  1
  Pd  Pd169  1  0.60550386  -0.00545151  0.59495098  1
  Pd  Pd170  1  0.40308009  0.39988320  0.20308763  1
  Pd  Pd171  1  0.00728973  0.79226770  0.79530559  1
  Pd  Pd172  1  0.20064322  0.40445284  0.40695419  1
  Pd  Pd173  1  0.19749710  0.01190554  -0.00113556  1
  Pd  Pd174  1  0.40735951  0.00727490  0.80585652  1
  Pd  Pd175  1  0.80666294  0.20767755  0.18490092  1
  Pd  Pd176  1  0.18716807  0.61293035  0.80625909  1
  Pd  Pd177  1  0.79349129  0.40397648  0.40605970  1
  Pd  Pd178  1  0.80365745  0.79539724  0.38802649  1
  Pd  Pd179  1  0.80311399  0.20891295  0.60151115  1
  Pd  Pd180  1  0.80154147  0.00258031  0.00380045  1
  Pd  Pd181  1  0.80569704  0.20698542  0.40404948  1
  Pd  Pd182  1  0.00037510  0.79497843  0.59450721  1
  Pd  Pd183  1  0.39923528  -0.00227782  0.00952209  1
  Pd  Pd184  1  0.60357761  -0.00123000  -0.00529861  1
  Pd  Pd185  1  -0.00266751  -0.00081865  -0.00082932  1
  Pd  Pd186  1  0.39403052  0.79961015  0.80997820  1
  Pd  Pd187  1  0.60445802  0.58830439  0.40550637  1
  Pd  Pd188  1  -0.00559150  0.19997317  0.59591695  1
  Pd  Pd189  1  0.00888632  0.59297614  -0.00506949  1
  Pd  Pd190  1  0.78865741  0.00117440  0.19842946  1
  Pd  Pd191  1  0.40062250  0.19769632  0.20104468  1
  Pd  Pd192  1  0.40245309  0.39071118  0.38982147  1
  Pd  Pd193  1  0.79698268  0.39716837  0.80365723  1
  Pd  Pd194  1  -0.00554908  0.80006427  0.00053129  1
  Pd  Pd195  1  0.40363241  -0.00523522  0.19379649  1
  Pd  Pd196  1  0.00435140  0.00426198  0.20942396  1
  Pd  Pd197  1  0.20115287  -0.00721515  0.79238163  1
  Pd  Pd198  1  0.00404682  -0.00109640  0.59560055  1
  Pd  Pd199  1  0.39703033  0.60174878  0.00189980  1
  Rh  Rh200  1  0.20541209  0.20517640  0.60337726  1
  Rh  Rh201  1  0.59815288  0.59410725  0.00571897  1
  Rh  Rh202  1  0.60581698  0.00982718  0.20531436  1
  Rh  Rh203  1  -0.00000417  0.19036458  0.00827695  1
  Rh  Rh204  1  0.59114748  0.40148030  0.00238999  1
  Rh  Rh205  1  0.19403874  0.40350559  0.00938439  1
  Rh  Rh206  1  0.60341711  0.20405389  -0.00084636  1
  Rh  Rh207  1  0.59446283  0.80015560  0.59540483  1
  Rh  Rh208  1  0.59436167  0.79654470  -0.00497465  1
  Rh  Rh209  1  0.79921335  0.59908288  -0.00963086  1
  Rh  Rh210  1  -0.00681834  0.60481657  0.40179054  1
  Rh  Rh211  1  0.40011351  0.40270764  0.80217551  1
  Rh  Rh212  1  0.59480755  0.81612958  0.39875541  1
  Rh  Rh213  1  0.79106506  0.60621218  0.20953269  1
  Rh  Rh214  1  0.79562243  -0.00581768  0.79384111  1
  Rh  Rh215  1  0.19435684  0.59339849  0.19659070  1
  Rh  Rh216  1  0.19721348  0.79913503  0.39383346  1
  Rh  Rh217  1  0.79743762  -0.00316003  0.60172928  1
  Rh  Rh218  1  0.79785044  0.79299738  0.20141464  1
  Rh  Rh219  1  0.20045108  0.00129363  0.19515650  1
  Rh  Rh220  1  -0.00126310  0.00275085  0.79744656  1
  Rh  Rh221  1  0.59874097  0.40213922  0.59608696  1
  Rh  Rh222  1  0.19116078  -0.00538594  0.41043991  1
  Rh  Rh223  1  -0.00308182  0.39574641  0.20259448  1
  Rh  Rh224  1  0.41599319  0.00954319  0.40311761  1
  Rh  Rh225  1  0.60828212  0.20149210  0.60535698  1
  Rh  Rh226  1  0.39756991  0.79495999  0.59811287  1
  Rh  Rh227  1  0.01324355  0.40766409  0.60337052  1
  Rh  Rh228  1  0.00783466  0.40979082  -0.00049101  1
  Rh  Rh229  1  0.00377773  0.39363915  0.39477145  1
  Rh  Rh230  1  0.39657707  0.19414559  0.59182854  1
  Rh  Rh231  1  0.79489457  0.79477229  0.80408239  1
  Rh  Rh232  1  0.19718226  0.40983608  0.19993042  1
  Rh  Rh233  1  0.40120322  0.80008789  0.39146122  1
  Rh  Rh234  1  0.79893655  0.39979458  0.59486582  1
  Rh  Rh235  1  0.79347652  -0.00200248  0.39216513  1
  Rh  Rh236  1  0.39209456  0.60430339  0.40827262  1
  Rh  Rh237  1  0.60322612  0.19652778  0.19184410  1
  Rh  Rh238  1  0.19323038  0.19189192  0.19052206  1
  Rh  Rh239  1  0.59463960  0.19766387  0.40380623  1
  Rh  Rh240  1  0.19714591  0.39047889  0.79115818  1
  Rh  Rh241  1  0.00801222  0.60155504  0.20131050  1
  Rh  Rh242  1  0.79914399  0.39170654  0.00033087  1
  Rh  Rh243  1  0.59858226  0.39132056  0.79986164  1
  Rh  Rh244  1  0.79914760  0.79909838  0.60049760  1
  Rh  Rh245  1  0.38553323  0.41406905  0.61649896  1
  Rh  Rh246  1  0.39522253  0.00265674  0.59539693  1
  Rh  Rh247  1  0.40932760  0.59295673  0.79431856  1
  Rh  Rh248  1  0.59104561  0.78891808  0.20155157  1
  Rh  Rh249  1  -0.00228079  0.20667635  0.79148808  1
