# generated using pymatgen
data_ZrScNbPdRh
_symmetry_space_group_name_H-M   'P 1'
_cell_length_a   16.56374796
_cell_length_b   16.56128186
_cell_length_c   16.56289822
_cell_angle_alpha   90.00028493
_cell_angle_beta   89.99150381
_cell_angle_gamma   89.98084094
_symmetry_Int_Tables_number   1
_chemical_formula_structural   ZrScNbPdRh
_chemical_formula_sum   'Zr50 Sc50 Nb50 Pd50 Rh50'
_cell_volume   4543.48256462
_cell_formula_units_Z   50
loop_
 _symmetry_equiv_pos_site_id
 _symmetry_equiv_pos_as_xyz
  1  'x, y, z'
loop_
 _atom_site_type_symbol
 _atom_site_label
 _atom_site_symmetry_multiplicity
 _atom_site_fract_x
 _atom_site_fract_y
 _atom_site_fract_z
 _atom_site_occupancy
  Zr  Zr0  1  0.10766322  0.09517140  0.89347425  1
  Zr  Zr1  1  0.89921041  0.10401268  0.30338078  1
  Zr  Zr2  1  0.10940010  0.70856420  0.09768072  1
  Zr  Zr3  1  0.49593509  0.09145961  0.70121776  1
  Zr  Zr4  1  0.70657067  0.90515554  0.09885649  1
  Zr  Zr5  1  0.49454327  0.89781501  0.09849646  1
  Zr  Zr6  1  0.30020565  0.50192259  0.69952111  1
  Zr  Zr7  1  0.69631990  0.89159904  0.30511341  1
  Zr  Zr8  1  0.09709112  0.29766056  0.29413856  1
  Zr  Zr9  1  0.49677249  0.30119579  0.29586956  1
  Zr  Zr10  1  0.70061535  0.49944680  0.50219821  1
  Zr  Zr11  1  0.29152775  0.10256015  0.71273881  1
  Zr  Zr12  1  0.49871128  0.50198823  0.50541875  1
  Zr  Zr13  1  0.71146825  0.29691456  0.09569891  1
  Zr  Zr14  1  0.10630864  0.09298421  0.09449601  1
  Zr  Zr15  1  0.70091102  0.49905313  0.90555331  1
  Zr  Zr16  1  0.90843696  0.69946643  0.50000448  1
  Zr  Zr17  1  0.70694819  0.90204123  0.88748630  1
  Zr  Zr18  1  0.10284944  0.30921720  0.89743949  1
  Zr  Zr19  1  0.69264515  0.49877881  0.29714898  1
  Zr  Zr20  1  0.69915751  0.30321034  0.70247942  1
  Zr  Zr21  1  0.49531945  0.10574996  0.30097909  1
  Zr  Zr22  1  0.30197130  0.69976795  0.70586674  1
  Zr  Zr23  1  0.50314002  0.91418769  0.49971618  1
  Zr  Zr24  1  0.50118448  0.49992637  0.28924459  1
  Zr  Zr25  1  0.89243868  0.70509672  0.09598425  1
  Zr  Zr26  1  0.29666162  0.49537564  0.90498661  1
  Zr  Zr27  1  0.49907947  0.29680236  0.89841504  1
  Zr  Zr28  1  0.50193363  0.10622188  0.90491949  1
  Zr  Zr29  1  0.69620809  0.30230415  0.28960500  1
  Zr  Zr30  1  0.30681809  0.50600784  0.09722806  1
  Zr  Zr31  1  0.69570586  0.70426058  0.70731903  1
  Zr  Zr32  1  0.70276210  0.69952784  0.90364501  1
  Zr  Zr33  1  0.30920169  0.90157482  0.70278960  1
  Zr  Zr34  1  0.49836916  0.49341495  0.90614533  1
  Zr  Zr35  1  0.69701137  0.09326994  0.50465456  1
  Zr  Zr36  1  0.29906933  0.10454521  0.09862888  1
  Zr  Zr37  1  0.70016915  0.69919208  0.09970837  1
  Zr  Zr38  1  0.29557101  0.69270152  0.50837614  1
  Zr  Zr39  1  0.90010296  0.70607952  0.30655859  1
  Zr  Zr40  1  0.29770653  0.30200873  0.10430155  1
  Zr  Zr41  1  0.69995754  0.69638147  0.49821650  1
  Zr  Zr42  1  0.89609129  0.50142461  0.50412806  1
  Zr  Zr43  1  0.10819318  0.30319221  0.49945630  1
  Zr  Zr44  1  0.91040512  0.08921031  0.88332186  1
  Zr  Zr45  1  0.69492368  0.30095170  0.89877275  1
  Zr  Zr46  1  0.69729580  0.50013822  0.69385700  1
  Zr  Zr47  1  0.50670002  0.70056105  0.29605497  1
  Zr  Zr48  1  0.89688792  0.29789990  0.49716178  1
  Zr  Zr49  1  0.30221545  0.89961165  0.89385268  1
  Sc  Sc50  1  0.10402721  0.69004143  0.70330351  1
  Sc  Sc51  1  0.91479704  0.70299738  0.69784962  1
  Sc  Sc52  1  0.09419266  0.69976252  0.31462996  1
  Sc  Sc53  1  0.30580794  0.70347306  0.09323803  1
  Sc  Sc54  1  0.69737675  0.10856299  0.29994700  1
  Sc  Sc55  1  0.30120437  0.09668468  0.29896623  1
  Sc  Sc56  1  0.69259112  0.69992014  0.30398818  1
  Sc  Sc57  1  0.30366489  0.91294987  0.49894477  1
  Sc  Sc58  1  0.29838471  0.49768576  0.50354092  1
  Sc  Sc59  1  0.49616930  0.29949532  0.49751747  1
  Sc  Sc60  1  0.10025107  0.49981762  0.30641133  1
  Sc  Sc61  1  0.09745794  0.88164649  0.69971849  1
  Sc  Sc62  1  0.89189781  0.49432496  0.09542566  1
  Sc  Sc63  1  0.11527988  0.29688672  0.70612354  1
  Sc  Sc64  1  0.30180735  0.31010604  0.50214005  1
  Sc  Sc65  1  0.30274232  0.49443199  0.29728716  1
  Sc  Sc66  1  0.89091681  0.09986720  0.49653982  1
  Sc  Sc67  1  0.69306557  0.49607219  0.09651611  1
  Sc  Sc68  1  0.69629678  0.10340570  0.09608671  1
  Sc  Sc69  1  0.89672303  0.90262274  0.71310785  1
  Sc  Sc70  1  0.88894068  0.29930141  0.89711358  1
  Sc  Sc71  1  0.89950412  0.49647353  0.30231663  1
  Sc  Sc72  1  0.10223785  0.09747362  0.48848499  1
  Sc  Sc73  1  0.50448928  0.90972930  0.89088186  1
  Sc  Sc74  1  0.10359339  0.09369446  0.29424009  1
  Sc  Sc75  1  0.89119441  0.09532516  0.10505882  1
  Sc  Sc76  1  0.69459081  0.09559766  0.90289218  1
  Sc  Sc77  1  0.49292415  0.69370142  0.10257831  1
  Sc  Sc78  1  0.29302057  0.89021806  0.10646898  1
  Sc  Sc79  1  0.70690779  0.09521227  0.69661345  1
  Sc  Sc80  1  0.49615908  0.50235031  0.70001953  1
  Sc  Sc81  1  0.49869037  0.10154781  0.49737928  1
  Sc  Sc82  1  0.30026729  0.90708200  0.29501927  1
  Sc  Sc83  1  0.10571982  0.50099836  0.89347359  1
  Sc  Sc84  1  0.10576349  0.29445980  0.10711579  1
  Sc  Sc85  1  0.10864240  0.49423617  0.09212792  1
  Sc  Sc86  1  0.90294314  0.50214425  0.69951943  1
  Sc  Sc87  1  0.90604312  0.49690612  0.89360490  1
  Sc  Sc88  1  0.30581745  0.09924509  0.49387238  1
  Sc  Sc89  1  0.29628022  0.69384342  0.90140193  1
  Sc  Sc90  1  0.49660146  0.69718469  0.89478393  1
  Sc  Sc91  1  0.30366328  0.29716098  0.89580370  1
  Sc  Sc92  1  0.90035925  0.90004058  0.48850256  1
  Sc  Sc93  1  0.69988359  0.30129118  0.50626764  1
  Sc  Sc94  1  0.30091671  0.70862888  0.28794914  1
  Sc  Sc95  1  0.10624412  0.51041146  0.49867055  1
  Sc  Sc96  1  0.09371107  0.70330982  0.51151792  1
  Sc  Sc97  1  0.89619542  0.29915468  0.70703196  1
  Sc  Sc98  1  0.51052546  0.69540887  0.49906959  1
  Sc  Sc99  1  0.49962009  0.30518041  0.70919488  1
  Nb  Nb100  1  0.29795598  0.29929524  0.30368113  1
  Nb  Nb101  1  0.09167809  0.90262714  0.90864401  1
  Nb  Nb102  1  0.30266653  0.09788844  0.90173263  1
  Nb  Nb103  1  0.90135342  0.29576432  0.28975348  1
  Nb  Nb104  1  0.09314239  0.49646534  0.70785979  1
  Nb  Nb105  1  0.09603943  0.90101338  0.10460989  1
  Nb  Nb106  1  0.90394557  0.29562606  0.10042996  1
  Nb  Nb107  1  0.69685347  0.90118736  0.50679392  1
  Nb  Nb108  1  0.90054457  0.90075436  0.29172491  1
  Nb  Nb109  1  0.49895038  0.89672606  0.30112303  1
  Nb  Nb110  1  0.10174707  0.90040953  0.49855555  1
  Nb  Nb111  1  0.30440112  0.30088258  0.70040227  1
  Nb  Nb112  1  0.69684658  0.90116838  0.69972747  1
  Nb  Nb113  1  0.50191404  0.29098997  0.10024254  1
  Nb  Nb114  1  0.09724496  0.10050469  0.70126820  1
  Nb  Nb115  1  0.50131922  0.10179853  0.09767577  1
  Nb  Nb116  1  0.91189632  0.09818043  0.69891306  1
  Nb  Nb117  1  0.90264069  0.89794023  0.90016687  1
  Nb  Nb118  1  0.49872220  0.90106853  0.69935545  1
  Nb  Nb119  1  0.89749798  0.70037263  0.90061883  1
  Nb  Nb120  1  0.49319677  0.49613698  0.10586842  1
  Nb  Nb121  1  0.10290338  0.90332335  0.30244838  1
  Nb  Nb122  1  0.49735863  0.70213803  0.69714555  1
  Nb  Nb123  1  0.09556815  0.69649677  0.90146428  1
  Nb  Nb124  1  0.89757561  0.89974857  0.10639754  1
  Nb  Nb125  1  0.59167288  -0.00024314  0.20084798  1
  Nb  Nb126  1  0.00418689  0.39450718  0.59943415  1
  Nb  Nb127  1  0.80131342  0.60295387  0.19933604  1
  Nb  Nb128  1  0.20313963  0.20636149  0.39499944  1
  Nb  Nb129  1  0.39381048  0.20096869  0.60838023  1
  Nb  Nb130  1  0.79353981  0.80586362  0.60114211  1
  Nb  Nb131  1  0.80180604  0.60636216  0.80370865  1
  Nb  Nb132  1  0.19166094  0.00160862  0.60345820  1
  Nb  Nb133  1  -0.00101565  0.20007695  -0.00159865  1
  Nb  Nb134  1  0.60391965  0.80327146  -0.00240999  1
  Nb  Nb135  1  0.39791020  0.00578698  0.00056075  1
  Nb  Nb136  1  0.00045907  0.60418142  -0.00023913  1
  Nb  Nb137  1  0.40178139  0.60503373  0.39720637  1
  Nb  Nb138  1  -0.00169758  0.39246412  0.00211564  1
  Nb  Nb139  1  0.00423765  0.00241550  0.60261511  1
  Nb  Nb140  1  0.59958901  0.80731367  0.60479534  1
  Nb  Nb141  1  0.40112424  0.79980049  0.40375458  1
  Nb  Nb142  1  0.00462460  0.19680667  0.60292928  1
  Nb  Nb143  1  -0.00088790  0.80737107  0.19861451  1
  Nb  Nb144  1  -0.00315124  0.80511956  0.00096409  1
  Nb  Nb145  1  0.19477472  0.60391053  0.19690908  1
  Nb  Nb146  1  0.20110809  0.80695953  0.40449029  1
  Nb  Nb147  1  -0.00088704  0.60574201  0.19282600  1
  Nb  Nb148  1  -0.00252536  0.39263420  0.40272644  1
  Nb  Nb149  1  0.40755331  0.80112791  0.59917567  1
  Pd  Pd150  1  0.80612053  0.19990835  0.60512480  1
  Pd  Pd151  1  0.00211672  0.79771679  0.80543740  1
  Pd  Pd152  1  0.79980504  0.41080517  0.79721327  1
  Pd  Pd153  1  0.19531368  0.79819893  0.80826836  1
  Pd  Pd154  1  0.79901882  0.80929204  -0.00477754  1
  Pd  Pd155  1  0.79001648  0.20636348  0.39758523  1
  Pd  Pd156  1  0.59174425  0.80282437  0.80345801  1
  Pd  Pd157  1  0.80699033  0.00490566  -0.00704785  1
  Pd  Pd158  1  0.19770522  0.80586666  -0.00893071  1
  Pd  Pd159  1  0.39995962  0.59512977  0.80525750  1
  Pd  Pd160  1  0.60474789  0.19198427  0.79335412  1
  Pd  Pd161  1  0.80237715  0.40490925  0.19979915  1
  Pd  Pd162  1  0.79913478  0.59793333  0.39110070  1
  Pd  Pd163  1  0.58968900  0.20026345  0.60402735  1
  Pd  Pd164  1  -0.00150057  0.00020356  0.40092055  1
  Pd  Pd165  1  0.80425505  0.61232563  0.61155506  1
  Pd  Pd166  1  0.80847506  0.18895679  -0.00876957  1
  Pd  Pd167  1  0.39545840  0.20238261  0.20076653  1
  Pd  Pd168  1  0.40727303  0.80529327  -0.01140931  1
  Pd  Pd169  1  0.19988246  0.40879274  0.20251337  1
  Pd  Pd170  1  0.79440445  0.18999456  0.80028850  1
  Pd  Pd171  1  0.00376846  0.21061178  0.80039858  1
  Pd  Pd172  1  0.59956914  0.80390098  0.18965003  1
  Pd  Pd173  1  0.00028710  0.00240259  0.20155080  1
  Pd  Pd174  1  0.59789210  0.39853386  0.40345753  1
  Pd  Pd175  1  0.19634558  0.20578589  -0.00638327  1
  Pd  Pd176  1  0.80186333  0.39330384  0.39340737  1
  Pd  Pd177  1  0.19520997  0.40844400  0.60713585  1
  Pd  Pd178  1  0.00650354  0.20179931  0.40311972  1
  Pd  Pd179  1  0.21066585  0.80935633  0.59486531  1
  Pd  Pd180  1  0.81178493  -0.00718404  0.60235799  1
  Pd  Pd181  1  0.20337366  0.19098121  0.59108778  1
  Pd  Pd182  1  0.79461939  -0.00187901  0.39264937  1
  Pd  Pd183  1  0.60323013  0.20530230  0.40465212  1
  Pd  Pd184  1  0.39971046  0.38991029  0.00332701  1
  Pd  Pd185  1  0.40055955  0.40787637  0.40047556  1
  Pd  Pd186  1  0.00160737  0.18760933  0.19021308  1
  Pd  Pd187  1  0.19011215  -0.01416574  0.79338220  1
  Pd  Pd188  1  0.20989024  -0.01142630  0.00317359  1
  Pd  Pd189  1  -0.00858360  0.00287321  0.00416927  1
  Pd  Pd190  1  0.60010588  0.59340068  0.79917678  1
  Pd  Pd191  1  -0.00041649  0.41002918  0.19704614  1
  Pd  Pd192  1  0.58970267  0.60485870  0.00456231  1
  Pd  Pd193  1  0.59623585  0.39325132  0.00721234  1
  Pd  Pd194  1  0.79852079  0.80184787  0.40486675  1
  Pd  Pd195  1  0.59208929  0.39475110  0.60095346  1
  Pd  Pd196  1  0.21190468  0.60892338  0.38888986  1
  Pd  Pd197  1  0.78814674  0.00574592  0.20929754  1
  Pd  Pd198  1  0.60260535  0.00391409  0.39144397  1
  Pd  Pd199  1  0.40076025  -0.00031459  0.19505510  1
  Rh  Rh200  1  0.60303240  0.00536391  0.79359599  1
  Rh  Rh201  1  0.20892887  0.40277794  0.79599085  1
  Rh  Rh202  1  0.80718491  0.79400778  0.79335544  1
  Rh  Rh203  1  0.01071830  -0.01226945  0.79280158  1
  Rh  Rh204  1  0.19962630  0.39509944  0.00090043  1
  Rh  Rh205  1  0.19561612  0.59502827  0.60890004  1
  Rh  Rh206  1  0.80550821  0.39559541  0.60581515  1
  Rh  Rh207  1  0.40377025  0.60631284  0.59496496  1
  Rh  Rh208  1  0.80535835  0.39835664  -0.00205177  1
  Rh  Rh209  1  0.60350061  0.20649997  0.00329788  1
  Rh  Rh210  1  0.40406261  0.59930845  -0.00334799  1
  Rh  Rh211  1  0.40283262  0.39267919  0.60440457  1
  Rh  Rh212  1  0.60591659  0.59770907  0.19236004  1
  Rh  Rh213  1  0.00691006  0.58824394  0.60152026  1
  Rh  Rh214  1  0.19743845  0.60030328  0.00299976  1
  Rh  Rh215  1  0.20294051  0.20327365  0.80776903  1
  Rh  Rh216  1  0.20179518  -0.00212514  0.19468092  1
  Rh  Rh217  1  0.39144556  0.20583352  0.40716885  1
  Rh  Rh218  1  0.59310010  0.80555725  0.41264962  1
  Rh  Rh219  1  0.39842132  0.40401304  0.80068279  1
  Rh  Rh220  1  0.18795165  0.79783438  0.21425809  1
  Rh  Rh221  1  0.80098993  0.19834040  0.20097556  1
  Rh  Rh222  1  0.40298293  -0.00286512  0.39079541  1
  Rh  Rh223  1  -0.00010184  0.39554892  0.79823486  1
  Rh  Rh224  1  -0.00392245  0.60133881  0.80698138  1
  Rh  Rh225  1  0.40339158  0.00668683  0.80940212  1
  Rh  Rh226  1  0.20447312  0.19401481  0.20830172  1
  Rh  Rh227  1  0.19447121  0.39534282  0.39267670  1
  Rh  Rh228  1  0.00737398  0.80934096  0.39647594  1
  Rh  Rh229  1  0.60139098  0.19690667  0.19301617  1
  Rh  Rh230  1  0.59467561  0.58920834  0.39973977  1
  Rh  Rh231  1  0.80725843  0.58856885  -0.00359407  1
  Rh  Rh232  1  0.40297915  0.79982711  0.20688337  1
  Rh  Rh233  1  0.59873961  0.40647098  0.80017699  1
  Rh  Rh234  1  0.79921064  0.00435165  0.79781417  1
  Rh  Rh235  1  0.59853004  0.60418954  0.60409567  1
  Rh  Rh236  1  0.20243799  0.00067705  0.40223890  1
  Rh  Rh237  1  -0.00467719  0.58880186  0.40089268  1
  Rh  Rh238  1  0.40387359  0.79625581  0.79864378  1
  Rh  Rh239  1  0.39160440  0.60113764  0.20446908  1
  Rh  Rh240  1  0.39082839  0.00627387  0.60405180  1
  Rh  Rh241  1  0.59990273  0.00131357  0.60553814  1
  Rh  Rh242  1  0.40025113  0.39296254  0.19647685  1
  Rh  Rh243  1  -0.01419843  0.81322326  0.59434834  1
  Rh  Rh244  1  0.19914246  0.59718277  0.80071956  1
  Rh  Rh245  1  0.59232286  -0.00710912  0.00939087  1
  Rh  Rh246  1  0.39818145  0.19840294  0.79698095  1
  Rh  Rh247  1  0.80115969  0.79525242  0.20931696  1
  Rh  Rh248  1  0.39862289  0.19889602  0.00054727  1
  Rh  Rh249  1  0.59649473  0.39298371  0.18885536  1
