# generated using pymatgen
data_ZrScNbPdRh
_symmetry_space_group_name_H-M   'P 1'
_cell_length_a   16.55035116
_cell_length_b   16.54828313
_cell_length_c   16.55242603
_cell_angle_alpha   90.01026697
_cell_angle_beta   89.99528484
_cell_angle_gamma   89.98462294
_symmetry_Int_Tables_number   1
_chemical_formula_structural   ZrScNbPdRh
_chemical_formula_sum   'Zr50 Sc50 Nb50 Pd50 Rh50'
_cell_volume   4533.37648286
_cell_formula_units_Z   50
loop_
 _symmetry_equiv_pos_site_id
 _symmetry_equiv_pos_as_xyz
  1  'x, y, z'
loop_
 _atom_site_type_symbol
 _atom_site_label
 _atom_site_symmetry_multiplicity
 _atom_site_fract_x
 _atom_site_fract_y
 _atom_site_fract_z
 _atom_site_occupancy
  Zr  Zr0  1  0.49622570  0.90104269  0.50562553  1
  Zr  Zr1  1  0.89660679  0.10167972  0.70995788  1
  Zr  Zr2  1  0.10609708  0.68759410  0.30177296  1
  Zr  Zr3  1  0.50027776  0.50549906  0.89261671  1
  Zr  Zr4  1  0.89297332  0.90373304  0.09585630  1
  Zr  Zr5  1  0.70564721  0.49643736  0.70056037  1
  Zr  Zr6  1  0.90236069  0.29784208  0.69728847  1
  Zr  Zr7  1  0.09154719  0.10333839  0.30503245  1
  Zr  Zr8  1  0.89753335  0.49699504  0.10339989  1
  Zr  Zr9  1  0.69523976  0.09965936  0.49747367  1
  Zr  Zr10  1  0.29873275  0.09934222  0.09745106  1
  Zr  Zr11  1  0.70177565  0.49682573  0.29413613  1
  Zr  Zr12  1  0.90593185  0.49308442  0.30016906  1
  Zr  Zr13  1  0.69878984  0.89983156  0.09868505  1
  Zr  Zr14  1  0.09238284  0.90127580  0.10162937  1
  Zr  Zr15  1  0.09893969  0.69807347  0.89528200  1
  Zr  Zr16  1  0.09427903  0.89980697  0.30363331  1
  Zr  Zr17  1  0.10549592  0.49022999  0.29501183  1
  Zr  Zr18  1  0.30401934  0.50320224  0.49664917  1
  Zr  Zr19  1  0.50364197  0.90587443  0.69925052  1
  Zr  Zr20  1  0.90193176  0.30013092  0.09607873  1
  Zr  Zr21  1  0.70539805  0.90021520  0.50408229  1
  Zr  Zr22  1  0.69988094  0.29717627  0.30190284  1
  Zr  Zr23  1  0.50203995  0.09750621  0.10405672  1
  Zr  Zr24  1  0.70156633  0.09737025  0.10314369  1
  Zr  Zr25  1  0.10532598  0.70324037  0.10292138  1
  Zr  Zr26  1  0.90650129  0.09795639  0.09577623  1
  Zr  Zr27  1  0.69944901  0.50645634  0.10383566  1
  Zr  Zr28  1  0.09431757  0.10052607  0.69867562  1
  Zr  Zr29  1  0.30327650  0.90150928  0.69488860  1
  Zr  Zr30  1  0.31456400  0.10459214  0.70329989  1
  Zr  Zr31  1  0.50349591  0.69777213  0.70546151  1
  Zr  Zr32  1  0.49352932  0.90059753  0.29790985  1
  Zr  Zr33  1  0.09759725  0.70479773  0.69683052  1
  Zr  Zr34  1  0.09927997  0.89853177  0.50799803  1
  Zr  Zr35  1  0.90223984  0.69022253  0.69761797  1
  Zr  Zr36  1  0.89975798  0.29948328  0.49880547  1
  Zr  Zr37  1  0.50557979  0.90161563  0.89484126  1
  Zr  Zr38  1  0.50460750  0.69649824  0.89846691  1
  Zr  Zr39  1  0.10345865  0.50074334  0.48123081  1
  Zr  Zr40  1  0.10591094  0.31188751  0.90170026  1
  Zr  Zr41  1  0.70299709  0.69799669  0.30223839  1
  Zr  Zr42  1  0.68723068  0.30048457  0.10108492  1
  Zr  Zr43  1  0.50141302  0.89820965  0.10475897  1
  Zr  Zr44  1  0.30394379  0.10021113  0.30951651  1
  Zr  Zr45  1  0.49815498  0.49579123  0.50110607  1
  Zr  Zr46  1  0.29701078  0.30502721  0.29496218  1
  Zr  Zr47  1  0.90001509  0.90618064  0.89951187  1
  Zr  Zr48  1  0.49950903  0.10263785  0.50974821  1
  Zr  Zr49  1  0.50141953  0.30359472  0.29301436  1
  Sc  Sc50  1  0.30977224  0.29756859  0.49611411  1
  Sc  Sc51  1  0.70523240  0.30395824  0.70156377  1
  Sc  Sc52  1  0.30255973  0.09058179  0.89933891  1
  Sc  Sc53  1  0.09019213  0.10199976  0.49454204  1
  Sc  Sc54  1  0.89788180  0.90106806  0.30222733  1
  Sc  Sc55  1  0.50238126  0.69397663  0.10276045  1
  Sc  Sc56  1  0.30135827  0.70527363  0.50366423  1
  Sc  Sc57  1  0.29632044  0.89740533  0.09796244  1
  Sc  Sc58  1  0.49449739  0.29908553  0.69955303  1
  Sc  Sc59  1  0.70796133  0.69806501  0.70816930  1
  Sc  Sc60  1  0.29752679  0.49674560  0.89509058  1
  Sc  Sc61  1  0.49766783  0.49958282  0.10539259  1
  Sc  Sc62  1  0.69552387  0.11136017  0.88927518  1
  Sc  Sc63  1  0.69892235  0.10124647  0.69637700  1
  Sc  Sc64  1  0.89467368  0.50874433  0.50089973  1
  Sc  Sc65  1  0.50983553  0.30255286  0.89759700  1
  Sc  Sc66  1  0.70381992  0.90331851  0.69936867  1
  Sc  Sc67  1  0.90484386  0.49953142  0.89147092  1
  Sc  Sc68  1  0.70498661  0.49308769  0.50645942  1
  Sc  Sc69  1  0.70048898  0.09999297  0.30248760  1
  Sc  Sc70  1  0.30230807  0.30886725  0.09919453  1
  Sc  Sc71  1  0.10472752  0.49961777  0.89757146  1
  Sc  Sc72  1  0.69714702  0.69397635  0.90106636  1
  Sc  Sc73  1  0.09691929  0.50790576  0.71356797  1
  Sc  Sc74  1  0.89794143  0.90123442  0.70314182  1
  Sc  Sc75  1  0.89204238  0.90144772  0.50406488  1
  Sc  Sc76  1  0.09414243  0.30194985  0.70545662  1
  Sc  Sc77  1  0.09957952  0.09555735  0.90796011  1
  Sc  Sc78  1  0.30283541  0.69720439  0.69158625  1
  Sc  Sc79  1  0.48552936  0.69561718  0.50500680  1
  Sc  Sc80  1  0.90894229  0.30176033  0.89247466  1
  Sc  Sc81  1  0.10001705  0.30223346  0.09236246  1
  Sc  Sc82  1  0.50607901  0.30084913  0.49976504  1
  Sc  Sc83  1  0.09902249  0.90159659  0.89985185  1
  Sc  Sc84  1  0.69879380  0.90528566  0.29916790  1
  Sc  Sc85  1  0.30737767  0.30461537  0.70721612  1
  Sc  Sc86  1  0.89127903  0.70158763  0.89213570  1
  Sc  Sc87  1  0.90563201  0.29375594  0.29533728  1
  Sc  Sc88  1  0.89885616  0.10281102  0.50104966  1
  Sc  Sc89  1  0.30139031  0.69894989  0.10334977  1
  Sc  Sc90  1  0.09135080  0.89981734  0.70439207  1
  Sc  Sc91  1  0.29395824  0.68819519  0.90956562  1
  Sc  Sc92  1  0.89645498  0.69448943  0.30617323  1
  Sc  Sc93  1  0.29800853  0.49916074  0.29882007  1
  Sc  Sc94  1  0.69636870  0.29587659  0.50550365  1
  Sc  Sc95  1  0.09683372  0.29839003  0.48925534  1
  Sc  Sc96  1  0.30392690  0.49726393  0.09483636  1
  Sc  Sc97  1  0.89736011  0.10239062  0.30027602  1
  Sc  Sc98  1  0.49050575  0.70241114  0.29105740  1
  Sc  Sc99  1  0.30540152  0.30710810  0.89938872  1
  Nb  Nb100  1  0.29967129  0.10024901  0.50446424  1
  Nb  Nb101  1  0.50052653  0.09832410  0.30182774  1
  Nb  Nb102  1  0.50068050  0.10243165  0.89404281  1
  Nb  Nb103  1  0.69898961  0.30417871  0.90458072  1
  Nb  Nb104  1  0.89963713  0.49840643  0.69602671  1
  Nb  Nb105  1  0.49576304  0.50284894  0.69700539  1
  Nb  Nb106  1  0.10233071  0.10184632  0.10376645  1
  Nb  Nb107  1  0.29767353  0.49822972  0.69968798  1
  Nb  Nb108  1  0.69924898  0.89001561  0.90472864  1
  Nb  Nb109  1  0.10081301  0.70114704  0.50206583  1
  Nb  Nb110  1  0.89731164  0.10240173  0.90118132  1
  Nb  Nb111  1  0.50732432  0.50383043  0.29942668  1
  Nb  Nb112  1  0.29905369  0.89591478  0.89938886  1
  Nb  Nb113  1  0.30011248  0.90179544  0.50145782  1
  Nb  Nb114  1  0.10333422  0.30002818  0.29989405  1
  Nb  Nb115  1  0.49676287  0.09766706  0.71015826  1
  Nb  Nb116  1  0.88858061  0.70282535  0.50012523  1
  Nb  Nb117  1  0.29644882  0.70807830  0.29855579  1
  Nb  Nb118  1  0.49874074  0.29521099  0.09874444  1
  Nb  Nb119  1  0.71142624  0.69864093  0.49791955  1
  Nb  Nb120  1  0.89544327  0.69909491  0.09389578  1
  Nb  Nb121  1  0.29856089  0.89858041  0.30783900  1
  Nb  Nb122  1  0.70733849  0.69874733  0.09836463  1
  Nb  Nb123  1  0.09537022  0.49650762  0.09796651  1
  Nb  Nb124  1  0.69752441  0.49344966  0.89739642  1
  Nb  Nb125  1  0.39646246  0.80088390  0.80518522  1
  Nb  Nb126  1  0.79934797  0.79547810  0.19240569  1
  Nb  Nb127  1  0.00246099  0.79315575  0.40809555  1
  Nb  Nb128  1  0.20155316  0.19789386  0.79786394  1
  Nb  Nb129  1  0.20467521  0.00574058  0.59711606  1
  Nb  Nb130  1  0.60505927  0.79159872  0.59444471  1
  Nb  Nb131  1  0.19749610  0.00425503  0.20625150  1
  Nb  Nb132  1  0.41094472  0.19848663  0.00059107  1
  Nb  Nb133  1  0.79349516  0.39861570  -0.00387255  1
  Nb  Nb134  1  0.80121368  0.39670634  0.39583295  1
  Nb  Nb135  1  0.60092073  0.00172316  -0.00645563  1
  Nb  Nb136  1  0.19636233  0.59354144  0.59631272  1
  Nb  Nb137  1  -0.00480965  0.79491735  0.00350475  1
  Nb  Nb138  1  0.60172416  0.60163158  0.59773652  1
  Nb  Nb139  1  0.60009973  0.79348157  0.40735067  1
  Nb  Nb140  1  0.19588901  0.19645034  0.20077181  1
  Nb  Nb141  1  0.20255188  0.19993209  0.60232731  1
  Nb  Nb142  1  -0.00095662  0.60288989  0.00581718  1
  Nb  Nb143  1  0.59962752  0.60258840  0.40440056  1
  Nb  Nb144  1  0.20007471  0.80182103  0.40239773  1
  Nb  Nb145  1  0.79780216  0.20501216  -0.00529500  1
  Nb  Nb146  1  0.40159842  0.80077378  -0.00683840  1
  Nb  Nb147  1  0.20628799  0.80060069  0.80030633  1
  Nb  Nb148  1  0.19720380  0.40235829  0.60082116  1
  Nb  Nb149  1  0.00278978  0.40769009  0.59860081  1
  Pd  Pd150  1  0.20827905  0.59049009  0.19377208  1
  Pd  Pd151  1  0.59868012  0.59525287  0.00346281  1
  Pd  Pd152  1  0.80437621  0.59160341  -0.01156810  1
  Pd  Pd153  1  0.00913174  0.19622193  0.81033225  1
  Pd  Pd154  1  0.38990545  -0.00461939  0.20228354  1
  Pd  Pd155  1  -0.01338572  0.80042157  0.59716786  1
  Pd  Pd156  1  0.79777723  0.80227285  0.79909296  1
  Pd  Pd157  1  0.59930060  0.19388251  0.20774815  1
  Pd  Pd158  1  0.60794696  0.40423946  0.40281170  1
  Pd  Pd159  1  0.19943826  0.00009456  0.79281293  1
  Pd  Pd160  1  0.21116805  0.20465734  -0.00387254  1
  Pd  Pd161  1  0.40428074  0.00258001  0.40646730  1
  Pd  Pd162  1  0.40109303  0.39974937  0.39250177  1
  Pd  Pd163  1  0.79177498  0.00050157  0.80484078  1
  Pd  Pd164  1  0.40661866  -0.00145728  -0.00476639  1
  Pd  Pd165  1  -0.00252063  0.00404466  0.20305470  1
  Pd  Pd166  1  -0.01185781  0.79076246  0.20456016  1
  Pd  Pd167  1  0.78811352  0.01051908  -0.01303861  1
  Pd  Pd168  1  0.40922838  0.20277412  0.40092025  1
  Pd  Pd169  1  0.39329601  0.59601968  0.20217580  1
  Pd  Pd170  1  0.20135113  0.20426625  0.40297690  1
  Pd  Pd171  1  0.60007899  0.20843795  0.79124486  1
  Pd  Pd172  1  0.61205566  -0.00114697  0.80245848  1
  Pd  Pd173  1  0.59562949  -0.00401064  0.39854560  1
  Pd  Pd174  1  0.00527286  0.59379709  0.59220818  1
  Pd  Pd175  1  0.40905858  0.39714738  -0.00451004  1
  Pd  Pd176  1  -0.00661123  0.60506071  0.40469973  1
  Pd  Pd177  1  -0.00184246  0.60309163  0.19613901  1
  Pd  Pd178  1  0.80521621  0.39714438  0.80500444  1
  Pd  Pd179  1  0.80299524  0.00256131  0.39937028  1
  Pd  Pd180  1  0.59613685  0.40966614  0.00393410  1
  Pd  Pd181  1  0.80179605  0.20129316  0.19351980  1
  Pd  Pd182  1  0.40126988  0.60456050  0.39068972  1
  Pd  Pd183  1  0.80561360  0.60425884  0.20372180  1
  Pd  Pd184  1  -0.00095879  0.20025918  -0.00629605  1
  Pd  Pd185  1  0.59503882  0.39756575  0.79090646  1
  Pd  Pd186  1  0.20253602  0.80843638  0.20537361  1
  Pd  Pd187  1  0.19653822  -0.00263553  0.40402503  1
  Pd  Pd188  1  0.38892570  0.60329297  0.80074070  1
  Pd  Pd189  1  0.59612472  0.79804585  0.00245784  1
  Pd  Pd190  1  0.00573295  0.38981522  0.19787684  1
  Pd  Pd191  1  0.19559950  -0.00598939  0.00455375  1
  Pd  Pd192  1  0.39951683  0.79630309  0.40042188  1
  Pd  Pd193  1  0.19501765  0.59231973  0.00605508  1
  Pd  Pd194  1  0.79742069  0.19674684  0.59945687  1
  Pd  Pd195  1  -0.00426064  0.00220653  0.59988768  1
  Pd  Pd196  1  0.59736554  0.20235151  0.60924118  1
  Pd  Pd197  1  0.39619181  0.39594441  0.60158991  1
  Pd  Pd198  1  0.60555991  0.79417112  0.20665510  1
  Pd  Pd199  1  0.39390525  0.20163007  0.19522902  1
  Rh  Rh200  1  0.39785532  0.59500430  0.60384966  1
  Rh  Rh201  1  0.79745082  0.39051543  0.19822860  1
  Rh  Rh202  1  0.59988654  0.00319673  0.20368439  1
  Rh  Rh203  1  0.60734204  0.59057845  0.79284985  1
  Rh  Rh204  1  0.40091342  0.20227258  0.60003881  1
  Rh  Rh205  1  0.00280042  0.80144653  0.80638475  1
  Rh  Rh206  1  0.39798869  0.00470690  0.59682225  1
  Rh  Rh207  1  0.80111513  0.80468944  0.39233570  1
  Rh  Rh208  1  -0.00508076  0.60175129  0.80522992  1
  Rh  Rh209  1  0.20156784  0.80213641  0.60210422  1
  Rh  Rh210  1  0.60289279  0.80251817  0.79147547  1
  Rh  Rh211  1  0.80976035  0.39879388  0.59374303  1
  Rh  Rh212  1  0.80242684  -0.00503627  0.20457173  1
  Rh  Rh213  1  0.00007287  0.40493061  0.79144123  1
  Rh  Rh214  1  0.20095590  0.39363069  0.79298254  1
  Rh  Rh215  1  0.59898906  0.19113035  -0.00099733  1
  Rh  Rh216  1  0.59636898  0.40612843  0.60654997  1
  Rh  Rh217  1  0.79789412  0.20472333  0.40235760  1
  Rh  Rh218  1  0.79516093  0.60157780  0.60445245  1
  Rh  Rh219  1  0.00808835  0.20327168  0.19797898  1
  Rh  Rh220  1  0.40010872  -0.00550976  0.80390283  1
  Rh  Rh221  1  0.19662063  0.39626286  0.19147225  1
  Rh  Rh222  1  0.00602214  0.20843745  0.59420199  1
  Rh  Rh223  1  0.60187024  0.00040061  0.60353297  1
  Rh  Rh224  1  -0.00976356  -0.00698200  0.40490892  1
  Rh  Rh225  1  0.79987147  0.20631126  0.80459593  1
  Rh  Rh226  1  0.39260218  0.80415587  0.19153205  1
  Rh  Rh227  1  0.00317706  -0.00186186  -0.00224359  1
  Rh  Rh228  1  0.40448559  0.60454422  -0.00038198  1
  Rh  Rh229  1  0.40621046  0.40525605  0.20285609  1
  Rh  Rh230  1  0.79613410  0.58703949  0.39866358  1
  Rh  Rh231  1  -0.00723237  0.39714751  0.40258852  1
  Rh  Rh232  1  0.79865962  0.79658957  0.60836609  1
  Rh  Rh233  1  0.80270985  0.00763798  0.60367507  1
  Rh  Rh234  1  0.19826928  0.80140201  -0.00695224  1
  Rh  Rh235  1  0.80106904  0.79708359  -0.00040580  1
  Rh  Rh236  1  0.21301995  0.61137634  0.40455666  1
  Rh  Rh237  1  0.59437664  0.40172693  0.19641744  1
  Rh  Rh238  1  0.40532686  0.40580288  0.80109643  1
  Rh  Rh239  1  0.40715740  0.80176911  0.60739667  1
  Rh  Rh240  1  0.59912141  0.60422465  0.20418609  1
  Rh  Rh241  1  0.79908345  0.59286071  0.80182304  1
  Rh  Rh242  1  0.20654224  0.39215115  0.40464138  1
  Rh  Rh243  1  0.39809951  0.20248881  0.81268587  1
  Rh  Rh244  1  -0.00343280  0.00515906  0.80490078  1
  Rh  Rh245  1  0.59398606  0.19615377  0.39772634  1
  Rh  Rh246  1  -0.00521840  0.41110835  -0.00212324  1
  Rh  Rh247  1  0.20147089  0.40601733  0.00165322  1
  Rh  Rh248  1  -0.00572839  0.20146568  0.39706483  1
  Rh  Rh249  1  0.20439117  0.60913216  0.78859984  1
