# generated using pymatgen
data_ZrScNbPdRh
_symmetry_space_group_name_H-M   'P 1'
_cell_length_a   16.56364072
_cell_length_b   16.56185971
_cell_length_c   16.56080142
_cell_angle_alpha   89.98252151
_cell_angle_beta   89.99466789
_cell_angle_gamma   90.01907736
_symmetry_Int_Tables_number   1
_chemical_formula_structural   ZrScNbPdRh
_chemical_formula_sum   'Zr50 Sc50 Nb50 Pd50 Rh50'
_cell_volume   4543.03629995
_cell_formula_units_Z   50
loop_
 _symmetry_equiv_pos_site_id
 _symmetry_equiv_pos_as_xyz
  1  'x, y, z'
loop_
 _atom_site_type_symbol
 _atom_site_label
 _atom_site_symmetry_multiplicity
 _atom_site_fract_x
 _atom_site_fract_y
 _atom_site_fract_z
 _atom_site_occupancy
  Zr  Zr0  1  0.50010225  0.29889859  0.89795394  1
  Zr  Zr1  1  0.09421699  0.29824510  0.09170530  1
  Zr  Zr2  1  0.89820651  0.29825481  0.90715854  1
  Zr  Zr3  1  0.69811244  0.90430988  0.10279934  1
  Zr  Zr4  1  0.49521408  0.50201429  0.09099221  1
  Zr  Zr5  1  0.48809355  0.68858609  0.29826459  1
  Zr  Zr6  1  0.50451033  0.30351796  0.71165515  1
  Zr  Zr7  1  0.50608205  0.09692990  0.90785121  1
  Zr  Zr8  1  0.90294976  0.10511344  0.30571564  1
  Zr  Zr9  1  0.90232445  0.50438817  0.51030802  1
  Zr  Zr10  1  0.10690463  0.70597073  0.90071769  1
  Zr  Zr11  1  0.71357008  0.29563754  0.09367159  1
  Zr  Zr12  1  0.09529200  0.70839920  0.10106377  1
  Zr  Zr13  1  0.49749716  0.89479694  0.90218357  1
  Zr  Zr14  1  0.69665424  0.09903394  0.09499078  1
  Zr  Zr15  1  0.49858710  0.69640948  0.51081232  1
  Zr  Zr16  1  0.50100504  0.90374420  0.09389372  1
  Zr  Zr17  1  0.29852912  0.10064373  0.29631965  1
  Zr  Zr18  1  0.31291454  0.30043190  0.30348806  1
  Zr  Zr19  1  0.30580667  0.69577199  0.10039858  1
  Zr  Zr20  1  0.89732007  0.69702733  0.89087965  1
  Zr  Zr21  1  0.89470790  0.50062128  0.29084586  1
  Zr  Zr22  1  0.49988616  0.49760031  0.50310965  1
  Zr  Zr23  1  0.70298050  0.69086264  0.09300784  1
  Zr  Zr24  1  0.10888709  0.70699010  0.70381243  1
  Zr  Zr25  1  0.90452451  0.89531800  0.10169444  1
  Zr  Zr26  1  0.29527062  0.69382887  0.30329831  1
  Zr  Zr27  1  0.90523653  0.90470992  0.70565941  1
  Zr  Zr28  1  0.89829253  0.90750387  0.50298226  1
  Zr  Zr29  1  0.70577541  0.90069147  0.29960748  1
  Zr  Zr30  1  0.48965034  0.29577578  0.10012309  1
  Zr  Zr31  1  0.10240260  0.29796176  0.29702357  1
  Zr  Zr32  1  0.30169325  0.90001140  0.50250423  1
  Zr  Zr33  1  0.49765542  0.70204377  0.09356394  1
  Zr  Zr34  1  0.29354871  0.10806142  0.89612508  1
  Zr  Zr35  1  0.09667705  0.90207205  0.30015796  1
  Zr  Zr36  1  0.30444495  0.50167503  0.90029518  1
  Zr  Zr37  1  0.69793531  0.50713005  0.89594196  1
  Zr  Zr38  1  0.70165377  0.29118168  0.50918720  1
  Zr  Zr39  1  0.89365094  0.50172254  0.70177292  1
  Zr  Zr40  1  0.29200660  0.90292380  0.29981987  1
  Zr  Zr41  1  0.09882724  0.30139184  0.69973486  1
  Zr  Zr42  1  0.70148616  0.90711331  0.49721685  1
  Zr  Zr43  1  0.89972969  0.69921722  0.69989472  1
  Zr  Zr44  1  0.29798337  0.69354467  0.89448949  1
  Zr  Zr45  1  0.89745802  0.90198266  0.30832868  1
  Zr  Zr46  1  0.90181131  0.11118126  0.09646295  1
  Zr  Zr47  1  0.50699446  0.68939357  0.90040498  1
  Zr  Zr48  1  0.70073622  0.49577987  0.29714246  1
  Zr  Zr49  1  0.09955921  0.49163389  0.90563935  1
  Sc  Sc50  1  0.10177983  0.10270751  0.30181303  1
  Sc  Sc51  1  0.70400887  0.09725913  0.30504792  1
  Sc  Sc52  1  0.29824382  0.89990735  0.68331516  1
  Sc  Sc53  1  0.29131282  0.49958710  0.49353904  1
  Sc  Sc54  1  0.09582225  0.90224728  0.50006004  1
  Sc  Sc55  1  0.29963682  0.49452487  0.10337228  1
  Sc  Sc56  1  0.10424775  0.10138432  0.09929616  1
  Sc  Sc57  1  0.89438762  0.30976072  0.69503870  1
  Sc  Sc58  1  0.11043077  0.50679311  0.30374294  1
  Sc  Sc59  1  0.70147401  0.29554605  0.30976605  1
  Sc  Sc60  1  0.09304050  0.49779927  0.69011694  1
  Sc  Sc61  1  0.51048795  0.10189394  0.50121562  1
  Sc  Sc62  1  0.30596876  0.29057074  0.90052149  1
  Sc  Sc63  1  0.71577618  0.49885150  0.10116680  1
  Sc  Sc64  1  0.10032726  0.70577319  0.30459469  1
  Sc  Sc65  1  0.29837930  0.50741538  0.70404275  1
  Sc  Sc66  1  0.50580927  0.09763569  0.69668178  1
  Sc  Sc67  1  0.29873019  0.29755436  0.10497401  1
  Sc  Sc68  1  0.69479916  0.70453235  0.51351461  1
  Sc  Sc69  1  0.50405991  0.90328433  0.51004749  1
  Sc  Sc70  1  0.10593459  0.48569422  0.10294303  1
  Sc  Sc71  1  0.69722479  0.48983713  0.69926865  1
  Sc  Sc72  1  0.30038639  0.10074736  0.10079268  1
  Sc  Sc73  1  0.90331548  0.30546242  0.10320734  1
  Sc  Sc74  1  0.09002918  0.10708524  0.49577330  1
  Sc  Sc75  1  0.09584299  0.10164223  0.70007939  1
  Sc  Sc76  1  0.69377310  0.49358179  0.50954209  1
  Sc  Sc77  1  0.50747589  0.29994966  0.48609041  1
  Sc  Sc78  1  0.30134655  0.09540999  0.50370373  1
  Sc  Sc79  1  0.89657334  0.10672964  0.50009677  1
  Sc  Sc80  1  0.30159753  0.50103101  0.30031182  1
  Sc  Sc81  1  0.10046692  0.69262893  0.49661471  1
  Sc  Sc82  1  0.50133299  0.90985350  0.28843621  1
  Sc  Sc83  1  0.90025035  0.71196807  0.29802163  1
  Sc  Sc84  1  0.48909675  0.48833831  0.30674843  1
  Sc  Sc85  1  0.49745528  0.09088953  0.10185455  1
  Sc  Sc86  1  0.70456211  0.90613280  0.69657624  1
  Sc  Sc87  1  0.10089975  0.90283568  0.09097567  1
  Sc  Sc88  1  0.89667510  0.49724713  0.89106963  1
  Sc  Sc89  1  0.50516744  0.89908838  0.69588160  1
  Sc  Sc90  1  0.89964817  0.29180848  0.29310822  1
  Sc  Sc91  1  0.69359443  0.90007095  0.88856840  1
  Sc  Sc92  1  0.30467576  0.90248335  0.10546304  1
  Sc  Sc93  1  0.90498258  0.70577859  0.50145038  1
  Sc  Sc94  1  0.09768580  0.09986900  0.91083587  1
  Sc  Sc95  1  0.49978520  0.10443335  0.30022788  1
  Sc  Sc96  1  0.29680248  0.89346778  0.90790114  1
  Sc  Sc97  1  0.89286062  0.09329510  0.69953918  1
  Sc  Sc98  1  0.09919505  0.30436030  0.50311068  1
  Sc  Sc99  1  0.69708992  0.70320483  0.70403193  1
  Nb  Nb100  1  0.50343206  0.29941377  0.29841095  1
  Nb  Nb101  1  0.70709909  0.10735173  0.89360034  1
  Nb  Nb102  1  0.69798770  0.29205636  0.70741069  1
  Nb  Nb103  1  0.89990854  0.30198839  0.49690949  1
  Nb  Nb104  1  0.09292765  0.90516752  0.89394494  1
  Nb  Nb105  1  0.30125469  0.29426986  0.70860381  1
  Nb  Nb106  1  0.70139552  0.11419768  0.69625389  1
  Nb  Nb107  1  0.90176616  0.09318353  0.89624224  1
  Nb  Nb108  1  0.49978395  0.49546349  0.89105451  1
  Nb  Nb109  1  0.69869375  0.29564974  0.89286168  1
  Nb  Nb110  1  0.70206406  0.10587153  0.50678009  1
  Nb  Nb111  1  0.69873414  0.69723333  0.29985694  1
  Nb  Nb112  1  0.90188764  0.69897139  0.09729086  1
  Nb  Nb113  1  0.49786223  0.49987036  0.70748711  1
  Nb  Nb114  1  0.90279414  0.50256045  0.10084105  1
  Nb  Nb115  1  0.29927556  0.10067305  0.70139972  1
  Nb  Nb116  1  0.70144054  0.70025506  0.90128628  1
  Nb  Nb117  1  0.30271424  0.30059552  0.50535341  1
  Nb  Nb118  1  0.30623482  0.70316098  0.50622506  1
  Nb  Nb119  1  0.10099638  0.29544130  0.89991915  1
  Nb  Nb120  1  0.09498115  0.49774035  0.49543017  1
  Nb  Nb121  1  0.30590302  0.70278340  0.69417256  1
  Nb  Nb122  1  0.90492085  0.91256076  0.89730859  1
  Nb  Nb123  1  0.49297679  0.69302855  0.69432383  1
  Nb  Nb124  1  0.09823730  0.90309462  0.70662094  1
  Nb  Nb125  1  0.60191153  0.39802455  -0.00315016  1
  Nb  Nb126  1  -0.00279600  0.20064478  0.80543358  1
  Nb  Nb127  1  0.20009358  0.39237714  0.80021686  1
  Nb  Nb128  1  0.60230368  0.60202282  0.39721422  1
  Nb  Nb129  1  0.59560347  0.79548946  0.39310865  1
  Nb  Nb130  1  0.20826129  0.20416352  0.60504535  1
  Nb  Nb131  1  -0.00324071  0.60230786  0.19211982  1
  Nb  Nb132  1  -0.00307755  0.40407616  0.40203941  1
  Nb  Nb133  1  0.59842866  0.39530340  0.19439532  1
  Nb  Nb134  1  0.80302011  0.80207750  -0.00744935  1
  Nb  Nb135  1  0.80633041  0.40207415  0.40660403  1
  Nb  Nb136  1  0.39350674  -0.00394751  0.79788800  1
  Nb  Nb137  1  0.60112226  0.79066470  0.20228947  1
  Nb  Nb138  1  0.39591716  0.39320825  0.60543108  1
  Nb  Nb139  1  0.19888738  -0.00304727  0.79756116  1
  Nb  Nb140  1  0.39831538  -0.00474773  0.40084069  1
  Nb  Nb141  1  0.79470800  0.59924531  0.40089527  1
  Nb  Nb142  1  0.59915996  0.20652158  0.19913334  1
  Nb  Nb143  1  0.40159316  0.80162134  0.40216222  1
  Nb  Nb144  1  0.59828788  0.59591283  0.20136892  1
  Nb  Nb145  1  0.39911170  0.79495395  0.79192882  1
  Nb  Nb146  1  -0.00168604  0.59945319  0.00450522  1
  Nb  Nb147  1  -0.00351655  0.00007743  0.20074465  1
  Nb  Nb148  1  0.39720011  0.20705710  0.60359187  1
  Nb  Nb149  1  0.80333786  -0.00091938  -0.00943098  1
  Pd  Pd150  1  0.00569418  0.60686171  0.60499074  1
  Pd  Pd151  1  0.41091282  0.18734678  0.79760164  1
  Pd  Pd152  1  0.01041743  0.59833627  0.80331814  1
  Pd  Pd153  1  0.59820983  0.20416116  0.00475346  1
  Pd  Pd154  1  0.20531415  0.80307136  0.00542532  1
  Pd  Pd155  1  0.60345787  0.60067232  0.79018272  1
  Pd  Pd156  1  0.80907519  0.59995433  -0.00643365  1
  Pd  Pd157  1  0.00617017  0.79970901  0.59881414  1
  Pd  Pd158  1  0.00138961  0.39450890  0.80159542  1
  Pd  Pd159  1  -0.00467502  0.20215601  0.60641934  1
  Pd  Pd160  1  0.79349071  0.79134093  0.40987841  1
  Pd  Pd161  1  0.19034897  0.58943323  0.79493878  1
  Pd  Pd162  1  0.80741714  0.01018242  0.19447564  1
  Pd  Pd163  1  0.19873178  0.00738537  0.40564350  1
  Pd  Pd164  1  0.40389893  0.19200528  0.40820980  1
  Pd  Pd165  1  0.00560032  0.40539616  0.20759143  1
  Pd  Pd166  1  0.19003200  0.00911360  0.60081092  1
  Pd  Pd167  1  0.59934647  0.00549003  0.79786558  1
  Pd  Pd168  1  -0.00603543  0.79808388  -0.01200365  1
  Pd  Pd169  1  0.21117009  0.81201185  0.79514201  1
  Pd  Pd170  1  0.39277463  0.58497297  0.59777291  1
  Pd  Pd171  1  0.60893699  0.80263881  0.00189813  1
  Pd  Pd172  1  -0.00120266  0.79970823  0.80187467  1
  Pd  Pd173  1  0.21078803  0.38950662  -0.00651526  1
  Pd  Pd174  1  0.79535923  0.79368978  0.19276202  1
  Pd  Pd175  1  0.20088372  0.20145072  0.41004997  1
  Pd  Pd176  1  0.19962717  0.80349871  0.19470405  1
  Pd  Pd177  1  0.80049994  0.80633164  0.80230195  1
  Pd  Pd178  1  0.59220429  0.79452130  0.79206654  1
  Pd  Pd179  1  0.20183969  0.79524928  0.40853953  1
  Pd  Pd180  1  0.39814680  0.39650790  -0.00373013  1
  Pd  Pd181  1  0.81223282  0.20395845  0.79468005  1
  Pd  Pd182  1  0.80054788  0.80390343  0.60264329  1
  Pd  Pd183  1  0.19333289  0.59632171  0.00985296  1
  Pd  Pd184  1  0.38979732  0.00322995  -0.00660376  1
  Pd  Pd185  1  0.20624767  0.39906177  0.60649378  1
  Pd  Pd186  1  0.40383197  0.80456064  0.20542873  1
  Pd  Pd187  1  -0.00779610  0.59827645  0.38930013  1
  Pd  Pd188  1  0.19991854  0.20236595  0.19657957  1
  Pd  Pd189  1  0.19076561  0.79972419  0.59397477  1
  Pd  Pd190  1  0.20331845  -0.00134920  -0.00358775  1
  Pd  Pd191  1  0.19770244  0.39649437  0.39719124  1
  Pd  Pd192  1  0.19973331  0.59908434  0.59583906  1
  Pd  Pd193  1  0.60824610  0.00390420  0.60393133  1
  Pd  Pd194  1  0.79976644  0.40566569  -0.00754080  1
  Pd  Pd195  1  0.19271382  0.59845019  0.19391998  1
  Pd  Pd196  1  0.59244038  0.39113261  0.60338136  1
  Pd  Pd197  1  0.79121700  0.60192180  0.59947809  1
  Pd  Pd198  1  0.59441746  -0.00125938  0.39633280  1
  Pd  Pd199  1  0.00211493  0.00602982  0.59906713  1
  Rh  Rh200  1  0.00243385  0.80333439  0.20487101  1
  Rh  Rh201  1  0.79910442  0.20221922  0.40411613  1
  Rh  Rh202  1  0.80574559  0.61069653  0.20523523  1
  Rh  Rh203  1  -0.00227205  0.00171964  0.39685038  1
  Rh  Rh204  1  0.39502813  0.79215435  -0.00889233  1
  Rh  Rh205  1  0.20606030  0.39493694  0.20795619  1
  Rh  Rh206  1  -0.00014392  0.80313729  0.40554304  1
  Rh  Rh207  1  0.18668155  0.19735473  0.79674328  1
  Rh  Rh208  1  0.60498884  0.19478884  0.39450267  1
  Rh  Rh209  1  0.60022686  0.59745056  0.60495132  1
  Rh  Rh210  1  0.79131597  0.59983948  0.79196283  1
  Rh  Rh211  1  0.59742177  0.19178293  0.80070075  1
  Rh  Rh212  1  -0.00252609  0.39924538  0.59354220  1
  Rh  Rh213  1  0.39060871  0.40635721  0.79625477  1
  Rh  Rh214  1  0.60616903  0.40387298  0.39523422  1
  Rh  Rh215  1  0.20293786  0.60310153  0.40621248  1
  Rh  Rh216  1  -0.00675285  0.40518242  -0.00030991  1
  Rh  Rh217  1  0.39804295  0.59935999  -0.00432745  1
  Rh  Rh218  1  0.40519300  0.01008348  0.60004495  1
  Rh  Rh219  1  0.40345940  0.60427354  0.79866596  1
  Rh  Rh220  1  0.80283121  0.19380319  -0.00718004  1
  Rh  Rh221  1  0.40507567  0.19505992  0.20044852  1
  Rh  Rh222  1  0.60712340  0.40105757  0.80648495  1
  Rh  Rh223  1  0.40062840  0.58990115  0.19527892  1
  Rh  Rh224  1  0.39619653  0.00286662  0.20501230  1
  Rh  Rh225  1  0.79311859  0.39551465  0.80046534  1
  Rh  Rh226  1  0.79645375  0.00555441  0.60035708  1
  Rh  Rh227  1  0.60185871  0.00692084  0.20342144  1
  Rh  Rh228  1  0.00647943  0.19266670  0.19896211  1
  Rh  Rh229  1  0.80589789  0.20274986  0.60433914  1
  Rh  Rh230  1  0.79118741  0.00276928  0.79999168  1
  Rh  Rh231  1  0.20136062  0.20325884  0.00470170  1
  Rh  Rh232  1  0.59228049  0.20550505  0.60278678  1
  Rh  Rh233  1  0.79664895  0.38572026  0.20635355  1
  Rh  Rh234  1  0.00926623  0.00966445  0.79801330  1
  Rh  Rh235  1  0.80030108  0.00967264  0.40926617  1
  Rh  Rh236  1  -0.00397332  0.00221117  0.00815861  1
  Rh  Rh237  1  0.39765880  0.39761337  0.40753318  1
  Rh  Rh238  1  0.61259663  -0.00017511  -0.01053454  1
  Rh  Rh239  1  0.00101219  0.21152684  0.39908734  1
  Rh  Rh240  1  0.19120697  -0.00051155  0.19652695  1
  Rh  Rh241  1  0.40111732  0.40098514  0.20210141  1
  Rh  Rh242  1  0.39794395  0.60222094  0.41053873  1
  Rh  Rh243  1  0.39837912  0.19329957  0.00253886  1
  Rh  Rh244  1  0.40682630  0.80329575  0.60152680  1
  Rh  Rh245  1  -0.00133585  0.20018079  -0.00455276  1
  Rh  Rh246  1  0.60005884  0.80130198  0.60234620  1
  Rh  Rh247  1  0.60198795  0.58860314  0.00253354  1
  Rh  Rh248  1  0.79552216  0.39510931  0.59873934  1
  Rh  Rh249  1  0.79232938  0.19878820  0.20275144  1
