# generated using pymatgen
data_ZrScNbPdRh
_symmetry_space_group_name_H-M   'P 1'
_cell_length_a   16.55026872
_cell_length_b   16.55073292
_cell_length_c   16.55282414
_cell_angle_alpha   89.99418351
_cell_angle_beta   89.98896547
_cell_angle_gamma   89.94626798
_symmetry_Int_Tables_number   1
_chemical_formula_structural   ZrScNbPdRh
_chemical_formula_sum   'Zr50 Sc50 Nb50 Pd50 Rh50'
_cell_volume   4534.13221309
_cell_formula_units_Z   50
loop_
 _symmetry_equiv_pos_site_id
 _symmetry_equiv_pos_as_xyz
  1  'x, y, z'
loop_
 _atom_site_type_symbol
 _atom_site_label
 _atom_site_symmetry_multiplicity
 _atom_site_fract_x
 _atom_site_fract_y
 _atom_site_fract_z
 _atom_site_occupancy
  Zr  Zr0  1  0.89601395  0.29964736  0.29944882  1
  Zr  Zr1  1  0.50573723  0.49069716  0.10726828  1
  Zr  Zr2  1  0.90351119  0.70279624  0.49824054  1
  Zr  Zr3  1  0.09329455  0.69833479  0.49859145  1
  Zr  Zr4  1  0.89703466  0.09159236  0.09940093  1
  Zr  Zr5  1  0.29669925  0.29869406  0.29744875  1
  Zr  Zr6  1  0.69743982  0.90143675  0.50210438  1
  Zr  Zr7  1  0.29756225  0.29378539  0.10277649  1
  Zr  Zr8  1  0.49902139  0.10471524  0.30163037  1
  Zr  Zr9  1  0.50179674  0.70979579  0.69757971  1
  Zr  Zr10  1  0.49575955  0.90116820  0.09315842  1
  Zr  Zr11  1  0.49994628  0.11298390  0.09451938  1
  Zr  Zr12  1  0.29627423  0.70252223  0.69719703  1
  Zr  Zr13  1  0.09858518  0.29822233  0.29032203  1
  Zr  Zr14  1  0.31196275  0.50363827  0.90095861  1
  Zr  Zr15  1  0.08614408  0.89964465  0.49755597  1
  Zr  Zr16  1  0.69442295  0.49725539  0.09910411  1
  Zr  Zr17  1  0.90331753  0.49137106  0.69975740  1
  Zr  Zr18  1  0.29939424  0.49480054  0.49501491  1
  Zr  Zr19  1  0.10418069  0.10498905  0.50181225  1
  Zr  Zr20  1  0.90426434  0.09774590  0.90443089  1
  Zr  Zr21  1  0.31251211  0.30957314  0.69675776  1
  Zr  Zr22  1  0.50358397  0.50333004  0.90558944  1
  Zr  Zr23  1  0.09797192  0.90254964  0.29780178  1
  Zr  Zr24  1  0.30289116  0.50460090  0.29992681  1
  Zr  Zr25  1  0.08727302  0.69659125  0.09007843  1
  Zr  Zr26  1  0.70077249  0.49440047  0.49531562  1
  Zr  Zr27  1  0.69619553  0.89751083  0.69867595  1
  Zr  Zr28  1  0.70120883  0.49422810  0.29888852  1
  Zr  Zr29  1  0.29844684  0.90668599  0.70967565  1
  Zr  Zr30  1  0.29994002  0.49841395  0.10593913  1
  Zr  Zr31  1  0.30270970  0.69819858  0.90722958  1
  Zr  Zr32  1  0.28933911  0.90298391  0.29087852  1
  Zr  Zr33  1  0.09486226  0.49982507  0.69482710  1
  Zr  Zr34  1  0.89351590  0.90151773  0.70433017  1
  Zr  Zr35  1  0.89263539  0.48871192  0.89026127  1
  Zr  Zr36  1  0.69942889  0.71192222  0.70092779  1
  Zr  Zr37  1  0.70232500  0.29298146  0.69841814  1
  Zr  Zr38  1  0.90058431  0.90674554  0.90663454  1
  Zr  Zr39  1  0.30333183  0.29288942  0.50629575  1
  Zr  Zr40  1  0.10368606  0.89446094  0.11156082  1
  Zr  Zr41  1  0.90021702  0.50717896  0.49934860  1
  Zr  Zr42  1  0.69830657  0.49326102  0.90281342  1
  Zr  Zr43  1  0.69920254  0.89322898  0.10495532  1
  Zr  Zr44  1  0.30444277  0.69519232  0.30319328  1
  Zr  Zr45  1  0.69163084  0.70121878  0.90532692  1
  Zr  Zr46  1  0.09758580  0.08982529  0.30141802  1
  Zr  Zr47  1  0.48957461  0.70638523  0.49555691  1
  Zr  Zr48  1  0.70344818  0.50071544  0.70444944  1
  Zr  Zr49  1  0.70112497  0.10206289  0.09887840  1
  Sc  Sc50  1  0.70220778  0.30464474  0.89624803  1
  Sc  Sc51  1  0.89359174  0.89396828  0.49592082  1
  Sc  Sc52  1  0.70379572  0.29818768  0.30321060  1
  Sc  Sc53  1  0.70383666  0.89656481  0.29997657  1
  Sc  Sc54  1  0.10581373  0.30115602  0.69480845  1
  Sc  Sc55  1  0.69953533  0.10056828  0.69770597  1
  Sc  Sc56  1  0.50299976  0.10122143  0.49062242  1
  Sc  Sc57  1  0.51650025  0.70622855  0.09533741  1
  Sc  Sc58  1  0.91187666  0.69076688  0.90639080  1
  Sc  Sc59  1  0.89072086  0.09516055  0.49462892  1
  Sc  Sc60  1  0.29714529  0.29108830  0.90619985  1
  Sc  Sc61  1  0.50439232  0.29672830  0.69424196  1
  Sc  Sc62  1  0.69846615  0.70281643  0.29055164  1
  Sc  Sc63  1  0.09521243  0.69459626  0.29065117  1
  Sc  Sc64  1  0.29245744  0.70244392  0.09672360  1
  Sc  Sc65  1  0.69477105  0.10179677  0.49221182  1
  Sc  Sc66  1  0.30030400  0.11108614  0.70764758  1
  Sc  Sc67  1  0.50712272  0.90262540  0.69883223  1
  Sc  Sc68  1  0.50149007  0.90489649  0.89982234  1
  Sc  Sc69  1  0.70048950  0.90175656  0.89412499  1
  Sc  Sc70  1  0.08996017  0.50066540  0.90454748  1
  Sc  Sc71  1  0.10498649  0.50328634  0.29986537  1
  Sc  Sc72  1  0.30364100  0.10135834  0.89792644  1
  Sc  Sc73  1  0.49334699  0.90735987  0.30922422  1
  Sc  Sc74  1  0.49167796  0.48304060  0.71086426  1
  Sc  Sc75  1  0.69222100  0.29874296  0.50068072  1
  Sc  Sc76  1  0.10056052  0.29804036  0.91599936  1
  Sc  Sc77  1  0.91813082  0.29561306  0.10520422  1
  Sc  Sc78  1  0.30711912  0.89496364  0.49025092  1
  Sc  Sc79  1  0.10518415  0.90490273  0.90189920  1
  Sc  Sc80  1  0.10093984  0.50410352  0.49702189  1
  Sc  Sc81  1  0.70784931  0.70346472  0.49912262  1
  Sc  Sc82  1  0.11322450  0.30564583  0.49905795  1
  Sc  Sc83  1  0.89893023  0.68885971  0.29711826  1
  Sc  Sc84  1  0.90166415  0.90800151  0.29884869  1
  Sc  Sc85  1  0.50791876  0.49488156  0.49168630  1
  Sc  Sc86  1  0.89876496  0.69710720  0.69478094  1
  Sc  Sc87  1  0.50651469  0.30009633  0.89773422  1
  Sc  Sc88  1  0.10460447  0.89747999  0.70382710  1
  Sc  Sc89  1  0.89276169  0.10053760  0.29373466  1
  Sc  Sc90  1  0.90207670  0.49423428  0.11209488  1
  Sc  Sc91  1  0.88361078  0.30059312  0.50135016  1
  Sc  Sc92  1  0.09947714  0.70537946  0.69037361  1
  Sc  Sc93  1  0.69715466  0.10060502  0.90079352  1
  Sc  Sc94  1  0.49911275  0.09639662  0.90208948  1
  Sc  Sc95  1  0.29826422  0.69565052  0.49570484  1
  Sc  Sc96  1  0.50475286  0.50529334  0.29731410  1
  Sc  Sc97  1  0.30719793  0.90519439  0.90694100  1
  Sc  Sc98  1  0.09111289  0.11350647  0.10078730  1
  Sc  Sc99  1  0.50322504  0.09963341  0.70705315  1
  Nb  Nb100  1  0.49979009  0.90395397  0.49661771  1
  Nb  Nb101  1  0.89930541  0.29222992  0.70666092  1
  Nb  Nb102  1  0.30384821  0.49919776  0.70395436  1
  Nb  Nb103  1  0.09974159  0.69940375  0.90111244  1
  Nb  Nb104  1  0.89717952  0.29429815  0.89477999  1
  Nb  Nb105  1  0.70542025  0.70263602  0.09863188  1
  Nb  Nb106  1  0.90011650  0.49387797  0.30363987  1
  Nb  Nb107  1  0.49631608  0.30264892  0.29196106  1
  Nb  Nb108  1  0.49891993  0.70315474  0.90283538  1
  Nb  Nb109  1  0.29806966  0.09594356  0.30176587  1
  Nb  Nb110  1  0.50012419  0.30037895  0.49458018  1
  Nb  Nb111  1  0.49707532  0.29854423  0.10593498  1
  Nb  Nb112  1  0.10018509  0.48673607  0.10398048  1
  Nb  Nb113  1  0.10431155  0.30900395  0.10203589  1
  Nb  Nb114  1  0.49716368  0.70623679  0.30241277  1
  Nb  Nb115  1  0.68709239  0.30066803  0.09234100  1
  Nb  Nb116  1  0.30530860  0.10214204  0.09717266  1
  Nb  Nb117  1  0.90028154  0.69932445  0.09890493  1
  Nb  Nb118  1  0.10297236  0.09854931  0.70272649  1
  Nb  Nb119  1  0.90203557  0.89897939  0.09749362  1
  Nb  Nb120  1  0.70067430  0.09659641  0.29455197  1
  Nb  Nb121  1  0.29972694  0.10073774  0.50034406  1
  Nb  Nb122  1  0.29892578  0.90249134  0.10109804  1
  Nb  Nb123  1  0.10568905  0.10296203  0.89837376  1
  Nb  Nb124  1  0.90227502  0.10316415  0.70421352  1
  Nb  Nb125  1  0.79929752  0.60092064  0.00738051  1
  Nb  Nb126  1  0.40342495  0.59249520  0.60290827  1
  Nb  Nb127  1  0.39608511  0.00435683  0.19633116  1
  Nb  Nb128  1  0.59452496  0.80293445  0.40106408  1
  Nb  Nb129  1  0.39578033  0.00313408  0.59454500  1
  Nb  Nb130  1  0.59616318  0.00414313  0.20166480  1
  Nb  Nb131  1  0.40258860  0.39590177  0.00871493  1
  Nb  Nb132  1  -0.00130785  0.20314927  0.40363613  1
  Nb  Nb133  1  0.19396715  0.79973826  0.39430009  1
  Nb  Nb134  1  0.39917349  0.80517128  0.19840224  1
  Nb  Nb135  1  0.80625138  0.79567831  0.00649002  1
  Nb  Nb136  1  0.00220301  0.79882269  0.80665383  1
  Nb  Nb137  1  -0.00465466  0.39697483  0.39742840  1
  Nb  Nb138  1  0.19952633  0.59865778  0.80100622  1
  Nb  Nb139  1  0.00088195  0.00768156  0.60659693  1
  Nb  Nb140  1  0.20473562  0.40821130  0.80019083  1
  Nb  Nb141  1  0.80310633  0.20570557  0.00078914  1
  Nb  Nb142  1  0.59553854  0.60355894  0.79785266  1
  Nb  Nb143  1  0.40300573  0.39232922  0.39641191  1
  Nb  Nb144  1  0.20264934  0.00700280  0.00802588  1
  Nb  Nb145  1  0.59584692  0.60023277  0.60500213  1
  Nb  Nb146  1  -0.00423125  0.19727116  0.60314761  1
  Nb  Nb147  1  0.40022203  0.79668385  0.80380988  1
  Nb  Nb148  1  0.00200256  0.19613676  0.79869509  1
  Nb  Nb149  1  0.20228977  0.00480312  0.59925438  1
  Pd  Pd150  1  0.79556240  0.38995412  0.19152374  1
  Pd  Pd151  1  0.80233880  0.00318229  0.60058440  1
  Pd  Pd152  1  0.01245906  0.38548926  0.80472432  1
  Pd  Pd153  1  0.19323726  0.60317514  0.19204605  1
  Pd  Pd154  1  0.79563084  0.60217456  0.60011490  1
  Pd  Pd155  1  0.41025726  0.61377996  0.19100379  1
  Pd  Pd156  1  0.39832903  0.20301917  0.39768958  1
  Pd  Pd157  1  0.20230390  0.81178374  0.58744335  1
  Pd  Pd158  1  0.01564405  -0.00195701  0.00760822  1
  Pd  Pd159  1  0.79740874  0.20917516  0.18924896  1
  Pd  Pd160  1  -0.00893181  0.79790402  0.20476567  1
  Pd  Pd161  1  0.40628719  0.20414214  0.80501609  1
  Pd  Pd162  1  -0.00379550  0.38841903  0.58799151  1
  Pd  Pd163  1  0.19287858  0.59063121  -0.00161334  1
  Pd  Pd164  1  0.19864914  0.80832210  -0.00271690  1
  Pd  Pd165  1  0.20179306  -0.00707426  0.40992188  1
  Pd  Pd166  1  0.40410021  0.60837147  0.79198072  1
  Pd  Pd167  1  0.19647281  0.20166920  0.39598231  1
  Pd  Pd168  1  0.00722074  -0.00292058  0.79739064  1
  Pd  Pd169  1  0.81143651  0.80240810  0.20206390  1
  Pd  Pd170  1  0.41074758  0.18955582  0.60097427  1
  Pd  Pd171  1  0.20862232  0.40536111  -0.00666893  1
  Pd  Pd172  1  0.20017331  0.79580288  0.81060535  1
  Pd  Pd173  1  0.79179786  0.00820853  0.80075637  1
  Pd  Pd174  1  0.79993318  0.39789000  0.60336619  1
  Pd  Pd175  1  -0.00921413  0.58287603  0.00614056  1
  Pd  Pd176  1  0.79973777  0.59615551  0.19693656  1
  Pd  Pd177  1  0.59154998  0.00882509  0.59807754  1
  Pd  Pd178  1  0.79754482  -0.00063167  0.39498531  1
  Pd  Pd179  1  0.59565051  0.40394347  0.60427909  1
  Pd  Pd180  1  0.20544005  0.59435701  0.60057319  1
  Pd  Pd181  1  0.79942880  0.19269669  0.59622900  1
  Pd  Pd182  1  0.19603388  0.21170636  0.79825565  1
  Pd  Pd183  1  0.19826028  0.19192369  0.19787601  1
  Pd  Pd184  1  0.60188427  0.19868803  0.80346280  1
  Pd  Pd185  1  0.79595580  0.60854319  0.80859587  1
  Pd  Pd186  1  0.40998064  0.60104828  0.01633759  1
  Pd  Pd187  1  0.60244422  0.61138209  0.40429107  1
  Pd  Pd188  1  0.00605340  0.60813557  0.79179262  1
  Pd  Pd189  1  0.81312628  0.79008415  0.81446774  1
  Pd  Pd190  1  0.59957324  0.60545766  0.20023731  1
  Pd  Pd191  1  -0.00851823  0.40043365  -0.00072340  1
  Pd  Pd192  1  0.79462846  0.60393878  0.39433740  1
  Pd  Pd193  1  0.60391978  0.20558270  0.39441581  1
  Pd  Pd194  1  0.60446416  -0.00197844  0.00293929  1
  Pd  Pd195  1  0.80895475  0.39322408  0.01072257  1
  Pd  Pd196  1  -0.00256255  0.79449780  0.38575706  1
  Pd  Pd197  1  0.20247776  0.40477479  0.60397236  1
  Pd  Pd198  1  0.39553445  0.80957261  0.60519304  1
  Pd  Pd199  1  0.60463753  0.20222450  0.20533861  1
  Rh  Rh200  1  0.60635640  0.39200966  0.20646847  1
  Rh  Rh201  1  0.79269922  -0.00354030  0.00383711  1
  Rh  Rh202  1  0.59389333  0.39151766  0.39045028  1
  Rh  Rh203  1  0.20165035  0.39975709  0.39388272  1
  Rh  Rh204  1  0.58685860  0.81025716  0.21213100  1
  Rh  Rh205  1  0.59658901  0.19732823  0.59513246  1
  Rh  Rh206  1  -0.00151589  0.19387904  0.20851210  1
  Rh  Rh207  1  0.40674926  0.58782060  0.40560318  1
  Rh  Rh208  1  0.79458125  -0.00534156  0.19781680  1
  Rh  Rh209  1  0.39279028  0.00508987  0.40073415  1
  Rh  Rh210  1  0.40039332  0.79784030  0.00062332  1
  Rh  Rh211  1  0.80143301  0.19460731  0.80843916  1
  Rh  Rh212  1  0.80134581  0.40087113  0.40263305  1
  Rh  Rh213  1  0.59137781  0.80069596  0.80849189  1
  Rh  Rh214  1  0.19397578  0.60884014  0.40030434  1
  Rh  Rh215  1  0.79731104  0.79619954  0.39365485  1
  Rh  Rh216  1  0.00068468  0.59133100  0.39555896  1
  Rh  Rh217  1  0.39651329  0.80456772  0.38984828  1
  Rh  Rh218  1  0.39293344  0.38817216  0.81618035  1
  Rh  Rh219  1  0.59033065  0.39211800  -0.00020068  1
  Rh  Rh220  1  0.79865629  0.19631018  0.39909319  1
  Rh  Rh221  1  0.39744042  0.39909200  0.20196604  1
  Rh  Rh222  1  0.39445552  0.19370250  0.20527480  1
  Rh  Rh223  1  0.60770585  -0.00630977  0.39216046  1
  Rh  Rh224  1  0.20517242  0.78738949  0.20375950  1
  Rh  Rh225  1  -0.00747027  0.00910175  0.40615582  1
  Rh  Rh226  1  -0.00240001  0.59999618  0.60207060  1
  Rh  Rh227  1  0.40478472  0.20624214  -0.00474493  1
  Rh  Rh228  1  -0.00620423  0.81042143  0.61281855  1
  Rh  Rh229  1  0.20292742  0.00493263  0.80619979  1
  Rh  Rh230  1  0.60317056  0.20571132  -0.00669310  1
  Rh  Rh231  1  0.60693526  0.80909484  -0.00539494  1
  Rh  Rh232  1  0.40742892  0.40548742  0.58578115  1
  Rh  Rh233  1  0.60323187  0.00025980  0.79832210  1
  Rh  Rh234  1  0.40363660  -0.00356021  0.79463103  1
  Rh  Rh235  1  0.80385428  0.80155896  0.59827626  1
  Rh  Rh236  1  0.00085816  0.59174348  0.19592892  1
  Rh  Rh237  1  0.60520478  0.40145441  0.79588385  1
  Rh  Rh238  1  0.00569157  0.40633567  0.20920716  1
  Rh  Rh239  1  0.39571821  0.00635903  0.00167869  1
  Rh  Rh240  1  0.60107661  0.79579161  0.58474516  1
  Rh  Rh241  1  0.20117406  0.01324786  0.18907455  1
  Rh  Rh242  1  0.79587281  0.39210979  0.79175267  1
  Rh  Rh243  1  -0.00176961  0.00140188  0.19474142  1
  Rh  Rh244  1  -0.00321104  0.20363636  -0.00563357  1
  Rh  Rh245  1  0.20133509  0.19724840  0.60802513  1
  Rh  Rh246  1  0.19627209  0.19245863  0.00677916  1
  Rh  Rh247  1  0.20062287  0.40229972  0.20402267  1
  Rh  Rh248  1  0.60290599  0.59943550  -0.00012213  1
  Rh  Rh249  1  -0.00101575  0.80557598  -0.00460918  1
