# generated using pymatgen
data_ZrScNbPdRh
_symmetry_space_group_name_H-M   'P 1'
_cell_length_a   16.55355343
_cell_length_b   16.55918858
_cell_length_c   16.55461319
_cell_angle_alpha   90.00606271
_cell_angle_beta   89.98442332
_cell_angle_gamma   89.99126663
_symmetry_Int_Tables_number   1
_chemical_formula_structural   ZrScNbPdRh
_chemical_formula_sum   'Zr50 Sc50 Nb50 Pd50 Rh50'
_cell_volume   4537.84127653
_cell_formula_units_Z   50
loop_
 _symmetry_equiv_pos_site_id
 _symmetry_equiv_pos_as_xyz
  1  'x, y, z'
loop_
 _atom_site_type_symbol
 _atom_site_label
 _atom_site_symmetry_multiplicity
 _atom_site_fract_x
 _atom_site_fract_y
 _atom_site_fract_z
 _atom_site_occupancy
  Zr  Zr0  1  0.49297706  0.90009217  0.88820790  1
  Zr  Zr1  1  0.89453955  0.09567272  0.50578720  1
  Zr  Zr2  1  0.10243702  0.89391615  0.10254521  1
  Zr  Zr3  1  0.90578930  0.89769279  0.10255926  1
  Zr  Zr4  1  0.69700770  0.50110314  0.90055280  1
  Zr  Zr5  1  0.89455937  0.69953895  0.50237331  1
  Zr  Zr6  1  0.90496932  0.70067832  0.90181385  1
  Zr  Zr7  1  0.49047329  0.90011253  0.09672854  1
  Zr  Zr8  1  0.10206305  0.30687241  0.90439127  1
  Zr  Zr9  1  0.30799537  0.91249354  0.69860303  1
  Zr  Zr10  1  0.70459347  0.49877012  0.10207089  1
  Zr  Zr11  1  0.49430185  0.10099485  0.70070242  1
  Zr  Zr12  1  0.30211122  0.29532852  0.90692159  1
  Zr  Zr13  1  0.70070139  0.49574397  0.28824495  1
  Zr  Zr14  1  0.50119332  0.29576582  0.69915037  1
  Zr  Zr15  1  0.69605105  0.30463693  0.69721837  1
  Zr  Zr16  1  0.90158424  0.49492669  0.49894363  1
  Zr  Zr17  1  0.50217453  0.49766456  0.70768891  1
  Zr  Zr18  1  0.49715700  0.70893549  0.69324026  1
  Zr  Zr19  1  0.08836977  0.89547177  0.68859615  1
  Zr  Zr20  1  0.10638687  0.29980138  0.10062963  1
  Zr  Zr21  1  0.89690882  0.08473857  0.70234581  1
  Zr  Zr22  1  0.89848471  0.30016075  0.70377047  1
  Zr  Zr23  1  0.49252718  0.70147884  0.10530111  1
  Zr  Zr24  1  0.10599429  0.90642409  0.91417481  1
  Zr  Zr25  1  0.29761471  0.49533258  0.89482697  1
  Zr  Zr26  1  0.50036757  0.29727691  0.89984805  1
  Zr  Zr27  1  0.69569475  0.90019773  0.48997569  1
  Zr  Zr28  1  0.90536416  0.70509764  0.29923821  1
  Zr  Zr29  1  0.30976157  0.69989574  0.49609125  1
  Zr  Zr30  1  0.49301394  0.49655420  0.49094500  1
  Zr  Zr31  1  0.70053456  0.70609304  0.30196379  1
  Zr  Zr32  1  0.11056814  0.70831732  0.50847591  1
  Zr  Zr33  1  0.30209716  0.69821276  0.29387109  1
  Zr  Zr34  1  0.30674962  0.10219420  0.30365512  1
  Zr  Zr35  1  0.11355318  0.50943077  0.70973654  1
  Zr  Zr36  1  0.10138111  0.29174066  0.30754183  1
  Zr  Zr37  1  0.70344508  0.90924830  0.10220267  1
  Zr  Zr38  1  0.70705992  0.50004910  0.51054108  1
  Zr  Zr39  1  0.29091580  0.68887353  0.69080648  1
  Zr  Zr40  1  0.90230814  0.30100132  0.90127992  1
  Zr  Zr41  1  0.89309186  0.30222930  0.09589367  1
  Zr  Zr42  1  0.69658956  0.11034437  0.10532622  1
  Zr  Zr43  1  0.09716308  0.29656996  0.50088294  1
  Zr  Zr44  1  0.09230325  0.90309945  0.29330018  1
  Zr  Zr45  1  0.11245839  0.69812638  0.09378648  1
  Zr  Zr46  1  0.30023525  0.10144097  0.69718526  1
  Zr  Zr47  1  0.09910990  0.49437220  0.09897661  1
  Zr  Zr48  1  0.29797244  0.10037369  0.51078404  1
  Zr  Zr49  1  0.50010947  0.10329570  0.29857544  1
  Sc  Sc50  1  0.09969573  0.30707194  0.70593220  1
  Sc  Sc51  1  0.70085873  0.49595216  0.70027803  1
  Sc  Sc52  1  0.69790933  0.30586058  0.10268713  1
  Sc  Sc53  1  0.69550463  0.10406108  0.89646416  1
  Sc  Sc54  1  0.49938125  0.30171065  0.31222991  1
  Sc  Sc55  1  0.50090759  0.29748292  0.08925977  1
  Sc  Sc56  1  0.90432553  0.69580194  0.09550901  1
  Sc  Sc57  1  0.50517972  0.90109564  0.69961446  1
  Sc  Sc58  1  0.90787020  0.90462767  0.90093329  1
  Sc  Sc59  1  0.10585753  0.71206360  0.29543722  1
  Sc  Sc60  1  0.49841577  0.49134167  0.89944014  1
  Sc  Sc61  1  0.69868467  0.70896449  0.50109978  1
  Sc  Sc62  1  0.29222500  0.49933580  0.10299663  1
  Sc  Sc63  1  0.10388975  0.10324092  0.50083451  1
  Sc  Sc64  1  0.69629198  0.90603115  0.88835833  1
  Sc  Sc65  1  0.89434125  0.30173731  0.49555065  1
  Sc  Sc66  1  0.30774367  0.10104307  0.09317787  1
  Sc  Sc67  1  0.50258225  0.70276343  0.88528292  1
  Sc  Sc68  1  0.10071156  0.09303422  0.69505201  1
  Sc  Sc69  1  0.69843127  0.09000914  0.69879827  1
  Sc  Sc70  1  0.09685159  0.69160603  0.89710735  1
  Sc  Sc71  1  0.29301317  0.29606544  0.50074892  1
  Sc  Sc72  1  0.49863405  0.49744108  0.29757494  1
  Sc  Sc73  1  0.30515604  0.49851136  0.30410804  1
  Sc  Sc74  1  0.09907001  0.90118099  0.49684056  1
  Sc  Sc75  1  0.50109867  0.90947396  0.30404255  1
  Sc  Sc76  1  0.10259571  0.48745870  0.50691146  1
  Sc  Sc77  1  0.90228882  0.30125123  0.30245033  1
  Sc  Sc78  1  0.90047998  0.09883348  0.30181485  1
  Sc  Sc79  1  0.69579686  0.29555577  0.29949269  1
  Sc  Sc80  1  0.09935017  0.48685347  0.29523543  1
  Sc  Sc81  1  0.30017437  0.89282501  0.29553772  1
  Sc  Sc82  1  0.48986302  0.69452692  0.29839212  1
  Sc  Sc83  1  0.30126359  0.89640194  0.49810770  1
  Sc  Sc84  1  0.89168282  0.10807167  0.10567912  1
  Sc  Sc85  1  0.69414439  0.70144027  0.69761790  1
  Sc  Sc86  1  0.90411983  0.49704002  0.90918740  1
  Sc  Sc87  1  0.29795161  0.89114415  0.08949993  1
  Sc  Sc88  1  0.89253236  0.50055593  0.69611285  1
  Sc  Sc89  1  0.30081071  0.29152088  0.70134870  1
  Sc  Sc90  1  0.69856263  0.09906501  0.49564824  1
  Sc  Sc91  1  0.30052517  0.30031817  0.09200176  1
  Sc  Sc92  1  0.29986534  0.30086884  0.30511032  1
  Sc  Sc93  1  0.29439443  0.70210982  0.90405346  1
  Sc  Sc94  1  0.50679641  0.49397495  0.10232895  1
  Sc  Sc95  1  0.70104522  0.30197351  0.91255657  1
  Sc  Sc96  1  0.69561715  0.29983474  0.50104301  1
  Sc  Sc97  1  0.10238797  0.50104809  0.90052953  1
  Sc  Sc98  1  0.10531540  0.08900958  0.10055089  1
  Sc  Sc99  1  0.50046928  0.89573065  0.50589402  1
  Nb  Nb100  1  0.30246568  0.69656973  0.10341616  1
  Nb  Nb101  1  0.70247228  0.90268247  0.69853815  1
  Nb  Nb102  1  0.09562300  0.70094168  0.70220066  1
  Nb  Nb103  1  0.50092065  0.69929919  0.50140117  1
  Nb  Nb104  1  0.29972558  0.50338933  0.50419901  1
  Nb  Nb105  1  0.90145960  0.50394347  0.29800621  1
  Nb  Nb106  1  0.49540957  0.10422879  0.49897557  1
  Nb  Nb107  1  0.90223412  0.10118150  0.89781961  1
  Nb  Nb108  1  0.49743266  0.10371680  0.90056647  1
  Nb  Nb109  1  0.69527001  0.08261031  0.29410533  1
  Nb  Nb110  1  0.50174887  0.30352858  0.50501676  1
  Nb  Nb111  1  0.29422705  0.09331321  0.89722852  1
  Nb  Nb112  1  0.90065344  0.90075511  0.50133096  1
  Nb  Nb113  1  0.30029682  0.49936441  0.69773989  1
  Nb  Nb114  1  0.90842255  0.70520034  0.70254404  1
  Nb  Nb115  1  0.70183338  0.90541306  0.29909137  1
  Nb  Nb116  1  0.89939885  0.49591393  0.11483382  1
  Nb  Nb117  1  0.70484457  0.70509931  0.90295944  1
  Nb  Nb118  1  0.49990864  0.10087423  0.09476124  1
  Nb  Nb119  1  0.89716684  0.89780427  0.30344157  1
  Nb  Nb120  1  0.29520464  0.90410494  0.89273982  1
  Nb  Nb121  1  0.10504770  0.09939173  0.29944403  1
  Nb  Nb122  1  0.10119737  0.09974531  0.90575958  1
  Nb  Nb123  1  0.89733564  0.90192802  0.69502830  1
  Nb  Nb124  1  0.70161389  0.70531904  0.09630852  1
  Nb  Nb125  1  0.80178085  0.61089430  0.80298958  1
  Nb  Nb126  1  0.19644736  0.19206339  0.81011065  1
  Nb  Nb127  1  0.60436111  0.80340559  0.19679294  1
  Nb  Nb128  1  0.59312328  0.59980791  0.59386978  1
  Nb  Nb129  1  0.39839352  0.40262285  0.59838246  1
  Nb  Nb130  1  0.19970892  0.00333844  0.39243597  1
  Nb  Nb131  1  0.40032437  0.39611852  0.19872511  1
  Nb  Nb132  1  0.80422054  0.80787944  0.60476390  1
  Nb  Nb133  1  0.79790008  0.80540267  0.20277521  1
  Nb  Nb134  1  0.19657664  0.80495238  0.79589744  1
  Nb  Nb135  1  -0.00583703  0.20002105  0.60425572  1
  Nb  Nb136  1  0.00356917  0.59792957  0.40296676  1
  Nb  Nb137  1  0.60234093  0.80153167  0.00058009  1
  Nb  Nb138  1  0.19899263  0.59973726  0.40550175  1
  Nb  Nb139  1  0.80180073  0.59725519  0.39488770  1
  Nb  Nb140  1  0.00240471  0.19758629  -0.00420727  1
  Nb  Nb141  1  0.40221036  0.60159033  0.00298439  1
  Nb  Nb142  1  0.80503612  0.19812606  0.80094610  1
  Nb  Nb143  1  0.80391581  0.80218244  0.79422113  1
  Nb  Nb144  1  0.60205704  0.61020525  0.00155878  1
  Nb  Nb145  1  0.60376747  0.59994650  0.40333303  1
  Nb  Nb146  1  0.20037526  0.19564337  0.20391636  1
  Nb  Nb147  1  0.00344750  0.60544266  0.60221780  1
  Nb  Nb148  1  0.79699095  0.00651349  -0.00149334  1
  Nb  Nb149  1  0.59429935  0.00262646  -0.00021744  1
  Pd  Pd150  1  0.80066398  0.19983257  0.60669152  1
  Pd  Pd151  1  -0.00038178  0.41266396  0.79787622  1
  Pd  Pd152  1  0.39845358  0.21041530  0.19442037  1
  Pd  Pd153  1  0.20909016  0.80939623  0.60630962  1
  Pd  Pd154  1  -0.00091328  0.40144962  0.60759494  1
  Pd  Pd155  1  -0.00200953  0.39106802  0.20216511  1
  Pd  Pd156  1  0.60604708  0.60335430  0.79883452  1
  Pd  Pd157  1  0.00492511  0.00419959  0.40366869  1
  Pd  Pd158  1  0.00409828  0.19435902  0.79802220  1
  Pd  Pd159  1  0.60745910  0.40564854  0.39992709  1
  Pd  Pd160  1  -0.00879866  0.01077129  0.01034081  1
  Pd  Pd161  1  0.21267832  0.00115983  0.19960726  1
  Pd  Pd162  1  0.40728156  0.59322720  0.60238491  1
  Pd  Pd163  1  0.80056068  0.59404793  -0.00106819  1
  Pd  Pd164  1  0.79330800  0.19413978  0.39226571  1
  Pd  Pd165  1  -0.00530091  0.19299096  0.40836157  1
  Pd  Pd166  1  0.00474847  0.79726547  0.40487002  1
  Pd  Pd167  1  0.60420389  0.19369925  0.39944929  1
  Pd  Pd168  1  0.19004647  -0.00241891  0.79426384  1
  Pd  Pd169  1  0.00721673  -0.00563534  0.80177592  1
  Pd  Pd170  1  0.20772509  0.39350994  0.60660239  1
  Pd  Pd171  1  0.59088096  -0.00271226  0.19409362  1
  Pd  Pd172  1  0.00642989  0.19664621  0.19204422  1
  Pd  Pd173  1  0.79596341  0.40121785  0.80575522  1
  Pd  Pd174  1  0.40133788  0.79218385  -0.01020204  1
  Pd  Pd175  1  0.01166962  0.60484561  0.20458618  1
  Pd  Pd176  1  0.39482113  0.60430088  0.80597229  1
  Pd  Pd177  1  0.00056541  0.59363979  0.00544900  1
  Pd  Pd178  1  0.80122991  0.00246120  0.39881376  1
  Pd  Pd179  1  0.20292440  0.40638198  0.40015091  1
  Pd  Pd180  1  0.59782713  0.60591608  0.19985895  1
  Pd  Pd181  1  0.38436276  0.79346867  0.79263382  1
  Pd  Pd182  1  0.39620559  -0.00329938  0.40688213  1
  Pd  Pd183  1  0.79775882  0.20337534  0.21211519  1
  Pd  Pd184  1  0.58822947  0.79658640  0.39114255  1
  Pd  Pd185  1  0.60915097  0.20213023  0.80034779  1
  Pd  Pd186  1  0.39820365  0.00102218  -0.00774872  1
  Pd  Pd187  1  0.19615584  0.59489003  0.21037867  1
  Pd  Pd188  1  0.39490775  0.39221917  0.79277917  1
  Pd  Pd189  1  0.79507607  0.40211865  0.39445370  1
  Pd  Pd190  1  0.40729913  0.80334815  0.39480069  1
  Pd  Pd191  1  0.00439624  0.80928490  0.80834045  1
  Pd  Pd192  1  0.39425750  -0.00292767  0.19756185  1
  Pd  Pd193  1  0.59711954  0.00264465  0.59465381  1
  Pd  Pd194  1  0.80244669  0.60999098  0.20041308  1
  Pd  Pd195  1  0.59163348  0.20717239  0.20138683  1
  Pd  Pd196  1  -0.00701061  0.00779287  0.19807107  1
  Pd  Pd197  1  0.39849404  0.20570817  0.40932542  1
  Pd  Pd198  1  0.60106195  0.19161470  0.59692198  1
  Pd  Pd199  1  0.79816012  0.81404853  -0.00443407  1
  Rh  Rh200  1  0.80249919  0.40801452  0.00434774  1
  Rh  Rh201  1  0.39447035  0.39461101  0.40360280  1
  Rh  Rh202  1  0.59280960  0.00278090  0.80061786  1
  Rh  Rh203  1  0.60576935  0.79892906  0.60185244  1
  Rh  Rh204  1  0.60804970  0.80279375  0.79912198  1
  Rh  Rh205  1  0.19240585  0.59438481  0.59219978  1
  Rh  Rh206  1  0.00877570  0.79446998  -0.00022018  1
  Rh  Rh207  1  0.20679084  0.39066077  0.79967918  1
  Rh  Rh208  1  0.80076156  -0.00031225  0.80865728  1
  Rh  Rh209  1  0.80915287  -0.00244082  0.20027067  1
  Rh  Rh210  1  0.58935011  0.39008581  0.20173951  1
  Rh  Rh211  1  -0.00020103  0.40350501  0.39604142  1
  Rh  Rh212  1  -0.00429787  0.79427153  0.19289354  1
  Rh  Rh213  1  0.19851699  -0.00627807  0.59048634  1
  Rh  Rh214  1  0.59800887  0.19546719  0.00057325  1
  Rh  Rh215  1  0.79871736  0.61109685  0.60605152  1
  Rh  Rh216  1  0.40836768  0.00001676  0.59383736  1
  Rh  Rh217  1  0.18596378  0.20628389  0.61348304  1
  Rh  Rh218  1  0.00248569  0.00544663  0.59151286  1
  Rh  Rh219  1  0.80466310  0.39320602  0.20474267  1
  Rh  Rh220  1  0.20512474  0.80158586  0.19652176  1
  Rh  Rh221  1  0.20647798  0.59711469  -0.00231415  1
  Rh  Rh222  1  0.20424008  0.19177290  0.39622366  1
  Rh  Rh223  1  0.20255895  0.40802281  -0.00103630  1
  Rh  Rh224  1  0.80395898  0.80346368  0.40003364  1
  Rh  Rh225  1  0.59089935  0.40708952  0.59935560  1
  Rh  Rh226  1  0.79083349  -0.00864517  0.59039452  1
  Rh  Rh227  1  0.40056033  0.19392951  -0.00457933  1
  Rh  Rh228  1  0.39929065  0.41117466  0.00867856  1
  Rh  Rh229  1  0.19500008  0.19104981  0.00307392  1
  Rh  Rh230  1  0.19771899  0.80515071  0.39450560  1
  Rh  Rh231  1  -0.00669063  0.79704626  0.59182166  1
  Rh  Rh232  1  0.40288142  0.80631558  0.20372421  1
  Rh  Rh233  1  0.20549817  0.60876937  0.80509712  1
  Rh  Rh234  1  0.80589640  0.19292575  -0.00920844  1
  Rh  Rh235  1  0.40417753  0.20858406  0.59300374  1
  Rh  Rh236  1  -0.00180430  0.39908107  0.00790469  1
  Rh  Rh237  1  0.39619341  0.80300481  0.60233405  1
  Rh  Rh238  1  0.80052304  0.39046528  0.59840808  1
  Rh  Rh239  1  -0.00887682  0.59250662  0.79207900  1
  Rh  Rh240  1  0.59257085  0.00710367  0.40323049  1
  Rh  Rh241  1  0.20822798  0.00086173  0.00655788  1
  Rh  Rh242  1  0.40396603  0.00833954  0.80178922  1
  Rh  Rh243  1  0.39681235  0.58510106  0.19179762  1
  Rh  Rh244  1  0.39127702  0.19380974  0.80853262  1
  Rh  Rh245  1  0.20128069  0.79632163  -0.00643995  1
  Rh  Rh246  1  0.60430646  0.39155925  0.80525800  1
  Rh  Rh247  1  0.60094595  0.40731944  -0.00052014  1
  Rh  Rh248  1  0.39768693  0.60045527  0.39833821  1
  Rh  Rh249  1  0.20914460  0.38806702  0.20264543  1
