# generated using pymatgen
data_ZrScNbPdRh
_symmetry_space_group_name_H-M   'P 1'
_cell_length_a   16.56709565
_cell_length_b   16.55923394
_cell_length_c   16.56213001
_cell_angle_alpha   89.99828285
_cell_angle_beta   90.03690548
_cell_angle_gamma   89.94613566
_symmetry_Int_Tables_number   1
_chemical_formula_structural   ZrScNbPdRh
_chemical_formula_sum   'Zr50 Sc50 Nb50 Pd50 Rh50'
_cell_volume   4543.62550534
_cell_formula_units_Z   50
loop_
 _symmetry_equiv_pos_site_id
 _symmetry_equiv_pos_as_xyz
  1  'x, y, z'
loop_
 _atom_site_type_symbol
 _atom_site_label
 _atom_site_symmetry_multiplicity
 _atom_site_fract_x
 _atom_site_fract_y
 _atom_site_fract_z
 _atom_site_occupancy
  Zr  Zr0  1  0.70417935  0.30531326  0.50009519  1
  Zr  Zr1  1  0.10418212  0.09709185  0.68976158  1
  Zr  Zr2  1  0.69639057  0.10269010  0.89577030  1
  Zr  Zr3  1  0.49957248  0.30212441  0.10431226  1
  Zr  Zr4  1  0.69552908  0.30522275  0.10680168  1
  Zr  Zr5  1  0.89041466  0.49746922  0.90003239  1
  Zr  Zr6  1  0.49722701  0.70361808  0.29713782  1
  Zr  Zr7  1  0.08215125  0.50101636  0.89885540  1
  Zr  Zr8  1  0.89499392  0.90279317  0.09596155  1
  Zr  Zr9  1  0.90277335  0.09970055  0.10290067  1
  Zr  Zr10  1  0.89366254  0.29650992  0.70152196  1
  Zr  Zr11  1  0.90675651  0.30080155  0.50485097  1
  Zr  Zr12  1  0.10138215  0.89988070  0.69905340  1
  Zr  Zr13  1  0.50355640  0.09928299  0.09923884  1
  Zr  Zr14  1  0.69803415  0.29463021  0.70941106  1
  Zr  Zr15  1  0.10045248  0.11590793  0.49780936  1
  Zr  Zr16  1  0.30219882  0.89765788  0.29268280  1
  Zr  Zr17  1  0.89641859  0.89616430  0.50525301  1
  Zr  Zr18  1  0.30183206  0.89636897  0.89653639  1
  Zr  Zr19  1  0.10344758  0.10291972  0.30373383  1
  Zr  Zr20  1  0.49574085  0.30285749  0.70063269  1
  Zr  Zr21  1  0.10800914  0.89924701  0.10371757  1
  Zr  Zr22  1  0.89591494  0.50445829  0.50595521  1
  Zr  Zr23  1  0.90260066  0.31204678  0.90228389  1
  Zr  Zr24  1  0.50119815  0.50352288  0.89324314  1
  Zr  Zr25  1  0.10642662  0.50552112  0.29737107  1
  Zr  Zr26  1  0.49796102  0.09106750  0.50765330  1
  Zr  Zr27  1  0.10891486  0.70185295  0.69139957  1
  Zr  Zr28  1  0.10033890  0.50717458  0.09977531  1
  Zr  Zr29  1  0.70086502  0.10061318  0.69962254  1
  Zr  Zr30  1  0.50451364  0.30384713  0.29103572  1
  Zr  Zr31  1  0.30174259  0.49599564  0.10409955  1
  Zr  Zr32  1  0.70491455  0.29835528  0.29828628  1
  Zr  Zr33  1  0.30734727  0.50705970  0.69551457  1
  Zr  Zr34  1  0.90001199  0.09547847  0.49621955  1
  Zr  Zr35  1  0.30391892  0.29970964  0.89786422  1
  Zr  Zr36  1  0.09720957  0.69666216  0.30037749  1
  Zr  Zr37  1  0.70158591  0.09600083  0.50004745  1
  Zr  Zr38  1  0.49368644  0.89185228  0.29975289  1
  Zr  Zr39  1  0.70046520  0.70571389  0.70717172  1
  Zr  Zr40  1  0.70506268  0.09698804  0.10202275  1
  Zr  Zr41  1  0.30222369  0.70376841  0.69730343  1
  Zr  Zr42  1  0.29845191  0.70519159  0.89462684  1
  Zr  Zr43  1  0.90152353  0.50233779  0.29485763  1
  Zr  Zr44  1  0.90242503  0.70264186  0.49852715  1
  Zr  Zr45  1  0.50055980  0.49733630  0.09499863  1
  Zr  Zr46  1  0.89128777  0.70008920  0.30524902  1
  Zr  Zr47  1  0.30174299  0.10115694  0.10178566  1
  Zr  Zr48  1  0.90122194  0.09160654  0.70116689  1
  Zr  Zr49  1  0.49601276  0.09657216  0.29037612  1
  Sc  Sc50  1  0.49910958  0.30609532  0.50576921  1
  Sc  Sc51  1  0.10461469  0.90166021  0.90516427  1
  Sc  Sc52  1  0.29999674  0.89370929  0.69585429  1
  Sc  Sc53  1  0.69952380  0.70067501  0.89503214  1
  Sc  Sc54  1  0.10029413  0.09992349  0.91773907  1
  Sc  Sc55  1  0.50369195  0.89729712  0.90610456  1
  Sc  Sc56  1  0.49711302  0.10231705  0.89025320  1
  Sc  Sc57  1  0.89035428  0.70108145  0.70178205  1
  Sc  Sc58  1  0.50364246  0.90099899  0.68446323  1
  Sc  Sc59  1  0.69610348  0.50105446  0.30774588  1
  Sc  Sc60  1  0.31101999  0.50147320  0.90066791  1
  Sc  Sc61  1  0.30414171  0.30020000  0.10192386  1
  Sc  Sc62  1  0.70017806  0.89499315  0.50706260  1
  Sc  Sc63  1  0.30901814  0.50708927  0.49980497  1
  Sc  Sc64  1  0.88782287  0.69112033  0.09993673  1
  Sc  Sc65  1  0.29857579  0.70021987  0.09030119  1
  Sc  Sc66  1  0.08975013  0.89438101  0.50608289  1
  Sc  Sc67  1  0.89763761  0.90355128  0.90034780  1
  Sc  Sc68  1  0.49418084  0.69492628  0.09862714  1
  Sc  Sc69  1  0.30022004  0.29654409  0.50220009  1
  Sc  Sc70  1  0.31314231  0.89577411  0.50192755  1
  Sc  Sc71  1  0.09097888  0.29787721  0.68256458  1
  Sc  Sc72  1  0.50250994  0.10204593  0.69756306  1
  Sc  Sc73  1  0.49537132  0.30142702  0.89548868  1
  Sc  Sc74  1  0.71172044  0.10260386  0.29989506  1
  Sc  Sc75  1  0.69352119  0.69735022  0.30495066  1
  Sc  Sc76  1  0.30376266  0.69884450  0.50836010  1
  Sc  Sc77  1  0.49911013  0.89034495  0.09669740  1
  Sc  Sc78  1  0.89141216  0.69067749  0.89703916  1
  Sc  Sc79  1  0.29852969  0.10082069  0.29181724  1
  Sc  Sc80  1  0.49949279  0.49549244  0.50181640  1
  Sc  Sc81  1  0.29991148  0.89509176  0.10220939  1
  Sc  Sc82  1  0.89912456  0.30748951  0.10989425  1
  Sc  Sc83  1  0.49447184  0.50262252  0.29864021  1
  Sc  Sc84  1  0.89791910  0.89960826  0.31862014  1
  Sc  Sc85  1  0.89416405  0.49751717  0.09586293  1
  Sc  Sc86  1  0.09687657  0.29588692  0.10033978  1
  Sc  Sc87  1  0.89738059  0.10612406  0.30867798  1
  Sc  Sc88  1  0.49242461  0.69951053  0.90096968  1
  Sc  Sc89  1  0.71051370  0.69833896  0.49879759  1
  Sc  Sc90  1  0.29622259  0.10274721  0.50240533  1
  Sc  Sc91  1  0.10438389  0.10186317  0.10488759  1
  Sc  Sc92  1  0.30542341  0.30012032  0.69496267  1
  Sc  Sc93  1  0.69522703  0.69445575  0.09549477  1
  Sc  Sc94  1  0.90064567  0.50105672  0.70207940  1
  Sc  Sc95  1  0.49868178  0.70675413  0.49998302  1
  Sc  Sc96  1  0.10162930  0.29076103  0.29940562  1
  Sc  Sc97  1  0.31005540  0.10279284  0.69192820  1
  Sc  Sc98  1  0.90629163  0.09665044  0.90313997  1
  Sc  Sc99  1  0.49899318  0.69681693  0.70459186  1
  Nb  Nb100  1  0.10230534  0.89553293  0.29922081  1
  Nb  Nb101  1  0.70785227  0.29783002  0.89726580  1
  Nb  Nb102  1  0.09590031  0.50644700  0.50576181  1
  Nb  Nb103  1  0.29943257  0.30384326  0.30084839  1
  Nb  Nb104  1  0.70805578  0.89428147  0.70914287  1
  Nb  Nb105  1  0.69363745  0.49760248  0.08664746  1
  Nb  Nb106  1  0.69907583  0.50165293  0.50657649  1
  Nb  Nb107  1  0.69644739  0.89718396  0.29946105  1
  Nb  Nb108  1  0.69874269  0.90418922  0.09218021  1
  Nb  Nb109  1  0.70111311  0.49431975  0.89848420  1
  Nb  Nb110  1  0.89615500  0.30534760  0.30480622  1
  Nb  Nb111  1  0.50132712  0.90337465  0.49600532  1
  Nb  Nb112  1  0.30327619  0.69617019  0.30679816  1
  Nb  Nb113  1  0.09924153  0.30461290  0.89786211  1
  Nb  Nb114  1  0.30156193  0.10238527  0.89520593  1
  Nb  Nb115  1  0.50071253  0.50022311  0.70156355  1
  Nb  Nb116  1  0.10161041  0.69939018  0.90082273  1
  Nb  Nb117  1  0.29700174  0.49775695  0.30035081  1
  Nb  Nb118  1  0.09981232  0.69602885  0.50151040  1
  Nb  Nb119  1  0.69640220  0.90000056  0.90719296  1
  Nb  Nb120  1  0.10026281  0.50579775  0.69368045  1
  Nb  Nb121  1  0.69192995  0.50141702  0.70968072  1
  Nb  Nb122  1  0.90224440  0.89973680  0.70433119  1
  Nb  Nb123  1  0.10053232  0.70208433  0.09280218  1
  Nb  Nb124  1  0.10152422  0.30362358  0.49539175  1
  Nb  Nb125  1  0.39697882  0.00362177  -0.00434547  1
  Nb  Nb126  1  0.59762104  -0.00311095  0.39582766  1
  Nb  Nb127  1  0.19813362  0.40547923  0.40163634  1
  Nb  Nb128  1  0.19315963  0.40260796  0.79562250  1
  Nb  Nb129  1  0.60579687  0.20310269  -0.00137912  1
  Nb  Nb130  1  0.60832054  -0.00881389  0.79829832  1
  Nb  Nb131  1  0.00215683  0.79839509  0.80396149  1
  Nb  Nb132  1  0.00226145  -0.00763123  0.20729077  1
  Nb  Nb133  1  0.19472535  0.59667161  0.79983530  1
  Nb  Nb134  1  0.19525889  0.20158257  0.80122544  1
  Nb  Nb135  1  0.19724587  -0.00938205  0.39757472  1
  Nb  Nb136  1  0.00247823  0.79234365  0.00154183  1
  Nb  Nb137  1  0.00556271  0.40211676  0.40193482  1
  Nb  Nb138  1  -0.00426114  0.80009544  0.19745439  1
  Nb  Nb139  1  0.20523119  0.00893875  0.80202110  1
  Nb  Nb140  1  0.19411313  0.40760596  0.59516415  1
  Nb  Nb141  1  0.19485792  0.40136824  -0.00840093  1
  Nb  Nb142  1  0.79636182  0.20614656  -0.00066030  1
  Nb  Nb143  1  0.40575828  0.20160726  0.39476150  1
  Nb  Nb144  1  0.60511808  0.59411874  0.60446386  1
  Nb  Nb145  1  0.60700319  -0.01020111  0.20053544  1
  Nb  Nb146  1  0.59577879  0.19595203  0.39878894  1
  Nb  Nb147  1  0.19812304  0.79715455  0.39960301  1
  Nb  Nb148  1  0.79339574  0.80814079  0.19881869  1
  Nb  Nb149  1  0.00752098  0.20065384  0.80161619  1
  Pd  Pd150  1  0.20666349  -0.00854972  0.59385114  1
  Pd  Pd151  1  0.20887405  -0.00131259  -0.00231152  1
  Pd  Pd152  1  0.60364179  0.80184264  0.40721290  1
  Pd  Pd153  1  0.00756009  0.39849254  0.20509729  1
  Pd  Pd154  1  0.59271193  0.80469597  0.80149858  1
  Pd  Pd155  1  0.80565884  0.40643645  0.40110634  1
  Pd  Pd156  1  0.79749480  -0.00742937  0.60267415  1
  Pd  Pd157  1  -0.00730249  0.20694533  -0.00210802  1
  Pd  Pd158  1  0.19480544  0.39166782  0.19871191  1
  Pd  Pd159  1  0.59886176  0.79030885  0.00089366  1
  Pd  Pd160  1  0.80050222  0.00721291  -0.00925441  1
  Pd  Pd161  1  0.60249982  0.40340661  0.60452662  1
  Pd  Pd162  1  0.40460526  -0.00517627  0.79783729  1
  Pd  Pd163  1  0.59813267  0.39208110  -0.01098747  1
  Pd  Pd164  1  0.39418546  0.60212808  0.19817702  1
  Pd  Pd165  1  0.20177318  0.20840137  -0.00052806  1
  Pd  Pd166  1  0.60234098  0.79297292  0.59797169  1
  Pd  Pd167  1  0.20498110  0.60165738  0.40922316  1
  Pd  Pd168  1  0.59448272  0.59994715  0.41144356  1
  Pd  Pd169  1  0.20442297  0.59191838  -0.00935920  1
  Pd  Pd170  1  0.00826061  -0.00192896  0.40141508  1
  Pd  Pd171  1  0.59769370  0.20359868  0.59454979  1
  Pd  Pd172  1  0.78593764  0.59901110  0.20016258  1
  Pd  Pd173  1  0.80518597  -0.00693339  0.21191237  1
  Pd  Pd174  1  0.20971323  0.60928013  0.19660905  1
  Pd  Pd175  1  -0.00448519  0.60793363  0.19113997  1
  Pd  Pd176  1  0.60511238  0.79937805  0.19006335  1
  Pd  Pd177  1  0.41089087  0.80858417  0.79316638  1
  Pd  Pd178  1  0.39374185  0.00645530  0.40120019  1
  Pd  Pd179  1  -0.00407508  0.59564165  0.40160912  1
  Pd  Pd180  1  0.80283171  0.79382136  -0.00035503  1
  Pd  Pd181  1  0.39444266  0.39489649  0.40106359  1
  Pd  Pd182  1  0.00142762  0.61085618  0.79087287  1
  Pd  Pd183  1  0.40861225  0.19665856  -0.00199917  1
  Pd  Pd184  1  0.40604688  0.60267021  0.40289267  1
  Pd  Pd185  1  0.80242321  0.19793431  0.59589528  1
  Pd  Pd186  1  0.60198419  0.59594020  0.19981832  1
  Pd  Pd187  1  0.59919418  0.60593324  -0.00925637  1
  Pd  Pd188  1  0.00396449  0.39489022  0.78582742  1
  Pd  Pd189  1  0.20277910  0.78690552  0.20380411  1
  Pd  Pd190  1  -0.00513026  0.19563783  0.20726869  1
  Pd  Pd191  1  0.79621684  -0.00236856  0.80742607  1
  Pd  Pd192  1  0.59876928  0.39447165  0.80615660  1
  Pd  Pd193  1  -0.00639458  0.79411399  0.60989282  1
  Pd  Pd194  1  0.59864208  0.39769775  0.39889489  1
  Pd  Pd195  1  0.79411167  0.60056785  0.60805289  1
  Pd  Pd196  1  0.79416509  0.40349555  0.61094984  1
  Pd  Pd197  1  0.01299802  0.00035601  0.80673792  1
  Pd  Pd198  1  -0.01035113  0.60488115  0.00379726  1
  Pd  Pd199  1  0.79120299  0.41180459  0.19893253  1
  Rh  Rh200  1  0.59185605  0.00540061  -0.00366154  1
  Rh  Rh201  1  0.80806187  0.80689949  0.80786511  1
  Rh  Rh202  1  0.80237100  0.80144892  0.60460045  1
  Rh  Rh203  1  0.60007634  0.60154036  0.80031659  1
  Rh  Rh204  1  0.19795873  0.80052426  -0.00315950  1
  Rh  Rh205  1  0.79220647  0.80030857  0.39588911  1
  Rh  Rh206  1  -0.00704661  0.19090758  0.60362135  1
  Rh  Rh207  1  0.79103272  -0.00642704  0.40296291  1
  Rh  Rh208  1  0.79624542  0.40437811  0.79420220  1
  Rh  Rh209  1  0.00378727  -0.00732884  0.01123797  1
  Rh  Rh210  1  0.39554696  0.60157367  0.79994304  1
  Rh  Rh211  1  0.59340259  0.19880888  0.80237544  1
  Rh  Rh212  1  0.39920320  0.59829652  -0.00016665  1
  Rh  Rh213  1  0.19092519  0.80240097  0.80284978  1
  Rh  Rh214  1  0.00642799  0.79410189  0.39783865  1
  Rh  Rh215  1  0.79890674  0.59464600  0.40054534  1
  Rh  Rh216  1  0.20408850  0.21121531  0.60472255  1
  Rh  Rh217  1  0.39481523  0.40326041  0.60045176  1
  Rh  Rh218  1  0.20441750  0.20363446  0.19647881  1
  Rh  Rh219  1  0.39780541  -0.00284087  0.60186733  1
  Rh  Rh220  1  0.80745685  0.20484004  0.19614100  1
  Rh  Rh221  1  0.40523985  0.20130851  0.59200697  1
  Rh  Rh222  1  0.60822451  0.18849548  0.20133361  1
  Rh  Rh223  1  0.39718467  0.80469521  0.00039045  1
  Rh  Rh224  1  0.40045209  0.40309309  0.20204324  1
  Rh  Rh225  1  0.20176195  0.80315739  0.58594407  1
  Rh  Rh226  1  0.41672653  0.60211953  0.59996890  1
  Rh  Rh227  1  0.40687835  0.79853132  0.60041396  1
  Rh  Rh228  1  0.60265995  0.41454122  0.20285495  1
  Rh  Rh229  1  0.79778923  0.20632698  0.40579133  1
  Rh  Rh230  1  0.79536168  0.39738761  0.00429561  1
  Rh  Rh231  1  0.21349507  0.20143442  0.39865416  1
  Rh  Rh232  1  0.60858700  -0.00637491  0.60410377  1
  Rh  Rh233  1  0.00202936  0.40677483  0.59725534  1
  Rh  Rh234  1  -0.00597864  0.60662714  0.60377694  1
  Rh  Rh235  1  -0.00708159  0.21039489  0.39555923  1
  Rh  Rh236  1  0.39402312  0.79008103  0.19682236  1
  Rh  Rh237  1  0.39770822  0.40256952  0.79475743  1
  Rh  Rh238  1  0.39761646  0.40137273  0.00145060  1
  Rh  Rh239  1  0.81821998  0.19817096  0.81055367  1
  Rh  Rh240  1  0.20342213  0.59684429  0.59878277  1
  Rh  Rh241  1  0.78982168  0.59485494  -0.00442756  1
  Rh  Rh242  1  0.19429360  0.00478788  0.20643119  1
  Rh  Rh243  1  0.79369956  0.59317229  0.79994897  1
  Rh  Rh244  1  -0.00157532  0.00215173  0.59334673  1
  Rh  Rh245  1  0.40843726  -0.00938022  0.18419237  1
  Rh  Rh246  1  0.39429666  0.79537090  0.40116295  1
  Rh  Rh247  1  0.00574266  0.40101705  0.01267146  1
  Rh  Rh248  1  0.39591482  0.20220518  0.79365659  1
  Rh  Rh249  1  0.39192253  0.20878357  0.20584275  1
