# generated using pymatgen
data_ZrScNbPdRh
_symmetry_space_group_name_H-M   'P 1'
_cell_length_a   16.56014761
_cell_length_b   16.55902032
_cell_length_c   16.56007639
_cell_angle_alpha   89.98152916
_cell_angle_beta   89.98040018
_cell_angle_gamma   90.00843690
_symmetry_Int_Tables_number   1
_chemical_formula_structural   ZrScNbPdRh
_chemical_formula_sum   'Zr50 Sc50 Nb50 Pd50 Rh50'
_cell_volume   4541.10062842
_cell_formula_units_Z   50
loop_
 _symmetry_equiv_pos_site_id
 _symmetry_equiv_pos_as_xyz
  1  'x, y, z'
loop_
 _atom_site_type_symbol
 _atom_site_label
 _atom_site_symmetry_multiplicity
 _atom_site_fract_x
 _atom_site_fract_y
 _atom_site_fract_z
 _atom_site_occupancy
  Zr  Zr0  1  0.90535069  0.10232103  0.09989064  1
  Zr  Zr1  1  0.49597174  0.29747275  0.69698826  1
  Zr  Zr2  1  0.70110032  0.10183177  0.30487492  1
  Zr  Zr3  1  0.10579230  0.49456135  0.29808834  1
  Zr  Zr4  1  0.50290002  0.30179504  0.51463139  1
  Zr  Zr5  1  0.10053075  0.89517165  0.90432886  1
  Zr  Zr6  1  0.49490541  0.11187802  0.10377610  1
  Zr  Zr7  1  0.70609198  0.89576508  0.70586412  1
  Zr  Zr8  1  0.91037813  0.29604444  0.89719897  1
  Zr  Zr9  1  0.29116831  0.09601019  0.69950466  1
  Zr  Zr10  1  0.09426243  0.49986629  0.10097710  1
  Zr  Zr11  1  0.09929989  0.30292486  0.29275401  1
  Zr  Zr12  1  0.29922597  0.30469823  0.70326181  1
  Zr  Zr13  1  0.90594086  0.50405147  0.90337883  1
  Zr  Zr14  1  0.50837798  0.70005087  0.30082122  1
  Zr  Zr15  1  0.09724299  0.70367084  0.90344790  1
  Zr  Zr16  1  0.48898816  0.09697588  0.69536507  1
  Zr  Zr17  1  0.29771918  0.49895386  0.08581759  1
  Zr  Zr18  1  0.30639158  0.10389105  0.30071002  1
  Zr  Zr19  1  0.90102420  0.29513271  0.30437715  1
  Zr  Zr20  1  0.49922370  0.29565991  0.91017119  1
  Zr  Zr21  1  0.49532933  0.30702099  0.09025908  1
  Zr  Zr22  1  0.90331148  0.49405858  0.70425354  1
  Zr  Zr23  1  0.49144203  0.50525074  0.49078450  1
  Zr  Zr24  1  0.69953213  0.50057417  0.49901845  1
  Zr  Zr25  1  0.50232009  0.90907888  0.30368307  1
  Zr  Zr26  1  0.30250860  0.49532943  0.30663231  1
  Zr  Zr27  1  0.29409623  0.70263330  0.10570694  1
  Zr  Zr28  1  0.70402274  0.50338737  0.69436003  1
  Zr  Zr29  1  0.89395884  0.90339578  0.10468608  1
  Zr  Zr30  1  0.09379973  0.90715330  0.69816589  1
  Zr  Zr31  1  0.70239433  0.30368271  0.29745284  1
  Zr  Zr32  1  0.70327284  0.69257354  0.49586347  1
  Zr  Zr33  1  0.49029408  0.89634401  0.69841156  1
  Zr  Zr34  1  0.49894407  0.70804609  0.49909550  1
  Zr  Zr35  1  0.50394403  0.89163432  0.11124553  1
  Zr  Zr36  1  0.29823958  0.10011398  0.50456988  1
  Zr  Zr37  1  0.30238409  0.29605687  0.10043694  1
  Zr  Zr38  1  0.89691868  0.70289942  0.29897314  1
  Zr  Zr39  1  0.90429521  0.69596205  0.90204310  1
  Zr  Zr40  1  0.29569876  0.69983945  0.70243584  1
  Zr  Zr41  1  0.69790460  0.50301941  0.28583410  1
  Zr  Zr42  1  0.70511210  0.90006522  0.90281705  1
  Zr  Zr43  1  0.49412253  0.10270210  0.50033329  1
  Zr  Zr44  1  0.09312431  0.29182884  0.70641714  1
  Zr  Zr45  1  0.69961837  0.89823685  0.09812265  1
  Zr  Zr46  1  0.49158235  0.49126526  0.69304691  1
  Zr  Zr47  1  0.89227142  0.49839076  0.50456464  1
  Zr  Zr48  1  0.30327073  0.90058306  0.29009131  1
  Zr  Zr49  1  0.70944825  0.50140571  0.90576291  1
  Sc  Sc50  1  0.91086462  0.89792097  0.50275080  1
  Sc  Sc51  1  0.91613650  0.30284292  0.09854516  1
  Sc  Sc52  1  0.70154703  0.89827498  0.29498391  1
  Sc  Sc53  1  0.90880462  0.09724391  0.30074607  1
  Sc  Sc54  1  0.50006452  0.70832137  0.69768969  1
  Sc  Sc55  1  0.49589517  0.70246649  0.89829883  1
  Sc  Sc56  1  0.10032146  0.89739347  0.50696082  1
  Sc  Sc57  1  0.10506550  0.09590301  0.51177196  1
  Sc  Sc58  1  0.90377559  0.70139569  0.70993775  1
  Sc  Sc59  1  0.70559723  0.09953817  0.49782069  1
  Sc  Sc60  1  0.10484794  0.30057157  0.10243937  1
  Sc  Sc61  1  0.89823471  0.09933594  0.90385259  1
  Sc  Sc62  1  0.30214771  0.90260685  0.70227637  1
  Sc  Sc63  1  0.70597526  0.70771454  0.89784517  1
  Sc  Sc64  1  0.29606000  0.50042698  0.49055747  1
  Sc  Sc65  1  0.29265115  0.89582552  0.89729602  1
  Sc  Sc66  1  0.89182670  0.50035298  0.28725332  1
  Sc  Sc67  1  0.90557997  0.69714477  0.10496084  1
  Sc  Sc68  1  0.90829136  0.89895033  0.30157959  1
  Sc  Sc69  1  0.49431018  0.10297392  0.90553076  1
  Sc  Sc70  1  0.70375587  0.09884342  0.09675107  1
  Sc  Sc71  1  0.29950516  0.29645910  0.49605296  1
  Sc  Sc72  1  0.29476260  0.69470181  0.89782651  1
  Sc  Sc73  1  0.10139309  0.10054707  0.29524176  1
  Sc  Sc74  1  0.09965939  0.70917247  0.70078627  1
  Sc  Sc75  1  0.29488455  0.30537567  0.90583463  1
  Sc  Sc76  1  0.10197846  0.50091540  0.70955335  1
  Sc  Sc77  1  0.68690553  0.30748101  0.09856771  1
  Sc  Sc78  1  0.90386561  0.09648823  0.49293703  1
  Sc  Sc79  1  0.10059557  0.29437692  0.50382187  1
  Sc  Sc80  1  0.48820181  0.30190598  0.28188409  1
  Sc  Sc81  1  0.89535273  0.89623639  0.89343584  1
  Sc  Sc82  1  0.70603624  0.09270244  0.69277570  1
  Sc  Sc83  1  0.29381705  0.09518994  0.90144915  1
  Sc  Sc84  1  0.10185911  0.10403973  0.89669179  1
  Sc  Sc85  1  0.10230685  0.29847557  0.89971004  1
  Sc  Sc86  1  0.10429401  0.10184052  0.10218727  1
  Sc  Sc87  1  0.69802985  0.71069041  0.10691219  1
  Sc  Sc88  1  0.11428064  0.89693812  0.10274966  1
  Sc  Sc89  1  0.10732314  0.49937071  0.49717550  1
  Sc  Sc90  1  0.70549788  0.30160685  0.49444661  1
  Sc  Sc91  1  0.29206920  0.09527608  0.10614733  1
  Sc  Sc92  1  0.70247166  0.90226757  0.49531235  1
  Sc  Sc93  1  0.48550567  0.50068688  0.90520600  1
  Sc  Sc94  1  0.11024562  0.71011165  0.50030042  1
  Sc  Sc95  1  0.69634733  0.29766548  0.91327507  1
  Sc  Sc96  1  0.90336376  0.90440699  0.70143660  1
  Sc  Sc97  1  0.49149140  0.89321122  0.89182987  1
  Sc  Sc98  1  0.68788251  0.30293124  0.68022755  1
  Sc  Sc99  1  0.70930316  0.09867822  0.90526895  1
  Nb  Nb100  1  0.28621489  0.49974286  0.88727367  1
  Nb  Nb101  1  0.29609709  0.69576209  0.30676205  1
  Nb  Nb102  1  0.10023291  0.10071081  0.69891678  1
  Nb  Nb103  1  0.50176633  0.70127234  0.09872047  1
  Nb  Nb104  1  0.49693468  0.50222939  0.29550237  1
  Nb  Nb105  1  0.28746159  0.30327617  0.29731292  1
  Nb  Nb106  1  0.69964662  0.69839146  0.70028876  1
  Nb  Nb107  1  0.89314700  0.50401500  0.09396873  1
  Nb  Nb108  1  0.70972892  0.69804343  0.30148830  1
  Nb  Nb109  1  0.50046496  0.10271455  0.30136784  1
  Nb  Nb110  1  0.30187194  0.88974556  0.49610357  1
  Nb  Nb111  1  0.90638607  0.10210390  0.70273017  1
  Nb  Nb112  1  0.10770159  0.50006466  0.90092280  1
  Nb  Nb113  1  0.30199451  0.90249925  0.10072524  1
  Nb  Nb114  1  0.29750758  0.50044407  0.70556600  1
  Nb  Nb115  1  0.90634237  0.30240652  0.69733847  1
  Nb  Nb116  1  0.69808885  0.49954163  0.09736949  1
  Nb  Nb117  1  0.90107027  0.69666974  0.49727365  1
  Nb  Nb118  1  0.50257829  0.50029787  0.10292747  1
  Nb  Nb119  1  0.10643143  0.89598097  0.30825606  1
  Nb  Nb120  1  0.09932953  0.69777283  0.10359063  1
  Nb  Nb121  1  0.49436442  0.89802718  0.50357626  1
  Nb  Nb122  1  0.09982410  0.69944092  0.29383873  1
  Nb  Nb123  1  0.30253050  0.70214521  0.49756216  1
  Nb  Nb124  1  0.90002107  0.30354966  0.50145461  1
  Nb  Nb125  1  0.40287286  0.59957679  0.20019578  1
  Nb  Nb126  1  0.81301400  0.20394792  0.60224084  1
  Nb  Nb127  1  0.60189673  0.59530306  0.80086963  1
  Nb  Nb128  1  0.38992099  0.60321088  0.59709798  1
  Nb  Nb129  1  0.00160237  -0.00415684  0.00305447  1
  Nb  Nb130  1  0.20267486  0.40156882  0.60776170  1
  Nb  Nb131  1  0.59125816  -0.00677046  0.60128131  1
  Nb  Nb132  1  0.59915447  0.59965845  0.00330358  1
  Nb  Nb133  1  0.60190949  0.40062937  0.80275587  1
  Nb  Nb134  1  -0.00057947  0.60131321  0.39948373  1
  Nb  Nb135  1  0.59302409  -0.00632541  -0.00179884  1
  Nb  Nb136  1  0.39914895  0.20044883  0.79949633  1
  Nb  Nb137  1  0.59263811  0.20377835  0.39474072  1
  Nb  Nb138  1  0.80013783  0.20725154  0.78846469  1
  Nb  Nb139  1  -0.00445662  0.40240252  0.40138263  1
  Nb  Nb140  1  -0.00053316  0.60283181  0.59275433  1
  Nb  Nb141  1  0.20490963  -0.00826658  0.39975455  1
  Nb  Nb142  1  0.59344876  0.40065639  0.39146212  1
  Nb  Nb143  1  0.80083319  0.79152035  0.59936037  1
  Nb  Nb144  1  0.39601351  0.80117208  0.00961320  1
  Nb  Nb145  1  0.59761601  0.00205735  0.79937348  1
  Nb  Nb146  1  0.60106981  0.19871691  0.79615568  1
  Nb  Nb147  1  0.80281717  0.20280314  0.20134833  1
  Nb  Nb148  1  0.79786005  0.39098370  0.79717805  1
  Nb  Nb149  1  0.39981337  -0.00829514  0.00833220  1
  Pd  Pd150  1  0.00461886  0.80690789  0.19670485  1
  Pd  Pd151  1  0.19389033  0.60412245  -0.00109212  1
  Pd  Pd152  1  0.19799294  0.59535841  0.60193369  1
  Pd  Pd153  1  0.20416604  0.80729265  0.60556095  1
  Pd  Pd154  1  -0.00360256  0.19303235  0.59346184  1
  Pd  Pd155  1  0.00629976  0.79301338  0.40200695  1
  Pd  Pd156  1  0.40061019  0.79098968  0.20400809  1
  Pd  Pd157  1  0.40496284  0.38714531  0.40073827  1
  Pd  Pd158  1  0.80536431  -0.00311342  0.59759398  1
  Pd  Pd159  1  0.60631135  0.80410799  0.39831028  1
  Pd  Pd160  1  0.40228103  0.39433324  0.81074632  1
  Pd  Pd161  1  0.58770139  0.59958653  0.60490495  1
  Pd  Pd162  1  0.79963753  0.40768503  0.39556392  1
  Pd  Pd163  1  -0.00009754  0.00368782  0.80993261  1
  Pd  Pd164  1  0.01189462  -0.00719298  0.19467534  1
  Pd  Pd165  1  0.20682924  0.59241230  0.20116131  1
  Pd  Pd166  1  0.19254095  0.19397815  0.39847667  1
  Pd  Pd167  1  0.60285772  0.59482793  0.39586101  1
  Pd  Pd168  1  0.19541593  -0.00318238  0.80211191  1
  Pd  Pd169  1  0.19713013  0.79962668  0.20472947  1
  Pd  Pd170  1  0.81066777  0.60855490  0.60968171  1
  Pd  Pd171  1  -0.00348475  0.80555625  0.01006987  1
  Pd  Pd172  1  0.01398430  0.00042491  0.40393284  1
  Pd  Pd173  1  0.61021302  0.80623774  0.59511377  1
  Pd  Pd174  1  0.59978641  0.79817087  0.80420962  1
  Pd  Pd175  1  0.39211887  0.40677526  0.19434019  1
  Pd  Pd176  1  -0.00259180  0.59636793  0.20409390  1
  Pd  Pd177  1  0.80274776  0.80767131  0.40480824  1
  Pd  Pd178  1  0.80267433  0.20993517  0.00874829  1
  Pd  Pd179  1  0.40169947  0.60651663  0.00343530  1
  Pd  Pd180  1  0.80596696  0.39087157  0.00113060  1
  Pd  Pd181  1  0.39986249  0.79879168  0.39040248  1
  Pd  Pd182  1  0.80906495  0.79390722  0.00452364  1
  Pd  Pd183  1  0.01164206  0.40777412  0.59396092  1
  Pd  Pd184  1  0.80774759  -0.00660925  0.39665328  1
  Pd  Pd185  1  0.40615843  0.60407694  0.79281449  1
  Pd  Pd186  1  0.80544468  0.39159390  0.18422434  1
  Pd  Pd187  1  0.00803468  0.60173572  0.79600252  1
  Pd  Pd188  1  0.00685055  0.40215522  -0.00328899  1
  Pd  Pd189  1  0.60108889  0.00615907  0.19334825  1
  Pd  Pd190  1  0.59884236  0.00502309  0.40877365  1
  Pd  Pd191  1  0.00718049  0.20033180  0.40415374  1
  Pd  Pd192  1  0.39422029  -0.00278379  0.40423066  1
  Pd  Pd193  1  0.20042514  0.19834442  0.00027790  1
  Pd  Pd194  1  0.80048862  0.00706043  0.20703432  1
  Pd  Pd195  1  0.60069902  0.60553656  0.19307430  1
  Pd  Pd196  1  0.40606489  0.21196426  0.39563382  1
  Pd  Pd197  1  0.79226962  0.61321692  0.00971120  1
  Pd  Pd198  1  0.19192802  0.60688705  0.40013080  1
  Pd  Pd199  1  0.60551642  0.20136167  0.20098404  1
  Rh  Rh200  1  0.20258981  0.80068308  0.39474070  1
  Rh  Rh201  1  0.19212014  0.38834198  0.40668483  1
  Rh  Rh202  1  0.79773962  0.00977069  0.80023345  1
  Rh  Rh203  1  0.40513031  0.00749583  0.19654524  1
  Rh  Rh204  1  0.20532684  0.20062762  0.79897989  1
  Rh  Rh205  1  -0.00857380  0.79107661  0.60100223  1
  Rh  Rh206  1  0.80129914  0.79963198  0.20373569  1
  Rh  Rh207  1  0.20001614  0.20801544  0.60720987  1
  Rh  Rh208  1  0.39280367  0.20050511  0.20055030  1
  Rh  Rh209  1  0.19681765  0.80192175  0.79764814  1
  Rh  Rh210  1  0.59449243  0.40133955  0.20071820  1
  Rh  Rh211  1  0.79535596  0.59706122  0.79825433  1
  Rh  Rh212  1  0.61164607  0.18464241  0.59371755  1
  Rh  Rh213  1  0.40076046  0.00738902  0.81275756  1
  Rh  Rh214  1  0.20459145  0.79465215  0.00200474  1
  Rh  Rh215  1  0.19140392  0.39656900  0.79835916  1
  Rh  Rh216  1  -0.00250401  0.19961935  0.19929827  1
  Rh  Rh217  1  -0.00260489  0.19239680  0.80277697  1
  Rh  Rh218  1  0.19576474  0.39983875  -0.00096929  1
  Rh  Rh219  1  0.20450507  -0.00909208  0.59336025  1
  Rh  Rh220  1  0.38572633  0.20012017  0.60674326  1
  Rh  Rh221  1  0.38441517  0.41159141  0.59006526  1
  Rh  Rh222  1  0.79918075  0.39014873  0.60611154  1
  Rh  Rh223  1  0.20702374  0.40462234  0.19223287  1
  Rh  Rh224  1  0.39098177  0.79465806  0.60059135  1
  Rh  Rh225  1  0.20225805  0.20071471  0.20214427  1
  Rh  Rh226  1  0.19197053  0.60511105  0.80017815  1
  Rh  Rh227  1  0.39877250  0.60927634  0.39790056  1
  Rh  Rh228  1  0.79876760  0.19740009  0.40169443  1
  Rh  Rh229  1  0.39470458  -0.00738905  0.59065784  1
  Rh  Rh230  1  0.00136115  0.40273162  0.80849958  1
  Rh  Rh231  1  0.00646682  0.59952959  0.00394098  1
  Rh  Rh232  1  0.00021917  0.80452913  0.79922621  1
  Rh  Rh233  1  0.80449610  -0.00540240  -0.00114544  1
  Rh  Rh234  1  0.39330817  0.40549573  -0.00480682  1
  Rh  Rh235  1  0.38996587  0.79307878  0.80622527  1
  Rh  Rh236  1  0.59496227  0.41446468  -0.00506235  1
  Rh  Rh237  1  0.60532626  0.79721386  0.21151147  1
  Rh  Rh238  1  0.79752115  0.60521520  0.19176661  1
  Rh  Rh239  1  -0.00448747  0.40707617  0.20229381  1
  Rh  Rh240  1  0.58903637  0.79913825  -0.00509192  1
  Rh  Rh241  1  0.80379484  0.79411214  0.79394618  1
  Rh  Rh242  1  0.19835623  -0.00259178  0.00013707  1
  Rh  Rh243  1  0.19755631  -0.00033689  0.20977146  1
  Rh  Rh244  1  0.00810938  0.19057078  0.00001356  1
  Rh  Rh245  1  0.60519996  0.18652419  -0.00294857  1
  Rh  Rh246  1  -0.00114627  0.00555036  0.60116925  1
  Rh  Rh247  1  0.38698028  0.18963137  -0.00368636  1
  Rh  Rh248  1  0.80424015  0.59511958  0.39070228  1
  Rh  Rh249  1  0.60030158  0.41145887  0.59132210  1
