# generated using pymatgen
data_ZrScNbPdRh
_symmetry_space_group_name_H-M   'P 1'
_cell_length_a   16.56103153
_cell_length_b   16.55828672
_cell_length_c   16.55849387
_cell_angle_alpha   89.97644419
_cell_angle_beta   90.01694993
_cell_angle_gamma   90.00642211
_symmetry_Int_Tables_number   1
_chemical_formula_structural   ZrScNbPdRh
_chemical_formula_sum   'Zr50 Sc50 Nb50 Pd50 Rh50'
_cell_volume   4540.70780502
_cell_formula_units_Z   50
loop_
 _symmetry_equiv_pos_site_id
 _symmetry_equiv_pos_as_xyz
  1  'x, y, z'
loop_
 _atom_site_type_symbol
 _atom_site_label
 _atom_site_symmetry_multiplicity
 _atom_site_fract_x
 _atom_site_fract_y
 _atom_site_fract_z
 _atom_site_occupancy
  Zr  Zr0  1  0.30069099  0.50160797  0.10150209  1
  Zr  Zr1  1  0.29679612  0.09535942  0.50397657  1
  Zr  Zr2  1  0.31173651  0.89912177  0.69395197  1
  Zr  Zr3  1  0.89812730  0.09738830  0.10916175  1
  Zr  Zr4  1  0.69510501  0.29170331  0.69692444  1
  Zr  Zr5  1  0.29757837  0.49890201  0.90088395  1
  Zr  Zr6  1  0.70438341  0.10163459  0.49729072  1
  Zr  Zr7  1  0.89863340  0.51018254  0.09305430  1
  Zr  Zr8  1  0.89994062  0.49489156  0.51063111  1
  Zr  Zr9  1  0.50281814  0.30830640  0.50353858  1
  Zr  Zr10  1  0.29857290  0.69716217  0.10519532  1
  Zr  Zr11  1  0.50357299  0.68779068  0.49921347  1
  Zr  Zr12  1  0.50496534  0.09189868  0.28665552  1
  Zr  Zr13  1  0.29514047  0.69543981  0.29493959  1
  Zr  Zr14  1  0.09984355  0.30385449  0.29899139  1
  Zr  Zr15  1  0.70161884  0.89954150  0.49968840  1
  Zr  Zr16  1  0.09979330  0.89097692  0.49821879  1
  Zr  Zr17  1  0.10232068  0.89916273  0.09686694  1
  Zr  Zr18  1  0.30831732  0.09962930  0.89670081  1
  Zr  Zr19  1  0.10182013  0.70634201  0.89257566  1
  Zr  Zr20  1  0.50318306  0.29042758  0.90630809  1
  Zr  Zr21  1  0.29452920  0.70351643  0.50360845  1
  Zr  Zr22  1  0.89793539  0.69349661  0.49696748  1
  Zr  Zr23  1  0.49713106  0.90722381  0.11271667  1
  Zr  Zr24  1  0.89697593  0.50614495  0.30746914  1
  Zr  Zr25  1  0.90312891  0.30363953  0.89081895  1
  Zr  Zr26  1  0.29100494  0.89357665  0.09650057  1
  Zr  Zr27  1  0.09666025  0.89125891  0.29939315  1
  Zr  Zr28  1  0.89997899  0.09723052  0.89971251  1
  Zr  Zr29  1  0.69221044  0.50285203  0.49940791  1
  Zr  Zr30  1  0.49719693  0.11037811  0.09227586  1
  Zr  Zr31  1  0.30138860  0.70267938  0.89178478  1
  Zr  Zr32  1  0.50681748  0.69992134  0.89042175  1
  Zr  Zr33  1  0.29882202  0.30448026  0.50002754  1
  Zr  Zr34  1  0.90507890  0.89965257  0.88697880  1
  Zr  Zr35  1  0.89802686  0.69864092  0.10192716  1
  Zr  Zr36  1  0.91703848  0.09406035  0.71196068  1
  Zr  Zr37  1  0.69756295  0.69948431  0.89739820  1
  Zr  Zr38  1  0.09111721  0.30813251  0.49288769  1
  Zr  Zr39  1  0.50100488  0.89101248  0.50511459  1
  Zr  Zr40  1  0.90561956  0.69417083  0.90619515  1
  Zr  Zr41  1  0.11338275  0.29948178  0.70714493  1
  Zr  Zr42  1  0.29393102  0.30511894  0.29674767  1
  Zr  Zr43  1  0.50146263  0.49664808  0.69133825  1
  Zr  Zr44  1  0.30628905  0.89797470  0.28945389  1
  Zr  Zr45  1  0.49577079  0.69753124  0.10465458  1
  Zr  Zr46  1  0.09748711  0.49377599  0.90011893  1
  Zr  Zr47  1  0.69574083  0.50516302  0.89826265  1
  Zr  Zr48  1  0.70222498  0.50104994  0.30151946  1
  Zr  Zr49  1  0.49684752  0.30293200  0.70123704  1
  Sc  Sc50  1  0.29943254  0.90079811  0.89781607  1
  Sc  Sc51  1  0.89065870  0.30810920  0.69541993  1
  Sc  Sc52  1  0.30013656  0.29772622  0.09903399  1
  Sc  Sc53  1  0.08821353  0.89492582  0.69465623  1
  Sc  Sc54  1  0.70164869  0.90314901  0.88661057  1
  Sc  Sc55  1  0.31531694  0.11109147  0.29805039  1
  Sc  Sc56  1  0.70202104  0.49760508  0.10694321  1
  Sc  Sc57  1  0.30190227  0.30431910  0.89427292  1
  Sc  Sc58  1  0.89424849  0.70351906  0.30267094  1
  Sc  Sc59  1  0.49847371  0.09544335  0.71411857  1
  Sc  Sc60  1  0.10724398  0.49950670  0.31253074  1
  Sc  Sc61  1  0.10945945  0.29711407  0.10684260  1
  Sc  Sc62  1  0.08131000  0.11082806  0.29458834  1
  Sc  Sc63  1  0.69304351  0.70457892  0.70328949  1
  Sc  Sc64  1  0.49256502  0.50073047  0.89766687  1
  Sc  Sc65  1  0.29583588  0.70066399  0.70086930  1
  Sc  Sc66  1  0.49733229  0.49853530  0.09403678  1
  Sc  Sc67  1  0.49784774  0.70345312  0.69981795  1
  Sc  Sc68  1  0.90850664  0.29040150  0.30777532  1
  Sc  Sc69  1  0.29797805  0.49085633  0.70558786  1
  Sc  Sc70  1  0.71007285  0.90668572  0.10965132  1
  Sc  Sc71  1  0.10767162  0.50138702  0.09523963  1
  Sc  Sc72  1  0.10262171  0.70497940  0.09630319  1
  Sc  Sc73  1  0.69343368  0.09705703  0.69695033  1
  Sc  Sc74  1  0.09517579  0.50623140  0.50215040  1
  Sc  Sc75  1  0.09791194  0.10852144  0.88625673  1
  Sc  Sc76  1  0.70729931  0.70214684  0.31428841  1
  Sc  Sc77  1  0.30798238  0.49866980  0.49822421  1
  Sc  Sc78  1  0.50471359  0.30145929  0.09571755  1
  Sc  Sc79  1  0.70712787  0.10052655  0.29860944  1
  Sc  Sc80  1  0.90070486  0.30314998  0.10607056  1
  Sc  Sc81  1  0.69516416  0.10247820  0.89115930  1
  Sc  Sc82  1  0.69801009  0.89985327  0.69156196  1
  Sc  Sc83  1  0.90021732  0.90114031  0.50296265  1
  Sc  Sc84  1  0.49411214  0.10702636  0.48648133  1
  Sc  Sc85  1  0.29263741  0.50187441  0.30435193  1
  Sc  Sc86  1  0.70757652  0.69364291  0.10451194  1
  Sc  Sc87  1  0.29436542  0.11067187  0.09512152  1
  Sc  Sc88  1  0.89545352  0.10118645  0.49075419  1
  Sc  Sc89  1  0.50432342  0.89794809  0.70261814  1
  Sc  Sc90  1  0.30146374  0.90021732  0.50422205  1
  Sc  Sc91  1  0.69978647  0.30031420  0.29124254  1
  Sc  Sc92  1  0.50381623  0.49472525  0.32037035  1
  Sc  Sc93  1  0.89247325  0.90092722  0.30183517  1
  Sc  Sc94  1  0.70308412  0.49639537  0.69289106  1
  Sc  Sc95  1  0.90032929  0.89804752  0.10887784  1
  Sc  Sc96  1  0.49473765  0.28988269  0.30618526  1
  Sc  Sc97  1  0.69905974  0.10103681  0.10699797  1
  Sc  Sc98  1  0.09684667  0.09228413  0.50463390  1
  Sc  Sc99  1  0.90482395  0.71030203  0.69592330  1
  Nb  Nb100  1  0.69807605  0.89700583  0.30418401  1
  Nb  Nb101  1  0.69907168  0.29881126  0.89864119  1
  Nb  Nb102  1  0.10358222  0.89908355  0.90141652  1
  Nb  Nb103  1  0.50148847  0.89874027  0.30048549  1
  Nb  Nb104  1  0.70963716  0.29192281  0.50745710  1
  Nb  Nb105  1  0.49700044  0.90491129  0.89830098  1
  Nb  Nb106  1  0.10319900  0.69278194  0.31198266  1
  Nb  Nb107  1  0.10181795  0.50615940  0.70334225  1
  Nb  Nb108  1  0.30080917  0.29808327  0.69918249  1
  Nb  Nb109  1  0.90071058  0.50310141  0.70126249  1
  Nb  Nb110  1  0.69941119  0.30339698  0.08812286  1
  Nb  Nb111  1  0.29050022  0.10377687  0.69941704  1
  Nb  Nb112  1  0.10566784  0.10348735  0.69961741  1
  Nb  Nb113  1  0.89788558  0.29721430  0.50212815  1
  Nb  Nb114  1  0.90236388  0.89910931  0.70071775  1
  Nb  Nb115  1  0.90335809  0.50046803  0.89938104  1
  Nb  Nb116  1  0.09612679  0.10209240  0.09912237  1
  Nb  Nb117  1  0.50072785  0.70332407  0.30218809  1
  Nb  Nb118  1  0.89637308  0.10378657  0.30269077  1
  Nb  Nb119  1  0.50072180  0.49494500  0.50458163  1
  Nb  Nb120  1  0.50074865  0.09332164  0.90279897  1
  Nb  Nb121  1  0.10101791  0.70255847  0.50075874  1
  Nb  Nb122  1  0.09629646  0.30046884  0.89918779  1
  Nb  Nb123  1  0.69756195  0.70677460  0.49819981  1
  Nb  Nb124  1  0.10458780  0.69606282  0.69315137  1
  Nb  Nb125  1  -0.00139756  0.19973247  -0.00046087  1
  Nb  Nb126  1  0.00517233  0.00304993  -0.00196399  1
  Nb  Nb127  1  0.80017031  0.39863401  -0.00691637  1
  Nb  Nb128  1  0.60126664  0.39427923  0.80191419  1
  Nb  Nb129  1  0.19339379  0.00691797  0.20182685  1
  Nb  Nb130  1  0.39236725  0.20112292  0.60605861  1
  Nb  Nb131  1  0.79773612  0.80177372  -0.00380787  1
  Nb  Nb132  1  0.80059853  0.39215999  0.41020487  1
  Nb  Nb133  1  0.80978788  0.59575095  0.79886439  1
  Nb  Nb134  1  0.39911693  0.40066332  0.20317497  1
  Nb  Nb135  1  0.59608428  -0.00358633  -0.00215459  1
  Nb  Nb136  1  0.00442805  0.59954371  0.20521669  1
  Nb  Nb137  1  0.79934475  0.20640684  -0.00257694  1
  Nb  Nb138  1  0.19942936  0.00307800  0.38830381  1
  Nb  Nb139  1  0.40777247  0.80110679  -0.00068238  1
  Nb  Nb140  1  0.40509218  0.79614500  0.39510294  1
  Nb  Nb141  1  0.59971715  0.80726215  0.00425879  1
  Nb  Nb142  1  0.19835567  0.00213423  0.79114817  1
  Nb  Nb143  1  0.60002521  0.79878601  0.20568871  1
  Nb  Nb144  1  0.00230054  0.20276686  0.60298930  1
  Nb  Nb145  1  0.59966095  -0.00647253  0.39548648  1
  Nb  Nb146  1  0.00067936  0.59638056  0.79494182  1
  Nb  Nb147  1  0.59639316  0.60412655  0.21029075  1
  Nb  Nb148  1  0.19717734  0.19601785  0.40045725  1
  Nb  Nb149  1  0.00056358  0.40965496  0.20365927  1
  Pd  Pd150  1  0.00282342  0.40139429  0.78893075  1
  Pd  Pd151  1  0.79436647  0.60751206  0.60638534  1
  Pd  Pd152  1  0.80736456  0.39717633  0.20218706  1
  Pd  Pd153  1  0.39982916  -0.00755189  0.40042127  1
  Pd  Pd154  1  0.38550309  0.01054035  0.18769141  1
  Pd  Pd155  1  0.39883546  -0.00433510  0.00707967  1
  Pd  Pd156  1  0.81313347  0.18588837  0.61065954  1
  Pd  Pd157  1  0.00254542  0.78845172  0.20507739  1
  Pd  Pd158  1  0.58610291  0.18992483  0.59914856  1
  Pd  Pd159  1  0.60127632  0.20580627  0.19686380  1
  Pd  Pd160  1  0.39177362  0.59961262  0.60633265  1
  Pd  Pd161  1  0.20795542  0.59175344  0.59732284  1
  Pd  Pd162  1  0.00080620  -0.00234187  0.20066618  1
  Pd  Pd163  1  0.19810984  0.81232945  0.78871835  1
  Pd  Pd164  1  -0.00160238  0.39308154  0.01021620  1
  Pd  Pd165  1  0.19707235  0.40922143  0.59749855  1
  Pd  Pd166  1  0.19500966  0.20209106  -0.00992521  1
  Pd  Pd167  1  0.19286668  0.01014087  -0.00686435  1
  Pd  Pd168  1  0.19530683  0.20433566  0.58986157  1
  Pd  Pd169  1  0.00052063  0.60460423  0.60378591  1
  Pd  Pd170  1  0.19484582  -0.01140814  0.60297448  1
  Pd  Pd171  1  0.00528653  0.39363454  0.61033276  1
  Pd  Pd172  1  0.80131467  0.79319593  0.79922903  1
  Pd  Pd173  1  0.60731942  0.19742867  0.39608149  1
  Pd  Pd174  1  0.58874979  0.40524078  0.20260079  1
  Pd  Pd175  1  0.59043004  0.00821534  0.59041852  1
  Pd  Pd176  1  0.79728153  -0.00065698  -0.00134253  1
  Pd  Pd177  1  0.39997372  0.60634020  -0.00664844  1
  Pd  Pd178  1  0.61040632  0.38725994  0.40209674  1
  Pd  Pd179  1  0.00179559  0.00294745  0.39622503  1
  Pd  Pd180  1  0.60491293  0.60472943  0.60460116  1
  Pd  Pd181  1  0.41061193  0.01113350  0.60470517  1
  Pd  Pd182  1  -0.00707013  0.80937664  0.00088978  1
  Pd  Pd183  1  0.79990942  0.19487115  0.79741513  1
  Pd  Pd184  1  0.40055455  0.19994062  0.79798341  1
  Pd  Pd185  1  0.79997202  0.79773225  0.59921429  1
  Pd  Pd186  1  0.80040742  0.20744981  0.19717995  1
  Pd  Pd187  1  -0.00442435  0.00294204  0.59687172  1
  Pd  Pd188  1  0.80906434  0.00564563  0.60512841  1
  Pd  Pd189  1  0.19757829  0.60656126  -0.00516075  1
  Pd  Pd190  1  0.60119389  0.40705218  -0.00558760  1
  Pd  Pd191  1  -0.00854373  0.79606516  0.40073640  1
  Pd  Pd192  1  0.20267892  0.39118567  0.00026555  1
  Pd  Pd193  1  0.60318604  0.60219461  0.01155299  1
  Pd  Pd194  1  0.39700099  0.60190866  0.39768204  1
  Pd  Pd195  1  0.79150700  0.40624511  0.80136228  1
  Pd  Pd196  1  0.79377409  0.00148745  0.78818131  1
  Pd  Pd197  1  0.39899844  0.59581681  0.79131010  1
  Pd  Pd198  1  0.40989136  0.58469737  0.21427570  1
  Pd  Pd199  1  0.21017141  0.80614013  0.39685613  1
  Rh  Rh200  1  0.19530256  0.59625913  0.80094116  1
  Rh  Rh201  1  0.59749295  0.80176214  0.39989278  1
  Rh  Rh202  1  0.40315503  0.79030136  0.59469426  1
  Rh  Rh203  1  0.19687139  0.80149609  0.60464066  1
  Rh  Rh204  1  0.60764833  0.39599712  0.60158631  1
  Rh  Rh205  1  0.61076443  0.18766104  -0.00082385  1
  Rh  Rh206  1  0.20115746  0.40059509  0.40791767  1
  Rh  Rh207  1  -0.00102402  0.79555309  0.59552126  1
  Rh  Rh208  1  0.39650937  0.20411391  -0.00353862  1
  Rh  Rh209  1  0.60305321  0.60259224  0.39899389  1
  Rh  Rh210  1  0.79642799  0.20705813  0.39393439  1
  Rh  Rh211  1  0.60034108  0.79390234  0.60004123  1
  Rh  Rh212  1  0.80435244  0.80458100  0.40840867  1
  Rh  Rh213  1  0.19828437  0.18940152  0.21075559  1
  Rh  Rh214  1  0.79346523  0.59828642  -0.00788242  1
  Rh  Rh215  1  0.79214284  0.79805651  0.19763640  1
  Rh  Rh216  1  0.00110428  0.60219269  0.40025395  1
  Rh  Rh217  1  0.00383269  0.19265998  0.41308025  1
  Rh  Rh218  1  0.39507176  0.39737198  0.60120570  1
  Rh  Rh219  1  0.39296525  -0.00151882  0.79535971  1
  Rh  Rh220  1  0.20085621  0.59963347  0.41173348  1
  Rh  Rh221  1  0.00105712  0.21254074  0.79365233  1
  Rh  Rh222  1  0.01479895  -0.00844989  0.80374204  1
  Rh  Rh223  1  0.40492935  0.20992430  0.19233376  1
  Rh  Rh224  1  0.79469938  -0.00165041  0.39662023  1
  Rh  Rh225  1  0.20596883  0.19935433  0.80716009  1
  Rh  Rh226  1  0.59612510  0.20160633  0.80135233  1
  Rh  Rh227  1  0.39776075  0.39728786  0.00629089  1
  Rh  Rh228  1  0.79720891  0.59495966  0.40914712  1
  Rh  Rh229  1  0.40542401  0.39974529  0.80095401  1
  Rh  Rh230  1  0.60976145  -0.00567021  0.20214829  1
  Rh  Rh231  1  0.59745255  0.80811570  0.80129688  1
  Rh  Rh232  1  0.40342570  0.80199884  0.80354795  1
  Rh  Rh233  1  0.79421652  0.39973479  0.59606612  1
  Rh  Rh234  1  -0.00381804  0.20955720  0.19126879  1
  Rh  Rh235  1  -0.01049689  0.40574525  0.39652286  1
  Rh  Rh236  1  0.20175395  0.40859156  0.19655384  1
  Rh  Rh237  1  0.60287861  0.58699536  0.78813255  1
  Rh  Rh238  1  0.60060275  -0.00349366  0.80342877  1
  Rh  Rh239  1  0.39105684  0.20726888  0.40965647  1
  Rh  Rh240  1  0.18820712  0.60086361  0.20178846  1
  Rh  Rh241  1  0.39926218  0.39856021  0.39603794  1
  Rh  Rh242  1  0.00512494  0.79575821  0.79436040  1
  Rh  Rh243  1  0.01153511  0.59946437  -0.00012426  1
  Rh  Rh244  1  0.20929042  0.79321362  -0.00579849  1
  Rh  Rh245  1  0.40377709  0.79646071  0.20054951  1
  Rh  Rh246  1  0.20065353  0.40006619  0.80347285  1
  Rh  Rh247  1  0.80198635  0.00149354  0.21079686  1
  Rh  Rh248  1  0.79863442  0.60449863  0.20744043  1
  Rh  Rh249  1  0.19109675  0.79699459  0.20334007  1
