# generated using pymatgen
data_ZrScNbPdRh
_symmetry_space_group_name_H-M   'P 1'
_cell_length_a   16.55343884
_cell_length_b   16.55206634
_cell_length_c   16.55217358
_cell_angle_alpha   90.00168886
_cell_angle_beta   89.98164891
_cell_angle_gamma   90.02323939
_symmetry_Int_Tables_number   1
_chemical_formula_structural   ZrScNbPdRh
_chemical_formula_sum   'Zr50 Sc50 Nb50 Pd50 Rh50'
_cell_volume   4535.18931298
_cell_formula_units_Z   50
loop_
 _symmetry_equiv_pos_site_id
 _symmetry_equiv_pos_as_xyz
  1  'x, y, z'
loop_
 _atom_site_type_symbol
 _atom_site_label
 _atom_site_symmetry_multiplicity
 _atom_site_fract_x
 _atom_site_fract_y
 _atom_site_fract_z
 _atom_site_occupancy
  Zr  Zr0  1  0.29730121  0.29563645  0.69809570  1
  Zr  Zr1  1  0.50272693  0.49962926  0.29829686  1
  Zr  Zr2  1  0.70381848  0.70823085  0.29904300  1
  Zr  Zr3  1  0.70053101  0.08936068  0.90087486  1
  Zr  Zr4  1  0.30746822  0.29318540  0.49745531  1
  Zr  Zr5  1  0.90953448  0.50283741  0.09980246  1
  Zr  Zr6  1  0.69040443  0.29698716  0.50048605  1
  Zr  Zr7  1  0.70594191  0.10044223  0.29545586  1
  Zr  Zr8  1  0.70539075  0.09136957  0.70106445  1
  Zr  Zr9  1  0.09776689  0.09975345  0.49490786  1
  Zr  Zr10  1  0.29239021  0.70275591  0.30334649  1
  Zr  Zr11  1  0.90083770  0.09808436  0.50052271  1
  Zr  Zr12  1  0.49836181  0.30036670  0.69881116  1
  Zr  Zr13  1  0.48593032  0.10088801  0.90524461  1
  Zr  Zr14  1  0.70400359  0.09363457  0.09932358  1
  Zr  Zr15  1  0.50378592  0.70380070  0.08709345  1
  Zr  Zr16  1  0.49977842  0.69501613  0.71028849  1
  Zr  Zr17  1  0.70834884  0.49575613  0.89854993  1
  Zr  Zr18  1  0.49359552  0.49878239  0.70095772  1
  Zr  Zr19  1  0.29653784  0.90002112  0.29748295  1
  Zr  Zr20  1  0.10595036  0.50434602  0.89708360  1
  Zr  Zr21  1  0.10809447  0.50432902  0.29985614  1
  Zr  Zr22  1  0.49930981  0.49783467  0.49673363  1
  Zr  Zr23  1  0.90609341  0.71058266  0.10075514  1
  Zr  Zr24  1  0.30897951  0.30364276  0.29487123  1
  Zr  Zr25  1  0.29922344  0.89302796  0.49675619  1
  Zr  Zr26  1  0.49843399  0.30295759  0.30681451  1
  Zr  Zr27  1  0.89607117  0.70365282  0.70058377  1
  Zr  Zr28  1  0.90288231  0.10779788  0.10299777  1
  Zr  Zr29  1  0.30124282  0.90363758  0.68707970  1
  Zr  Zr30  1  0.49807191  0.10576695  0.49542419  1
  Zr  Zr31  1  0.69388891  0.50173534  0.29537742  1
  Zr  Zr32  1  0.49022061  0.90188282  0.50023128  1
  Zr  Zr33  1  0.70136604  0.29379631  0.69908554  1
  Zr  Zr34  1  0.90410797  0.70100675  0.50027546  1
  Zr  Zr35  1  0.10538920  0.30124848  0.50234349  1
  Zr  Zr36  1  0.70446932  0.10288352  0.50885206  1
  Zr  Zr37  1  0.50013743  0.69567079  0.29932350  1
  Zr  Zr38  1  0.69845725  0.70293963  0.09904670  1
  Zr  Zr39  1  0.30201665  0.69964330  0.10121975  1
  Zr  Zr40  1  0.30039285  0.10681416  0.09580912  1
  Zr  Zr41  1  0.69540445  0.90133157  0.09850999  1
  Zr  Zr42  1  0.48499594  0.70349852  0.50006138  1
  Zr  Zr43  1  0.90455823  0.70223380  0.30118350  1
  Zr  Zr44  1  0.50611170  0.90364603  0.30251728  1
  Zr  Zr45  1  0.30250759  0.09183151  0.50338429  1
  Zr  Zr46  1  0.69970151  0.49956551  0.09536280  1
  Zr  Zr47  1  0.91198509  0.88985469  0.90284344  1
  Zr  Zr48  1  0.29546750  0.30994812  0.09680170  1
  Zr  Zr49  1  0.70619215  0.30180446  0.89727577  1
  Sc  Sc50  1  0.70032558  0.50002892  0.49496466  1
  Sc  Sc51  1  0.90244234  0.49791584  0.31306280  1
  Sc  Sc52  1  0.10398922  0.10375090  0.70517572  1
  Sc  Sc53  1  0.69728620  0.90534341  0.50349811  1
  Sc  Sc54  1  0.89770525  0.29940300  0.89718013  1
  Sc  Sc55  1  0.10015113  0.90599603  0.10010677  1
  Sc  Sc56  1  0.09288323  0.28686084  0.88983385  1
  Sc  Sc57  1  0.30053991  0.68945302  0.90212966  1
  Sc  Sc58  1  0.69645233  0.70468191  0.89527389  1
  Sc  Sc59  1  0.89484178  0.49926112  0.70173423  1
  Sc  Sc60  1  0.30154420  0.49278422  0.90357531  1
  Sc  Sc61  1  0.29448652  0.50823951  0.50195153  1
  Sc  Sc62  1  0.90327828  0.88767994  0.29716045  1
  Sc  Sc63  1  0.89616650  0.89798318  0.70086578  1
  Sc  Sc64  1  0.30198234  0.50540518  0.29208460  1
  Sc  Sc65  1  0.30522959  0.29086727  0.89817821  1
  Sc  Sc66  1  0.09421788  0.89717054  0.69521138  1
  Sc  Sc67  1  0.70918831  0.70203161  0.50091294  1
  Sc  Sc68  1  0.50025036  0.50230308  0.89778265  1
  Sc  Sc69  1  0.69245807  0.49840712  0.70763742  1
  Sc  Sc70  1  0.70413593  0.70064719  0.71265483  1
  Sc  Sc71  1  0.89305341  0.09984360  0.70007779  1
  Sc  Sc72  1  0.30151860  0.68831734  0.69148504  1
  Sc  Sc73  1  0.48836701  0.30061297  0.10077234  1
  Sc  Sc74  1  0.50317466  0.50356377  0.09754873  1
  Sc  Sc75  1  0.48832360  0.30710225  0.90128567  1
  Sc  Sc76  1  0.90325990  0.28877113  0.30324891  1
  Sc  Sc77  1  0.71118843  0.30239428  0.09054817  1
  Sc  Sc78  1  0.09625714  0.09869534  0.90305624  1
  Sc  Sc79  1  0.09463735  0.70402833  0.90419637  1
  Sc  Sc80  1  0.90662140  0.10038159  0.89990733  1
  Sc  Sc81  1  0.89272296  0.30585163  0.49564927  1
  Sc  Sc82  1  0.09940624  0.10078578  0.09153435  1
  Sc  Sc83  1  0.10137940  0.89770839  0.50724598  1
  Sc  Sc84  1  0.89930933  0.29766031  0.70947167  1
  Sc  Sc85  1  0.49587567  0.09273637  0.10310946  1
  Sc  Sc86  1  0.10174489  0.69913289  0.49874870  1
  Sc  Sc87  1  0.09429753  0.50122120  0.49854757  1
  Sc  Sc88  1  0.09907169  0.69744250  0.10744405  1
  Sc  Sc89  1  0.10030944  0.49679247  0.68876073  1
  Sc  Sc90  1  0.30386100  0.10368771  0.70138792  1
  Sc  Sc91  1  0.49765524  0.09738906  0.29721433  1
  Sc  Sc92  1  0.50458007  0.90209609  0.90675635  1
  Sc  Sc93  1  0.49470326  0.09343693  0.69876519  1
  Sc  Sc94  1  0.90496108  0.89681255  0.51054884  1
  Sc  Sc95  1  0.10184783  0.70637558  0.30236539  1
  Sc  Sc96  1  0.30674534  0.09693300  0.29081927  1
  Sc  Sc97  1  0.90083702  0.89976969  0.09870152  1
  Sc  Sc98  1  0.29139419  0.91384302  0.10750728  1
  Sc  Sc99  1  0.89871290  0.50388155  0.50137566  1
  Nb  Nb100  1  0.69172304  0.89965619  0.71221948  1
  Nb  Nb101  1  0.90029248  0.69725470  0.89963087  1
  Nb  Nb102  1  0.11085409  0.49171650  0.10057624  1
  Nb  Nb103  1  0.90564772  0.09933514  0.30368325  1
  Nb  Nb104  1  0.29943091  0.70672804  0.49371341  1
  Nb  Nb105  1  0.10230059  0.90309863  0.90235943  1
  Nb  Nb106  1  0.29638989  0.09672916  0.90016732  1
  Nb  Nb107  1  0.10144505  0.29488336  0.30405972  1
  Nb  Nb108  1  0.50363785  0.89747695  0.10230385  1
  Nb  Nb109  1  0.70264181  0.30402988  0.29915221  1
  Nb  Nb110  1  0.08961005  0.10865103  0.30681086  1
  Nb  Nb111  1  0.49610956  0.30210944  0.50004210  1
  Nb  Nb112  1  0.69944622  0.90056278  0.89420949  1
  Nb  Nb113  1  0.90215542  0.49916954  0.89931746  1
  Nb  Nb114  1  0.10875122  0.90386783  0.29180768  1
  Nb  Nb115  1  0.10224714  0.29883309  0.69734615  1
  Nb  Nb116  1  0.10216737  0.69313560  0.70810941  1
  Nb  Nb117  1  0.09791454  0.30022116  0.10299805  1
  Nb  Nb118  1  0.29611387  0.49617690  0.69969226  1
  Nb  Nb119  1  0.49784954  0.70507812  0.89962086  1
  Nb  Nb120  1  0.29851367  0.90270508  0.89896577  1
  Nb  Nb121  1  0.70044908  0.90383246  0.29779430  1
  Nb  Nb122  1  0.90770840  0.30195951  0.09846305  1
  Nb  Nb123  1  0.28205234  0.49857172  0.09908997  1
  Nb  Nb124  1  0.49812189  0.89289378  0.69971722  1
  Nb  Nb125  1  0.00609929  0.39504672  0.19903883  1
  Nb  Nb126  1  0.59560584  0.60613925  0.60167106  1
  Nb  Nb127  1  0.00224917  0.20531624  0.59989555  1
  Nb  Nb128  1  0.60588528  0.20421211  0.19717025  1
  Nb  Nb129  1  0.00564039  0.40021558  0.00271831  1
  Nb  Nb130  1  0.20235917  0.39491759  0.39787484  1
  Nb  Nb131  1  0.19196313  0.20556454  0.20179514  1
  Nb  Nb132  1  0.00171580  0.00745692  0.20963589  1
  Nb  Nb133  1  0.59612441  0.79950026  0.60876465  1
  Nb  Nb134  1  0.79117601  0.39650260  0.60175911  1
  Nb  Nb135  1  -0.00231743  0.60166424  0.80187513  1
  Nb  Nb136  1  0.80695393  0.40050383  0.20036489  1
  Nb  Nb137  1  0.59897592  0.19569845  0.80689087  1
  Nb  Nb138  1  0.59958742  0.19748511  -0.00045620  1
  Nb  Nb139  1  0.19371084  0.00205686  0.39422119  1
  Nb  Nb140  1  0.19889810  0.39532091  0.79151428  1
  Nb  Nb141  1  0.39644243  0.80151903  0.80369601  1
  Nb  Nb142  1  0.80356583  -0.00028654  0.39379193  1
  Nb  Nb143  1  0.80296910  0.59915820  0.19605729  1
  Nb  Nb144  1  0.20287813  0.80694807  -0.00629240  1
  Nb  Nb145  1  0.20306611  0.80190276  0.80177104  1
  Nb  Nb146  1  0.40412324  0.80226407  0.19662399  1
  Nb  Nb147  1  0.39857688  0.39916346  0.59773903  1
  Nb  Nb148  1  0.80862614  0.60280304  -0.00198424  1
  Nb  Nb149  1  0.20299485  -0.00606100  0.80524627  1
  Pd  Pd150  1  0.79906450  0.20966012  0.19944183  1
  Pd  Pd151  1  0.39244174  0.80896325  0.00174257  1
  Pd  Pd152  1  0.80084222  0.19743912  0.40170352  1
  Pd  Pd153  1  0.19264883  0.38611710  -0.01837942  1
  Pd  Pd154  1  0.39722303  -0.00565170  0.79718014  1
  Pd  Pd155  1  -0.01312542  0.39433854  0.60167635  1
  Pd  Pd156  1  0.59328726  0.19263669  0.60897529  1
  Pd  Pd157  1  0.00919038  0.80561451  0.40219837  1
  Pd  Pd158  1  0.00663369  0.40493048  0.80240747  1
  Pd  Pd159  1  0.39855925  0.59004685  0.00105241  1
  Pd  Pd160  1  0.59677331  0.39347574  0.80557380  1
  Pd  Pd161  1  0.00529039  0.39752761  0.39678216  1
  Pd  Pd162  1  0.59479017  -0.00487682  0.60156746  1
  Pd  Pd163  1  0.79516327  0.79879188  -0.00691039  1
  Pd  Pd164  1  0.00368367  0.59827887  -0.00356019  1
  Pd  Pd165  1  0.00200863  0.00862896  0.60987052  1
  Pd  Pd166  1  0.39677873  -0.00774057  0.00765036  1
  Pd  Pd167  1  0.40156171  0.60055842  0.19196423  1
  Pd  Pd168  1  0.00484703  0.00244737  0.79539172  1
  Pd  Pd169  1  0.79943035  0.81263170  0.40583787  1
  Pd  Pd170  1  0.21286241  0.19632387  0.39118949  1
  Pd  Pd171  1  0.78851606  0.80693671  0.60620826  1
  Pd  Pd172  1  0.60635351  0.60043116  -0.01092823  1
  Pd  Pd173  1  0.80221995  0.19739361  -0.00502583  1
  Pd  Pd174  1  0.19697952  0.78925811  0.60677883  1
  Pd  Pd175  1  0.60306767  0.39935482  0.40086262  1
  Pd  Pd176  1  0.19736700  0.60255287  0.59453853  1
  Pd  Pd177  1  0.60414572  0.60978451  0.40867301  1
  Pd  Pd178  1  0.19664759  0.20526146  -0.00123577  1
  Pd  Pd179  1  0.59640740  0.79866754  0.20142000  1
  Pd  Pd180  1  0.60012413  0.19637167  0.39052740  1
  Pd  Pd181  1  0.81054653  -0.00571640  -0.00571066  1
  Pd  Pd182  1  0.39304099  0.59898050  0.80539530  1
  Pd  Pd183  1  0.39979998  0.41302908  0.19152906  1
  Pd  Pd184  1  0.39160823  0.59559179  0.39910400  1
  Pd  Pd185  1  0.00615757  0.79591644  0.79539555  1
  Pd  Pd186  1  0.00169331  0.59506239  0.20789451  1
  Pd  Pd187  1  0.60318339  0.79873129  0.41029611  1
  Pd  Pd188  1  0.19643581  0.19150312  0.60115688  1
  Pd  Pd189  1  0.60455107  0.38886207  0.18934989  1
  Pd  Pd190  1  0.59295316  0.39072017  0.00088463  1
  Pd  Pd191  1  0.79995463  0.59890721  0.39438970  1
  Pd  Pd192  1  0.78933377  0.59136333  0.60574997  1
  Pd  Pd193  1  0.19605969  0.60978237  0.00187534  1
  Pd  Pd194  1  0.81247532  -0.00637840  0.80602323  1
  Pd  Pd195  1  0.60821467  0.00607607  0.40114967  1
  Pd  Pd196  1  -0.00038857  -0.01536160  0.39558055  1
  Pd  Pd197  1  0.00118272  0.60296080  0.60675420  1
  Pd  Pd198  1  0.81115583  -0.00908228  0.20508443  1
  Pd  Pd199  1  0.58866929  0.00314513  0.80337661  1
  Rh  Rh200  1  0.40074017  0.79233754  0.60990553  1
  Rh  Rh201  1  0.59852757  0.40872320  0.59500465  1
  Rh  Rh202  1  0.80205299  0.80636247  0.80510521  1
  Rh  Rh203  1  0.19979725  -0.00009170  -0.00691151  1
  Rh  Rh204  1  0.40040711  0.20140165  0.00307810  1
  Rh  Rh205  1  0.00487882  0.19866975  0.19758816  1
  Rh  Rh206  1  0.39124872  0.40784549  0.40708676  1
  Rh  Rh207  1  0.00796202  0.81092684  0.19722583  1
  Rh  Rh208  1  0.00115118  0.60503829  0.40109456  1
  Rh  Rh209  1  0.19364703  0.80807781  0.40226093  1
  Rh  Rh210  1  0.81377176  0.40708977  0.00468712  1
  Rh  Rh211  1  0.20203169  0.19542604  0.80310840  1
  Rh  Rh212  1  0.18666670  0.02179580  0.20722350  1
  Rh  Rh213  1  0.40034149  0.59545175  0.59661369  1
  Rh  Rh214  1  0.20025679  0.59748518  0.40245280  1
  Rh  Rh215  1  0.40245102  0.19710083  0.79925783  1
  Rh  Rh216  1  0.38972154  0.40085607  0.79345963  1
  Rh  Rh217  1  -0.00292660  0.19394305  0.79105352  1
  Rh  Rh218  1  0.59999277  0.59869660  0.80314605  1
  Rh  Rh219  1  0.40402925  0.00197103  0.59839407  1
  Rh  Rh220  1  0.19633289  0.39437831  0.21030592  1
  Rh  Rh221  1  -0.00245071  0.20546459  -0.00296673  1
  Rh  Rh222  1  0.60529873  0.80566778  -0.00817457  1
  Rh  Rh223  1  0.79507362  0.19301678  0.80579350  1
  Rh  Rh224  1  0.19667935  0.00449201  0.59996387  1
  Rh  Rh225  1  0.59887833  0.00585497  0.19726197  1
  Rh  Rh226  1  0.80099302  0.40193407  0.79225613  1
  Rh  Rh227  1  -0.00264877  -0.00037605  0.00826907  1
  Rh  Rh228  1  0.40732784  -0.00980556  0.19720564  1
  Rh  Rh229  1  0.19797716  0.60472572  0.19904761  1
  Rh  Rh230  1  0.40125417  0.20165931  0.19779788  1
  Rh  Rh231  1  0.59235829  0.80326756  0.80324469  1
  Rh  Rh232  1  0.39648392  0.40748572  0.00483945  1
  Rh  Rh233  1  0.81009288  0.20952445  0.59949355  1
  Rh  Rh234  1  0.20382842  0.79651415  0.18955069  1
  Rh  Rh235  1  0.59805962  0.00064360  0.00193965  1
  Rh  Rh236  1  0.79812012  -0.00875883  0.59821150  1
  Rh  Rh237  1  0.80506969  0.59796747  0.80600970  1
  Rh  Rh238  1  0.19702740  0.59508436  0.79658808  1
  Rh  Rh239  1  0.60209043  0.60711970  0.19742143  1
  Rh  Rh240  1  0.39941122  0.80248296  0.38717338  1
  Rh  Rh241  1  0.40549115  0.20195578  0.60037499  1
  Rh  Rh242  1  0.79319916  0.40086899  0.39912512  1
  Rh  Rh243  1  0.01085322  0.80219336  0.00622433  1
  Rh  Rh244  1  0.40115956  0.19351192  0.39459507  1
  Rh  Rh245  1  0.20839790  0.40109306  0.59696096  1
  Rh  Rh246  1  0.79803851  0.80048083  0.19849314  1
  Rh  Rh247  1  0.39200440  0.00032162  0.39652546  1
  Rh  Rh248  1  -0.00719869  0.20865180  0.41285094  1
  Rh  Rh249  1  0.00264356  0.79060491  0.60447728  1
