# generated using pymatgen
data_ZrScNbPdRh
_symmetry_space_group_name_H-M   'P 1'
_cell_length_a   16.55883973
_cell_length_b   16.55810224
_cell_length_c   16.56062042
_cell_angle_alpha   90.03627685
_cell_angle_beta   89.98882196
_cell_angle_gamma   89.99703850
_symmetry_Int_Tables_number   1
_chemical_formula_structural   ZrScNbPdRh
_chemical_formula_sum   'Zr50 Sc50 Nb50 Pd50 Rh50'
_cell_volume   4540.63894563
_cell_formula_units_Z   50
loop_
 _symmetry_equiv_pos_site_id
 _symmetry_equiv_pos_as_xyz
  1  'x, y, z'
loop_
 _atom_site_type_symbol
 _atom_site_label
 _atom_site_symmetry_multiplicity
 _atom_site_fract_x
 _atom_site_fract_y
 _atom_site_fract_z
 _atom_site_occupancy
  Zr  Zr0  1  0.29595270  0.29415533  0.90686894  1
  Zr  Zr1  1  0.69824582  0.89468353  0.90096113  1
  Zr  Zr2  1  0.89919586  0.50001285  0.90787608  1
  Zr  Zr3  1  0.69500696  0.10005633  0.90104746  1
  Zr  Zr4  1  0.30341578  0.69990529  0.69668739  1
  Zr  Zr5  1  0.89780125  0.50737326  0.29591501  1
  Zr  Zr6  1  0.09860744  0.10320007  0.89847998  1
  Zr  Zr7  1  0.09760974  0.70157617  0.69387724  1
  Zr  Zr8  1  0.69614897  0.50496228  0.30027601  1
  Zr  Zr9  1  0.50734773  0.70003592  0.90235467  1
  Zr  Zr10  1  0.50219601  0.69679082  0.69510183  1
  Zr  Zr11  1  0.70201261  0.09818648  0.10507875  1
  Zr  Zr12  1  0.50000453  0.09483804  0.49627393  1
  Zr  Zr13  1  0.50380432  0.49509400  0.09978809  1
  Zr  Zr14  1  0.69063647  0.50097871  0.69483533  1
  Zr  Zr15  1  0.10253196  0.09182553  0.30316173  1
  Zr  Zr16  1  0.70123557  0.69503397  0.29363839  1
  Zr  Zr17  1  0.70446970  0.50566571  0.89875026  1
  Zr  Zr18  1  0.50107993  0.50060807  0.69977310  1
  Zr  Zr19  1  0.10551681  0.70613607  0.30392209  1
  Zr  Zr20  1  0.90406187  0.89987463  0.48799168  1
  Zr  Zr21  1  0.49618552  0.69902478  0.30228297  1
  Zr  Zr22  1  0.30086066  0.49259161  0.49943178  1
  Zr  Zr23  1  0.30167772  0.69848191  0.30094416  1
  Zr  Zr24  1  0.29990890  0.49651024  0.69567879  1
  Zr  Zr25  1  0.29765349  0.49724660  0.90555900  1
  Zr  Zr26  1  0.30528815  0.30450828  0.30350203  1
  Zr  Zr27  1  0.49919946  0.89839329  0.50299508  1
  Zr  Zr28  1  0.49810234  0.30585196  0.90728915  1
  Zr  Zr29  1  0.30620421  0.29406424  0.09511172  1
  Zr  Zr30  1  0.49763840  0.10099121  0.10020456  1
  Zr  Zr31  1  0.89827573  0.30710809  0.90550005  1
  Zr  Zr32  1  0.09400423  0.50466588  0.09561925  1
  Zr  Zr33  1  0.09946299  0.49847537  0.50168310  1
  Zr  Zr34  1  0.10433064  0.89154916  0.49672754  1
  Zr  Zr35  1  0.89885017  0.70395316  0.50050799  1
  Zr  Zr36  1  0.90616283  0.09671858  0.70430981  1
  Zr  Zr37  1  0.50250820  0.49873306  0.51019915  1
  Zr  Zr38  1  0.09745558  0.89879916  0.69715405  1
  Zr  Zr39  1  0.50154860  0.29765975  0.09932478  1
  Zr  Zr40  1  0.10836455  0.09746670  0.49834787  1
  Zr  Zr41  1  0.69441571  0.30661553  0.29995104  1
  Zr  Zr42  1  0.49829016  0.30920773  0.69681654  1
  Zr  Zr43  1  0.69913399  0.50295916  0.49559362  1
  Zr  Zr44  1  0.90255753  0.09471635  0.29104246  1
  Zr  Zr45  1  0.30452344  0.50606337  0.29640309  1
  Zr  Zr46  1  0.89802967  0.70716208  0.29212818  1
  Zr  Zr47  1  0.10023301  0.29551297  0.29542749  1
  Zr  Zr48  1  0.31001697  0.90444574  0.89937897  1
  Zr  Zr49  1  0.89936134  0.29421447  0.09451075  1
  Sc  Sc50  1  0.29986512  0.10195596  0.68929470  1
  Sc  Sc51  1  0.70708414  0.09869090  0.70105138  1
  Sc  Sc52  1  0.89868018  0.70207244  0.70283892  1
  Sc  Sc53  1  0.29171491  0.49440382  0.10615209  1
  Sc  Sc54  1  0.09444076  0.89128896  0.09659948  1
  Sc  Sc55  1  0.49328273  0.70124474  0.50680559  1
  Sc  Sc56  1  0.29165476  0.69659814  0.89857762  1
  Sc  Sc57  1  0.28799278  0.69120789  0.10099160  1
  Sc  Sc58  1  0.10941212  0.30059288  0.49950258  1
  Sc  Sc59  1  0.49816347  0.09716115  0.69997894  1
  Sc  Sc60  1  0.09328254  0.29590133  0.90512087  1
  Sc  Sc61  1  0.09452835  0.89483020  0.90157267  1
  Sc  Sc62  1  0.30053355  0.71056069  0.49139218  1
  Sc  Sc63  1  0.30155386  0.09158576  0.30212147  1
  Sc  Sc64  1  0.49655375  0.09499464  0.89963547  1
  Sc  Sc65  1  0.09365653  0.50648521  0.70523176  1
  Sc  Sc66  1  0.70291277  0.90828340  0.50067559  1
  Sc  Sc67  1  0.90379154  0.30422678  0.29583169  1
  Sc  Sc68  1  0.70764244  0.90298710  0.29403136  1
  Sc  Sc69  1  0.10415667  0.29390629  0.69434331  1
  Sc  Sc70  1  0.50102449  0.09819348  0.30334192  1
  Sc  Sc71  1  0.49893387  0.90614543  0.89930099  1
  Sc  Sc72  1  0.29672219  0.90242310  0.30879998  1
  Sc  Sc73  1  0.90231459  0.89298883  0.89275635  1
  Sc  Sc74  1  0.69518185  0.09479579  0.30002769  1
  Sc  Sc75  1  0.89847911  0.28743770  0.70385733  1
  Sc  Sc76  1  0.89503045  0.50215227  0.49008895  1
  Sc  Sc77  1  0.51769966  0.70108409  0.10242839  1
  Sc  Sc78  1  0.50306279  0.90604875  0.30355370  1
  Sc  Sc79  1  0.50848109  0.90380175  0.09783920  1
  Sc  Sc80  1  0.09819503  0.69594711  0.90558101  1
  Sc  Sc81  1  0.89957041  0.89435759  0.70599897  1
  Sc  Sc82  1  0.70020576  0.69273277  0.90425340  1
  Sc  Sc83  1  0.49793974  0.30348401  0.29633391  1
  Sc  Sc84  1  0.70491471  0.89915841  0.70155403  1
  Sc  Sc85  1  0.70099805  0.29674196  0.90485603  1
  Sc  Sc86  1  0.70776071  0.69602940  0.69690914  1
  Sc  Sc87  1  0.89248298  0.09940769  0.50963627  1
  Sc  Sc88  1  0.90128135  0.10859551  0.89708766  1
  Sc  Sc89  1  0.69774015  0.29382690  0.09571661  1
  Sc  Sc90  1  0.09912624  0.10502237  0.70174491  1
  Sc  Sc91  1  0.89631602  0.50219090  0.71237862  1
  Sc  Sc92  1  0.09370368  0.10832244  0.10182111  1
  Sc  Sc93  1  0.49347894  0.29978452  0.48951209  1
  Sc  Sc94  1  0.09654387  0.30144814  0.09822752  1
  Sc  Sc95  1  0.10812393  0.49449065  0.29213849  1
  Sc  Sc96  1  0.69768527  0.29705774  0.70333965  1
  Sc  Sc97  1  0.48841062  0.89989729  0.69802382  1
  Sc  Sc98  1  0.30141350  0.29679197  0.50259845  1
  Sc  Sc99  1  0.69897048  0.50950330  0.09697194  1
  Nb  Nb100  1  0.29988691  0.90370792  0.51032837  1
  Nb  Nb101  1  0.29977151  0.90038797  0.69979395  1
  Nb  Nb102  1  0.70136688  0.30136368  0.49788277  1
  Nb  Nb103  1  0.89896867  0.89812555  0.10883476  1
  Nb  Nb104  1  0.30126842  0.10073919  0.90469367  1
  Nb  Nb105  1  0.09252378  0.90294682  0.30790614  1
  Nb  Nb106  1  0.70179022  0.89642534  0.10070911  1
  Nb  Nb107  1  0.30370569  0.09737627  0.49803438  1
  Nb  Nb108  1  0.70461341  0.70839227  0.10349744  1
  Nb  Nb109  1  0.50226215  0.50221089  0.29668662  1
  Nb  Nb110  1  0.70371578  0.69954667  0.49594794  1
  Nb  Nb111  1  0.29906940  0.90126295  0.10033080  1
  Nb  Nb112  1  0.91157638  0.90333443  0.29646696  1
  Nb  Nb113  1  0.89672707  0.09970981  0.10065767  1
  Nb  Nb114  1  0.10104150  0.49760043  0.89391359  1
  Nb  Nb115  1  0.09665115  0.70411473  0.50276770  1
  Nb  Nb116  1  0.69799316  0.10421004  0.50072949  1
  Nb  Nb117  1  0.89782777  0.29753721  0.50207941  1
  Nb  Nb118  1  0.90570478  0.70158071  0.10178208  1
  Nb  Nb119  1  0.29821547  0.30374362  0.69872663  1
  Nb  Nb120  1  0.89632849  0.50269192  0.09804345  1
  Nb  Nb121  1  0.30118818  0.09698393  0.09515322  1
  Nb  Nb122  1  0.50480429  0.50329935  0.90111269  1
  Nb  Nb123  1  0.09250450  0.70573908  0.10285412  1
  Nb  Nb124  1  0.88975010  0.69942350  0.90451697  1
  Nb  Nb125  1  0.40412937  0.59960113  -0.00230427  1
  Nb  Nb126  1  0.80114180  0.39435925  0.59542402  1
  Nb  Nb127  1  -0.00915953  0.39665231  0.59725061  1
  Nb  Nb128  1  0.80575084  -0.00460563  0.00757335  1
  Nb  Nb129  1  0.00528844  0.60585345  0.39965144  1
  Nb  Nb130  1  0.39388547  0.80220830  0.19394197  1
  Nb  Nb131  1  0.80069673  0.40497680  0.19463846  1
  Nb  Nb132  1  0.19905662  0.80469270  0.20044712  1
  Nb  Nb133  1  0.00217558  -0.00342241  0.59735191  1
  Nb  Nb134  1  0.60575048  0.79623172  0.40368148  1
  Nb  Nb135  1  0.59880148  0.79726608  0.79777543  1
  Nb  Nb136  1  0.60243262  0.19981021  0.59207036  1
  Nb  Nb137  1  0.20328454  0.80553703  0.79462677  1
  Nb  Nb138  1  0.39278260  0.20560967  0.80054976  1
  Nb  Nb139  1  0.19691369  0.60385049  0.59439521  1
  Nb  Nb140  1  0.80248483  0.80085931  0.00961317  1
  Nb  Nb141  1  0.39780664  0.79598040  0.00692945  1
  Nb  Nb142  1  0.19908784  0.39971091  0.80217449  1
  Nb  Nb143  1  -0.00547612  0.19887631  0.40301539  1
  Nb  Nb144  1  -0.00750319  -0.00060558  0.00331594  1
  Nb  Nb145  1  0.79919007  0.20213004  0.40408449  1
  Nb  Nb146  1  0.20010858  0.00223480  -0.00010335  1
  Nb  Nb147  1  0.20730282  0.19656775  0.19783462  1
  Nb  Nb148  1  0.40363921  0.59442681  0.80541102  1
  Nb  Nb149  1  0.20527985  -0.00205615  0.80322634  1
  Pd  Pd150  1  0.40388688  -0.00629588  0.19830998  1
  Pd  Pd151  1  0.60774405  0.79824480  0.59985559  1
  Pd  Pd152  1  0.19612789  0.59898846  0.40577812  1
  Pd  Pd153  1  0.80680442  -0.00641069  0.60350922  1
  Pd  Pd154  1  0.20432687  0.80430458  -0.00153482  1
  Pd  Pd155  1  0.80626743  0.59113098  0.60083620  1
  Pd  Pd156  1  0.00691050  0.39157747  0.79149687  1
  Pd  Pd157  1  0.60687855  0.39834252  0.80653973  1
  Pd  Pd158  1  0.79468205  0.80320539  0.39398641  1
  Pd  Pd159  1  0.39850714  -0.00399234  0.40196350  1
  Pd  Pd160  1  0.19707613  0.59918180  0.00275869  1
  Pd  Pd161  1  0.60407460  0.00132287  0.00335750  1
  Pd  Pd162  1  0.59673096  -0.00856485  0.79123061  1
  Pd  Pd163  1  0.40585107  0.60730922  0.18633517  1
  Pd  Pd164  1  0.39560358  0.19373143  0.20803125  1
  Pd  Pd165  1  -0.00603687  0.60813696  0.80926839  1
  Pd  Pd166  1  0.79752446  0.20819266  0.20854574  1
  Pd  Pd167  1  0.19076259  0.39692685  -0.00173977  1
  Pd  Pd168  1  0.20464579  0.19969528  0.79496088  1
  Pd  Pd169  1  0.40552473  0.20140892  0.60243711  1
  Pd  Pd170  1  -0.00550183  0.40023276  0.19276461  1
  Pd  Pd171  1  0.00497179  0.79055719  0.80512242  1
  Pd  Pd172  1  0.80301225  0.39553190  0.39575778  1
  Pd  Pd173  1  0.80131199  0.80661486  0.59949284  1
  Pd  Pd174  1  0.59430655  0.80651231  0.20978909  1
  Pd  Pd175  1  0.60166439  0.00478170  0.60667646  1
  Pd  Pd176  1  0.40083437  0.79049299  0.80705042  1
  Pd  Pd177  1  -0.00558714  0.59235028  0.59534708  1
  Pd  Pd178  1  0.60133025  0.20110698  0.39969440  1
  Pd  Pd179  1  -0.00082414  0.60243063  -0.00448175  1
  Pd  Pd180  1  0.40055814  0.40162479  0.19747352  1
  Pd  Pd181  1  0.00575704  0.19915907  0.59262941  1
  Pd  Pd182  1  0.79428473  0.39770198  0.79385494  1
  Pd  Pd183  1  0.00972880  -0.00282226  0.19008775  1
  Pd  Pd184  1  0.58969568  0.20058259  0.79520159  1
  Pd  Pd185  1  0.19654688  0.00317680  0.60534997  1
  Pd  Pd186  1  0.79979910  0.00803462  0.39558074  1
  Pd  Pd187  1  0.20366378  0.19872667  0.39498404  1
  Pd  Pd188  1  0.00629624  0.60124594  0.20597558  1
  Pd  Pd189  1  0.20065750  0.39983198  0.39519541  1
  Pd  Pd190  1  0.79867203  0.20040934  0.80430795  1
  Pd  Pd191  1  0.19274881  -0.00246659  0.19192968  1
  Pd  Pd192  1  0.61007717  0.40124127  0.00097938  1
  Pd  Pd193  1  0.59859781  0.19753293  0.20426895  1
  Pd  Pd194  1  0.39361897  0.39946997  0.80541806  1
  Pd  Pd195  1  0.80454101  -0.00037128  0.80920199  1
  Pd  Pd196  1  0.59205547  0.60717357  0.40703154  1
  Pd  Pd197  1  0.40561905  0.59504858  0.40867351  1
  Pd  Pd198  1  0.00136499  0.39982294  0.40332683  1
  Pd  Pd199  1  0.59076713  0.40244185  0.40085555  1
  Rh  Rh200  1  0.80324220  0.60925941  0.00863855  1
  Rh  Rh201  1  0.79960950  0.60145212  0.79968851  1
  Rh  Rh202  1  0.18974270  0.60744300  0.19645032  1
  Rh  Rh203  1  0.78829927  0.20476451  0.59881794  1
  Rh  Rh204  1  0.19602709  0.19387608  0.01022205  1
  Rh  Rh205  1  0.59580388  0.19504084  -0.00120963  1
  Rh  Rh206  1  0.60596147  0.60835507  0.59470497  1
  Rh  Rh207  1  0.80281162  0.80494277  0.19985038  1
  Rh  Rh208  1  0.80678848  0.60899467  0.39753706  1
  Rh  Rh209  1  0.39154501  0.01528103  0.79198691  1
  Rh  Rh210  1  0.40106643  0.40777027  0.00512307  1
  Rh  Rh211  1  0.60022596  -0.00082274  0.20005689  1
  Rh  Rh212  1  0.79079399  0.79189876  0.80853577  1
  Rh  Rh213  1  0.60030914  0.59881008  0.19748855  1
  Rh  Rh214  1  0.20631393  -0.00591753  0.40595315  1
  Rh  Rh215  1  0.20382077  0.80783213  0.39759642  1
  Rh  Rh216  1  0.00773069  0.80477504  0.20442491  1
  Rh  Rh217  1  0.79887858  0.19165495  -0.00464492  1
  Rh  Rh218  1  0.40142451  0.39457245  0.59285394  1
  Rh  Rh219  1  -0.00228985  0.79357007  0.39574012  1
  Rh  Rh220  1  -0.00015521  0.20678111  0.80255933  1
  Rh  Rh221  1  0.40783448  0.80766511  0.39622229  1
  Rh  Rh222  1  0.79701175  0.40161066  0.00833669  1
  Rh  Rh223  1  0.00486214  0.00141045  0.79982497  1
  Rh  Rh224  1  -0.00360421  0.01020216  0.40850666  1
  Rh  Rh225  1  0.00449923  0.19729545  0.20552232  1
  Rh  Rh226  1  0.20402754  0.59817247  0.79058145  1
  Rh  Rh227  1  0.39939377  -0.00385809  0.00739494  1
  Rh  Rh228  1  0.39588898  0.80379867  0.59665643  1
  Rh  Rh229  1  0.00090330  0.40488177  0.00108746  1
  Rh  Rh230  1  0.20405623  0.38798429  0.19852394  1
  Rh  Rh231  1  0.40779137  0.19392135  -0.00621435  1
  Rh  Rh232  1  0.60524286  -0.00774501  0.40121470  1
  Rh  Rh233  1  0.79939560  0.59752221  0.19113189  1
  Rh  Rh234  1  0.18638708  0.40785866  0.61231740  1
  Rh  Rh235  1  0.60273325  0.80106557  -0.00499756  1
  Rh  Rh236  1  0.60546792  0.39034287  0.59445936  1
  Rh  Rh237  1  -0.00496104  0.19513168  -0.00028348  1
  Rh  Rh238  1  0.60622841  0.40403039  0.19761405  1
  Rh  Rh239  1  0.20572207  0.19777976  0.59620878  1
  Rh  Rh240  1  0.40507215  0.40873141  0.39668883  1
  Rh  Rh241  1  -0.01020776  0.80829346  0.59835961  1
  Rh  Rh242  1  0.39862161  0.00000898  0.59873438  1
  Rh  Rh243  1  0.79979034  -0.00382236  0.19839725  1
  Rh  Rh244  1  0.38857196  0.59880421  0.59785028  1
  Rh  Rh245  1  0.20835746  0.79348967  0.60176950  1
  Rh  Rh246  1  0.60140474  0.59992397  0.00515509  1
  Rh  Rh247  1  -0.01211195  0.79947734  -0.00263754  1
  Rh  Rh248  1  0.39641527  0.19386924  0.39764554  1
  Rh  Rh249  1  0.59886602  0.60448321  0.79535221  1
