# generated using pymatgen
data_ZrScNbPdRh
_symmetry_space_group_name_H-M   'P 1'
_cell_length_a   16.56132027
_cell_length_b   16.55567219
_cell_length_c   16.55802348
_cell_angle_alpha   89.98863110
_cell_angle_beta   90.01677617
_cell_angle_gamma   90.00061509
_symmetry_Int_Tables_number   1
_chemical_formula_structural   ZrScNbPdRh
_chemical_formula_sum   'Zr50 Sc50 Nb50 Pd50 Rh50'
_cell_volume   4539.94133839
_cell_formula_units_Z   50
loop_
 _symmetry_equiv_pos_site_id
 _symmetry_equiv_pos_as_xyz
  1  'x, y, z'
loop_
 _atom_site_type_symbol
 _atom_site_label
 _atom_site_symmetry_multiplicity
 _atom_site_fract_x
 _atom_site_fract_y
 _atom_site_fract_z
 _atom_site_occupancy
  Zr  Zr0  1  0.30232056  0.70113939  0.90877918  1
  Zr  Zr1  1  0.09560746  0.09410857  0.70220708  1
  Zr  Zr2  1  0.28612897  0.89540451  0.70530820  1
  Zr  Zr3  1  0.70040462  0.90507001  0.48853698  1
  Zr  Zr4  1  0.09577365  0.49893047  0.89672364  1
  Zr  Zr5  1  0.90678850  0.10152137  0.09848044  1
  Zr  Zr6  1  0.09635142  0.89287098  0.50710454  1
  Zr  Zr7  1  0.09672684  0.10697865  0.30115389  1
  Zr  Zr8  1  0.89987712  0.89349074  0.49904292  1
  Zr  Zr9  1  0.09758764  0.49854847  0.70281305  1
  Zr  Zr10  1  0.09485414  0.50800748  0.29840474  1
  Zr  Zr11  1  0.50866298  0.29603716  0.69989157  1
  Zr  Zr12  1  0.89266577  0.89024061  0.30202627  1
  Zr  Zr13  1  0.69134806  0.89983094  0.10024079  1
  Zr  Zr14  1  0.89307884  0.29265241  0.89352505  1
  Zr  Zr15  1  0.30543843  0.69903566  0.29372259  1
  Zr  Zr16  1  0.30583006  0.89537524  0.49800620  1
  Zr  Zr17  1  0.30285610  0.50702301  0.09992886  1
  Zr  Zr18  1  0.50228315  0.29439082  0.10044107  1
  Zr  Zr19  1  0.89699306  0.30130197  0.51190723  1
  Zr  Zr20  1  0.50312699  0.90051073  0.49478508  1
  Zr  Zr21  1  0.51590205  0.69204165  0.70263731  1
  Zr  Zr22  1  0.10374787  0.29356954  0.09715836  1
  Zr  Zr23  1  0.51147585  0.91079479  0.70135988  1
  Zr  Zr24  1  0.09427277  0.10545413  0.90863474  1
  Zr  Zr25  1  0.10401468  0.89398070  0.10012557  1
  Zr  Zr26  1  0.90070367  0.10581637  0.29593668  1
  Zr  Zr27  1  0.69641007  0.30013642  0.10639270  1
  Zr  Zr28  1  0.30479189  0.89339604  0.09994845  1
  Zr  Zr29  1  0.50644100  0.29774547  0.50157110  1
  Zr  Zr30  1  0.50068671  0.09542898  0.50497581  1
  Zr  Zr31  1  0.30044200  0.29995428  0.30357065  1
  Zr  Zr32  1  0.69774324  0.31187356  0.70636397  1
  Zr  Zr33  1  0.30256592  0.10208535  0.69716133  1
  Zr  Zr34  1  0.50042445  0.70093939  0.90754683  1
  Zr  Zr35  1  0.50441588  0.69875961  0.49089373  1
  Zr  Zr36  1  0.09662085  0.30221509  0.89816727  1
  Zr  Zr37  1  0.29809770  0.90335918  0.90757620  1
  Zr  Zr38  1  0.90192782  0.69652601  0.49457189  1
  Zr  Zr39  1  0.09405782  0.70096641  0.90042233  1
  Zr  Zr40  1  0.30460418  0.09275511  0.09390241  1
  Zr  Zr41  1  0.09595632  0.69506799  0.49632265  1
  Zr  Zr42  1  0.10194927  0.29582129  0.30382424  1
  Zr  Zr43  1  0.30336139  0.30256694  0.10608475  1
  Zr  Zr44  1  0.89537638  0.69926657  0.69589170  1
  Zr  Zr45  1  0.90631760  0.90197206  0.69609024  1
  Zr  Zr46  1  0.09291938  0.30797425  0.69502629  1
  Zr  Zr47  1  0.89373274  0.49567970  0.70161417  1
  Zr  Zr48  1  0.29796819  0.29706236  0.90339241  1
  Zr  Zr49  1  0.09418280  0.50086983  0.10079873  1
  Sc  Sc50  1  0.90180596  0.10812092  0.50607987  1
  Sc  Sc51  1  0.69230313  0.90684871  0.89703276  1
  Sc  Sc52  1  0.69354512  0.09415215  0.71124275  1
  Sc  Sc53  1  0.08831137  0.88656343  0.29020884  1
  Sc  Sc54  1  0.51361619  0.50719940  0.49398676  1
  Sc  Sc55  1  0.89330297  0.29814101  0.10838941  1
  Sc  Sc56  1  0.69867524  0.29926429  0.51205202  1
  Sc  Sc57  1  0.70354219  0.49396462  0.89903048  1
  Sc  Sc58  1  0.70339288  0.70663716  0.10286004  1
  Sc  Sc59  1  0.50497740  0.70302892  0.30212572  1
  Sc  Sc60  1  0.49861414  0.49854181  0.90696414  1
  Sc  Sc61  1  0.29398091  0.29815635  0.49646866  1
  Sc  Sc62  1  0.29868675  0.49921503  0.49430347  1
  Sc  Sc63  1  0.10572131  0.89896083  0.89284356  1
  Sc  Sc64  1  0.70272263  0.49890325  0.10414177  1
  Sc  Sc65  1  0.90279525  0.89077173  0.09874521  1
  Sc  Sc66  1  0.69191746  0.10639548  0.10301281  1
  Sc  Sc67  1  0.09612291  0.89274124  0.70404801  1
  Sc  Sc68  1  0.90615617  0.89379906  0.89628519  1
  Sc  Sc69  1  0.89094133  0.50661984  0.90738920  1
  Sc  Sc70  1  0.29617091  0.50332396  0.90716020  1
  Sc  Sc71  1  0.70274817  0.50572963  0.29339018  1
  Sc  Sc72  1  0.28483180  0.50047724  0.69306018  1
  Sc  Sc73  1  0.50992086  0.29925261  0.89704311  1
  Sc  Sc74  1  0.09591977  0.11730238  0.49609683  1
  Sc  Sc75  1  0.10493133  0.50505162  0.50576316  1
  Sc  Sc76  1  0.30370177  0.49996708  0.29888317  1
  Sc  Sc77  1  0.89548363  0.50270543  0.29609300  1
  Sc  Sc78  1  0.50716630  0.89508637  0.29914133  1
  Sc  Sc79  1  0.50596428  0.90279172  0.91191574  1
  Sc  Sc80  1  0.31228526  0.89278412  0.29790375  1
  Sc  Sc81  1  0.50027771  0.10089837  0.30061355  1
  Sc  Sc82  1  0.89428807  0.50171383  0.10099899  1
  Sc  Sc83  1  0.29799280  0.29800903  0.69219870  1
  Sc  Sc84  1  0.49698566  0.70870679  0.10188367  1
  Sc  Sc85  1  0.69136616  0.09374156  0.29986007  1
  Sc  Sc86  1  0.70683342  0.50213558  0.49306872  1
  Sc  Sc87  1  0.49214165  0.29113419  0.29932462  1
  Sc  Sc88  1  0.70237922  0.69758364  0.90207120  1
  Sc  Sc89  1  0.89702741  0.30111732  0.29619473  1
  Sc  Sc90  1  0.09507790  0.10179865  0.10062533  1
  Sc  Sc91  1  0.70265538  0.69436542  0.49636089  1
  Sc  Sc92  1  0.09916307  0.70077897  0.10485377  1
  Sc  Sc93  1  0.30618674  0.11031049  0.30361403  1
  Sc  Sc94  1  0.29610457  0.69552759  0.50182558  1
  Sc  Sc95  1  0.51189640  0.10359229  0.89942576  1
  Sc  Sc96  1  0.49986019  0.51105514  0.30452270  1
  Sc  Sc97  1  0.11108128  0.70383542  0.69646062  1
  Sc  Sc98  1  0.49991862  0.49537384  0.10373274  1
  Sc  Sc99  1  0.50436310  0.09301750  0.10443753  1
  Nb  Nb100  1  0.09336548  0.30081209  0.49649851  1
  Nb  Nb101  1  0.50101141  0.90429686  0.09824881  1
  Nb  Nb102  1  0.70745133  0.10636306  0.90271239  1
  Nb  Nb103  1  0.09403303  0.70101290  0.30008911  1
  Nb  Nb104  1  0.89678824  0.69719499  0.90029629  1
  Nb  Nb105  1  0.51149295  0.49564998  0.69958664  1
  Nb  Nb106  1  0.70385686  0.71574837  0.29538584  1
  Nb  Nb107  1  0.68929234  0.50962785  0.70176552  1
  Nb  Nb108  1  0.30614409  0.70146461  0.70067937  1
  Nb  Nb109  1  0.89602263  0.10467277  0.70619288  1
  Nb  Nb110  1  0.70148281  0.69670694  0.70211834  1
  Nb  Nb111  1  0.89669777  0.69631768  0.08057834  1
  Nb  Nb112  1  0.70208727  0.90009552  0.69837956  1
  Nb  Nb113  1  0.30145762  0.70699995  0.09808965  1
  Nb  Nb114  1  0.69717562  0.28660117  0.90216550  1
  Nb  Nb115  1  0.89720644  0.29560601  0.69879319  1
  Nb  Nb116  1  0.89156290  0.10281037  0.89627681  1
  Nb  Nb117  1  0.90217829  0.50234600  0.49423673  1
  Nb  Nb118  1  0.69846183  0.09535231  0.49661500  1
  Nb  Nb119  1  0.70188451  0.29707552  0.29610035  1
  Nb  Nb120  1  0.29876620  0.09513185  0.49925865  1
  Nb  Nb121  1  0.49703843  0.09925415  0.70154242  1
  Nb  Nb122  1  0.29763957  0.09649895  0.89786946  1
  Nb  Nb123  1  0.90564828  0.70594614  0.29681772  1
  Nb  Nb124  1  0.70389445  0.89525829  0.29630560  1
  Nb  Nb125  1  0.40309758  0.40565067  0.79102025  1
  Nb  Nb126  1  0.40608853  0.59754211  0.60710845  1
  Nb  Nb127  1  0.79823263  -0.00380116  0.19710293  1
  Nb  Nb128  1  0.39835200  0.19636516  -0.00203704  1
  Nb  Nb129  1  0.00216918  -0.00196176  0.39956663  1
  Nb  Nb130  1  0.60641013  0.80118895  0.60277799  1
  Nb  Nb131  1  0.40889352  0.79475036  0.60852652  1
  Nb  Nb132  1  0.40365528  0.80086197  0.79742265  1
  Nb  Nb133  1  0.19820136  0.19690398  0.80185266  1
  Nb  Nb134  1  -0.00232347  0.39659081  -0.00189725  1
  Nb  Nb135  1  0.80146955  0.00645674  -0.00177211  1
  Nb  Nb136  1  0.79650073  0.79799275  0.79311853  1
  Nb  Nb137  1  0.79204043  0.20146590  0.40155405  1
  Nb  Nb138  1  -0.00208850  0.40158646  0.40584849  1
  Nb  Nb139  1  0.19517695  -0.00379390  0.39819783  1
  Nb  Nb140  1  0.40107528  0.59796888  0.79232074  1
  Nb  Nb141  1  -0.00580735  0.60218778  0.80117940  1
  Nb  Nb142  1  0.20023221  -0.00358524  0.20649235  1
  Nb  Nb143  1  0.19575266  0.79926978  0.39403919  1
  Nb  Nb144  1  0.20008903  0.00287541  0.59146355  1
  Nb  Nb145  1  0.40068447  0.00162793  0.80067371  1
  Nb  Nb146  1  0.60048237  0.60099865  0.00488927  1
  Nb  Nb147  1  0.79865562  0.00212001  0.60306812  1
  Nb  Nb148  1  0.60706671  0.39259490  0.39407701  1
  Nb  Nb149  1  0.40907779  0.40659026  0.60351225  1
  Pd  Pd150  1  -0.01130886  0.60768494  0.19366855  1
  Pd  Pd151  1  0.20008421  0.40451338  0.20274717  1
  Pd  Pd152  1  0.80284066  0.39407011  0.00314359  1
  Pd  Pd153  1  0.40714360  0.40241415  0.20760705  1
  Pd  Pd154  1  0.39809138  0.20100432  0.80629552  1
  Pd  Pd155  1  0.60804127  0.18882287  0.60781060  1
  Pd  Pd156  1  0.19620575  0.40415685  0.00370618  1
  Pd  Pd157  1  0.60452639  0.40360435  -0.00116089  1
  Pd  Pd158  1  0.79802561  0.40016837  0.80339694  1
  Pd  Pd159  1  0.20595203  0.19091113  0.19699979  1
  Pd  Pd160  1  -0.00230126  0.00084289  0.80893727  1
  Pd  Pd161  1  -0.00163799  -0.00496166  0.20487751  1
  Pd  Pd162  1  0.80831569  0.01092620  0.39793310  1
  Pd  Pd163  1  0.39917376  -0.00086990  0.20685877  1
  Pd  Pd164  1  0.60450566  0.20163363  0.39762412  1
  Pd  Pd165  1  -0.00096218  0.40669210  0.59377119  1
  Pd  Pd166  1  0.00430680  0.80221472  -0.00121240  1
  Pd  Pd167  1  0.80077819  0.60676111  0.38786080  1
  Pd  Pd168  1  0.79241009  0.41015963  0.60152652  1
  Pd  Pd169  1  0.80486104  0.61035585  0.19742572  1
  Pd  Pd170  1  0.20121696  0.60554412  0.80024731  1
  Pd  Pd171  1  -0.00242058  0.39561584  0.20023675  1
  Pd  Pd172  1  0.79450415  0.59252845  0.59902613  1
  Pd  Pd173  1  0.79289651  0.80968140  -0.01165661  1
  Pd  Pd174  1  0.79978713  0.19896293  0.01125939  1
  Pd  Pd175  1  0.80223968  -0.00754228  0.80183460  1
  Pd  Pd176  1  0.00258963  0.19980342  0.79552440  1
  Pd  Pd177  1  0.19111772  0.40409252  0.40155384  1
  Pd  Pd178  1  0.39418600  -0.00875176  0.60731071  1
  Pd  Pd179  1  0.40274695  0.39457090  -0.00712424  1
  Pd  Pd180  1  0.79330164  0.80382310  0.59826339  1
  Pd  Pd181  1  0.39888764  0.00324100  0.39168042  1
  Pd  Pd182  1  0.78886719  0.19026555  0.60526274  1
  Pd  Pd183  1  0.59898853  0.60885157  0.19556764  1
  Pd  Pd184  1  0.60001665  0.59309017  0.81641687  1
  Pd  Pd185  1  0.60339354  0.80265488  0.80093852  1
  Pd  Pd186  1  0.80005691  0.39305864  0.39766637  1
  Pd  Pd187  1  0.19307588  0.19851421  0.60142693  1
  Pd  Pd188  1  0.40721865  0.60420614  0.19542026  1
  Pd  Pd189  1  0.21060836  0.39388460  0.79683426  1
  Pd  Pd190  1  0.20104405  0.60344356  0.19819387  1
  Pd  Pd191  1  -0.00455880  -0.00621243  -0.00613222  1
  Pd  Pd192  1  0.59380693  0.40027428  0.21080273  1
  Pd  Pd193  1  0.39988851  0.20657282  0.59329411  1
  Pd  Pd194  1  0.20300213  0.60390766  0.39375379  1
  Pd  Pd195  1  0.00110919  0.60079079  0.60697766  1
  Pd  Pd196  1  -0.00030302  0.00858856  0.59184895  1
  Pd  Pd197  1  0.41146540  0.40322761  0.40753816  1
  Pd  Pd198  1  0.19195316  0.00111792  0.00687438  1
  Pd  Pd199  1  0.19403067  0.60449867  0.00597782  1
  Rh  Rh200  1  0.60334179  0.40988050  0.58889163  1
  Rh  Rh201  1  0.00370384  0.80101778  0.39951094  1
  Rh  Rh202  1  0.20433769  0.80063406  0.20592746  1
  Rh  Rh203  1  -0.00151577  0.59289811  -0.00356215  1
  Rh  Rh204  1  0.60111727  0.40176931  0.80927923  1
  Rh  Rh205  1  0.79757106  0.79056075  0.40306690  1
  Rh  Rh206  1  -0.01089457  0.20913392  0.00043413  1
  Rh  Rh207  1  -0.01712059  0.40643172  0.80748431  1
  Rh  Rh208  1  0.19555707  0.79552625  -0.00077915  1
  Rh  Rh209  1  -0.00689422  0.79001119  0.79528959  1
  Rh  Rh210  1  0.20392867  0.60198766  0.59989037  1
  Rh  Rh211  1  0.59663830  0.19845895  0.00191892  1
  Rh  Rh212  1  0.79751178  0.40070013  0.20051907  1
  Rh  Rh213  1  0.39456007  0.78988003  0.40403571  1
  Rh  Rh214  1  0.20801356  0.19503377  -0.00155662  1
  Rh  Rh215  1  0.59444787  -0.00077232  0.39403753  1
  Rh  Rh216  1  0.60887682  0.00151955  0.59757364  1
  Rh  Rh217  1  0.80120840  0.60340301  0.79975553  1
  Rh  Rh218  1  0.39667243  0.60155369  0.40598407  1
  Rh  Rh219  1  0.79278782  0.20322372  0.79042815  1
  Rh  Rh220  1  0.60235777  0.79519063  0.00466041  1
  Rh  Rh221  1  0.40407196  0.80600685  -0.00076524  1
  Rh  Rh222  1  0.00174018  0.78848062  0.60368881  1
  Rh  Rh223  1  0.40071296  0.19612167  0.19069927  1
  Rh  Rh224  1  0.20555121  0.19768735  0.40396279  1
  Rh  Rh225  1  0.20533320  0.80023938  0.59093010  1
  Rh  Rh226  1  0.40622514  0.59859903  0.00619290  1
  Rh  Rh227  1  0.20124162  0.00801842  0.79463285  1
  Rh  Rh228  1  0.78825659  0.60067052  0.00385830  1
  Rh  Rh229  1  0.60857664  0.79879119  0.40119714  1
  Rh  Rh230  1  0.59712872  0.00588217  0.80659080  1
  Rh  Rh231  1  -0.00934353  0.78908542  0.18907071  1
  Rh  Rh232  1  -0.01699624  0.20909977  0.40191233  1
  Rh  Rh233  1  0.59681107  0.19981130  0.20455980  1
  Rh  Rh234  1  0.00266512  0.20869112  0.19668099  1
  Rh  Rh235  1  0.20122237  0.39687010  0.59253988  1
  Rh  Rh236  1  0.61279449  0.59869236  0.38840317  1
  Rh  Rh237  1  0.80718224  0.79856093  0.19267713  1
  Rh  Rh238  1  0.20545323  0.79233071  0.81027198  1
  Rh  Rh239  1  0.00043026  0.20105928  0.60869575  1
  Rh  Rh240  1  0.41064949  0.00673394  -0.00896815  1
  Rh  Rh241  1  -0.00577391  0.59318305  0.39515263  1
  Rh  Rh242  1  0.40723158  0.80110918  0.19735909  1
  Rh  Rh243  1  0.60334812  -0.00594032  0.20384272  1
  Rh  Rh244  1  0.59543202  0.80289061  0.19843900  1
  Rh  Rh245  1  0.60598082  0.19672619  0.79703992  1
  Rh  Rh246  1  0.40032036  0.19708769  0.40947927  1
  Rh  Rh247  1  0.79263428  0.19040440  0.20530778  1
  Rh  Rh248  1  0.60596388  0.60175465  0.59277586  1
  Rh  Rh249  1  0.60768532  0.00686711  0.00091152  1
