# generated using pymatgen
data_ZrScNbPdRh
_symmetry_space_group_name_H-M   'P 1'
_cell_length_a   16.55648718
_cell_length_b   16.55895742
_cell_length_c   16.55889937
_cell_angle_alpha   89.97771200
_cell_angle_beta   90.01362490
_cell_angle_gamma   90.00454253
_symmetry_Int_Tables_number   1
_chemical_formula_structural   ZrScNbPdRh
_chemical_formula_sum   'Zr50 Sc50 Nb50 Pd50 Rh50'
_cell_volume   4539.75699898
_cell_formula_units_Z   50
loop_
 _symmetry_equiv_pos_site_id
 _symmetry_equiv_pos_as_xyz
  1  'x, y, z'
loop_
 _atom_site_type_symbol
 _atom_site_label
 _atom_site_symmetry_multiplicity
 _atom_site_fract_x
 _atom_site_fract_y
 _atom_site_fract_z
 _atom_site_occupancy
  Zr  Zr0  1  0.69720034  0.69464666  0.70323039  1
  Zr  Zr1  1  0.69546552  0.29746923  0.10393649  1
  Zr  Zr2  1  0.10042315  0.28343617  0.49820877  1
  Zr  Zr3  1  0.10964893  0.29397023  0.10485625  1
  Zr  Zr4  1  0.90753869  0.49258101  0.69904877  1
  Zr  Zr5  1  0.10529272  0.09909621  0.29313585  1
  Zr  Zr6  1  0.49642950  0.49236510  0.31527921  1
  Zr  Zr7  1  0.29871687  0.90743400  0.89813598  1
  Zr  Zr8  1  0.10282922  0.90159440  0.70219856  1
  Zr  Zr9  1  0.69450655  0.90741892  0.89987649  1
  Zr  Zr10  1  0.30650375  0.29748900  0.90064647  1
  Zr  Zr11  1  0.49190799  0.29794503  0.89722686  1
  Zr  Zr12  1  0.30200020  0.49642837  0.49950930  1
  Zr  Zr13  1  0.09990147  0.70481802  0.49538600  1
  Zr  Zr14  1  0.50048101  0.10252575  0.30325927  1
  Zr  Zr15  1  0.29525477  0.50247483  0.11103203  1
  Zr  Zr16  1  0.29822002  0.70153397  0.50598241  1
  Zr  Zr17  1  0.70270703  0.09881190  0.69403237  1
  Zr  Zr18  1  0.28723101  0.49660306  0.70214863  1
  Zr  Zr19  1  0.10296964  0.70023457  0.90472054  1
  Zr  Zr20  1  0.70752878  0.90175343  0.50248027  1
  Zr  Zr21  1  0.90632448  0.70167451  0.90801421  1
  Zr  Zr22  1  0.10339719  0.70329579  0.69682244  1
  Zr  Zr23  1  0.90088989  0.70890543  0.29820578  1
  Zr  Zr24  1  0.90203687  0.08964046  0.09514422  1
  Zr  Zr25  1  0.89963533  0.69788665  0.70259677  1
  Zr  Zr26  1  0.30538677  0.29770106  0.09983599  1
  Zr  Zr27  1  0.49843659  0.10821204  0.10683057  1
  Zr  Zr28  1  0.70464385  0.70185503  0.30268533  1
  Zr  Zr29  1  0.89174642  0.29803314  0.08740281  1
  Zr  Zr30  1  0.89872998  0.49666019  0.50136658  1
  Zr  Zr31  1  0.50208811  0.50425815  0.12062777  1
  Zr  Zr32  1  0.89985006  0.50572622  0.30373002  1
  Zr  Zr33  1  0.70743535  0.29532641  0.49772338  1
  Zr  Zr34  1  0.50359344  0.49904136  0.69547698  1
  Zr  Zr35  1  0.29012808  0.10503435  0.09223464  1
  Zr  Zr36  1  0.70082211  0.70522229  0.89950267  1
  Zr  Zr37  1  0.89462327  0.29540219  0.68511540  1
  Zr  Zr38  1  0.29809939  0.89191558  0.69981200  1
  Zr  Zr39  1  0.70371787  0.09858901  0.09644901  1
  Zr  Zr40  1  0.70424763  0.90772529  0.69763048  1
  Zr  Zr41  1  0.49499300  0.89849745  0.90208367  1
  Zr  Zr42  1  0.50335648  0.30071812  0.49767357  1
  Zr  Zr43  1  0.90862584  0.90722555  0.69787467  1
  Zr  Zr44  1  0.70364553  0.10697052  0.30029290  1
  Zr  Zr45  1  0.29539435  0.89702229  0.29605967  1
  Zr  Zr46  1  0.09654019  0.09058214  0.69146750  1
  Zr  Zr47  1  0.50096916  0.68620993  0.50126606  1
  Zr  Zr48  1  0.09517171  0.89831473  0.50402702  1
  Zr  Zr49  1  0.50575405  0.68612457  0.29756148  1
  Sc  Sc50  1  0.49635657  0.70698451  0.10420627  1
  Sc  Sc51  1  0.29537927  0.29504007  0.50508546  1
  Sc  Sc52  1  0.90339934  0.30112572  0.88739335  1
  Sc  Sc53  1  0.72789779  0.90623583  0.30709905  1
  Sc  Sc54  1  0.29112843  0.70200571  0.29839158  1
  Sc  Sc55  1  0.49178881  0.89804986  0.69978772  1
  Sc  Sc56  1  0.09894596  0.70275213  0.30277742  1
  Sc  Sc57  1  0.09576030  0.29486747  0.89786942  1
  Sc  Sc58  1  0.30256739  0.50107425  0.29692921  1
  Sc  Sc59  1  0.49871704  0.30588886  0.10201019  1
  Sc  Sc60  1  0.90401399  0.51242667  0.10259352  1
  Sc  Sc61  1  0.49918344  0.71012192  0.89998679  1
  Sc  Sc62  1  0.90526603  0.09872433  0.89876462  1
  Sc  Sc63  1  0.30052792  0.89044094  0.49826997  1
  Sc  Sc64  1  0.09982131  0.89900584  0.89206783  1
  Sc  Sc65  1  0.71052550  0.90251230  0.09025011  1
  Sc  Sc66  1  0.29470014  0.70221971  0.90316588  1
  Sc  Sc67  1  0.50418554  0.29620308  0.29802476  1
  Sc  Sc68  1  0.71014102  0.30916414  0.90490671  1
  Sc  Sc69  1  0.10044578  0.90696825  0.11324184  1
  Sc  Sc70  1  0.69769066  0.49105851  0.10124646  1
  Sc  Sc71  1  0.49932577  0.10302066  0.68655054  1
  Sc  Sc72  1  0.91235937  0.70406037  0.49885647  1
  Sc  Sc73  1  0.10324717  0.50850905  0.90359269  1
  Sc  Sc74  1  0.70197926  0.49866415  0.89480387  1
  Sc  Sc75  1  0.48931640  0.09210515  0.89981675  1
  Sc  Sc76  1  0.48693389  0.89285086  0.50165848  1
  Sc  Sc77  1  0.48999310  0.89859409  0.09603341  1
  Sc  Sc78  1  0.49542148  0.69606255  0.70002980  1
  Sc  Sc79  1  0.68652695  0.49331207  0.49867361  1
  Sc  Sc80  1  0.09475460  0.50966224  0.50597187  1
  Sc  Sc81  1  0.10057321  0.31249797  0.69978617  1
  Sc  Sc82  1  0.29621398  0.89652434  0.10151440  1
  Sc  Sc83  1  0.48868553  0.10712534  0.49915147  1
  Sc  Sc84  1  0.30192773  0.09502432  0.69126484  1
  Sc  Sc85  1  0.90058088  0.10224612  0.70224224  1
  Sc  Sc86  1  0.89412489  0.49422321  0.89528734  1
  Sc  Sc87  1  0.89925948  0.89617944  0.49511310  1
  Sc  Sc88  1  0.29920915  0.50166940  0.89481229  1
  Sc  Sc89  1  0.30752414  0.10238083  0.29597863  1
  Sc  Sc90  1  0.68697449  0.50089748  0.29934042  1
  Sc  Sc91  1  0.29334301  0.70336414  0.10329576  1
  Sc  Sc92  1  0.30345449  0.30538037  0.29643272  1
  Sc  Sc93  1  0.91323589  0.11494478  0.50640192  1
  Sc  Sc94  1  0.10861279  0.29155305  0.29779405  1
  Sc  Sc95  1  0.49920980  0.49053740  0.89687134  1
  Sc  Sc96  1  0.10055225  0.09474981  0.90102441  1
  Sc  Sc97  1  0.70603553  0.70916449  0.10696241  1
  Sc  Sc98  1  0.69604932  0.49999300  0.70518849  1
  Sc  Sc99  1  0.90475215  0.70871274  0.10178875  1
  Nb  Nb100  1  0.09769937  0.50220945  0.70366042  1
  Nb  Nb101  1  0.10731863  0.09916861  0.49595387  1
  Nb  Nb102  1  0.49484071  0.29720612  0.70022748  1
  Nb  Nb103  1  0.29369724  0.10319447  0.90010270  1
  Nb  Nb104  1  0.49677441  0.49657717  0.49888717  1
  Nb  Nb105  1  0.10270662  0.90121778  0.30117585  1
  Nb  Nb106  1  0.09955739  0.49625852  0.29752503  1
  Nb  Nb107  1  0.28796892  0.10560724  0.49721645  1
  Nb  Nb108  1  0.10217458  0.10624720  0.10318132  1
  Nb  Nb109  1  0.91323351  0.90507956  0.28732922  1
  Nb  Nb110  1  0.89162504  0.29552022  0.30827237  1
  Nb  Nb111  1  0.89871493  0.90182642  0.10087167  1
  Nb  Nb112  1  0.30482770  0.30459392  0.70399686  1
  Nb  Nb113  1  0.69125460  0.09548851  0.89478001  1
  Nb  Nb114  1  0.49503964  0.90277132  0.30351561  1
  Nb  Nb115  1  0.69446609  0.28830370  0.69512204  1
  Nb  Nb116  1  0.70409212  0.29885414  0.30540864  1
  Nb  Nb117  1  0.10441466  0.67929641  0.09036595  1
  Nb  Nb118  1  0.89926745  0.30546823  0.49442578  1
  Nb  Nb119  1  0.89804650  0.09324116  0.29372045  1
  Nb  Nb120  1  0.29566209  0.69735081  0.70289809  1
  Nb  Nb121  1  0.68703866  0.09855081  0.50241155  1
  Nb  Nb122  1  0.10109984  0.50028814  0.10424446  1
  Nb  Nb123  1  0.70384798  0.70364553  0.49960526  1
  Nb  Nb124  1  0.89920598  0.89730602  0.91160739  1
  Nb  Nb125  1  -0.01012741  0.19900594  0.20057672  1
  Nb  Nb126  1  0.59851448  0.60082527  0.00266090  1
  Nb  Nb127  1  0.79828425  0.60208154  0.40696926  1
  Nb  Nb128  1  0.80517894  0.39370597  0.20779893  1
  Nb  Nb129  1  0.79521328  0.60411658  -0.00195985  1
  Nb  Nb130  1  0.80371119  0.80724559  0.80430400  1
  Nb  Nb131  1  0.60152491  0.80484180  0.39963533  1
  Nb  Nb132  1  0.19182607  0.40166872  0.40071500  1
  Nb  Nb133  1  0.60102422  0.19761231  -0.00925222  1
  Nb  Nb134  1  -0.00303133  0.39284068  0.20241505  1
  Nb  Nb135  1  0.19804558  0.40014734  0.00629251  1
  Nb  Nb136  1  0.40378237  0.59906022  0.00493873  1
  Nb  Nb137  1  0.79873347  0.59989979  0.59592333  1
  Nb  Nb138  1  0.60429266  0.79699042  0.59444278  1
  Nb  Nb139  1  0.19804292  0.00187017  0.40107198  1
  Nb  Nb140  1  0.40265214  0.39814275  0.60357115  1
  Nb  Nb141  1  0.60150446  0.20036765  0.80039106  1
  Nb  Nb142  1  0.60104206  -0.00564581  0.20815283  1
  Nb  Nb143  1  0.20708040  0.19813212  0.79755352  1
  Nb  Nb144  1  0.00003451  0.39314097  0.39572686  1
  Nb  Nb145  1  0.00305607  0.59897136  0.79680899  1
  Nb  Nb146  1  0.60113790  0.81495187  0.21310104  1
  Nb  Nb147  1  0.59864022  -0.00502527  0.39851200  1
  Nb  Nb148  1  0.00352712  0.00399278  0.39221052  1
  Nb  Nb149  1  0.00621244  0.40267990  0.00831215  1
  Pd  Pd150  1  0.81265539  0.01194059  0.59026154  1
  Pd  Pd151  1  0.80944950  0.01189734  0.41075561  1
  Pd  Pd152  1  0.58775665  -0.00898804  0.59083181  1
  Pd  Pd153  1  0.40238376  0.59907593  0.80621526  1
  Pd  Pd154  1  0.00913424  -0.00648413  -0.00066737  1
  Pd  Pd155  1  0.80153637  0.79467017  0.60666231  1
  Pd  Pd156  1  0.19768547  0.59987696  0.59899557  1
  Pd  Pd157  1  0.58639937  0.00546738  0.79109828  1
  Pd  Pd158  1  0.60465975  0.38960104  0.79935332  1
  Pd  Pd159  1  0.39862103  0.00521875  0.79327423  1
  Pd  Pd160  1  0.20773513  -0.00807260  0.59240837  1
  Pd  Pd161  1  0.01026274  0.39410498  0.58968575  1
  Pd  Pd162  1  0.01145735  0.79330397  0.19146919  1
  Pd  Pd163  1  0.39827686  0.00089687  0.19419729  1
  Pd  Pd164  1  0.00620703  0.60476081  0.20440357  1
  Pd  Pd165  1  0.19426349  0.80765354  0.00508687  1
  Pd  Pd166  1  0.19941272  0.20344289  0.61429641  1
  Pd  Pd167  1  0.59784832  0.39993631  -0.00172380  1
  Pd  Pd168  1  0.59224715  0.00291419  0.00989074  1
  Pd  Pd169  1  0.79429786  0.39305998  0.78713223  1
  Pd  Pd170  1  0.39345605  0.59350872  0.60761006  1
  Pd  Pd171  1  0.39411548  -0.00083000  0.59094862  1
  Pd  Pd172  1  0.39335317  0.20770269  0.39941249  1
  Pd  Pd173  1  0.39331166  0.00206345  0.40812493  1
  Pd  Pd174  1  0.38966259  0.60392106  0.39575230  1
  Pd  Pd175  1  0.19440279  0.39387964  0.81187890  1
  Pd  Pd176  1  0.79170879  0.59253466  0.19793332  1
  Pd  Pd177  1  0.39462476  0.41285240  0.00698336  1
  Pd  Pd178  1  0.01262485  0.80770687  0.01240394  1
  Pd  Pd179  1  0.80236720  0.18739303  0.40964368  1
  Pd  Pd180  1  0.60047829  0.79882265  0.01267310  1
  Pd  Pd181  1  0.60183683  0.80677273  0.78862654  1
  Pd  Pd182  1  0.40205299  0.79585601  0.20577008  1
  Pd  Pd183  1  0.78841414  0.40557403  0.60454486  1
  Pd  Pd184  1  0.40329831  0.78837180  0.39365019  1
  Pd  Pd185  1  0.00356275  0.20266293  0.00220170  1
  Pd  Pd186  1  -0.00065058  0.19681614  0.38972414  1
  Pd  Pd187  1  0.58924789  0.59961410  0.81057409  1
  Pd  Pd188  1  -0.00335511  0.79866097  0.79986374  1
  Pd  Pd189  1  0.39522860  0.00366270  0.00685577  1
  Pd  Pd190  1  0.59977981  0.39426785  0.60099057  1
  Pd  Pd191  1  0.19187065  -0.00504331  0.00045009  1
  Pd  Pd192  1  0.39957899  0.18712054  0.79294566  1
  Pd  Pd193  1  0.00927087  0.19791508  0.79007192  1
  Pd  Pd194  1  0.79516971  0.19182625  -0.01493374  1
  Pd  Pd195  1  0.79437995  0.20067315  0.80430420  1
  Pd  Pd196  1  0.80439726  0.20170648  0.19699767  1
  Pd  Pd197  1  0.20007593  0.59327990  0.39635014  1
  Pd  Pd198  1  0.80945985  -0.00291741  0.80743668  1
  Pd  Pd199  1  0.39309773  0.79419925  0.80272462  1
  Rh  Rh200  1  0.60751320  0.61191753  0.18947671  1
  Rh  Rh201  1  -0.00308549  -0.00103542  0.80558270  1
  Rh  Rh202  1  0.80856417  0.79645027  0.39833113  1
  Rh  Rh203  1  -0.00771964  0.59033699  -0.00712439  1
  Rh  Rh204  1  0.19413578  0.60595461  0.79881213  1
  Rh  Rh205  1  -0.00252100  0.59832681  0.39775103  1
  Rh  Rh206  1  0.19633994  0.20456141  -0.01199339  1
  Rh  Rh207  1  0.79814287  0.19408720  0.59209878  1
  Rh  Rh208  1  0.19701949  0.40123056  0.20371079  1
  Rh  Rh209  1  -0.00321896  0.00122020  0.59029689  1
  Rh  Rh210  1  0.39305007  0.20665197  0.59933855  1
  Rh  Rh211  1  0.40554840  0.39840626  0.20607233  1
  Rh  Rh212  1  0.80102082  0.81181727  0.19849808  1
  Rh  Rh213  1  0.20788969  0.00373685  0.20251109  1
  Rh  Rh214  1  -0.00337060  0.60358135  0.60782294  1
  Rh  Rh215  1  0.40296383  0.79053214  0.60478652  1
  Rh  Rh216  1  0.20476829  0.79821395  0.80236241  1
  Rh  Rh217  1  0.60142942  0.39231883  0.39860436  1
  Rh  Rh218  1  0.18987221  0.79168337  0.19405412  1
  Rh  Rh219  1  0.21276136  0.59139895  0.00140299  1
  Rh  Rh220  1  0.19438871  0.60472294  0.20646877  1
  Rh  Rh221  1  0.39856887  0.20440662  0.19965070  1
  Rh  Rh222  1  0.40058588  0.40936576  0.78949638  1
  Rh  Rh223  1  0.20875010  0.19570269  0.20483831  1
  Rh  Rh224  1  0.79949164  0.40922198  0.39393675  1
  Rh  Rh225  1  -0.00179653  0.81090148  0.39404427  1
  Rh  Rh226  1  0.39402582  0.60602479  0.19838626  1
  Rh  Rh227  1  0.80338556  0.00297210  -0.00831239  1
  Rh  Rh228  1  0.80150150  0.79758858  -0.00227892  1
  Rh  Rh229  1  0.19832555  0.80622243  0.39968332  1
  Rh  Rh230  1  0.60720800  0.60229987  0.40774233  1
  Rh  Rh231  1  0.39247822  0.79575126  -0.00374201  1
  Rh  Rh232  1  0.59801721  0.20188171  0.59911242  1
  Rh  Rh233  1  0.60240645  0.19929552  0.19792252  1
  Rh  Rh234  1  0.20085081  0.40054876  0.59259172  1
  Rh  Rh235  1  0.00015167  0.80145016  0.60204359  1
  Rh  Rh236  1  0.60705873  0.60264872  0.59516406  1
  Rh  Rh237  1  0.20039205  0.80032059  0.60081512  1
  Rh  Rh238  1  0.80875138  0.60607033  0.80189989  1
  Rh  Rh239  1  0.40696163  0.19472613  0.00132628  1
  Rh  Rh240  1  0.00760830  0.40948600  0.81220165  1
  Rh  Rh241  1  0.79580206  -0.00342601  0.19332710  1
  Rh  Rh242  1  0.60498429  0.39090812  0.21101251  1
  Rh  Rh243  1  0.00571271  0.20479644  0.60719706  1
  Rh  Rh244  1  0.60200374  0.19705083  0.40318339  1
  Rh  Rh245  1  0.80936595  0.41577494  0.01091106  1
  Rh  Rh246  1  0.00278138  0.00720138  0.19881920  1
  Rh  Rh247  1  0.39221491  0.39387947  0.40692914  1
  Rh  Rh248  1  0.20302338  0.00766513  0.79818737  1
  Rh  Rh249  1  0.20864702  0.20012687  0.39137652  1
