# generated using pymatgen
data_ZrScNbPdRh
_symmetry_space_group_name_H-M   'P 1'
_cell_length_a   16.55227226
_cell_length_b   16.55633389
_cell_length_c   16.55587998
_cell_angle_alpha   89.96236846
_cell_angle_beta   89.99512687
_cell_angle_gamma   90.01507100
_symmetry_Int_Tables_number   1
_chemical_formula_structural   ZrScNbPdRh
_chemical_formula_sum   'Zr50 Sc50 Nb50 Pd50 Rh50'
_cell_volume   4537.05408429
_cell_formula_units_Z   50
loop_
 _symmetry_equiv_pos_site_id
 _symmetry_equiv_pos_as_xyz
  1  'x, y, z'
loop_
 _atom_site_type_symbol
 _atom_site_label
 _atom_site_symmetry_multiplicity
 _atom_site_fract_x
 _atom_site_fract_y
 _atom_site_fract_z
 _atom_site_occupancy
  Zr  Zr0  1  0.29960449  0.49436735  0.70516064  1
  Zr  Zr1  1  0.10193057  0.10897264  0.08848521  1
  Zr  Zr2  1  0.30908005  0.50038055  0.10271457  1
  Zr  Zr3  1  0.68907806  0.09996520  0.69369443  1
  Zr  Zr4  1  0.89636943  0.69597464  0.70082049  1
  Zr  Zr5  1  0.69344805  0.50601559  0.69894700  1
  Zr  Zr6  1  0.10523071  0.50740834  0.70340402  1
  Zr  Zr7  1  0.30017775  0.09636833  0.90692156  1
  Zr  Zr8  1  0.70553401  0.89598515  0.91554074  1
  Zr  Zr9  1  0.90162548  0.29961820  0.51781585  1
  Zr  Zr10  1  0.49742773  0.30348261  0.09736402  1
  Zr  Zr11  1  0.89651717  0.10004614  0.50209746  1
  Zr  Zr12  1  0.70003210  0.89703601  0.69971314  1
  Zr  Zr13  1  0.29924342  0.28877743  0.09907049  1
  Zr  Zr14  1  0.50558721  0.70230469  0.49482101  1
  Zr  Zr15  1  0.70004337  0.69852513  0.70254037  1
  Zr  Zr16  1  0.49764269  0.10907550  0.09280974  1
  Zr  Zr17  1  0.30224768  0.69948707  0.49560954  1
  Zr  Zr18  1  0.69827346  0.30151554  0.69415042  1
  Zr  Zr19  1  0.50576518  0.09948572  0.50522717  1
  Zr  Zr20  1  0.68753068  0.30449009  0.89933671  1
  Zr  Zr21  1  0.90338406  0.49064707  0.70536274  1
  Zr  Zr22  1  0.69694603  0.89016639  0.10280310  1
  Zr  Zr23  1  0.50622544  0.89680240  0.30167792  1
  Zr  Zr24  1  0.69864995  0.50368358  0.48488114  1
  Zr  Zr25  1  0.90680217  0.09426729  0.90758261  1
  Zr  Zr26  1  0.11194086  0.70155943  0.50215569  1
  Zr  Zr27  1  0.30137077  0.50144931  0.90175320  1
  Zr  Zr28  1  0.30087432  0.89664350  0.50278882  1
  Zr  Zr29  1  0.49531546  0.48761498  0.90566336  1
  Zr  Zr30  1  0.69023712  0.89206894  0.49551201  1
  Zr  Zr31  1  0.10768017  0.69840820  0.10413465  1
  Zr  Zr32  1  0.10369414  0.30134760  0.30516885  1
  Zr  Zr33  1  0.30220998  0.70849625  0.90922774  1
  Zr  Zr34  1  0.10121418  0.50162310  0.30050659  1
  Zr  Zr35  1  0.90339719  0.50104991  0.10341090  1
  Zr  Zr36  1  0.09923105  0.10085970  0.51008633  1
  Zr  Zr37  1  0.10174608  0.49998371  0.89587908  1
  Zr  Zr38  1  0.10004166  0.68900995  0.90363624  1
  Zr  Zr39  1  0.89941062  0.49606186  0.49902523  1
  Zr  Zr40  1  0.49786808  0.49917797  0.70683018  1
  Zr  Zr41  1  0.10559703  0.90301116  0.49910580  1
  Zr  Zr42  1  0.09877781  0.29868688  0.91622971  1
  Zr  Zr43  1  0.49449478  0.30219307  0.49598406  1
  Zr  Zr44  1  0.49572471  0.89905966  0.49480545  1
  Zr  Zr45  1  0.50357557  0.90330653  0.69592518  1
  Zr  Zr46  1  0.70803255  0.71025849  0.29770507  1
  Zr  Zr47  1  0.69183320  0.49893285  0.89459070  1
  Zr  Zr48  1  0.89093822  0.89562744  0.29936520  1
  Zr  Zr49  1  0.69823587  0.69694310  0.50545394  1
  Sc  Sc50  1  0.10135853  0.49232384  0.49898810  1
  Sc  Sc51  1  0.89163184  0.30172012  0.30016114  1
  Sc  Sc52  1  0.30027021  0.30321915  0.89676859  1
  Sc  Sc53  1  0.29623803  0.70041641  0.69070524  1
  Sc  Sc54  1  0.09734849  0.91228991  0.90054114  1
  Sc  Sc55  1  0.50171819  0.69949581  0.69965509  1
  Sc  Sc56  1  0.10332530  0.30394413  0.69611038  1
  Sc  Sc57  1  0.68857818  0.29091202  0.10597257  1
  Sc  Sc58  1  0.30046331  0.29592533  0.30817338  1
  Sc  Sc59  1  0.29876597  0.10610734  0.30646848  1
  Sc  Sc60  1  0.69615563  0.09516196  0.10062176  1
  Sc  Sc61  1  0.49557468  0.70922109  0.10583525  1
  Sc  Sc62  1  0.29918150  0.69720930  0.10271619  1
  Sc  Sc63  1  0.89742637  0.70008330  0.90114305  1
  Sc  Sc64  1  0.89986904  0.89348033  0.49279442  1
  Sc  Sc65  1  0.50777447  0.30338200  0.29512296  1
  Sc  Sc66  1  0.49902156  0.10034791  0.70124533  1
  Sc  Sc67  1  0.90081076  0.50548512  0.31025303  1
  Sc  Sc68  1  0.09887901  0.50518063  0.09476787  1
  Sc  Sc69  1  0.29928769  0.49121503  0.49451889  1
  Sc  Sc70  1  0.49184441  0.70291153  0.90167561  1
  Sc  Sc71  1  0.48816505  0.70126177  0.29841102  1
  Sc  Sc72  1  0.30308499  0.90099752  0.31121614  1
  Sc  Sc73  1  0.29767795  0.89050994  0.08567001  1
  Sc  Sc74  1  0.49299828  0.29338958  0.70138464  1
  Sc  Sc75  1  0.10301030  0.09723589  0.89633116  1
  Sc  Sc76  1  0.68919779  0.09754527  0.90703688  1
  Sc  Sc77  1  0.49216068  0.89926478  0.90053608  1
  Sc  Sc78  1  0.29734918  0.09984989  0.49770694  1
  Sc  Sc79  1  0.09725589  0.89347764  0.09685102  1
  Sc  Sc80  1  0.91186393  0.70269607  0.09683086  1
  Sc  Sc81  1  0.90408901  0.90364920  0.69903706  1
  Sc  Sc82  1  0.91039016  0.10160382  0.69016706  1
  Sc  Sc83  1  0.10178137  0.91571264  0.69839569  1
  Sc  Sc84  1  0.50730845  0.89782531  0.10007118  1
  Sc  Sc85  1  0.89258941  0.09948525  0.10096141  1
  Sc  Sc86  1  0.11170004  0.10103464  0.30769398  1
  Sc  Sc87  1  0.70426304  0.30203146  0.49611240  1
  Sc  Sc88  1  0.10506953  0.30205933  0.50324346  1
  Sc  Sc89  1  0.30068002  0.29927151  0.70081528  1
  Sc  Sc90  1  0.69802222  0.10824294  0.49505864  1
  Sc  Sc91  1  0.10309163  0.10304823  0.70090116  1
  Sc  Sc92  1  0.89674535  0.90373905  0.08713632  1
  Sc  Sc93  1  0.29818809  0.10682343  0.70925349  1
  Sc  Sc94  1  0.09996186  0.88926093  0.30190263  1
  Sc  Sc95  1  0.49725915  0.10117936  0.90107048  1
  Sc  Sc96  1  0.51148922  0.10017014  0.30279607  1
  Sc  Sc97  1  0.30769822  0.89942249  0.70129679  1
  Sc  Sc98  1  0.30522911  0.50514286  0.29718349  1
  Sc  Sc99  1  0.89345006  0.69746384  0.48951222  1
  Nb  Nb100  1  0.89664146  0.29838907  0.70196359  1
  Nb  Nb101  1  0.90183701  0.49814969  0.90011721  1
  Nb  Nb102  1  0.50836980  0.49903040  0.29918052  1
  Nb  Nb103  1  0.69979410  0.49215771  0.29783909  1
  Nb  Nb104  1  0.90523965  0.29942593  0.09755708  1
  Nb  Nb105  1  0.69824119  0.90478935  0.29485737  1
  Nb  Nb106  1  0.90128150  0.90626995  0.89769411  1
  Nb  Nb107  1  0.70092844  0.30060648  0.29569059  1
  Nb  Nb108  1  0.50468157  0.50270476  0.49108611  1
  Nb  Nb109  1  0.29646169  0.89491862  0.89377828  1
  Nb  Nb110  1  0.89493297  0.10001881  0.29844843  1
  Nb  Nb111  1  0.10124587  0.69773761  0.29761665  1
  Nb  Nb112  1  0.71507642  0.11051639  0.29103112  1
  Nb  Nb113  1  0.69686679  0.70050693  0.09431444  1
  Nb  Nb114  1  0.09632891  0.30009144  0.10454358  1
  Nb  Nb115  1  0.30195056  0.09815340  0.10297436  1
  Nb  Nb116  1  0.90780719  0.70513004  0.30415740  1
  Nb  Nb117  1  0.69908627  0.70249207  0.90675482  1
  Nb  Nb118  1  0.50146859  0.49490092  0.11008411  1
  Nb  Nb119  1  0.49684758  0.29753311  0.90329661  1
  Nb  Nb120  1  0.28996336  0.69278059  0.29256843  1
  Nb  Nb121  1  0.29860283  0.29684488  0.49837934  1
  Nb  Nb122  1  0.89775970  0.30585038  0.89968893  1
  Nb  Nb123  1  0.69786993  0.49812737  0.09862646  1
  Nb  Nb124  1  0.10152147  0.69740910  0.70007635  1
  Nb  Nb125  1  0.79611149  0.59946809  0.19744851  1
  Nb  Nb126  1  0.00649087  0.79316764  0.60316095  1
  Nb  Nb127  1  0.19709884  0.39518468  0.19640813  1
  Nb  Nb128  1  0.19415972  0.80101866  0.80032553  1
  Nb  Nb129  1  0.00276792  0.60274305  0.60218154  1
  Nb  Nb130  1  -0.00354488  0.00538036  0.39276306  1
  Nb  Nb131  1  0.39490690  0.00311560  0.19579850  1
  Nb  Nb132  1  0.80255213  0.20965734  -0.00502599  1
  Nb  Nb133  1  0.59257901  0.40738780  0.59322153  1
  Nb  Nb134  1  0.80339678  0.19947102  0.80214268  1
  Nb  Nb135  1  0.79987021  0.00483825  0.79921296  1
  Nb  Nb136  1  0.40518088  0.59161582  0.59249365  1
  Nb  Nb137  1  -0.00817518  0.20835651  0.80399829  1
  Nb  Nb138  1  0.79352839  0.59573863  0.00283311  1
  Nb  Nb139  1  -0.00117458  0.19814461  0.20336173  1
  Nb  Nb140  1  0.60003240  0.59824979  0.00697309  1
  Nb  Nb141  1  0.00298714  0.00671299  0.20548513  1
  Nb  Nb142  1  0.80043162  0.40014915  0.00179346  1
  Nb  Nb143  1  0.00552200  0.79890955  0.79672158  1
  Nb  Nb144  1  0.79527191  0.40221301  0.19546709  1
  Nb  Nb145  1  0.60700883  0.79954489  0.80480009  1
  Nb  Nb146  1  0.60426755  0.59504623  0.19819675  1
  Nb  Nb147  1  0.79403964  -0.00133869  0.60033564  1
  Nb  Nb148  1  0.20353643  0.00209971  0.19547739  1
  Nb  Nb149  1  -0.00420505  0.19508318  0.39793110  1
  Pd  Pd150  1  0.59655055  0.00571632  0.19783006  1
  Pd  Pd151  1  0.40249793  0.40343725  0.59810186  1
  Pd  Pd152  1  0.78967873  0.40911775  0.59848017  1
  Pd  Pd153  1  0.39282239  0.39440481  0.20890680  1
  Pd  Pd154  1  0.00262701  0.80251539  -0.01139066  1
  Pd  Pd155  1  0.40900612  0.60323857  0.00998850  1
  Pd  Pd156  1  0.20406007  0.79787381  0.39213471  1
  Pd  Pd157  1  -0.00118132  0.40708848  0.00071116  1
  Pd  Pd158  1  -0.00611615  0.38979716  0.40155001  1
  Pd  Pd159  1  0.40339569  -0.00759866  0.00560184  1
  Pd  Pd160  1  -0.00362052  0.80744942  0.19941297  1
  Pd  Pd161  1  0.80457046  0.20806913  0.40205159  1
  Pd  Pd162  1  0.80941565  0.79467503  0.18883928  1
  Pd  Pd163  1  0.80850210  0.80469583  0.59562452  1
  Pd  Pd164  1  0.60377768  0.60947557  0.38519732  1
  Pd  Pd165  1  0.00678204  0.60667067  0.40773040  1
  Pd  Pd166  1  0.19179253  0.20621551  0.80510177  1
  Pd  Pd167  1  0.79470320  0.39806986  0.80253207  1
  Pd  Pd168  1  0.21359309  0.60921039  0.80238312  1
  Pd  Pd169  1  -0.00111869  0.39614236  0.20666821  1
  Pd  Pd170  1  0.40020403  0.40165454  0.39048841  1
  Pd  Pd171  1  0.39426274  0.60947748  0.79334277  1
  Pd  Pd172  1  0.59800537  0.20060657  0.79956119  1
  Pd  Pd173  1  0.19488399  0.19869452  0.20157795  1
  Pd  Pd174  1  0.39801570  0.00292617  0.79880902  1
  Pd  Pd175  1  0.59132934  0.61003754  0.81188180  1
  Pd  Pd176  1  0.20093574  0.59367167  0.40154986  1
  Pd  Pd177  1  0.40613539  0.19581405  0.39692917  1
  Pd  Pd178  1  0.20773855  0.80894713  0.20280663  1
  Pd  Pd179  1  0.39409301  0.19541685  0.59997484  1
  Pd  Pd180  1  0.20303190  0.40023603  0.59970243  1
  Pd  Pd181  1  0.80604885  0.59251366  0.59784135  1
  Pd  Pd182  1  0.80323758  0.80689551  0.80571194  1
  Pd  Pd183  1  0.60318608  -0.00898499  0.81110291  1
  Pd  Pd184  1  0.21257313  0.00376959  0.60791507  1
  Pd  Pd185  1  0.19823321  -0.00445265  0.00413506  1
  Pd  Pd186  1  0.00979720  0.39278287  0.79867663  1
  Pd  Pd187  1  0.40166669  0.00766832  0.39356646  1
  Pd  Pd188  1  0.60412280  0.20513641  0.39609878  1
  Pd  Pd189  1  0.38956464  0.81023996  0.20141074  1
  Pd  Pd190  1  0.20454511  0.40285943  0.00819445  1
  Pd  Pd191  1  0.80291914  0.59709765  0.80825933  1
  Pd  Pd192  1  0.61245984  0.00676392  0.39563530  1
  Pd  Pd193  1  0.80123739  -0.00278622  0.19313171  1
  Pd  Pd194  1  0.40631996  0.19456012  0.21038393  1
  Pd  Pd195  1  0.40440561  0.79203442  0.60200106  1
  Pd  Pd196  1  0.39839198  0.59947141  0.39838773  1
  Pd  Pd197  1  0.39576234  0.00912702  0.60318997  1
  Pd  Pd198  1  0.79515770  -0.00283424  0.40415274  1
  Pd  Pd199  1  -0.00323601  0.60313872  0.20426712  1
  Rh  Rh200  1  0.59975472  0.19467683  0.20343980  1
  Rh  Rh201  1  0.79566506  0.19137292  0.60780663  1
  Rh  Rh202  1  0.00601583  0.79771683  0.40277923  1
  Rh  Rh203  1  0.40046289  0.19988674  0.80690241  1
  Rh  Rh204  1  0.00439755  -0.00002080  0.00940697  1
  Rh  Rh205  1  0.19452893  0.81167142  0.61117692  1
  Rh  Rh206  1  0.79804490  0.60360602  0.39088792  1
  Rh  Rh207  1  0.60162927  0.39217843  0.40206484  1
  Rh  Rh208  1  0.20641292  0.19994195  -0.00472145  1
  Rh  Rh209  1  0.80107900  0.39613369  0.39531822  1
  Rh  Rh210  1  0.80256812  0.20810574  0.19002710  1
  Rh  Rh211  1  0.60141234  0.20134122  0.00006906  1
  Rh  Rh212  1  -0.00559705  0.00514840  0.79853972  1
  Rh  Rh213  1  0.59496233  0.79803036  0.60698088  1
  Rh  Rh214  1  0.39855841  0.79973320  0.79730375  1
  Rh  Rh215  1  0.19584660  0.20095407  0.41244506  1
  Rh  Rh216  1  0.20467385  0.58998567  0.59609193  1
  Rh  Rh217  1  0.19022845  0.80102457  -0.01035379  1
  Rh  Rh218  1  -0.00989045  -0.01309199  0.58621389  1
  Rh  Rh219  1  0.60233594  -0.00254204  0.59160409  1
  Rh  Rh220  1  0.39528397  0.20306117  -0.00710259  1
  Rh  Rh221  1  0.00725573  0.20706232  0.60413181  1
  Rh  Rh222  1  0.59097685  0.79458743  -0.00644113  1
  Rh  Rh223  1  0.80942480  0.79392915  0.00207333  1
  Rh  Rh224  1  -0.00629131  0.19916385  0.00054591  1
  Rh  Rh225  1  0.20682435  -0.00505308  0.79904455  1
  Rh  Rh226  1  0.19713648  0.39611760  0.80297120  1
  Rh  Rh227  1  0.60354307  0.40010659  0.20051200  1
  Rh  Rh228  1  0.00446942  0.40548488  0.60524747  1
  Rh  Rh229  1  0.79504791  0.80105752  0.40124766  1
  Rh  Rh230  1  0.58981976  0.39068278  0.78877123  1
  Rh  Rh231  1  0.59204907  0.59396836  0.59773034  1
  Rh  Rh232  1  0.20570286  0.20280550  0.59929128  1
  Rh  Rh233  1  0.40806383  0.60000644  0.20038072  1
  Rh  Rh234  1  0.40338080  0.80368814  0.00279234  1
  Rh  Rh235  1  0.20532305  0.59645340  0.00412791  1
  Rh  Rh236  1  0.19657607  -0.00177787  0.39671578  1
  Rh  Rh237  1  0.59339378  -0.00319420  0.00295666  1
  Rh  Rh238  1  0.20672544  0.39996640  0.39256588  1
  Rh  Rh239  1  0.19792666  0.59123099  0.19730275  1
  Rh  Rh240  1  0.59558243  0.21258402  0.59273302  1
  Rh  Rh241  1  0.39609034  0.39432830  0.00151552  1
  Rh  Rh242  1  -0.00565393  0.59632738  -0.00444677  1
  Rh  Rh243  1  0.79548520  0.00809514  -0.00267828  1
  Rh  Rh244  1  0.59930817  0.79416963  0.20555062  1
  Rh  Rh245  1  0.40028732  0.39162480  0.80339698  1
  Rh  Rh246  1  -0.00774678  0.60303060  0.79897924  1
  Rh  Rh247  1  0.59793988  0.39934294  0.00493322  1
  Rh  Rh248  1  0.39297059  0.79316911  0.39398759  1
  Rh  Rh249  1  0.60266967  0.79523735  0.39088995  1
