# generated using pymatgen
data_ZrScNbPdRh
_symmetry_space_group_name_H-M   'P 1'
_cell_length_a   16.55428092
_cell_length_b   16.55519344
_cell_length_c   16.55593762
_cell_angle_alpha   90.00176439
_cell_angle_beta   90.01331882
_cell_angle_gamma   89.99686359
_symmetry_Int_Tables_number   1
_chemical_formula_structural   ZrScNbPdRh
_chemical_formula_sum   'Zr50 Sc50 Nb50 Pd50 Rh50'
_cell_volume   4537.30892197
_cell_formula_units_Z   50
loop_
 _symmetry_equiv_pos_site_id
 _symmetry_equiv_pos_as_xyz
  1  'x, y, z'
loop_
 _atom_site_type_symbol
 _atom_site_label
 _atom_site_symmetry_multiplicity
 _atom_site_fract_x
 _atom_site_fract_y
 _atom_site_fract_z
 _atom_site_occupancy
  Zr  Zr0  1  0.91130401  0.49862402  0.69533113  1
  Zr  Zr1  1  0.10767091  0.50712215  0.70276769  1
  Zr  Zr2  1  0.49870133  0.30628421  0.70287862  1
  Zr  Zr3  1  0.09541083  0.29309761  0.90759137  1
  Zr  Zr4  1  0.29806237  0.09340265  0.70260945  1
  Zr  Zr5  1  0.09482902  0.09718656  0.50748771  1
  Zr  Zr6  1  0.49674070  0.10304176  0.29913648  1
  Zr  Zr7  1  0.89389643  0.10113456  0.30414107  1
  Zr  Zr8  1  0.10572374  0.70412714  0.70359741  1
  Zr  Zr9  1  0.09321704  0.49881735  0.09092847  1
  Zr  Zr10  1  0.89847930  0.68980500  0.49706447  1
  Zr  Zr11  1  0.10007236  0.71164857  0.30260057  1
  Zr  Zr12  1  0.90111506  0.89326794  0.29469690  1
  Zr  Zr13  1  0.50140820  0.10075666  0.50134173  1
  Zr  Zr14  1  0.28328614  0.89643750  0.29022942  1
  Zr  Zr15  1  0.70077592  0.70506140  0.29960925  1
  Zr  Zr16  1  0.10153383  0.30071847  0.48720663  1
  Zr  Zr17  1  0.29840358  0.49426337  0.69567332  1
  Zr  Zr18  1  0.50307547  0.70709613  0.08723923  1
  Zr  Zr19  1  0.70474160  0.50410085  0.09259770  1
  Zr  Zr20  1  0.89595314  0.70187672  0.10041407  1
  Zr  Zr21  1  0.70225355  0.70574724  0.70612547  1
  Zr  Zr22  1  0.70623028  0.70215666  0.49787625  1
  Zr  Zr23  1  0.90582509  0.50570763  0.90989366  1
  Zr  Zr24  1  0.30739134  0.50058908  0.30054756  1
  Zr  Zr25  1  0.49525957  0.69898104  0.49789835  1
  Zr  Zr26  1  0.70209962  0.69897008  0.10122241  1
  Zr  Zr27  1  0.69776259  0.10908891  0.30187471  1
  Zr  Zr28  1  0.69426041  0.69944068  0.90676263  1
  Zr  Zr29  1  0.69404530  0.49126989  0.29028705  1
  Zr  Zr30  1  0.49955950  0.70135127  0.89987823  1
  Zr  Zr31  1  0.50557559  0.09903653  0.91155620  1
  Zr  Zr32  1  0.49603890  0.49889045  0.69675591  1
  Zr  Zr33  1  0.89263716  0.70088735  0.69758032  1
  Zr  Zr34  1  0.69865349  0.29058396  0.69998554  1
  Zr  Zr35  1  0.50323458  0.69084971  0.70068146  1
  Zr  Zr36  1  0.71171856  0.30293375  0.10227129  1
  Zr  Zr37  1  0.70848139  0.90897493  0.88816927  1
  Zr  Zr38  1  0.70169671  0.10115016  0.50190425  1
  Zr  Zr39  1  0.09647322  0.89650799  0.50607003  1
  Zr  Zr40  1  0.49618135  0.69918958  0.30461274  1
  Zr  Zr41  1  0.89725700  0.89887055  0.49918445  1
  Zr  Zr42  1  0.49946925  0.49910621  0.30406734  1
  Zr  Zr43  1  0.30040382  0.30736235  0.50155641  1
  Zr  Zr44  1  0.50906731  0.49767569  0.89405368  1
  Zr  Zr45  1  0.29803292  0.69808862  0.30646718  1
  Zr  Zr46  1  0.90721544  0.29518646  0.50451700  1
  Zr  Zr47  1  0.69986805  0.89926367  0.48970080  1
  Zr  Zr48  1  0.29635012  0.10293462  0.90737503  1
  Zr  Zr49  1  0.50622498  0.10375837  0.70325008  1
  Sc  Sc50  1  0.30424110  0.30651454  0.30840615  1
  Sc  Sc51  1  0.49363280  0.90125252  0.31025164  1
  Sc  Sc52  1  0.10751763  0.90636448  0.70198971  1
  Sc  Sc53  1  0.90538300  0.49864755  0.30542043  1
  Sc  Sc54  1  0.10741317  0.09321767  0.30016899  1
  Sc  Sc55  1  0.90235195  0.10183535  0.50600717  1
  Sc  Sc56  1  0.09461873  0.90080637  0.11184527  1
  Sc  Sc57  1  0.89720585  0.09469844  0.09161734  1
  Sc  Sc58  1  0.10257349  0.51035451  0.89799983  1
  Sc  Sc59  1  0.90251853  0.89847784  0.09547745  1
  Sc  Sc60  1  0.69832233  0.10824544  0.08998336  1
  Sc  Sc61  1  0.49436034  0.90614799  0.08853757  1
  Sc  Sc62  1  0.49595475  0.30213324  0.09126884  1
  Sc  Sc63  1  0.10667152  0.69688142  0.49698785  1
  Sc  Sc64  1  0.29718589  0.69556356  0.68981315  1
  Sc  Sc65  1  0.09906239  0.49716209  0.31510011  1
  Sc  Sc66  1  0.29955704  0.10058853  0.49257034  1
  Sc  Sc67  1  0.29441738  0.50163496  0.49945688  1
  Sc  Sc68  1  0.29782154  0.69471389  0.90063697  1
  Sc  Sc69  1  0.70381322  0.10277441  0.90334108  1
  Sc  Sc70  1  0.29586990  0.90154065  0.09795007  1
  Sc  Sc71  1  0.29814284  0.09018207  0.29816753  1
  Sc  Sc72  1  0.49903014  0.49678912  0.10318544  1
  Sc  Sc73  1  0.50709261  0.89911138  0.90668455  1
  Sc  Sc74  1  0.50046188  0.29877212  0.90275020  1
  Sc  Sc75  1  0.09141782  0.31541555  0.70370048  1
  Sc  Sc76  1  0.68631009  0.49860120  0.70673849  1
  Sc  Sc77  1  0.89827446  0.09602024  0.89864924  1
  Sc  Sc78  1  0.29828274  0.09229500  0.09499793  1
  Sc  Sc79  1  0.30913576  0.29594042  0.90524346  1
  Sc  Sc80  1  0.50741868  0.90694934  0.69582104  1
  Sc  Sc81  1  0.69428141  0.29441653  0.50197961  1
  Sc  Sc82  1  0.09151379  0.09069769  0.89661516  1
  Sc  Sc83  1  0.09386691  0.49950497  0.50127972  1
  Sc  Sc84  1  0.70463090  0.89868078  0.08830756  1
  Sc  Sc85  1  0.69549495  0.50154030  0.49552649  1
  Sc  Sc86  1  0.29922629  0.69835280  0.09114736  1
  Sc  Sc87  1  0.69727980  0.09636185  0.70659689  1
  Sc  Sc88  1  0.50015176  0.30690259  0.49848223  1
  Sc  Sc89  1  0.90551482  0.10660381  0.69818204  1
  Sc  Sc90  1  0.49795826  0.89891350  0.49794629  1
  Sc  Sc91  1  0.30921367  0.49839512  0.09683886  1
  Sc  Sc92  1  0.30360450  0.89128363  0.50758109  1
  Sc  Sc93  1  0.29730804  0.50412505  0.89947003  1
  Sc  Sc94  1  0.29934060  0.90342423  0.90499909  1
  Sc  Sc95  1  0.89908299  0.70274379  0.30182607  1
  Sc  Sc96  1  0.09996851  0.09869326  0.09026421  1
  Sc  Sc97  1  0.89716209  0.49785572  0.10004391  1
  Sc  Sc98  1  0.09773130  0.70329312  0.09565157  1
  Sc  Sc99  1  0.50549642  0.30828947  0.30125726  1
  Nb  Nb100  1  0.89852423  0.30084557  0.29726900  1
  Nb  Nb101  1  0.70778920  0.89595846  0.70136315  1
  Nb  Nb102  1  0.30254659  0.69644855  0.50079233  1
  Nb  Nb103  1  0.09411549  0.89694695  0.30025625  1
  Nb  Nb104  1  0.70126450  0.90192596  0.30200265  1
  Nb  Nb105  1  0.89484385  0.30498962  0.70256830  1
  Nb  Nb106  1  0.70352072  0.30417297  0.90441757  1
  Nb  Nb107  1  0.09649922  0.70108266  0.90048566  1
  Nb  Nb108  1  0.30300266  0.89676146  0.70327746  1
  Nb  Nb109  1  0.49859264  0.49947144  0.50144249  1
  Nb  Nb110  1  0.90999748  0.70756701  0.90186116  1
  Nb  Nb111  1  0.90905686  0.30473068  0.09902404  1
  Nb  Nb112  1  0.08662746  0.89063146  0.89933342  1
  Nb  Nb113  1  0.09785863  0.30044626  0.10081141  1
  Nb  Nb114  1  0.90404991  0.90219735  0.89643366  1
  Nb  Nb115  1  0.09651765  0.30324978  0.29822613  1
  Nb  Nb116  1  0.89934507  0.49718101  0.50017250  1
  Nb  Nb117  1  0.30059636  0.29942931  0.09911166  1
  Nb  Nb118  1  0.10535131  0.09744032  0.69610205  1
  Nb  Nb119  1  0.71038221  0.30258607  0.29694424  1
  Nb  Nb120  1  0.89938348  0.29598767  0.89763445  1
  Nb  Nb121  1  0.50309721  0.10088701  0.10047278  1
  Nb  Nb122  1  0.70484852  0.49849195  0.90165981  1
  Nb  Nb123  1  0.88704281  0.89599105  0.70448506  1
  Nb  Nb124  1  0.29915469  0.30041426  0.69970124  1
  Nb  Nb125  1  0.39859620  0.80479408  0.79590512  1
  Nb  Nb126  1  0.18866376  0.80052813  -0.00859576  1
  Nb  Nb127  1  0.19659485  0.39839912  0.19753644  1
  Nb  Nb128  1  0.80269786  0.39373067  0.40077878  1
  Nb  Nb129  1  0.19586131  0.59477318  0.20058533  1
  Nb  Nb130  1  0.20022422  0.20200464  0.60717489  1
  Nb  Nb131  1  0.39435162  0.20399314  0.60546190  1
  Nb  Nb132  1  0.60279485  -0.00110316  0.20048218  1
  Nb  Nb133  1  0.19741223  0.19986452  0.79334935  1
  Nb  Nb134  1  0.80409938  0.39856433  0.60192973  1
  Nb  Nb135  1  0.39659260  0.20019741  0.19646907  1
  Nb  Nb136  1  0.00641458  0.60037953  0.20219388  1
  Nb  Nb137  1  0.80273998  0.39935498  0.80256913  1
  Nb  Nb138  1  0.19894224  0.39351585  0.00637162  1
  Nb  Nb139  1  0.00070277  0.20783515  0.20053418  1
  Nb  Nb140  1  0.79879446  -0.00534418  0.60458618  1
  Nb  Nb141  1  -0.00571801  0.79934439  0.60457023  1
  Nb  Nb142  1  0.00168810  -0.00654139  0.39715756  1
  Nb  Nb143  1  0.19860177  0.20934061  0.19624984  1
  Nb  Nb144  1  0.80111529  0.59672374  0.80704376  1
  Nb  Nb145  1  0.39999760  -0.00130470  0.80009419  1
  Nb  Nb146  1  0.59680645  0.80814294  0.20120148  1
  Nb  Nb147  1  0.60658785  0.79907775  0.59990534  1
  Nb  Nb148  1  0.40187921  0.79909959  0.19970900  1
  Nb  Nb149  1  0.79098858  -0.00043288  0.20395180  1
  Pd  Pd150  1  0.20058450  -0.00099275  0.80952106  1
  Pd  Pd151  1  0.39217209  0.60476914  0.79703082  1
  Pd  Pd152  1  -0.00144151  0.40321073  0.81038103  1
  Pd  Pd153  1  -0.00534563  0.01070947  0.20313501  1
  Pd  Pd154  1  0.59698999  0.20876213  0.39950771  1
  Pd  Pd155  1  0.79642064  0.58862197  0.39043020  1
  Pd  Pd156  1  0.00864307  0.60776863  0.59658431  1
  Pd  Pd157  1  0.80055810  0.19876736  0.80246025  1
  Pd  Pd158  1  0.59357124  0.60737608  0.19505394  1
  Pd  Pd159  1  0.60173499  0.59874784  0.39908942  1
  Pd  Pd160  1  0.39066786  -0.00695827  0.40240454  1
  Pd  Pd161  1  0.59995849  0.39931100  0.00391315  1
  Pd  Pd162  1  0.00498457  0.19014306  0.39026437  1
  Pd  Pd163  1  0.00634633  0.19733775  0.79375407  1
  Pd  Pd164  1  0.59210068  0.80761013  0.79612240  1
  Pd  Pd165  1  0.00064306  0.40523305  0.20359005  1
  Pd  Pd166  1  0.60904445  -0.00647769  0.59977981  1
  Pd  Pd167  1  0.40540879  0.59350704  -0.00321462  1
  Pd  Pd168  1  0.40950884  0.79807647  0.60856472  1
  Pd  Pd169  1  0.19685420  -0.00859740  0.40763218  1
  Pd  Pd170  1  0.39501908  0.40132013  0.80705146  1
  Pd  Pd171  1  0.80962778  0.59351184  0.20737639  1
  Pd  Pd172  1  0.20280100  0.39127364  0.81485032  1
  Pd  Pd173  1  0.40000736  0.20327903  0.39812296  1
  Pd  Pd174  1  0.59737040  0.39198341  0.19018523  1
  Pd  Pd175  1  0.59676488  0.00258443  0.39470306  1
  Pd  Pd176  1  -0.00668219  0.19424488  0.00417354  1
  Pd  Pd177  1  0.20409001  0.80337858  0.40955827  1
  Pd  Pd178  1  0.20932156  0.00001754  0.59256917  1
  Pd  Pd179  1  0.19006519  0.39679976  0.59679575  1
  Pd  Pd180  1  0.39701875  0.60836180  0.19214580  1
  Pd  Pd181  1  0.00997809  0.20911598  0.61082933  1
  Pd  Pd182  1  -0.00433842  -0.00224453  0.79021448  1
  Pd  Pd183  1  0.40552402  -0.00193376  0.19650733  1
  Pd  Pd184  1  0.39878803  0.00515536  0.60114138  1
  Pd  Pd185  1  0.60642953  0.39942026  0.59725378  1
  Pd  Pd186  1  -0.00240577  0.80325838  0.78981359  1
  Pd  Pd187  1  0.80224816  0.80315394  -0.00729172  1
  Pd  Pd188  1  0.39646650  0.19425552  0.79937485  1
  Pd  Pd189  1  0.59415452  0.20460756  0.19408363  1
  Pd  Pd190  1  0.60573752  0.60454434  0.59636365  1
  Pd  Pd191  1  0.78983265  0.58502290  0.60908881  1
  Pd  Pd192  1  0.20917302  0.79978470  0.80661860  1
  Pd  Pd193  1  0.80887281  0.39500233  -0.00323776  1
  Pd  Pd194  1  0.60248671  0.20344076  0.81067321  1
  Pd  Pd195  1  0.80897105  0.19396253  0.18939766  1
  Pd  Pd196  1  -0.00383716  0.60439960  0.79993883  1
  Pd  Pd197  1  0.20247310  0.19917244  0.39502951  1
  Pd  Pd198  1  0.80006933  0.20741908  0.40802712  1
  Pd  Pd199  1  0.18689746  -0.01145681  -0.00175175  1
  Rh  Rh200  1  0.20035421  0.20420160  -0.00213896  1
  Rh  Rh201  1  -0.00350222  0.80098386  0.40872472  1
  Rh  Rh202  1  0.40389906  0.40654452  0.40511071  1
  Rh  Rh203  1  0.80296721  -0.00145097  -0.00020432  1
  Rh  Rh204  1  0.60697143  0.00119132  0.00442065  1
  Rh  Rh205  1  0.40240891  0.19345599  0.00957055  1
  Rh  Rh206  1  0.79859885  0.80589528  0.59281004  1
  Rh  Rh207  1  0.19625618  0.79775899  0.59960827  1
  Rh  Rh208  1  0.20349163  0.60540210  0.79922004  1
  Rh  Rh209  1  0.60659125  0.39283457  0.80479966  1
  Rh  Rh210  1  -0.00798728  0.39809919  0.40387146  1
  Rh  Rh211  1  0.39875554  0.59421169  0.41054488  1
  Rh  Rh212  1  0.19249395  0.00684704  0.19438421  1
  Rh  Rh213  1  0.79911663  0.19638862  0.60239293  1
  Rh  Rh214  1  0.39850813  0.39189004  0.20189025  1
  Rh  Rh215  1  0.19987549  0.60009349  0.59627516  1
  Rh  Rh216  1  0.00171714  0.39852368  -0.00755346  1
  Rh  Rh217  1  0.20145803  0.40315637  0.39637422  1
  Rh  Rh218  1  0.19614181  0.60046822  0.00294004  1
  Rh  Rh219  1  0.58921908  0.20172111  0.59815713  1
  Rh  Rh220  1  0.80687253  0.00124051  0.40100660  1
  Rh  Rh221  1  0.80349626  0.79154474  0.81393014  1
  Rh  Rh222  1  0.80491311  0.79763630  0.39562338  1
  Rh  Rh223  1  -0.00240374  0.60808808  0.00730616  1
  Rh  Rh224  1  0.40006001  0.00289050  -0.00487132  1
  Rh  Rh225  1  -0.00125416  0.79186055  0.19624131  1
  Rh  Rh226  1  0.80565519  0.00788260  0.79434423  1
  Rh  Rh227  1  0.60626785  0.59824863  0.80617452  1
  Rh  Rh228  1  0.38642893  0.80306141  -0.00290170  1
  Rh  Rh229  1  0.80733042  0.40365591  0.20326862  1
  Rh  Rh230  1  0.59744951  0.79785615  0.40056509  1
  Rh  Rh231  1  0.00094628  0.39780691  0.59501765  1
  Rh  Rh232  1  0.40150992  0.39982692  0.59658863  1
  Rh  Rh233  1  0.39625085  0.59241922  0.59513822  1
  Rh  Rh234  1  0.39562404  0.40473886  -0.00561562  1
  Rh  Rh235  1  0.60881891  0.39895004  0.40124321  1
  Rh  Rh236  1  0.39099946  0.80389967  0.39451103  1
  Rh  Rh237  1  0.80425423  0.60793446  -0.00615932  1
  Rh  Rh238  1  0.19935742  0.59826851  0.39832621  1
  Rh  Rh239  1  0.59608025  0.59107830  0.00103345  1
  Rh  Rh240  1  0.00115668  0.60370855  0.39693791  1
  Rh  Rh241  1  -0.01175462  -0.01079890  0.60520215  1
  Rh  Rh242  1  0.60657488  0.80691757  0.00222194  1
  Rh  Rh243  1  0.79190784  0.80872150  0.19931487  1
  Rh  Rh244  1  0.20583161  0.79208466  0.18701441  1
  Rh  Rh245  1  0.60427484  0.20816140  0.00095944  1
  Rh  Rh246  1  0.59721700  -0.00014198  0.80420663  1
  Rh  Rh247  1  0.00118868  0.80292937  0.00491589  1
  Rh  Rh248  1  0.80641620  0.20596996  -0.00095054  1
  Rh  Rh249  1  -0.00112827  -0.00732485  -0.00249794  1
