# generated using pymatgen
data_ZrScNbPdRh
_symmetry_space_group_name_H-M   'P 1'
_cell_length_a   16.56670452
_cell_length_b   16.55635677
_cell_length_c   16.56274891
_cell_angle_alpha   90.00073798
_cell_angle_beta   89.97426287
_cell_angle_gamma   90.03710050
_symmetry_Int_Tables_number   1
_chemical_formula_structural   ZrScNbPdRh
_chemical_formula_sum   'Zr50 Sc50 Nb50 Pd50 Rh50'
_cell_volume   4542.90009194
_cell_formula_units_Z   50
loop_
 _symmetry_equiv_pos_site_id
 _symmetry_equiv_pos_as_xyz
  1  'x, y, z'
loop_
 _atom_site_type_symbol
 _atom_site_label
 _atom_site_symmetry_multiplicity
 _atom_site_fract_x
 _atom_site_fract_y
 _atom_site_fract_z
 _atom_site_occupancy
  Zr  Zr0  1  0.10852802  0.30869395  0.09330183  1
  Zr  Zr1  1  0.89928219  0.10056692  0.88915094  1
  Zr  Zr2  1  0.90131640  0.49672854  0.30177547  1
  Zr  Zr3  1  0.89312171  0.90174187  0.90484644  1
  Zr  Zr4  1  0.90124252  0.30809530  0.30129924  1
  Zr  Zr5  1  0.49253880  0.49145317  0.09830381  1
  Zr  Zr6  1  0.10014635  0.89437583  0.89743727  1
  Zr  Zr7  1  0.70194730  0.49164434  0.89994677  1
  Zr  Zr8  1  0.89998049  0.69761007  0.69526469  1
  Zr  Zr9  1  0.29952905  0.11118977  0.49030696  1
  Zr  Zr10  1  0.90171923  0.10568157  0.50872185  1
  Zr  Zr11  1  0.29651394  0.50353060  0.69364878  1
  Zr  Zr12  1  0.29801678  0.29460484  0.31204733  1
  Zr  Zr13  1  0.49534806  0.30029591  0.90147086  1
  Zr  Zr14  1  0.89999243  0.69606997  0.50734221  1
  Zr  Zr15  1  0.30491000  0.30571933  0.50085191  1
  Zr  Zr16  1  0.90144662  0.49562023  0.50570599  1
  Zr  Zr17  1  0.48523671  0.69720544  0.49680862  1
  Zr  Zr18  1  0.10471539  0.69852737  0.90176624  1
  Zr  Zr19  1  0.31080349  0.89878986  0.29426336  1
  Zr  Zr20  1  0.68861414  0.89998891  0.71167927  1
  Zr  Zr21  1  0.09778365  0.50534160  0.50158399  1
  Zr  Zr22  1  0.30833839  0.69778568  0.69120547  1
  Zr  Zr23  1  0.69863605  0.48979651  0.69670967  1
  Zr  Zr24  1  0.09750993  0.49314578  0.70505191  1
  Zr  Zr25  1  0.69852943  0.29908444  0.89384548  1
  Zr  Zr26  1  0.09535317  0.68647180  0.10332913  1
  Zr  Zr27  1  0.49784514  0.10357033  0.70046380  1
  Zr  Zr28  1  0.70432814  0.30668207  0.49925846  1
  Zr  Zr29  1  0.90399979  0.89571065  0.50419884  1
  Zr  Zr30  1  0.68984628  0.69224667  0.89962076  1
  Zr  Zr31  1  0.69433703  0.89409863  0.30422096  1
  Zr  Zr32  1  0.89999710  0.30024575  0.69416338  1
  Zr  Zr33  1  0.49036208  0.90160734  0.69575590  1
  Zr  Zr34  1  0.31017976  0.50497728  0.90592246  1
  Zr  Zr35  1  0.30455278  0.31101759  0.09610326  1
  Zr  Zr36  1  0.49284875  0.90076812  0.10539603  1
  Zr  Zr37  1  0.69703609  0.29844487  0.09945917  1
  Zr  Zr38  1  0.69341333  0.10262444  0.09227027  1
  Zr  Zr39  1  0.70271567  0.69743394  0.30021704  1
  Zr  Zr40  1  0.50088287  0.69599569  0.09379140  1
  Zr  Zr41  1  0.50630393  0.50129054  0.30347461  1
  Zr  Zr42  1  0.09992220  0.09472652  0.50023458  1
  Zr  Zr43  1  0.29102503  0.89520133  0.90298590  1
  Zr  Zr44  1  0.10133560  0.10969612  0.89194474  1
  Zr  Zr45  1  0.70108642  0.09287726  0.90005591  1
  Zr  Zr46  1  0.30045637  0.30745023  0.69619998  1
  Zr  Zr47  1  0.90379137  0.50049896  0.10802856  1
  Zr  Zr48  1  0.89660290  0.89754047  0.10129089  1
  Zr  Zr49  1  0.69188746  0.10351652  0.30360595  1
  Sc  Sc50  1  0.30135498  0.70140315  0.31106104  1
  Sc  Sc51  1  0.50415877  0.30586658  0.30197575  1
  Sc  Sc52  1  0.29897401  0.70049687  0.09267071  1
  Sc  Sc53  1  0.90596102  0.49089920  0.89745544  1
  Sc  Sc54  1  0.29979663  0.49923149  0.50479623  1
  Sc  Sc55  1  0.70701913  0.70366051  0.10829830  1
  Sc  Sc56  1  0.49760480  0.30456067  0.70539708  1
  Sc  Sc57  1  0.10783547  0.70331920  0.49309213  1
  Sc  Sc58  1  0.31226009  0.09021461  0.09256690  1
  Sc  Sc59  1  0.90662704  0.89845776  0.69821460  1
  Sc  Sc60  1  0.70294084  0.90183982  0.09117879  1
  Sc  Sc61  1  0.30382863  0.10290001  0.90412693  1
  Sc  Sc62  1  0.69943323  0.30325049  0.30204177  1
  Sc  Sc63  1  0.09972315  0.89698942  0.50144974  1
  Sc  Sc64  1  0.90740268  0.89877124  0.29950555  1
  Sc  Sc65  1  0.29749506  0.89911071  0.50294390  1
  Sc  Sc66  1  0.29177175  0.29725148  0.90252324  1
  Sc  Sc67  1  0.50231688  0.10510700  0.90629874  1
  Sc  Sc68  1  0.29787249  0.70077623  0.89502270  1
  Sc  Sc69  1  0.49714167  0.89683331  0.30570896  1
  Sc  Sc70  1  0.69535596  0.11071002  0.49231142  1
  Sc  Sc71  1  0.89964681  0.10402410  0.10494086  1
  Sc  Sc72  1  0.29986255  0.89521282  0.69473621  1
  Sc  Sc73  1  0.49373488  0.10336605  0.49804065  1
  Sc  Sc74  1  0.09966075  0.50635394  0.29386597  1
  Sc  Sc75  1  0.10382939  0.90038526  0.09617239  1
  Sc  Sc76  1  0.89323194  0.30769185  0.90029231  1
  Sc  Sc77  1  0.30508703  0.89517825  0.09331958  1
  Sc  Sc78  1  0.10539998  0.30872892  0.49920028  1
  Sc  Sc79  1  0.10055188  0.89309035  0.69259990  1
  Sc  Sc80  1  0.30936726  0.09375033  0.68923543  1
  Sc  Sc81  1  0.49498513  0.68762956  0.89127206  1
  Sc  Sc82  1  0.10893565  0.69962126  0.70185362  1
  Sc  Sc83  1  0.49522556  0.09599767  0.30849490  1
  Sc  Sc84  1  0.90503959  0.69921148  0.28596949  1
  Sc  Sc85  1  0.70789488  0.70517782  0.49913217  1
  Sc  Sc86  1  0.09486907  0.09917134  0.10684860  1
  Sc  Sc87  1  0.89894795  0.30367551  0.10525221  1
  Sc  Sc88  1  0.08260834  0.10407722  0.70005962  1
  Sc  Sc89  1  0.50328362  0.89990004  0.88905447  1
  Sc  Sc90  1  0.69982931  0.69603088  0.69735318  1
  Sc  Sc91  1  0.49663915  0.49585039  0.49469807  1
  Sc  Sc92  1  0.29466515  0.49332382  0.29737062  1
  Sc  Sc93  1  0.49321326  0.49946926  0.70536006  1
  Sc  Sc94  1  0.91198552  0.70033854  0.90737573  1
  Sc  Sc95  1  0.91071104  0.09583389  0.29706409  1
  Sc  Sc96  1  0.10088073  0.30895626  0.29977399  1
  Sc  Sc97  1  0.09434002  0.90074658  0.31019659  1
  Sc  Sc98  1  0.49568262  0.70619717  0.30277286  1
  Sc  Sc99  1  0.09799318  0.09658060  0.30494559  1
  Nb  Nb100  1  0.50382140  0.10360918  0.09704426  1
  Nb  Nb101  1  0.90003372  0.30330643  0.49196013  1
  Nb  Nb102  1  0.50174424  0.70297584  0.69464264  1
  Nb  Nb103  1  0.90040639  0.50445346  0.69833158  1
  Nb  Nb104  1  0.29823372  0.70090726  0.50404562  1
  Nb  Nb105  1  0.69791755  0.50208179  0.10203506  1
  Nb  Nb106  1  0.09880322  0.49264713  0.90423834  1
  Nb  Nb107  1  0.69237210  0.30004356  0.70473500  1
  Nb  Nb108  1  0.49419661  0.29681893  0.50346868  1
  Nb  Nb109  1  0.89638012  0.10073505  0.69662414  1
  Nb  Nb110  1  0.50631051  0.90311201  0.49903646  1
  Nb  Nb111  1  0.30023579  0.10199244  0.29913193  1
  Nb  Nb112  1  0.69877810  0.89919120  0.90332375  1
  Nb  Nb113  1  0.69996630  0.10534570  0.70272650  1
  Nb  Nb114  1  0.09763734  0.30288473  0.89168961  1
  Nb  Nb115  1  0.11370538  0.49775985  0.10327475  1
  Nb  Nb116  1  0.29418516  0.49927804  0.10303565  1
  Nb  Nb117  1  0.10562864  0.29763260  0.71339846  1
  Nb  Nb118  1  0.69800782  0.50647152  0.49519174  1
  Nb  Nb119  1  0.69995856  0.90307042  0.50016872  1
  Nb  Nb120  1  0.50123241  0.29575602  0.09876607  1
  Nb  Nb121  1  0.89706689  0.69607086  0.10309892  1
  Nb  Nb122  1  0.50556957  0.50383872  0.90702251  1
  Nb  Nb123  1  0.69856136  0.50173573  0.30212363  1
  Nb  Nb124  1  0.10898437  0.70079734  0.29640224  1
  Nb  Nb125  1  0.39985710  0.59505071  0.19619682  1
  Nb  Nb126  1  0.59812881  0.59506226  0.20101953  1
  Nb  Nb127  1  0.79791663  -0.00242080  0.40403648  1
  Nb  Nb128  1  -0.00168859  0.00521499  -0.00670031  1
  Nb  Nb129  1  0.20986357  0.19583893  0.20117078  1
  Nb  Nb130  1  0.19794594  0.00015507  0.79998944  1
  Nb  Nb131  1  0.60353359  0.00289001  0.59775712  1
  Nb  Nb132  1  0.20764588  -0.00035689  0.20384921  1
  Nb  Nb133  1  0.40076733  0.19932487  0.19750679  1
  Nb  Nb134  1  0.79120719  0.00003003  0.20572155  1
  Nb  Nb135  1  0.79631240  0.79620638  0.80690254  1
  Nb  Nb136  1  0.19892237  0.79901830  0.20476332  1
  Nb  Nb137  1  0.19835144  0.20410159  0.60154628  1
  Nb  Nb138  1  0.59848377  0.00239836  0.19713601  1
  Nb  Nb139  1  0.80058205  0.59513903  0.39924202  1
  Nb  Nb140  1  -0.00265852  0.20724545  0.40578726  1
  Nb  Nb141  1  0.60244970  0.20406918  0.60540228  1
  Nb  Nb142  1  0.80419446  0.59779817  0.80108259  1
  Nb  Nb143  1  0.59440595  0.80162230  0.59760648  1
  Nb  Nb144  1  0.80206875  0.59709266  0.00250525  1
  Nb  Nb145  1  0.79249832  0.00476313  0.60193103  1
  Nb  Nb146  1  0.00445801  0.20335978  -0.00688471  1
  Nb  Nb147  1  0.60090154  0.79932303  -0.00536612  1
  Nb  Nb148  1  0.59634571  0.40080951  0.00295950  1
  Nb  Nb149  1  0.59668226  0.60265693  0.59447890  1
  Pd  Pd150  1  0.60163231  0.59248675  0.78792632  1
  Pd  Pd151  1  0.20631845  0.59516513  0.40052209  1
  Pd  Pd152  1  0.80102017  0.19558554  0.20718785  1
  Pd  Pd153  1  0.19553397  0.41040097  0.40018503  1
  Pd  Pd154  1  -0.00230370  0.58887461  0.00065297  1
  Pd  Pd155  1  0.39651060  -0.00394602  0.40664738  1
  Pd  Pd156  1  0.41033442  0.79756577  -0.01199027  1
  Pd  Pd157  1  -0.00166303  0.59871260  0.80207867  1
  Pd  Pd158  1  0.59684856  0.79040684  0.40876990  1
  Pd  Pd159  1  0.39686624  0.40404450  0.80450798  1
  Pd  Pd160  1  0.21229814  0.18889843  0.78660467  1
  Pd  Pd161  1  0.39809369  0.39678884  0.20864882  1
  Pd  Pd162  1  0.79308174  0.39976915  0.20111559  1
  Pd  Pd163  1  0.00339292  0.80327959  0.00864700  1
  Pd  Pd164  1  0.01092273  0.20917503  0.20122654  1
  Pd  Pd165  1  -0.00506890  0.60679700  0.39383973  1
  Pd  Pd166  1  0.01248576  0.60640693  0.60416807  1
  Pd  Pd167  1  0.19580899  0.00707154  0.60838240  1
  Pd  Pd168  1  0.80162598  -0.00732010  0.79127026  1
  Pd  Pd169  1  0.59347555  0.00831478  0.80060168  1
  Pd  Pd170  1  0.59970019  0.39557552  0.40458437  1
  Pd  Pd171  1  0.00938965  0.80327116  0.19565013  1
  Pd  Pd172  1  0.20755821  0.40748077  0.80778773  1
  Pd  Pd173  1  0.20166250  0.59579617  0.80155005  1
  Pd  Pd174  1  0.00597626  0.39285597  0.60282900  1
  Pd  Pd175  1  0.81093275  0.79753248  0.39302144  1
  Pd  Pd176  1  0.38967478  0.59111241  0.39410123  1
  Pd  Pd177  1  0.00047186  0.39757980  0.00353195  1
  Pd  Pd178  1  -0.00151554  0.78956046  0.40039919  1
  Pd  Pd179  1  0.79083658  0.81008995  0.61199518  1
  Pd  Pd180  1  0.39070868  0.00105507  0.80690711  1
  Pd  Pd181  1  0.79412239  0.78619550  -0.00525994  1
  Pd  Pd182  1  0.40854937  -0.00430708  -0.01038772  1
  Pd  Pd183  1  0.19293919  0.00885865  0.00158653  1
  Pd  Pd184  1  0.01062806  0.21336816  0.59555765  1
  Pd  Pd185  1  0.00495191  -0.00680049  0.79816557  1
  Pd  Pd186  1  0.80178813  0.20535902  0.79708250  1
  Pd  Pd187  1  0.20465859  -0.00676241  0.39473250  1
  Pd  Pd188  1  0.79185077  0.20158965  0.60126145  1
  Pd  Pd189  1  0.59066243  0.40099205  0.59684678  1
  Pd  Pd190  1  0.19807143  0.19275654  0.00993271  1
  Pd  Pd191  1  0.39308608  0.19992158  0.80028575  1
  Pd  Pd192  1  0.59926352  0.80073558  0.19188774  1
  Pd  Pd193  1  -0.00450859  0.79656356  0.79668227  1
  Pd  Pd194  1  0.80823173  0.20006741  -0.00196729  1
  Pd  Pd195  1  0.59020810  0.19745523  0.20697802  1
  Pd  Pd196  1  0.20280881  0.59841816  -0.00227817  1
  Pd  Pd197  1  0.80984561  0.19459407  0.39069568  1
  Pd  Pd198  1  0.79936192  0.39981830  0.60056063  1
  Pd  Pd199  1  0.39710804  0.79605594  0.80166239  1
  Rh  Rh200  1  0.40912093  0.20531153  0.39228963  1
  Rh  Rh201  1  0.19679063  0.60172416  0.59676869  1
  Rh  Rh202  1  0.39541464  0.60080058  0.00510864  1
  Rh  Rh203  1  0.40141235  0.40068275  0.40054864  1
  Rh  Rh204  1  0.59777918  0.19688639  0.79936193  1
  Rh  Rh205  1  0.80782428  0.01005990  0.00809716  1
  Rh  Rh206  1  0.59992760  0.79479033  0.80214859  1
  Rh  Rh207  1  0.79665015  0.40864830  0.40089948  1
  Rh  Rh208  1  0.60059857  0.20762650  -0.00856368  1
  Rh  Rh209  1  0.18699268  0.19812031  0.40103561  1
  Rh  Rh210  1  0.59187186  0.20896548  0.40818330  1
  Rh  Rh211  1  0.40537305  0.40332725  0.60027584  1
  Rh  Rh212  1  0.60508942  0.40257712  0.19425859  1
  Rh  Rh213  1  0.00352742  0.59576603  0.20174457  1
  Rh  Rh214  1  0.20440261  0.80473169  0.79419894  1
  Rh  Rh215  1  0.60736148  0.60676587  0.40082330  1
  Rh  Rh216  1  0.39984773  0.59946615  0.79471293  1
  Rh  Rh217  1  0.00903664  0.40380307  0.19479800  1
  Rh  Rh218  1  0.60227401  0.00106765  0.39970004  1
  Rh  Rh219  1  0.79447639  0.59597274  0.20142340  1
  Rh  Rh220  1  0.40211255  0.80404113  0.59306642  1
  Rh  Rh221  1  0.59056187  0.40205018  0.80834380  1
  Rh  Rh222  1  0.00508871  0.39883480  0.40123678  1
  Rh  Rh223  1  0.39775412  0.20328112  0.00666298  1
  Rh  Rh224  1  -0.00494950  -0.00380839  0.60113892  1
  Rh  Rh225  1  0.39057137  0.78463275  0.20066799  1
  Rh  Rh226  1  0.40417747  -0.00090471  0.58975243  1
  Rh  Rh227  1  0.40542118  0.59507160  0.59950813  1
  Rh  Rh228  1  0.00861599  0.79258865  0.59724627  1
  Rh  Rh229  1  0.21017473  0.60784606  0.20245248  1
  Rh  Rh230  1  0.20448591  0.80379787  0.39638296  1
  Rh  Rh231  1  0.20211203  0.40684178  -0.01010867  1
  Rh  Rh232  1  0.19277449  0.39721807  0.60387178  1
  Rh  Rh233  1  0.39932103  0.20577284  0.60151760  1
  Rh  Rh234  1  0.19263474  0.79024900  0.00830341  1
  Rh  Rh235  1  0.80844843  0.40271397  0.78730291  1
  Rh  Rh236  1  0.20062095  0.39357550  0.20385953  1
  Rh  Rh237  1  -0.00246626  0.39705576  0.79628630  1
  Rh  Rh238  1  0.20208821  0.79492291  0.59696757  1
  Rh  Rh239  1  -0.00916252  0.00591074  0.40985008  1
  Rh  Rh240  1  0.00148083  -0.00825292  0.18969150  1
  Rh  Rh241  1  0.60639625  0.59913896  0.01019477  1
  Rh  Rh242  1  0.39606298  0.80618116  0.40855925  1
  Rh  Rh243  1  0.40542389  0.00964859  0.19921794  1
  Rh  Rh244  1  0.80228992  0.80900470  0.20356693  1
  Rh  Rh245  1  0.79084692  0.59066289  0.59957796  1
  Rh  Rh246  1  0.79413945  0.40541667  0.01040724  1
  Rh  Rh247  1  0.59113416  -0.01111565  0.00462355  1
  Rh  Rh248  1  -0.01234140  0.21292376  0.80273255  1
  Rh  Rh249  1  0.40242600  0.39822876  -0.00544617  1
