# generated using pymatgen
data_ZrScNbPdRh
_symmetry_space_group_name_H-M   'P 1'
_cell_length_a   16.55897659
_cell_length_b   16.55964465
_cell_length_c   16.55805438
_cell_angle_alpha   90.01412391
_cell_angle_beta   90.01645365
_cell_angle_gamma   90.00357964
_symmetry_Int_Tables_number   1
_chemical_formula_structural   ZrScNbPdRh
_chemical_formula_sum   'Zr50 Sc50 Nb50 Pd50 Rh50'
_cell_volume   4540.39647341
_cell_formula_units_Z   50
loop_
 _symmetry_equiv_pos_site_id
 _symmetry_equiv_pos_as_xyz
  1  'x, y, z'
loop_
 _atom_site_type_symbol
 _atom_site_label
 _atom_site_symmetry_multiplicity
 _atom_site_fract_x
 _atom_site_fract_y
 _atom_site_fract_z
 _atom_site_occupancy
  Zr  Zr0  1  0.70405487  0.09941850  0.30342094  1
  Zr  Zr1  1  0.49671149  0.10636590  0.89304240  1
  Zr  Zr2  1  0.09957943  0.49691955  0.49911717  1
  Zr  Zr3  1  0.29433022  0.30444979  0.89059894  1
  Zr  Zr4  1  0.30835984  0.50049062  0.30380873  1
  Zr  Zr5  1  0.49413671  0.30047164  0.10651311  1
  Zr  Zr6  1  0.49637641  0.89381595  0.49713504  1
  Zr  Zr7  1  0.70196240  0.89987877  0.69978811  1
  Zr  Zr8  1  0.89911444  0.71616143  0.30661270  1
  Zr  Zr9  1  0.50836485  0.89050798  0.69163652  1
  Zr  Zr10  1  0.69672787  0.69949684  0.28981053  1
  Zr  Zr11  1  0.89865055  0.50732723  0.09012447  1
  Zr  Zr12  1  0.68984620  0.31878967  0.09973733  1
  Zr  Zr13  1  0.89943922  0.49486916  0.30131930  1
  Zr  Zr14  1  0.49045668  0.30809453  0.70094767  1
  Zr  Zr15  1  0.89365199  0.10027744  0.51108887  1
  Zr  Zr16  1  0.90113356  0.11104376  0.69981882  1
  Zr  Zr17  1  0.10235140  0.30077753  0.50085584  1
  Zr  Zr18  1  0.30130453  0.51163550  0.89918234  1
  Zr  Zr19  1  0.89818095  0.89665477  0.09404830  1
  Zr  Zr20  1  0.70264155  0.69928478  0.49495306  1
  Zr  Zr21  1  0.10023380  0.30234072  0.10120093  1
  Zr  Zr22  1  0.09798365  0.89419707  0.30400954  1
  Zr  Zr23  1  0.90332241  0.50108022  0.50401698  1
  Zr  Zr24  1  0.29601578  0.90062336  0.30140096  1
  Zr  Zr25  1  0.89978767  0.49749376  0.69330327  1
  Zr  Zr26  1  0.09651295  0.49862485  0.09492193  1
  Zr  Zr27  1  0.30028655  0.89661269  0.49834312  1
  Zr  Zr28  1  0.10421864  0.90367963  0.50155266  1
  Zr  Zr29  1  0.49692373  0.69229207  0.89886409  1
  Zr  Zr30  1  0.49172456  0.10358129  0.70373372  1
  Zr  Zr31  1  0.90395793  0.69991734  0.90291583  1
  Zr  Zr32  1  0.69399738  0.29785179  0.48956229  1
  Zr  Zr33  1  0.30332850  0.49786009  0.70728641  1
  Zr  Zr34  1  0.90760891  0.89335562  0.49037420  1
  Zr  Zr35  1  0.10084292  0.30091429  0.90483556  1
  Zr  Zr36  1  0.51072803  0.49439075  0.10882521  1
  Zr  Zr37  1  0.69887388  0.10447969  0.89650371  1
  Zr  Zr38  1  0.09311714  0.30360706  0.30250896  1
  Zr  Zr39  1  0.11162288  0.49951329  0.29990937  1
  Zr  Zr40  1  0.09552831  0.90705314  0.90390631  1
  Zr  Zr41  1  0.50177136  0.49415257  0.50490870  1
  Zr  Zr42  1  0.50038846  0.49860167  0.88791786  1
  Zr  Zr43  1  0.09695583  0.69679100  0.70423965  1
  Zr  Zr44  1  0.10744238  0.70662344  0.09687056  1
  Zr  Zr45  1  0.10261238  0.29843618  0.69880215  1
  Zr  Zr46  1  0.89802849  0.29732807  0.30508671  1
  Zr  Zr47  1  0.50050959  0.09415269  0.49697065  1
  Zr  Zr48  1  0.10221963  0.50254460  0.69481868  1
  Zr  Zr49  1  0.49506572  0.30729319  0.31474184  1
  Sc  Sc50  1  0.30050871  0.09386597  0.30530826  1
  Sc  Sc51  1  0.10015346  0.09842873  0.69948006  1
  Sc  Sc52  1  0.29477739  0.29883504  0.69826683  1
  Sc  Sc53  1  0.09909379  0.10223719  0.30720448  1
  Sc  Sc54  1  0.70550825  0.70163371  0.89982148  1
  Sc  Sc55  1  0.28806072  0.90197441  0.09565751  1
  Sc  Sc56  1  0.70031767  0.09853864  0.50032102  1
  Sc  Sc57  1  0.90332202  0.90913463  0.71278052  1
  Sc  Sc58  1  0.69825102  0.08066844  0.10342191  1
  Sc  Sc59  1  0.91183755  0.30201313  0.10176359  1
  Sc  Sc60  1  0.89995586  0.30082169  0.50241569  1
  Sc  Sc61  1  0.71036895  0.09831482  0.68826054  1
  Sc  Sc62  1  0.30102877  0.30847487  0.30461177  1
  Sc  Sc63  1  0.10570148  0.70667174  0.29702965  1
  Sc  Sc64  1  0.29264611  0.90349699  0.70415697  1
  Sc  Sc65  1  0.10142416  0.90228321  0.70953754  1
  Sc  Sc66  1  0.29190556  0.09665157  0.50204928  1
  Sc  Sc67  1  0.89982086  0.10087482  0.10262504  1
  Sc  Sc68  1  0.29625605  0.50550849  0.10395714  1
  Sc  Sc69  1  0.90351943  0.09619911  0.89704733  1
  Sc  Sc70  1  0.90320603  0.10499671  0.29589704  1
  Sc  Sc71  1  0.50681301  0.90071363  0.09945389  1
  Sc  Sc72  1  0.69981986  0.49519366  0.50527954  1
  Sc  Sc73  1  0.10148087  0.50378738  0.90342414  1
  Sc  Sc74  1  0.69501325  0.30515935  0.89047273  1
  Sc  Sc75  1  0.89929597  0.69332299  0.49713839  1
  Sc  Sc76  1  0.11193667  0.69562208  0.50314471  1
  Sc  Sc77  1  0.71110263  0.89773861  0.90172351  1
  Sc  Sc78  1  0.30516011  0.29935154  0.49972597  1
  Sc  Sc79  1  0.29402032  0.10166858  0.70710800  1
  Sc  Sc80  1  0.50275541  0.70589004  0.09581520  1
  Sc  Sc81  1  0.49333820  0.69215126  0.29267716  1
  Sc  Sc82  1  0.69887580  0.89014801  0.09725781  1
  Sc  Sc83  1  0.49265860  0.08902627  0.29986273  1
  Sc  Sc84  1  0.50058080  0.89430147  0.90513615  1
  Sc  Sc85  1  0.29324428  0.90153808  0.90144956  1
  Sc  Sc86  1  0.29708072  0.09877531  0.10834445  1
  Sc  Sc87  1  0.29898633  0.30794661  0.10783951  1
  Sc  Sc88  1  0.68882744  0.70079907  0.70311913  1
  Sc  Sc89  1  0.29370800  0.69211486  0.69690034  1
  Sc  Sc90  1  0.71018478  0.30275223  0.69961746  1
  Sc  Sc91  1  0.29793808  0.50718470  0.49778954  1
  Sc  Sc92  1  0.89287827  0.29358127  0.89028066  1
  Sc  Sc93  1  0.69823067  0.49687922  0.89234204  1
  Sc  Sc94  1  0.10022673  0.09980458  0.50752108  1
  Sc  Sc95  1  0.29742353  0.69081614  0.30221236  1
  Sc  Sc96  1  0.09851334  0.10253708  0.09186124  1
  Sc  Sc97  1  0.70004423  0.89669318  0.28590089  1
  Sc  Sc98  1  0.10449075  0.70144757  0.89829613  1
  Sc  Sc99  1  0.69010536  0.90738210  0.51001427  1
  Nb  Nb100  1  0.30211602  0.70784197  0.08680678  1
  Nb  Nb101  1  0.70366283  0.50695125  0.10391938  1
  Nb  Nb102  1  0.49704565  0.10451858  0.09938044  1
  Nb  Nb103  1  0.90222358  0.90179327  0.29841036  1
  Nb  Nb104  1  0.89497881  0.69400160  0.09374369  1
  Nb  Nb105  1  0.90179919  0.29874411  0.69998978  1
  Nb  Nb106  1  0.90591469  0.69684345  0.69840506  1
  Nb  Nb107  1  0.30909686  0.69499677  0.50310214  1
  Nb  Nb108  1  0.50363113  0.30285378  0.50398758  1
  Nb  Nb109  1  0.90466557  0.89561347  0.89882903  1
  Nb  Nb110  1  0.49860134  0.69360619  0.69827164  1
  Nb  Nb111  1  0.10262161  0.90148624  0.10271424  1
  Nb  Nb112  1  0.69424669  0.49878673  0.29068565  1
  Nb  Nb113  1  0.70280869  0.29897718  0.30304133  1
  Nb  Nb114  1  0.30635002  0.70151866  0.91101888  1
  Nb  Nb115  1  0.50484447  0.51148333  0.70015775  1
  Nb  Nb116  1  0.90172150  0.49910914  0.90104114  1
  Nb  Nb117  1  0.70798524  0.68862112  0.09681024  1
  Nb  Nb118  1  0.49448530  0.89109518  0.29956825  1
  Nb  Nb119  1  0.29961342  0.10061088  0.89949609  1
  Nb  Nb120  1  0.50045584  0.29925891  0.90123362  1
  Nb  Nb121  1  0.69810591  0.49945005  0.70233247  1
  Nb  Nb122  1  0.11159940  0.10223394  0.90043622  1
  Nb  Nb123  1  0.49451841  0.69853798  0.50863283  1
  Nb  Nb124  1  0.49780532  0.50426165  0.30459258  1
  Nb  Nb125  1  0.59606109  0.59768412  0.39675421  1
  Nb  Nb126  1  0.40575217  0.39805113  -0.00486110  1
  Nb  Nb127  1  0.40003332  0.79117617  0.80058077  1
  Nb  Nb128  1  0.78725733  0.20770665  0.19626196  1
  Nb  Nb129  1  0.60711119  0.59477400  0.00413029  1
  Nb  Nb130  1  0.79984719  0.40313134  -0.00132909  1
  Nb  Nb131  1  0.78886192  0.20606175  0.00711272  1
  Nb  Nb132  1  0.59993079  -0.00007245  0.79762758  1
  Nb  Nb133  1  0.40045513  0.01019159  -0.00191387  1
  Nb  Nb134  1  0.80646400  0.79838770  0.60453589  1
  Nb  Nb135  1  0.00301161  0.59842771  0.39175572  1
  Nb  Nb136  1  0.40029349  0.20197613  -0.00300573  1
  Nb  Nb137  1  0.59657398  0.20113364  0.00682975  1
  Nb  Nb138  1  0.80516968  -0.00466139  0.39578687  1
  Nb  Nb139  1  0.59260125  0.20671854  0.59701046  1
  Nb  Nb140  1  -0.00339706  0.39964130  0.79642098  1
  Nb  Nb141  1  0.19481249  0.20531624  0.20402594  1
  Nb  Nb142  1  0.00218564  -0.00998268  0.19856617  1
  Nb  Nb143  1  0.40208862  -0.00401749  0.60122289  1
  Nb  Nb144  1  0.60001443  0.20090462  0.20199680  1
  Nb  Nb145  1  -0.00347743  0.60650156  0.19886658  1
  Nb  Nb146  1  0.39408222  0.80195464  0.19689022  1
  Nb  Nb147  1  -0.00286358  0.79686228  0.60447272  1
  Nb  Nb148  1  0.80532002  0.59604117  0.79403714  1
  Nb  Nb149  1  0.59223983  0.79374672  0.39890912  1
  Pd  Pd150  1  0.60734957  0.19989890  0.78797098  1
  Pd  Pd151  1  0.79657234  0.59191264  0.39197077  1
  Pd  Pd152  1  -0.00210709  0.40846857  0.19921760  1
  Pd  Pd153  1  0.59369650  -0.00001397  0.20436760  1
  Pd  Pd154  1  0.80311728  0.00278977  -0.00279157  1
  Pd  Pd155  1  0.80181902  0.79839389  0.19161747  1
  Pd  Pd156  1  0.40034575  0.78767617  0.39171572  1
  Pd  Pd157  1  0.79193155  0.60646922  0.60828036  1
  Pd  Pd158  1  0.00718131  0.20118653  0.80344742  1
  Pd  Pd159  1  0.39373184  0.40616514  0.59850544  1
  Pd  Pd160  1  0.79861563  0.00511383  0.80269207  1
  Pd  Pd161  1  0.41153228  0.58900662  0.01066164  1
  Pd  Pd162  1  -0.00203578  0.79891319  0.19229149  1
  Pd  Pd163  1  0.40395632  -0.01484171  0.80042725  1
  Pd  Pd164  1  0.60410875  0.60157925  0.59558317  1
  Pd  Pd165  1  0.60692361  0.79164904  -0.00210535  1
  Pd  Pd166  1  0.19962908  0.60593063  0.19442402  1
  Pd  Pd167  1  0.20681428  0.79495005  0.80550688  1
  Pd  Pd168  1  0.00378749  0.79765250  0.00018632  1
  Pd  Pd169  1  0.80672784  0.79182248  0.79452124  1
  Pd  Pd170  1  0.59860248  0.39679997  0.79021248  1
  Pd  Pd171  1  0.59578299  0.80171359  0.80772541  1
  Pd  Pd172  1  0.80705759  0.39587370  0.19377649  1
  Pd  Pd173  1  -0.00419971  0.19517959  0.40995713  1
  Pd  Pd174  1  0.39829218  0.60563796  0.18813023  1
  Pd  Pd175  1  0.39609431  0.19551018  0.40149907  1
  Pd  Pd176  1  0.60635831  -0.01272638  0.38905435  1
  Pd  Pd177  1  0.59250266  0.19495479  0.39721122  1
  Pd  Pd178  1  0.39991989  -0.01087459  0.18992718  1
  Pd  Pd179  1  0.21146613  0.19901148  0.00907554  1
  Pd  Pd180  1  0.19644503  0.79947811  0.60422059  1
  Pd  Pd181  1  0.59522730  0.00325673  -0.00775186  1
  Pd  Pd182  1  -0.00116592  0.00493603  0.00237455  1
  Pd  Pd183  1  -0.00150106  0.59280894  0.80419957  1
  Pd  Pd184  1  0.20279221  0.79279126  0.40359783  1
  Pd  Pd185  1  0.39389966  0.19963284  0.20643700  1
  Pd  Pd186  1  0.39761772  0.19273522  0.59553310  1
  Pd  Pd187  1  0.59471825  0.39349776  0.21572180  1
  Pd  Pd188  1  0.21017009  0.40596598  0.00028302  1
  Pd  Pd189  1  -0.00145200  -0.00795097  0.60679190  1
  Pd  Pd190  1  0.78381523  0.81405005  0.40538098  1
  Pd  Pd191  1  0.79682178  0.39448870  0.59570650  1
  Pd  Pd192  1  -0.00909632  0.19955381  -0.00449453  1
  Pd  Pd193  1  0.20881839  0.40144122  0.59525987  1
  Pd  Pd194  1  0.38849875  0.80135184  0.61180399  1
  Pd  Pd195  1  0.20387395  0.20180721  0.39649433  1
  Pd  Pd196  1  -0.00328479  0.00874871  0.39557720  1
  Pd  Pd197  1  0.79459634  0.40547839  0.40271477  1
  Pd  Pd198  1  0.18906759  0.00922880  0.20233421  1
  Pd  Pd199  1  0.80991674  0.60348822  0.20899608  1
  Rh  Rh200  1  0.39505518  0.60847736  0.79261946  1
  Rh  Rh201  1  0.60291364  0.40982250  0.39510356  1
  Rh  Rh202  1  0.79210725  0.59274812  -0.01438699  1
  Rh  Rh203  1  0.39612499  0.81394143  0.00086146  1
  Rh  Rh204  1  -0.00148944  0.80388488  0.79867753  1
  Rh  Rh205  1  0.59057084  0.01529582  0.61154440  1
  Rh  Rh206  1  0.59196418  0.79436668  0.20094436  1
  Rh  Rh207  1  0.59978821  0.40672735  -0.00725342  1
  Rh  Rh208  1  0.40647852  0.60092771  0.40784133  1
  Rh  Rh209  1  0.79781553  0.19643130  0.80037038  1
  Rh  Rh210  1  0.19694498  -0.00022839  0.40131416  1
  Rh  Rh211  1  0.39027785  0.20923147  0.80206947  1
  Rh  Rh212  1  0.19705335  0.19712487  0.79931653  1
  Rh  Rh213  1  0.39829984  0.40868386  0.19911418  1
  Rh  Rh214  1  0.39880415  0.59446685  0.60296610  1
  Rh  Rh215  1  0.39853899  0.40539749  0.40949203  1
  Rh  Rh216  1  0.19890409  0.60173156  0.40191555  1
  Rh  Rh217  1  0.20360916  0.59702010  0.59979557  1
  Rh  Rh218  1  0.79266000  0.21064027  0.59426672  1
  Rh  Rh219  1  0.39648003  -0.00149746  0.40682338  1
  Rh  Rh220  1  0.01266064  0.78724594  0.41078671  1
  Rh  Rh221  1  0.00544155  0.60805172  0.58809974  1
  Rh  Rh222  1  0.19581418  0.00394670  0.80361818  1
  Rh  Rh223  1  0.19824703  0.60260975  0.00040052  1
  Rh  Rh224  1  0.20598976  -0.00070294  0.60279156  1
  Rh  Rh225  1  0.20096730  0.39606490  0.20359470  1
  Rh  Rh226  1  0.59716424  0.60428558  0.19836740  1
  Rh  Rh227  1  0.60815431  0.60164785  0.80357090  1
  Rh  Rh228  1  0.80852164  0.40719469  0.80232653  1
  Rh  Rh229  1  0.00723937  0.19028998  0.19810145  1
  Rh  Rh230  1  0.39908353  0.39926003  0.80226548  1
  Rh  Rh231  1  0.20299867  0.60402711  0.80495405  1
  Rh  Rh232  1  0.20577352  0.39904655  0.40397958  1
  Rh  Rh233  1  0.80675742  0.19242321  0.39821058  1
  Rh  Rh234  1  0.00240444  0.20388382  0.59823080  1
  Rh  Rh235  1  0.18878096  0.40590365  0.80098802  1
  Rh  Rh236  1  0.60206617  0.39476081  0.60978668  1
  Rh  Rh237  1  0.00371075  0.00707134  0.80603332  1
  Rh  Rh238  1  0.21132701  0.79712266  0.19803559  1
  Rh  Rh239  1  0.81127098  0.00370676  0.20418106  1
  Rh  Rh240  1  -0.00958602  0.39083494  -0.01393286  1
  Rh  Rh241  1  0.20317284  0.00456413  -0.00190127  1
  Rh  Rh242  1  0.60648020  0.78784142  0.59215266  1
  Rh  Rh243  1  0.19573441  0.80574824  -0.00643410  1
  Rh  Rh244  1  0.80122764  0.79872071  0.00080401  1
  Rh  Rh245  1  0.00015349  0.39168356  0.60513277  1
  Rh  Rh246  1  0.00759699  0.60850416  0.00402092  1
  Rh  Rh247  1  0.81041534  -0.01515316  0.59063976  1
  Rh  Rh248  1  0.19944446  0.19919950  0.60006862  1
  Rh  Rh249  1  0.00002312  0.40350606  0.40298386  1
