# generated using pymatgen
data_ZrScNbPdRh
_symmetry_space_group_name_H-M   'P 1'
_cell_length_a   16.55907004
_cell_length_b   16.55974328
_cell_length_c   16.56211770
_cell_angle_alpha   90.02083616
_cell_angle_beta   89.96632494
_cell_angle_gamma   90.00791650
_symmetry_Int_Tables_number   1
_chemical_formula_structural   ZrScNbPdRh
_chemical_formula_sum   'Zr50 Sc50 Nb50 Pd50 Rh50'
_cell_volume   4541.56256674
_cell_formula_units_Z   50
loop_
 _symmetry_equiv_pos_site_id
 _symmetry_equiv_pos_as_xyz
  1  'x, y, z'
loop_
 _atom_site_type_symbol
 _atom_site_label
 _atom_site_symmetry_multiplicity
 _atom_site_fract_x
 _atom_site_fract_y
 _atom_site_fract_z
 _atom_site_occupancy
  Zr  Zr0  1  0.69130554  0.50186210  0.10280813  1
  Zr  Zr1  1  0.69447615  0.09608956  0.90574882  1
  Zr  Zr2  1  0.49636313  0.89428248  0.89648584  1
  Zr  Zr3  1  0.69372259  0.90088382  0.50376198  1
  Zr  Zr4  1  0.10863209  0.30022933  0.09653987  1
  Zr  Zr5  1  0.50390223  0.10677344  0.08823374  1
  Zr  Zr6  1  0.89864694  0.50100410  0.89938068  1
  Zr  Zr7  1  0.69799127  0.30436869  0.10254950  1
  Zr  Zr8  1  0.89598270  0.29943778  0.69311334  1
  Zr  Zr9  1  0.89951358  0.89318131  0.50444672  1
  Zr  Zr10  1  0.29750238  0.69425208  0.71343511  1
  Zr  Zr11  1  0.29479330  0.50431320  0.30279833  1
  Zr  Zr12  1  0.30442610  0.49974706  0.70083171  1
  Zr  Zr13  1  0.69890844  0.49947034  0.49075620  1
  Zr  Zr14  1  0.49945344  0.49863489  0.90145476  1
  Zr  Zr15  1  0.90113841  0.48959534  0.70322393  1
  Zr  Zr16  1  0.09861240  0.89864757  0.89764218  1
  Zr  Zr17  1  0.49198032  0.49845197  0.70167422  1
  Zr  Zr18  1  0.69960376  0.09896693  0.69576122  1
  Zr  Zr19  1  0.10286882  0.69686798  0.29721794  1
  Zr  Zr20  1  0.09724679  0.89207141  0.49608178  1
  Zr  Zr21  1  0.10480258  0.10576236  0.30308779  1
  Zr  Zr22  1  0.90324633  0.90697135  0.90067500  1
  Zr  Zr23  1  0.09540930  0.10612503  0.10152437  1
  Zr  Zr24  1  0.50163625  0.50519381  0.09539365  1
  Zr  Zr25  1  0.49843837  0.09646403  0.30686461  1
  Zr  Zr26  1  0.49961868  0.70460691  0.10201572  1
  Zr  Zr27  1  0.09046652  0.09703825  0.90651458  1
  Zr  Zr28  1  0.10595300  0.10304122  0.49858008  1
  Zr  Zr29  1  0.89574139  0.49492960  0.30659017  1
  Zr  Zr30  1  0.89608962  0.69080311  0.29700725  1
  Zr  Zr31  1  0.11148387  0.69626901  0.90206956  1
  Zr  Zr32  1  0.70342730  0.09981963  0.30852730  1
  Zr  Zr33  1  0.49580295  0.10751436  0.89791805  1
  Zr  Zr34  1  0.30394769  0.90091809  0.49645272  1
  Zr  Zr35  1  0.10170581  0.30078669  0.69922509  1
  Zr  Zr36  1  0.30090156  0.30697683  0.30428380  1
  Zr  Zr37  1  0.30374992  0.50582556  0.89582319  1
  Zr  Zr38  1  0.89804444  0.70266801  0.69769700  1
  Zr  Zr39  1  0.50118172  0.50375226  0.49571027  1
  Zr  Zr40  1  0.70014333  0.68904045  0.29352853  1
  Zr  Zr41  1  0.89871621  0.10876041  0.49864684  1
  Zr  Zr42  1  0.89537081  0.08789370  0.90332623  1
  Zr  Zr43  1  0.69651785  0.70467117  0.89381456  1
  Zr  Zr44  1  0.89774849  0.70682385  0.89888366  1
  Zr  Zr45  1  0.70164591  0.30020815  0.50491947  1
  Zr  Zr46  1  0.90342482  0.70209579  0.11092166  1
  Zr  Zr47  1  0.29915676  0.10037999  0.30772500  1
  Zr  Zr48  1  0.69856964  0.90865351  0.29947581  1
  Zr  Zr49  1  0.89806956  0.10571720  0.30249138  1
  Sc  Sc50  1  0.29329106  0.11158261  0.10040720  1
  Sc  Sc51  1  0.70819703  0.89874510  0.90463807  1
  Sc  Sc52  1  0.49899174  0.89762834  0.29602315  1
  Sc  Sc53  1  0.30097139  0.49393953  0.09863263  1
  Sc  Sc54  1  0.69667162  0.09299289  0.09822174  1
  Sc  Sc55  1  0.69766661  0.30435423  0.69426733  1
  Sc  Sc56  1  0.09935425  0.49028590  0.90915697  1
  Sc  Sc57  1  0.50356730  0.70351276  0.69804032  1
  Sc  Sc58  1  0.10213803  0.89819551  0.10806055  1
  Sc  Sc59  1  0.90346344  0.29808740  0.11401337  1
  Sc  Sc60  1  0.10396567  0.90177487  0.30571035  1
  Sc  Sc61  1  0.90655804  0.70243354  0.50807733  1
  Sc  Sc62  1  0.50294808  0.89426279  0.69191187  1
  Sc  Sc63  1  0.30221902  0.10140028  0.49376035  1
  Sc  Sc64  1  0.31170338  0.89002270  0.70496006  1
  Sc  Sc65  1  0.90213577  0.10208776  0.09665713  1
  Sc  Sc66  1  0.30568489  0.69494545  0.48419113  1
  Sc  Sc67  1  0.49885650  0.10155508  0.69930962  1
  Sc  Sc68  1  0.90184859  0.09390324  0.70653182  1
  Sc  Sc69  1  0.90233299  0.89404681  0.71010529  1
  Sc  Sc70  1  0.89488567  0.90294159  0.10004126  1
  Sc  Sc71  1  0.70991784  0.31086424  0.30052416  1
  Sc  Sc72  1  0.30106179  0.50360447  0.49838582  1
  Sc  Sc73  1  0.69815460  0.88792888  0.70019487  1
  Sc  Sc74  1  0.09841367  0.69592306  0.69570251  1
  Sc  Sc75  1  0.49821965  0.30876519  0.08942647  1
  Sc  Sc76  1  0.30152069  0.11308712  0.70133864  1
  Sc  Sc77  1  0.10396474  0.11186509  0.69414304  1
  Sc  Sc78  1  0.10477224  0.49820389  0.69098581  1
  Sc  Sc79  1  0.69754790  0.69096518  0.50362089  1
  Sc  Sc80  1  0.69889541  0.09817446  0.49684133  1
  Sc  Sc81  1  0.68580908  0.30494993  0.89628041  1
  Sc  Sc82  1  0.49636217  0.89669210  0.50340979  1
  Sc  Sc83  1  0.90360557  0.31682074  0.89005164  1
  Sc  Sc84  1  0.30048355  0.89666970  0.30145914  1
  Sc  Sc85  1  0.89752045  0.30376744  0.50056503  1
  Sc  Sc86  1  0.90289609  0.30295768  0.30417557  1
  Sc  Sc87  1  0.49890182  0.69593898  0.90059519  1
  Sc  Sc88  1  0.70097146  0.50191513  0.29870667  1
  Sc  Sc89  1  0.10442055  0.49646525  0.09818506  1
  Sc  Sc90  1  0.90026391  0.90008277  0.29894812  1
  Sc  Sc91  1  0.90483375  0.50378008  0.10606150  1
  Sc  Sc92  1  0.49096236  0.69162050  0.29544043  1
  Sc  Sc93  1  0.50126078  0.08697694  0.50112356  1
  Sc  Sc94  1  0.10136435  0.29603999  0.50265819  1
  Sc  Sc95  1  0.10554649  0.50062504  0.50352833  1
  Sc  Sc96  1  0.29668643  0.30466610  0.70597061  1
  Sc  Sc97  1  0.49460543  0.29745150  0.89571830  1
  Sc  Sc98  1  0.30270651  0.88527668  0.10313460  1
  Sc  Sc99  1  0.69240112  0.50284118  0.89290029  1
  Nb  Nb100  1  0.49331688  0.30431623  0.30840141  1
  Nb  Nb101  1  0.50092287  0.30968120  0.49466931  1
  Nb  Nb102  1  0.68804663  0.89575653  0.10081805  1
  Nb  Nb103  1  0.50179394  0.49364536  0.30293338  1
  Nb  Nb104  1  0.09952244  0.31122288  0.29851654  1
  Nb  Nb105  1  0.90010873  0.50339528  0.50109419  1
  Nb  Nb106  1  0.30013184  0.30170466  0.09838155  1
  Nb  Nb107  1  0.09794564  0.70031232  0.10159624  1
  Nb  Nb108  1  0.49484816  0.30251544  0.69329578  1
  Nb  Nb109  1  0.10436963  0.90196180  0.70065905  1
  Nb  Nb110  1  0.70248304  0.70069408  0.70010993  1
  Nb  Nb111  1  0.50215968  0.90470108  0.09961294  1
  Nb  Nb112  1  0.29790587  0.29479969  0.90117324  1
  Nb  Nb113  1  0.29880909  0.89499655  0.89758710  1
  Nb  Nb114  1  0.50531512  0.69615820  0.49459723  1
  Nb  Nb115  1  0.29565067  0.69710752  0.10935447  1
  Nb  Nb116  1  0.10062365  0.30094728  0.89932035  1
  Nb  Nb117  1  0.70451350  0.50235612  0.70018893  1
  Nb  Nb118  1  0.29884995  0.71130333  0.90136688  1
  Nb  Nb119  1  0.10143393  0.49029735  0.30939234  1
  Nb  Nb120  1  0.30928942  0.29407589  0.49212482  1
  Nb  Nb121  1  0.30080852  0.69602050  0.28817307  1
  Nb  Nb122  1  0.30720368  0.09828930  0.89604752  1
  Nb  Nb123  1  0.09579849  0.69785870  0.50107761  1
  Nb  Nb124  1  0.69941949  0.69966396  0.09975948  1
  Nb  Nb125  1  0.20026064  0.79912822  0.59680674  1
  Nb  Nb126  1  0.59334821  0.20460384  0.20842783  1
  Nb  Nb127  1  0.79917621  0.59501742  0.60680885  1
  Nb  Nb128  1  -0.00132445  0.59651031  0.80112615  1
  Nb  Nb129  1  0.60122699  0.79207500  0.39902785  1
  Nb  Nb130  1  0.40367392  0.20438729  0.20274689  1
  Nb  Nb131  1  0.20565245  -0.00062462  0.80214220  1
  Nb  Nb132  1  0.79274400  0.79615608  0.39933921  1
  Nb  Nb133  1  0.40146755  0.00485518  0.18982250  1
  Nb  Nb134  1  -0.00154397  0.20438645  0.80459539  1
  Nb  Nb135  1  0.20018013  -0.00685423  0.60402964  1
  Nb  Nb136  1  0.20870446  -0.00197034  -0.00612873  1
  Nb  Nb137  1  0.79760148  0.40350654  0.00119664  1
  Nb  Nb138  1  0.00483014  0.79469972  0.00450721  1
  Nb  Nb139  1  0.00367537  -0.00222060  0.59939850  1
  Nb  Nb140  1  0.80478118  -0.00400295  0.59941665  1
  Nb  Nb141  1  0.80105808  0.19963514  0.80607964  1
  Nb  Nb142  1  0.79560493  0.60323029  0.00281230  1
  Nb  Nb143  1  0.00485070  0.59639523  0.40197266  1
  Nb  Nb144  1  0.00294607  0.00739122  0.20433652  1
  Nb  Nb145  1  0.59398678  0.21021896  0.39859502  1
  Nb  Nb146  1  0.59833561  -0.00122223  0.80264681  1
  Nb  Nb147  1  0.79918230  0.20811159  -0.00672097  1
  Nb  Nb148  1  0.40678931  0.21093123  0.59338939  1
  Nb  Nb149  1  0.39482354  -0.00281724  -0.00135799  1
  Pd  Pd150  1  0.59329112  0.60128667  0.79314487  1
  Pd  Pd151  1  0.40258316  -0.00216367  0.79551242  1
  Pd  Pd152  1  -0.00414171  0.00132969  0.39917186  1
  Pd  Pd153  1  0.59871421  0.79997247  -0.00306687  1
  Pd  Pd154  1  0.00369478  0.40281756  0.19749169  1
  Pd  Pd155  1  0.20358334  0.79215227  0.40058258  1
  Pd  Pd156  1  0.60328595  0.59736999  0.60719800  1
  Pd  Pd157  1  0.39125867  0.00900831  0.60756717  1
  Pd  Pd158  1  0.39493915  0.39738527  -0.00762369  1
  Pd  Pd159  1  0.80374960  0.79920726  0.00662226  1
  Pd  Pd160  1  0.19923595  0.80161549  0.20535304  1
  Pd  Pd161  1  0.20486778  0.21031795  0.20708698  1
  Pd  Pd162  1  0.19663193  0.80210400  0.00684158  1
  Pd  Pd163  1  0.20337844  0.19527182  -0.00850569  1
  Pd  Pd164  1  0.19433773  0.19400130  0.80867983  1
  Pd  Pd165  1  0.59766780  0.79592264  0.20710042  1
  Pd  Pd166  1  0.00838864  0.79068263  0.80168880  1
  Pd  Pd167  1  -0.01374027  0.21497480  -0.00774730  1
  Pd  Pd168  1  0.18971123  0.58843535  0.80124603  1
  Pd  Pd169  1  0.19410256  0.59094502  0.19582850  1
  Pd  Pd170  1  0.01085377  0.58775597  0.20795309  1
  Pd  Pd171  1  0.79439619  0.80655557  0.20346956  1
  Pd  Pd172  1  0.39069228  0.61005568  0.00068062  1
  Pd  Pd173  1  -0.00373929  0.60594842  -0.00347128  1
  Pd  Pd174  1  0.20149976  0.39643096  0.41153236  1
  Pd  Pd175  1  0.00358819  0.39904427  0.59255261  1
  Pd  Pd176  1  0.20878566  0.59910803  0.00610844  1
  Pd  Pd177  1  0.39291126  0.39799876  0.59336722  1
  Pd  Pd178  1  0.80464766  0.00413250  0.19394753  1
  Pd  Pd179  1  0.20762442  0.60915098  0.59374920  1
  Pd  Pd180  1  0.40769145  0.79724618  0.39334341  1
  Pd  Pd181  1  0.59468415  0.00813855  0.19939568  1
  Pd  Pd182  1  0.39940277  0.79834815  0.00362301  1
  Pd  Pd183  1  0.80273349  0.60104113  0.80038642  1
  Pd  Pd184  1  0.60101591  0.40846589  0.60277115  1
  Pd  Pd185  1  0.19896349  0.40587846  0.80476237  1
  Pd  Pd186  1  0.60199537  0.19813124  0.79364735  1
  Pd  Pd187  1  0.20533533  -0.00159274  0.19300554  1
  Pd  Pd188  1  0.59388334  0.39557317  0.20583345  1
  Pd  Pd189  1  0.21002845  0.39238462  0.59248165  1
  Pd  Pd190  1  0.79183201  0.19651559  0.19394652  1
  Pd  Pd191  1  0.40073481  0.39933338  0.19833732  1
  Pd  Pd192  1  0.39791205  0.60882246  0.59820384  1
  Pd  Pd193  1  -0.00815075  0.79044521  0.38996801  1
  Pd  Pd194  1  0.59201818  0.19739086  0.59027897  1
  Pd  Pd195  1  0.39346694  0.78648917  0.59806739  1
  Pd  Pd196  1  0.00372199  0.21068549  0.39806259  1
  Pd  Pd197  1  -0.00728985  0.39385010  0.00941648  1
  Pd  Pd198  1  0.59658394  0.39960606  0.79136251  1
  Pd  Pd199  1  0.40106566  0.59169851  0.19888902  1
  Rh  Rh200  1  0.60714765  0.20994708  0.00593266  1
  Rh  Rh201  1  0.79266871  -0.00134088  0.00982060  1
  Rh  Rh202  1  0.40390045  0.60585741  0.80485771  1
  Rh  Rh203  1  0.79270814  0.79602231  0.59662576  1
  Rh  Rh204  1  0.59280699  0.60003591  0.20096317  1
  Rh  Rh205  1  0.40053871  -0.00802860  0.39269426  1
  Rh  Rh206  1  0.20262848  -0.00181173  0.40675794  1
  Rh  Rh207  1  0.19568224  0.20984553  0.39835558  1
  Rh  Rh208  1  0.39629793  0.41265659  0.40277410  1
  Rh  Rh209  1  0.20816198  0.39532343  -0.00419333  1
  Rh  Rh210  1  0.59442753  -0.00819250  0.40340209  1
  Rh  Rh211  1  0.00138950  0.80973107  0.19899809  1
  Rh  Rh212  1  0.19995514  0.40047609  0.19922772  1
  Rh  Rh213  1  0.59985901  0.79116221  0.59155915  1
  Rh  Rh214  1  0.79607613  0.59255261  0.18994957  1
  Rh  Rh215  1  0.00433644  0.19792908  0.20957276  1
  Rh  Rh216  1  0.40241255  0.59652671  0.39193369  1
  Rh  Rh217  1  0.60516236  0.39782680  0.39427824  1
  Rh  Rh218  1  0.59515236  -0.01164179  -0.00833818  1
  Rh  Rh219  1  -0.00710476  0.59549184  0.60138982  1
  Rh  Rh220  1  0.60517881  0.60631256  0.00055367  1
  Rh  Rh221  1  0.40974861  0.19737756  0.40492547  1
  Rh  Rh222  1  0.79199254  0.20856684  0.40065161  1
  Rh  Rh223  1  0.40064144  0.80273196  0.19985551  1
  Rh  Rh224  1  0.79731338  0.80532523  0.79941865  1
  Rh  Rh225  1  0.78649120  0.39238857  0.80445328  1
  Rh  Rh226  1  0.01427111  0.40167284  0.79477422  1
  Rh  Rh227  1  0.80156898  0.39867233  0.40419462  1
  Rh  Rh228  1  0.80546642  -0.00931682  0.41014107  1
  Rh  Rh229  1  0.01125391  0.80512446  0.60967952  1
  Rh  Rh230  1  0.39106302  0.20187152  0.00343529  1
  Rh  Rh231  1  0.79529779  0.40981253  0.59479288  1
  Rh  Rh232  1  0.59223669  0.60197029  0.39042197  1
  Rh  Rh233  1  0.40480666  0.79207582  0.80007250  1
  Rh  Rh234  1  0.81149665  0.60908351  0.41417163  1
  Rh  Rh235  1  0.00144113  0.40463613  0.40756980  1
  Rh  Rh236  1  0.78631988  -0.00079619  0.79075196  1
  Rh  Rh237  1  0.01510879  0.01190038  0.78669962  1
  Rh  Rh238  1  0.60528618  -0.00401288  0.60868146  1
  Rh  Rh239  1  0.80424767  0.19079738  0.60627859  1
  Rh  Rh240  1  0.60009233  0.80338544  0.80046080  1
  Rh  Rh241  1  0.20027778  0.80374937  0.79119052  1
  Rh  Rh242  1  0.80571879  0.40704867  0.19544084  1
  Rh  Rh243  1  0.21612490  0.20101071  0.59149336  1
  Rh  Rh244  1  0.40023603  0.20943537  0.79094308  1
  Rh  Rh245  1  -0.00667031  0.19537197  0.60636560  1
  Rh  Rh246  1  0.39821576  0.39425267  0.80509613  1
  Rh  Rh247  1  0.00864238  -0.01272959  0.01611415  1
  Rh  Rh248  1  0.60021908  0.40260829  -0.00507967  1
  Rh  Rh249  1  0.19437116  0.60426626  0.39834485  1
