# generated using pymatgen
data_ZrScNbPdRh
_symmetry_space_group_name_H-M   'P 1'
_cell_length_a   16.56299833
_cell_length_b   16.56540224
_cell_length_c   16.56525611
_cell_angle_alpha   89.97950787
_cell_angle_beta   90.01063484
_cell_angle_gamma   89.94737387
_symmetry_Int_Tables_number   1
_chemical_formula_structural   ZrScNbPdRh
_chemical_formula_sum   'Zr50 Sc50 Nb50 Pd50 Rh50'
_cell_volume   4545.05224960
_cell_formula_units_Z   50
loop_
 _symmetry_equiv_pos_site_id
 _symmetry_equiv_pos_as_xyz
  1  'x, y, z'
loop_
 _atom_site_type_symbol
 _atom_site_label
 _atom_site_symmetry_multiplicity
 _atom_site_fract_x
 _atom_site_fract_y
 _atom_site_fract_z
 _atom_site_occupancy
  Zr  Zr0  1  0.09895513  0.29946725  0.90532615  1
  Zr  Zr1  1  0.89961895  0.69428912  0.29926783  1
  Zr  Zr2  1  0.49551594  0.89391561  0.29792252  1
  Zr  Zr3  1  0.10700422  0.49705359  0.30690598  1
  Zr  Zr4  1  0.09856343  0.50431160  0.50557634  1
  Zr  Zr5  1  0.50460760  0.10333145  0.89794699  1
  Zr  Zr6  1  0.49365969  0.49723052  0.29866617  1
  Zr  Zr7  1  0.89389745  0.89268507  0.49502085  1
  Zr  Zr8  1  0.09475676  0.68464148  0.69809287  1
  Zr  Zr9  1  0.89937285  0.30026272  0.69753805  1
  Zr  Zr10  1  0.09945125  0.89876018  0.49090243  1
  Zr  Zr11  1  0.90242547  0.10544465  0.30246164  1
  Zr  Zr12  1  0.70655847  0.50249442  0.89992693  1
  Zr  Zr13  1  0.69790483  0.70010113  0.28977924  1
  Zr  Zr14  1  0.50128535  0.30110991  0.10622538  1
  Zr  Zr15  1  0.49684004  0.50774960  0.90174898  1
  Zr  Zr16  1  0.69807923  0.30242009  0.89982360  1
  Zr  Zr17  1  0.89734296  0.89287722  0.30043991  1
  Zr  Zr18  1  0.89698356  0.49594394  0.90134260  1
  Zr  Zr19  1  0.49894400  0.70656000  0.50479987  1
  Zr  Zr20  1  0.10479508  0.09506715  0.69973808  1
  Zr  Zr21  1  0.89263422  0.49697245  0.10284059  1
  Zr  Zr22  1  0.09938555  0.69722408  0.49105736  1
  Zr  Zr23  1  0.70508987  0.08494293  0.10607274  1
  Zr  Zr24  1  0.30571087  0.70204559  0.69928009  1
  Zr  Zr25  1  0.70331194  0.90143095  0.29740293  1
  Zr  Zr26  1  0.29434103  0.50226606  0.48584429  1
  Zr  Zr27  1  0.30013968  0.50442315  0.91127224  1
  Zr  Zr28  1  0.69993737  0.70721474  0.89745285  1
  Zr  Zr29  1  0.90618547  0.29802914  0.10530614  1
  Zr  Zr30  1  0.89840598  0.49887372  0.29825091  1
  Zr  Zr31  1  0.49710958  0.70397915  0.89916146  1
  Zr  Zr32  1  0.50631261  0.89789209  0.89669293  1
  Zr  Zr33  1  0.30378862  0.69348469  0.90165127  1
  Zr  Zr34  1  0.30257436  0.50397763  0.10391572  1
  Zr  Zr35  1  0.69157968  0.10079785  0.29951777  1
  Zr  Zr36  1  0.69840187  0.30878600  0.50135948  1
  Zr  Zr37  1  0.10491417  0.09093336  0.90251637  1
  Zr  Zr38  1  0.10068071  0.69692597  0.10356071  1
  Zr  Zr39  1  0.50592608  0.89943731  0.69769981  1
  Zr  Zr40  1  0.90457198  0.89321991  0.90590053  1
  Zr  Zr41  1  0.30145374  0.70528663  0.49647705  1
  Zr  Zr42  1  0.89569381  0.90864033  0.09334985  1
  Zr  Zr43  1  0.89693670  0.70283277  0.88716157  1
  Zr  Zr44  1  0.09891674  0.09781062  0.49534830  1
  Zr  Zr45  1  0.88873108  0.10161963  0.69907900  1
  Zr  Zr46  1  0.89707177  0.29850249  0.49562823  1
  Zr  Zr47  1  0.49656687  0.11087645  0.30173585  1
  Zr  Zr48  1  0.30346650  0.10475774  0.90870308  1
  Zr  Zr49  1  0.51209542  0.10396832  0.69316418  1
  Sc  Sc50  1  0.29448244  0.89678858  0.30116804  1
  Sc  Sc51  1  0.69724315  0.90055230  0.69491440  1
  Sc  Sc52  1  0.89953421  0.69918477  0.10418836  1
  Sc  Sc53  1  0.49345826  0.09808476  0.10474651  1
  Sc  Sc54  1  0.89400007  0.89849363  0.70181541  1
  Sc  Sc55  1  0.49326813  0.89886294  0.09982508  1
  Sc  Sc56  1  0.50369875  0.30082612  0.50207939  1
  Sc  Sc57  1  0.29953653  0.89982312  0.10863315  1
  Sc  Sc58  1  0.30221052  0.90884598  0.69227891  1
  Sc  Sc59  1  0.29849893  0.69382970  0.10540053  1
  Sc  Sc60  1  0.10148161  0.29255933  0.10476518  1
  Sc  Sc61  1  0.89790170  0.69037565  0.49898299  1
  Sc  Sc62  1  0.49788024  0.69797459  0.29877447  1
  Sc  Sc63  1  0.70436255  0.88969755  0.10481553  1
  Sc  Sc64  1  0.29902445  0.70349785  0.29820741  1
  Sc  Sc65  1  0.30562830  0.30479512  0.68775668  1
  Sc  Sc66  1  0.31002220  0.30503241  0.49906610  1
  Sc  Sc67  1  0.70930578  0.70308320  0.70152754  1
  Sc  Sc68  1  0.30696198  0.90724715  0.90929832  1
  Sc  Sc69  1  0.69893001  0.50308062  0.30420458  1
  Sc  Sc70  1  0.30185850  0.30129882  0.91290199  1
  Sc  Sc71  1  0.70010077  0.28854670  0.69331381  1
  Sc  Sc72  1  0.49987950  0.30414088  0.91243977  1
  Sc  Sc73  1  0.90120083  0.50368595  0.69924538  1
  Sc  Sc74  1  0.09306686  0.69662869  0.89490285  1
  Sc  Sc75  1  0.91118916  0.30653163  0.30318436  1
  Sc  Sc76  1  0.09875807  0.31074952  0.49501005  1
  Sc  Sc77  1  0.70073261  0.09923125  0.87980697  1
  Sc  Sc78  1  0.09829531  0.90967432  0.70103765  1
  Sc  Sc79  1  0.29979880  0.30040901  0.10014823  1
  Sc  Sc80  1  0.10005626  0.10373390  0.09995346  1
  Sc  Sc81  1  0.90026967  0.30683726  0.90581407  1
  Sc  Sc82  1  0.49913003  0.70408110  0.70547278  1
  Sc  Sc83  1  0.89852556  0.09487678  0.49897018  1
  Sc  Sc84  1  0.49443577  0.90025763  0.51160842  1
  Sc  Sc85  1  0.49501297  0.49539554  0.09871309  1
  Sc  Sc86  1  0.10121367  0.10182347  0.29903399  1
  Sc  Sc87  1  0.09755656  0.89638663  0.10108434  1
  Sc  Sc88  1  0.70710159  0.69835003  0.50561009  1
  Sc  Sc89  1  0.30438097  0.90310391  0.49372991  1
  Sc  Sc90  1  0.50080697  0.49831163  0.49413620  1
  Sc  Sc91  1  0.90114559  0.08569517  0.90649057  1
  Sc  Sc92  1  0.29901670  0.09822330  0.10045021  1
  Sc  Sc93  1  0.29917532  0.50785805  0.69066444  1
  Sc  Sc94  1  0.69534476  0.31413916  0.10050355  1
  Sc  Sc95  1  0.09886884  0.70144422  0.29690153  1
  Sc  Sc96  1  0.49825456  0.70422747  0.11023779  1
  Sc  Sc97  1  0.89092982  0.49621213  0.49222451  1
  Sc  Sc98  1  0.10894525  0.50366453  0.10504794  1
  Sc  Sc99  1  0.68308917  0.30399803  0.29994363  1
  Nb  Nb100  1  0.50258303  0.50024020  0.70342980  1
  Nb  Nb101  1  0.10061050  0.49336518  0.70100357  1
  Nb  Nb102  1  0.49514281  0.10063150  0.50000451  1
  Nb  Nb103  1  0.70316344  0.50624365  0.09535013  1
  Nb  Nb104  1  0.89897096  0.09815724  0.10354468  1
  Nb  Nb105  1  0.49508597  0.29782555  0.29604096  1
  Nb  Nb106  1  0.30455164  0.10622142  0.31067019  1
  Nb  Nb107  1  0.69541323  0.49873070  0.69896972  1
  Nb  Nb108  1  0.69777147  0.69342205  0.10382555  1
  Nb  Nb109  1  0.09731860  0.89513730  0.90287942  1
  Nb  Nb110  1  0.50170360  0.30462824  0.69823954  1
  Nb  Nb111  1  0.31162233  0.10356886  0.50151574  1
  Nb  Nb112  1  0.10063923  0.50109229  0.89686110  1
  Nb  Nb113  1  0.30132404  0.30339148  0.30150822  1
  Nb  Nb114  1  0.69564159  0.89858887  0.50032420  1
  Nb  Nb115  1  0.29937309  0.49543822  0.29576277  1
  Nb  Nb116  1  0.10068461  0.29990093  0.69824975  1
  Nb  Nb117  1  0.69755018  0.10170736  0.69359628  1
  Nb  Nb118  1  0.10204068  0.29388638  0.30501774  1
  Nb  Nb119  1  0.30383574  0.10512721  0.69706261  1
  Nb  Nb120  1  0.69379542  0.10253201  0.50960629  1
  Nb  Nb121  1  0.69466934  0.49539314  0.49855790  1
  Nb  Nb122  1  0.70181391  0.89638413  0.90126537  1
  Nb  Nb123  1  0.09961752  0.89432128  0.29882123  1
  Nb  Nb124  1  0.89966441  0.70336061  0.69386711  1
  Nb  Nb125  1  0.00181663  0.79483007  0.59941584  1
  Nb  Nb126  1  0.20333195  0.20519243  0.79451276  1
  Nb  Nb127  1  0.20147757  0.19763769  0.59690607  1
  Nb  Nb128  1  0.19398637  0.79857929  0.60217978  1
  Nb  Nb129  1  0.60537557  -0.00211796  -0.00493583  1
  Nb  Nb130  1  0.00540810  0.20012975  0.60393316  1
  Nb  Nb131  1  0.19849630  0.40162659  0.79769729  1
  Nb  Nb132  1  0.00546825  0.19893393  0.79696561  1
  Nb  Nb133  1  -0.00145316  0.59461558  -0.00396981  1
  Nb  Nb134  1  0.79670921  0.19501772  0.00760929  1
  Nb  Nb135  1  0.40380858  0.01111605  0.79604441  1
  Nb  Nb136  1  0.79856243  0.20073772  0.20077484  1
  Nb  Nb137  1  0.39987660  0.40087924  0.79772468  1
  Nb  Nb138  1  0.60277800  0.59216762  0.60422324  1
  Nb  Nb139  1  0.60331969  0.80588827  0.40269897  1
  Nb  Nb140  1  0.59744838  0.00000071  0.40809079  1
  Nb  Nb141  1  0.19815291  0.80261491  0.80124471  1
  Nb  Nb142  1  0.20801886  0.20116328  0.40088455  1
  Nb  Nb143  1  0.79136598  0.20041847  0.39834173  1
  Nb  Nb144  1  0.60586223  0.60397448  0.00418639  1
  Nb  Nb145  1  -0.00269202  -0.00107354  0.20226533  1
  Nb  Nb146  1  0.40002370  0.20517105  0.79412375  1
  Nb  Nb147  1  0.60849418  0.19159952  0.00443974  1
  Nb  Nb148  1  0.19596666  0.79786622  -0.00704318  1
  Nb  Nb149  1  0.59602133  0.40333993  0.79409638  1
  Pd  Pd150  1  0.80387857  0.61019910  -0.00045914  1
  Pd  Pd151  1  0.40632781  -0.00382207  0.39753444  1
  Pd  Pd152  1  -0.00371571  0.80447086  0.19654856  1
  Pd  Pd153  1  0.20467052  0.59733972  0.80028185  1
  Pd  Pd154  1  0.59935943  0.79945518  0.01032616  1
  Pd  Pd155  1  0.60037506  0.41145710  0.20241427  1
  Pd  Pd156  1  0.00802574  0.40839121  0.01003344  1
  Pd  Pd157  1  0.40267255  0.41128202  0.59875522  1
  Pd  Pd158  1  0.79595655  -0.00821356  0.80088226  1
  Pd  Pd159  1  0.01264240  0.40277080  0.19943071  1
  Pd  Pd160  1  0.20212805  0.39719477  0.59918979  1
  Pd  Pd161  1  0.21250265  -0.00321266  0.80464860  1
  Pd  Pd162  1  0.19601106  0.40029184  0.00148038  1
  Pd  Pd163  1  0.79611873  -0.00365688  0.59789595  1
  Pd  Pd164  1  0.79689120  0.59286946  0.60124796  1
  Pd  Pd165  1  0.39735411  0.60521004  0.39425575  1
  Pd  Pd166  1  0.19907051  0.39565834  0.20007335  1
  Pd  Pd167  1  0.81128049  0.20143967  0.81147568  1
  Pd  Pd168  1  0.39049836  0.20170693  0.19551157  1
  Pd  Pd169  1  0.79314012  0.78873292  0.40003248  1
  Pd  Pd170  1  0.20608594  0.19790078  0.20610270  1
  Pd  Pd171  1  -0.00224539  0.59459583  0.39827287  1
  Pd  Pd172  1  0.19791827  -0.00857703  0.00894523  1
  Pd  Pd173  1  -0.00535776  0.40059569  0.59490721  1
  Pd  Pd174  1  -0.00043417  -0.00417869  0.39105303  1
  Pd  Pd175  1  0.20446644  0.00483978  0.39500461  1
  Pd  Pd176  1  0.80132414  0.79310321  0.00587226  1
  Pd  Pd177  1  -0.00698597  0.19290594  -0.00632832  1
  Pd  Pd178  1  0.00615846  0.80402199  0.78851030  1
  Pd  Pd179  1  0.59336705  0.59130594  0.19336953  1
  Pd  Pd180  1  0.79325525  0.39316172  0.20781758  1
  Pd  Pd181  1  0.39026182  0.81407687  0.79838148  1
  Pd  Pd182  1  0.00322688  0.39636376  0.79982592  1
  Pd  Pd183  1  0.60447653  0.60300281  0.79950098  1
  Pd  Pd184  1  0.40548011  0.39529934  0.39967662  1
  Pd  Pd185  1  0.40912847  0.59566026  0.59777847  1
  Pd  Pd186  1  0.79176485  0.00842505  0.40258196  1
  Pd  Pd187  1  0.19450357  0.00123466  0.20427400  1
  Pd  Pd188  1  0.20222711  0.60420773  0.59619227  1
  Pd  Pd189  1  -0.00844651  -0.00374525  0.59940935  1
  Pd  Pd190  1  -0.00552497  0.00067298  0.79933039  1
  Pd  Pd191  1  0.39505001  0.00163843  0.20831181  1
  Pd  Pd192  1  0.20672884  -0.00112033  0.59009476  1
  Pd  Pd193  1  0.59954258  0.19985294  0.40873188  1
  Pd  Pd194  1  0.79362265  0.39719597  0.79165088  1
  Pd  Pd195  1  0.39068575  0.79670974  0.00870462  1
  Pd  Pd196  1  0.79978300  0.40434725  0.60348490  1
  Pd  Pd197  1  -0.00697247  0.59281717  0.80056230  1
  Pd  Pd198  1  0.60419396  0.60938454  0.40863337  1
  Pd  Pd199  1  0.58993557  -0.00621997  0.19731526  1
  Rh  Rh200  1  0.40640818  0.80033142  0.39947292  1
  Rh  Rh201  1  0.79336957  0.39418034  0.39356919  1
  Rh  Rh202  1  0.60618640  0.78906297  0.59723534  1
  Rh  Rh203  1  0.41376045  0.60874205  0.01067077  1
  Rh  Rh204  1  0.40852103  0.20087701  0.00575396  1
  Rh  Rh205  1  0.80354576  0.79551563  0.19488903  1
  Rh  Rh206  1  0.19901351  0.80008820  0.40031777  1
  Rh  Rh207  1  0.39793022  0.40013406  0.00136469  1
  Rh  Rh208  1  0.00358170  0.40456591  0.40014127  1
  Rh  Rh209  1  0.79004730  0.00213226  -0.00932860  1
  Rh  Rh210  1  0.20317462  0.59992471  0.21018962  1
  Rh  Rh211  1  -0.00192606  0.19521733  0.20252861  1
  Rh  Rh212  1  0.39602772  0.39717851  0.20064752  1
  Rh  Rh213  1  0.00426942  0.78847199  0.00234795  1
  Rh  Rh214  1  -0.00586092  0.59677127  0.59739318  1
  Rh  Rh215  1  0.41035983  0.00097469  -0.00346859  1
  Rh  Rh216  1  0.60303559  0.40992552  -0.00692932  1
  Rh  Rh217  1  0.59990711  0.40462200  0.60347228  1
  Rh  Rh218  1  0.80568755  0.80274036  0.59908233  1
  Rh  Rh219  1  0.39411799  0.59250085  0.79628710  1
  Rh  Rh220  1  0.59306736  0.21517592  0.80372345  1
  Rh  Rh221  1  0.20167640  0.39305036  0.39847828  1
  Rh  Rh222  1  0.18910398  0.60743772  -0.00418265  1
  Rh  Rh223  1  0.00484973  0.20489604  0.40815296  1
  Rh  Rh224  1  0.20019973  0.19953295  -0.00023640  1
  Rh  Rh225  1  0.79378339  0.59847371  0.39747732  1
  Rh  Rh226  1  0.80318625  0.60068883  0.79317486  1
  Rh  Rh227  1  0.79958323  0.39144915  0.00637921  1
  Rh  Rh228  1  0.60424359  0.20200286  0.18912441  1
  Rh  Rh229  1  0.59315299  0.40017094  0.39488500  1
  Rh  Rh230  1  0.60008650  0.00021518  0.59415845  1
  Rh  Rh231  1  -0.00138889  0.79571864  0.40274704  1
  Rh  Rh232  1  -0.00031981  0.59307626  0.19574653  1
  Rh  Rh233  1  0.60331684  -0.00763574  0.80013190  1
  Rh  Rh234  1  0.59949712  0.80320043  0.20243893  1
  Rh  Rh235  1  0.19888615  0.79918511  0.19444861  1
  Rh  Rh236  1  0.60623631  0.80011625  0.79311456  1
  Rh  Rh237  1  0.39950574  0.20896966  0.40160586  1
  Rh  Rh238  1  0.80379954  0.19577192  0.58953309  1
  Rh  Rh239  1  0.39405588  0.79926042  0.20063722  1
  Rh  Rh240  1  0.79837567  0.80584755  0.79601778  1
  Rh  Rh241  1  0.39850219  0.59739665  0.20444631  1
  Rh  Rh242  1  0.00784275  0.00079245  0.00952720  1
  Rh  Rh243  1  0.79968842  0.59788205  0.20301480  1
  Rh  Rh244  1  0.20363854  0.60417348  0.39244524  1
  Rh  Rh245  1  0.39046100  0.80490820  0.60174998  1
  Rh  Rh246  1  0.59749761  0.20461282  0.59502524  1
  Rh  Rh247  1  0.40335570  0.19946196  0.60077392  1
  Rh  Rh248  1  0.81091547  0.00220994  0.20984725  1
  Rh  Rh249  1  0.40335703  0.00433198  0.60417821  1
