# generated using pymatgen
data_ZrScNbPdRh
_symmetry_space_group_name_H-M   'P 1'
_cell_length_a   16.56335380
_cell_length_b   16.55947270
_cell_length_c   16.55796878
_cell_angle_alpha   90.03021311
_cell_angle_beta   90.00271047
_cell_angle_gamma   90.00045043
_symmetry_Int_Tables_number   1
_chemical_formula_structural   ZrScNbPdRh
_chemical_formula_sum   'Zr50 Sc50 Nb50 Pd50 Rh50'
_cell_volume   4541.52574922
_cell_formula_units_Z   50
loop_
 _symmetry_equiv_pos_site_id
 _symmetry_equiv_pos_as_xyz
  1  'x, y, z'
loop_
 _atom_site_type_symbol
 _atom_site_label
 _atom_site_symmetry_multiplicity
 _atom_site_fract_x
 _atom_site_fract_y
 _atom_site_fract_z
 _atom_site_occupancy
  Zr  Zr0  1  0.49741296  0.28863282  0.69374938  1
  Zr  Zr1  1  0.50162862  0.29847500  0.10547110  1
  Zr  Zr2  1  0.50360422  0.10073904  0.89568631  1
  Zr  Zr3  1  0.50960956  0.69428843  0.90125722  1
  Zr  Zr4  1  0.69852587  0.28782138  0.90062089  1
  Zr  Zr5  1  0.49952811  0.90304007  0.90799098  1
  Zr  Zr6  1  0.10226298  0.49177735  0.50694515  1
  Zr  Zr7  1  0.49901415  0.90728807  0.50311158  1
  Zr  Zr8  1  0.09977607  0.50154776  0.70395291  1
  Zr  Zr9  1  0.89756590  0.50651398  0.29653516  1
  Zr  Zr10  1  0.49323742  0.30152284  0.49161804  1
  Zr  Zr11  1  0.90505791  0.69892923  0.10018627  1
  Zr  Zr12  1  0.69605417  0.09591034  0.49939629  1
  Zr  Zr13  1  0.10642959  0.10086543  0.30265944  1
  Zr  Zr14  1  0.10106665  0.50374422  0.09251256  1
  Zr  Zr15  1  0.49993293  0.90159221  0.09807149  1
  Zr  Zr16  1  0.50690307  0.70481775  0.10157157  1
  Zr  Zr17  1  0.30088091  0.89873865  0.49259423  1
  Zr  Zr18  1  0.69833552  0.09862875  0.10616244  1
  Zr  Zr19  1  0.70067806  0.90349280  0.89457836  1
  Zr  Zr20  1  0.89963980  0.90033663  0.89148639  1
  Zr  Zr21  1  0.90644637  0.49770723  0.69429230  1
  Zr  Zr22  1  0.10290138  0.10500420  0.10555170  1
  Zr  Zr23  1  0.70118338  0.69818483  0.70614374  1
  Zr  Zr24  1  0.10943136  0.89846887  0.50394372  1
  Zr  Zr25  1  0.89980005  0.69607438  0.49932841  1
  Zr  Zr26  1  0.30439313  0.30275381  0.10132722  1
  Zr  Zr27  1  0.68696565  0.89437585  0.10481192  1
  Zr  Zr28  1  0.90154616  0.89591758  0.70583382  1
  Zr  Zr29  1  0.29740544  0.70173078  0.48679050  1
  Zr  Zr30  1  0.49365792  0.70097807  0.50152757  1
  Zr  Zr31  1  0.90202942  0.51107991  0.09988148  1
  Zr  Zr32  1  0.49918811  0.50162819  0.89668281  1
  Zr  Zr33  1  0.09317143  0.30662546  0.69002310  1
  Zr  Zr34  1  0.10612732  0.10765961  0.89922567  1
  Zr  Zr35  1  0.10021313  0.89536412  0.70062496  1
  Zr  Zr36  1  0.69939204  0.69817684  0.29858912  1
  Zr  Zr37  1  0.90053747  0.10450905  0.29198441  1
  Zr  Zr38  1  0.49792142  0.30631123  0.29839740  1
  Zr  Zr39  1  0.29117950  0.90231915  0.70474884  1
  Zr  Zr40  1  0.89300926  0.10916659  0.90588968  1
  Zr  Zr41  1  0.10022303  0.69863504  0.09635340  1
  Zr  Zr42  1  0.70075816  0.90327123  0.30233210  1
  Zr  Zr43  1  0.49883621  0.90314740  0.69265871  1
  Zr  Zr44  1  0.10609035  0.49941904  0.90456618  1
  Zr  Zr45  1  0.30988414  0.91599144  0.09785858  1
  Zr  Zr46  1  0.29920534  0.30286719  0.49567271  1
  Zr  Zr47  1  0.10295925  0.29244785  0.29588681  1
  Zr  Zr48  1  0.29722735  0.29595868  0.89205295  1
  Zr  Zr49  1  0.30088570  0.49610538  0.89469054  1
  Sc  Sc50  1  0.49534397  0.09197992  0.09631387  1
  Sc  Sc51  1  0.69781479  0.49832184  0.49481642  1
  Sc  Sc52  1  0.29418028  0.10335182  0.90659246  1
  Sc  Sc53  1  0.68867747  0.30709459  0.50557314  1
  Sc  Sc54  1  0.29309353  0.49990683  0.10116069  1
  Sc  Sc55  1  0.50031850  0.49085809  0.11257563  1
  Sc  Sc56  1  0.90932199  0.69394433  0.70297245  1
  Sc  Sc57  1  0.70088551  0.49945159  0.69489875  1
  Sc  Sc58  1  0.09951923  0.09817040  0.50370084  1
  Sc  Sc59  1  0.70190578  0.90654161  0.50039865  1
  Sc  Sc60  1  0.69377123  0.09980396  0.89689304  1
  Sc  Sc61  1  0.30212423  0.09747477  0.48693616  1
  Sc  Sc62  1  0.48830131  0.50100421  0.70460629  1
  Sc  Sc63  1  0.70305704  0.69770672  0.49502043  1
  Sc  Sc64  1  0.90871173  0.28928831  0.10040341  1
  Sc  Sc65  1  0.10218518  0.29630087  0.49839719  1
  Sc  Sc66  1  0.90910213  0.50564765  0.89935527  1
  Sc  Sc67  1  0.69689018  0.68497196  0.09074500  1
  Sc  Sc68  1  0.69150497  0.28942873  0.29490104  1
  Sc  Sc69  1  0.09883989  0.49983393  0.29244140  1
  Sc  Sc70  1  0.10160715  0.69692440  0.89711522  1
  Sc  Sc71  1  0.10544681  0.09583023  0.70342721  1
  Sc  Sc72  1  0.70082096  0.91109896  0.70097026  1
  Sc  Sc73  1  0.90490587  0.09891458  0.69577320  1
  Sc  Sc74  1  0.89837538  0.50617547  0.50305177  1
  Sc  Sc75  1  0.49897846  0.68458047  0.29924690  1
  Sc  Sc76  1  0.10464522  0.90077869  0.88997639  1
  Sc  Sc77  1  0.30561849  0.69967912  0.70400978  1
  Sc  Sc78  1  0.49453852  0.69763676  0.70175388  1
  Sc  Sc79  1  0.50375095  0.10329963  0.31168992  1
  Sc  Sc80  1  0.90833639  0.89688393  0.11019211  1
  Sc  Sc81  1  0.09167609  0.89624984  0.10352934  1
  Sc  Sc82  1  0.89643740  0.91154621  0.50317126  1
  Sc  Sc83  1  0.10401739  0.69794284  0.50205649  1
  Sc  Sc84  1  0.30634564  0.49342976  0.49711870  1
  Sc  Sc85  1  0.90024727  0.90677639  0.29845665  1
  Sc  Sc86  1  0.89978209  0.69577988  0.30043206  1
  Sc  Sc87  1  0.30675231  0.50268502  0.29336467  1
  Sc  Sc88  1  0.49523061  0.30029592  0.90960980  1
  Sc  Sc89  1  0.70433355  0.09748853  0.30167060  1
  Sc  Sc90  1  0.69652619  0.51598100  0.90338601  1
  Sc  Sc91  1  0.10292834  0.30714785  0.09879797  1
  Sc  Sc92  1  0.30463218  0.70319635  0.89525312  1
  Sc  Sc93  1  0.89974313  0.10306239  0.49596260  1
  Sc  Sc94  1  0.10216378  0.69912886  0.30410821  1
  Sc  Sc95  1  0.68601528  0.29795170  0.10094888  1
  Sc  Sc96  1  0.69375071  0.50324785  0.30172465  1
  Sc  Sc97  1  0.09655025  0.90153886  0.30024398  1
  Sc  Sc98  1  0.50139532  0.90389733  0.29585622  1
  Sc  Sc99  1  0.90045001  0.70083391  0.89239193  1
  Nb  Nb100  1  0.89570696  0.29925603  0.89952928  1
  Nb  Nb101  1  0.50220759  0.09814747  0.50897965  1
  Nb  Nb102  1  0.29918539  0.90216106  0.30117580  1
  Nb  Nb103  1  0.90058006  0.09259966  0.10363198  1
  Nb  Nb104  1  0.10350986  0.70073095  0.69884482  1
  Nb  Nb105  1  0.30247468  0.90157819  0.89952684  1
  Nb  Nb106  1  0.50250520  0.49277679  0.30631672  1
  Nb  Nb107  1  0.30001524  0.70437378  0.29727942  1
  Nb  Nb108  1  0.69619234  0.29976503  0.70086953  1
  Nb  Nb109  1  0.30267183  0.11477781  0.71410057  1
  Nb  Nb110  1  0.29931575  0.48992299  0.70211697  1
  Nb  Nb111  1  0.29475014  0.09732223  0.29317593  1
  Nb  Nb112  1  0.29820430  0.09874817  0.10888762  1
  Nb  Nb113  1  0.30055039  0.28700078  0.30709427  1
  Nb  Nb114  1  0.30350189  0.30173423  0.69873770  1
  Nb  Nb115  1  0.69978409  0.70111451  0.89909022  1
  Nb  Nb116  1  0.50651695  0.49770585  0.48493336  1
  Nb  Nb117  1  0.49867165  0.09936077  0.69645393  1
  Nb  Nb118  1  0.09469259  0.30254502  0.90082813  1
  Nb  Nb119  1  0.30257534  0.69480039  0.10359238  1
  Nb  Nb120  1  0.90024135  0.29686254  0.30309864  1
  Nb  Nb121  1  0.70996671  0.49521955  0.09848779  1
  Nb  Nb122  1  0.89783757  0.30125265  0.69601665  1
  Nb  Nb123  1  0.67935210  0.11327794  0.70262647  1
  Nb  Nb124  1  0.90295293  0.29577368  0.50451879  1
  Nb  Nb125  1  0.80264696  0.79954611  0.60461534  1
  Nb  Nb126  1  0.21074201  0.80021062  0.19804356  1
  Nb  Nb127  1  0.59168387  0.59831673  0.59426783  1
  Nb  Nb128  1  0.80334752  -0.00406561  0.00713820  1
  Nb  Nb129  1  0.79864030  0.80181910  0.00013980  1
  Nb  Nb130  1  0.39283750  0.19481026  0.20487581  1
  Nb  Nb131  1  0.20948423  0.80253142  0.00491939  1
  Nb  Nb132  1  0.20652698  0.59373908  0.60606506  1
  Nb  Nb133  1  -0.00154107  0.80186705  0.40637900  1
  Nb  Nb134  1  0.39711091  0.00440403  0.79740403  1
  Nb  Nb135  1  -0.00464430  0.00589787  -0.00069442  1
  Nb  Nb136  1  0.80083741  0.39849082  -0.00017299  1
  Nb  Nb137  1  0.79943651  0.39192373  0.80197064  1
  Nb  Nb138  1  -0.00724046  0.39427387  0.39800484  1
  Nb  Nb139  1  0.80699598  0.39096681  0.39505252  1
  Nb  Nb140  1  0.60490231  0.39483338  0.79849230  1
  Nb  Nb141  1  0.80144893  0.39823313  0.19833075  1
  Nb  Nb142  1  0.40034318  0.60157558  0.00507241  1
  Nb  Nb143  1  0.20962284  0.20323254  0.60644774  1
  Nb  Nb144  1  0.79580372  0.79635253  0.19455762  1
  Nb  Nb145  1  0.60106676  0.80060134  0.80144703  1
  Nb  Nb146  1  0.79507581  0.20605140  0.60495815  1
  Nb  Nb147  1  0.59746734  0.80011311  0.40176159  1
  Nb  Nb148  1  -0.00358889  0.21171152  0.80208378  1
  Nb  Nb149  1  0.39370627  0.79870787  0.20223405  1
  Pd  Pd150  1  -0.00822016  0.40023707  0.00240814  1
  Pd  Pd151  1  -0.00524666  0.39769631  0.20184740  1
  Pd  Pd152  1  -0.00007876  -0.00315725  0.40115376  1
  Pd  Pd153  1  0.20893867  0.78905580  0.60196236  1
  Pd  Pd154  1  0.60047823  0.20203303  0.40521265  1
  Pd  Pd155  1  0.00144434  0.01232726  0.80546261  1
  Pd  Pd156  1  0.39795765  0.40945136  0.00327325  1
  Pd  Pd157  1  0.19254673  -0.01021244  0.19989757  1
  Pd  Pd158  1  0.39749189  0.59477386  0.39678732  1
  Pd  Pd159  1  0.79544949  0.00856283  0.60898037  1
  Pd  Pd160  1  0.19677988  0.60391109  0.20306879  1
  Pd  Pd161  1  0.58810012  0.41020009  0.60714731  1
  Pd  Pd162  1  0.79818662  0.20860662  0.19343571  1
  Pd  Pd163  1  0.00542120  0.59760201  0.40279680  1
  Pd  Pd164  1  0.39008445  0.80036317  0.60109388  1
  Pd  Pd165  1  0.20979569  0.01329709  0.60125113  1
  Pd  Pd166  1  0.00202273  0.80652262  -0.01140241  1
  Pd  Pd167  1  0.00433356  0.20043846  0.40239210  1
  Pd  Pd168  1  0.19093554  -0.00697291  -0.00053162  1
  Pd  Pd169  1  0.80339386  0.19699598  0.78871407  1
  Pd  Pd170  1  0.19627788  0.39324284  0.79802657  1
  Pd  Pd171  1  0.39257458  0.19217424  0.58964525  1
  Pd  Pd172  1  0.40804239  0.80703877  0.79955516  1
  Pd  Pd173  1  0.39845368  0.19276981  0.00666425  1
  Pd  Pd174  1  -0.00645385  0.79937016  0.59551374  1
  Pd  Pd175  1  0.80291768  0.80525147  0.40156100  1
  Pd  Pd176  1  0.00352981  0.19835493  -0.00001162  1
  Pd  Pd177  1  0.38531858  0.00981483  0.60642593  1
  Pd  Pd178  1  0.20125941  0.20816653  0.00641441  1
  Pd  Pd179  1  0.60741116  0.40550535  -0.00665939  1
  Pd  Pd180  1  0.39722034  0.59261741  0.59664841  1
  Pd  Pd181  1  0.61102157  0.79389486  0.59922604  1
  Pd  Pd182  1  0.80046055  0.39637679  0.59558688  1
  Pd  Pd183  1  0.80355261  0.59038142  0.80215511  1
  Pd  Pd184  1  0.00127820  0.00144897  0.59947716  1
  Pd  Pd185  1  0.20564149  0.39819924  0.20619171  1
  Pd  Pd186  1  0.79672514  0.01580402  0.79595275  1
  Pd  Pd187  1  0.79287263  0.20458479  0.40974838  1
  Pd  Pd188  1  0.41098294  0.80245279  0.38982751  1
  Pd  Pd189  1  0.79487909  0.20162720  0.01359900  1
  Pd  Pd190  1  0.19635898  0.40438424  0.38977100  1
  Pd  Pd191  1  0.59334520  0.00817741  0.20573797  1
  Pd  Pd192  1  0.79205767  0.60417381  0.59914136  1
  Pd  Pd193  1  0.40357935  0.00288838  0.39367525  1
  Pd  Pd194  1  0.20073192  0.59064657  0.40218498  1
  Pd  Pd195  1  -0.00502935  0.39857655  0.80401186  1
  Pd  Pd196  1  0.40691518  0.40474949  0.59793501  1
  Pd  Pd197  1  0.20547593  0.60505844  0.79716192  1
  Pd  Pd198  1  0.60141177  0.59065173  0.19580273  1
  Pd  Pd199  1  0.39541246  0.79265030  0.00515341  1
  Rh  Rh200  1  0.39279134  0.39399653  0.20688224  1
  Rh  Rh201  1  -0.00693313  0.40187417  0.58877320  1
  Rh  Rh202  1  0.60941489  0.39471083  0.39196282  1
  Rh  Rh203  1  0.60835801  0.00472603  0.00190766  1
  Rh  Rh204  1  0.79763924  0.58916032  0.39934585  1
  Rh  Rh205  1  0.21016072  0.60670405  -0.00647550  1
  Rh  Rh206  1  0.00570519  0.00669110  0.19827308  1
  Rh  Rh207  1  0.80635128  0.60256030  -0.00629594  1
  Rh  Rh208  1  0.60003971  0.19990013  0.59068045  1
  Rh  Rh209  1  0.19801683  0.19402894  0.40931187  1
  Rh  Rh210  1  0.01329348  0.60146526  0.60161297  1
  Rh  Rh211  1  0.60991042  0.40344625  0.20534611  1
  Rh  Rh212  1  0.58837624  0.20865461  0.80366065  1
  Rh  Rh213  1  0.20588217  0.39804857  0.60269541  1
  Rh  Rh214  1  0.19850777  -0.00129504  0.39827546  1
  Rh  Rh215  1  0.79345373  0.60230335  0.19944144  1
  Rh  Rh216  1  0.00938238  0.79361277  0.79867605  1
  Rh  Rh217  1  0.59540156  0.19224552  0.00378851  1
  Rh  Rh218  1  0.20297556  0.39455639  -0.00360119  1
  Rh  Rh219  1  0.59854338  0.60747116  0.40638491  1
  Rh  Rh220  1  0.40910942  0.38902114  0.79780748  1
  Rh  Rh221  1  0.39523082  0.40321831  0.39307057  1
  Rh  Rh222  1  0.00102605  0.60446697  -0.00751598  1
  Rh  Rh223  1  0.19899030  0.79637751  0.80622991  1
  Rh  Rh224  1  0.59926064  0.59948941  0.78741070  1
  Rh  Rh225  1  0.80401507  0.00743362  0.39632787  1
  Rh  Rh226  1  0.59010222  -0.00439085  0.79274921  1
  Rh  Rh227  1  0.39629817  0.01064751  -0.01098562  1
  Rh  Rh228  1  0.79888066  -0.00971438  0.19611950  1
  Rh  Rh229  1  0.39459196  0.59857743  0.80648022  1
  Rh  Rh230  1  0.00263927  0.19849514  0.19943254  1
  Rh  Rh231  1  0.40414570  0.00471842  0.20949967  1
  Rh  Rh232  1  0.40459256  0.60076980  0.19607571  1
  Rh  Rh233  1  0.00967678  0.60411274  0.20000617  1
  Rh  Rh234  1  0.20626664  0.20621085  0.19503933  1
  Rh  Rh235  1  0.59797131  -0.00521663  0.40336971  1
  Rh  Rh236  1  0.40131221  0.19385367  0.39793135  1
  Rh  Rh237  1  0.20839166  0.00172166  0.80488156  1
  Rh  Rh238  1  0.18616800  0.21203556  0.79063787  1
  Rh  Rh239  1  0.00457585  0.60108721  0.79964995  1
  Rh  Rh240  1  0.19169601  0.80570818  0.39134822  1
  Rh  Rh241  1  0.40619276  0.20071642  0.80531616  1
  Rh  Rh242  1  0.00134635  0.19588999  0.60524658  1
  Rh  Rh243  1  0.60886941  0.80122544  -0.01039493  1
  Rh  Rh244  1  0.59685579  0.79644342  0.21394249  1
  Rh  Rh245  1  0.60459227  0.00367281  0.60305239  1
  Rh  Rh246  1  0.58909918  0.58750220  0.01118411  1
  Rh  Rh247  1  0.58655239  0.19100453  0.19820294  1
  Rh  Rh248  1  -0.00210828  0.79383578  0.21689509  1
  Rh  Rh249  1  0.79440782  0.79686057  0.79814064  1
