# generated using pymatgen
data_ZrScNbPdRh
_symmetry_space_group_name_H-M   'P 1'
_cell_length_a   16.56077025
_cell_length_b   16.56114364
_cell_length_c   16.56386391
_cell_angle_alpha   89.99112794
_cell_angle_beta   90.06317898
_cell_angle_gamma   90.03336451
_symmetry_Int_Tables_number   1
_chemical_formula_structural   ZrScNbPdRh
_chemical_formula_sum   'Zr50 Sc50 Nb50 Pd50 Rh50'
_cell_volume   4542.88943304
_cell_formula_units_Z   50
loop_
 _symmetry_equiv_pos_site_id
 _symmetry_equiv_pos_as_xyz
  1  'x, y, z'
loop_
 _atom_site_type_symbol
 _atom_site_label
 _atom_site_symmetry_multiplicity
 _atom_site_fract_x
 _atom_site_fract_y
 _atom_site_fract_z
 _atom_site_occupancy
  Zr  Zr0  1  0.69385573  0.29951194  0.49996424  1
  Zr  Zr1  1  0.70458538  0.30658271  0.11708401  1
  Zr  Zr2  1  0.49167354  0.10266327  0.70857494  1
  Zr  Zr3  1  0.49534602  0.10182598  0.90540320  1
  Zr  Zr4  1  0.30375407  0.10733417  0.09551570  1
  Zr  Zr5  1  0.90567118  0.91212248  0.51486068  1
  Zr  Zr6  1  0.49890936  0.49972377  0.50689171  1
  Zr  Zr7  1  0.29791329  0.50175295  0.50072006  1
  Zr  Zr8  1  0.90672391  0.11085073  0.10031900  1
  Zr  Zr9  1  0.10365957  0.09078737  0.09055781  1
  Zr  Zr10  1  0.29673255  0.10214142  0.70125243  1
  Zr  Zr11  1  0.69697415  0.10310644  0.09565865  1
  Zr  Zr12  1  0.29807912  0.30215953  0.29150239  1
  Zr  Zr13  1  0.90166009  0.88412990  0.09310786  1
  Zr  Zr14  1  0.10407102  0.89550528  0.10555087  1
  Zr  Zr15  1  0.09839771  0.70141352  0.50654253  1
  Zr  Zr16  1  0.09917264  0.89950537  0.91230837  1
  Zr  Zr17  1  0.29095077  0.49585306  0.30465762  1
  Zr  Zr18  1  0.30238289  0.29557829  0.70636598  1
  Zr  Zr19  1  0.69507278  0.69689572  0.88706626  1
  Zr  Zr20  1  0.91106072  0.49824605  0.29794444  1
  Zr  Zr21  1  0.30263149  0.90409954  0.69815473  1
  Zr  Zr22  1  0.89656553  0.48344354  0.89849273  1
  Zr  Zr23  1  0.49827584  0.10041421  0.09062379  1
  Zr  Zr24  1  0.70357051  0.30896265  0.89323208  1
  Zr  Zr25  1  0.89552901  0.89961089  0.89546838  1
  Zr  Zr26  1  0.48806764  0.89811222  0.90055378  1
  Zr  Zr27  1  0.30491231  0.49960434  0.69783658  1
  Zr  Zr28  1  0.48741995  0.29981834  0.09777460  1
  Zr  Zr29  1  0.09282882  0.70241739  0.09697165  1
  Zr  Zr30  1  0.49447010  0.68655319  0.10499724  1
  Zr  Zr31  1  0.49349824  0.69940541  0.29891963  1
  Zr  Zr32  1  0.89966963  0.69511373  0.50294198  1
  Zr  Zr33  1  0.10711116  0.30044546  0.09388873  1
  Zr  Zr34  1  0.49434171  0.89582848  0.30378549  1
  Zr  Zr35  1  0.69981720  0.10978013  0.29729196  1
  Zr  Zr36  1  0.90590104  0.10274086  0.90155773  1
  Zr  Zr37  1  0.70496201  0.89899081  0.09015929  1
  Zr  Zr38  1  0.70639232  0.70178582  0.09722589  1
  Zr  Zr39  1  0.90433994  0.29760167  0.28915323  1
  Zr  Zr40  1  0.09836740  0.90873386  0.50736281  1
  Zr  Zr41  1  0.10558275  0.29262907  0.70038867  1
  Zr  Zr42  1  0.70545698  0.89574177  0.70439927  1
  Zr  Zr43  1  0.09973947  0.49490933  0.90545925  1
  Zr  Zr44  1  0.50200447  0.70654964  0.50375609  1
  Zr  Zr45  1  0.69331607  0.49798334  0.89898422  1
  Zr  Zr46  1  0.50324898  0.08929217  0.49640699  1
  Zr  Zr47  1  0.69926463  0.09710188  0.90000520  1
  Zr  Zr48  1  0.10453003  0.29812564  0.30578831  1
  Zr  Zr49  1  0.50331380  0.30639936  0.90341394  1
  Sc  Sc50  1  0.29962269  0.70007748  0.29589742  1
  Sc  Sc51  1  0.29734637  0.70195606  0.50306153  1
  Sc  Sc52  1  0.09967672  0.50604355  0.49635342  1
  Sc  Sc53  1  0.91096254  0.90458462  0.29499403  1
  Sc  Sc54  1  0.50223867  0.31005840  0.50244473  1
  Sc  Sc55  1  0.09530974  0.29659901  0.89784839  1
  Sc  Sc56  1  0.88778159  0.09921202  0.69449752  1
  Sc  Sc57  1  0.90643551  0.70602036  0.89655658  1
  Sc  Sc58  1  0.90031691  0.29801685  0.70486362  1
  Sc  Sc59  1  0.49731614  0.09912814  0.29526290  1
  Sc  Sc60  1  0.29568585  0.30993250  0.49059456  1
  Sc  Sc61  1  0.29588830  0.30295462  0.90818683  1
  Sc  Sc62  1  0.70575019  0.89660581  0.89905352  1
  Sc  Sc63  1  0.70435249  0.89968823  0.29698466  1
  Sc  Sc64  1  0.29320604  0.50986862  0.90250066  1
  Sc  Sc65  1  0.29703295  0.10184017  0.29010581  1
  Sc  Sc66  1  0.69810170  0.10051446  0.51278322  1
  Sc  Sc67  1  0.30119446  0.89778631  0.28980642  1
  Sc  Sc68  1  0.90566719  0.69939687  0.29762163  1
  Sc  Sc69  1  0.70021431  0.50600820  0.50594137  1
  Sc  Sc70  1  0.89828698  0.70417629  0.70039511  1
  Sc  Sc71  1  0.50671440  0.30262169  0.29891745  1
  Sc  Sc72  1  0.50330673  0.49515065  0.09598722  1
  Sc  Sc73  1  0.69437937  0.49147309  0.28918294  1
  Sc  Sc74  1  0.50787689  0.70367313  0.70539696  1
  Sc  Sc75  1  0.09454216  0.89613258  0.69357691  1
  Sc  Sc76  1  0.09206957  0.29466049  0.50014426  1
  Sc  Sc77  1  0.29553222  0.90245981  0.09471624  1
  Sc  Sc78  1  0.70286351  0.50523541  0.70197033  1
  Sc  Sc79  1  0.49693413  0.50024623  0.28438820  1
  Sc  Sc80  1  0.10374633  0.69776799  0.29032144  1
  Sc  Sc81  1  0.09125699  0.70223600  0.70380448  1
  Sc  Sc82  1  0.30218297  0.70488717  0.90226677  1
  Sc  Sc83  1  0.90678995  0.50695771  0.50053913  1
  Sc  Sc84  1  0.29656709  0.49372885  0.10256162  1
  Sc  Sc85  1  0.29481747  0.69873140  0.70524141  1
  Sc  Sc86  1  0.50339028  0.50530859  0.69204579  1
  Sc  Sc87  1  0.90238273  0.50203738  0.69988226  1
  Sc  Sc88  1  0.10551749  0.70048515  0.90025124  1
  Sc  Sc89  1  0.69924342  0.29213502  0.69849641  1
  Sc  Sc90  1  0.09862877  0.50549766  0.09803628  1
  Sc  Sc91  1  0.70675370  0.69588668  0.51070734  1
  Sc  Sc92  1  0.69085593  0.90773830  0.51296375  1
  Sc  Sc93  1  0.49161629  0.89779368  0.50349381  1
  Sc  Sc94  1  0.29278746  0.69650708  0.10015364  1
  Sc  Sc95  1  0.09403590  0.50093603  0.70483381  1
  Sc  Sc96  1  0.91486858  0.10308379  0.29868473  1
  Sc  Sc97  1  0.70719368  0.69389004  0.29778284  1
  Sc  Sc98  1  0.09208950  0.10293138  0.50604291  1
  Sc  Sc99  1  0.50169704  0.30413468  0.69662743  1
  Nb  Nb100  1  0.70554499  0.30030065  0.30294016  1
  Nb  Nb101  1  0.69739319  0.70057265  0.69938693  1
  Nb  Nb102  1  0.70131905  0.50138837  0.10217946  1
  Nb  Nb103  1  0.90240611  0.49540501  0.09776874  1
  Nb  Nb104  1  0.89826706  0.29909225  0.90488813  1
  Nb  Nb105  1  0.69317913  0.09322283  0.70162419  1
  Nb  Nb106  1  0.50305392  0.90077534  0.09792363  1
  Nb  Nb107  1  0.29716184  0.90278498  0.89781049  1
  Nb  Nb108  1  0.10508282  0.49795794  0.30256412  1
  Nb  Nb109  1  0.89716983  0.29160540  0.50071950  1
  Nb  Nb110  1  0.90120099  0.90380583  0.70598533  1
  Nb  Nb111  1  0.90356460  0.30664375  0.09744118  1
  Nb  Nb112  1  0.50144336  0.69462360  0.90339190  1
  Nb  Nb113  1  0.09771872  0.09548167  0.90192976  1
  Nb  Nb114  1  0.89813592  0.10351374  0.49847891  1
  Nb  Nb115  1  0.90260998  0.69369474  0.09951079  1
  Nb  Nb116  1  0.50455148  0.50399150  0.89922668  1
  Nb  Nb117  1  0.29940801  0.29963291  0.10360164  1
  Nb  Nb118  1  0.10638118  0.09969266  0.70404578  1
  Nb  Nb119  1  0.10120227  0.90429227  0.30050504  1
  Nb  Nb120  1  0.09977776  0.08956097  0.30239549  1
  Nb  Nb121  1  0.50776963  0.89746022  0.70222043  1
  Nb  Nb122  1  0.30835978  0.09102148  0.89557889  1
  Nb  Nb123  1  0.29800807  0.90330177  0.49849516  1
  Nb  Nb124  1  0.30030447  0.09111701  0.50306240  1
  Nb  Nb125  1  0.80246958  0.39301976  0.40020831  1
  Nb  Nb126  1  0.40403884  0.40817505  0.80573779  1
  Nb  Nb127  1  0.19608354  0.80907735  0.40153390  1
  Nb  Nb128  1  0.00361317  0.80568740  0.40398943  1
  Nb  Nb129  1  0.59738366  0.80153542  0.19664926  1
  Nb  Nb130  1  0.80449825  0.00482769  0.40012184  1
  Nb  Nb131  1  0.60175920  -0.00494858  0.19318365  1
  Nb  Nb132  1  0.80275639  0.20086980  0.40097456  1
  Nb  Nb133  1  0.59026266  0.79463465  -0.00074477  1
  Nb  Nb134  1  0.39508177  0.19612659  0.58917137  1
  Nb  Nb135  1  0.39719682  0.19681376  0.40489373  1
  Nb  Nb136  1  0.59415128  0.60314690  0.39896090  1
  Nb  Nb137  1  0.80524416  0.80939811  0.40614934  1
  Nb  Nb138  1  0.80428781  0.39374230  0.59209336  1
  Nb  Nb139  1  0.19700481  0.00202009  0.80425521  1
  Nb  Nb140  1  0.19807904  0.39958411  0.60335361  1
  Nb  Nb141  1  0.00475112  0.00358906  0.79909112  1
  Nb  Nb142  1  0.80848024  0.59281343  0.19030305  1
  Nb  Nb143  1  0.60610094  0.79636139  0.39793495  1
  Nb  Nb144  1  0.80399503  0.59385891  0.00249955  1
  Nb  Nb145  1  0.80364554  0.21110758  0.00151142  1
  Nb  Nb146  1  0.40214151  0.59775542  0.40190734  1
  Nb  Nb147  1  0.80029175  0.00433692  0.19809629  1
  Nb  Nb148  1  0.19983357  -0.00119063  0.40140245  1
  Nb  Nb149  1  0.59707610  -0.00243151  0.79871321  1
  Pd  Pd150  1  0.20337084  0.19578363  -0.00842198  1
  Pd  Pd151  1  0.20368756  0.18972039  0.40449059  1
  Pd  Pd152  1  0.20379383  0.19483025  0.81524923  1
  Pd  Pd153  1  -0.00533927  0.59883747  -0.00956991  1
  Pd  Pd154  1  0.39794810  0.79768370  0.00649654  1
  Pd  Pd155  1  -0.00179546  0.39705769  0.40650536  1
  Pd  Pd156  1  -0.00469132  0.19481877  0.60959853  1
  Pd  Pd157  1  0.58884589  0.19687707  0.59962687  1
  Pd  Pd158  1  0.81047217  0.00875494  0.00568086  1
  Pd  Pd159  1  0.19208942  0.59525549  0.60825064  1
  Pd  Pd160  1  0.00027781  0.39984994  0.59778515  1
  Pd  Pd161  1  0.20228658  0.80033047  0.60066418  1
  Pd  Pd162  1  0.79904567  0.19750487  0.80211820  1
  Pd  Pd163  1  0.00049295  0.39411931  0.79803472  1
  Pd  Pd164  1  0.40001135  0.61235780  0.59998390  1
  Pd  Pd165  1  0.59602705  0.19850801  0.40254729  1
  Pd  Pd166  1  0.79289188  0.58902472  0.39007823  1
  Pd  Pd167  1  0.19513950  0.80723736  0.79871386  1
  Pd  Pd168  1  0.39270553  0.40950649  -0.00618237  1
  Pd  Pd169  1  0.59597062  0.40599660  0.78825944  1
  Pd  Pd170  1  0.39731996  0.79696122  0.60792826  1
  Pd  Pd171  1  0.60891410  -0.00759983  0.39195542  1
  Pd  Pd172  1  0.40267182  -0.00016309  0.19393481  1
  Pd  Pd173  1  0.19291981  0.19362596  0.19800158  1
  Pd  Pd174  1  0.40531136  0.59871343  0.79972918  1
  Pd  Pd175  1  0.39389901  0.59332975  0.00232172  1
  Pd  Pd176  1  0.59066453  0.20022857  0.19797230  1
  Pd  Pd177  1  0.19824892  0.59647368  0.19692012  1
  Pd  Pd178  1  0.20572603  0.20557699  0.58802865  1
  Pd  Pd179  1  -0.00264983  0.19521930  0.79435708  1
  Pd  Pd180  1  0.39738419  0.80041314  0.18876553  1
  Pd  Pd181  1  0.60273093  0.41189215  0.39865359  1
  Pd  Pd182  1  0.38940151  0.00349218  0.39068124  1
  Pd  Pd183  1  0.01296485  0.40201301  0.19503980  1
  Pd  Pd184  1  0.80205599  0.80252678  0.59935106  1
  Pd  Pd185  1  0.19507777  0.60059199  0.79904486  1
  Pd  Pd186  1  -0.00387358  -0.00316861  0.18901900  1
  Pd  Pd187  1  0.59821430  0.19715670  0.80114886  1
  Pd  Pd188  1  0.60509253  0.60144094  0.00287745  1
  Pd  Pd189  1  0.80743356  0.60037755  0.80290908  1
  Pd  Pd190  1  0.40736826  0.40047069  0.39266468  1
  Pd  Pd191  1  0.61034851  0.21588537  0.00216104  1
  Pd  Pd192  1  0.01002393  0.60969523  0.39398928  1
  Pd  Pd193  1  -0.00303908  0.59916400  0.80677335  1
  Pd  Pd194  1  0.80338314  0.79969954  0.20969078  1
  Pd  Pd195  1  0.01640593  0.20038256  0.19762555  1
  Pd  Pd196  1  0.79310336  0.39975669  0.00537512  1
  Pd  Pd197  1  0.40550014  0.00059166  0.60406626  1
  Pd  Pd198  1  0.39990751  0.79459972  0.79610625  1
  Pd  Pd199  1  0.20520658  0.40407148  0.79833455  1
  Rh  Rh200  1  0.40304299  0.20460501  0.20671509  1
  Rh  Rh201  1  0.19498846  0.40090145  0.19749772  1
  Rh  Rh202  1  0.00043172  0.60147729  0.60536942  1
  Rh  Rh203  1  0.00108969  0.79634837  -0.00308102  1
  Rh  Rh204  1  0.59675654  0.80605868  0.80743544  1
  Rh  Rh205  1  0.20404470  0.60982054  0.39640581  1
  Rh  Rh206  1  -0.00094909  0.19780300  0.39705897  1
  Rh  Rh207  1  0.79823800  0.00371061  0.79658286  1
  Rh  Rh208  1  0.80266476  0.59419022  0.60848171  1
  Rh  Rh209  1  0.59514896  -0.01248395  -0.00904162  1
  Rh  Rh210  1  0.19953395  0.40151290  0.00211401  1
  Rh  Rh211  1  0.59208224  -0.00094256  0.61165541  1
  Rh  Rh212  1  0.18680414  0.40066985  0.40906154  1
  Rh  Rh213  1  0.60312324  0.79981759  0.59758792  1
  Rh  Rh214  1  0.39810348  0.39868447  0.19958615  1
  Rh  Rh215  1  -0.00768100  0.79604989  0.59956882  1
  Rh  Rh216  1  0.59439335  0.59747137  0.79411301  1
  Rh  Rh217  1  0.20325162  0.79694818  0.00075834  1
  Rh  Rh218  1  0.39193323  0.79485804  0.40443466  1
  Rh  Rh219  1  0.59399684  0.39575776  0.19476166  1
  Rh  Rh220  1  0.80129050  0.39702852  0.78652367  1
  Rh  Rh221  1  -0.00063037  0.01350369  0.61391699  1
  Rh  Rh222  1  0.60383317  0.39895718  0.00750318  1
  Rh  Rh223  1  0.00570291  0.39556502  0.00053468  1
  Rh  Rh224  1  0.79716521  0.00228374  0.60087704  1
  Rh  Rh225  1  0.19928676  0.80128139  0.20288883  1
  Rh  Rh226  1  0.00215000  0.81021971  0.79925714  1
  Rh  Rh227  1  0.80564219  0.19667057  0.19903101  1
  Rh  Rh228  1  0.39999246  -0.00680451  0.79680554  1
  Rh  Rh229  1  0.00141146  0.00069899  0.40309829  1
  Rh  Rh230  1  -0.00087241  0.20902900  0.00053514  1
  Rh  Rh231  1  0.39180890  0.20349401  -0.00739366  1
  Rh  Rh232  1  0.79708200  0.78357713  -0.01330541  1
  Rh  Rh233  1  0.19775111  0.00165423  0.60317685  1
  Rh  Rh234  1  0.38675511  0.59094027  0.20356791  1
  Rh  Rh235  1  0.61041370  0.60510862  0.20287797  1
  Rh  Rh236  1  0.00055142  0.59610541  0.20048507  1
  Rh  Rh237  1  0.60300919  0.60533943  0.59953714  1
  Rh  Rh238  1  0.80143542  0.79454878  0.79699662  1
  Rh  Rh239  1  0.79598783  0.20242132  0.59803433  1
  Rh  Rh240  1  0.19988459  0.00272794  0.20176160  1
  Rh  Rh241  1  0.00221925  0.79781638  0.20515241  1
  Rh  Rh242  1  0.61475742  0.40349067  0.60434068  1
  Rh  Rh243  1  0.40262243  0.21356777  0.80756544  1
  Rh  Rh244  1  0.39027429  0.38992501  0.60866291  1
  Rh  Rh245  1  -0.00669602  -0.00640932  0.00043024  1
  Rh  Rh246  1  0.19880344  0.60215664  0.00110342  1
  Rh  Rh247  1  0.39390927  -0.00236706  0.00530188  1
  Rh  Rh248  1  0.80680392  0.40760007  0.20636162  1
  Rh  Rh249  1  0.20966588  0.00360551  -0.00531032  1
