# generated using pymatgen
data_ZrScNbPdRh
_symmetry_space_group_name_H-M   'P 1'
_cell_length_a   16.56212768
_cell_length_b   16.55839950
_cell_length_c   16.55436354
_cell_angle_alpha   90.03703789
_cell_angle_beta   89.99984547
_cell_angle_gamma   90.00049869
_symmetry_Int_Tables_number   1
_chemical_formula_structural   ZrScNbPdRh
_chemical_formula_sum   'Zr50 Sc50 Nb50 Pd50 Rh50'
_cell_volume   4539.90622367
_cell_formula_units_Z   50
loop_
 _symmetry_equiv_pos_site_id
 _symmetry_equiv_pos_as_xyz
  1  'x, y, z'
loop_
 _atom_site_type_symbol
 _atom_site_label
 _atom_site_symmetry_multiplicity
 _atom_site_fract_x
 _atom_site_fract_y
 _atom_site_fract_z
 _atom_site_occupancy
  Zr  Zr0  1  0.88679483  0.89894440  0.10163900  1
  Zr  Zr1  1  0.30179282  0.69829672  0.29276474  1
  Zr  Zr2  1  0.50668245  0.10092750  0.10251229  1
  Zr  Zr3  1  0.11238268  0.90092662  0.10407448  1
  Zr  Zr4  1  0.08901931  0.10436281  0.50132569  1
  Zr  Zr5  1  0.49974676  0.69802522  0.49549102  1
  Zr  Zr6  1  0.89514975  0.70245701  0.29851950  1
  Zr  Zr7  1  0.89365873  0.70101211  0.09551278  1
  Zr  Zr8  1  0.90115430  0.70512402  0.70624023  1
  Zr  Zr9  1  0.30350016  0.50050425  0.69326038  1
  Zr  Zr10  1  0.30111993  0.90181279  0.50359058  1
  Zr  Zr11  1  0.30151201  0.49219955  0.09830765  1
  Zr  Zr12  1  0.29717493  0.70061955  0.69046181  1
  Zr  Zr13  1  0.09801271  0.30816180  0.49799105  1
  Zr  Zr14  1  0.09003791  0.49478043  0.69978137  1
  Zr  Zr15  1  0.10247171  0.10097480  0.70641605  1
  Zr  Zr16  1  0.50384026  0.10116547  0.90636777  1
  Zr  Zr17  1  0.29182438  0.70656662  0.90363257  1
  Zr  Zr18  1  0.29616773  0.69769075  0.49790639  1
  Zr  Zr19  1  0.49921439  0.49494534  0.90184872  1
  Zr  Zr20  1  0.68581133  0.10124172  0.28887791  1
  Zr  Zr21  1  0.51324123  0.90626678  0.29875209  1
  Zr  Zr22  1  0.68751674  0.29905349  0.50158214  1
  Zr  Zr23  1  0.10170895  0.10209047  0.30162353  1
  Zr  Zr24  1  0.70119291  0.90337576  0.50249319  1
  Zr  Zr25  1  0.69752998  0.69538751  0.49668023  1
  Zr  Zr26  1  0.69265784  0.69840552  0.29597734  1
  Zr  Zr27  1  0.70037667  0.69825854  0.09354966  1
  Zr  Zr28  1  0.49728076  0.29142086  0.50506365  1
  Zr  Zr29  1  0.10176579  0.49786506  0.48972813  1
  Zr  Zr30  1  0.51137351  0.69774866  0.89927037  1
  Zr  Zr31  1  0.89050536  0.90117343  0.69392901  1
  Zr  Zr32  1  0.89226990  0.49371474  0.69415477  1
  Zr  Zr33  1  0.50249218  0.49955239  0.70633036  1
  Zr  Zr34  1  0.49971120  0.70109488  0.10627988  1
  Zr  Zr35  1  0.89876103  0.09646532  0.10305537  1
  Zr  Zr36  1  0.89878699  0.70837290  0.50201585  1
  Zr  Zr37  1  0.30138389  0.49856814  0.89995066  1
  Zr  Zr38  1  0.50276496  0.30253905  0.89694857  1
  Zr  Zr39  1  0.50047157  0.69753144  0.29767538  1
  Zr  Zr40  1  0.70368789  0.50158262  0.50797489  1
  Zr  Zr41  1  0.30596832  0.09937194  0.09668237  1
  Zr  Zr42  1  0.90805154  0.49742590  0.89111953  1
  Zr  Zr43  1  0.09209428  0.69927978  0.89487230  1
  Zr  Zr44  1  0.30348444  0.10117809  0.89844990  1
  Zr  Zr45  1  0.90314860  0.08932378  0.30514752  1
  Zr  Zr46  1  0.29691221  0.50142193  0.49494789  1
  Zr  Zr47  1  0.88998036  0.90630749  0.49522683  1
  Zr  Zr48  1  0.10506124  0.69620252  0.50202057  1
  Zr  Zr49  1  0.10031425  0.50214822  0.90699661  1
  Sc  Sc50  1  0.50496336  0.89665767  0.09285606  1
  Sc  Sc51  1  0.29851472  0.90477116  0.91415829  1
  Sc  Sc52  1  0.69350607  0.69836894  0.69974088  1
  Sc  Sc53  1  0.49949484  0.29408669  0.31100243  1
  Sc  Sc54  1  0.69964743  0.90096754  0.09988523  1
  Sc  Sc55  1  0.29751219  0.90878976  0.69533568  1
  Sc  Sc56  1  0.70791204  0.28918326  0.11291982  1
  Sc  Sc57  1  0.91311124  0.10536889  0.89573723  1
  Sc  Sc58  1  0.10261110  0.90065406  0.29808229  1
  Sc  Sc59  1  0.09625868  0.28877714  0.89480009  1
  Sc  Sc60  1  0.10545650  0.90067536  0.89740251  1
  Sc  Sc61  1  0.90636454  0.10592233  0.70363265  1
  Sc  Sc62  1  0.10180302  0.89649601  0.50269915  1
  Sc  Sc63  1  0.69100878  0.09331167  0.50754948  1
  Sc  Sc64  1  0.90572590  0.50501783  0.29637850  1
  Sc  Sc65  1  0.30864810  0.30105157  0.29981569  1
  Sc  Sc66  1  0.09819438  0.10561497  0.11009498  1
  Sc  Sc67  1  0.50157483  0.69267311  0.70019171  1
  Sc  Sc68  1  0.49999453  0.09836946  0.69783931  1
  Sc  Sc69  1  0.90105295  0.50936714  0.10437702  1
  Sc  Sc70  1  0.30973193  0.29456043  0.69734553  1
  Sc  Sc71  1  0.90182601  0.30323227  0.29975705  1
  Sc  Sc72  1  0.09664891  0.69862047  0.08936276  1
  Sc  Sc73  1  0.10107176  0.30935674  0.29739000  1
  Sc  Sc74  1  0.30701142  0.29583559  0.90073141  1
  Sc  Sc75  1  0.10088182  0.90762442  0.70541999  1
  Sc  Sc76  1  0.10080726  0.09809232  0.89009967  1
  Sc  Sc77  1  0.69313659  0.29622777  0.88573594  1
  Sc  Sc78  1  0.49356388  0.30044727  0.09741515  1
  Sc  Sc79  1  0.90703263  0.28755310  0.10370191  1
  Sc  Sc80  1  0.89721661  0.89540131  0.89783482  1
  Sc  Sc81  1  0.49615173  0.49671797  0.49867438  1
  Sc  Sc82  1  0.50376090  0.90508926  0.90144830  1
  Sc  Sc83  1  0.09987832  0.69907915  0.30625546  1
  Sc  Sc84  1  0.31223172  0.09807880  0.50984247  1
  Sc  Sc85  1  0.50062148  0.91706434  0.49927522  1
  Sc  Sc86  1  0.90847752  0.30215068  0.50657225  1
  Sc  Sc87  1  0.68801838  0.49601307  0.90503375  1
  Sc  Sc88  1  0.49888183  0.49345221  0.10053114  1
  Sc  Sc89  1  0.90304506  0.30761670  0.70772240  1
  Sc  Sc90  1  0.69398673  0.89771851  0.90493651  1
  Sc  Sc91  1  0.29956010  0.09722010  0.70260844  1
  Sc  Sc92  1  0.69679371  0.90598739  0.69733824  1
  Sc  Sc93  1  0.90061634  0.70148866  0.90567432  1
  Sc  Sc94  1  0.49285709  0.50418186  0.29759117  1
  Sc  Sc95  1  0.30578453  0.49561036  0.30217531  1
  Sc  Sc96  1  0.30482348  0.29804293  0.10793922  1
  Sc  Sc97  1  0.50072841  0.90593555  0.70055053  1
  Sc  Sc98  1  0.30685636  0.11162979  0.29518710  1
  Sc  Sc99  1  0.30864687  0.30879996  0.49952167  1
  Nb  Nb100  1  0.69464281  0.10122843  0.89796622  1
  Nb  Nb101  1  0.70140521  0.09614676  0.09164893  1
  Nb  Nb102  1  0.10201752  0.50069703  0.29617253  1
  Nb  Nb103  1  0.89580168  0.10223786  0.50196451  1
  Nb  Nb104  1  0.70543822  0.90036656  0.29628831  1
  Nb  Nb105  1  0.29683594  0.89688788  0.29376289  1
  Nb  Nb106  1  0.70223740  0.49470416  0.69677728  1
  Nb  Nb107  1  0.51016121  0.29862241  0.69693606  1
  Nb  Nb108  1  0.70784927  0.49545535  0.10524459  1
  Nb  Nb109  1  0.30020837  0.89313594  0.10684886  1
  Nb  Nb110  1  0.10387651  0.29917904  0.09930620  1
  Nb  Nb111  1  0.10412158  0.49239394  0.10169210  1
  Nb  Nb112  1  0.09775008  0.69516267  0.69928288  1
  Nb  Nb113  1  0.70282642  0.30124472  0.30752861  1
  Nb  Nb114  1  0.69802627  0.69436485  0.89881747  1
  Nb  Nb115  1  0.69681533  0.29823193  0.69520834  1
  Nb  Nb116  1  0.30094626  0.70873504  0.10257770  1
  Nb  Nb117  1  0.09907533  0.29764611  0.69606958  1
  Nb  Nb118  1  0.89848424  0.49911055  0.50242477  1
  Nb  Nb119  1  0.49772555  0.09788472  0.30438040  1
  Nb  Nb120  1  0.90100442  0.29972258  0.90661104  1
  Nb  Nb121  1  0.69717475  0.10561586  0.70631129  1
  Nb  Nb122  1  0.70677660  0.49641949  0.29724062  1
  Nb  Nb123  1  0.88960943  0.89937544  0.29630297  1
  Nb  Nb124  1  0.50125523  0.10309413  0.49357440  1
  Nb  Nb125  1  0.79298904  0.01071564  0.80273882  1
  Nb  Nb126  1  0.79805565  0.19582683  -0.00715410  1
  Nb  Nb127  1  -0.00245691  0.60016466  0.59732419  1
  Nb  Nb128  1  0.19559633  0.20325765  0.59720253  1
  Nb  Nb129  1  0.19648809  0.59809241  0.79560400  1
  Nb  Nb130  1  0.59798121  0.79981125  0.59369498  1
  Nb  Nb131  1  0.20545488  0.00527545  0.40003292  1
  Nb  Nb132  1  0.79702951  0.39988542  0.40204206  1
  Nb  Nb133  1  0.20047527  0.19927436  0.40671058  1
  Nb  Nb134  1  0.19808038  0.20001939  0.00416578  1
  Nb  Nb135  1  0.79605025  0.20045313  0.60174750  1
  Nb  Nb136  1  0.80457861  0.39242009  0.00067415  1
  Nb  Nb137  1  0.40035589  -0.00479869  0.20045825  1
  Nb  Nb138  1  0.39790500  0.79800843  0.80058930  1
  Nb  Nb139  1  -0.00760500  0.80330750  0.20031437  1
  Nb  Nb140  1  0.39705641  0.60674695  0.00285194  1
  Nb  Nb141  1  0.61109274  0.39945204  0.20738025  1
  Nb  Nb142  1  0.79678465  0.20056767  0.40452287  1
  Nb  Nb143  1  0.19794999  0.39921001  0.79656413  1
  Nb  Nb144  1  -0.00765878  0.00238479  0.59688603  1
  Nb  Nb145  1  0.79344693  0.59735562  0.80127719  1
  Nb  Nb146  1  -0.00009814  -0.00050529  0.00509652  1
  Nb  Nb147  1  0.39834762  0.80628999  0.39565245  1
  Nb  Nb148  1  0.00234686  0.39521915  0.00493296  1
  Nb  Nb149  1  0.19762789  0.59356473  0.19374881  1
  Pd  Pd150  1  0.79018862  0.40347720  0.80818823  1
  Pd  Pd151  1  0.41019435  0.80965618  0.20516161  1
  Pd  Pd152  1  0.40799819  0.19922504  0.79501978  1
  Pd  Pd153  1  0.00975492  0.60920458  0.19596296  1
  Pd  Pd154  1  0.59651665  0.80422103  0.79207651  1
  Pd  Pd155  1  0.79332867  0.79964960  0.39798650  1
  Pd  Pd156  1  0.00192969  0.20370707  0.20957239  1
  Pd  Pd157  1  -0.00567727  0.39992769  0.19338388  1
  Pd  Pd158  1  0.80352335  0.61008661  0.60775648  1
  Pd  Pd159  1  0.59146647  0.21188053  0.20206721  1
  Pd  Pd160  1  -0.00107442  -0.01004937  0.19673809  1
  Pd  Pd161  1  0.39200140  -0.00026768  0.39095396  1
  Pd  Pd162  1  -0.00365230  0.20867510  0.39472702  1
  Pd  Pd163  1  0.78916819  0.79988300  0.80531374  1
  Pd  Pd164  1  0.59634575  0.80763880  0.40503971  1
  Pd  Pd165  1  0.00605262  0.80411779  0.60385276  1
  Pd  Pd166  1  0.40498485  0.79898503  -0.00740721  1
  Pd  Pd167  1  0.80459015  0.59463389  0.39599727  1
  Pd  Pd168  1  0.00298848  0.81175048  0.00518556  1
  Pd  Pd169  1  0.19729922  0.38461935  -0.00904714  1
  Pd  Pd170  1  0.80610590  0.39682397  0.19869290  1
  Pd  Pd171  1  0.80622809  0.00700888  -0.01309712  1
  Pd  Pd172  1  -0.00463166  0.59831157  0.40435858  1
  Pd  Pd173  1  0.60274214  0.58842964  0.19424453  1
  Pd  Pd174  1  0.80343821  0.19154627  0.20686779  1
  Pd  Pd175  1  0.20443392  0.80562383  0.39768128  1
  Pd  Pd176  1  0.59428530  0.59462334  0.00920751  1
  Pd  Pd177  1  0.19347417  0.80679898  0.60784122  1
  Pd  Pd178  1  0.00587155  -0.01040763  0.40374435  1
  Pd  Pd179  1  0.20481673  0.80159530  0.79387337  1
  Pd  Pd180  1  0.61329792  0.38720148  0.01491074  1
  Pd  Pd181  1  0.59361045  0.40558977  0.60079210  1
  Pd  Pd182  1  0.20410826  0.60423939  0.00417974  1
  Pd  Pd183  1  0.80580747  0.19872959  0.79969002  1
  Pd  Pd184  1  0.40976856  0.80634745  0.60001517  1
  Pd  Pd185  1  0.19208698  0.01062640  -0.00095835  1
  Pd  Pd186  1  0.60946275  0.21076550  0.00267478  1
  Pd  Pd187  1  0.78692729  0.01133277  0.39465966  1
  Pd  Pd188  1  0.21021206  0.00900697  0.20648158  1
  Pd  Pd189  1  0.20452674  0.39444424  0.60481090  1
  Pd  Pd190  1  0.80075415  0.58802357  -0.01058697  1
  Pd  Pd191  1  -0.00052719  0.80854124  0.39324241  1
  Pd  Pd192  1  0.39332599  0.60995177  0.80725377  1
  Pd  Pd193  1  0.39708369  0.39300647  0.79556775  1
  Pd  Pd194  1  0.40594762  0.59713665  0.59498368  1
  Pd  Pd195  1  0.39796365  -0.00861494  0.80267799  1
  Pd  Pd196  1  0.59826879  0.58652807  0.39730159  1
  Pd  Pd197  1  0.59860712  0.40775955  0.39496085  1
  Pd  Pd198  1  0.00139918  0.80824713  0.79787697  1
  Pd  Pd199  1  0.20600159  0.39880562  0.20671585  1
  Rh  Rh200  1  0.19526627  0.80051298  0.00300227  1
  Rh  Rh201  1  0.18847116  0.01082062  0.59353674  1
  Rh  Rh202  1  0.80437734  0.01548957  0.61311030  1
  Rh  Rh203  1  0.41025647  0.19508199  0.20132912  1
  Rh  Rh204  1  0.59706551  0.59996630  0.60150499  1
  Rh  Rh205  1  -0.00166991  0.20777727  0.79567368  1
  Rh  Rh206  1  0.60445086  0.00251567  0.80130639  1
  Rh  Rh207  1  0.41346940  0.39547610  0.20519794  1
  Rh  Rh208  1  0.60382762  0.79717693  0.00004221  1
  Rh  Rh209  1  0.79555652  0.79529045  0.20017458  1
  Rh  Rh210  1  0.61044066  0.58997012  0.79555346  1
  Rh  Rh211  1  -0.00469993  0.60301454  0.79254536  1
  Rh  Rh212  1  0.39665494  0.60603158  0.40200016  1
  Rh  Rh213  1  0.40402554  -0.00366715  0.01004020  1
  Rh  Rh214  1  0.39932884  0.40061859  -0.00109487  1
  Rh  Rh215  1  -0.00800356  0.40758469  0.39588398  1
  Rh  Rh216  1  0.59932698  0.19233121  0.60413617  1
  Rh  Rh217  1  0.79611784  0.60503940  0.20227548  1
  Rh  Rh218  1  0.79876846  0.38658181  0.59273648  1
  Rh  Rh219  1  0.18880828  0.59365132  0.60598063  1
  Rh  Rh220  1  -0.00273400  0.59073949  0.00544720  1
  Rh  Rh221  1  0.20963117  -0.00200967  0.80597966  1
  Rh  Rh222  1  0.59623354  0.00053434  0.60376306  1
  Rh  Rh223  1  0.20052506  0.20698666  0.20134030  1
  Rh  Rh224  1  0.60692887  0.00456394  0.39901235  1
  Rh  Rh225  1  0.78633192  0.79375598  0.59872407  1
  Rh  Rh226  1  0.40454554  0.39979067  0.40075070  1
  Rh  Rh227  1  0.59096650  0.19818408  0.79559904  1
  Rh  Rh228  1  0.40699328  0.39990158  0.60233476  1
  Rh  Rh229  1  0.60584744  0.80327827  0.19681156  1
  Rh  Rh230  1  0.60032384  -0.00392223  0.19148882  1
  Rh  Rh231  1  0.79151432  0.79693307  -0.00731002  1
  Rh  Rh232  1  0.20362004  0.20685267  0.79650611  1
  Rh  Rh233  1  0.38984771  0.59654077  0.18919527  1
  Rh  Rh234  1  0.60060292  0.00022481  0.00117362  1
  Rh  Rh235  1  -0.00181052  0.40518388  0.59584027  1
  Rh  Rh236  1  0.40626389  0.00435247  0.60297150  1
  Rh  Rh237  1  0.39691208  0.20124087  -0.00008608  1
  Rh  Rh238  1  0.79149937  0.00618618  0.20407672  1
  Rh  Rh239  1  0.20333458  0.59471850  0.38608377  1
  Rh  Rh240  1  -0.00090867  0.19781529  0.60781518  1
  Rh  Rh241  1  0.39568060  0.19793984  0.40537169  1
  Rh  Rh242  1  0.18833628  0.78645689  0.19687591  1
  Rh  Rh243  1  0.00930019  0.39138293  0.80839897  1
  Rh  Rh244  1  0.20395822  0.39580283  0.39278530  1
  Rh  Rh245  1  0.60379291  0.40106044  0.79276331  1
  Rh  Rh246  1  0.60285223  0.19128797  0.40071007  1
  Rh  Rh247  1  0.40062189  0.19797716  0.60220943  1
  Rh  Rh248  1  0.00501578  0.19629768  0.00133530  1
  Rh  Rh249  1  -0.01269950  -0.00884894  0.79871416  1
