# generated using pymatgen
data_ZrScNbPdRh
_symmetry_space_group_name_H-M   'P 1'
_cell_length_a   16.55400217
_cell_length_b   16.55699130
_cell_length_c   16.55554408
_cell_angle_alpha   90.02739518
_cell_angle_beta   90.01014481
_cell_angle_gamma   89.99775120
_symmetry_Int_Tables_number   1
_chemical_formula_structural   ZrScNbPdRh
_chemical_formula_sum   'Zr50 Sc50 Nb50 Pd50 Rh50'
_cell_volume   4537.61693190
_cell_formula_units_Z   50
loop_
 _symmetry_equiv_pos_site_id
 _symmetry_equiv_pos_as_xyz
  1  'x, y, z'
loop_
 _atom_site_type_symbol
 _atom_site_label
 _atom_site_symmetry_multiplicity
 _atom_site_fract_x
 _atom_site_fract_y
 _atom_site_fract_z
 _atom_site_occupancy
  Zr  Zr0  1  0.28896313  0.69988295  0.30312010  1
  Zr  Zr1  1  0.89293289  0.90318024  0.10193024  1
  Zr  Zr2  1  0.70088792  0.89959499  0.29532603  1
  Zr  Zr3  1  0.10248604  0.10068848  0.89581207  1
  Zr  Zr4  1  0.29838431  0.09689407  0.50770899  1
  Zr  Zr5  1  0.30302330  0.90438629  0.70012884  1
  Zr  Zr6  1  0.50619037  0.89803626  0.70462436  1
  Zr  Zr7  1  0.89332121  0.09263650  0.10124371  1
  Zr  Zr8  1  0.70036229  0.29297548  0.10052494  1
  Zr  Zr9  1  0.89786831  0.09572463  0.30375925  1
  Zr  Zr10  1  0.29498509  0.90055301  0.09560008  1
  Zr  Zr11  1  0.30668385  0.30270637  0.70723813  1
  Zr  Zr12  1  0.10384669  0.10092381  0.69885029  1
  Zr  Zr13  1  0.10502713  0.89934449  0.30671393  1
  Zr  Zr14  1  0.69153848  0.29873808  0.70028738  1
  Zr  Zr15  1  0.10321422  0.49807118  0.70158055  1
  Zr  Zr16  1  0.49366064  0.10389452  0.90448108  1
  Zr  Zr17  1  0.29088178  0.29564881  0.49575868  1
  Zr  Zr18  1  0.10154133  0.71032917  0.70224690  1
  Zr  Zr19  1  0.50208256  0.10252077  0.09982777  1
  Zr  Zr20  1  0.09813461  0.69916794  0.30559989  1
  Zr  Zr21  1  0.70043281  0.90842700  0.09986497  1
  Zr  Zr22  1  0.49884461  0.09913901  0.30207524  1
  Zr  Zr23  1  0.10665102  0.70973577  0.49623115  1
  Zr  Zr24  1  0.90846150  0.70071698  0.48458097  1
  Zr  Zr25  1  0.49862916  0.69494866  0.90111869  1
  Zr  Zr26  1  0.90291847  0.49792770  0.90604046  1
  Zr  Zr27  1  0.69557659  0.29308124  0.50256156  1
  Zr  Zr28  1  0.30188668  0.09906915  0.89764758  1
  Zr  Zr29  1  0.29242954  0.49253801  0.30232106  1
  Zr  Zr30  1  0.49851997  0.49596846  0.29075508  1
  Zr  Zr31  1  0.29396998  0.10387991  0.31386966  1
  Zr  Zr32  1  0.89601595  0.30287270  0.50496194  1
  Zr  Zr33  1  0.09837530  0.50143597  0.29817984  1
  Zr  Zr34  1  0.11184479  0.89638106  0.89752291  1
  Zr  Zr35  1  0.50702543  0.10862723  0.49803838  1
  Zr  Zr36  1  0.49877116  0.90878503  0.10389573  1
  Zr  Zr37  1  0.50529657  0.51026378  0.49713287  1
  Zr  Zr38  1  0.89961539  0.10382131  0.50442880  1
  Zr  Zr39  1  0.70021638  0.49751507  0.30107235  1
  Zr  Zr40  1  0.29412406  0.10660719  0.09311531  1
  Zr  Zr41  1  0.70207467  0.70218881  0.70587361  1
  Zr  Zr42  1  0.90351330  0.10575301  0.70079397  1
  Zr  Zr43  1  0.10174009  0.90579747  0.10162227  1
  Zr  Zr44  1  0.49985674  0.90245281  0.29243925  1
  Zr  Zr45  1  0.10239553  0.49406493  0.50234614  1
  Zr  Zr46  1  0.10080336  0.69809180  0.89889569  1
  Zr  Zr47  1  0.50225364  0.48991746  0.70300304  1
  Zr  Zr48  1  0.70314236  0.70317519  0.89471862  1
  Zr  Zr49  1  0.89998607  0.49771033  0.30114251  1
  Sc  Sc50  1  0.29926950  0.90010663  0.29875635  1
  Sc  Sc51  1  0.70155414  0.50347006  0.89967866  1
  Sc  Sc52  1  0.90360025  0.70083167  0.08664055  1
  Sc  Sc53  1  0.08946221  0.49761874  0.09606407  1
  Sc  Sc54  1  0.70140782  0.49855720  0.70528585  1
  Sc  Sc55  1  0.10264204  0.70356842  0.09789237  1
  Sc  Sc56  1  0.90144822  0.89616770  0.70179872  1
  Sc  Sc57  1  0.49328492  0.69165182  0.30104704  1
  Sc  Sc58  1  0.89331494  0.30964522  0.10387359  1
  Sc  Sc59  1  0.29366728  0.49890284  0.69936227  1
  Sc  Sc60  1  0.70104441  0.10997807  0.30105018  1
  Sc  Sc61  1  0.70414999  0.70708825  0.09965033  1
  Sc  Sc62  1  0.90059368  0.29763640  0.70143758  1
  Sc  Sc63  1  0.10065918  0.29801994  0.50869369  1
  Sc  Sc64  1  0.30271412  0.29618319  0.90354931  1
  Sc  Sc65  1  0.89259144  0.69814027  0.90163842  1
  Sc  Sc66  1  0.48961686  0.89379312  0.51139985  1
  Sc  Sc67  1  0.50758895  0.70250564  0.69111988  1
  Sc  Sc68  1  0.50161298  0.49840545  0.90849363  1
  Sc  Sc69  1  0.29679798  0.89910905  0.50423935  1
  Sc  Sc70  1  0.49733498  0.91266309  0.88842421  1
  Sc  Sc71  1  0.10362727  0.09272348  0.29721243  1
  Sc  Sc72  1  0.89715258  0.70405575  0.71131711  1
  Sc  Sc73  1  0.89609257  0.90450309  0.30140344  1
  Sc  Sc74  1  0.69823109  0.89503347  0.70588914  1
  Sc  Sc75  1  0.89512711  0.90482642  0.48840232  1
  Sc  Sc76  1  0.68636561  0.69149988  0.49918885  1
  Sc  Sc77  1  0.10003926  0.49071622  0.90077118  1
  Sc  Sc78  1  0.29767673  0.70021777  0.10067421  1
  Sc  Sc79  1  0.49932542  0.49674390  0.09875895  1
  Sc  Sc80  1  0.49869073  0.30243762  0.09922214  1
  Sc  Sc81  1  0.29256620  0.69726101  0.69861029  1
  Sc  Sc82  1  0.69900697  0.10624925  0.90704613  1
  Sc  Sc83  1  0.49348320  0.68809224  0.10088701  1
  Sc  Sc84  1  0.90233155  0.48689771  0.70077521  1
  Sc  Sc85  1  0.70414444  0.49592934  0.49530046  1
  Sc  Sc86  1  0.11051313  0.10362880  0.49973759  1
  Sc  Sc87  1  0.69639647  0.49042974  0.09902613  1
  Sc  Sc88  1  0.30159363  0.49283840  0.89834943  1
  Sc  Sc89  1  0.71185424  0.10481558  0.50030118  1
  Sc  Sc90  1  0.29421886  0.70313408  0.89382586  1
  Sc  Sc91  1  0.29448084  0.50460974  0.50143098  1
  Sc  Sc92  1  0.09713220  0.30422034  0.69785940  1
  Sc  Sc93  1  0.29825466  0.30351214  0.09913989  1
  Sc  Sc94  1  0.89439558  0.89697895  0.90573522  1
  Sc  Sc95  1  0.69897272  0.90293155  0.89807121  1
  Sc  Sc96  1  0.69734202  0.69985268  0.29860719  1
  Sc  Sc97  1  0.10715963  0.30313825  0.10128454  1
  Sc  Sc98  1  0.50573223  0.09905683  0.71276328  1
  Sc  Sc99  1  0.30910288  0.49557145  0.09384842  1
  Nb  Nb100  1  0.09316384  0.30419596  0.90398899  1
  Nb  Nb101  1  0.49844258  0.29525972  0.30564907  1
  Nb  Nb102  1  0.49705552  0.69958761  0.49709177  1
  Nb  Nb103  1  0.10200966  0.89585082  0.69276038  1
  Nb  Nb104  1  0.30392606  0.90244175  0.90350547  1
  Nb  Nb105  1  0.50367505  0.30080823  0.69767534  1
  Nb  Nb106  1  0.69923739  0.89785617  0.49893341  1
  Nb  Nb107  1  0.50639566  0.29924414  0.50511876  1
  Nb  Nb108  1  0.29859891  0.10407213  0.69718180  1
  Nb  Nb109  1  0.10354781  0.30371855  0.29640553  1
  Nb  Nb110  1  0.31075761  0.70081112  0.49635122  1
  Nb  Nb111  1  0.70750699  0.30358285  0.30185044  1
  Nb  Nb112  1  0.69590964  0.09681894  0.09991375  1
  Nb  Nb113  1  0.90255638  0.50021263  0.49745908  1
  Nb  Nb114  1  0.09565886  0.10242711  0.09919081  1
  Nb  Nb115  1  0.10120778  0.89687069  0.50670293  1
  Nb  Nb116  1  0.90737489  0.69765458  0.30046799  1
  Nb  Nb117  1  0.90237137  0.10393650  0.89613016  1
  Nb  Nb118  1  0.89610430  0.29387920  0.89810761  1
  Nb  Nb119  1  0.89836523  0.30266369  0.29808311  1
  Nb  Nb120  1  0.90043596  0.50314979  0.10302790  1
  Nb  Nb121  1  0.70753303  0.29845409  0.90005149  1
  Nb  Nb122  1  0.49609591  0.29439287  0.88195584  1
  Nb  Nb123  1  0.70768123  0.09837305  0.69693430  1
  Nb  Nb124  1  0.29446355  0.30068183  0.29701219  1
  Nb  Nb125  1  -0.00230656  0.39612634  0.39666331  1
  Nb  Nb126  1  0.40202261  0.80576406  -0.00342901  1
  Nb  Nb127  1  0.80936937  0.60227339  0.59687495  1
  Nb  Nb128  1  0.80932718  0.59788760  0.20000841  1
  Nb  Nb129  1  0.59592800  0.39099678  0.39714932  1
  Nb  Nb130  1  -0.00239850  0.60202358  0.60070408  1
  Nb  Nb131  1  0.60716160  -0.00073755  0.59790595  1
  Nb  Nb132  1  0.79622221  0.79352498  0.59284620  1
  Nb  Nb133  1  0.60184259  -0.00568141  0.40590972  1
  Nb  Nb134  1  0.40684883  0.39461317  0.59361955  1
  Nb  Nb135  1  0.40206654  0.59732962  0.79770958  1
  Nb  Nb136  1  0.00171400  0.00727367  -0.00411781  1
  Nb  Nb137  1  0.00335203  0.59647013  0.79667136  1
  Nb  Nb138  1  0.59083288  0.80310711  0.00018551  1
  Nb  Nb139  1  0.40532176  0.20436698  0.60426983  1
  Nb  Nb140  1  0.80414606  0.01040239  0.80017134  1
  Nb  Nb141  1  0.19851752  0.59734550  -0.00430517  1
  Nb  Nb142  1  0.00639131  -0.00506729  0.60122640  1
  Nb  Nb143  1  0.59259193  0.80265498  0.40357887  1
  Nb  Nb144  1  0.40365642  0.39278530  0.40108495  1
  Nb  Nb145  1  0.00100554  0.20067597  0.19981696  1
  Nb  Nb146  1  0.00000559  0.20725595  0.39162231  1
  Nb  Nb147  1  0.39504023  0.20413029  0.20845541  1
  Nb  Nb148  1  -0.00120562  0.80044526  0.20435731  1
  Nb  Nb149  1  -0.00322576  0.19943384  0.00030442  1
  Pd  Pd150  1  0.60868587  0.60534150  0.00740598  1
  Pd  Pd151  1  0.00544464  0.20957078  0.80150556  1
  Pd  Pd152  1  0.00823329  0.00551697  0.41050314  1
  Pd  Pd153  1  0.41225372  0.01091341  0.60650990  1
  Pd  Pd154  1  0.39968499  0.59528521  0.60802644  1
  Pd  Pd155  1  0.60846897  0.59388265  0.60518396  1
  Pd  Pd156  1  0.19758433  0.20921681  0.80041728  1
  Pd  Pd157  1  0.59522709  0.20980591  -0.00556014  1
  Pd  Pd158  1  0.80071444  0.39839080  0.80225560  1
  Pd  Pd159  1  -0.00477200  0.80062657  0.80863907  1
  Pd  Pd160  1  0.40083306  0.80527567  0.39620473  1
  Pd  Pd161  1  0.59370817  0.59842345  0.79741824  1
  Pd  Pd162  1  0.20040588  0.59261916  0.18678405  1
  Pd  Pd163  1  -0.00275125  0.60896344  0.19246640  1
  Pd  Pd164  1  0.60088601  0.39016536  0.20275502  1
  Pd  Pd165  1  0.19945250  0.40789999  0.18854723  1
  Pd  Pd166  1  0.39394319  0.59202940  0.39569741  1
  Pd  Pd167  1  0.38931634  0.59744712  0.20066604  1
  Pd  Pd168  1  0.00115638  0.80787761  0.00221789  1
  Pd  Pd169  1  0.20574885  0.00469533  0.20107043  1
  Pd  Pd170  1  0.59642371  0.20307687  0.20398790  1
  Pd  Pd171  1  -0.01192071  0.80152830  0.59474961  1
  Pd  Pd172  1  0.79085451  0.79117061  0.40148830  1
  Pd  Pd173  1  0.59142750  0.78916705  0.19780752  1
  Pd  Pd174  1  0.60692451  0.19483312  0.80183993  1
  Pd  Pd175  1  0.39480615  0.79299665  0.60743116  1
  Pd  Pd176  1  -0.00383770  -0.00991120  0.79972470  1
  Pd  Pd177  1  0.80375270  0.19763519  0.19893170  1
  Pd  Pd178  1  0.79324047  0.59709966  0.00806545  1
  Pd  Pd179  1  0.79841956  0.40117668  -0.00019777  1
  Pd  Pd180  1  0.38663288  0.01225634  0.19871418  1
  Pd  Pd181  1  0.79414440  0.40391135  0.60170083  1
  Pd  Pd182  1  0.81077333  0.78998879  0.19926498  1
  Pd  Pd183  1  0.59772429  0.38994278  -0.00855809  1
  Pd  Pd184  1  0.80490594  0.19724939  0.00323486  1
  Pd  Pd185  1  0.59847158  -0.00359180  -0.00672806  1
  Pd  Pd186  1  0.79535748  0.60573070  0.39852603  1
  Pd  Pd187  1  0.19927337  0.39286181  0.80572168  1
  Pd  Pd188  1  0.60885963  0.60318871  0.19374221  1
  Pd  Pd189  1  0.39880664  0.79386845  0.19498617  1
  Pd  Pd190  1  0.60359386  0.39927582  0.81270064  1
  Pd  Pd191  1  0.19394728  0.20683284  -0.00388833  1
  Pd  Pd192  1  -0.00396925  0.39109667  0.00531680  1
  Pd  Pd193  1  0.19539569  0.60724436  0.59550347  1
  Pd  Pd194  1  0.40014204  0.79255486  0.80079391  1
  Pd  Pd195  1  0.20510087  -0.00291463  0.79558351  1
  Pd  Pd196  1  0.40630346  0.39162424  -0.00699618  1
  Pd  Pd197  1  0.40378599  -0.00760337  0.40659953  1
  Pd  Pd198  1  0.39747904  0.20438360  0.40418478  1
  Pd  Pd199  1  0.80227610  -0.01212203  0.60667615  1
  Rh  Rh200  1  0.60369629  0.80452592  0.59109555  1
  Rh  Rh201  1  0.79835964  0.20955671  0.60873335  1
  Rh  Rh202  1  0.20858656  0.79337724  -0.00093052  1
  Rh  Rh203  1  0.81265782  0.58854876  0.79408985  1
  Rh  Rh204  1  0.79325789  0.19895109  0.79791710  1
  Rh  Rh205  1  0.19183306  0.80062149  0.20197803  1
  Rh  Rh206  1  0.18752786  0.20352035  0.39374419  1
  Rh  Rh207  1  0.19584563  0.00414538  -0.00325854  1
  Rh  Rh208  1  0.00618073  0.59761999  -0.00778188  1
  Rh  Rh209  1  0.20928730  0.80345110  0.40540135  1
  Rh  Rh210  1  0.79873539  0.39331638  0.40430221  1
  Rh  Rh211  1  0.61442362  0.00655475  0.79596901  1
  Rh  Rh212  1  0.79815369  0.40696771  0.19658569  1
  Rh  Rh213  1  0.60764238  0.01084587  0.20807970  1
  Rh  Rh214  1  0.21024491  0.79803805  0.59849615  1
  Rh  Rh215  1  -0.00168376  0.81220853  0.39323297  1
  Rh  Rh216  1  0.19977246  0.59448088  0.80762881  1
  Rh  Rh217  1  0.19971601  -0.00594870  0.40758601  1
  Rh  Rh218  1  0.00849269  0.58917985  0.40645909  1
  Rh  Rh219  1  0.19622956  0.39652501  0.40189410  1
  Rh  Rh220  1  0.80664261  0.20405822  0.39898798  1
  Rh  Rh221  1  0.79088651  0.00751333  0.20583170  1
  Rh  Rh222  1  0.20666952  0.80839584  0.79514285  1
  Rh  Rh223  1  -0.00077725  0.40399055  0.59481059  1
  Rh  Rh224  1  0.78961797  0.00369041  0.39604491  1
  Rh  Rh225  1  0.20882954  0.39461190  0.60220714  1
  Rh  Rh226  1  -0.00090123  0.39431687  0.20209308  1
  Rh  Rh227  1  0.39908497  0.19456987  0.79394092  1
  Rh  Rh228  1  0.59646079  0.79925991  0.81109443  1
  Rh  Rh229  1  0.80178149  0.00703325  -0.00956124  1
  Rh  Rh230  1  0.38611766  0.60789408  -0.01103209  1
  Rh  Rh231  1  0.60009097  0.40871315  0.59177748  1
  Rh  Rh232  1  0.80163617  0.81165388  0.79864161  1
  Rh  Rh233  1  0.40423869  0.20612812  0.00539215  1
  Rh  Rh234  1  0.40239194  0.40483455  0.79986240  1
  Rh  Rh235  1  0.00481751  0.19288902  0.59344942  1
  Rh  Rh236  1  0.60761844  0.20109805  0.39523753  1
  Rh  Rh237  1  0.20037175  0.19642316  0.20399037  1
  Rh  Rh238  1  0.20053177  0.40445656  0.00039063  1
  Rh  Rh239  1  0.20583382  0.20523943  0.60905295  1
  Rh  Rh240  1  -0.00065768  -0.00279904  0.19316047  1
  Rh  Rh241  1  0.59745748  0.60057438  0.39284879  1
  Rh  Rh242  1  0.78735461  0.80309742  -0.00159933  1
  Rh  Rh243  1  -0.00391886  0.39862911  0.80339282  1
  Rh  Rh244  1  0.39795735  0.39271856  0.20562666  1
  Rh  Rh245  1  0.19445880  -0.00278636  0.60174338  1
  Rh  Rh246  1  0.39378303  0.00673968  0.79479126  1
  Rh  Rh247  1  0.39907594  -0.00252086  0.00136702  1
  Rh  Rh248  1  0.20027924  0.60241602  0.40658482  1
  Rh  Rh249  1  0.59893102  0.18709135  0.60890418  1
