# generated using pymatgen
data_ZrScNbPdRh
_symmetry_space_group_name_H-M   'P 1'
_cell_length_a   16.55902187
_cell_length_b   16.56967278
_cell_length_c   16.56430270
_cell_angle_alpha   90.02940719
_cell_angle_beta   90.05030479
_cell_angle_gamma   90.02305508
_symmetry_Int_Tables_number   1
_chemical_formula_structural   ZrScNbPdRh
_chemical_formula_sum   'Zr50 Sc50 Nb50 Pd50 Rh50'
_cell_volume   4544.87046947
_cell_formula_units_Z   50
loop_
 _symmetry_equiv_pos_site_id
 _symmetry_equiv_pos_as_xyz
  1  'x, y, z'
loop_
 _atom_site_type_symbol
 _atom_site_label
 _atom_site_symmetry_multiplicity
 _atom_site_fract_x
 _atom_site_fract_y
 _atom_site_fract_z
 _atom_site_occupancy
  Zr  Zr0  1  0.50802707  0.69555999  0.89672644  1
  Zr  Zr1  1  0.49665373  0.08536027  0.30594044  1
  Zr  Zr2  1  0.48860084  0.70244064  0.30428390  1
  Zr  Zr3  1  0.49877013  0.10085125  0.69262888  1
  Zr  Zr4  1  0.09754960  0.50544493  0.69606420  1
  Zr  Zr5  1  0.49852881  0.50680756  0.11262386  1
  Zr  Zr6  1  0.69945174  0.69440820  0.29994561  1
  Zr  Zr7  1  0.50039644  0.10027957  0.50348346  1
  Zr  Zr8  1  0.49126336  0.70288042  0.69885345  1
  Zr  Zr9  1  0.50191470  0.30227053  0.70214195  1
  Zr  Zr10  1  0.90009274  0.90417267  0.90105804  1
  Zr  Zr11  1  0.29974181  0.89129351  0.89561259  1
  Zr  Zr12  1  0.70817029  0.89711554  0.89715021  1
  Zr  Zr13  1  0.89502273  0.29905966  0.09757612  1
  Zr  Zr14  1  0.90255699  0.90484134  0.71032064  1
  Zr  Zr15  1  0.11281752  0.69829847  0.30503836  1
  Zr  Zr16  1  0.69987799  0.70452161  0.90328536  1
  Zr  Zr17  1  0.29593898  0.09934295  0.50429716  1
  Zr  Zr18  1  0.90010857  0.49955774  0.50772064  1
  Zr  Zr19  1  0.28563639  0.29806412  0.30266320  1
  Zr  Zr20  1  0.08332746  0.50450760  0.89685722  1
  Zr  Zr21  1  0.70068233  0.30356507  0.29333756  1
  Zr  Zr22  1  0.69793879  0.48834737  0.70078604  1
  Zr  Zr23  1  0.89998231  0.30824310  0.89384802  1
  Zr  Zr24  1  0.70072754  0.69266755  0.10143687  1
  Zr  Zr25  1  0.28379077  0.89856518  0.50509374  1
  Zr  Zr26  1  0.10650874  0.50652100  0.09336463  1
  Zr  Zr27  1  0.30934851  0.89331071  0.09802734  1
  Zr  Zr28  1  0.30116058  0.09692355  0.69336868  1
  Zr  Zr29  1  0.10232698  0.09862113  0.69841557  1
  Zr  Zr30  1  0.90341516  0.70410340  0.69674504  1
  Zr  Zr31  1  0.89862520  0.90376870  0.10070823  1
  Zr  Zr32  1  0.70402858  0.10336888  0.70173146  1
  Zr  Zr33  1  0.09855765  0.90139745  0.09516572  1
  Zr  Zr34  1  0.09564562  0.89557994  0.89468729  1
  Zr  Zr35  1  0.90491274  0.49497996  0.70430549  1
  Zr  Zr36  1  0.30069687  0.50595754  0.29685410  1
  Zr  Zr37  1  0.70953010  0.90024351  0.09836321  1
  Zr  Zr38  1  0.69436993  0.70349911  0.50213858  1
  Zr  Zr39  1  0.50048086  0.29872962  0.50139861  1
  Zr  Zr40  1  0.50785085  0.29979755  0.10965442  1
  Zr  Zr41  1  0.10356945  0.10882083  0.30775339  1
  Zr  Zr42  1  0.71113024  0.90032631  0.68944186  1
  Zr  Zr43  1  0.10308823  0.30276455  0.69154817  1
  Zr  Zr44  1  0.69076284  0.09406231  0.50455087  1
  Zr  Zr45  1  0.90180894  0.89759981  0.51578857  1
  Zr  Zr46  1  0.29877005  0.09781068  0.30222543  1
  Zr  Zr47  1  0.90587704  0.50428077  0.09601992  1
  Zr  Zr48  1  0.30204586  0.29888997  0.89370072  1
  Zr  Zr49  1  0.31054423  0.09704139  0.09737792  1
  Sc  Sc50  1  0.30494545  0.11080742  0.89447839  1
  Sc  Sc51  1  0.89810282  0.50470759  0.30914765  1
  Sc  Sc52  1  0.68708456  0.50478573  0.89671562  1
  Sc  Sc53  1  0.30035279  0.50163158  0.50181494  1
  Sc  Sc54  1  0.09764939  0.49674427  0.49940354  1
  Sc  Sc55  1  0.70676900  0.10653148  0.30250617  1
  Sc  Sc56  1  0.51387669  0.90296429  0.49243049  1
  Sc  Sc57  1  0.90314737  0.09944638  0.29948875  1
  Sc  Sc58  1  0.89108164  0.68951866  0.30373945  1
  Sc  Sc59  1  0.29953879  0.69539892  0.09987702  1
  Sc  Sc60  1  0.70095298  0.29382723  0.89254415  1
  Sc  Sc61  1  0.70336406  0.10270580  0.90036943  1
  Sc  Sc62  1  0.89463263  0.10010870  0.90096896  1
  Sc  Sc63  1  0.09039393  0.90005209  0.69416035  1
  Sc  Sc64  1  0.50290001  0.10313694  0.89900956  1
  Sc  Sc65  1  0.10118206  0.90625255  0.30024266  1
  Sc  Sc66  1  0.50810881  0.31536354  0.30587920  1
  Sc  Sc67  1  0.49437938  0.49244435  0.50230277  1
  Sc  Sc68  1  0.30113584  0.29174464  0.69871661  1
  Sc  Sc69  1  0.89736188  0.68889329  0.50184897  1
  Sc  Sc70  1  0.49916130  0.69749023  0.09954086  1
  Sc  Sc71  1  0.10020660  0.09579909  0.50302894  1
  Sc  Sc72  1  0.69626989  0.29019136  0.49631663  1
  Sc  Sc73  1  0.30606826  0.89162645  0.70023120  1
  Sc  Sc74  1  0.29192323  0.30446643  0.50687870  1
  Sc  Sc75  1  0.10803974  0.69730955  0.50121071  1
  Sc  Sc76  1  0.50471611  0.09636647  0.09374207  1
  Sc  Sc77  1  0.10746970  0.70153177  0.08982451  1
  Sc  Sc78  1  0.90871793  0.70647438  0.89945839  1
  Sc  Sc79  1  0.09476499  0.10167515  0.09222046  1
  Sc  Sc80  1  0.09957222  0.10515947  0.90084659  1
  Sc  Sc81  1  0.89004575  0.30506633  0.69786521  1
  Sc  Sc82  1  0.50139392  0.29841560  0.89075902  1
  Sc  Sc83  1  0.89752892  0.29290977  0.30852074  1
  Sc  Sc84  1  0.29780259  0.70282444  0.89752807  1
  Sc  Sc85  1  0.30347338  0.50742668  0.89715439  1
  Sc  Sc86  1  0.69653276  0.70386328  0.69820755  1
  Sc  Sc87  1  0.69797680  0.50151949  0.29260048  1
  Sc  Sc88  1  0.49942639  0.89178456  0.90369214  1
  Sc  Sc89  1  0.90327233  0.10960493  0.49671075  1
  Sc  Sc90  1  0.89664157  0.09448267  0.09507035  1
  Sc  Sc91  1  0.29694806  0.29711063  0.10415717  1
  Sc  Sc92  1  0.49425943  0.69943844  0.50325440  1
  Sc  Sc93  1  0.70304009  0.10856548  0.09593998  1
  Sc  Sc94  1  0.69573679  0.50171877  0.50399577  1
  Sc  Sc95  1  0.29838587  0.70174547  0.49927594  1
  Sc  Sc96  1  0.49802149  0.50147873  0.89005332  1
  Sc  Sc97  1  0.10526500  0.70117466  0.89800981  1
  Sc  Sc98  1  0.31130814  0.89159904  0.29715719  1
  Sc  Sc99  1  0.90572677  0.29926671  0.50306998  1
  Nb  Nb100  1  0.49751685  0.90215733  0.11028402  1
  Nb  Nb101  1  0.10200405  0.69582979  0.70645681  1
  Nb  Nb102  1  0.10219852  0.30339790  0.30125283  1
  Nb  Nb103  1  0.69694714  0.29575685  0.70868042  1
  Nb  Nb104  1  0.10220473  0.30054322  0.89752686  1
  Nb  Nb105  1  0.29111146  0.69800411  0.70046920  1
  Nb  Nb106  1  0.30039118  0.69997381  0.30846686  1
  Nb  Nb107  1  0.49839977  0.90282754  0.70666210  1
  Nb  Nb108  1  0.90439859  0.09805450  0.70598215  1
  Nb  Nb109  1  0.30217219  0.49837379  0.09455804  1
  Nb  Nb110  1  0.09976821  0.29909159  0.49415955  1
  Nb  Nb111  1  0.89832954  0.69923718  0.10384762  1
  Nb  Nb112  1  0.09547292  0.89995201  0.49665617  1
  Nb  Nb113  1  0.70067865  0.30939271  0.10446883  1
  Nb  Nb114  1  0.49442088  0.49420059  0.70337463  1
  Nb  Nb115  1  0.50452153  0.89678076  0.29791402  1
  Nb  Nb116  1  0.49644273  0.50633504  0.30533385  1
  Nb  Nb117  1  0.10157542  0.49909921  0.29860490  1
  Nb  Nb118  1  0.09887520  0.30249922  0.09649952  1
  Nb  Nb119  1  0.29983733  0.49556571  0.70104114  1
  Nb  Nb120  1  0.89657434  0.90193865  0.29637043  1
  Nb  Nb121  1  0.69918043  0.50186047  0.10322276  1
  Nb  Nb122  1  0.89712095  0.50102874  0.89736813  1
  Nb  Nb123  1  0.70207907  0.89919968  0.49770281  1
  Nb  Nb124  1  0.69922006  0.89875093  0.30400905  1
  Nb  Nb125  1  0.79930910  -0.00891533  0.40215892  1
  Nb  Nb126  1  0.60082882  -0.00508533  0.79389467  1
  Nb  Nb127  1  0.39748015  0.20189362  0.39863146  1
  Nb  Nb128  1  0.80174771  0.59734709  -0.00281716  1
  Nb  Nb129  1  0.59946326  0.80521490  0.20348529  1
  Nb  Nb130  1  -0.00479758  0.80417602  0.39703964  1
  Nb  Nb131  1  0.00053495  0.20482898  0.79727608  1
  Nb  Nb132  1  0.60007342  0.40113363  0.00759482  1
  Nb  Nb133  1  0.80283784  0.59757015  0.80340141  1
  Nb  Nb134  1  0.00897107  0.40033379  0.20405894  1
  Nb  Nb135  1  0.20046103  0.39991383  -0.00464214  1
  Nb  Nb136  1  0.60257362  -0.00827399  0.20234045  1
  Nb  Nb137  1  0.20165106  -0.00133575  0.80111108  1
  Nb  Nb138  1  0.80102030  0.80711152  0.40152594  1
  Nb  Nb139  1  0.59217291  0.59914838  0.39773753  1
  Nb  Nb140  1  0.40336028  0.19906202  0.20976756  1
  Nb  Nb141  1  0.20515067  -0.00305290  -0.00354168  1
  Nb  Nb142  1  -0.00438859  0.79516126  0.20489472  1
  Nb  Nb143  1  0.00782341  0.21070626  0.19884245  1
  Nb  Nb144  1  0.00681020  0.60111362  0.20193115  1
  Nb  Nb145  1  0.79676788  0.40012420  0.40181205  1
  Nb  Nb146  1  0.19775506  0.40185620  0.80157665  1
  Nb  Nb147  1  0.79190036  0.40637461  0.00098518  1
  Nb  Nb148  1  0.20487757  0.00050525  0.19252312  1
  Nb  Nb149  1  0.40059908  0.40243505  0.00495348  1
  Pd  Pd150  1  0.40491444  0.79070722  -0.00028815  1
  Pd  Pd151  1  0.00692356  0.00610222  0.20090685  1
  Pd  Pd152  1  0.40130027  -0.00145989  -0.01213399  1
  Pd  Pd153  1  -0.00824200  -0.00255897  0.40434563  1
  Pd  Pd154  1  0.40360109  0.59807067  -0.00343337  1
  Pd  Pd155  1  0.81173468  0.40763148  0.20538080  1
  Pd  Pd156  1  0.00510441  0.60671072  0.39894993  1
  Pd  Pd157  1  0.00796679  0.78953326  0.59386818  1
  Pd  Pd158  1  0.39763506  0.80818829  0.41182499  1
  Pd  Pd159  1  0.40390633  0.80790652  0.59310137  1
  Pd  Pd160  1  0.00058653  0.39776705  0.00244881  1
  Pd  Pd161  1  0.60425117  0.20909875  -0.00265318  1
  Pd  Pd162  1  0.19870129  0.40352164  0.19183101  1
  Pd  Pd163  1  0.40774904  0.21064653  0.00615070  1
  Pd  Pd164  1  0.39662626  0.39379604  0.20207121  1
  Pd  Pd165  1  0.59390912  0.18780887  0.20738618  1
  Pd  Pd166  1  0.59432641  0.19842804  0.39189292  1
  Pd  Pd167  1  0.80028406  0.79629726  0.20600913  1
  Pd  Pd168  1  0.79149896  0.39026462  0.59067921  1
  Pd  Pd169  1  0.40100450  0.00322581  0.80644438  1
  Pd  Pd170  1  0.39635168  0.59672778  0.60307996  1
  Pd  Pd171  1  0.19067608  0.79993486  0.60718285  1
  Pd  Pd172  1  0.20264881  0.59819076  0.59639315  1
  Pd  Pd173  1  0.60284347  -0.00430093  -0.00166771  1
  Pd  Pd174  1  0.19962384  0.59524249  0.80420417  1
  Pd  Pd175  1  0.60337835  0.39434320  0.59752333  1
  Pd  Pd176  1  0.79947140  0.20015359  0.60005056  1
  Pd  Pd177  1  0.59597528  0.80407423  0.01052201  1
  Pd  Pd178  1  0.19802275  0.80514880  0.20150235  1
  Pd  Pd179  1  0.39368247  -0.00802601  0.41000055  1
  Pd  Pd180  1  0.39445778  0.39579341  0.60441964  1
  Pd  Pd181  1  0.58971033  0.59453715  0.59992900  1
  Pd  Pd182  1  0.39098846  0.39544173  0.39778475  1
  Pd  Pd183  1  0.60441019  0.60007841  0.78660715  1
  Pd  Pd184  1  -0.00649509  0.39755315  0.39672258  1
  Pd  Pd185  1  0.60184884  0.80644200  0.79307100  1
  Pd  Pd186  1  0.80866109  0.19428531  0.19828023  1
  Pd  Pd187  1  0.20115330  0.40754554  0.40574315  1
  Pd  Pd188  1  0.39514538  0.60498305  0.79479838  1
  Pd  Pd189  1  0.19753121  0.19134411  0.18961213  1
  Pd  Pd190  1  0.20268898  0.60303153  0.19770289  1
  Pd  Pd191  1  0.40384917  -0.01336142  0.59125050  1
  Pd  Pd192  1  -0.00580308  0.19942298  -0.00344216  1
  Pd  Pd193  1  0.79584298  0.60020562  0.61051565  1
  Pd  Pd194  1  0.59201428  0.80648335  0.60353009  1
  Pd  Pd195  1  -0.00013542  0.19969480  0.60522382  1
  Pd  Pd196  1  -0.00258915  0.79656468  0.00584241  1
  Pd  Pd197  1  0.20342924  -0.00715815  0.39243945  1
  Pd  Pd198  1  0.80880169  0.01170981  0.59437167  1
  Pd  Pd199  1  0.20238524  0.19968936  0.00231852  1
  Rh  Rh200  1  0.60089279  0.59191666  0.00331497  1
  Rh  Rh201  1  -0.00499495  0.61094068  0.00207669  1
  Rh  Rh202  1  0.59769350  0.18915192  0.79678856  1
  Rh  Rh203  1  0.19693945  0.80337616  0.78908398  1
  Rh  Rh204  1  0.59964151  0.39807526  0.80553425  1
  Rh  Rh205  1  0.00457953  0.60266934  0.59894540  1
  Rh  Rh206  1  0.79679298  0.20965877  -0.00040932  1
  Rh  Rh207  1  0.40253840  0.00389840  0.19950699  1
  Rh  Rh208  1  0.19565269  0.80576516  0.39844851  1
  Rh  Rh209  1  0.39887703  0.20658949  0.59281569  1
  Rh  Rh210  1  0.80780615  0.79353231  -0.00114061  1
  Rh  Rh211  1  0.80419682  0.79257733  0.79908860  1
  Rh  Rh212  1  0.00631810  0.01107831  0.80442761  1
  Rh  Rh213  1  -0.00225784  0.00598972  0.59700731  1
  Rh  Rh214  1  0.39991780  0.79108981  0.79983491  1
  Rh  Rh215  1  0.20378210  0.59506109  -0.00883700  1
  Rh  Rh216  1  -0.00666286  0.60850805  0.79813603  1
  Rh  Rh217  1  0.79274036  0.00712379  0.20567395  1
  Rh  Rh218  1  0.78474256  0.59502310  0.40695011  1
  Rh  Rh219  1  0.40589727  0.19700255  0.79242256  1
  Rh  Rh220  1  0.00721506  0.39220114  0.79257260  1
  Rh  Rh221  1  0.20068857  0.20248780  0.41153595  1
  Rh  Rh222  1  0.00253761  0.00226464  -0.00716051  1
  Rh  Rh223  1  0.39156140  0.60556595  0.20282097  1
  Rh  Rh224  1  0.59775891  0.40993218  0.20065379  1
  Rh  Rh225  1  0.80893289  0.59365907  0.19427530  1
  Rh  Rh226  1  0.40302584  0.79088954  0.19779053  1
  Rh  Rh227  1  0.80102476  0.79176897  0.59504570  1
  Rh  Rh228  1  0.19655756  0.20060519  0.59418679  1
  Rh  Rh229  1  0.78888116  0.40619548  0.80861698  1
  Rh  Rh230  1  0.61033783  0.00360613  0.39310682  1
  Rh  Rh231  1  0.00238723  0.39879683  0.59758629  1
  Rh  Rh232  1  0.60945749  0.41174124  0.39840012  1
  Rh  Rh233  1  0.19286622  0.19944383  0.79482299  1
  Rh  Rh234  1  0.20463644  0.59353737  0.40307285  1
  Rh  Rh235  1  0.79453462  0.00372704  0.80131099  1
  Rh  Rh236  1  0.60364070  0.79001341  0.39522350  1
  Rh  Rh237  1  0.79943008  0.20033353  0.40328246  1
  Rh  Rh238  1  0.00420025  0.79548425  0.79604277  1
  Rh  Rh239  1  0.19503245  -0.00860955  0.60903944  1
  Rh  Rh240  1  0.60266119  0.20739983  0.60669243  1
  Rh  Rh241  1  0.59155688  0.60661454  0.20901522  1
  Rh  Rh242  1  0.39244881  0.40216280  0.80090826  1
  Rh  Rh243  1  0.59740184  -0.00925673  0.60830322  1
  Rh  Rh244  1  0.00553621  0.20433442  0.39704915  1
  Rh  Rh245  1  0.40008044  0.59889103  0.40488962  1
  Rh  Rh246  1  0.19931808  0.40408771  0.60413615  1
  Rh  Rh247  1  0.79760489  0.00274780  -0.00162188  1
  Rh  Rh248  1  0.80953758  0.19874517  0.79721207  1
  Rh  Rh249  1  0.20399568  0.80292486  -0.00030383  1
