# generated using pymatgen
data_ZrScNbPdRh
_symmetry_space_group_name_H-M   'P 1'
_cell_length_a   16.56441729
_cell_length_b   16.55806600
_cell_length_c   16.56369018
_cell_angle_alpha   90.01000088
_cell_angle_beta   90.02436983
_cell_angle_gamma   90.01878155
_symmetry_Int_Tables_number   1
_chemical_formula_structural   ZrScNbPdRh
_chemical_formula_sum   'Zr50 Sc50 Nb50 Pd50 Rh50'
_cell_volume   4543.00067721
_cell_formula_units_Z   50
loop_
 _symmetry_equiv_pos_site_id
 _symmetry_equiv_pos_as_xyz
  1  'x, y, z'
loop_
 _atom_site_type_symbol
 _atom_site_label
 _atom_site_symmetry_multiplicity
 _atom_site_fract_x
 _atom_site_fract_y
 _atom_site_fract_z
 _atom_site_occupancy
  Zr  Zr0  1  0.29926051  0.29867127  0.29303236  1
  Zr  Zr1  1  0.30045219  0.69357619  0.69969608  1
  Zr  Zr2  1  0.10429164  0.09613066  0.09842997  1
  Zr  Zr3  1  0.48641514  0.69838065  0.10758649  1
  Zr  Zr4  1  0.89367688  0.50210355  0.90012096  1
  Zr  Zr5  1  0.69895884  0.09613274  0.68978908  1
  Zr  Zr6  1  0.49687901  0.90798705  0.70894530  1
  Zr  Zr7  1  0.10665220  0.89729375  0.90044479  1
  Zr  Zr8  1  0.49870147  0.49920411  0.49652044  1
  Zr  Zr9  1  0.89986754  0.68782861  0.30410159  1
  Zr  Zr10  1  0.89611937  0.49809307  0.10140265  1
  Zr  Zr11  1  0.50083047  0.90809748  0.30436150  1
  Zr  Zr12  1  0.71295136  0.29378638  0.68734542  1
  Zr  Zr13  1  0.69396063  0.49271758  0.09979084  1
  Zr  Zr14  1  0.70627799  0.50128816  0.50063617  1
  Zr  Zr15  1  0.09053752  0.70100240  0.49950026  1
  Zr  Zr16  1  0.50222166  0.69943556  0.50294256  1
  Zr  Zr17  1  0.90093400  0.30297444  0.10868876  1
  Zr  Zr18  1  0.70512457  0.30485057  0.49263353  1
  Zr  Zr19  1  0.29280896  0.89316499  0.08659504  1
  Zr  Zr20  1  0.10044604  0.69825745  0.09439303  1
  Zr  Zr21  1  0.69323043  0.70070085  0.69235158  1
  Zr  Zr22  1  0.89824751  0.10460762  0.70271883  1
  Zr  Zr23  1  0.90364218  0.90307995  0.69175835  1
  Zr  Zr24  1  0.90180972  0.30049440  0.89353170  1
  Zr  Zr25  1  0.89873712  0.50737404  0.49885457  1
  Zr  Zr26  1  0.50144616  0.10161533  0.30200994  1
  Zr  Zr27  1  0.50090590  0.09633901  0.49571576  1
  Zr  Zr28  1  0.49799396  0.89918065  0.90521776  1
  Zr  Zr29  1  0.90007091  0.29483890  0.30462245  1
  Zr  Zr30  1  0.49804633  0.30798430  0.89733870  1
  Zr  Zr31  1  0.09616121  0.89983720  0.49663796  1
  Zr  Zr32  1  0.29595621  0.50280039  0.89893596  1
  Zr  Zr33  1  0.49531666  0.30463724  0.69962058  1
  Zr  Zr34  1  0.69831042  0.70068649  0.11378445  1
  Zr  Zr35  1  0.89538775  0.10306161  0.30206786  1
  Zr  Zr36  1  0.90524999  0.29295886  0.69900080  1
  Zr  Zr37  1  0.30934906  0.09717553  0.30169723  1
  Zr  Zr38  1  0.10178009  0.90123405  0.30636403  1
  Zr  Zr39  1  0.90463153  0.49463779  0.70289457  1
  Zr  Zr40  1  0.89311514  0.69556079  0.10148565  1
  Zr  Zr41  1  0.10056506  0.31205102  0.29588463  1
  Zr  Zr42  1  0.69163374  0.89918648  0.30343547  1
  Zr  Zr43  1  0.50212092  0.10087295  0.69588194  1
  Zr  Zr44  1  0.30821335  0.70352548  0.50293675  1
  Zr  Zr45  1  0.30398463  0.10247805  0.69878663  1
  Zr  Zr46  1  0.10097804  0.30335408  0.69270662  1
  Zr  Zr47  1  0.90427178  0.91158139  0.30555321  1
  Zr  Zr48  1  0.08985120  0.11116805  0.69144479  1
  Zr  Zr49  1  0.69311312  0.49850998  0.90069356  1
  Sc  Sc50  1  0.90561253  0.70383277  0.69508721  1
  Sc  Sc51  1  0.09266662  0.50039886  0.89559920  1
  Sc  Sc52  1  0.69893347  0.90319134  0.10850797  1
  Sc  Sc53  1  0.29789923  0.11345535  0.10016612  1
  Sc  Sc54  1  0.70124370  0.90120655  0.90285395  1
  Sc  Sc55  1  0.49754008  0.29782602  0.49494807  1
  Sc  Sc56  1  0.10269069  0.10285269  0.90037955  1
  Sc  Sc57  1  0.70529047  0.30828383  0.90778626  1
  Sc  Sc58  1  0.29804445  0.88672608  0.70100242  1
  Sc  Sc59  1  0.89293472  0.90368466  0.11098938  1
  Sc  Sc60  1  0.31792574  0.69931959  0.30188043  1
  Sc  Sc61  1  0.10464873  0.29207257  0.49481210  1
  Sc  Sc62  1  0.70930132  0.69531954  0.89728340  1
  Sc  Sc63  1  0.89378995  0.90002049  0.88602096  1
  Sc  Sc64  1  0.50234211  0.71199982  0.30258050  1
  Sc  Sc65  1  0.09964651  0.30646650  0.90639720  1
  Sc  Sc66  1  0.29898705  0.89548942  0.89419342  1
  Sc  Sc67  1  0.90335280  0.10132387  0.49507346  1
  Sc  Sc68  1  0.30411144  0.90026103  0.31496377  1
  Sc  Sc69  1  0.50178221  0.29800693  0.30100721  1
  Sc  Sc70  1  0.50716263  0.89893971  0.49333872  1
  Sc  Sc71  1  0.10223940  0.48769270  0.09738658  1
  Sc  Sc72  1  0.08774092  0.09882995  0.30854974  1
  Sc  Sc73  1  0.29468526  0.70381192  0.90414769  1
  Sc  Sc74  1  0.49667619  0.49725492  0.29627818  1
  Sc  Sc75  1  0.49316723  0.69777191  0.90285233  1
  Sc  Sc76  1  0.29921098  0.10102832  0.90513747  1
  Sc  Sc77  1  0.49806077  0.09977115  0.11047413  1
  Sc  Sc78  1  0.69704634  0.49241523  0.29771046  1
  Sc  Sc79  1  0.49326026  0.30008296  0.10548648  1
  Sc  Sc80  1  0.29615841  0.11013905  0.49077054  1
  Sc  Sc81  1  0.91066346  0.49261374  0.29692584  1
  Sc  Sc82  1  0.70039665  0.09736711  0.50110202  1
  Sc  Sc83  1  0.70151397  0.09758566  0.10499459  1
  Sc  Sc84  1  0.70812202  0.09495571  0.90612469  1
  Sc  Sc85  1  0.30523673  0.50036933  0.49733608  1
  Sc  Sc86  1  0.70318007  0.30408150  0.10390062  1
  Sc  Sc87  1  0.10287507  0.50890006  0.69782720  1
  Sc  Sc88  1  0.10178711  0.70148151  0.69818411  1
  Sc  Sc89  1  0.70530672  0.90324555  0.69241366  1
  Sc  Sc90  1  0.10417868  0.69496366  0.89099256  1
  Sc  Sc91  1  0.69942741  0.50784659  0.70749784  1
  Sc  Sc92  1  0.10648993  0.49221813  0.49858721  1
  Sc  Sc93  1  0.30314236  0.49400040  0.68661569  1
  Sc  Sc94  1  0.30793313  0.30325728  0.68751954  1
  Sc  Sc95  1  0.89338871  0.09856378  0.11285730  1
  Sc  Sc96  1  0.09977677  0.90038492  0.09720339  1
  Sc  Sc97  1  0.50498172  0.90014590  0.10980766  1
  Sc  Sc98  1  0.49475129  0.09439887  0.89232316  1
  Sc  Sc99  1  0.30635718  0.49267164  0.30088195  1
  Nb  Nb100  1  0.50465274  0.49422500  0.89528222  1
  Nb  Nb101  1  0.30006337  0.30135082  0.90391120  1
  Nb  Nb102  1  0.89950018  0.70362954  0.90711882  1
  Nb  Nb103  1  0.29263786  0.30680315  0.49690963  1
  Nb  Nb104  1  0.11089844  0.29605970  0.10003577  1
  Nb  Nb105  1  0.70270507  0.70218868  0.50084879  1
  Nb  Nb106  1  0.70136911  0.10628121  0.30185222  1
  Nb  Nb107  1  0.70261145  0.29479997  0.30211400  1
  Nb  Nb108  1  0.10703734  0.50220752  0.29838110  1
  Nb  Nb109  1  0.89657979  0.89313560  0.50238123  1
  Nb  Nb110  1  0.30656475  0.50184677  0.10344533  1
  Nb  Nb111  1  0.89292820  0.30500360  0.50336937  1
  Nb  Nb112  1  0.90460370  0.10496700  0.90319922  1
  Nb  Nb113  1  0.70351561  0.89632969  0.50423678  1
  Nb  Nb114  1  0.29495338  0.90386058  0.50121063  1
  Nb  Nb115  1  0.50059956  0.69276910  0.70035990  1
  Nb  Nb116  1  0.10273414  0.10211764  0.50048747  1
  Nb  Nb117  1  0.09617111  0.90441412  0.69996075  1
  Nb  Nb118  1  0.28802111  0.30681425  0.09509044  1
  Nb  Nb119  1  0.10024135  0.69740924  0.29800853  1
  Nb  Nb120  1  0.69954993  0.70034236  0.30609805  1
  Nb  Nb121  1  0.89478469  0.69928095  0.50124035  1
  Nb  Nb122  1  0.29925186  0.69511015  0.10081431  1
  Nb  Nb123  1  0.50178614  0.49730200  0.70486002  1
  Nb  Nb124  1  0.49542011  0.49954927  0.09705896  1
  Nb  Nb125  1  0.19773538  0.00069822  0.59850428  1
  Nb  Nb126  1  0.59727960  0.79636751  0.80136227  1
  Nb  Nb127  1  0.40643024  0.59260699  0.79628205  1
  Nb  Nb128  1  -0.00774956  0.80013232  -0.00092231  1
  Nb  Nb129  1  0.39535557  0.40425720  0.00040015  1
  Nb  Nb130  1  -0.00653588  0.00089147  -0.00314242  1
  Nb  Nb131  1  0.59388568  0.59725055  0.00405646  1
  Nb  Nb132  1  -0.00568381  0.39713959  0.59676075  1
  Nb  Nb133  1  0.20001229  0.79394838  0.20324307  1
  Nb  Nb134  1  0.79903812  0.79674900  0.40693601  1
  Nb  Nb135  1  0.19527694  0.00331675  0.78814916  1
  Nb  Nb136  1  0.39239995  -0.00279208  0.59634326  1
  Nb  Nb137  1  0.20380981  0.20593718  0.79787159  1
  Nb  Nb138  1  0.19833448  0.60341901  0.39152674  1
  Nb  Nb139  1  -0.00227142  0.19791496  0.00500784  1
  Nb  Nb140  1  0.60310221  0.20105658  0.80100866  1
  Nb  Nb141  1  0.60605272  0.60500021  0.40150755  1
  Nb  Nb142  1  0.20081710  -0.00511640  0.20433289  1
  Nb  Nb143  1  0.60010222  0.40230961  0.60091159  1
  Nb  Nb144  1  0.60021539  0.79123212  0.00226322  1
  Nb  Nb145  1  0.00269005  0.79452956  0.20161116  1
  Nb  Nb146  1  0.20507681  0.60143893  0.20028816  1
  Nb  Nb147  1  0.20530087  0.39484193  0.79895299  1
  Nb  Nb148  1  0.59684387  0.20129549  -0.00462117  1
  Nb  Nb149  1  0.39916190  -0.00265454  0.00187723  1
  Pd  Pd150  1  0.39926021  0.39296893  0.39884963  1
  Pd  Pd151  1  0.60342403  0.20265486  0.19318861  1
  Pd  Pd152  1  0.00320133  0.39706852  0.40747339  1
  Pd  Pd153  1  -0.00474605  0.60743744  0.79979487  1
  Pd  Pd154  1  0.19683722  0.19914974  0.38974460  1
  Pd  Pd155  1  0.79413754  -0.00299712  0.40464920  1
  Pd  Pd156  1  0.39946771  0.20136421  0.80268588  1
  Pd  Pd157  1  0.78936301  0.59682277  0.00318477  1
  Pd  Pd158  1  0.59287762  0.80875481  0.60743244  1
  Pd  Pd159  1  0.59760590  0.20864221  0.59805086  1
  Pd  Pd160  1  0.00791860  0.59551122  0.19439562  1
  Pd  Pd161  1  0.79762529  0.80789584  0.00221605  1
  Pd  Pd162  1  0.00097625  0.79621920  0.80350391  1
  Pd  Pd163  1  0.39681636  0.19790336  0.58821319  1
  Pd  Pd164  1  0.79947041  0.20192887  0.00700335  1
  Pd  Pd165  1  0.00134653  0.60154099  -0.00350778  1
  Pd  Pd166  1  0.20005271  0.59876468  0.58847223  1
  Pd  Pd167  1  0.79424085  0.39904015  0.79606585  1
  Pd  Pd168  1  0.61110035  0.00060199  0.80276530  1
  Pd  Pd169  1  0.79610786  0.58779954  0.20882176  1
  Pd  Pd170  1  0.59232762  0.60021273  0.20581648  1
  Pd  Pd171  1  0.40558152  0.19926738  0.00411623  1
  Pd  Pd172  1  -0.00095807  0.00324593  0.59133162  1
  Pd  Pd173  1  0.61400318  0.38860206  0.78868416  1
  Pd  Pd174  1  0.19249308  0.80320711  0.60173271  1
  Pd  Pd175  1  0.39149428  0.81175154  0.20127142  1
  Pd  Pd176  1  -0.00930649  0.79706096  0.39552782  1
  Pd  Pd177  1  0.80798158  0.60851140  0.79384890  1
  Pd  Pd178  1  0.59805308  0.59119550  0.59535890  1
  Pd  Pd179  1  0.00433301  0.00528751  0.80646804  1
  Pd  Pd180  1  0.00718558  0.59266276  0.40335157  1
  Pd  Pd181  1  0.40289526  0.78957465  0.80125626  1
  Pd  Pd182  1  0.40927375  0.80861732  0.59831941  1
  Pd  Pd183  1  0.59498918  0.39304746  0.20183463  1
  Pd  Pd184  1  0.79390401  0.79708205  0.79208271  1
  Pd  Pd185  1  0.00685397  0.20068474  0.19701865  1
  Pd  Pd186  1  0.80350939  0.60145682  0.60964159  1
  Pd  Pd187  1  0.19533170  0.59401076  0.00387948  1
  Pd  Pd188  1  0.80676703  0.80328070  0.21422710  1
  Pd  Pd189  1  0.19449118  0.18920336  0.21103174  1
  Pd  Pd190  1  0.40291489  0.59495206  -0.00861203  1
  Pd  Pd191  1  -0.00339237  0.39421036  0.00307642  1
  Pd  Pd192  1  0.60286991  0.20020745  0.40284158  1
  Pd  Pd193  1  0.38789253  -0.00738540  0.19021871  1
  Pd  Pd194  1  0.59316770  0.00420981  0.00510992  1
  Pd  Pd195  1  0.20767835  0.78868099  0.39616431  1
  Pd  Pd196  1  0.79032895  0.19578554  0.80513948  1
  Pd  Pd197  1  0.80760608  -0.00561119  0.00238741  1
  Pd  Pd198  1  0.79783856  0.00370318  0.79709148  1
  Pd  Pd199  1  0.80297890  0.40547926  0.38963449  1
  Rh  Rh200  1  0.38500076  -0.00147885  0.80109186  1
  Rh  Rh201  1  0.20627718  0.19843351  0.60007230  1
  Rh  Rh202  1  0.00119725  0.79979011  0.59965457  1
  Rh  Rh203  1  0.59166936  0.60869766  0.81082250  1
  Rh  Rh204  1  0.80018583  0.39801775  0.20673681  1
  Rh  Rh205  1  0.80309209  0.79822106  0.59910299  1
  Rh  Rh206  1  0.20938628  0.59281697  0.79314462  1
  Rh  Rh207  1  0.80778175  0.00296728  0.59507538  1
  Rh  Rh208  1  0.60825971  0.00382135  0.40137052  1
  Rh  Rh209  1  0.00891159  -0.00707796  0.19290624  1
  Rh  Rh210  1  0.40760824  0.40002050  0.58995146  1
  Rh  Rh211  1  0.19836942  0.00840355  0.40178701  1
  Rh  Rh212  1  0.79126680  0.00290995  0.21069814  1
  Rh  Rh213  1  0.40576072  0.60231003  0.39795701  1
  Rh  Rh214  1  0.00608320  0.40030386  0.19575342  1
  Rh  Rh215  1  0.20465140  0.40440678  0.39853614  1
  Rh  Rh216  1  0.19339951  0.20275905  -0.00822716  1
  Rh  Rh217  1  0.20362324  0.40769572  0.19860498  1
  Rh  Rh218  1  0.01082369  0.40044874  0.79088429  1
  Rh  Rh219  1  0.19397165  0.79196424  -0.00206910  1
  Rh  Rh220  1  0.79390179  0.20233898  0.20174890  1
  Rh  Rh221  1  0.59319094  -0.00690300  0.59558710  1
  Rh  Rh222  1  0.00969698  0.20381504  0.81297848  1
  Rh  Rh223  1  0.80161866  0.40787876  0.60450555  1
  Rh  Rh224  1  0.58985270  0.39703350  0.00808541  1
  Rh  Rh225  1  0.80680217  0.40124940  0.00053882  1
  Rh  Rh226  1  0.60219942  0.40504740  0.40253240  1
  Rh  Rh227  1  -0.00651738  0.20743203  0.58515705  1
  Rh  Rh228  1  0.60366910  0.00823420  0.20738922  1
  Rh  Rh229  1  0.40356455  0.59611103  0.60617878  1
  Rh  Rh230  1  0.59845281  0.79898420  0.19868574  1
  Rh  Rh231  1  0.40462831  0.80417864  0.00370264  1
  Rh  Rh232  1  0.40197563  0.80524404  0.40794778  1
  Rh  Rh233  1  0.80640831  0.19005226  0.59055724  1
  Rh  Rh234  1  -0.00134181  0.20622368  0.40401496  1
  Rh  Rh235  1  0.39841039  -0.00158291  0.41088770  1
  Rh  Rh236  1  0.38944005  0.40752976  0.80476285  1
  Rh  Rh237  1  0.79417076  0.60056425  0.39539765  1
  Rh  Rh238  1  0.20466801  0.00415792  -0.00237877  1
  Rh  Rh239  1  0.19528574  0.80255991  0.79455919  1
  Rh  Rh240  1  0.39746804  0.20676020  0.39899819  1
  Rh  Rh241  1  0.39712284  0.39565280  0.19356294  1
  Rh  Rh242  1  0.39915288  0.59605055  0.20713325  1
  Rh  Rh243  1  0.79920985  0.19972947  0.40311754  1
  Rh  Rh244  1  0.19580665  0.39888038  0.59860072  1
  Rh  Rh245  1  0.20349988  0.40561192  -0.00487638  1
  Rh  Rh246  1  0.00081995  0.59530476  0.59647522  1
  Rh  Rh247  1  0.60624372  0.79485199  0.40372006  1
  Rh  Rh248  1  -0.00122010  0.00247552  0.40905528  1
  Rh  Rh249  1  0.39531752  0.20723035  0.19823013  1
