# generated using pymatgen
data_ZrScNbPdRh
_symmetry_space_group_name_H-M   'P 1'
_cell_length_a   16.56049354
_cell_length_b   16.55560217
_cell_length_c   16.55935111
_cell_angle_alpha   90.02993859
_cell_angle_beta   90.00533729
_cell_angle_gamma   90.02002953
_symmetry_Int_Tables_number   1
_chemical_formula_structural   ZrScNbPdRh
_chemical_formula_sum   'Zr50 Sc50 Nb50 Pd50 Rh50'
_cell_volume   4540.05886892
_cell_formula_units_Z   50
loop_
 _symmetry_equiv_pos_site_id
 _symmetry_equiv_pos_as_xyz
  1  'x, y, z'
loop_
 _atom_site_type_symbol
 _atom_site_label
 _atom_site_symmetry_multiplicity
 _atom_site_fract_x
 _atom_site_fract_y
 _atom_site_fract_z
 _atom_site_occupancy
  Zr  Zr0  1  0.49537529  0.10262212  0.70538094  1
  Zr  Zr1  1  0.69919434  0.29366665  0.30744002  1
  Zr  Zr2  1  0.89588338  0.29836394  0.29686903  1
  Zr  Zr3  1  0.50176609  0.70172206  0.49730259  1
  Zr  Zr4  1  0.89649876  0.69623735  0.09684369  1
  Zr  Zr5  1  0.90656381  0.69327973  0.49528327  1
  Zr  Zr6  1  0.30854952  0.30433524  0.49600244  1
  Zr  Zr7  1  0.69812060  0.69090057  0.49946522  1
  Zr  Zr8  1  0.29404779  0.69602286  0.29767307  1
  Zr  Zr9  1  0.29143900  0.90422372  0.89646238  1
  Zr  Zr10  1  0.30237523  0.90590362  0.70029595  1
  Zr  Zr11  1  0.09601787  0.70314498  0.89537054  1
  Zr  Zr12  1  0.50243325  0.30121547  0.49713373  1
  Zr  Zr13  1  0.49645781  0.30444350  0.69940797  1
  Zr  Zr14  1  0.10273066  0.49610593  0.89844930  1
  Zr  Zr15  1  0.09836376  0.90327703  0.50199874  1
  Zr  Zr16  1  0.49525932  0.10776078  0.90952605  1
  Zr  Zr17  1  0.49937252  0.69734036  0.30390696  1
  Zr  Zr18  1  0.69551202  0.69301843  0.30582964  1
  Zr  Zr19  1  0.30030910  0.70396201  0.49282031  1
  Zr  Zr20  1  0.49759258  0.49193356  0.50231972  1
  Zr  Zr21  1  0.09758663  0.09916650  0.70392957  1
  Zr  Zr22  1  0.09660023  0.09844365  0.89695631  1
  Zr  Zr23  1  0.10753981  0.50401760  0.29850897  1
  Zr  Zr24  1  0.30391731  0.49733817  0.29495034  1
  Zr  Zr25  1  0.30342988  0.29956317  0.90148135  1
  Zr  Zr26  1  0.50008632  0.09700835  0.49899788  1
  Zr  Zr27  1  0.30085080  0.11115071  0.09868413  1
  Zr  Zr28  1  0.89933277  0.49805638  0.50232418  1
  Zr  Zr29  1  0.90113166  0.49470441  0.91578041  1
  Zr  Zr30  1  0.29347953  0.49949624  0.49562707  1
  Zr  Zr31  1  0.69406491  0.90515207  0.29809992  1
  Zr  Zr32  1  0.09980813  0.69059222  0.50110706  1
  Zr  Zr33  1  0.71290755  0.49660626  0.09678769  1
  Zr  Zr34  1  0.89638157  0.29553589  0.70258469  1
  Zr  Zr35  1  0.29811007  0.69636600  0.70034221  1
  Zr  Zr36  1  0.69769667  0.90446954  0.50750660  1
  Zr  Zr37  1  0.09435096  0.89699205  0.90195525  1
  Zr  Zr38  1  0.70505555  0.49769287  0.69672940  1
  Zr  Zr39  1  0.50846846  0.10341469  0.29677171  1
  Zr  Zr40  1  0.90299255  0.30033073  0.49441302  1
  Zr  Zr41  1  0.30066435  0.29831838  0.70130424  1
  Zr  Zr42  1  0.09970369  0.69549010  0.70300614  1
  Zr  Zr43  1  0.09780334  0.49983583  0.69601222  1
  Zr  Zr44  1  0.69988708  0.49957619  0.29647184  1
  Zr  Zr45  1  0.89932754  0.10156333  0.10512950  1
  Zr  Zr46  1  0.30002450  0.10094238  0.71351726  1
  Zr  Zr47  1  0.89765820  0.09961461  0.89666445  1
  Zr  Zr48  1  0.29737168  0.09970916  0.29406597  1
  Zr  Zr49  1  0.10175391  0.70072123  0.29867833  1
  Sc  Sc50  1  0.30632123  0.49349052  0.89855524  1
  Sc  Sc51  1  0.09446295  0.29718031  0.70225563  1
  Sc  Sc52  1  0.49690245  0.29235019  0.10045566  1
  Sc  Sc53  1  0.09832598  0.90738306  0.29301540  1
  Sc  Sc54  1  0.69663919  0.30273910  0.10528645  1
  Sc  Sc55  1  0.50275245  0.69429487  0.09296478  1
  Sc  Sc56  1  0.29661854  0.90140384  0.30717552  1
  Sc  Sc57  1  0.70412973  0.10915905  0.29571019  1
  Sc  Sc58  1  0.90236659  0.90461941  0.69671839  1
  Sc  Sc59  1  0.71122718  0.10631049  0.69631323  1
  Sc  Sc60  1  0.50601140  0.70303052  0.70019101  1
  Sc  Sc61  1  0.09793359  0.48475375  0.09382373  1
  Sc  Sc62  1  0.49949466  0.30063143  0.29844310  1
  Sc  Sc63  1  0.10257828  0.30913095  0.90185126  1
  Sc  Sc64  1  0.70044742  0.49593748  0.50074570  1
  Sc  Sc65  1  0.90164102  0.09877760  0.50389572  1
  Sc  Sc66  1  0.50332474  0.90075942  0.68726576  1
  Sc  Sc67  1  0.30004324  0.49629601  0.70651105  1
  Sc  Sc68  1  0.09193923  0.50147929  0.49909914  1
  Sc  Sc69  1  0.50055154  0.69627403  0.89390090  1
  Sc  Sc70  1  0.90269897  0.10026564  0.70101332  1
  Sc  Sc71  1  0.09262875  0.10352671  0.49782838  1
  Sc  Sc72  1  0.90347472  0.69390535  0.70441527  1
  Sc  Sc73  1  0.10326262  0.71145514  0.10546625  1
  Sc  Sc74  1  0.49840461  0.90214603  0.49435810  1
  Sc  Sc75  1  0.90490686  0.69581204  0.30437419  1
  Sc  Sc76  1  0.49787995  0.49252015  0.10356966  1
  Sc  Sc77  1  0.69528609  0.10921275  0.90644160  1
  Sc  Sc78  1  0.28998730  0.89963644  0.10441415  1
  Sc  Sc79  1  0.69875239  0.69786281  0.70836894  1
  Sc  Sc80  1  0.90162096  0.90562410  0.09909647  1
  Sc  Sc81  1  0.69632102  0.89118267  0.69865465  1
  Sc  Sc82  1  0.49453161  0.49926633  0.70383014  1
  Sc  Sc83  1  0.89876408  0.70313309  0.90035728  1
  Sc  Sc84  1  0.89761621  0.89766169  0.90811901  1
  Sc  Sc85  1  0.70472743  0.10432325  0.49625525  1
  Sc  Sc86  1  0.70476755  0.90222894  0.08400264  1
  Sc  Sc87  1  0.30412271  0.09997869  0.49917073  1
  Sc  Sc88  1  0.29912779  0.30001592  0.10348838  1
  Sc  Sc89  1  0.69790757  0.10363398  0.10257123  1
  Sc  Sc90  1  0.90325763  0.10732652  0.29830692  1
  Sc  Sc91  1  0.29383862  0.69629064  0.10626148  1
  Sc  Sc92  1  0.30939556  0.90538008  0.49481236  1
  Sc  Sc93  1  0.51018855  0.90009991  0.90791510  1
  Sc  Sc94  1  0.09240843  0.30062212  0.29581230  1
  Sc  Sc95  1  0.29825088  0.69548754  0.89783218  1
  Sc  Sc96  1  0.30076011  0.49683722  0.10173791  1
  Sc  Sc97  1  0.90997416  0.90584881  0.50455888  1
  Sc  Sc98  1  0.09460531  0.89830780  0.71183408  1
  Sc  Sc99  1  0.70097257  0.70058518  0.09263594  1
  Nb  Nb100  1  0.89695834  0.49549318  0.10432025  1
  Nb  Nb101  1  0.69472526  0.71116688  0.89705776  1
  Nb  Nb102  1  0.70080314  0.30215008  0.70279439  1
  Nb  Nb103  1  0.50187490  0.89993519  0.09744169  1
  Nb  Nb104  1  0.89771431  0.49762959  0.29531034  1
  Nb  Nb105  1  0.89913499  0.49012063  0.69800545  1
  Nb  Nb106  1  0.69967310  0.30257741  0.50501295  1
  Nb  Nb107  1  0.49875151  0.49606190  0.89966882  1
  Nb  Nb108  1  0.10153059  0.10561292  0.29022922  1
  Nb  Nb109  1  0.49753087  0.10006758  0.09859747  1
  Nb  Nb110  1  0.70124101  0.29921996  0.90170426  1
  Nb  Nb111  1  0.89920078  0.29513399  0.90006061  1
  Nb  Nb112  1  0.50785061  0.29985611  0.90168487  1
  Nb  Nb113  1  0.70089301  0.49564967  0.89894479  1
  Nb  Nb114  1  0.89790811  0.89967114  0.29887308  1
  Nb  Nb115  1  0.70108489  0.89108025  0.89792017  1
  Nb  Nb116  1  0.09931916  0.29160621  0.09833373  1
  Nb  Nb117  1  0.50182143  0.50358309  0.29798238  1
  Nb  Nb118  1  0.10252896  0.10262183  0.11265833  1
  Nb  Nb119  1  0.29991902  0.09809265  0.90115200  1
  Nb  Nb120  1  0.49934471  0.90309898  0.29698661  1
  Nb  Nb121  1  0.09939125  0.29957396  0.49893841  1
  Nb  Nb122  1  0.10150516  0.90997948  0.10258123  1
  Nb  Nb123  1  0.30283219  0.30044538  0.29947403  1
  Nb  Nb124  1  0.90187055  0.30986337  0.09851964  1
  Nb  Nb125  1  -0.00491160  0.59145516  0.19514734  1
  Nb  Nb126  1  0.39712118  0.60146464  0.59605646  1
  Nb  Nb127  1  0.19974188  -0.00081085  0.60407644  1
  Nb  Nb128  1  0.19646025  0.39341008  0.59536351  1
  Nb  Nb129  1  0.39898083  0.80418255  0.80337357  1
  Nb  Nb130  1  0.60464747  0.58987597  -0.01212716  1
  Nb  Nb131  1  0.19819187  0.20569225  0.39636421  1
  Nb  Nb132  1  0.80240208  0.79481896  0.59201025  1
  Nb  Nb133  1  0.19909537  0.80343080  0.59978892  1
  Nb  Nb134  1  0.39904972  0.80292620  0.00212876  1
  Nb  Nb135  1  0.79631274  0.80181244  0.20688565  1
  Nb  Nb136  1  0.79006191  -0.00452687  0.80603930  1
  Nb  Nb137  1  0.80304441  -0.00657895  0.39568212  1
  Nb  Nb138  1  0.19520105  0.59780613  -0.00205609  1
  Nb  Nb139  1  0.40758670  -0.00155712  0.19416521  1
  Nb  Nb140  1  0.60583876  0.00127136  0.80349357  1
  Nb  Nb141  1  0.60370142  0.39758654  0.80788574  1
  Nb  Nb142  1  0.80158316  0.80493278  0.40049847  1
  Nb  Nb143  1  0.40706248  0.80558399  0.19817160  1
  Nb  Nb144  1  0.59770067  0.80434465  0.19764866  1
  Nb  Nb145  1  0.79896310  0.39593715  0.80500276  1
  Nb  Nb146  1  -0.00112937  0.20376083  0.00535095  1
  Nb  Nb147  1  0.19484185  0.00774165  0.00354295  1
  Nb  Nb148  1  0.60154853  0.20884017  0.60007899  1
  Nb  Nb149  1  0.80614393  0.20899880  0.00095833  1
  Pd  Pd150  1  0.79977990  0.20296954  0.59401065  1
  Pd  Pd151  1  0.79285828  0.60795568  -0.01267551  1
  Pd  Pd152  1  0.20388930  0.59262609  0.80701986  1
  Pd  Pd153  1  0.59289942  0.59645732  0.60374372  1
  Pd  Pd154  1  0.40253909  0.19567272  0.59918353  1
  Pd  Pd155  1  0.38978520  -0.00683122  0.00579249  1
  Pd  Pd156  1  0.19368225  0.19750751  -0.00561809  1
  Pd  Pd157  1  0.39770941  0.19563479  0.39326187  1
  Pd  Pd158  1  0.41594313  -0.00864886  0.80725311  1
  Pd  Pd159  1  -0.00160951  0.80181566  0.00819803  1
  Pd  Pd160  1  0.80660171  0.80510199  0.79137362  1
  Pd  Pd161  1  0.00920163  0.60080786  0.00958637  1
  Pd  Pd162  1  0.80515223  0.59398019  0.80778143  1
  Pd  Pd163  1  0.00254547  0.40186010  0.20117497  1
  Pd  Pd164  1  0.60119962  -0.00031741  0.19015046  1
  Pd  Pd165  1  -0.00556253  0.39880407  0.80184586  1
  Pd  Pd166  1  0.59757325  0.40082786  0.00205178  1
  Pd  Pd167  1  0.60629757  0.00739535  0.40068034  1
  Pd  Pd168  1  0.60666944  0.00476398  -0.00287025  1
  Pd  Pd169  1  0.59786244  0.59305221  0.80179202  1
  Pd  Pd170  1  0.39831527  0.60344115  0.00005313  1
  Pd  Pd171  1  -0.00387497  0.00756120  0.39161059  1
  Pd  Pd172  1  0.00075926  0.80425179  0.39627257  1
  Pd  Pd173  1  0.60095985  0.80452058  0.39979233  1
  Pd  Pd174  1  -0.00878751  0.59236200  0.80214328  1
  Pd  Pd175  1  0.80380092  0.60728477  0.20509385  1
  Pd  Pd176  1  0.00431602  0.00712891  0.00581166  1
  Pd  Pd177  1  0.19428136  0.39438165  0.40100061  1
  Pd  Pd178  1  0.00043336  0.40336779  0.39539842  1
  Pd  Pd179  1  0.19456431  0.20697043  0.80653070  1
  Pd  Pd180  1  0.59915894  0.40255955  0.39537082  1
  Pd  Pd181  1  0.60339649  0.19815813  0.79455500  1
  Pd  Pd182  1  0.20458707  0.79753289  0.00171744  1
  Pd  Pd183  1  0.80019624  -0.00190969  0.20244282  1
  Pd  Pd184  1  0.59798551  0.39645817  0.20056341  1
  Pd  Pd185  1  0.19923722  0.39327418  0.19579006  1
  Pd  Pd186  1  0.00016542  0.79689387  0.60523095  1
  Pd  Pd187  1  -0.00216836  0.20056507  0.59998134  1
  Pd  Pd188  1  0.40078456  0.39414713  0.00508267  1
  Pd  Pd189  1  0.19429622  0.80508368  0.40198753  1
  Pd  Pd190  1  0.80435548  0.60451350  0.60314219  1
  Pd  Pd191  1  0.19566678  0.01054937  0.40602126  1
  Pd  Pd192  1  0.40094983  0.59434840  0.40273380  1
  Pd  Pd193  1  0.60427493  0.01378517  0.60925577  1
  Pd  Pd194  1  0.39679228  0.79653645  0.60386489  1
  Pd  Pd195  1  0.19991840  0.19805537  0.59111239  1
  Pd  Pd196  1  0.79737854  0.40273355  0.39937917  1
  Pd  Pd197  1  -0.00643046  0.79860139  0.19686453  1
  Pd  Pd198  1  0.40384432  0.60425369  0.19357158  1
  Pd  Pd199  1  0.60105682  0.60201170  0.18655036  1
  Rh  Rh200  1  0.60828946  0.79175297  0.59693333  1
  Rh  Rh201  1  -0.00758893  0.59468403  0.60690145  1
  Rh  Rh202  1  0.59527432  0.78992346  0.00132008  1
  Rh  Rh203  1  0.00881434  0.00453178  0.60505214  1
  Rh  Rh204  1  0.19991060  0.21044258  0.20891413  1
  Rh  Rh205  1  0.80468358  0.19523318  0.40512763  1
  Rh  Rh206  1  0.59807727  0.20201454  0.19637094  1
  Rh  Rh207  1  0.40613436  0.39380751  0.80540940  1
  Rh  Rh208  1  0.79610308  0.39433333  0.20401852  1
  Rh  Rh209  1  0.40248466  0.39752780  0.20368961  1
  Rh  Rh210  1  0.39953127  0.20610522  -0.00194497  1
  Rh  Rh211  1  0.60354742  0.39646270  0.60870857  1
  Rh  Rh212  1  0.19842284  0.59948214  0.40025028  1
  Rh  Rh213  1  0.00469313  0.19733323  0.39614182  1
  Rh  Rh214  1  0.40388530  0.60567942  0.79294319  1
  Rh  Rh215  1  0.80377395  0.39469969  0.60177795  1
  Rh  Rh216  1  0.00038062  0.39279139  0.00040472  1
  Rh  Rh217  1  0.39385028  0.00501896  0.59832028  1
  Rh  Rh218  1  0.40256607  0.80355673  0.39018558  1
  Rh  Rh219  1  0.40762489  0.40519307  0.38823710  1
  Rh  Rh220  1  0.20612098  0.59758901  0.59613832  1
  Rh  Rh221  1  0.80107209  0.79647954  0.00443588  1
  Rh  Rh222  1  0.00373845  0.39638415  0.59899809  1
  Rh  Rh223  1  0.40302243  0.19623152  0.20219048  1
  Rh  Rh224  1  0.20615580  0.40289682  0.00310862  1
  Rh  Rh225  1  0.20476955  0.79886280  0.79269073  1
  Rh  Rh226  1  0.40382854  0.00397658  0.39059698  1
  Rh  Rh227  1  -0.00768837  0.80199893  0.80150598  1
  Rh  Rh228  1  0.59662547  0.58668730  0.40475901  1
  Rh  Rh229  1  0.80036009  0.20724712  0.19282071  1
  Rh  Rh230  1  -0.00295372  0.20344069  0.19545379  1
  Rh  Rh231  1  -0.00196558  0.59017174  0.38866688  1
  Rh  Rh232  1  0.18718942  0.59340560  0.18516115  1
  Rh  Rh233  1  0.00480744  0.20384006  0.80560680  1
  Rh  Rh234  1  -0.00141047  0.00258310  0.20310678  1
  Rh  Rh235  1  0.79983374  0.39259031  -0.00191362  1
  Rh  Rh236  1  0.79443183  0.00950694  -0.00870572  1
  Rh  Rh237  1  0.19372037  0.00154339  0.80199511  1
  Rh  Rh238  1  0.79668446  0.19733144  0.80596266  1
  Rh  Rh239  1  0.20570830  0.00032944  0.19536715  1
  Rh  Rh240  1  0.40029518  0.20531756  0.80988227  1
  Rh  Rh241  1  0.80126406  -0.00748692  0.60116770  1
  Rh  Rh242  1  0.60218509  0.20058158  0.40730143  1
  Rh  Rh243  1  0.20374061  0.80926348  0.20740400  1
  Rh  Rh244  1  0.59012655  0.80926593  0.79788063  1
  Rh  Rh245  1  0.80289818  0.59461494  0.39780514  1
  Rh  Rh246  1  -0.01250476  -0.00490387  0.80200962  1
  Rh  Rh247  1  0.60392503  0.20300662  0.00875685  1
  Rh  Rh248  1  0.38755028  0.40924492  0.60211464  1
  Rh  Rh249  1  0.20013011  0.39635006  0.79067586  1
