# generated using pymatgen
data_ZrScNbPdRh
_symmetry_space_group_name_H-M   'P 1'
_cell_length_a   16.56639714
_cell_length_b   16.56266146
_cell_length_c   16.56594864
_cell_angle_alpha   90.02257049
_cell_angle_beta   90.01220745
_cell_angle_gamma   90.03748645
_symmetry_Int_Tables_number   1
_chemical_formula_structural   ZrScNbPdRh
_chemical_formula_sum   'Zr50 Sc50 Nb50 Pd50 Rh50'
_cell_volume   4545.42365273
_cell_formula_units_Z   50
loop_
 _symmetry_equiv_pos_site_id
 _symmetry_equiv_pos_as_xyz
  1  'x, y, z'
loop_
 _atom_site_type_symbol
 _atom_site_label
 _atom_site_symmetry_multiplicity
 _atom_site_fract_x
 _atom_site_fract_y
 _atom_site_fract_z
 _atom_site_occupancy
  Zr  Zr0  1  0.09533388  0.28868248  0.09095393  1
  Zr  Zr1  1  0.50949830  0.50187819  0.29582673  1
  Zr  Zr2  1  0.89110050  0.90289790  0.89625341  1
  Zr  Zr3  1  0.70054755  0.29881111  0.31065729  1
  Zr  Zr4  1  0.10385926  0.70225001  0.70410923  1
  Zr  Zr5  1  0.90192400  0.49355013  0.09764230  1
  Zr  Zr6  1  0.90653832  0.50575673  0.49942567  1
  Zr  Zr7  1  0.69504824  0.69729154  0.70292695  1
  Zr  Zr8  1  0.50266311  0.89578060  0.08487409  1
  Zr  Zr9  1  0.50262877  0.90025585  0.71255654  1
  Zr  Zr10  1  0.29317358  0.89940175  0.29981318  1
  Zr  Zr11  1  0.51812570  0.09872006  0.89074121  1
  Zr  Zr12  1  0.29780740  0.69418684  0.09945319  1
  Zr  Zr13  1  0.89839689  0.90569253  0.10466338  1
  Zr  Zr14  1  0.30483273  0.30203773  0.09633638  1
  Zr  Zr15  1  0.71449341  0.69884186  0.89475595  1
  Zr  Zr16  1  0.10487472  0.49422363  0.89963227  1
  Zr  Zr17  1  0.10104179  0.90675423  0.89563282  1
  Zr  Zr18  1  0.28859925  0.69502825  0.90124445  1
  Zr  Zr19  1  0.09595919  0.70230241  0.10064660  1
  Zr  Zr20  1  0.69762058  0.69489859  0.29548923  1
  Zr  Zr21  1  0.10137508  0.30102537  0.71209647  1
  Zr  Zr22  1  0.29839667  0.70214388  0.29985924  1
  Zr  Zr23  1  0.90114386  0.50175570  0.29480426  1
  Zr  Zr24  1  0.28342193  0.30511702  0.89919848  1
  Zr  Zr25  1  0.29838135  0.49857052  0.50181909  1
  Zr  Zr26  1  0.70357829  0.70227489  0.10128720  1
  Zr  Zr27  1  0.89597679  0.70248620  0.29465198  1
  Zr  Zr28  1  0.69253440  0.49732963  0.50078631  1
  Zr  Zr29  1  0.49717781  0.30218780  0.10295632  1
  Zr  Zr30  1  0.49439299  0.69435125  0.09660076  1
  Zr  Zr31  1  0.10254160  0.50143303  0.49784790  1
  Zr  Zr32  1  0.10450873  0.69669557  0.51242815  1
  Zr  Zr33  1  0.70082391  0.50702798  0.30134957  1
  Zr  Zr34  1  0.10159526  0.30213118  0.29993350  1
  Zr  Zr35  1  0.10728337  0.29633797  0.49261569  1
  Zr  Zr36  1  0.30057372  0.89900589  0.89574814  1
  Zr  Zr37  1  0.89347618  0.09860015  0.70529039  1
  Zr  Zr38  1  0.50566428  0.29191594  0.49969565  1
  Zr  Zr39  1  0.50404718  0.10515803  0.69745412  1
  Zr  Zr40  1  0.50386469  0.70225278  0.30323654  1
  Zr  Zr41  1  0.69870054  0.89265603  0.70609916  1
  Zr  Zr42  1  0.10661683  0.69881433  0.29117145  1
  Zr  Zr43  1  0.30646424  0.29443417  0.50073381  1
  Zr  Zr44  1  0.49784467  0.69911371  0.70454129  1
  Zr  Zr45  1  0.09407363  0.50371601  0.10755554  1
  Zr  Zr46  1  0.69199174  0.90969924  0.90958203  1
  Zr  Zr47  1  0.90720117  0.90281521  0.69750207  1
  Zr  Zr48  1  0.91358051  0.29866671  0.90209330  1
  Zr  Zr49  1  0.49468067  0.48616348  0.50760461  1
  Sc  Sc50  1  0.69203511  0.49794257  0.70687331  1
  Sc  Sc51  1  0.09691776  0.49792848  0.30286966  1
  Sc  Sc52  1  0.90375643  0.29627635  0.29772064  1
  Sc  Sc53  1  0.90218367  0.29626321  0.69966122  1
  Sc  Sc54  1  0.09846889  0.90310301  0.50419892  1
  Sc  Sc55  1  0.50731716  0.30943133  0.90343866  1
  Sc  Sc56  1  0.71846955  0.10237740  0.30715816  1
  Sc  Sc57  1  0.67849418  0.70261272  0.48813127  1
  Sc  Sc58  1  0.70952307  0.11669134  0.49617255  1
  Sc  Sc59  1  0.49467496  0.90088735  0.30336201  1
  Sc  Sc60  1  0.10198711  0.89996295  0.69491973  1
  Sc  Sc61  1  0.28986748  0.90121201  0.49410942  1
  Sc  Sc62  1  0.29114358  0.90752043  0.10495284  1
  Sc  Sc63  1  0.48712257  0.10324317  0.30245610  1
  Sc  Sc64  1  0.50851228  0.30226416  0.69698459  1
  Sc  Sc65  1  0.29265574  0.50405192  0.30334787  1
  Sc  Sc66  1  0.69861498  0.50050274  0.89794520  1
  Sc  Sc67  1  0.29650335  0.09979613  0.69416557  1
  Sc  Sc68  1  0.91197136  0.90549352  0.49813494  1
  Sc  Sc69  1  0.90351459  0.69819429  0.09536799  1
  Sc  Sc70  1  0.89608384  0.29901008  0.50758354  1
  Sc  Sc71  1  0.09803633  0.10242412  0.30377136  1
  Sc  Sc72  1  0.30002695  0.29554244  0.70319178  1
  Sc  Sc73  1  0.30217195  0.29212310  0.30085652  1
  Sc  Sc74  1  0.10092420  0.08699078  0.70130626  1
  Sc  Sc75  1  0.09774147  0.10253701  0.90206623  1
  Sc  Sc76  1  0.49305787  0.10325243  0.10503954  1
  Sc  Sc77  1  0.69894134  0.50034163  0.10748043  1
  Sc  Sc78  1  0.71701409  0.90412785  0.29532851  1
  Sc  Sc79  1  0.91557209  0.70188128  0.50151999  1
  Sc  Sc80  1  0.10110924  0.90578246  0.29741300  1
  Sc  Sc81  1  0.49697923  0.30073171  0.30376313  1
  Sc  Sc82  1  0.49070254  0.69834807  0.49291856  1
  Sc  Sc83  1  0.50404514  0.88764387  0.49080731  1
  Sc  Sc84  1  0.49088507  0.49373119  0.09543586  1
  Sc  Sc85  1  0.10248861  0.50641381  0.69487938  1
  Sc  Sc86  1  0.29882860  0.09304371  0.30109010  1
  Sc  Sc87  1  0.48323655  0.71108140  0.90474136  1
  Sc  Sc88  1  0.28719271  0.90385629  0.70184529  1
  Sc  Sc89  1  0.71453170  0.10416983  0.08417731  1
  Sc  Sc90  1  0.70542616  0.30012269  0.09685036  1
  Sc  Sc91  1  0.89442160  0.70288041  0.70401221  1
  Sc  Sc92  1  0.90453203  0.91001648  0.30138187  1
  Sc  Sc93  1  0.90522283  0.10180083  0.30800205  1
  Sc  Sc94  1  0.69832429  0.28973047  0.90248160  1
  Sc  Sc95  1  0.28986690  0.69653310  0.70016584  1
  Sc  Sc96  1  0.29445432  0.10128995  0.10872536  1
  Sc  Sc97  1  0.29498806  0.69754786  0.49639762  1
  Sc  Sc98  1  0.90623364  0.49766681  0.69121911  1
  Sc  Sc99  1  0.90326940  0.29865082  0.09779394  1
  Nb  Nb100  1  0.49621676  0.09857361  0.50214240  1
  Nb  Nb101  1  0.70186058  0.10658307  0.70896766  1
  Nb  Nb102  1  0.10205761  0.09704752  0.50086058  1
  Nb  Nb103  1  0.30244346  0.09988781  0.89749018  1
  Nb  Nb104  1  0.30469306  0.49817826  0.70609955  1
  Nb  Nb105  1  0.09593243  0.69865650  0.90301989  1
  Nb  Nb106  1  0.49553217  0.90598322  0.90042198  1
  Nb  Nb107  1  0.30187534  0.10031322  0.50270249  1
  Nb  Nb108  1  0.30029030  0.49842046  0.09218691  1
  Nb  Nb109  1  0.71243355  0.10174496  0.89061830  1
  Nb  Nb110  1  0.90479565  0.09891690  0.50010282  1
  Nb  Nb111  1  0.10000109  0.30008923  0.89819228  1
  Nb  Nb112  1  0.90046884  0.50069691  0.90372645  1
  Nb  Nb113  1  0.69978031  0.30689388  0.50447483  1
  Nb  Nb114  1  0.69958307  0.90204410  0.10294610  1
  Nb  Nb115  1  0.90236303  0.69591452  0.90228691  1
  Nb  Nb116  1  0.70053332  0.90318708  0.49727136  1
  Nb  Nb117  1  0.71058615  0.29361643  0.69038199  1
  Nb  Nb118  1  0.09715838  0.90764666  0.10003875  1
  Nb  Nb119  1  0.50164205  0.50320157  0.88910286  1
  Nb  Nb120  1  0.30410687  0.49655222  0.90116060  1
  Nb  Nb121  1  0.09340055  0.08833620  0.10196404  1
  Nb  Nb122  1  0.90912821  0.10408582  0.09303212  1
  Nb  Nb123  1  0.49777478  0.50219013  0.70838784  1
  Nb  Nb124  1  0.88647955  0.09919762  0.89923081  1
  Nb  Nb125  1  0.40154035  0.19828354  0.80802363  1
  Nb  Nb126  1  0.80119293  0.80042103  0.40615391  1
  Nb  Nb127  1  0.60513058  0.19416073  0.20197715  1
  Nb  Nb128  1  0.79347719  0.00052601  0.59928915  1
  Nb  Nb129  1  0.60269795  0.00288283  0.59470694  1
  Nb  Nb130  1  -0.00187672  0.60285771  0.80999116  1
  Nb  Nb131  1  0.20170219  0.39794856  0.19283520  1
  Nb  Nb132  1  0.40131026  0.79861127  0.19732190  1
  Nb  Nb133  1  0.00520615  0.19240495  0.59688484  1
  Nb  Nb134  1  0.20408087  0.39872452  0.60037391  1
  Nb  Nb135  1  0.59138959  0.59559101  0.60510005  1
  Nb  Nb136  1  0.79476810  0.80078819  0.59150861  1
  Nb  Nb137  1  0.59518484  0.60081969  -0.00640446  1
  Nb  Nb138  1  0.60038885  0.80711744  0.19434007  1
  Nb  Nb139  1  0.79086927  0.60623329  0.59563996  1
  Nb  Nb140  1  0.39698296  0.19729338  -0.00975810  1
  Nb  Nb141  1  0.79782490  0.40389691  0.40440399  1
  Nb  Nb142  1  0.40172964  0.00456202  -0.00938578  1
  Nb  Nb143  1  0.60580053  0.00263092  0.20025796  1
  Nb  Nb144  1  0.00001365  0.79484948  0.80885209  1
  Nb  Nb145  1  0.60420651  0.00372616  0.40178912  1
  Nb  Nb146  1  0.40636258  -0.00280927  0.59551681  1
  Nb  Nb147  1  0.39780674  0.80606589  0.60207683  1
  Nb  Nb148  1  0.18974776  0.80275366  0.00200570  1
  Nb  Nb149  1  0.80372255  0.39639696  0.80095061  1
  Pd  Pd150  1  0.39927087  0.38929543  0.80303651  1
  Pd  Pd151  1  0.19243717  0.40214880  0.00830161  1
  Pd  Pd152  1  0.40161673  -0.00504364  0.40802118  1
  Pd  Pd153  1  0.39725538  0.59751853  0.20389982  1
  Pd  Pd154  1  -0.00022836  0.80770035  -0.00263517  1
  Pd  Pd155  1  -0.00982310  0.39380335  0.40252660  1
  Pd  Pd156  1  0.59569036  0.19479639  0.00851992  1
  Pd  Pd157  1  0.38763518  0.79708659  0.79163956  1
  Pd  Pd158  1  0.01139723  0.38832557  0.59760075  1
  Pd  Pd159  1  0.60546629  0.79024961  -0.00510633  1
  Pd  Pd160  1  0.19310410  0.20166218  0.60633602  1
  Pd  Pd161  1  0.80287452  0.01438588  0.19370904  1
  Pd  Pd162  1  0.20589684  0.00268245  -0.00078680  1
  Pd  Pd163  1  0.61113211  0.38934420  0.79644336  1
  Pd  Pd164  1  0.00157418  0.18902684  0.79712335  1
  Pd  Pd165  1  0.39588397  0.00756259  0.79425569  1
  Pd  Pd166  1  0.39365661  0.60462322  0.80482404  1
  Pd  Pd167  1  0.00038459  0.19503190  0.20178480  1
  Pd  Pd168  1  0.38965424  0.40517281  0.20902942  1
  Pd  Pd169  1  0.40663180  -0.00821424  0.19247114  1
  Pd  Pd170  1  -0.00122311  0.80681970  0.20240555  1
  Pd  Pd171  1  0.79428024  0.59378714  0.00567073  1
  Pd  Pd172  1  0.00685921  0.60712731  0.39280413  1
  Pd  Pd173  1  0.59450991  0.79843530  0.59717223  1
  Pd  Pd174  1  0.80260559  0.80540805  0.00346318  1
  Pd  Pd175  1  0.39636508  0.39159389  0.61166303  1
  Pd  Pd176  1  0.20702041  0.19124800  0.39552328  1
  Pd  Pd177  1  0.80024452  0.19782357  0.19618400  1
  Pd  Pd178  1  -0.00438395  0.40949400  0.79845564  1
  Pd  Pd179  1  -0.00710434  0.00357420  -0.00750694  1
  Pd  Pd180  1  0.60350808  0.40916838  0.00240461  1
  Pd  Pd181  1  0.81014058  0.58706522  0.79064737  1
  Pd  Pd182  1  0.59877610  0.01436874  0.00903890  1
  Pd  Pd183  1  0.60807946  0.19640918  0.59767795  1
  Pd  Pd184  1  0.80177247  0.60601007  0.41061912  1
  Pd  Pd185  1  0.59801689  0.79432241  0.81816162  1
  Pd  Pd186  1  0.59808134  0.19028026  0.39365078  1
  Pd  Pd187  1  0.79605295  0.39657120  -0.00822502  1
  Pd  Pd188  1  0.20117687  0.19046158  0.79721635  1
  Pd  Pd189  1  0.60543894  0.39100896  0.19896855  1
  Pd  Pd190  1  0.40130742  0.59362188  0.39791237  1
  Pd  Pd191  1  0.39825929  0.60749234  0.60225186  1
  Pd  Pd192  1  0.79744967  0.40998934  0.60286039  1
  Pd  Pd193  1  0.19759180  0.20029463  0.19971003  1
  Pd  Pd194  1  0.00161598  0.80265708  0.39462166  1
  Pd  Pd195  1  0.39732677  0.40037393  0.39176571  1
  Pd  Pd196  1  0.19373209  0.59917530  0.00242024  1
  Pd  Pd197  1  0.79932828  0.39441304  0.20701473  1
  Pd  Pd198  1  0.18968488  0.79983084  0.40428978  1
  Pd  Pd199  1  0.20085152  0.18902778  0.00263718  1
  Rh  Rh200  1  0.00760769  0.39212693  0.19708909  1
  Rh  Rh201  1  0.40436775  0.20300786  0.19717556  1
  Rh  Rh202  1  0.20154226  0.80433962  0.19023452  1
  Rh  Rh203  1  0.38766140  0.80161242  0.39935030  1
  Rh  Rh204  1  0.60301988  0.20763917  0.79644813  1
  Rh  Rh205  1  0.38091988  0.81295907  0.00792936  1
  Rh  Rh206  1  0.20556722  0.39877694  0.39844814  1
  Rh  Rh207  1  0.61396058  0.81513394  0.37880727  1
  Rh  Rh208  1  0.40088438  0.39862781  -0.01163069  1
  Rh  Rh209  1  0.20683159  0.00080990  0.59299911  1
  Rh  Rh210  1  0.80046605  0.79917984  0.20288779  1
  Rh  Rh211  1  0.20130167  0.40804971  0.79190880  1
  Rh  Rh212  1  0.19362590  0.60319837  0.39853600  1
  Rh  Rh213  1  0.19115670  0.00565934  0.20443492  1
  Rh  Rh214  1  0.80275336  -0.00126730  0.00312109  1
  Rh  Rh215  1  0.19316455  0.80067363  0.80696565  1
  Rh  Rh216  1  0.80778744  0.59858520  0.19048920  1
  Rh  Rh217  1  0.60001124  0.40253836  0.60941659  1
  Rh  Rh218  1  0.80345465  -0.00401800  0.41028021  1
  Rh  Rh219  1  0.79313054  -0.00635353  0.79474331  1
  Rh  Rh220  1  0.00588666  0.40121856  0.00077409  1
  Rh  Rh221  1  0.59262890  0.60843226  0.80653282  1
  Rh  Rh222  1  0.20947303  0.59020540  0.60475930  1
  Rh  Rh223  1  0.80062418  0.21304119  0.80347179  1
  Rh  Rh224  1  -0.00273805  0.00563899  0.20280394  1
  Rh  Rh225  1  -0.00140016  -0.00111689  0.80414893  1
  Rh  Rh226  1  -0.00365895  0.00745705  0.59981904  1
  Rh  Rh227  1  0.00079796  0.59139508  -0.00319981  1
  Rh  Rh228  1  0.20539196  0.80191334  0.59646512  1
  Rh  Rh229  1  0.19620351  0.00482298  0.40206254  1
  Rh  Rh230  1  0.39995708  0.19643670  0.60547571  1
  Rh  Rh231  1  0.80641954  0.19269568  0.59818644  1
  Rh  Rh232  1  0.00777742  0.00257405  0.40015144  1
  Rh  Rh233  1  -0.00495709  0.60353443  0.20195712  1
  Rh  Rh234  1  0.81049017  0.21361769  0.40574746  1
  Rh  Rh235  1  0.60177674  0.40027196  0.39843231  1
  Rh  Rh236  1  -0.00768733  0.60997947  0.61212314  1
  Rh  Rh237  1  -0.00183761  0.20038565  0.40989469  1
  Rh  Rh238  1  0.58493306  0.58791479  0.41233146  1
  Rh  Rh239  1  0.61047578  -0.00015062  0.79533386  1
  Rh  Rh240  1  0.40518171  0.58677178  -0.01021311  1
  Rh  Rh241  1  0.80699528  0.80396633  0.79771674  1
  Rh  Rh242  1  0.20281712  0.58968756  0.19781699  1
  Rh  Rh243  1  0.00036290  0.19194713  -0.00575034  1
  Rh  Rh244  1  0.19910587  0.00475649  0.80012289  1
  Rh  Rh245  1  0.59539190  0.60300749  0.18682183  1
  Rh  Rh246  1  0.19694662  0.59068006  0.80216271  1
  Rh  Rh247  1  -0.00117940  0.79673347  0.60953259  1
  Rh  Rh248  1  0.39753562  0.19711342  0.40153442  1
  Rh  Rh249  1  0.80977604  0.20593269  -0.00477881  1
