# generated using pymatgen
data_ZrScNbPdRh
_symmetry_space_group_name_H-M   'P 1'
_cell_length_a   16.55976224
_cell_length_b   16.56039253
_cell_length_c   16.55779238
_cell_angle_alpha   90.02601432
_cell_angle_beta   89.98052243
_cell_angle_gamma   89.99649954
_symmetry_Int_Tables_number   1
_chemical_formula_structural   ZrScNbPdRh
_chemical_formula_sum   'Zr50 Sc50 Nb50 Pd50 Rh50'
_cell_volume   4540.74470921
_cell_formula_units_Z   50
loop_
 _symmetry_equiv_pos_site_id
 _symmetry_equiv_pos_as_xyz
  1  'x, y, z'
loop_
 _atom_site_type_symbol
 _atom_site_label
 _atom_site_symmetry_multiplicity
 _atom_site_fract_x
 _atom_site_fract_y
 _atom_site_fract_z
 _atom_site_occupancy
  Zr  Zr0  1  0.69334409  0.30030184  0.90242478  1
  Zr  Zr1  1  0.71115104  0.10320123  0.49577296  1
  Zr  Zr2  1  0.29823888  0.70506834  0.50240311  1
  Zr  Zr3  1  0.90831603  0.30478968  0.28986511  1
  Zr  Zr4  1  0.50444323  0.70366188  0.50428146  1
  Zr  Zr5  1  0.09241235  0.49643077  0.89699795  1
  Zr  Zr6  1  0.70040466  0.89965767  0.71327004  1
  Zr  Zr7  1  0.10185732  0.70444475  0.68862596  1
  Zr  Zr8  1  0.50164578  0.29508876  0.31179587  1
  Zr  Zr9  1  0.10079404  0.08868468  0.29900734  1
  Zr  Zr10  1  0.31045906  0.10226845  0.10134648  1
  Zr  Zr11  1  0.09570770  0.89439686  0.69455708  1
  Zr  Zr12  1  0.08908871  0.29265809  0.10236541  1
  Zr  Zr13  1  0.89764784  0.30169565  0.89464343  1
  Zr  Zr14  1  0.69797705  0.10021578  0.29860682  1
  Zr  Zr15  1  0.30625886  0.29105526  0.69977493  1
  Zr  Zr16  1  0.69942663  0.09793844  0.69785891  1
  Zr  Zr17  1  0.69263674  0.10312254  0.10843686  1
  Zr  Zr18  1  0.90521140  0.49757754  0.89991092  1
  Zr  Zr19  1  0.89756783  0.89847819  0.70015059  1
  Zr  Zr20  1  0.49584221  0.89753617  0.09520271  1
  Zr  Zr21  1  0.89835497  0.09615305  0.30834013  1
  Zr  Zr22  1  0.90220811  0.28597068  0.49704682  1
  Zr  Zr23  1  0.30898688  0.90928689  0.69919918  1
  Zr  Zr24  1  0.69051807  0.29550489  0.49726320  1
  Zr  Zr25  1  0.49674379  0.89586390  0.89131618  1
  Zr  Zr26  1  0.30126021  0.90476794  0.49683169  1
  Zr  Zr27  1  0.69574439  0.70131081  0.69119389  1
  Zr  Zr28  1  0.29933142  0.50171382  0.10156553  1
  Zr  Zr29  1  0.89500161  0.50439751  0.29843697  1
  Zr  Zr30  1  0.10423512  0.89526326  0.49750195  1
  Zr  Zr31  1  0.49852650  0.49617628  0.51078858  1
  Zr  Zr32  1  0.69920689  0.29547652  0.70730255  1
  Zr  Zr33  1  0.89254864  0.89376587  0.89775784  1
  Zr  Zr34  1  0.09513936  0.49375564  0.30415150  1
  Zr  Zr35  1  0.28231171  0.49834180  0.90292754  1
  Zr  Zr36  1  0.90059369  0.50085541  0.49495943  1
  Zr  Zr37  1  0.30470725  0.10625656  0.89717442  1
  Zr  Zr38  1  0.09568633  0.30884145  0.90476850  1
  Zr  Zr39  1  0.69763688  0.29795878  0.29621713  1
  Zr  Zr40  1  0.50431970  0.29465471  0.10495931  1
  Zr  Zr41  1  0.69811847  0.90542007  0.28825533  1
  Zr  Zr42  1  0.50511353  0.70334698  0.90900021  1
  Zr  Zr43  1  0.10800894  0.49738354  0.49653749  1
  Zr  Zr44  1  0.89750994  0.89856250  0.09565518  1
  Zr  Zr45  1  0.69841579  0.50742581  0.90369614  1
  Zr  Zr46  1  0.69694647  0.88633050  0.49816225  1
  Zr  Zr47  1  0.29895454  0.29799113  0.09993535  1
  Zr  Zr48  1  0.91484102  0.09872730  0.10284559  1
  Zr  Zr49  1  0.89553597  0.69748910  0.90401044  1
  Sc  Sc50  1  0.89919717  0.49641822  0.70430951  1
  Sc  Sc51  1  0.89983075  0.10253422  0.90545726  1
  Sc  Sc52  1  0.30834941  0.49094657  0.30512172  1
  Sc  Sc53  1  0.10357402  0.29620058  0.69139176  1
  Sc  Sc54  1  0.09848091  0.69317036  0.90018164  1
  Sc  Sc55  1  0.51124220  0.49506809  0.89393869  1
  Sc  Sc56  1  0.89823186  0.70802333  0.09767793  1
  Sc  Sc57  1  0.30538055  0.71053917  0.29451049  1
  Sc  Sc58  1  0.88587409  0.70116110  0.49492689  1
  Sc  Sc59  1  0.29603384  0.90095205  0.30362773  1
  Sc  Sc60  1  0.90064783  0.70697712  0.70249107  1
  Sc  Sc61  1  0.30287999  0.29851436  0.49521314  1
  Sc  Sc62  1  0.10152901  0.88662526  0.90597590  1
  Sc  Sc63  1  0.29627739  0.69711955  0.69413282  1
  Sc  Sc64  1  0.30414116  0.89186382  0.10268098  1
  Sc  Sc65  1  0.29332505  0.29745924  0.89809839  1
  Sc  Sc66  1  0.09411837  0.90361475  0.10669724  1
  Sc  Sc67  1  0.49635597  0.89061906  0.49786645  1
  Sc  Sc68  1  0.10044819  0.10995825  0.91163045  1
  Sc  Sc69  1  0.69770481  0.11098713  0.89404057  1
  Sc  Sc70  1  0.10631517  0.10761458  0.68479279  1
  Sc  Sc71  1  0.89978036  0.30236212  0.69974597  1
  Sc  Sc72  1  0.89929932  0.90277323  0.29005163  1
  Sc  Sc73  1  0.48685832  0.10401707  0.70020379  1
  Sc  Sc74  1  0.11134348  0.50215646  0.70122619  1
  Sc  Sc75  1  0.09928078  0.49473460  0.08596663  1
  Sc  Sc76  1  0.49071825  0.90000595  0.30085319  1
  Sc  Sc77  1  0.30764874  0.09323289  0.30740017  1
  Sc  Sc78  1  0.50576650  0.50704701  0.11000947  1
  Sc  Sc79  1  0.50040937  0.70643734  0.29989747  1
  Sc  Sc80  1  0.49860801  0.30541009  0.70023600  1
  Sc  Sc81  1  0.69414727  0.69631528  0.08538451  1
  Sc  Sc82  1  0.69487314  0.50103891  0.11170351  1
  Sc  Sc83  1  0.70214062  0.50307337  0.51354903  1
  Sc  Sc84  1  0.70923272  0.70411664  0.30325951  1
  Sc  Sc85  1  0.49923483  0.70492105  0.69984276  1
  Sc  Sc86  1  0.89288707  0.10466032  0.69220332  1
  Sc  Sc87  1  0.49783197  0.10881726  0.49945189  1
  Sc  Sc88  1  0.50557054  0.29766865  0.89632635  1
  Sc  Sc89  1  0.69278456  0.50120627  0.70178393  1
  Sc  Sc90  1  0.69732480  0.70176356  0.89696885  1
  Sc  Sc91  1  0.28901069  0.70994596  0.90498742  1
  Sc  Sc92  1  0.89959831  0.29563997  0.10324094  1
  Sc  Sc93  1  0.30422820  0.49487173  0.51219464  1
  Sc  Sc94  1  0.10181028  0.10582138  0.49337850  1
  Sc  Sc95  1  0.89725209  0.49305645  0.10819859  1
  Sc  Sc96  1  0.10640002  0.71010708  0.30202981  1
  Sc  Sc97  1  0.10382518  0.70826557  0.09116866  1
  Sc  Sc98  1  0.30960842  0.29615028  0.30781585  1
  Sc  Sc99  1  0.50563989  0.49143578  0.29806792  1
  Nb  Nb100  1  0.10396823  0.30061780  0.49348653  1
  Nb  Nb101  1  0.10724212  0.29961094  0.30386127  1
  Nb  Nb102  1  0.50110813  0.10018919  0.29101403  1
  Nb  Nb103  1  0.31021866  0.49808188  0.70040719  1
  Nb  Nb104  1  0.10269583  0.90348151  0.30794361  1
  Nb  Nb105  1  0.49318845  0.70423045  0.09928476  1
  Nb  Nb106  1  0.90318902  0.90269021  0.49861081  1
  Nb  Nb107  1  0.30472672  0.09827801  0.51619524  1
  Nb  Nb108  1  0.69832148  0.90484964  0.09856916  1
  Nb  Nb109  1  0.49824645  0.09971467  0.91270073  1
  Nb  Nb110  1  0.29693483  0.90473305  0.89904241  1
  Nb  Nb111  1  0.10534326  0.70328204  0.50359693  1
  Nb  Nb112  1  0.69909474  0.29888941  0.09927841  1
  Nb  Nb113  1  0.69397520  0.90109307  0.90317819  1
  Nb  Nb114  1  0.49753920  0.30089243  0.49697394  1
  Nb  Nb115  1  0.90295205  0.09443251  0.49754409  1
  Nb  Nb116  1  0.70244765  0.49771343  0.29864018  1
  Nb  Nb117  1  0.68860851  0.70081063  0.49989704  1
  Nb  Nb118  1  0.30022896  0.10301064  0.69301226  1
  Nb  Nb119  1  0.90474870  0.69827977  0.29885031  1
  Nb  Nb120  1  0.50492101  0.90542674  0.69967992  1
  Nb  Nb121  1  0.48676769  0.50103579  0.69896283  1
  Nb  Nb122  1  0.49805759  0.09804421  0.10505894  1
  Nb  Nb123  1  0.10382946  0.10011328  0.10108475  1
  Nb  Nb124  1  0.30624024  0.69788636  0.09903754  1
  Nb  Nb125  1  0.20509412  0.00017612  -0.00194661  1
  Nb  Nb126  1  0.19893288  0.59689787  0.20211967  1
  Nb  Nb127  1  0.39611697  0.59531697  0.80414531  1
  Nb  Nb128  1  0.79153724  0.39589124  0.00258117  1
  Nb  Nb129  1  0.60018294  0.00135845  0.40084285  1
  Nb  Nb130  1  0.00429952  0.60479030  0.20450861  1
  Nb  Nb131  1  0.00306601  0.59956723  0.59165584  1
  Nb  Nb132  1  0.00651640  0.00433183  0.79507911  1
  Nb  Nb133  1  0.39983671  0.59899796  -0.00236375  1
  Nb  Nb134  1  0.60232383  0.60097560  0.40345189  1
  Nb  Nb135  1  0.59832277  0.80209408  0.19034829  1
  Nb  Nb136  1  -0.00495729  -0.00043432  0.59521871  1
  Nb  Nb137  1  0.00481922  0.40044318  0.58995916  1
  Nb  Nb138  1  0.19780682  0.19888748  0.20363083  1
  Nb  Nb139  1  0.19917809  0.00233318  0.80137608  1
  Nb  Nb140  1  0.19662674  0.39519553  0.20294052  1
  Nb  Nb141  1  0.59958773  -0.00268681  0.59846278  1
  Nb  Nb142  1  0.00204139  0.19739946  0.79798952  1
  Nb  Nb143  1  0.40128235  0.40637206  0.00092715  1
  Nb  Nb144  1  0.79707316  0.39959401  0.39682980  1
  Nb  Nb145  1  -0.00130710  0.80189246  0.39926291  1
  Nb  Nb146  1  0.40373239  0.60100830  0.40550022  1
  Nb  Nb147  1  0.78988426  -0.00037712  0.00187292  1
  Nb  Nb148  1  0.59767964  0.00134720  -0.00095587  1
  Nb  Nb149  1  0.20607999  0.60206865  0.39894154  1
  Pd  Pd150  1  0.80534159  0.19572519  0.20058993  1
  Pd  Pd151  1  0.79492433  -0.01073120  0.39949624  1
  Pd  Pd152  1  0.80060403  0.60198233  0.79342284  1
  Pd  Pd153  1  0.60363958  0.61396173  0.21003908  1
  Pd  Pd154  1  0.39880777  0.40250323  0.81154605  1
  Pd  Pd155  1  0.40024669  0.39463799  0.19791033  1
  Pd  Pd156  1  0.79999258  0.19874503  0.00394503  1
  Pd  Pd157  1  0.80595881  0.00852434  0.80915380  1
  Pd  Pd158  1  0.19163672  0.19432400  0.79836247  1
  Pd  Pd159  1  0.59831732  0.39820162  0.60730489  1
  Pd  Pd160  1  0.00342465  0.19852392  0.39328757  1
  Pd  Pd161  1  0.20905106  0.19157642  0.39892279  1
  Pd  Pd162  1  0.20384840  0.60498537  0.79715114  1
  Pd  Pd163  1  0.00580292  0.79863715  0.20546859  1
  Pd  Pd164  1  0.80131071  0.79884845  0.59964562  1
  Pd  Pd165  1  0.20344572  0.39407861  0.60280620  1
  Pd  Pd166  1  0.60646831  0.41126018  0.40503575  1
  Pd  Pd167  1  0.80609749  0.80760317  0.39328560  1
  Pd  Pd168  1  0.80776525  0.60266855  0.60628353  1
  Pd  Pd169  1  0.79148408  0.40464077  0.80523055  1
  Pd  Pd170  1  0.39932015  0.80230365  0.60537231  1
  Pd  Pd171  1  0.80358958  0.58980814  0.00991762  1
  Pd  Pd172  1  0.58919176  0.19409226  0.79564529  1
  Pd  Pd173  1  0.19863728  0.39431383  0.79037919  1
  Pd  Pd174  1  0.80509856  0.39339828  0.59424530  1
  Pd  Pd175  1  0.19296596  -0.00188299  0.59945265  1
  Pd  Pd176  1  0.39812940  -0.00481514  -0.00034766  1
  Pd  Pd177  1  0.80034428  0.20643298  0.60198943  1
  Pd  Pd178  1  0.00971184  0.61398961  0.39950295  1
  Pd  Pd179  1  0.79186099  0.79177366  0.19209984  1
  Pd  Pd180  1  0.40490648  0.21266814  -0.00492829  1
  Pd  Pd181  1  0.39969752  0.00787245  0.80070367  1
  Pd  Pd182  1  0.00248608  0.79782542  0.80677818  1
  Pd  Pd183  1  0.20828528  0.00158160  0.19305028  1
  Pd  Pd184  1  0.00550805  -0.00582425  -0.00937837  1
  Pd  Pd185  1  0.19880399  0.79881382  0.19612687  1
  Pd  Pd186  1  0.00143355  0.60228968  0.78802422  1
  Pd  Pd187  1  -0.00631918  0.39354435  0.40356234  1
  Pd  Pd188  1  0.59236411  0.01103245  0.80160519  1
  Pd  Pd189  1  0.79774192  -0.00635218  0.59626586  1
  Pd  Pd190  1  0.59358847  0.19489490  0.60320978  1
  Pd  Pd191  1  -0.00442353  0.60161422  0.01181700  1
  Pd  Pd192  1  0.39474092  0.79027296  0.79980378  1
  Pd  Pd193  1  0.40880857  0.00475232  0.40589881  1
  Pd  Pd194  1  0.80251108  0.60961883  0.19355759  1
  Pd  Pd195  1  0.78872256  0.59564313  0.40187168  1
  Pd  Pd196  1  0.39748008  0.60148528  0.20623359  1
  Pd  Pd197  1  0.20215720  0.80461349  0.79478326  1
  Pd  Pd198  1  0.59137082  0.60361447  0.79289761  1
  Pd  Pd199  1  0.59804219  0.40662717  0.00842731  1
  Rh  Rh200  1  0.00133700  -0.00765517  0.40395320  1
  Rh  Rh201  1  0.39561656  0.79513027  0.39964583  1
  Rh  Rh202  1  0.39744507  -0.00407177  0.20232213  1
  Rh  Rh203  1  0.00915178  0.39253257  0.78418664  1
  Rh  Rh204  1  0.80658087  0.19710821  0.79687513  1
  Rh  Rh205  1  0.59599373  0.19272300  0.00475641  1
  Rh  Rh206  1  0.80367166  0.20709558  0.39212070  1
  Rh  Rh207  1  0.40068168  0.60556188  0.60291402  1
  Rh  Rh208  1  0.59626681  0.19020623  0.39852347  1
  Rh  Rh209  1  0.59545325  0.20347292  0.20296904  1
  Rh  Rh210  1  0.20034758  0.19632384  0.01002737  1
  Rh  Rh211  1  0.79145905  0.39627693  0.19891962  1
  Rh  Rh212  1  -0.01513121  0.39736525  0.00612344  1
  Rh  Rh213  1  0.60219746  0.80695702  0.00349165  1
  Rh  Rh214  1  0.00026678  0.19940256  0.59925413  1
  Rh  Rh215  1  0.58464822  -0.00797346  0.20010115  1
  Rh  Rh216  1  0.00725922  0.19268409  0.21088650  1
  Rh  Rh217  1  0.20043791  0.79852310  0.39790914  1
  Rh  Rh218  1  0.20627330  0.20577112  0.58874313  1
  Rh  Rh219  1  -0.00008638  -0.00261390  0.20257335  1
  Rh  Rh220  1  0.20846205  0.40298724  0.39610925  1
  Rh  Rh221  1  0.60170012  0.40216160  0.79252847  1
  Rh  Rh222  1  0.40359027  0.19938110  0.80353375  1
  Rh  Rh223  1  0.59171674  0.59569716  0.00336981  1
  Rh  Rh224  1  0.60045217  0.39404534  0.20058592  1
  Rh  Rh225  1  0.20278383  0.60737388  0.00653065  1
  Rh  Rh226  1  0.40012274  0.19289977  0.40342700  1
  Rh  Rh227  1  0.60243804  0.80139683  0.38428413  1
  Rh  Rh228  1  0.80917065  0.00751157  0.18953747  1
  Rh  Rh229  1  -0.00153520  0.79798759  -0.00374258  1
  Rh  Rh230  1  0.00967237  0.40724544  0.19470742  1
  Rh  Rh231  1  0.19983562  0.59553116  0.59561393  1
  Rh  Rh232  1  0.41055342  -0.00100880  0.59619033  1
  Rh  Rh233  1  0.59910284  0.80899619  0.60972386  1
  Rh  Rh234  1  0.59359170  0.59809862  0.60186516  1
  Rh  Rh235  1  0.79282311  0.80448256  -0.00286052  1
  Rh  Rh236  1  -0.00383186  0.20497336  -0.00773080  1
  Rh  Rh237  1  0.20414441  0.00535192  0.40811095  1
  Rh  Rh238  1  0.39868944  0.38900312  0.59877658  1
  Rh  Rh239  1  0.40390012  0.80294412  0.20094625  1
  Rh  Rh240  1  0.40209408  0.20699525  0.59560650  1
  Rh  Rh241  1  0.20307832  0.80791741  0.00764914  1
  Rh  Rh242  1  0.60076228  0.79642356  0.79744493  1
  Rh  Rh243  1  0.40370547  0.40493264  0.40764438  1
  Rh  Rh244  1  0.39301661  0.79573895  -0.00721515  1
  Rh  Rh245  1  0.79284140  0.79292592  0.80477019  1
  Rh  Rh246  1  0.20255736  0.39156385  0.00605762  1
  Rh  Rh247  1  0.21214537  0.80989106  0.60444390  1
  Rh  Rh248  1  0.39876447  0.19926426  0.20763205  1
  Rh  Rh249  1  -0.01148233  0.79425471  0.58540942  1
