# generated using pymatgen
data_ZrScNbPdRh
_symmetry_space_group_name_H-M   'P 1'
_cell_length_a   16.55515269
_cell_length_b   16.55342144
_cell_length_c   16.55140080
_cell_angle_alpha   89.98123609
_cell_angle_beta   89.99439592
_cell_angle_gamma   89.98777335
_symmetry_Int_Tables_number   1
_chemical_formula_structural   ZrScNbPdRh
_chemical_formula_sum   'Zr50 Sc50 Nb50 Pd50 Rh50'
_cell_volume   4535.81865446
_cell_formula_units_Z   50
loop_
 _symmetry_equiv_pos_site_id
 _symmetry_equiv_pos_as_xyz
  1  'x, y, z'
loop_
 _atom_site_type_symbol
 _atom_site_label
 _atom_site_symmetry_multiplicity
 _atom_site_fract_x
 _atom_site_fract_y
 _atom_site_fract_z
 _atom_site_occupancy
  Zr  Zr0  1  0.10918977  0.30404096  0.70526696  1
  Zr  Zr1  1  0.69984461  0.89456214  0.50316589  1
  Zr  Zr2  1  0.50966485  0.70439601  0.49885688  1
  Zr  Zr3  1  0.89978028  0.90236986  0.10532440  1
  Zr  Zr4  1  0.90262921  0.31065920  0.30273650  1
  Zr  Zr5  1  0.69607800  0.69826797  0.90583363  1
  Zr  Zr6  1  0.90830067  0.09558870  0.89596290  1
  Zr  Zr7  1  0.69418477  0.50270701  0.50318450  1
  Zr  Zr8  1  0.50460871  0.50163657  0.49423396  1
  Zr  Zr9  1  0.69437516  0.89887836  0.09569069  1
  Zr  Zr10  1  0.89661400  0.69137812  0.29824097  1
  Zr  Zr11  1  0.29739776  0.29346316  0.29820475  1
  Zr  Zr12  1  0.49475385  0.69172920  0.30320799  1
  Zr  Zr13  1  0.50820950  0.30530339  0.50735294  1
  Zr  Zr14  1  0.10504660  0.51098502  0.69604381  1
  Zr  Zr15  1  0.30749881  0.29114064  0.10547217  1
  Zr  Zr16  1  0.70719695  0.90566874  0.29501316  1
  Zr  Zr17  1  0.91333822  0.30598825  0.90445498  1
  Zr  Zr18  1  0.30398017  0.90026358  0.30177570  1
  Zr  Zr19  1  0.90803539  0.10081384  0.09875369  1
  Zr  Zr20  1  0.49833554  0.69915837  0.69909055  1
  Zr  Zr21  1  0.70231402  0.50764860  0.30409164  1
  Zr  Zr22  1  0.50001438  0.09662766  0.88824114  1
  Zr  Zr23  1  0.50570158  0.08922340  0.31194076  1
  Zr  Zr24  1  0.50008640  0.29844898  0.09861706  1
  Zr  Zr25  1  0.69414436  0.09875914  0.89404217  1
  Zr  Zr26  1  0.09061476  0.88849907  0.50650695  1
  Zr  Zr27  1  0.49846802  0.90515032  0.50109189  1
  Zr  Zr28  1  0.69984199  0.29893641  0.10188560  1
  Zr  Zr29  1  0.30512188  0.09645236  0.69988513  1
  Zr  Zr30  1  0.69974791  0.70526928  0.30530906  1
  Zr  Zr31  1  0.09370047  0.30259976  0.09087762  1
  Zr  Zr32  1  0.29228254  0.69761824  0.70459352  1
  Zr  Zr33  1  0.69970573  0.09157870  0.10824483  1
  Zr  Zr34  1  0.50041322  0.49519884  0.11240901  1
  Zr  Zr35  1  0.31151089  0.70201216  0.90311325  1
  Zr  Zr36  1  0.50080868  0.29760237  0.89344393  1
  Zr  Zr37  1  0.10256324  0.90295201  0.89786227  1
  Zr  Zr38  1  0.50313125  0.69940891  0.08388185  1
  Zr  Zr39  1  0.90003660  0.50149707  0.49037604  1
  Zr  Zr40  1  0.29318677  0.90195732  0.70072313  1
  Zr  Zr41  1  0.10087993  0.48989782  0.90612615  1
  Zr  Zr42  1  0.49849206  0.30805582  0.29311651  1
  Zr  Zr43  1  0.29563215  0.70255350  0.29065435  1
  Zr  Zr44  1  0.90213895  0.89996491  0.89284701  1
  Zr  Zr45  1  0.89673135  0.50848263  0.70895532  1
  Zr  Zr46  1  0.30233139  0.89409508  0.09887196  1
  Zr  Zr47  1  0.89481361  0.08962773  0.30353573  1
  Zr  Zr48  1  0.10053122  0.89656563  0.69828495  1
  Zr  Zr49  1  0.69388928  0.30528196  0.89453757  1
  Sc  Sc50  1  0.70014933  0.09781033  0.69249821  1
  Sc  Sc51  1  0.70586944  0.69610989  0.09509949  1
  Sc  Sc52  1  0.10187186  0.30539194  0.49481456  1
  Sc  Sc53  1  0.89203320  0.69259356  0.90191474  1
  Sc  Sc54  1  0.29074670  0.49780211  0.50406512  1
  Sc  Sc55  1  0.09818606  0.50206519  0.50340072  1
  Sc  Sc56  1  0.29962579  0.09841546  0.10527033  1
  Sc  Sc57  1  0.10192351  0.90536768  0.31067732  1
  Sc  Sc58  1  0.10491815  0.08935976  0.70060876  1
  Sc  Sc59  1  0.89042328  0.29165526  0.49648406  1
  Sc  Sc60  1  0.10294453  0.08965523  0.09880223  1
  Sc  Sc61  1  0.70763921  0.29770470  0.30585835  1
  Sc  Sc62  1  0.29723310  0.50967608  0.10131234  1
  Sc  Sc63  1  0.29351039  0.70004932  0.09825451  1
  Sc  Sc64  1  0.90812460  0.70364948  0.50184453  1
  Sc  Sc65  1  0.09921379  0.51110508  0.09788506  1
  Sc  Sc66  1  0.29300076  0.09680098  0.29972687  1
  Sc  Sc67  1  0.09865202  0.09330274  0.90172837  1
  Sc  Sc68  1  0.90265103  0.50289036  0.89658555  1
  Sc  Sc69  1  0.29638221  0.90388498  0.49931683  1
  Sc  Sc70  1  0.90434117  0.50676105  0.11059885  1
  Sc  Sc71  1  0.70188976  0.50023168  0.89599423  1
  Sc  Sc72  1  0.89921167  0.90916580  0.69244373  1
  Sc  Sc73  1  0.50478054  0.49682010  0.90214041  1
  Sc  Sc74  1  0.50331663  0.91220864  0.70096883  1
  Sc  Sc75  1  0.49619650  0.89684988  0.30474808  1
  Sc  Sc76  1  0.29576354  0.30493701  0.89022973  1
  Sc  Sc77  1  0.10677180  0.69174636  0.90995383  1
  Sc  Sc78  1  0.29136246  0.30224747  0.50356171  1
  Sc  Sc79  1  0.69249498  0.50279984  0.09710708  1
  Sc  Sc80  1  0.10374481  0.29652914  0.30864141  1
  Sc  Sc81  1  0.50042458  0.90214547  0.90588311  1
  Sc  Sc82  1  0.90011507  0.90369375  0.49862720  1
  Sc  Sc83  1  0.89030182  0.09688541  0.50373895  1
  Sc  Sc84  1  0.09371815  0.09818946  0.49488204  1
  Sc  Sc85  1  0.49356259  0.09002805  0.09205785  1
  Sc  Sc86  1  0.29780796  0.89553318  0.89691081  1
  Sc  Sc87  1  0.30085877  0.30660033  0.69785670  1
  Sc  Sc88  1  0.30576684  0.51096177  0.29081878  1
  Sc  Sc89  1  0.08713431  0.49660814  0.30264818  1
  Sc  Sc90  1  0.70376175  0.89837353  0.69633864  1
  Sc  Sc91  1  0.30827069  0.10160406  0.89815818  1
  Sc  Sc92  1  0.69777237  0.89965838  0.89664185  1
  Sc  Sc93  1  0.90237088  0.30146962  0.10454564  1
  Sc  Sc94  1  0.29481245  0.50623618  0.89723627  1
  Sc  Sc95  1  0.69253867  0.30067262  0.70187144  1
  Sc  Sc96  1  0.69820356  0.70119753  0.50653636  1
  Sc  Sc97  1  0.69920941  0.29247757  0.50166227  1
  Sc  Sc98  1  0.30766585  0.09744793  0.50943688  1
  Sc  Sc99  1  0.29815462  0.70345690  0.49868575  1
  Nb  Nb100  1  0.09374594  0.70124952  0.68231177  1
  Nb  Nb101  1  0.49752411  0.10411150  0.69645938  1
  Nb  Nb102  1  0.89442259  0.50158794  0.30362372  1
  Nb  Nb103  1  0.89936857  0.10344256  0.69598088  1
  Nb  Nb104  1  0.49992866  0.50099787  0.30221418  1
  Nb  Nb105  1  0.10023988  0.10632826  0.29720653  1
  Nb  Nb106  1  0.10234941  0.30064227  0.90246758  1
  Nb  Nb107  1  0.09816568  0.69969956  0.10711436  1
  Nb  Nb108  1  0.90206038  0.69666048  0.70310124  1
  Nb  Nb109  1  0.70030576  0.09729512  0.30209153  1
  Nb  Nb110  1  0.70159230  0.10260296  0.48818214  1
  Nb  Nb111  1  0.50164179  0.10118070  0.50570197  1
  Nb  Nb112  1  0.70081578  0.50564165  0.69952558  1
  Nb  Nb113  1  0.50213284  0.69972872  0.89594644  1
  Nb  Nb114  1  0.89515453  0.30269580  0.70297579  1
  Nb  Nb115  1  0.90048754  0.89287825  0.30079480  1
  Nb  Nb116  1  0.29868665  0.50348219  0.69595291  1
  Nb  Nb117  1  0.09899768  0.70415872  0.30023371  1
  Nb  Nb118  1  0.09763930  0.70078371  0.50496291  1
  Nb  Nb119  1  0.10148452  0.89380668  0.08975000  1
  Nb  Nb120  1  0.50154306  0.49063879  0.69154139  1
  Nb  Nb121  1  0.69964574  0.69494307  0.69833721  1
  Nb  Nb122  1  0.90976571  0.69688459  0.10101438  1
  Nb  Nb123  1  0.50353622  0.30598985  0.70291136  1
  Nb  Nb124  1  0.50493886  0.89929712  0.10096532  1
  Nb  Nb125  1  0.19884916  0.20453648  -0.00216845  1
  Nb  Nb126  1  0.40719823  0.20258440  0.40607696  1
  Nb  Nb127  1  -0.00420057  0.20447596  0.60881253  1
  Nb  Nb128  1  0.80186159  0.00356440  -0.00057986  1
  Nb  Nb129  1  0.19233153  0.60900098  0.39639317  1
  Nb  Nb130  1  0.40019109  0.79894598  0.60436728  1
  Nb  Nb131  1  0.60114253  0.19178376  0.20211810  1
  Nb  Nb132  1  0.80775088  0.20222717  0.79990187  1
  Nb  Nb133  1  0.80085292  0.40364933  0.60685644  1
  Nb  Nb134  1  0.19976056  0.39660749  0.19821638  1
  Nb  Nb135  1  0.79902047  0.19919428  -0.00526396  1
  Nb  Nb136  1  0.00031567  0.79212146  0.79695933  1
  Nb  Nb137  1  0.00141534  0.79965222  0.20044937  1
  Nb  Nb138  1  0.60161581  0.19722529  0.00215157  1
  Nb  Nb139  1  0.00067653  0.79664259  0.00380301  1
  Nb  Nb140  1  0.59732778  0.80093539  0.19673840  1
  Nb  Nb141  1  0.59776103  0.60106751  0.79285683  1
  Nb  Nb142  1  0.40007013  0.59806285  0.60369006  1
  Nb  Nb143  1  0.00072843  0.20308509  0.79570671  1
  Nb  Nb144  1  -0.00859571  0.39676035  0.60502975  1
  Nb  Nb145  1  0.80074504  0.39507766  -0.00099307  1
  Nb  Nb146  1  0.40155076  0.39959480  0.39534223  1
  Nb  Nb147  1  0.00250037  0.19575467  0.20691865  1
  Nb  Nb148  1  0.59992794  0.79148271  0.79812321  1
  Nb  Nb149  1  0.39977833  0.39676751  0.00284067  1
  Pd  Pd150  1  0.00971004  -0.00357736  0.20530248  1
  Pd  Pd151  1  0.40278558  0.59053346  0.00128346  1
  Pd  Pd152  1  -0.00652141  0.19969517  0.40205969  1
  Pd  Pd153  1  0.00640431  0.40159247  0.79421270  1
  Pd  Pd154  1  0.21196134  0.39635650  0.00822884  1
  Pd  Pd155  1  0.18988813  0.78814495  0.80458420  1
  Pd  Pd156  1  0.39428561  -0.00594108  -0.00348426  1
  Pd  Pd157  1  0.80758316  0.80492816  0.00114582  1
  Pd  Pd158  1  0.79226243  0.39844739  0.40967959  1
  Pd  Pd159  1  0.59599343  0.20638352  0.39451284  1
  Pd  Pd160  1  0.19390741  0.60331576  0.80384998  1
  Pd  Pd161  1  0.41078834  0.18220670  0.21117209  1
  Pd  Pd162  1  0.00514447  0.60403064  0.40043526  1
  Pd  Pd163  1  0.60314830  0.19633285  0.60527739  1
  Pd  Pd164  1  0.80484816  0.58728770  0.00466516  1
  Pd  Pd165  1  0.19079358  0.19695721  0.59557798  1
  Pd  Pd166  1  0.79562188  0.41080451  0.19499063  1
  Pd  Pd167  1  0.39778364  0.80060263  0.40777138  1
  Pd  Pd168  1  0.21078312  0.00618689  -0.00354709  1
  Pd  Pd169  1  0.80536375  0.79742420  0.40692847  1
  Pd  Pd170  1  0.19401394  0.00166147  0.59019849  1
  Pd  Pd171  1  0.80764066  0.79798872  0.60286981  1
  Pd  Pd172  1  0.39569302  0.40265478  0.59188577  1
  Pd  Pd173  1  0.40782407  0.81091744  0.79651765  1
  Pd  Pd174  1  0.40257399  0.00165376  0.20239742  1
  Pd  Pd175  1  0.79924665  0.79250493  0.19448117  1
  Pd  Pd176  1  0.39798330  0.20485854  0.79161866  1
  Pd  Pd177  1  0.61311039  0.39747784  0.20909679  1
  Pd  Pd178  1  0.40854845  0.79344520  0.19180924  1
  Pd  Pd179  1  0.40082719  0.20867167  0.60017467  1
  Pd  Pd180  1  0.60785543  -0.00862883  0.40404405  1
  Pd  Pd181  1  0.79916735  0.79418214  0.79478629  1
  Pd  Pd182  1  0.39626874  0.40837169  0.80463518  1
  Pd  Pd183  1  0.19885395  0.79760167  0.40419188  1
  Pd  Pd184  1  0.20852500  0.18956782  0.41114501  1
  Pd  Pd185  1  0.60494107  0.00397032  0.59837264  1
  Pd  Pd186  1  0.60211960  0.61010405  0.19979452  1
  Pd  Pd187  1  -0.00158039  -0.00110304  0.40219572  1
  Pd  Pd188  1  0.40709739  0.58770850  0.79570724  1
  Pd  Pd189  1  0.00735590  0.39771068  0.19907908  1
  Pd  Pd190  1  0.79637594  0.00454243  0.79773175  1
  Pd  Pd191  1  0.00951874  0.60808942  0.80606834  1
  Pd  Pd192  1  0.20120391  0.00590315  0.40562736  1
  Pd  Pd193  1  0.19599181  0.19102718  0.80655317  1
  Pd  Pd194  1  0.38782905  0.59381371  0.40918785  1
  Pd  Pd195  1  0.80691244  0.60044990  0.59415503  1
  Pd  Pd196  1  0.19443663  -0.00878283  0.19973938  1
  Pd  Pd197  1  0.20717630  0.41426731  0.38760789  1
  Pd  Pd198  1  0.19180167  0.81035810  0.20072881  1
  Pd  Pd199  1  0.80445286  0.19821493  0.20326944  1
  Rh  Rh200  1  0.20632592  0.00457033  0.80490723  1
  Rh  Rh201  1  0.00328778  -0.00306989  0.78951177  1
  Rh  Rh202  1  0.79268579  0.00329830  0.59225985  1
  Rh  Rh203  1  0.60483778  0.60306622  0.39860970  1
  Rh  Rh204  1  0.59187314  -0.00381426  0.20379948  1
  Rh  Rh205  1  0.59997665  0.80479507  0.39165670  1
  Rh  Rh206  1  0.39958903  -0.00228751  0.79800769  1
  Rh  Rh207  1  0.18467136  0.20555633  0.18692775  1
  Rh  Rh208  1  0.60109368  0.39863224  0.39539485  1
  Rh  Rh209  1  0.60120691  -0.00465848  0.79436627  1
  Rh  Rh210  1  -0.01052509  0.80126937  0.60688900  1
  Rh  Rh211  1  0.19189788  0.40262077  0.60348516  1
  Rh  Rh212  1  0.18779474  0.59163060  0.20915392  1
  Rh  Rh213  1  0.79432743  0.39838358  0.80059344  1
  Rh  Rh214  1  0.20739516  0.79850795  0.59636899  1
  Rh  Rh215  1  0.59844878  0.80398660  -0.00343760  1
  Rh  Rh216  1  0.60158308  0.00352167  -0.00317893  1
  Rh  Rh217  1  0.79733745  -0.00478323  0.40429368  1
  Rh  Rh218  1  0.38896892  0.40795977  0.19876186  1
  Rh  Rh219  1  -0.00048761  0.60204938  -0.00155891  1
  Rh  Rh220  1  -0.00975898  0.41598946  0.00585546  1
  Rh  Rh221  1  0.00774259  0.19464796  -0.00023596  1
  Rh  Rh222  1  0.20257413  0.60309425  0.00130938  1
  Rh  Rh223  1  0.80362766  -0.00096786  0.19863064  1
  Rh  Rh224  1  -0.00709515  0.59332908  0.59708391  1
  Rh  Rh225  1  0.19875130  0.79560827  -0.00151740  1
  Rh  Rh226  1  -0.00339313  -0.01129642  -0.00034578  1
  Rh  Rh227  1  0.80238101  0.19602654  0.39469527  1
  Rh  Rh228  1  0.59836417  0.39773700  -0.00029009  1
  Rh  Rh229  1  0.00066475  0.00659290  0.59834735  1
  Rh  Rh230  1  0.59801729  0.59292815  -0.00614347  1
  Rh  Rh231  1  0.00315061  0.60295760  0.20912255  1
  Rh  Rh232  1  -0.00311699  0.79822460  0.39419759  1
  Rh  Rh233  1  0.59917966  0.19419378  0.79262726  1
  Rh  Rh234  1  0.79133968  0.60586278  0.80238459  1
  Rh  Rh235  1  -0.00352308  0.39729402  0.40743787  1
  Rh  Rh236  1  0.40172969  -0.00513477  0.60188300  1
  Rh  Rh237  1  0.20601800  0.60648160  0.59097742  1
  Rh  Rh238  1  0.79778740  0.59967899  0.19771589  1
  Rh  Rh239  1  0.60011263  0.41065487  0.79198108  1
  Rh  Rh240  1  0.59299675  0.59709788  0.60436527  1
  Rh  Rh241  1  0.59543773  0.80549999  0.60782107  1
  Rh  Rh242  1  0.79685051  0.60747200  0.40692122  1
  Rh  Rh243  1  0.61007114  0.39992489  0.60350512  1
  Rh  Rh244  1  0.40645385  0.60651456  0.19240617  1
  Rh  Rh245  1  0.79828894  0.20272827  0.60449846  1
  Rh  Rh246  1  0.40059928  0.80377602  0.00057008  1
  Rh  Rh247  1  0.39327882  0.00783951  0.40435913  1
  Rh  Rh248  1  0.20224068  0.40909578  0.79688120  1
  Rh  Rh249  1  0.39857002  0.20667865  -0.00889351  1
