# generated using pymatgen
data_ZrScNbPdRh
_symmetry_space_group_name_H-M   'P 1'
_cell_length_a   16.56332274
_cell_length_b   16.56034412
_cell_length_c   16.55863951
_cell_angle_alpha   89.98698405
_cell_angle_beta   89.99852845
_cell_angle_gamma   90.00324864
_symmetry_Int_Tables_number   1
_chemical_formula_structural   ZrScNbPdRh
_chemical_formula_sum   'Zr50 Sc50 Nb50 Pd50 Rh50'
_cell_volume   4541.94071146
_cell_formula_units_Z   50
loop_
 _symmetry_equiv_pos_site_id
 _symmetry_equiv_pos_as_xyz
  1  'x, y, z'
loop_
 _atom_site_type_symbol
 _atom_site_label
 _atom_site_symmetry_multiplicity
 _atom_site_fract_x
 _atom_site_fract_y
 _atom_site_fract_z
 _atom_site_occupancy
  Zr  Zr0  1  0.29972029  0.29794838  0.50426073  1
  Zr  Zr1  1  0.90308899  0.29999626  0.89761305  1
  Zr  Zr2  1  0.30088991  0.70081983  0.30318725  1
  Zr  Zr3  1  0.09694255  0.49570773  0.48771998  1
  Zr  Zr4  1  0.29670719  0.90768516  0.29833244  1
  Zr  Zr5  1  0.90344109  0.30373350  0.49940089  1
  Zr  Zr6  1  0.50558378  0.49656233  0.09966794  1
  Zr  Zr7  1  0.29321374  0.49905262  0.11181589  1
  Zr  Zr8  1  0.10889474  0.10717752  0.90111578  1
  Zr  Zr9  1  0.90150807  0.70580345  0.70176652  1
  Zr  Zr10  1  0.09254178  0.89522184  0.70101378  1
  Zr  Zr11  1  0.49115691  0.09489590  0.68856766  1
  Zr  Zr12  1  0.29681787  0.70061901  0.70552425  1
  Zr  Zr13  1  0.50198153  0.69309298  0.69515885  1
  Zr  Zr14  1  0.10224932  0.89829816  0.30207194  1
  Zr  Zr15  1  0.48918729  0.89993196  0.30603318  1
  Zr  Zr16  1  0.29170702  0.28683438  0.90534932  1
  Zr  Zr17  1  0.09812201  0.29956982  0.49863080  1
  Zr  Zr18  1  0.29483719  0.09754532  0.09996300  1
  Zr  Zr19  1  0.89615745  0.10025718  0.29483065  1
  Zr  Zr20  1  0.50021509  0.30728334  0.90567682  1
  Zr  Zr21  1  0.69035025  0.90629275  0.89815566  1
  Zr  Zr22  1  0.50086297  0.10537391  0.10128560  1
  Zr  Zr23  1  0.89823662  0.69880292  0.30261367  1
  Zr  Zr24  1  0.49567865  0.90845349  0.50441471  1
  Zr  Zr25  1  0.30012527  0.89978134  0.70356789  1
  Zr  Zr26  1  0.10023901  0.49564696  0.89284361  1
  Zr  Zr27  1  0.10136102  0.29018065  0.69704078  1
  Zr  Zr28  1  0.89372849  0.50214128  0.50511082  1
  Zr  Zr29  1  0.90362540  0.90147220  0.30462151  1
  Zr  Zr30  1  0.29872064  0.90099984  0.09966310  1
  Zr  Zr31  1  0.90553457  0.09727951  0.69676194  1
  Zr  Zr32  1  0.70468514  0.89741680  0.10215614  1
  Zr  Zr33  1  0.70516799  0.70505420  0.90413751  1
  Zr  Zr34  1  0.51162958  0.49975852  0.30157265  1
  Zr  Zr35  1  0.69886680  0.69258116  0.70196857  1
  Zr  Zr36  1  0.09158192  0.30806713  0.30159088  1
  Zr  Zr37  1  0.29777609  0.69516700  0.49671679  1
  Zr  Zr38  1  0.30013745  0.30142737  0.10355697  1
  Zr  Zr39  1  0.29760172  0.09903438  0.69941402  1
  Zr  Zr40  1  0.68927802  0.29442974  0.89243601  1
  Zr  Zr41  1  0.09714216  0.29660260  0.89735816  1
  Zr  Zr42  1  0.09741849  0.29801847  0.10433512  1
  Zr  Zr43  1  0.51568181  0.10663158  0.90165986  1
  Zr  Zr44  1  0.09496171  0.69595378  0.30586382  1
  Zr  Zr45  1  0.51033799  0.30476601  0.70982241  1
  Zr  Zr46  1  0.89753568  0.49744828  0.90057678  1
  Zr  Zr47  1  0.90472323  0.90125866  0.69815913  1
  Zr  Zr48  1  0.30373793  0.50247666  0.69944381  1
  Zr  Zr49  1  0.30199234  0.89598756  0.89438588  1
  Sc  Sc50  1  0.71129134  0.10571651  0.30043728  1
  Sc  Sc51  1  0.90274587  0.89299625  0.90040726  1
  Sc  Sc52  1  0.69472945  0.29776623  0.30094378  1
  Sc  Sc53  1  0.50749873  0.70832854  0.90339176  1
  Sc  Sc54  1  0.89881036  0.29542522  0.10348006  1
  Sc  Sc55  1  0.69865786  0.10543168  0.10419104  1
  Sc  Sc56  1  0.09749248  0.89809110  0.90283046  1
  Sc  Sc57  1  0.49176837  0.90302879  0.70177800  1
  Sc  Sc58  1  0.89557108  0.71227514  0.09484253  1
  Sc  Sc59  1  0.71884108  0.90700735  0.30367328  1
  Sc  Sc60  1  0.09136701  0.09089892  0.29822934  1
  Sc  Sc61  1  0.90134541  0.10931616  0.49455246  1
  Sc  Sc62  1  0.50242794  0.69419256  0.30241995  1
  Sc  Sc63  1  0.69798203  0.50241518  0.91448028  1
  Sc  Sc64  1  0.30183751  0.50164136  0.29780534  1
  Sc  Sc65  1  0.51001812  0.50583876  0.49561120  1
  Sc  Sc66  1  0.09155804  0.69701193  0.10845227  1
  Sc  Sc67  1  0.50319449  0.30092473  0.10549552  1
  Sc  Sc68  1  0.70814846  0.10484893  0.49468784  1
  Sc  Sc69  1  0.31171368  0.31040751  0.30093608  1
  Sc  Sc70  1  0.90115051  0.70178171  0.90050860  1
  Sc  Sc71  1  0.88799430  0.49175346  0.10430724  1
  Sc  Sc72  1  0.50120787  0.89367728  0.10204895  1
  Sc  Sc73  1  0.69737485  0.50184109  0.10647610  1
  Sc  Sc74  1  0.09113081  0.10271817  0.50023235  1
  Sc  Sc75  1  0.69877570  0.30735006  0.09934300  1
  Sc  Sc76  1  0.90100400  0.90174845  0.09930765  1
  Sc  Sc77  1  0.90294716  0.30214901  0.69462472  1
  Sc  Sc78  1  0.10402293  0.49773099  0.70525534  1
  Sc  Sc79  1  0.08740002  0.89755365  0.49235323  1
  Sc  Sc80  1  0.70005218  0.90198114  0.70618334  1
  Sc  Sc81  1  0.69843094  0.50456229  0.50675819  1
  Sc  Sc82  1  0.70117273  0.69323476  0.29671151  1
  Sc  Sc83  1  0.09531886  0.90514947  0.09490004  1
  Sc  Sc84  1  0.29992715  0.89718980  0.48556806  1
  Sc  Sc85  1  0.50160431  0.29773987  0.48792580  1
  Sc  Sc86  1  0.29706761  0.48584763  0.90034651  1
  Sc  Sc87  1  0.90592560  0.10295969  0.88804259  1
  Sc  Sc88  1  0.49530567  0.69634693  0.49486930  1
  Sc  Sc89  1  0.29841329  0.50163124  0.49743876  1
  Sc  Sc90  1  0.70037002  0.30311070  0.69450803  1
  Sc  Sc91  1  0.70777003  0.69333115  0.49913751  1
  Sc  Sc92  1  0.50662676  0.70096199  0.10894486  1
  Sc  Sc93  1  0.90448611  0.10261689  0.10466379  1
  Sc  Sc94  1  0.49244369  0.10959935  0.30369552  1
  Sc  Sc95  1  0.09583316  0.09640497  0.09729152  1
  Sc  Sc96  1  0.90154294  0.29510359  0.29554906  1
  Sc  Sc97  1  0.89520991  0.70530089  0.49899294  1
  Sc  Sc98  1  0.29750374  0.29046149  0.69310508  1
  Sc  Sc99  1  0.89843273  0.50163069  0.69837884  1
  Nb  Nb100  1  0.49485586  0.10019333  0.50447819  1
  Nb  Nb101  1  0.50872745  0.49774362  0.70346384  1
  Nb  Nb102  1  0.30889537  0.10634661  0.50540444  1
  Nb  Nb103  1  0.09049370  0.49967342  0.28616840  1
  Nb  Nb104  1  0.10243968  0.69994598  0.70402048  1
  Nb  Nb105  1  0.70530986  0.09755334  0.70546568  1
  Nb  Nb106  1  0.70346230  0.50225459  0.30617792  1
  Nb  Nb107  1  0.50418684  0.31019524  0.30008878  1
  Nb  Nb108  1  0.30093386  0.09506810  0.89995908  1
  Nb  Nb109  1  0.69229969  0.49931180  0.69638326  1
  Nb  Nb110  1  0.29335398  0.09439409  0.30100186  1
  Nb  Nb111  1  0.29878798  0.69603365  0.10091614  1
  Nb  Nb112  1  0.09849459  0.09495041  0.69459489  1
  Nb  Nb113  1  0.10435689  0.69879388  0.49778204  1
  Nb  Nb114  1  0.70274976  0.90099845  0.49777895  1
  Nb  Nb115  1  0.88770597  0.89929771  0.49861855  1
  Nb  Nb116  1  0.49690537  0.90769700  0.90214895  1
  Nb  Nb117  1  0.10561647  0.69465136  0.89359872  1
  Nb  Nb118  1  0.89740164  0.50103967  0.30287292  1
  Nb  Nb119  1  0.09963640  0.49787598  0.10831471  1
  Nb  Nb120  1  0.70332468  0.09984563  0.89342823  1
  Nb  Nb121  1  0.49543819  0.49567913  0.89919837  1
  Nb  Nb122  1  0.29832842  0.69596855  0.90022713  1
  Nb  Nb123  1  0.70718134  0.30146337  0.49684281  1
  Nb  Nb124  1  0.69861771  0.70363505  0.09645728  1
  Nb  Nb125  1  0.80155462  -0.00165048  0.59848277  1
  Nb  Nb126  1  0.39480519  0.60098846  -0.00213946  1
  Nb  Nb127  1  0.79349718  0.40360439  0.79894131  1
  Nb  Nb128  1  0.60184998  0.80323854  0.59383930  1
  Nb  Nb129  1  0.19823352  0.60027011  0.00249086  1
  Nb  Nb130  1  0.40908933  0.40255766  0.60396026  1
  Nb  Nb131  1  0.00934194  0.60851369  0.59938852  1
  Nb  Nb132  1  0.00338707  0.40446369  0.00283361  1
  Nb  Nb133  1  0.20481744  0.19644776  0.39573841  1
  Nb  Nb134  1  0.40493237  0.59429820  0.80734753  1
  Nb  Nb135  1  0.59934559  0.00142507  0.40189873  1
  Nb  Nb136  1  0.59966612  -0.00116657  0.21005893  1
  Nb  Nb137  1  0.00587978  0.59241388  0.00053778  1
  Nb  Nb138  1  0.79820537  0.40263495  0.40027086  1
  Nb  Nb139  1  0.79517584  0.00746641  -0.00842591  1
  Nb  Nb140  1  0.19648279  -0.00228497  0.59859468  1
  Nb  Nb141  1  0.20311660  0.78761846  0.00116317  1
  Nb  Nb142  1  0.20210283  0.79669050  0.19720722  1
  Nb  Nb143  1  0.20235933  0.19786621  0.20977790  1
  Nb  Nb144  1  0.60465781  0.80877893  0.40517458  1
  Nb  Nb145  1  0.40326939  0.00068405  -0.00659467  1
  Nb  Nb146  1  0.40169381  0.19619562  0.80421247  1
  Nb  Nb147  1  0.19425004  0.79795335  0.59871805  1
  Nb  Nb148  1  0.79585164  0.19579088  -0.00882712  1
  Nb  Nb149  1  0.60254128  0.19512213  0.59560808  1
  Pd  Pd150  1  0.59849665  0.80225055  0.00273402  1
  Pd  Pd151  1  0.40932962  0.79084017  0.80232379  1
  Pd  Pd152  1  0.19855426  0.59108732  0.39019097  1
  Pd  Pd153  1  0.19799734  0.00939105  0.41330131  1
  Pd  Pd154  1  0.40798517  0.00298120  0.19451489  1
  Pd  Pd155  1  0.20648226  0.39043182  0.79214486  1
  Pd  Pd156  1  0.19338578  0.40191151  0.00371601  1
  Pd  Pd157  1  0.39521859  0.20360125  0.20724340  1
  Pd  Pd158  1  -0.00584858  0.60051565  0.40737219  1
  Pd  Pd159  1  0.39478964  0.20041191  0.39435801  1
  Pd  Pd160  1  0.79108296  0.80283173  0.60422773  1
  Pd  Pd161  1  0.40063514  0.79817133  0.00035661  1
  Pd  Pd162  1  0.39649230  0.79519692  0.20214248  1
  Pd  Pd163  1  0.79542326  0.59179426  0.79861513  1
  Pd  Pd164  1  0.59359673  0.60389793  0.00113614  1
  Pd  Pd165  1  0.39689413  0.80177508  0.59448530  1
  Pd  Pd166  1  0.59673516  0.39227387  0.58832812  1
  Pd  Pd167  1  0.60120583  0.19404842  0.40253633  1
  Pd  Pd168  1  0.59280752  0.00193659  0.79157326  1
  Pd  Pd169  1  -0.01577641  0.59711671  0.19108883  1
  Pd  Pd170  1  -0.00783236  0.00286992  0.40464837  1
  Pd  Pd171  1  0.39684034  0.40365445  0.00825065  1
  Pd  Pd172  1  0.59238274  0.80399573  0.79133824  1
  Pd  Pd173  1  0.00258325  0.79505800  0.59021730  1
  Pd  Pd174  1  0.59849710  0.59611202  0.81240609  1
  Pd  Pd175  1  0.79921679  0.80619589  0.80222560  1
  Pd  Pd176  1  0.79847085  0.79739412  0.20447006  1
  Pd  Pd177  1  0.79639120  0.39365682  0.21116531  1
  Pd  Pd178  1  0.40461672  0.40816094  0.40807642  1
  Pd  Pd179  1  0.00458001  0.40923973  0.60688221  1
  Pd  Pd180  1  0.20275866  0.39869930  0.39169217  1
  Pd  Pd181  1  0.79747861  0.19532690  0.60299593  1
  Pd  Pd182  1  0.40226640  0.19537889  -0.00354895  1
  Pd  Pd183  1  0.61317569  0.00339038  0.59628482  1
  Pd  Pd184  1  0.40693640  0.59786872  0.19788701  1
  Pd  Pd185  1  -0.01111825  0.00620938  -0.00650782  1
  Pd  Pd186  1  0.60122355  0.00065084  0.01210279  1
  Pd  Pd187  1  0.80063784  0.60465407  0.19257294  1
  Pd  Pd188  1  0.00429668  0.80631039  0.19832733  1
  Pd  Pd189  1  0.60186292  0.19827011  0.20588453  1
  Pd  Pd190  1  0.60754866  0.80612352  0.21479392  1
  Pd  Pd191  1  0.80593824  0.60371362  0.00938036  1
  Pd  Pd192  1  0.40667850  0.59045931  0.59998727  1
  Pd  Pd193  1  0.39208297  0.39359203  0.79450247  1
  Pd  Pd194  1  0.00496568  -0.00004022  0.80803281  1
  Pd  Pd195  1  0.80201523  0.20932541  0.79569550  1
  Pd  Pd196  1  -0.00239877  0.60230252  0.79761898  1
  Pd  Pd197  1  0.19187733  -0.00271184  0.79808954  1
  Pd  Pd198  1  0.19339824  0.60028462  0.60100971  1
  Pd  Pd199  1  0.20369543  0.40407115  0.60099974  1
  Rh  Rh200  1  0.80555312  0.21243092  0.39613812  1
  Rh  Rh201  1  0.80587082  0.60209768  0.60822071  1
  Rh  Rh202  1  0.79740781  0.20370207  0.19149296  1
  Rh  Rh203  1  -0.00743023  0.39765773  0.79770190  1
  Rh  Rh204  1  0.00769464  0.19556477  0.20306434  1
  Rh  Rh205  1  0.19985200  0.39215459  0.20838260  1
  Rh  Rh206  1  0.40890127  0.40266500  0.19975870  1
  Rh  Rh207  1  0.79283848  0.40420452  0.60190800  1
  Rh  Rh208  1  0.79742950  0.00499369  0.18685720  1
  Rh  Rh209  1  0.61094652  0.40100121  0.39981594  1
  Rh  Rh210  1  0.60605791  0.60874401  0.40077613  1
  Rh  Rh211  1  -0.00894423  0.40432618  0.19529069  1
  Rh  Rh212  1  0.19728828  0.79860051  0.39806522  1
  Rh  Rh213  1  0.20628811  -0.00727622  -0.00417977  1
  Rh  Rh214  1  0.79583889  0.80911588  -0.00501323  1
  Rh  Rh215  1  -0.00623106  0.20427665  0.00072157  1
  Rh  Rh216  1  -0.01155307  0.40506531  0.39414865  1
  Rh  Rh217  1  0.19083274  -0.00118504  0.19669578  1
  Rh  Rh218  1  0.59583208  0.18694426  0.78269247  1
  Rh  Rh219  1  0.60100188  0.60711157  0.59639590  1
  Rh  Rh220  1  0.80215194  0.00690687  0.40765266  1
  Rh  Rh221  1  0.19435630  0.80209008  0.80146227  1
  Rh  Rh222  1  0.00333945  0.79517661  0.80827609  1
  Rh  Rh223  1  0.80516690  -0.00409235  0.79885341  1
  Rh  Rh224  1  0.00467245  0.19708508  0.79229577  1
  Rh  Rh225  1  0.00432139  0.20027233  0.39451531  1
  Rh  Rh226  1  0.38271700  -0.00942811  0.59201671  1
  Rh  Rh227  1  0.80073318  0.59489075  0.39975407  1
  Rh  Rh228  1  -0.00060869  0.20035846  0.60047131  1
  Rh  Rh229  1  0.19241664  0.18837641  0.58983814  1
  Rh  Rh230  1  0.20996317  0.59458367  0.80334037  1
  Rh  Rh231  1  0.01234718  0.78597610  -0.00541671  1
  Rh  Rh232  1  -0.00548035  -0.00124114  0.59131479  1
  Rh  Rh233  1  0.79640798  0.79471441  0.39457574  1
  Rh  Rh234  1  0.40495599  0.79314256  0.40049777  1
  Rh  Rh235  1  -0.00635915  0.79728861  0.40325165  1
  Rh  Rh236  1  0.60385447  0.40144289  0.20451326  1
  Rh  Rh237  1  0.40904104  0.01127417  0.80953753  1
  Rh  Rh238  1  0.20302199  0.19530503  0.79528748  1
  Rh  Rh239  1  0.41604190  0.21610943  0.60590128  1
  Rh  Rh240  1  0.19651804  0.19712165  0.01198671  1
  Rh  Rh241  1  0.60079753  0.39953988  0.00105543  1
  Rh  Rh242  1  -0.00255547  -0.00557168  0.19853852  1
  Rh  Rh243  1  0.19567451  0.60606910  0.20393984  1
  Rh  Rh244  1  0.60897527  0.20553930  0.00703075  1
  Rh  Rh245  1  0.40220701  0.01091098  0.40282749  1
  Rh  Rh246  1  0.80227940  0.38757873  -0.00954173  1
  Rh  Rh247  1  0.61127567  0.41426256  0.80938141  1
  Rh  Rh248  1  0.60697390  0.60027889  0.19992678  1
  Rh  Rh249  1  0.40002543  0.59505791  0.39741317  1
