# generated using pymatgen
data_ZrScNbPdRh
_symmetry_space_group_name_H-M   'P 1'
_cell_length_a   16.55535071
_cell_length_b   16.56112184
_cell_length_c   16.56180692
_cell_angle_alpha   89.96254387
_cell_angle_beta   90.00239762
_cell_angle_gamma   89.98134827
_symmetry_Int_Tables_number   1
_chemical_formula_structural   ZrScNbPdRh
_chemical_formula_sum   'Zr50 Sc50 Nb50 Pd50 Rh50'
_cell_volume   4540.83517971
_cell_formula_units_Z   50
loop_
 _symmetry_equiv_pos_site_id
 _symmetry_equiv_pos_as_xyz
  1  'x, y, z'
loop_
 _atom_site_type_symbol
 _atom_site_label
 _atom_site_symmetry_multiplicity
 _atom_site_fract_x
 _atom_site_fract_y
 _atom_site_fract_z
 _atom_site_occupancy
  Zr  Zr0  1  0.50450389  0.29952026  0.89584734  1
  Zr  Zr1  1  0.89639096  0.29085510  0.89722305  1
  Zr  Zr2  1  0.89618435  0.70400861  0.90065240  1
  Zr  Zr3  1  0.50189900  0.90342049  0.90116433  1
  Zr  Zr4  1  0.09870123  0.30857531  0.70050543  1
  Zr  Zr5  1  0.49404738  0.49735284  0.29928353  1
  Zr  Zr6  1  0.50367214  0.50149182  0.70572234  1
  Zr  Zr7  1  0.29588877  0.49890133  0.90155561  1
  Zr  Zr8  1  0.49473604  0.49797308  0.89363403  1
  Zr  Zr9  1  0.90169557  0.89830408  0.91070995  1
  Zr  Zr10  1  0.10525647  0.50228064  0.30276757  1
  Zr  Zr11  1  0.91442446  0.69941319  0.49458593  1
  Zr  Zr12  1  0.70567051  0.10942015  0.29880395  1
  Zr  Zr13  1  0.50563348  0.69906621  0.30088908  1
  Zr  Zr14  1  0.09702562  0.09639504  0.49860007  1
  Zr  Zr15  1  0.90417517  0.71350709  0.09875826  1
  Zr  Zr16  1  0.90346101  0.49347582  0.69898340  1
  Zr  Zr17  1  0.50442171  0.90067098  0.69756050  1
  Zr  Zr18  1  0.09958804  0.70487632  0.31765294  1
  Zr  Zr19  1  0.70145281  0.29244494  0.50255336  1
  Zr  Zr20  1  0.09467395  0.29501059  0.29124085  1
  Zr  Zr21  1  0.49898394  0.50074414  0.49680762  1
  Zr  Zr22  1  0.29290571  0.50397542  0.10000203  1
  Zr  Zr23  1  0.09798631  0.69749411  0.90551889  1
  Zr  Zr24  1  0.49124648  0.10444190  0.29605309  1
  Zr  Zr25  1  0.29359700  0.70972458  0.90553930  1
  Zr  Zr26  1  0.70071391  0.10662642  0.89005658  1
  Zr  Zr27  1  0.50613889  0.30524559  0.70068571  1
  Zr  Zr28  1  0.70610586  0.89698342  0.89473008  1
  Zr  Zr29  1  0.90946682  0.29610821  0.09668485  1
  Zr  Zr30  1  0.09590163  0.09659834  0.29927661  1
  Zr  Zr31  1  0.90477008  0.10095229  0.49933101  1
  Zr  Zr32  1  0.49579695  0.29745455  0.29307673  1
  Zr  Zr33  1  0.09377999  0.30522768  0.09768084  1
  Zr  Zr34  1  0.49874846  0.89679643  0.50088434  1
  Zr  Zr35  1  0.30022519  0.90009383  0.50874919  1
  Zr  Zr36  1  0.09837166  0.09591010  0.89652747  1
  Zr  Zr37  1  0.10106307  0.90181008  0.89756081  1
  Zr  Zr38  1  0.49288451  0.71218798  0.09969911  1
  Zr  Zr39  1  0.29618386  0.29308339  0.09381971  1
  Zr  Zr40  1  0.09420107  0.50457467  0.49991522  1
  Zr  Zr41  1  0.49957559  0.91160853  0.09581646  1
  Zr  Zr42  1  0.09324816  0.10327496  0.69782677  1
  Zr  Zr43  1  0.90393527  0.90063160  0.28558389  1
  Zr  Zr44  1  0.29503023  0.90821807  0.90144855  1
  Zr  Zr45  1  0.70402891  0.69638990  0.30051612  1
  Zr  Zr46  1  0.69211816  0.09802196  0.09915877  1
  Zr  Zr47  1  0.31398579  0.89828418  0.10164783  1
  Zr  Zr48  1  0.70088128  0.69123305  0.10452711  1
  Zr  Zr49  1  0.29945429  0.49862261  0.30050541  1
  Sc  Sc50  1  0.70568555  0.48572222  0.69917988  1
  Sc  Sc51  1  0.29355863  0.49442202  0.71445690  1
  Sc  Sc52  1  0.90312452  0.28355957  0.29431284  1
  Sc  Sc53  1  0.90358988  0.09991817  0.29896557  1
  Sc  Sc54  1  0.29252558  0.29848596  0.49567430  1
  Sc  Sc55  1  0.10442924  0.10618192  0.09782653  1
  Sc  Sc56  1  0.89955549  0.30564853  0.70199276  1
  Sc  Sc57  1  0.70206951  0.90522302  0.70135836  1
  Sc  Sc58  1  0.90710840  0.89632626  0.50877728  1
  Sc  Sc59  1  0.51039541  0.69352361  0.88978996  1
  Sc  Sc60  1  0.69118653  0.50665470  0.89554863  1
  Sc  Sc61  1  0.50444625  0.70168653  0.70314990  1
  Sc  Sc62  1  0.29452342  0.10694288  0.29815791  1
  Sc  Sc63  1  0.89662326  0.90546695  0.70342784  1
  Sc  Sc64  1  0.49783586  0.29320088  0.10137554  1
  Sc  Sc65  1  0.69773149  0.50998638  0.28906318  1
  Sc  Sc66  1  0.89848590  0.50867813  0.30027974  1
  Sc  Sc67  1  0.29346377  0.08663133  0.69564157  1
  Sc  Sc68  1  0.29368854  0.70413083  0.10273208  1
  Sc  Sc69  1  0.09598037  0.90087769  0.10472759  1
  Sc  Sc70  1  0.29471043  0.10512757  0.49974622  1
  Sc  Sc71  1  0.50385579  0.29636877  0.50016543  1
  Sc  Sc72  1  0.90312437  0.69946095  0.70386700  1
  Sc  Sc73  1  0.89979489  0.49772497  0.50476955  1
  Sc  Sc74  1  0.28856251  0.30720346  0.70225891  1
  Sc  Sc75  1  0.70930157  0.90767485  0.09628743  1
  Sc  Sc76  1  0.29389546  0.70618252  0.70453134  1
  Sc  Sc77  1  0.90082684  0.50389979  0.88741199  1
  Sc  Sc78  1  0.10638635  0.90285927  0.69852648  1
  Sc  Sc79  1  0.69848377  0.89534577  0.51516345  1
  Sc  Sc80  1  0.90798759  0.49643642  0.10348127  1
  Sc  Sc81  1  0.50809272  0.49179630  0.09970430  1
  Sc  Sc82  1  0.50332501  0.70631961  0.49482839  1
  Sc  Sc83  1  0.69789561  0.90001529  0.29234967  1
  Sc  Sc84  1  0.50659529  0.09519446  0.90374630  1
  Sc  Sc85  1  0.70268517  0.29645211  0.70529362  1
  Sc  Sc86  1  0.49730519  0.89354278  0.28984930  1
  Sc  Sc87  1  0.10196793  0.29607395  0.50636867  1
  Sc  Sc88  1  0.69840224  0.71499976  0.70954899  1
  Sc  Sc89  1  0.90397289  0.09966711  0.89477147  1
  Sc  Sc90  1  0.09284833  0.29472290  0.90925464  1
  Sc  Sc91  1  0.29413811  0.70845339  0.49702192  1
  Sc  Sc92  1  0.51135025  0.09552010  0.70785969  1
  Sc  Sc93  1  0.29663284  0.69705197  0.29645837  1
  Sc  Sc94  1  0.49889703  0.10878406  0.49960732  1
  Sc  Sc95  1  0.29110757  0.49713258  0.48660257  1
  Sc  Sc96  1  0.10540363  0.90440523  0.30184858  1
  Sc  Sc97  1  0.70358078  0.49177725  0.50242663  1
  Sc  Sc98  1  0.68825318  0.29497518  0.10166899  1
  Sc  Sc99  1  0.29743838  0.30861176  0.90442388  1
  Nb  Nb100  1  0.89983835  0.90497694  0.09806454  1
  Nb  Nb101  1  0.89649085  0.08651704  0.10442269  1
  Nb  Nb102  1  0.09711230  0.70803024  0.50614256  1
  Nb  Nb103  1  0.29931710  0.90209416  0.29912211  1
  Nb  Nb104  1  0.09685196  0.70140946  0.70256045  1
  Nb  Nb105  1  0.48950228  0.09451792  0.10323501  1
  Nb  Nb106  1  0.89878746  0.29927582  0.49589117  1
  Nb  Nb107  1  0.70628025  0.29363548  0.90214291  1
  Nb  Nb108  1  0.70386968  0.09684645  0.49836528  1
  Nb  Nb109  1  0.70539902  0.49654821  0.09843357  1
  Nb  Nb110  1  0.10446790  0.50240065  0.90286848  1
  Nb  Nb111  1  0.10110574  0.68994234  0.09994616  1
  Nb  Nb112  1  0.10074567  0.50177590  0.09960039  1
  Nb  Nb113  1  0.70343377  0.69992817  0.50184949  1
  Nb  Nb114  1  0.29894101  0.30425495  0.29924770  1
  Nb  Nb115  1  0.89900832  0.09729189  0.70118093  1
  Nb  Nb116  1  0.09655414  0.50201788  0.70766294  1
  Nb  Nb117  1  0.69880968  0.29724611  0.29682356  1
  Nb  Nb118  1  0.70338919  0.70428995  0.90164187  1
  Nb  Nb119  1  0.71245798  0.09483158  0.69701531  1
  Nb  Nb120  1  0.29262809  0.10369071  0.90334598  1
  Nb  Nb121  1  0.30526574  0.90121154  0.70409671  1
  Nb  Nb122  1  0.30873972  0.10015733  0.09249483  1
  Nb  Nb123  1  0.89806031  0.69948035  0.29835033  1
  Nb  Nb124  1  0.09846551  0.88083550  0.49532122  1
  Nb  Nb125  1  0.60454882  0.60172424  0.59916532  1
  Nb  Nb126  1  0.79536899  0.60601407  0.59978837  1
  Nb  Nb127  1  0.39304733  0.19743789  0.79885622  1
  Nb  Nb128  1  0.80360865  0.19256635  0.59846356  1
  Nb  Nb129  1  0.00521747  0.79927395  0.80348920  1
  Nb  Nb130  1  0.60052744  0.00244821  0.40083447  1
  Nb  Nb131  1  0.40050081  0.60065645  -0.00256033  1
  Nb  Nb132  1  0.39916502  0.40289777  0.60116682  1
  Nb  Nb133  1  0.39712112  0.80933836  0.80020346  1
  Nb  Nb134  1  0.80309917  0.79826909  0.39895641  1
  Nb  Nb135  1  0.79542220  0.40054859  0.00062477  1
  Nb  Nb136  1  0.19289357  0.60243856  0.60418918  1
  Nb  Nb137  1  0.79921864  0.39099836  0.39077277  1
  Nb  Nb138  1  0.79763056  0.59787661  0.00159654  1
  Nb  Nb139  1  -0.00547553  0.39430953  0.39905233  1
  Nb  Nb140  1  0.40016369  -0.00328097  0.39869692  1
  Nb  Nb141  1  0.60553172  0.39520971  0.39128287  1
  Nb  Nb142  1  0.79652595  -0.00433631  0.40350156  1
  Nb  Nb143  1  0.19880021  0.39898662  0.19898390  1
  Nb  Nb144  1  0.20102699  0.19593011  0.80271217  1
  Nb  Nb145  1  0.39556359  0.59528861  0.60151646  1
  Nb  Nb146  1  0.39747110  0.20556305  0.61127690  1
  Nb  Nb147  1  0.60560122  0.79875252  -0.00263977  1
  Nb  Nb148  1  0.00533452  0.60771558  0.20034182  1
  Nb  Nb149  1  0.79827835  0.39618124  0.19873947  1
  Pd  Pd150  1  0.40202942  0.78908140  0.60824032  1
  Pd  Pd151  1  0.79698458  0.00994753  -0.00806719  1
  Pd  Pd152  1  0.80738756  0.79402966  0.59962521  1
  Pd  Pd153  1  0.59743141  0.60346625  0.00209189  1
  Pd  Pd154  1  0.20253289  0.20061766  0.19643693  1
  Pd  Pd155  1  0.61099183  0.39750117  0.80633027  1
  Pd  Pd156  1  0.39469625  0.80278887  0.39274806  1
  Pd  Pd157  1  0.19208145  -0.00447113  0.59393487  1
  Pd  Pd158  1  0.59981395  0.00393745  0.20673856  1
  Pd  Pd159  1  0.00504290  -0.00900637  0.60112078  1
  Pd  Pd160  1  0.40383303  0.60229986  0.19215353  1
  Pd  Pd161  1  0.40533370  0.01098826  0.59478226  1
  Pd  Pd162  1  0.40658291  0.19675325  -0.00943298  1
  Pd  Pd163  1  0.39888158  0.00491765  0.80438063  1
  Pd  Pd164  1  0.59824340  0.00585744  0.59538844  1
  Pd  Pd165  1  0.19268284  0.80643933  0.01287118  1
  Pd  Pd166  1  0.58933633  0.59672807  0.19449585  1
  Pd  Pd167  1  0.60604319  0.80456764  0.18919459  1
  Pd  Pd168  1  0.19484039  0.20288346  0.39866122  1
  Pd  Pd169  1  -0.00834726  0.59414118  0.00231174  1
  Pd  Pd170  1  0.20562098  -0.00501169  0.40541221  1
  Pd  Pd171  1  0.40471640  0.38901951  0.40744923  1
  Pd  Pd172  1  0.39317915  0.60924856  0.40633510  1
  Pd  Pd173  1  0.00358489  0.00448571  0.00595285  1
  Pd  Pd174  1  0.19642084  0.80057471  0.20078895  1
  Pd  Pd175  1  0.79499415  0.80337246  0.19897113  1
  Pd  Pd176  1  0.20349419  0.41247104  0.59794622  1
  Pd  Pd177  1  0.01221118  0.79626767  0.20279349  1
  Pd  Pd178  1  0.60338426  0.19204737  0.60872529  1
  Pd  Pd179  1  0.19816772  0.60294077  0.79831809  1
  Pd  Pd180  1  0.60755831  0.59205004  0.40554205  1
  Pd  Pd181  1  -0.00171151  0.60022148  0.60727472  1
  Pd  Pd182  1  -0.00707688  0.20827782  0.60389410  1
  Pd  Pd183  1  -0.00614384  -0.00957736  0.40002311  1
  Pd  Pd184  1  0.61140305  0.80983777  0.40105500  1
  Pd  Pd185  1  0.20621760  0.00388890  0.19236871  1
  Pd  Pd186  1  -0.00772770  0.41047291  -0.01060926  1
  Pd  Pd187  1  0.80071465  0.59615679  0.40810146  1
  Pd  Pd188  1  0.60573240  0.39634954  -0.00507880  1
  Pd  Pd189  1  0.59275336  0.19571328  0.00230596  1
  Pd  Pd190  1  0.80257927  0.20267792  0.18824035  1
  Pd  Pd191  1  0.39240663  0.61223043  0.79963931  1
  Pd  Pd192  1  0.19938579  0.79893514  0.60745209  1
  Pd  Pd193  1  0.39269848  0.39702662  0.19046475  1
  Pd  Pd194  1  0.59786896  0.19916372  0.39626115  1
  Pd  Pd195  1  0.79322125  0.59931157  0.79478298  1
  Pd  Pd196  1  0.80244448  0.19745373  0.00815444  1
  Pd  Pd197  1  0.00403903  0.39762345  0.81030956  1
  Pd  Pd198  1  0.19954471  -0.00188884  0.01176175  1
  Pd  Pd199  1  0.40302767  0.40446581  0.00521112  1
  Rh  Rh200  1  -0.00859722  0.80876638  0.39281968  1
  Rh  Rh201  1  0.38979098  0.00488657  0.20821684  1
  Rh  Rh202  1  0.39149164  0.19960660  0.19689335  1
  Rh  Rh203  1  -0.00281387  0.18516581  0.19076520  1
  Rh  Rh204  1  0.19275813  0.40131176  0.00315983  1
  Rh  Rh205  1  0.80384899  0.00415438  0.59338652  1
  Rh  Rh206  1  0.80235116  0.19731573  0.40555061  1
  Rh  Rh207  1  0.00555800  0.60420168  0.80077848  1
  Rh  Rh208  1  0.20452487  0.60010268  -0.00186578  1
  Rh  Rh209  1  0.60586010  -0.00185422  -0.00226735  1
  Rh  Rh210  1  0.20033291  0.61000661  0.41145397  1
  Rh  Rh211  1  0.00362965  0.20233926  0.79513909  1
  Rh  Rh212  1  0.00404498  0.00236545  0.19586350  1
  Rh  Rh213  1  0.19717167  0.20015546  -0.00517595  1
  Rh  Rh214  1  0.20639145  0.80471492  0.39842812  1
  Rh  Rh215  1  0.80477488  -0.00013338  0.80510597  1
  Rh  Rh216  1  0.39709574  0.38852051  0.79588990  1
  Rh  Rh217  1  0.79173428  0.79464173  0.00877885  1
  Rh  Rh218  1  -0.00316712  -0.00810534  0.79770134  1
  Rh  Rh219  1  0.59514682  0.80688278  0.80531688  1
  Rh  Rh220  1  0.59846008  0.79286774  0.60201835  1
  Rh  Rh221  1  0.61246160  0.60005695  0.78739393  1
  Rh  Rh222  1  0.60596671  0.40146557  0.20624703  1
  Rh  Rh223  1  0.59390490  0.40742986  0.59095382  1
  Rh  Rh224  1  -0.00028184  0.59443756  0.39477430  1
  Rh  Rh225  1  0.79724416  0.39657893  0.81264721  1
  Rh  Rh226  1  -0.00526084  0.18790384  0.00281826  1
  Rh  Rh227  1  0.19904035  0.80528501  0.79611559  1
  Rh  Rh228  1  0.00130806  0.80398479  0.61384829  1
  Rh  Rh229  1  0.39491998  0.79662017  0.20878499  1
  Rh  Rh230  1  0.81039461  0.80446431  0.79890395  1
  Rh  Rh231  1  0.41301103  0.79132138  -0.01623351  1
  Rh  Rh232  1  0.81443666  0.59526776  0.18836305  1
  Rh  Rh233  1  0.18646052  0.39275639  0.81438996  1
  Rh  Rh234  1  0.00888522  0.80372068  -0.00021284  1
  Rh  Rh235  1  0.59317401  0.19390010  0.19637148  1
  Rh  Rh236  1  0.61076231  -0.00031996  0.79881889  1
  Rh  Rh237  1  0.80367012  0.19924635  0.78887899  1
  Rh  Rh238  1  0.39754161  0.00819104  -0.00679914  1
  Rh  Rh239  1  0.79855850  0.00227055  0.20608018  1
  Rh  Rh240  1  0.00013895  0.39875506  0.59368437  1
  Rh  Rh241  1  0.20534473  0.19659165  0.61018670  1
  Rh  Rh242  1  0.19915630  0.00513717  0.79683360  1
  Rh  Rh243  1  0.18756285  0.38773651  0.39093065  1
  Rh  Rh244  1  0.00809352  0.20391218  0.40224010  1
  Rh  Rh245  1  0.19336666  0.59817132  0.20156308  1
  Rh  Rh246  1  0.60149363  0.19905345  0.79672374  1
  Rh  Rh247  1  0.39235241  0.19989300  0.40488450  1
  Rh  Rh248  1  0.00072642  0.41237221  0.21182954  1
  Rh  Rh249  1  0.80467241  0.39426322  0.59372619  1
