# generated using pymatgen
data_ZrScNbPdRh
_symmetry_space_group_name_H-M   'P 1'
_cell_length_a   16.55828843
_cell_length_b   16.55869442
_cell_length_c   16.55900813
_cell_angle_alpha   90.00244842
_cell_angle_beta   89.99567473
_cell_angle_gamma   90.01397099
_symmetry_Int_Tables_number   1
_chemical_formula_structural   ZrScNbPdRh
_chemical_formula_sum   'Zr50 Sc50 Nb50 Pd50 Rh50'
_cell_volume   4540.20894468
_cell_formula_units_Z   50
loop_
 _symmetry_equiv_pos_site_id
 _symmetry_equiv_pos_as_xyz
  1  'x, y, z'
loop_
 _atom_site_type_symbol
 _atom_site_label
 _atom_site_symmetry_multiplicity
 _atom_site_fract_x
 _atom_site_fract_y
 _atom_site_fract_z
 _atom_site_occupancy
  Zr  Zr0  1  0.29605557  0.10674837  0.09773066  1
  Zr  Zr1  1  0.49821489  0.69864973  0.09658769  1
  Zr  Zr2  1  0.10263223  0.30056249  0.69876155  1
  Zr  Zr3  1  0.90615556  0.30553057  0.70495659  1
  Zr  Zr4  1  0.90744018  0.68681098  0.69770924  1
  Zr  Zr5  1  0.69642324  0.29589571  0.49173727  1
  Zr  Zr6  1  0.49512179  0.29720072  0.09812944  1
  Zr  Zr7  1  0.30464315  0.69446821  0.90097937  1
  Zr  Zr8  1  0.90548816  0.89399282  0.90090460  1
  Zr  Zr9  1  0.10069375  0.10308489  0.70950870  1
  Zr  Zr10  1  0.30089284  0.49840876  0.29880379  1
  Zr  Zr11  1  0.29682388  0.89471080  0.29915085  1
  Zr  Zr12  1  0.70325756  0.09688429  0.30151162  1
  Zr  Zr13  1  0.49679924  0.09818340  0.10029998  1
  Zr  Zr14  1  0.09201741  0.69053479  0.09557709  1
  Zr  Zr15  1  0.70123452  0.09958008  0.49735323  1
  Zr  Zr16  1  0.28937556  0.89918360  0.50077077  1
  Zr  Zr17  1  0.89885521  0.90780676  0.70458777  1
  Zr  Zr18  1  0.09807091  0.09747395  0.49367230  1
  Zr  Zr19  1  0.29216685  0.30101867  0.70272331  1
  Zr  Zr20  1  0.49940426  0.49796976  0.70868461  1
  Zr  Zr21  1  0.70097185  0.50607284  0.90769660  1
  Zr  Zr22  1  0.90206864  0.50466005  0.30126048  1
  Zr  Zr23  1  0.69601204  0.49614975  0.28395763  1
  Zr  Zr24  1  0.70293252  0.70843976  0.29890834  1
  Zr  Zr25  1  0.49771387  0.09389829  0.69870226  1
  Zr  Zr26  1  0.29944434  0.70559899  0.69685295  1
  Zr  Zr27  1  0.29829472  0.10364266  0.30252626  1
  Zr  Zr28  1  0.49579826  0.90093242  0.10179153  1
  Zr  Zr29  1  0.70196354  0.70400276  0.90044134  1
  Zr  Zr30  1  0.89940514  0.50085998  0.50491854  1
  Zr  Zr31  1  0.09233796  0.28954443  0.89571463  1
  Zr  Zr32  1  0.90062521  0.69610180  0.50040821  1
  Zr  Zr33  1  0.28910741  0.49249973  0.09400426  1
  Zr  Zr34  1  0.30542555  0.29935065  0.50067054  1
  Zr  Zr35  1  0.50147754  0.31274717  0.49136736  1
  Zr  Zr36  1  0.50996702  0.90123946  0.29357426  1
  Zr  Zr37  1  0.49730310  0.10086217  0.29643671  1
  Zr  Zr38  1  0.90178319  0.08882159  0.49716344  1
  Zr  Zr39  1  0.29916986  0.89956783  0.10161670  1
  Zr  Zr40  1  0.49860493  0.50055164  0.31132129  1
  Zr  Zr41  1  0.30336598  0.09679140  0.50943640  1
  Zr  Zr42  1  0.69858002  0.09315068  0.89706878  1
  Zr  Zr43  1  0.30369977  0.70153243  0.09714813  1
  Zr  Zr44  1  0.71425499  0.50248940  0.69739289  1
  Zr  Zr45  1  0.09981457  0.30015153  0.50437805  1
  Zr  Zr46  1  0.70223842  0.89768718  0.48923139  1
  Zr  Zr47  1  0.49828925  0.70016133  0.49762875  1
  Zr  Zr48  1  0.89686453  0.49429330  0.88807157  1
  Zr  Zr49  1  0.89890037  0.69467101  0.30022618  1
  Sc  Sc50  1  0.49282023  0.50075302  0.90332162  1
  Sc  Sc51  1  0.70909117  0.89658682  0.89049279  1
  Sc  Sc52  1  0.29531214  0.30581783  0.90413161  1
  Sc  Sc53  1  0.70858842  0.29921752  0.91217801  1
  Sc  Sc54  1  0.49905801  0.30590093  0.29861706  1
  Sc  Sc55  1  0.09821998  0.49810563  0.69445343  1
  Sc  Sc56  1  0.89066900  0.51092929  0.09849416  1
  Sc  Sc57  1  0.69782438  0.70668588  0.49501532  1
  Sc  Sc58  1  0.70260046  0.89548134  0.12241014  1
  Sc  Sc59  1  0.29645455  0.70409052  0.50993977  1
  Sc  Sc60  1  0.10994204  0.90173071  0.30278466  1
  Sc  Sc61  1  0.49438757  0.71719877  0.69732196  1
  Sc  Sc62  1  0.31060576  0.50324408  0.50594841  1
  Sc  Sc63  1  0.90325423  0.28965149  0.29336160  1
  Sc  Sc64  1  0.50302904  0.50705280  0.10612489  1
  Sc  Sc65  1  0.30107216  0.69989588  0.29955685  1
  Sc  Sc66  1  0.88414524  0.90232801  0.29583741  1
  Sc  Sc67  1  0.29918147  0.49785737  0.70008117  1
  Sc  Sc68  1  0.29913500  0.91039278  0.90009263  1
  Sc  Sc69  1  0.09991887  0.50354197  0.29465048  1
  Sc  Sc70  1  0.10233406  0.90042870  0.50020598  1
  Sc  Sc71  1  0.49474346  0.30965987  0.89919956  1
  Sc  Sc72  1  0.49911410  0.09852528  0.90760136  1
  Sc  Sc73  1  0.49876046  0.69116792  0.29809168  1
  Sc  Sc74  1  0.09634120  0.90341490  0.70548223  1
  Sc  Sc75  1  0.49249169  0.69345446  0.90075736  1
  Sc  Sc76  1  0.69888084  0.49602798  0.49933902  1
  Sc  Sc77  1  0.09624940  0.49481539  0.50614383  1
  Sc  Sc78  1  0.50158668  0.30729482  0.69826004  1
  Sc  Sc79  1  0.69924674  0.89898088  0.71058288  1
  Sc  Sc80  1  0.69616253  0.30767770  0.69287893  1
  Sc  Sc81  1  0.09575647  0.49868444  0.90939790  1
  Sc  Sc82  1  0.10189816  0.69658097  0.30230721  1
  Sc  Sc83  1  0.30768593  0.30177084  0.28950073  1
  Sc  Sc84  1  0.10536320  0.09859723  0.89921489  1
  Sc  Sc85  1  0.90998529  0.10554202  0.90196353  1
  Sc  Sc86  1  0.50231613  0.90218465  0.89261662  1
  Sc  Sc87  1  0.50708520  0.89135865  0.50679109  1
  Sc  Sc88  1  0.70040079  0.11681455  0.10482091  1
  Sc  Sc89  1  0.49821112  0.11418959  0.49965577  1
  Sc  Sc90  1  0.09647501  0.29763545  0.29553981  1
  Sc  Sc91  1  0.90444206  0.09869462  0.29329758  1
  Sc  Sc92  1  0.89768255  0.70258424  0.90443858  1
  Sc  Sc93  1  0.91052515  0.29458748  0.49516716  1
  Sc  Sc94  1  0.29349457  0.09904970  0.90224532  1
  Sc  Sc95  1  0.89729848  0.89753683  0.10825979  1
  Sc  Sc96  1  0.09336019  0.09866809  0.29244435  1
  Sc  Sc97  1  0.10535085  0.29758853  0.09188462  1
  Sc  Sc98  1  0.89743784  0.28747418  0.09300594  1
  Sc  Sc99  1  0.08300305  0.69801901  0.89742838  1
  Nb  Nb100  1  0.09853747  0.89750120  0.10191991  1
  Nb  Nb101  1  0.09771025  0.49725575  0.10475784  1
  Nb  Nb102  1  0.30922163  0.90939691  0.69676106  1
  Nb  Nb103  1  0.30647903  0.50326158  0.89665653  1
  Nb  Nb104  1  0.89666712  0.09622981  0.70118030  1
  Nb  Nb105  1  0.29924168  0.30225383  0.09810180  1
  Nb  Nb106  1  0.49896488  0.90421071  0.69605878  1
  Nb  Nb107  1  0.09796396  0.89747819  0.90161657  1
  Nb  Nb108  1  0.90443622  0.29738452  0.89715281  1
  Nb  Nb109  1  0.69917903  0.30961430  0.11223639  1
  Nb  Nb110  1  0.70354432  0.70413221  0.69775465  1
  Nb  Nb111  1  0.89611150  0.70405305  0.10111465  1
  Nb  Nb112  1  0.69682107  0.50400944  0.09844962  1
  Nb  Nb113  1  0.89990210  0.89741334  0.50083273  1
  Nb  Nb114  1  0.10650199  0.70428743  0.51276651  1
  Nb  Nb115  1  0.70369181  0.30170839  0.29168029  1
  Nb  Nb116  1  0.69758981  0.90232794  0.30375127  1
  Nb  Nb117  1  0.70309203  0.09516410  0.70488696  1
  Nb  Nb118  1  0.50020049  0.50601608  0.49694473  1
  Nb  Nb119  1  0.89839992  0.50143313  0.69385226  1
  Nb  Nb120  1  0.70217049  0.68436943  0.09445569  1
  Nb  Nb121  1  0.10664709  0.69593512  0.69462801  1
  Nb  Nb122  1  0.90596372  0.09403260  0.10628706  1
  Nb  Nb123  1  0.30115746  0.09567606  0.70300787  1
  Nb  Nb124  1  0.09246296  0.09865939  0.10047351  1
  Nb  Nb125  1  0.19872187  0.60461554  0.80039081  1
  Nb  Nb126  1  -0.00243973  0.79891233  0.40138211  1
  Nb  Nb127  1  0.60616543  0.40170330  0.01048758  1
  Nb  Nb128  1  0.59957366  0.60278788  0.60507974  1
  Nb  Nb129  1  0.20124268  0.20403557  0.40234651  1
  Nb  Nb130  1  0.19797287  0.79962750  0.80294139  1
  Nb  Nb131  1  0.39972068  -0.00542023  0.40175032  1
  Nb  Nb132  1  0.80177399  0.19242380  0.60559641  1
  Nb  Nb133  1  0.00265142  -0.00391946  0.00660906  1
  Nb  Nb134  1  0.80448452  0.80179477  0.60080980  1
  Nb  Nb135  1  0.60854536  -0.00786727  0.00624253  1
  Nb  Nb136  1  0.39884033  0.19746011  0.79546124  1
  Nb  Nb137  1  0.60197409  0.19851798  0.79896915  1
  Nb  Nb138  1  -0.00072623  0.79671098  0.20218762  1
  Nb  Nb139  1  0.60284334  0.00029147  0.60537403  1
  Nb  Nb140  1  0.79863628  0.39507076  0.39086677  1
  Nb  Nb141  1  0.19219402  0.80099249  -0.00424727  1
  Nb  Nb142  1  0.80279221  0.00218284  0.00638128  1
  Nb  Nb143  1  0.60369793  0.60349981  0.79272878  1
  Nb  Nb144  1  0.20075095  0.59753364  0.40798036  1
  Nb  Nb145  1  0.60424491  0.79996713  0.00341215  1
  Nb  Nb146  1  0.00102687  0.40437306  0.18998609  1
  Nb  Nb147  1  0.20246332  0.39972078  0.39940922  1
  Nb  Nb148  1  0.39922524  0.80458344  0.39946953  1
  Nb  Nb149  1  0.80059437  0.19875283  0.79570376  1
  Pd  Pd150  1  0.39442542  0.59490858  0.19513604  1
  Pd  Pd151  1  0.59687660  0.20232158  0.20524137  1
  Pd  Pd152  1  0.00174473  0.79486739  0.79163434  1
  Pd  Pd153  1  0.79114145  -0.00569975  0.59932721  1
  Pd  Pd154  1  0.20202439  0.60287841  0.20327468  1
  Pd  Pd155  1  0.80319642  0.19205359  -0.00279062  1
  Pd  Pd156  1  0.00702632  -0.00061352  0.60174270  1
  Pd  Pd157  1  0.80396138  0.40002866  0.00672202  1
  Pd  Pd158  1  0.19126454  -0.00148696  0.60759780  1
  Pd  Pd159  1  0.79206822  0.38959415  0.80218488  1
  Pd  Pd160  1  0.40111566  0.80918134  -0.01027188  1
  Pd  Pd161  1  0.19613309  0.20476164  0.20175157  1
  Pd  Pd162  1  0.19815918  0.19466240  0.59797794  1
  Pd  Pd163  1  0.40401480  0.20773933  0.60839659  1
  Pd  Pd164  1  0.79148738  0.80886173  0.01041990  1
  Pd  Pd165  1  0.19787003  0.00491605  0.19876032  1
  Pd  Pd166  1  0.59911996  0.78909599  0.19542646  1
  Pd  Pd167  1  0.19412918  0.41014324  0.80788230  1
  Pd  Pd168  1  -0.00145733  0.80443520  0.59954393  1
  Pd  Pd169  1  0.00075235  0.39798966  0.38941560  1
  Pd  Pd170  1  0.40127070  0.00636747  0.80855114  1
  Pd  Pd171  1  0.59585414  0.20411253  0.38849647  1
  Pd  Pd172  1  0.01395210  0.60538276  0.41118902  1
  Pd  Pd173  1  0.80830966  0.20137607  0.40031224  1
  Pd  Pd174  1  -0.00343305  -0.01254538  0.38803142  1
  Pd  Pd175  1  0.40801944  0.60239195  0.60768876  1
  Pd  Pd176  1  0.19300386  -0.00285842  0.00278189  1
  Pd  Pd177  1  0.58902866  0.00184792  0.40995555  1
  Pd  Pd178  1  0.39404741  0.80762485  0.80447864  1
  Pd  Pd179  1  -0.01034040  0.39855552  0.00569481  1
  Pd  Pd180  1  0.60069819  0.20569947  -0.00494568  1
  Pd  Pd181  1  0.19484415  0.39803817  -0.00754206  1
  Pd  Pd182  1  0.60483560  0.19571736  0.60810943  1
  Pd  Pd183  1  0.80661302  0.38561843  0.58788176  1
  Pd  Pd184  1  0.39188027  0.00118407  0.20454322  1
  Pd  Pd185  1  0.59784712  0.41119805  0.59632348  1
  Pd  Pd186  1  0.39338841  0.20253400  -0.00994111  1
  Pd  Pd187  1  0.40422625  0.40628337  0.19372632  1
  Pd  Pd188  1  0.59331862  0.79473375  0.80419849  1
  Pd  Pd189  1  0.40181056  0.40105381  0.60369616  1
  Pd  Pd190  1  -0.01166224  0.59306031  -0.00269543  1
  Pd  Pd191  1  0.19119997  0.78933487  0.19307322  1
  Pd  Pd192  1  0.80046623  0.60542111  0.80405125  1
  Pd  Pd193  1  0.78901296  0.59075069  0.40108542  1
  Pd  Pd194  1  0.19642110  0.60437956  -0.00823768  1
  Pd  Pd195  1  0.60963179  0.39939675  0.81235184  1
  Pd  Pd196  1  0.81448075  0.39810075  0.19709296  1
  Pd  Pd197  1  0.60857995  0.60027900  0.40316245  1
  Pd  Pd198  1  -0.00504638  0.19420755  0.60340987  1
  Pd  Pd199  1  0.00873008  0.40746422  0.79792854  1
  Rh  Rh200  1  -0.00576219  0.19566767  0.79619408  1
  Rh  Rh201  1  0.20410118  0.01204150  0.39868780  1
  Rh  Rh202  1  0.19707458  0.78611354  0.40378210  1
  Rh  Rh203  1  0.80442972  0.00011856  0.39576811  1
  Rh  Rh204  1  0.40325727  0.40502121  0.00519918  1
  Rh  Rh205  1  0.81356139  0.79178949  0.78791692  1
  Rh  Rh206  1  0.00298625  -0.01226782  0.19900297  1
  Rh  Rh207  1  0.00210973  0.20734872  0.19022033  1
  Rh  Rh208  1  0.59115556  0.79684992  0.39016947  1
  Rh  Rh209  1  0.79393971  0.00896746  0.19720065  1
  Rh  Rh210  1  0.39710971  0.58863985  0.00863541  1
  Rh  Rh211  1  0.20018777  0.81243241  0.61439234  1
  Rh  Rh212  1  0.81283309  0.00666027  0.81382479  1
  Rh  Rh213  1  0.79619302  0.60383349  0.19996961  1
  Rh  Rh214  1  0.39474174  0.80960023  0.59329375  1
  Rh  Rh215  1  0.00167737  0.80411164  0.01199216  1
  Rh  Rh216  1  0.80697452  0.60093025  -0.00474083  1
  Rh  Rh217  1  0.38974791  0.60931264  0.40572593  1
  Rh  Rh218  1  -0.00047764  0.00475535  0.80963435  1
  Rh  Rh219  1  0.19140437  0.39398575  0.20203726  1
  Rh  Rh220  1  0.59482684  0.60128018  -0.00768540  1
  Rh  Rh221  1  0.20495460  0.40464102  0.59231417  1
  Rh  Rh222  1  -0.00347084  0.59977660  0.19424619  1
  Rh  Rh223  1  0.39747043  0.19848561  0.39624101  1
  Rh  Rh224  1  0.19844096  0.19989983  0.00067773  1
  Rh  Rh225  1  0.60801487  0.40278332  0.39512369  1
  Rh  Rh226  1  0.41003079  -0.00604245  0.58982648  1
  Rh  Rh227  1  0.80252526  0.19779036  0.20029270  1
  Rh  Rh228  1  0.40515404  -0.00148597  -0.00018980  1
  Rh  Rh229  1  0.20900986  0.19742674  0.80252157  1
  Rh  Rh230  1  0.61241244  0.80481981  0.60699239  1
  Rh  Rh231  1  0.39446012  0.40342166  0.40081351  1
  Rh  Rh232  1  0.60914945  0.00913854  0.19279299  1
  Rh  Rh233  1  0.20111509  -0.00634655  0.79625678  1
  Rh  Rh234  1  0.19893774  0.59285592  0.60077412  1
  Rh  Rh235  1  0.00673689  0.19490706  0.39684619  1
  Rh  Rh236  1  0.00282498  0.19398047  0.00210088  1
  Rh  Rh237  1  0.60230729  0.60472239  0.20208534  1
  Rh  Rh238  1  0.39861077  0.59881430  0.79306934  1
  Rh  Rh239  1  0.40531196  0.79813496  0.20943579  1
  Rh  Rh240  1  0.80112121  0.79043529  0.19847367  1
  Rh  Rh241  1  0.00558134  0.59184955  0.79581005  1
  Rh  Rh242  1  0.00639357  0.59483556  0.59849142  1
  Rh  Rh243  1  0.79088245  0.60968946  0.59206919  1
  Rh  Rh244  1  0.59361666  0.00188178  0.80059490  1
  Rh  Rh245  1  0.59076169  0.39950376  0.19590684  1
  Rh  Rh246  1  -0.00577221  0.40094667  0.60377899  1
  Rh  Rh247  1  0.39117146  0.39451405  0.80140514  1
  Rh  Rh248  1  0.80828768  0.80322182  0.40244345  1
  Rh  Rh249  1  0.39904216  0.20205810  0.19571909  1
