# generated using pymatgen
data_ZrScNbPdRh
_symmetry_space_group_name_H-M   'P 1'
_cell_length_a   16.55635693
_cell_length_b   16.55814880
_cell_length_c   16.55883128
_cell_angle_alpha   90.00818152
_cell_angle_beta   89.98575834
_cell_angle_gamma   89.99589981
_symmetry_Int_Tables_number   1
_chemical_formula_structural   ZrScNbPdRh
_chemical_formula_sum   'Zr50 Sc50 Nb50 Pd50 Rh50'
_cell_volume   4539.48122123
_cell_formula_units_Z   50
loop_
 _symmetry_equiv_pos_site_id
 _symmetry_equiv_pos_as_xyz
  1  'x, y, z'
loop_
 _atom_site_type_symbol
 _atom_site_label
 _atom_site_symmetry_multiplicity
 _atom_site_fract_x
 _atom_site_fract_y
 _atom_site_fract_z
 _atom_site_occupancy
  Zr  Zr0  1  0.09755926  0.30341085  0.50155137  1
  Zr  Zr1  1  0.08844520  0.09685138  0.29865195  1
  Zr  Zr2  1  0.90497210  0.30035632  0.90466339  1
  Zr  Zr3  1  0.70850059  0.89890684  0.89934564  1
  Zr  Zr4  1  0.71135549  0.10284587  0.09452628  1
  Zr  Zr5  1  0.70631386  0.09667487  0.70501290  1
  Zr  Zr6  1  0.29671493  0.90653682  0.69375290  1
  Zr  Zr7  1  0.29912529  0.90288799  0.89218217  1
  Zr  Zr8  1  0.90018168  0.89361913  0.89858067  1
  Zr  Zr9  1  0.90709601  0.69511250  0.30329816  1
  Zr  Zr10  1  0.70360780  0.69830197  0.29505152  1
  Zr  Zr11  1  0.50478587  0.29772627  0.50534615  1
  Zr  Zr12  1  0.90198163  0.09635130  0.70226250  1
  Zr  Zr13  1  0.50629564  0.50342138  0.69951376  1
  Zr  Zr14  1  0.69389671  0.50224882  0.30047220  1
  Zr  Zr15  1  0.89895404  0.29541822  0.10254624  1
  Zr  Zr16  1  0.69879533  0.29675935  0.68789505  1
  Zr  Zr17  1  0.49862781  0.48969067  0.89666325  1
  Zr  Zr18  1  0.90109371  0.70252353  0.50044648  1
  Zr  Zr19  1  0.49689429  0.68583144  0.30277438  1
  Zr  Zr20  1  0.50098195  0.89768774  0.09431822  1
  Zr  Zr21  1  0.90504311  0.29643461  0.30411708  1
  Zr  Zr22  1  0.29664580  0.50466430  0.90693549  1
  Zr  Zr23  1  0.90261847  0.50067976  0.09419834  1
  Zr  Zr24  1  0.29509131  0.31034360  0.10088911  1
  Zr  Zr25  1  0.89634406  0.90211797  0.70413129  1
  Zr  Zr26  1  0.50065954  0.70895580  0.09597902  1
  Zr  Zr27  1  0.29794836  0.29408488  0.49924467  1
  Zr  Zr28  1  0.70214548  0.89489899  0.29657646  1
  Zr  Zr29  1  0.69828715  0.89677714  0.70493924  1
  Zr  Zr30  1  0.09708518  0.70094696  0.89888229  1
  Zr  Zr31  1  0.10616115  0.09811911  0.49786292  1
  Zr  Zr32  1  0.50155763  0.30549988  0.70183685  1
  Zr  Zr33  1  0.48627368  0.09818903  0.90356679  1
  Zr  Zr34  1  0.29478984  0.70600742  0.49934135  1
  Zr  Zr35  1  0.09389017  0.90610569  0.90669843  1
  Zr  Zr36  1  0.69794129  0.50126345  0.10385393  1
  Zr  Zr37  1  0.89950415  0.70622566  0.10084214  1
  Zr  Zr38  1  0.89564501  0.49904596  0.30806904  1
  Zr  Zr39  1  0.49179476  0.10487252  0.30189451  1
  Zr  Zr40  1  0.50192587  0.90427830  0.50917351  1
  Zr  Zr41  1  0.09855108  0.30242846  0.09813508  1
  Zr  Zr42  1  0.70792178  0.90053066  0.50328123  1
  Zr  Zr43  1  0.70208238  0.50991085  0.89178926  1
  Zr  Zr44  1  0.10173681  0.70915525  0.10335242  1
  Zr  Zr45  1  0.49895997  0.30331987  0.29725290  1
  Zr  Zr46  1  0.09541840  0.50502728  0.90054568  1
  Zr  Zr47  1  0.89379365  0.29791969  0.70107323  1
  Zr  Zr48  1  0.49469366  0.09929524  0.09706504  1
  Zr  Zr49  1  0.29966403  0.70680154  0.70608768  1
  Sc  Sc50  1  0.49786944  0.89460871  0.28875384  1
  Sc  Sc51  1  0.49967576  0.08556384  0.69885435  1
  Sc  Sc52  1  0.50145125  0.10219737  0.50425616  1
  Sc  Sc53  1  0.09993598  0.90059577  0.10189473  1
  Sc  Sc54  1  0.49402869  0.49687370  0.10338284  1
  Sc  Sc55  1  0.29317015  0.10332218  0.29753204  1
  Sc  Sc56  1  0.70267006  0.49673049  0.49721978  1
  Sc  Sc57  1  0.90311189  0.90178678  0.09284192  1
  Sc  Sc58  1  0.31040226  0.29724742  0.89465601  1
  Sc  Sc59  1  0.70946397  0.31288504  0.29980395  1
  Sc  Sc60  1  0.89906385  0.50401021  0.69972248  1
  Sc  Sc61  1  0.09145962  0.90168765  0.70168395  1
  Sc  Sc62  1  0.31007402  0.50213938  0.29107613  1
  Sc  Sc63  1  0.10346989  0.29297718  0.29678151  1
  Sc  Sc64  1  0.49324479  0.30819123  0.09377292  1
  Sc  Sc65  1  0.69753171  0.49547093  0.69960397  1
  Sc  Sc66  1  0.69956053  0.30885364  0.89109690  1
  Sc  Sc67  1  0.70619033  0.88809968  0.09741683  1
  Sc  Sc68  1  0.30588185  0.49731422  0.50431011  1
  Sc  Sc69  1  0.90898336  0.70930807  0.70211358  1
  Sc  Sc70  1  0.09589742  0.70295728  0.69955786  1
  Sc  Sc71  1  0.09275913  0.70933273  0.50196657  1
  Sc  Sc72  1  0.90404494  0.89704426  0.50637297  1
  Sc  Sc73  1  0.09938097  0.29901099  0.69691775  1
  Sc  Sc74  1  0.10673790  0.90205324  0.29758586  1
  Sc  Sc75  1  0.09376921  0.08753633  0.10611363  1
  Sc  Sc76  1  0.51101673  0.50771141  0.49540225  1
  Sc  Sc77  1  0.90316695  0.49782536  0.49679742  1
  Sc  Sc78  1  0.29882516  0.29710886  0.29216778  1
  Sc  Sc79  1  0.30552551  0.69558367  0.29840716  1
  Sc  Sc80  1  0.30258511  0.69515713  0.09634992  1
  Sc  Sc81  1  0.10092387  0.49565560  0.69757323  1
  Sc  Sc82  1  0.70666011  0.10184250  0.50773856  1
  Sc  Sc83  1  0.89597294  0.09566288  0.90963629  1
  Sc  Sc84  1  0.30171437  0.49370734  0.70605426  1
  Sc  Sc85  1  0.69480224  0.69460759  0.49957419  1
  Sc  Sc86  1  0.09776635  0.29618843  0.89874086  1
  Sc  Sc87  1  0.90497518  0.09718282  0.49071135  1
  Sc  Sc88  1  0.49945088  0.89222701  0.89549026  1
  Sc  Sc89  1  0.29775185  0.89775746  0.10619916  1
  Sc  Sc90  1  0.30144124  0.09597486  0.89298528  1
  Sc  Sc91  1  0.30615998  0.09372317  0.09622679  1
  Sc  Sc92  1  0.70171780  0.70632270  0.10083238  1
  Sc  Sc93  1  0.10830805  0.49419548  0.08985405  1
  Sc  Sc94  1  0.09641355  0.10212162  0.70274327  1
  Sc  Sc95  1  0.89651295  0.30572784  0.49921876  1
  Sc  Sc96  1  0.70127642  0.30990171  0.10456337  1
  Sc  Sc97  1  0.90140648  0.89804345  0.30726484  1
  Sc  Sc98  1  0.30018589  0.69797510  0.89905172  1
  Sc  Sc99  1  0.29417168  0.30463654  0.70099844  1
  Nb  Nb100  1  0.12053568  0.90059708  0.50387308  1
  Nb  Nb101  1  0.29804239  0.90307642  0.30941944  1
  Nb  Nb102  1  0.69555675  0.09546982  0.90163349  1
  Nb  Nb103  1  0.70092512  0.09985477  0.30236189  1
  Nb  Nb104  1  0.49843824  0.89246210  0.69973240  1
  Nb  Nb105  1  0.69980974  0.70510347  0.89501052  1
  Nb  Nb106  1  0.50321495  0.69961249  0.89301352  1
  Nb  Nb107  1  0.50454312  0.70483821  0.70064515  1
  Nb  Nb108  1  0.50044924  0.29648775  0.90008626  1
  Nb  Nb109  1  0.09448129  0.69101616  0.29902693  1
  Nb  Nb110  1  0.09956390  0.49742309  0.49857061  1
  Nb  Nb111  1  0.49692455  0.69868623  0.49988896  1
  Nb  Nb112  1  0.09136880  0.50060359  0.30477641  1
  Nb  Nb113  1  0.30147076  0.09626373  0.69687360  1
  Nb  Nb114  1  0.29985969  0.09291647  0.50412783  1
  Nb  Nb115  1  0.29505892  0.49811742  0.10062335  1
  Nb  Nb116  1  0.90227164  0.10331755  0.29481883  1
  Nb  Nb117  1  0.89975959  0.69388185  0.89851874  1
  Nb  Nb118  1  0.90277087  0.50859869  0.89920168  1
  Nb  Nb119  1  0.49848167  0.50066313  0.30093406  1
  Nb  Nb120  1  0.28892316  0.90318138  0.50019096  1
  Nb  Nb121  1  0.68929804  0.69515179  0.70711951  1
  Nb  Nb122  1  0.69786066  0.30002254  0.50653950  1
  Nb  Nb123  1  0.90096746  0.09967058  0.10835168  1
  Nb  Nb124  1  0.10018240  0.09693041  0.90403097  1
  Nb  Nb125  1  0.40001153  0.80592273  0.40639031  1
  Nb  Nb126  1  0.00233147  0.40259952  0.20234233  1
  Nb  Nb127  1  0.20171698  0.59995096  0.59480706  1
  Nb  Nb128  1  0.79785096  0.60580614  0.60316643  1
  Nb  Nb129  1  0.40173830  0.40002798  0.39854956  1
  Nb  Nb130  1  0.59914960  0.19951391  -0.00329435  1
  Nb  Nb131  1  0.39566183  -0.00415404  0.40494778  1
  Nb  Nb132  1  0.19304280  0.59636030  0.20419666  1
  Nb  Nb133  1  0.60268357  0.00272798  0.00083053  1
  Nb  Nb134  1  0.40244391  0.80078046  0.60029870  1
  Nb  Nb135  1  0.59716389  0.19594881  0.80554027  1
  Nb  Nb136  1  0.60597845  0.00586784  0.19803735  1
  Nb  Nb137  1  0.40231982  0.61007427  0.60194771  1
  Nb  Nb138  1  0.20084964  0.40650830  0.39748286  1
  Nb  Nb139  1  0.59797620  0.60654747  -0.00881512  1
  Nb  Nb140  1  0.19296043  0.59501745  0.39910923  1
  Nb  Nb141  1  -0.00557111  0.40316409  0.80540326  1
  Nb  Nb142  1  0.80269383  0.00660618  0.20323456  1
  Nb  Nb143  1  0.60669978  0.19939375  0.39660932  1
  Nb  Nb144  1  0.60207544  0.19719166  0.19982958  1
  Nb  Nb145  1  0.80448565  0.40923257  -0.00604586  1
  Nb  Nb146  1  0.19832716  0.19481036  -0.00192839  1
  Nb  Nb147  1  0.59921112  0.00000155  0.39470223  1
  Nb  Nb148  1  0.39414018  0.19440303  0.60298801  1
  Nb  Nb149  1  0.59283690  0.80062239  0.40171209  1
  Pd  Pd150  1  0.19870625  0.19995559  0.39702254  1
  Pd  Pd151  1  0.19189597  0.00232117  0.79422468  1
  Pd  Pd152  1  0.39247178  0.80185435  -0.00773791  1
  Pd  Pd153  1  0.80388460  0.59900046  0.20023434  1
  Pd  Pd154  1  0.19726616  0.79036992  0.38835069  1
  Pd  Pd155  1  0.19961219  0.19733076  0.80382334  1
  Pd  Pd156  1  0.19630040  0.59829761  0.79093385  1
  Pd  Pd157  1  0.00550885  -0.01007390  0.40324589  1
  Pd  Pd158  1  0.39430939  0.79663305  0.20505515  1
  Pd  Pd159  1  0.00628658  0.59167504  0.18840353  1
  Pd  Pd160  1  0.79580251  0.79273266  0.40146665  1
  Pd  Pd161  1  0.19310657  0.39740593  0.80449168  1
  Pd  Pd162  1  0.40446078  0.19821857  0.78783688  1
  Pd  Pd163  1  0.80566707  0.40343329  0.80087575  1
  Pd  Pd164  1  0.80070449  0.00090212  0.39803043  1
  Pd  Pd165  1  -0.00478270  0.19954380  0.59369819  1
  Pd  Pd166  1  0.00040393  0.20123809  0.80169950  1
  Pd  Pd167  1  0.39756148  -0.00370696  0.20594919  1
  Pd  Pd168  1  0.59296210  -0.00126927  0.80693528  1
  Pd  Pd169  1  0.40005631  0.20641601  0.19012976  1
  Pd  Pd170  1  0.00687759  0.60679974  0.00720945  1
  Pd  Pd171  1  0.79433250  0.20129545  0.20582586  1
  Pd  Pd172  1  0.79645128  0.20349269  0.40374140  1
  Pd  Pd173  1  0.19717956  0.18877929  0.18752573  1
  Pd  Pd174  1  0.60171236  0.79493297  0.59563537  1
  Pd  Pd175  1  0.00020788  0.59770095  0.59924777  1
  Pd  Pd176  1  0.79160764  0.60385615  0.00219566  1
  Pd  Pd177  1  0.20315723  0.19651197  0.60625992  1
  Pd  Pd178  1  0.20626950  0.79406226  0.20804212  1
  Pd  Pd179  1  0.79503887  0.79089269  0.60898640  1
  Pd  Pd180  1  0.60713991  0.00416056  0.59891608  1
  Pd  Pd181  1  0.40746332  0.59727473  0.00193328  1
  Pd  Pd182  1  0.60665354  0.40147158  -0.00137940  1
  Pd  Pd183  1  0.81132246  0.19496850  0.59220280  1
  Pd  Pd184  1  0.19089101  0.80623862  0.79970112  1
  Pd  Pd185  1  0.79054492  0.21263432  -0.00733603  1
  Pd  Pd186  1  0.20427417  0.80057458  -0.00228186  1
  Pd  Pd187  1  0.59877804  0.39491117  0.40109855  1
  Pd  Pd188  1  0.00690453  0.18903546  0.00647650  1
  Pd  Pd189  1  0.40369084  0.40194960  0.59510400  1
  Pd  Pd190  1  0.79536071  0.19743513  0.80982156  1
  Pd  Pd191  1  0.59337075  0.60332158  0.18992739  1
  Pd  Pd192  1  0.40162635  0.59849445  0.79618241  1
  Pd  Pd193  1  0.20404412  0.00326233  0.00435850  1
  Pd  Pd194  1  -0.00231481  0.80969047  0.20488010  1
  Pd  Pd195  1  0.00419706  -0.00239164  0.59447164  1
  Pd  Pd196  1  0.01009253  0.80846084  0.40081886  1
  Pd  Pd197  1  0.20286155  0.39033486  -0.01426442  1
  Pd  Pd198  1  0.80498928  0.60907203  0.78860936  1
  Pd  Pd199  1  -0.00511858  0.40124231  0.60830419  1
  Rh  Rh200  1  0.60410739  0.40741325  0.59739061  1
  Rh  Rh201  1  0.60140796  0.80195470  0.80336839  1
  Rh  Rh202  1  0.81277300  0.80639757  0.20021330  1
  Rh  Rh203  1  0.00168207  0.59708960  0.79522344  1
  Rh  Rh204  1  0.40062389  0.40202999  0.20362869  1
  Rh  Rh205  1  0.39761062  0.59757294  0.18905751  1
  Rh  Rh206  1  0.40264654  -0.00766920  0.79578408  1
  Rh  Rh207  1  0.81103215  0.40722581  0.19522759  1
  Rh  Rh208  1  0.39686679  -0.00091465  0.59904359  1
  Rh  Rh209  1  0.39847630  -0.01334194  -0.00387410  1
  Rh  Rh210  1  -0.00451478  0.40281327  -0.00253397  1
  Rh  Rh211  1  0.80513048  0.00167720  0.60111449  1
  Rh  Rh212  1  0.00150498  0.20103236  0.40407004  1
  Rh  Rh213  1  0.00109637  0.79946003  0.80576294  1
  Rh  Rh214  1  0.19294418  0.41193220  0.21069957  1
  Rh  Rh215  1  0.79989409  0.60150187  0.40765016  1
  Rh  Rh216  1  -0.00954742  -0.00710070  0.20301195  1
  Rh  Rh217  1  0.40296595  0.19932308  0.41351735  1
  Rh  Rh218  1  0.79728441  0.39822996  0.40506005  1
  Rh  Rh219  1  0.40074861  0.80213984  0.79724927  1
  Rh  Rh220  1  0.00585701  0.80999347  0.59774815  1
  Rh  Rh221  1  0.00415092  0.20407678  0.19633724  1
  Rh  Rh222  1  0.39492616  0.59309547  0.40732595  1
  Rh  Rh223  1  0.80005491  -0.00463520  0.00550925  1
  Rh  Rh224  1  0.60482263  0.60416986  0.39748330  1
  Rh  Rh225  1  0.19119925  0.00610237  0.60809551  1
  Rh  Rh226  1  0.39838538  0.40122829  0.80221771  1
  Rh  Rh227  1  0.59572586  0.60068214  0.80269081  1
  Rh  Rh228  1  0.20337111  -0.00047211  0.20213828  1
  Rh  Rh229  1  0.60239363  0.60005440  0.60191137  1
  Rh  Rh230  1  0.60326144  0.79868949  -0.00891552  1
  Rh  Rh231  1  0.20118999  0.00885108  0.39362856  1
  Rh  Rh232  1  0.60134398  0.39411300  0.79719435  1
  Rh  Rh233  1  0.80577190  0.00327772  0.80382339  1
  Rh  Rh234  1  -0.00152190  0.00588233  0.80820797  1
  Rh  Rh235  1  0.59735103  0.79640172  0.20635387  1
  Rh  Rh236  1  0.19892003  0.40539360  0.59430264  1
  Rh  Rh237  1  0.00641539  0.39195042  0.39436292  1
  Rh  Rh238  1  0.59396279  0.19315775  0.60587796  1
  Rh  Rh239  1  0.79898903  0.40853079  0.59740081  1
  Rh  Rh240  1  0.80494313  0.79204191  -0.00525156  1
  Rh  Rh241  1  0.39311971  0.40182750  -0.00385465  1
  Rh  Rh242  1  0.59540532  0.39775267  0.20116839  1
  Rh  Rh243  1  0.39339444  0.20831476  0.00455379  1
  Rh  Rh244  1  -0.00099271  0.79649059  -0.00265179  1
  Rh  Rh245  1  -0.00416929  0.00238365  0.00167449  1
  Rh  Rh246  1  0.19771750  0.79699318  0.60907502  1
  Rh  Rh247  1  0.00054506  0.60309790  0.41141796  1
  Rh  Rh248  1  0.80054102  0.79196830  0.79674834  1
  Rh  Rh249  1  0.19795074  0.60650068  0.00812492  1
