# generated using pymatgen
data_ZrScNbPdRh
_symmetry_space_group_name_H-M   'P 1'
_cell_length_a   16.55260086
_cell_length_b   16.55622448
_cell_length_c   16.55217646
_cell_angle_alpha   90.01438593
_cell_angle_beta   89.98694870
_cell_angle_gamma   89.97419196
_symmetry_Int_Tables_number   1
_chemical_formula_structural   ZrScNbPdRh
_chemical_formula_sum   'Zr50 Sc50 Nb50 Pd50 Rh50'
_cell_volume   4536.09965946
_cell_formula_units_Z   50
loop_
 _symmetry_equiv_pos_site_id
 _symmetry_equiv_pos_as_xyz
  1  'x, y, z'
loop_
 _atom_site_type_symbol
 _atom_site_label
 _atom_site_symmetry_multiplicity
 _atom_site_fract_x
 _atom_site_fract_y
 _atom_site_fract_z
 _atom_site_occupancy
  Zr  Zr0  1  0.69918497  0.29532049  0.49195039  1
  Zr  Zr1  1  0.70330662  0.90289390  0.30216387  1
  Zr  Zr2  1  0.49489020  0.30133636  0.70367781  1
  Zr  Zr3  1  0.29834071  0.29882085  0.50115043  1
  Zr  Zr4  1  0.89790763  0.89996776  0.29515923  1
  Zr  Zr5  1  0.09898462  0.89487411  0.89815578  1
  Zr  Zr6  1  0.69791878  0.09726694  0.88918476  1
  Zr  Zr7  1  0.11015881  0.50246314  0.70269224  1
  Zr  Zr8  1  0.50754964  0.10061570  0.29722970  1
  Zr  Zr9  1  0.30311666  0.50232130  0.29818942  1
  Zr  Zr10  1  0.29597887  0.89857201  0.29904071  1
  Zr  Zr11  1  0.10067718  0.90458449  0.30096969  1
  Zr  Zr12  1  0.10178458  0.90394561  0.50404872  1
  Zr  Zr13  1  0.50719255  0.70004940  0.70831950  1
  Zr  Zr14  1  0.89086204  0.09953019  0.70451451  1
  Zr  Zr15  1  0.69462712  0.69367910  0.09810858  1
  Zr  Zr16  1  0.10386992  0.69146222  0.29693979  1
  Zr  Zr17  1  0.10036127  0.09631618  0.29764779  1
  Zr  Zr18  1  0.90371725  0.50116796  0.70862117  1
  Zr  Zr19  1  0.10142914  0.10589180  0.10200335  1
  Zr  Zr20  1  0.30533349  0.89130580  0.51257025  1
  Zr  Zr21  1  0.69597773  0.09986857  0.09162733  1
  Zr  Zr22  1  0.30491376  0.30294457  0.29463183  1
  Zr  Zr23  1  0.29981722  0.10863731  0.90218206  1
  Zr  Zr24  1  0.70249376  0.49244437  0.51335356  1
  Zr  Zr25  1  0.90446013  0.49979723  0.09223062  1
  Zr  Zr26  1  0.90759853  0.30394073  0.89833522  1
  Zr  Zr27  1  0.90821995  0.90366135  0.70916121  1
  Zr  Zr28  1  0.50400166  0.90113203  0.29768668  1
  Zr  Zr29  1  0.09459267  0.68868818  0.69998657  1
  Zr  Zr30  1  0.49441779  0.30262017  0.90306632  1
  Zr  Zr31  1  0.10123201  0.30451984  0.71206500  1
  Zr  Zr32  1  0.90016159  0.69451642  0.90068010  1
  Zr  Zr33  1  0.49967623  0.10096801  0.09515933  1
  Zr  Zr34  1  0.09728947  0.29839743  0.29737563  1
  Zr  Zr35  1  0.89028916  0.09538907  0.89501982  1
  Zr  Zr36  1  0.10897441  0.69453782  0.90085072  1
  Zr  Zr37  1  0.09120302  0.50121031  0.30111168  1
  Zr  Zr38  1  0.30040604  0.09784568  0.51276996  1
  Zr  Zr39  1  0.50143619  0.90122676  0.50120462  1
  Zr  Zr40  1  0.50465688  0.49782902  0.90135852  1
  Zr  Zr41  1  0.49294586  0.89304200  0.89934486  1
  Zr  Zr42  1  0.49923296  0.10327251  0.70532921  1
  Zr  Zr43  1  0.49946097  0.49168349  0.49392810  1
  Zr  Zr44  1  0.49425312  0.70848786  0.50739425  1
  Zr  Zr45  1  0.50548234  0.50403403  0.70584501  1
  Zr  Zr46  1  0.10030442  0.10016845  0.50156429  1
  Zr  Zr47  1  0.69648617  0.50667051  0.28726007  1
  Zr  Zr48  1  0.90580289  0.49841100  0.29400034  1
  Zr  Zr49  1  0.50020803  0.70255659  0.09798363  1
  Sc  Sc50  1  0.70227746  0.89107855  0.70300258  1
  Sc  Sc51  1  0.50285009  0.90347793  0.09518825  1
  Sc  Sc52  1  0.90051771  0.10268549  0.10062456  1
  Sc  Sc53  1  0.49700648  0.30652837  0.10244213  1
  Sc  Sc54  1  0.49601950  0.70147571  0.89939536  1
  Sc  Sc55  1  0.28878755  0.50322984  0.50139166  1
  Sc  Sc56  1  0.09637037  0.09758465  0.69659145  1
  Sc  Sc57  1  0.29321804  0.89156897  0.90053352  1
  Sc  Sc58  1  0.90730075  0.49861304  0.49269458  1
  Sc  Sc59  1  0.89131761  0.30592103  0.50179693  1
  Sc  Sc60  1  0.70098390  0.70400021  0.28571205  1
  Sc  Sc61  1  0.29339334  0.10372324  0.29266579  1
  Sc  Sc62  1  0.69978485  0.30850882  0.89879232  1
  Sc  Sc63  1  0.29899208  0.29801613  0.90006474  1
  Sc  Sc64  1  0.09543407  0.50405961  0.89706566  1
  Sc  Sc65  1  0.71028530  0.70465692  0.51789354  1
  Sc  Sc66  1  0.70122420  0.69819587  0.90204117  1
  Sc  Sc67  1  0.50265733  0.49890222  0.10025056  1
  Sc  Sc68  1  0.31223661  0.50272933  0.09916401  1
  Sc  Sc69  1  0.50657456  0.10216852  0.90230089  1
  Sc  Sc70  1  0.50535335  0.69884127  0.29352601  1
  Sc  Sc71  1  0.89282649  0.69231901  0.09657061  1
  Sc  Sc72  1  0.10459251  0.90162634  0.70124992  1
  Sc  Sc73  1  0.90082308  0.29754288  0.70528133  1
  Sc  Sc74  1  0.10395088  0.11081271  0.90529250  1
  Sc  Sc75  1  0.70788500  0.90500384  0.90605608  1
  Sc  Sc76  1  0.49700402  0.49282146  0.29182528  1
  Sc  Sc77  1  0.89701209  0.10040525  0.29807638  1
  Sc  Sc78  1  0.89161278  0.69485376  0.70210285  1
  Sc  Sc79  1  0.10412816  0.68961167  0.09487260  1
  Sc  Sc80  1  0.69805609  0.29472252  0.29939966  1
  Sc  Sc81  1  0.30180169  0.50458240  0.89837732  1
  Sc  Sc82  1  0.29475216  0.29480452  0.70851689  1
  Sc  Sc83  1  0.89141516  0.90175856  0.50006929  1
  Sc  Sc84  1  0.49645761  0.88745167  0.69934540  1
  Sc  Sc85  1  0.70106909  0.10422951  0.30299337  1
  Sc  Sc86  1  0.69439694  0.30539224  0.09830856  1
  Sc  Sc87  1  0.30094933  0.10715089  0.09789769  1
  Sc  Sc88  1  0.90454512  0.30342675  0.09235445  1
  Sc  Sc89  1  0.89566740  0.30187110  0.30736826  1
  Sc  Sc90  1  0.29693797  0.69579791  0.09719218  1
  Sc  Sc91  1  0.70294254  0.89559643  0.09639720  1
  Sc  Sc92  1  0.70797964  0.31106251  0.69313839  1
  Sc  Sc93  1  0.69438347  0.50043015  0.09097498  1
  Sc  Sc94  1  0.89814972  0.69410545  0.29423425  1
  Sc  Sc95  1  0.08908543  0.29241284  0.09287376  1
  Sc  Sc96  1  0.11194442  0.90335963  0.10283589  1
  Sc  Sc97  1  0.29579360  0.70203396  0.70473959  1
  Sc  Sc98  1  0.30140315  0.90241085  0.09320375  1
  Sc  Sc99  1  0.89590250  0.09969529  0.51102557  1
  Nb  Nb100  1  0.50120671  0.30162656  0.49438891  1
  Nb  Nb101  1  0.29852152  0.69810917  0.49873715  1
  Nb  Nb102  1  0.29753422  0.70363587  0.90773133  1
  Nb  Nb103  1  0.69644601  0.09848848  0.49856769  1
  Nb  Nb104  1  0.30154246  0.09771696  0.70451173  1
  Nb  Nb105  1  0.09764986  0.50571948  0.49977625  1
  Nb  Nb106  1  0.30090631  0.69710481  0.29978674  1
  Nb  Nb107  1  0.50380041  0.10224151  0.49910712  1
  Nb  Nb108  1  0.89455278  0.49829285  0.90580119  1
  Nb  Nb109  1  0.69961382  0.68473016  0.70401874  1
  Nb  Nb110  1  0.69946753  0.90442665  0.49487227  1
  Nb  Nb111  1  0.09943359  0.68595015  0.49929763  1
  Nb  Nb112  1  0.29935696  0.30258214  0.09763627  1
  Nb  Nb113  1  0.29908050  0.90674518  0.69906133  1
  Nb  Nb114  1  0.10322338  0.30334769  0.90058258  1
  Nb  Nb115  1  0.70218438  0.51324497  0.70423080  1
  Nb  Nb116  1  0.30091912  0.49976995  0.69827291  1
  Nb  Nb117  1  0.69866255  0.10203822  0.69879361  1
  Nb  Nb118  1  0.89767308  0.89889576  0.09159420  1
  Nb  Nb119  1  0.70374183  0.49895794  0.90194569  1
  Nb  Nb120  1  0.49856217  0.30680083  0.31038253  1
  Nb  Nb121  1  0.10161366  0.30143896  0.50268455  1
  Nb  Nb122  1  0.90553092  0.69942080  0.49849820  1
  Nb  Nb123  1  0.09405156  0.49475818  0.10098445  1
  Nb  Nb124  1  0.89788240  0.89894688  0.90434103  1
  Nb  Nb125  1  0.39712358  0.59752266  0.60016854  1
  Nb  Nb126  1  0.19581662  0.39920850  0.19491724  1
  Nb  Nb127  1  0.60501635  0.00535589  0.59785174  1
  Nb  Nb128  1  -0.00312741  -0.00612707  -0.00206409  1
  Nb  Nb129  1  0.19629711  0.40052071  0.00507000  1
  Nb  Nb130  1  0.60710921  0.79907964  0.40420759  1
  Nb  Nb131  1  0.19184047  0.40168451  0.39814146  1
  Nb  Nb132  1  0.79451119  0.60091316  0.40144811  1
  Nb  Nb133  1  0.00020098  0.79241413  0.59288795  1
  Nb  Nb134  1  0.19974125  0.78979481  0.40489156  1
  Nb  Nb135  1  -0.00195078  0.80374572  0.00170801  1
  Nb  Nb136  1  0.00479602  0.79547304  0.40036737  1
  Nb  Nb137  1  0.39825770  0.40323175  0.60202248  1
  Nb  Nb138  1  0.59952059  0.19733103  0.59564655  1
  Nb  Nb139  1  0.39337644  -0.00125258  0.79655643  1
  Nb  Nb140  1  0.39703562  0.79840341  0.20121602  1
  Nb  Nb141  1  0.40058445  0.60461159  0.40333476  1
  Nb  Nb142  1  0.80191873  0.40359447  0.19570101  1
  Nb  Nb143  1  0.60287926  0.60476057  0.40539552  1
  Nb  Nb144  1  0.00011430  0.80228779  0.19589383  1
  Nb  Nb145  1  0.40221288  0.00560703  0.40286785  1
  Nb  Nb146  1  0.79863353  0.20040023  -0.00634696  1
  Nb  Nb147  1  0.00467371  0.20090652  0.40678701  1
  Nb  Nb148  1  0.40681427  0.19894817  0.40218511  1
  Nb  Nb149  1  0.00958694  0.40252577  0.59935756  1
  Pd  Pd150  1  0.79395248  -0.00642170  0.60583953  1
  Pd  Pd151  1  0.00724789  0.00828675  0.80873294  1
  Pd  Pd152  1  0.60906079  0.79988765  0.80698575  1
  Pd  Pd153  1  0.20038141  0.40017060  0.59806213  1
  Pd  Pd154  1  0.39821618  0.00057005  -0.01008549  1
  Pd  Pd155  1  0.59511426  0.39318426  0.60571549  1
  Pd  Pd156  1  0.60347571  0.20784730  -0.00346756  1
  Pd  Pd157  1  0.19718084  0.19795512  0.61059616  1
  Pd  Pd158  1  0.40273903  0.60146422  -0.00340287  1
  Pd  Pd159  1  0.80510522  0.00897101  0.40073165  1
  Pd  Pd160  1  -0.01006452  0.20406077  0.20829231  1
  Pd  Pd161  1  0.80823558  0.80389548  0.60669729  1
  Pd  Pd162  1  0.79765770  0.79729245  0.80171920  1
  Pd  Pd163  1  0.20207771  0.20231215  0.39784019  1
  Pd  Pd164  1  0.40110159  0.79994333  0.39108951  1
  Pd  Pd165  1  0.79926740  0.40208581  0.79897776  1
  Pd  Pd166  1  0.59346586  -0.01168311  0.79403456  1
  Pd  Pd167  1  0.40679502  0.20353828  0.20181456  1
  Pd  Pd168  1  0.80184888  0.21002730  0.19012225  1
  Pd  Pd169  1  0.20260781  0.59018285  0.19122479  1
  Pd  Pd170  1  0.39079706  0.40001027  0.79926564  1
  Pd  Pd171  1  0.39402590  -0.00372863  0.20131155  1
  Pd  Pd172  1  0.60860569  -0.00261849  0.19362711  1
  Pd  Pd173  1  0.80445972  0.79815191  0.19196929  1
  Pd  Pd174  1  -0.00085347  0.79177407  0.79881037  1
  Pd  Pd175  1  0.59412197  0.60149078  0.59475534  1
  Pd  Pd176  1  0.81225546  0.59328203  0.59400687  1
  Pd  Pd177  1  0.60799707  0.21296912  0.79315742  1
  Pd  Pd178  1  0.40371700  0.20739661  0.59866692  1
  Pd  Pd179  1  0.79526375  0.20307324  0.59977788  1
  Pd  Pd180  1  0.20085156  0.79759712  0.79502031  1
  Pd  Pd181  1  0.79522860  0.00220939  0.19347572  1
  Pd  Pd182  1  0.19664450  0.00265165  -0.00150011  1
  Pd  Pd183  1  0.20106895  0.79672312  0.19822135  1
  Pd  Pd184  1  0.61063456  0.40708705  0.39179542  1
  Pd  Pd185  1  -0.00163106  -0.00426175  0.18958800  1
  Pd  Pd186  1  0.40981895  -0.00042298  0.60495123  1
  Pd  Pd187  1  0.59591211  0.20742267  0.19997467  1
  Pd  Pd188  1  0.60759046  0.39984202  0.79690507  1
  Pd  Pd189  1  0.19314912  0.79122574  0.60030875  1
  Pd  Pd190  1  0.79923079  0.78950742  0.39899744  1
  Pd  Pd191  1  0.20054810  0.00590594  0.80329992  1
  Pd  Pd192  1  0.60870511  0.80405858  0.59964776  1
  Pd  Pd193  1  0.21144973  -0.00403796  0.40674812  1
  Pd  Pd194  1  0.60325435  0.80280754  -0.00565022  1
  Pd  Pd195  1  -0.01082587  0.00355386  0.40655724  1
  Pd  Pd196  1  0.00345975  0.19353736  0.80298733  1
  Pd  Pd197  1  0.39544100  0.60622211  0.79951496  1
  Pd  Pd198  1  -0.00306381  0.20942996  0.59799453  1
  Pd  Pd199  1  0.79205260  0.40796132  0.39056691  1
  Rh  Rh200  1  0.60664326  0.59936587  0.81118896  1
  Rh  Rh201  1  0.79258963  0.20637275  0.80344272  1
  Rh  Rh202  1  0.20570717  0.59744777  0.39856593  1
  Rh  Rh203  1  0.39407195  0.39954484  -0.00098283  1
  Rh  Rh204  1  0.79705005  0.59749871  0.80845544  1
  Rh  Rh205  1  0.81350755  0.40951446  0.60762256  1
  Rh  Rh206  1  0.59736094  0.59890855  -0.00520149  1
  Rh  Rh207  1  0.59679097  0.80554947  0.20095244  1
  Rh  Rh208  1  0.20258553  0.58846577  0.00052059  1
  Rh  Rh209  1  0.00163613  0.60253201  -0.00169977  1
  Rh  Rh210  1  0.00768337  0.40263801  -0.00817984  1
  Rh  Rh211  1  0.79395795  -0.00766107  0.79289983  1
  Rh  Rh212  1  0.39893372  0.39807491  0.19492378  1
  Rh  Rh213  1  0.80777005  0.19331566  0.40428534  1
  Rh  Rh214  1  -0.00497542  0.59536661  0.60209556  1
  Rh  Rh215  1  0.38816500  0.40016014  0.40725838  1
  Rh  Rh216  1  0.20384857  0.40415628  0.81174020  1
  Rh  Rh217  1  -0.00257208  -0.00842293  0.60047646  1
  Rh  Rh218  1  0.19807249  0.00342408  0.60516169  1
  Rh  Rh219  1  0.59696217  0.40159219  -0.00171022  1
  Rh  Rh220  1  0.40305906  0.20339572  0.00207996  1
  Rh  Rh221  1  0.39512884  0.79675407  0.00734484  1
  Rh  Rh222  1  0.20644017  0.60305440  0.60273060  1
  Rh  Rh223  1  0.00514999  0.39010981  0.41077752  1
  Rh  Rh224  1  -0.01054536  0.19003264  -0.00986267  1
  Rh  Rh225  1  0.79458517  0.59757677  -0.00316927  1
  Rh  Rh226  1  0.80288461  0.00853046  0.00480762  1
  Rh  Rh227  1  0.20800840  0.59994739  0.80393224  1
  Rh  Rh228  1  0.59251215  0.59807672  0.19790513  1
  Rh  Rh229  1  0.19636386  0.19676977  0.79780891  1
  Rh  Rh230  1  0.19611750  0.79597725  0.00373644  1
  Rh  Rh231  1  0.20181284  0.21109811  0.00369864  1
  Rh  Rh232  1  0.38981730  0.80239688  0.80056485  1
  Rh  Rh233  1  -0.00383925  0.39325242  0.19529556  1
  Rh  Rh234  1  0.80392380  0.59128742  0.19729371  1
  Rh  Rh235  1  0.20646805  0.00715750  0.19270545  1
  Rh  Rh236  1  -0.00129764  0.60841493  0.19080471  1
  Rh  Rh237  1  0.80306969  0.79258013  -0.00027745  1
  Rh  Rh238  1  -0.00943969  0.60524067  0.39686984  1
  Rh  Rh239  1  0.59897288  -0.00383246  0.40282021  1
  Rh  Rh240  1  0.39355531  0.78997992  0.61496671  1
  Rh  Rh241  1  0.79837570  0.39474234  0.00431886  1
  Rh  Rh242  1  0.40054439  0.19404727  0.80609296  1
  Rh  Rh243  1  0.59888407  -0.00397189  -0.00334744  1
  Rh  Rh244  1  0.60334258  0.39583580  0.20154353  1
  Rh  Rh245  1  0.19852383  0.20623950  0.19272068  1
  Rh  Rh246  1  0.40523781  0.60827099  0.20417104  1
  Rh  Rh247  1  0.59663737  0.20067972  0.40079047  1
  Rh  Rh248  1  -0.00313874  0.59823646  0.80578708  1
  Rh  Rh249  1  0.00229888  0.40580757  0.80062698  1
