# generated using pymatgen
data_ZrScNbPdRh
_symmetry_space_group_name_H-M   'P 1'
_cell_length_a   16.55835221
_cell_length_b   16.55562164
_cell_length_c   16.55428312
_cell_angle_alpha   89.98268244
_cell_angle_beta   90.01967338
_cell_angle_gamma   90.00041665
_symmetry_Int_Tables_number   1
_chemical_formula_structural   ZrScNbPdRh
_chemical_formula_sum   'Zr50 Sc50 Nb50 Pd50 Rh50'
_cell_volume   4538.08829515
_cell_formula_units_Z   50
loop_
 _symmetry_equiv_pos_site_id
 _symmetry_equiv_pos_as_xyz
  1  'x, y, z'
loop_
 _atom_site_type_symbol
 _atom_site_label
 _atom_site_symmetry_multiplicity
 _atom_site_fract_x
 _atom_site_fract_y
 _atom_site_fract_z
 _atom_site_occupancy
  Zr  Zr0  1  0.49698540  0.89087690  0.90571399  1
  Zr  Zr1  1  0.30481002  0.10262989  0.50252211  1
  Zr  Zr2  1  0.10851227  0.90183289  0.89723116  1
  Zr  Zr3  1  0.10353057  0.49980360  0.50077861  1
  Zr  Zr4  1  0.90229242  0.29550521  0.29200091  1
  Zr  Zr5  1  0.50922369  0.69830834  0.09813368  1
  Zr  Zr6  1  0.11655517  0.69992471  0.29468865  1
  Zr  Zr7  1  0.09841258  0.29994879  0.29209236  1
  Zr  Zr8  1  0.49427075  0.31161116  0.09904580  1
  Zr  Zr9  1  0.09167102  0.09574362  0.89495554  1
  Zr  Zr10  1  0.69913183  0.90576112  0.88632726  1
  Zr  Zr11  1  0.90042023  0.09162347  0.49956373  1
  Zr  Zr12  1  0.90534878  0.89956106  0.50258782  1
  Zr  Zr13  1  0.90371613  0.69531007  0.88954511  1
  Zr  Zr14  1  0.49572280  0.70233840  0.50838430  1
  Zr  Zr15  1  0.69564313  0.30286567  0.09500298  1
  Zr  Zr16  1  0.90024046  0.10318658  0.29838717  1
  Zr  Zr17  1  0.10121154  0.68661068  0.90471797  1
  Zr  Zr18  1  0.49735956  0.50403136  0.09959478  1
  Zr  Zr19  1  0.29586246  0.30195394  0.29751365  1
  Zr  Zr20  1  0.90212379  0.50449166  0.89276970  1
  Zr  Zr21  1  0.89609543  0.69809675  0.70160063  1
  Zr  Zr22  1  0.69817590  0.29756222  0.89597414  1
  Zr  Zr23  1  0.89491012  0.50920519  0.50341424  1
  Zr  Zr24  1  0.09609057  0.70432723  0.70655676  1
  Zr  Zr25  1  0.90292037  0.70648984  0.08992500  1
  Zr  Zr26  1  0.49772259  0.10202677  0.69682274  1
  Zr  Zr27  1  0.29769618  0.09884022  0.29642768  1
  Zr  Zr28  1  0.30140755  0.70185250  0.89569567  1
  Zr  Zr29  1  0.50149437  0.70946076  0.29189289  1
  Zr  Zr30  1  0.30565160  0.89312047  0.49753988  1
  Zr  Zr31  1  0.10331454  0.89218483  0.10159113  1
  Zr  Zr32  1  0.50730298  0.09434649  0.49550675  1
  Zr  Zr33  1  0.49758881  0.49359842  0.50128361  1
  Zr  Zr34  1  0.49528094  0.90290653  0.10631632  1
  Zr  Zr35  1  0.10184916  0.50085748  0.29587513  1
  Zr  Zr36  1  0.49581188  0.69785456  0.90277004  1
  Zr  Zr37  1  0.30107244  0.30003304  0.69189920  1
  Zr  Zr38  1  0.28922442  0.10096509  0.91158047  1
  Zr  Zr39  1  0.69219236  0.30157118  0.50440531  1
  Zr  Zr40  1  0.50419863  0.90840687  0.70382712  1
  Zr  Zr41  1  0.09527041  0.90144172  0.50146660  1
  Zr  Zr42  1  0.70314270  0.88949297  0.09662658  1
  Zr  Zr43  1  0.29952647  0.50193122  0.50349567  1
  Zr  Zr44  1  0.50027393  0.08943296  0.29655348  1
  Zr  Zr45  1  0.09136431  0.09766414  0.50488662  1
  Zr  Zr46  1  0.29273702  0.29980820  0.09743636  1
  Zr  Zr47  1  0.69248640  0.50400559  0.09932681  1
  Zr  Zr48  1  0.69478611  0.70476406  0.90080915  1
  Zr  Zr49  1  0.30535182  0.89514142  0.90806942  1
  Sc  Sc50  1  0.30042516  0.09203460  0.10665873  1
  Sc  Sc51  1  0.90297273  0.90316987  0.30893055  1
  Sc  Sc52  1  0.89993144  0.30375429  0.70003501  1
  Sc  Sc53  1  0.09648586  0.10383175  0.29847179  1
  Sc  Sc54  1  0.90224880  0.70730765  0.50743274  1
  Sc  Sc55  1  0.70769520  0.70036147  0.49754336  1
  Sc  Sc56  1  0.49809006  0.30650138  0.30893768  1
  Sc  Sc57  1  0.10285751  0.50099360  0.09516667  1
  Sc  Sc58  1  0.91008656  0.89848526  0.09605726  1
  Sc  Sc59  1  0.10649931  0.08931146  0.09531725  1
  Sc  Sc60  1  0.49921982  0.69355959  0.70367557  1
  Sc  Sc61  1  0.30399387  0.49076773  0.10000602  1
  Sc  Sc62  1  0.29139317  0.30982645  0.90821416  1
  Sc  Sc63  1  0.30484243  0.09317706  0.69859148  1
  Sc  Sc64  1  0.09244408  0.30532010  0.70020884  1
  Sc  Sc65  1  0.90261244  0.50375178  0.30317624  1
  Sc  Sc66  1  0.89160493  0.70155507  0.31604558  1
  Sc  Sc67  1  0.69437803  0.50280975  0.50697430  1
  Sc  Sc68  1  0.70981016  0.91053649  0.50710571  1
  Sc  Sc69  1  0.30676999  0.90041060  0.71120796  1
  Sc  Sc70  1  0.90263513  0.30828281  0.89125828  1
  Sc  Sc71  1  0.70078260  0.49897352  0.89308762  1
  Sc  Sc72  1  0.91151113  0.10081484  0.10317354  1
  Sc  Sc73  1  0.30127309  0.89132221  0.29417975  1
  Sc  Sc74  1  0.69761949  0.50518418  0.30589485  1
  Sc  Sc75  1  0.51528336  0.09943909  0.90604389  1
  Sc  Sc76  1  0.10442894  0.49949887  0.70028528  1
  Sc  Sc77  1  0.69461493  0.29428205  0.30184336  1
  Sc  Sc78  1  0.91015496  0.10341347  0.69988980  1
  Sc  Sc79  1  0.29436586  0.49930020  0.29706673  1
  Sc  Sc80  1  0.30528772  0.69463491  0.69905892  1
  Sc  Sc81  1  0.69405312  0.89189764  0.29589203  1
  Sc  Sc82  1  0.49801299  0.50740938  0.90127106  1
  Sc  Sc83  1  0.10432431  0.89580449  0.29715793  1
  Sc  Sc84  1  0.29414681  0.50067618  0.89958204  1
  Sc  Sc85  1  0.30234044  0.31056317  0.50042590  1
  Sc  Sc86  1  0.69210057  0.09816548  0.30224187  1
  Sc  Sc87  1  0.49331385  0.49762911  0.29388312  1
  Sc  Sc88  1  0.90831176  0.49433512  0.09418187  1
  Sc  Sc89  1  0.90604954  0.30030220  0.10326853  1
  Sc  Sc90  1  0.29858261  0.70031321  0.10763251  1
  Sc  Sc91  1  0.51346450  0.29865946  0.89973529  1
  Sc  Sc92  1  0.68883309  0.09852765  0.09787789  1
  Sc  Sc93  1  0.89649143  0.89060673  0.69702052  1
  Sc  Sc94  1  0.29358814  0.49724469  0.69586468  1
  Sc  Sc95  1  0.50494113  0.50612050  0.69203905  1
  Sc  Sc96  1  0.69685104  0.50591901  0.69795311  1
  Sc  Sc97  1  0.90190943  0.90322403  0.89476997  1
  Sc  Sc98  1  0.10189424  0.69744358  0.49371560  1
  Sc  Sc99  1  0.90260320  0.29380992  0.51604722  1
  Nb  Nb100  1  0.89975402  0.10183321  0.89691672  1
  Nb  Nb101  1  0.50255793  0.90000340  0.30202959  1
  Nb  Nb102  1  0.29844165  0.70204373  0.49696172  1
  Nb  Nb103  1  0.70138221  0.70013606  0.10314893  1
  Nb  Nb104  1  0.69080825  0.29415820  0.70158281  1
  Nb  Nb105  1  0.49744698  0.10098426  0.10443989  1
  Nb  Nb106  1  0.69943584  0.90118023  0.70153625  1
  Nb  Nb107  1  0.29725191  0.70097697  0.30574830  1
  Nb  Nb108  1  0.09967046  0.29785979  0.50031853  1
  Nb  Nb109  1  0.10243857  0.09891159  0.70054322  1
  Nb  Nb110  1  0.10426415  0.49568696  0.89604517  1
  Nb  Nb111  1  0.69988789  0.70740473  0.70249898  1
  Nb  Nb112  1  0.70106639  0.10385897  0.50431324  1
  Nb  Nb113  1  0.09559109  0.69730229  0.10255210  1
  Nb  Nb114  1  0.49645874  0.29807094  0.50510730  1
  Nb  Nb115  1  0.70288504  0.10155303  0.89888385  1
  Nb  Nb116  1  0.69685953  0.69770549  0.29238022  1
  Nb  Nb117  1  0.09863069  0.30294684  0.09510444  1
  Nb  Nb118  1  0.10487247  0.29879257  0.89929133  1
  Nb  Nb119  1  0.29986379  0.90161308  0.09934725  1
  Nb  Nb120  1  0.10263789  0.90620630  0.69497708  1
  Nb  Nb121  1  0.50463845  0.89741167  0.49744691  1
  Nb  Nb122  1  0.69401981  0.08661024  0.70470861  1
  Nb  Nb123  1  0.89690597  0.50754474  0.70377154  1
  Nb  Nb124  1  0.49919487  0.29725610  0.69760294  1
  Nb  Nb125  1  -0.00176237  0.39638837  0.40523914  1
  Nb  Nb126  1  0.79875422  0.40336516  0.20313831  1
  Nb  Nb127  1  -0.00179543  0.60837324  0.19664942  1
  Nb  Nb128  1  0.59144094  0.60827418  0.39815238  1
  Nb  Nb129  1  0.80090068  0.00743147  -0.00287076  1
  Nb  Nb130  1  0.00313905  0.20187644  -0.00782789  1
  Nb  Nb131  1  0.20010380  0.80275138  0.60091573  1
  Nb  Nb132  1  0.79663063  0.19918192  0.40843030  1
  Nb  Nb133  1  0.80380412  0.19579057  -0.00589350  1
  Nb  Nb134  1  0.40324914  0.39220288  0.79578758  1
  Nb  Nb135  1  0.40300974  0.19942271  0.40227575  1
  Nb  Nb136  1  0.39743576  0.60804399  0.40022418  1
  Nb  Nb137  1  0.40355671  0.20069516  0.00266297  1
  Nb  Nb138  1  0.19855205  0.20007382  0.79681730  1
  Nb  Nb139  1  0.58866877  0.20009039  0.19676286  1
  Nb  Nb140  1  0.79919776  0.60382515  0.00253383  1
  Nb  Nb141  1  0.80500859  0.39378711  0.40187916  1
  Nb  Nb142  1  0.79201028  0.19425581  0.79947313  1
  Nb  Nb143  1  0.79895787  -0.00018862  0.19414503  1
  Nb  Nb144  1  0.60277991  0.80676847  0.60307867  1
  Nb  Nb145  1  0.19381903  0.19823699  0.60183554  1
  Nb  Nb146  1  0.80106396  0.60321761  0.19472533  1
  Nb  Nb147  1  0.20154345  0.00055828  0.40339399  1
  Nb  Nb148  1  0.60091288  0.19643583  0.60128822  1
  Nb  Nb149  1  0.39760096  0.20409877  0.80674654  1
  Pd  Pd150  1  0.40447313  0.01086566  0.81620866  1
  Pd  Pd151  1  0.39007115  0.60207141  0.00447450  1
  Pd  Pd152  1  0.40123561  0.80362629  0.61055565  1
  Pd  Pd153  1  0.19588692  0.39932347  0.40044998  1
  Pd  Pd154  1  0.60828106  0.79990204  0.40912924  1
  Pd  Pd155  1  0.00707785  0.79518606  0.39590468  1
  Pd  Pd156  1  0.59261292  0.79605706  0.79418896  1
  Pd  Pd157  1  0.60276931  0.40811480  0.39978477  1
  Pd  Pd158  1  0.19781929  0.61141214  0.60331103  1
  Pd  Pd159  1  0.20391236  0.19719464  0.40777429  1
  Pd  Pd160  1  0.39392628  -0.00135109  0.39447419  1
  Pd  Pd161  1  0.79263082  0.00239603  0.39050955  1
  Pd  Pd162  1  0.79583535  0.39711223  0.78776180  1
  Pd  Pd163  1  0.79431459  0.60495012  0.60284732  1
  Pd  Pd164  1  0.79584563  0.40295945  0.60357877  1
  Pd  Pd165  1  0.20727027  -0.00305550  0.59762130  1
  Pd  Pd166  1  0.59659728  0.40919268  -0.00902619  1
  Pd  Pd167  1  0.61063482  -0.01009895  0.40126883  1
  Pd  Pd168  1  0.00387175  0.40496699  0.79686494  1
  Pd  Pd169  1  -0.00790916  0.20523717  0.40486656  1
  Pd  Pd170  1  0.00251807  0.60032149  0.39492977  1
  Pd  Pd171  1  -0.00577624  -0.00766506  0.79164973  1
  Pd  Pd172  1  0.79165426  0.80613173  0.40269457  1
  Pd  Pd173  1  0.40392279  0.20643049  0.20193916  1
  Pd  Pd174  1  0.80293408  0.80337205  -0.01217604  1
  Pd  Pd175  1  0.40254482  0.79812425  0.39406908  1
  Pd  Pd176  1  0.20104960  0.79352890  0.00435457  1
  Pd  Pd177  1  0.20673165  0.00361826  0.79923577  1
  Pd  Pd178  1  0.60423582  -0.00707944  0.00231074  1
  Pd  Pd179  1  0.59322080  0.40951403  0.79457012  1
  Pd  Pd180  1  0.20707716  0.59651607  0.00599995  1
  Pd  Pd181  1  0.80730337  0.00286781  0.61089909  1
  Pd  Pd182  1  0.78659918  0.19579507  0.19426697  1
  Pd  Pd183  1  0.19337575  0.19454534  0.19058051  1
  Pd  Pd184  1  0.40238316  -0.00760479  0.59668286  1
  Pd  Pd185  1  0.39541006  0.58665210  0.79535248  1
  Pd  Pd186  1  0.00407298  0.39658006  -0.00638053  1
  Pd  Pd187  1  0.00341403  0.60132388  0.60376565  1
  Pd  Pd188  1  -0.00109998  -0.00293384  0.20367829  1
  Pd  Pd189  1  -0.00153674  0.40752459  0.59809029  1
  Pd  Pd190  1  -0.00849721  0.79288172  0.21222264  1
  Pd  Pd191  1  0.80373146  0.39994320  0.00373709  1
  Pd  Pd192  1  0.40207479  0.00841395  -0.00110257  1
  Pd  Pd193  1  0.80990673  0.80173376  0.20671648  1
  Pd  Pd194  1  0.00167098  0.80746013  0.80174955  1
  Pd  Pd195  1  0.79451164  0.19444830  0.60776256  1
  Pd  Pd196  1  0.39367663  0.60073873  0.20561936  1
  Pd  Pd197  1  0.60393185  0.39805042  0.20928031  1
  Pd  Pd198  1  0.00582445  0.80245982  -0.01340151  1
  Pd  Pd199  1  0.20383774  0.79933752  0.79383250  1
  Rh  Rh200  1  0.19698079  0.80671008  0.40743211  1
  Rh  Rh201  1  0.01325655  0.19704324  0.18420990  1
  Rh  Rh202  1  0.59955222  0.19199211  0.79116392  1
  Rh  Rh203  1  0.59351922  0.00149648  0.80497847  1
  Rh  Rh204  1  0.60159759  0.60208407  0.80070818  1
  Rh  Rh205  1  0.59798244  0.80528188  0.19484238  1
  Rh  Rh206  1  -0.00126098  0.40899730  0.20508506  1
  Rh  Rh207  1  0.20022437  0.59891122  0.80034024  1
  Rh  Rh208  1  0.59756836  0.39316010  0.60592724  1
  Rh  Rh209  1  0.40527776  0.40617669  0.60767951  1
  Rh  Rh210  1  -0.00297043  0.59610527  0.00125412  1
  Rh  Rh211  1  0.20295198  0.39623545  0.79946310  1
  Rh  Rh212  1  0.60583812  0.61519897  0.59570203  1
  Rh  Rh213  1  0.20642241  0.80034366  0.19268498  1
  Rh  Rh214  1  0.19600292  0.40041876  0.19233749  1
  Rh  Rh215  1  0.19936180  -0.00880855  0.00378435  1
  Rh  Rh216  1  0.39641176  0.59690291  0.59646475  1
  Rh  Rh217  1  0.59723261  0.20097656  0.01089331  1
  Rh  Rh218  1  0.39772974  0.79277078  0.01023394  1
  Rh  Rh219  1  0.80043588  0.80037444  0.79993327  1
  Rh  Rh220  1  0.59819491  0.80266248  0.00306774  1
  Rh  Rh221  1  0.79150969  0.60328606  0.80185054  1
  Rh  Rh222  1  0.79261117  0.79944443  0.60155095  1
  Rh  Rh223  1  0.40158192  0.20024771  0.59645166  1
  Rh  Rh224  1  0.60689443  0.59986159  -0.00548611  1
  Rh  Rh225  1  0.40418781  0.39611089  -0.01247208  1
  Rh  Rh226  1  0.79065790  0.59561955  0.39782881  1
  Rh  Rh227  1  0.39893788  0.80167063  0.19863895  1
  Rh  Rh228  1  0.01069284  -0.00036692  0.39238980  1
  Rh  Rh229  1  0.60245788  0.59702813  0.20627689  1
  Rh  Rh230  1  -0.00675486  -0.00432216  0.60898205  1
  Rh  Rh231  1  0.00635139  0.19931290  0.60614416  1
  Rh  Rh232  1  0.39418031  0.39901745  0.20441766  1
  Rh  Rh233  1  0.20868719  0.59720079  0.40032243  1
  Rh  Rh234  1  0.60057898  -0.00239689  0.59589551  1
  Rh  Rh235  1  0.20021461  -0.00643625  0.20607948  1
  Rh  Rh236  1  0.19523708  0.20044244  0.00092862  1
  Rh  Rh237  1  0.19224738  0.39171373  0.59943718  1
  Rh  Rh238  1  0.40430359  0.79591849  0.79728989  1
  Rh  Rh239  1  0.19404788  0.40744676  0.00034135  1
  Rh  Rh240  1  0.39634843  0.40055400  0.39889783  1
  Rh  Rh241  1  0.19924441  0.59786488  0.19411367  1
  Rh  Rh242  1  0.00828802  0.79895369  0.60264434  1
  Rh  Rh243  1  0.00171003  0.20468360  0.80189863  1
  Rh  Rh244  1  0.80570196  0.00436106  0.79701338  1
  Rh  Rh245  1  0.39705366  -0.00886053  0.20296168  1
  Rh  Rh246  1  0.00711618  0.59093013  0.79386445  1
  Rh  Rh247  1  -0.00251832  0.00177702  -0.00170925  1
  Rh  Rh248  1  0.60421782  -0.00181709  0.19720239  1
  Rh  Rh249  1  0.59637915  0.20104679  0.40252880  1
