# generated using pymatgen
data_ZrScNbPdRh
_symmetry_space_group_name_H-M   'P 1'
_cell_length_a   16.56332865
_cell_length_b   16.55660575
_cell_length_c   16.56514823
_cell_angle_alpha   89.99178879
_cell_angle_beta   90.01036846
_cell_angle_gamma   90.00560255
_symmetry_Int_Tables_number   1
_chemical_formula_structural   ZrScNbPdRh
_chemical_formula_sum   'Zr50 Sc50 Nb50 Pd50 Rh50'
_cell_volume   4542.70190912
_cell_formula_units_Z   50
loop_
 _symmetry_equiv_pos_site_id
 _symmetry_equiv_pos_as_xyz
  1  'x, y, z'
loop_
 _atom_site_type_symbol
 _atom_site_label
 _atom_site_symmetry_multiplicity
 _atom_site_fract_x
 _atom_site_fract_y
 _atom_site_fract_z
 _atom_site_occupancy
  Zr  Zr0  1  0.70872221  0.70235649  0.90137309  1
  Zr  Zr1  1  0.09964867  0.30452909  0.28451822  1
  Zr  Zr2  1  0.50302190  0.29651440  0.49752156  1
  Zr  Zr3  1  0.70196415  0.90285123  0.28815682  1
  Zr  Zr4  1  0.90113816  0.69653935  0.49373365  1
  Zr  Zr5  1  0.50326402  0.09373608  0.29976010  1
  Zr  Zr6  1  0.69799975  0.70060839  0.10283193  1
  Zr  Zr7  1  0.89986283  0.70572657  0.30372727  1
  Zr  Zr8  1  0.29338236  0.50325042  0.29472868  1
  Zr  Zr9  1  0.50367810  0.90007639  0.29810076  1
  Zr  Zr10  1  0.89151944  0.30528489  0.89283136  1
  Zr  Zr11  1  0.49497276  0.89290663  0.70176200  1
  Zr  Zr12  1  0.70004019  0.29456498  0.30278450  1
  Zr  Zr13  1  0.50275326  0.90238913  0.90239934  1
  Zr  Zr14  1  0.88913317  0.10180723  0.89240468  1
  Zr  Zr15  1  0.49299561  0.51151732  0.70241890  1
  Zr  Zr16  1  0.70995315  0.49656391  0.90142301  1
  Zr  Zr17  1  0.10134345  0.30041120  0.70341853  1
  Zr  Zr18  1  0.09767246  0.09681715  0.29734687  1
  Zr  Zr19  1  0.29760582  0.50108802  0.50636265  1
  Zr  Zr20  1  0.30794929  0.09858616  0.90325901  1
  Zr  Zr21  1  0.10271571  0.10091357  0.50408821  1
  Zr  Zr22  1  0.10414957  0.70727137  0.08849381  1
  Zr  Zr23  1  0.49679335  0.69840702  0.09564983  1
  Zr  Zr24  1  0.69739759  0.28869558  0.90586406  1
  Zr  Zr25  1  0.09507635  0.70359619  0.50331341  1
  Zr  Zr26  1  0.90615506  0.50144670  0.90099748  1
  Zr  Zr27  1  0.90695217  0.69621281  0.90621801  1
  Zr  Zr28  1  0.50559792  0.50503399  0.50414941  1
  Zr  Zr29  1  0.90103594  0.50247290  0.50578172  1
  Zr  Zr30  1  0.30295545  0.30229356  0.89644005  1
  Zr  Zr31  1  0.50532786  0.10559976  0.89604302  1
  Zr  Zr32  1  0.29320968  0.89973592  0.10772159  1
  Zr  Zr33  1  0.50658165  0.70341432  0.30683803  1
  Zr  Zr34  1  0.50325048  0.30511941  0.09747091  1
  Zr  Zr35  1  0.50020082  0.89167966  0.50202248  1
  Zr  Zr36  1  0.09738595  0.30119020  0.09609449  1
  Zr  Zr37  1  0.09631782  0.49998862  0.10845405  1
  Zr  Zr38  1  0.90048903  0.89711783  0.49950068  1
  Zr  Zr39  1  0.70745834  0.50081279  0.50164151  1
  Zr  Zr40  1  0.69682690  0.69754546  0.50470499  1
  Zr  Zr41  1  0.70098038  0.09573813  0.49693786  1
  Zr  Zr42  1  0.90145024  0.48861669  0.70315200  1
  Zr  Zr43  1  0.69532514  0.89593565  0.09327888  1
  Zr  Zr44  1  0.70376187  0.70197551  0.29905386  1
  Zr  Zr45  1  0.09289446  0.10137838  0.09941703  1
  Zr  Zr46  1  0.89890200  0.29917600  0.29383946  1
  Zr  Zr47  1  0.90051722  0.30136000  0.09810282  1
  Zr  Zr48  1  0.29648987  0.29310933  0.51128913  1
  Zr  Zr49  1  0.50245131  0.50161436  0.10308630  1
  Sc  Sc50  1  0.90565851  0.69442545  0.09933451  1
  Sc  Sc51  1  0.30451576  0.89855736  0.69808707  1
  Sc  Sc52  1  0.69776997  0.90164239  0.50725422  1
  Sc  Sc53  1  0.89196759  0.90161442  0.90465558  1
  Sc  Sc54  1  0.91010941  0.51195072  0.29371415  1
  Sc  Sc55  1  0.70325631  0.10289108  0.09348542  1
  Sc  Sc56  1  0.09925086  0.50009795  0.70694208  1
  Sc  Sc57  1  0.30472326  0.50804624  0.09990991  1
  Sc  Sc58  1  0.70312528  0.30602063  0.09388139  1
  Sc  Sc59  1  0.29545630  0.30077352  0.09254873  1
  Sc  Sc60  1  0.89964249  0.10047823  0.28694227  1
  Sc  Sc61  1  0.71503686  0.30467298  0.70681504  1
  Sc  Sc62  1  0.30242049  0.09648961  0.51109978  1
  Sc  Sc63  1  0.49490723  0.09735576  0.70332674  1
  Sc  Sc64  1  0.30767883  0.69987454  0.70388488  1
  Sc  Sc65  1  0.29934101  0.09165668  0.28501155  1
  Sc  Sc66  1  0.89490329  0.91358211  0.10193210  1
  Sc  Sc67  1  0.31484754  0.89619506  0.89507389  1
  Sc  Sc68  1  0.48735907  0.50065484  0.90001431  1
  Sc  Sc69  1  0.09560505  0.69543191  0.69836293  1
  Sc  Sc70  1  0.28954622  0.69574798  0.30596264  1
  Sc  Sc71  1  0.08512087  0.09921323  0.70065973  1
  Sc  Sc72  1  0.49158906  0.09523054  0.09614312  1
  Sc  Sc73  1  0.08744568  0.10266687  0.90510866  1
  Sc  Sc74  1  0.29800807  0.49882523  0.89635584  1
  Sc  Sc75  1  0.29896808  0.29716312  0.70175890  1
  Sc  Sc76  1  0.29120659  0.89461499  0.50276331  1
  Sc  Sc77  1  0.70085514  0.50542714  0.29353035  1
  Sc  Sc78  1  0.09680900  0.68724592  0.30313232  1
  Sc  Sc79  1  0.70415441  0.29934027  0.49447707  1
  Sc  Sc80  1  0.30160445  0.30298973  0.28166128  1
  Sc  Sc81  1  0.10129401  0.30845242  0.90552855  1
  Sc  Sc82  1  0.89640431  0.70208150  0.70028729  1
  Sc  Sc83  1  0.70901316  0.08910805  0.70571591  1
  Sc  Sc84  1  0.30086890  0.10080634  0.09493261  1
  Sc  Sc85  1  0.50043587  0.09202750  0.50527532  1
  Sc  Sc86  1  0.89801692  0.50038016  0.09533186  1
  Sc  Sc87  1  0.10097968  0.90155965  0.49422408  1
  Sc  Sc88  1  0.10339970  0.29731534  0.51748488  1
  Sc  Sc89  1  0.29595986  0.49843057  0.70738828  1
  Sc  Sc90  1  0.70477314  0.50746701  0.70131477  1
  Sc  Sc91  1  0.09742456  0.50454164  0.89682057  1
  Sc  Sc92  1  0.09671996  0.89915618  0.68995246  1
  Sc  Sc93  1  0.30742538  0.09858332  0.69830044  1
  Sc  Sc94  1  0.50123720  0.89760109  0.09704885  1
  Sc  Sc95  1  0.70698818  0.89741316  0.69696795  1
  Sc  Sc96  1  0.50308129  0.49466827  0.29207726  1
  Sc  Sc97  1  0.30365711  0.69349936  0.90812839  1
  Sc  Sc98  1  0.10161328  0.51237997  0.50706764  1
  Sc  Sc99  1  0.28980874  0.70323071  0.50300967  1
  Nb  Nb100  1  0.50066405  0.69562164  0.50868288  1
  Nb  Nb101  1  0.49807411  0.70136448  0.89593877  1
  Nb  Nb102  1  0.09652615  0.89192895  0.90831942  1
  Nb  Nb103  1  0.90076546  0.10430824  0.09583611  1
  Nb  Nb104  1  0.50474809  0.69697901  0.69795821  1
  Nb  Nb105  1  0.90419480  0.29592554  0.69470568  1
  Nb  Nb106  1  0.89734208  0.09768098  0.69994377  1
  Nb  Nb107  1  0.90289551  0.10298313  0.50072703  1
  Nb  Nb108  1  0.69186253  0.70225215  0.70409752  1
  Nb  Nb109  1  0.69469723  0.90050877  0.90222326  1
  Nb  Nb110  1  0.09945019  0.89879233  0.09892690  1
  Nb  Nb111  1  0.90367638  0.30278401  0.50309963  1
  Nb  Nb112  1  0.49864172  0.29976789  0.30036923  1
  Nb  Nb113  1  0.29551338  0.90079291  0.29939768  1
  Nb  Nb114  1  0.30021011  0.69805348  0.10607472  1
  Nb  Nb115  1  0.69819799  0.09615146  0.30288108  1
  Nb  Nb116  1  0.69624187  0.10090089  0.89816464  1
  Nb  Nb117  1  0.50022247  0.29779835  0.89198989  1
  Nb  Nb118  1  0.69516791  0.50477286  0.09459896  1
  Nb  Nb119  1  0.10289175  0.49803341  0.30059277  1
  Nb  Nb120  1  0.90206479  0.90370977  0.29845252  1
  Nb  Nb121  1  0.89454837  0.91503844  0.70346002  1
  Nb  Nb122  1  0.09415294  0.70642529  0.90088608  1
  Nb  Nb123  1  0.10389211  0.91156265  0.28940772  1
  Nb  Nb124  1  0.49695592  0.29743173  0.70319421  1
  Nb  Nb125  1  0.40625362  0.39866934  0.59982074  1
  Nb  Nb126  1  0.60655671  0.20348192  0.60530076  1
  Nb  Nb127  1  0.59835521  0.39613262  0.60817229  1
  Nb  Nb128  1  0.40365688  0.59883785  0.40675761  1
  Nb  Nb129  1  0.80323260  0.00133855  0.39428421  1
  Nb  Nb130  1  0.81158191  0.40033910  0.39874518  1
  Nb  Nb131  1  0.00258368  0.20548444  0.40283709  1
  Nb  Nb132  1  0.00491463  0.39750666  0.40110750  1
  Nb  Nb133  1  0.39181493  0.79746348  0.20427711  1
  Nb  Nb134  1  0.19744069  0.39582921  0.39923501  1
  Nb  Nb135  1  0.60041953  0.79407223  0.80168196  1
  Nb  Nb136  1  0.59898225  0.20007202  0.20537802  1
  Nb  Nb137  1  0.19523609  -0.00713627  -0.00484553  1
  Nb  Nb138  1  0.19427567  -0.00422938  0.80790362  1
  Nb  Nb139  1  0.39558476  0.19885685  0.39465870  1
  Nb  Nb140  1  0.00070041  0.80497661  0.80421160  1
  Nb  Nb141  1  0.00548863  0.81089381  0.20145789  1
  Nb  Nb142  1  0.80825312  0.19815670  0.60006466  1
  Nb  Nb143  1  0.20113905  0.20401982  0.39483882  1
  Nb  Nb144  1  0.39804560  -0.00555747  0.39627114  1
  Nb  Nb145  1  0.59456655  0.39636629  0.79940446  1
  Nb  Nb146  1  0.19893485  0.19172860  0.80524084  1
  Nb  Nb147  1  0.39613214  0.39752971  0.40045196  1
  Nb  Nb148  1  0.19171004  0.80263660  0.80692928  1
  Nb  Nb149  1  0.60073230  0.60026573  -0.00356923  1
  Pd  Pd150  1  0.60304449  0.00850461  0.18687250  1
  Pd  Pd151  1  0.79443518  0.00455862  -0.00420446  1
  Pd  Pd152  1  0.60291672  -0.00956759  0.79336285  1
  Pd  Pd153  1  0.19450907  0.79182484  0.20972985  1
  Pd  Pd154  1  0.59895606  0.59634823  0.80933653  1
  Pd  Pd155  1  0.79158835  0.80952407  0.40265425  1
  Pd  Pd156  1  0.20144286  0.41079449  0.00186222  1
  Pd  Pd157  1  0.01054963  0.40618346  0.59858035  1
  Pd  Pd158  1  0.60918454  0.20283166  0.78895584  1
  Pd  Pd159  1  0.39467798  0.80146107  0.00682792  1
  Pd  Pd160  1  0.39788566  0.40088476  0.00158709  1
  Pd  Pd161  1  0.60038803  0.59488418  0.39599918  1
  Pd  Pd162  1  0.40656681  0.20179227  0.19847251  1
  Pd  Pd163  1  0.01118299  0.80562313  0.38898434  1
  Pd  Pd164  1  0.39241620  0.79629632  0.39781053  1
  Pd  Pd165  1  0.40591461  0.20560589  0.00065337  1
  Pd  Pd166  1  -0.00559474  0.00602088  0.39838899  1
  Pd  Pd167  1  0.79224682  0.19539030  0.19308601  1
  Pd  Pd168  1  0.81028083  0.19785312  0.40276141  1
  Pd  Pd169  1  0.39456656  0.79353577  0.59732775  1
  Pd  Pd170  1  0.59962774  0.00848965  0.00371168  1
  Pd  Pd171  1  0.20267764  0.60534832  0.61097615  1
  Pd  Pd172  1  0.20231987  0.19545472  0.19543042  1
  Pd  Pd173  1  0.19955191  0.61063931  0.80248679  1
  Pd  Pd174  1  0.79991499  0.40898611  0.20221131  1
  Pd  Pd175  1  0.80324127  0.59796427  0.19686246  1
  Pd  Pd176  1  0.59857470  0.00395678  0.61002299  1
  Pd  Pd177  1  0.20121044  0.00054195  0.61163090  1
  Pd  Pd178  1  0.19778890  0.59533210  -0.00091181  1
  Pd  Pd179  1  0.40248377  0.60754865  0.21269951  1
  Pd  Pd180  1  -0.00253192  -0.00306032  -0.00106303  1
  Pd  Pd181  1  0.59380425  0.19306676  0.40166831  1
  Pd  Pd182  1  0.21072497  0.00814932  0.40173946  1
  Pd  Pd183  1  0.00250763  -0.00917133  0.80498775  1
  Pd  Pd184  1  0.60382582  0.40663153  0.40066642  1
  Pd  Pd185  1  0.81227254  0.80127460  0.19077856  1
  Pd  Pd186  1  0.80176004  0.80551316  0.79867994  1
  Pd  Pd187  1  0.59630582  0.40662965  -0.01158842  1
  Pd  Pd188  1  0.60858243  0.39378484  0.20116396  1
  Pd  Pd189  1  0.21386564  0.80371879  -0.00766180  1
  Pd  Pd190  1  0.80771679  0.60123101  0.79574917  1
  Pd  Pd191  1  0.80200136  0.60656043  0.60794349  1
  Pd  Pd192  1  -0.00710560  0.80167196  0.60852563  1
  Pd  Pd193  1  0.18958440  0.80036774  0.39359904  1
  Pd  Pd194  1  0.80248574  0.79754822  0.60156721  1
  Pd  Pd195  1  0.61062839  0.80477508  0.40403252  1
  Pd  Pd196  1  -0.00837827  0.20623532  -0.00849040  1
  Pd  Pd197  1  0.80835211  0.80083195  0.00844045  1
  Pd  Pd198  1  -0.00255109  -0.00289660  0.59616418  1
  Pd  Pd199  1  0.00242954  0.20668225  0.80456117  1
  Rh  Rh200  1  0.80760142  0.00404345  0.59140818  1
  Rh  Rh201  1  0.80190795  0.40108151  0.00175915  1
  Rh  Rh202  1  0.40364641  0.79269292  0.79958102  1
  Rh  Rh203  1  -0.00703483  0.40507579  0.19974759  1
  Rh  Rh204  1  0.40209754  -0.00903779  0.59277166  1
  Rh  Rh205  1  0.39484365  -0.00746381  0.00275481  1
  Rh  Rh206  1  0.60754244  0.59774297  0.60396999  1
  Rh  Rh207  1  0.80172768  0.59470524  0.39458207  1
  Rh  Rh208  1  -0.00415849  0.19694598  0.59921489  1
  Rh  Rh209  1  0.39878784  0.40075213  0.19718704  1
  Rh  Rh210  1  0.60034837  0.79706098  0.60671002  1
  Rh  Rh211  1  0.41161092  0.20096218  0.59810081  1
  Rh  Rh212  1  0.20215110  0.59358367  0.40493548  1
  Rh  Rh213  1  0.79805045  0.00726591  0.20050193  1
  Rh  Rh214  1  0.39916851  -0.01254923  0.20176380  1
  Rh  Rh215  1  0.79782272  0.19670159  0.79287422  1
  Rh  Rh216  1  0.19276927  0.60410689  0.19272859  1
  Rh  Rh217  1  0.39449280  0.60535054  0.80286928  1
  Rh  Rh218  1  0.00501801  0.60985786  0.19497563  1
  Rh  Rh219  1  0.20256391  0.40580738  0.60364247  1
  Rh  Rh220  1  0.39837740  0.00121427  0.79983910  1
  Rh  Rh221  1  0.59942486  0.79115779  -0.00918805  1
  Rh  Rh222  1  0.59999087  0.60385369  0.19610424  1
  Rh  Rh223  1  -0.00232392  0.19770450  0.19814689  1
  Rh  Rh224  1  0.19418656  0.18743771  0.61510473  1
  Rh  Rh225  1  0.00075062  0.39566959  0.80092574  1
  Rh  Rh226  1  0.79816904  0.40164532  0.80083692  1
  Rh  Rh227  1  0.19859211  0.39229545  0.80198400  1
  Rh  Rh228  1  0.59224325  0.79703001  0.19744955  1
  Rh  Rh229  1  0.39258799  0.19867226  0.79930778  1
  Rh  Rh230  1  0.20533877  0.40450057  0.19268012  1
  Rh  Rh231  1  -0.00306710  0.60715321  0.79758265  1
  Rh  Rh232  1  -0.01135749  0.80573540  0.00575847  1
  Rh  Rh233  1  0.59372285  0.19655319  0.00632727  1
  Rh  Rh234  1  -0.00524657  0.59933047  0.60633373  1
  Rh  Rh235  1  0.60226826  -0.00889077  0.40245581  1
  Rh  Rh236  1  0.39443782  0.60196955  0.59759228  1
  Rh  Rh237  1  0.19726315  0.00665856  0.18799931  1
  Rh  Rh238  1  -0.00282000  -0.00134661  0.19399702  1
  Rh  Rh239  1  0.79446706  0.39070311  0.59372813  1
  Rh  Rh240  1  -0.00128035  0.40223263  -0.00033151  1
  Rh  Rh241  1  0.79355799  -0.00532280  0.80881648  1
  Rh  Rh242  1  0.19760024  0.18994322  -0.00739108  1
  Rh  Rh243  1  0.79548210  0.59887249  0.00505871  1
  Rh  Rh244  1  0.00813503  0.59466982  0.00305041  1
  Rh  Rh245  1  0.19825817  0.79752327  0.61100976  1
  Rh  Rh246  1  0.00142303  0.59422874  0.40369222  1
  Rh  Rh247  1  0.80342327  0.19681796  -0.00034432  1
  Rh  Rh248  1  0.40241298  0.39912158  0.79333384  1
  Rh  Rh249  1  0.40274918  0.59956445  -0.00131085  1
