# generated using pymatgen
data_ZrScNbPdRh
_symmetry_space_group_name_H-M   'P 1'
_cell_length_a   16.55860186
_cell_length_b   16.55689594
_cell_length_c   16.56140997
_cell_angle_alpha   89.99550451
_cell_angle_beta   89.97477230
_cell_angle_gamma   89.99287221
_symmetry_Int_Tables_number   1
_chemical_formula_structural   ZrScNbPdRh
_chemical_formula_sum   'Zr50 Sc50 Nb50 Pd50 Rh50'
_cell_volume   4540.45989864
_cell_formula_units_Z   50
loop_
 _symmetry_equiv_pos_site_id
 _symmetry_equiv_pos_as_xyz
  1  'x, y, z'
loop_
 _atom_site_type_symbol
 _atom_site_label
 _atom_site_symmetry_multiplicity
 _atom_site_fract_x
 _atom_site_fract_y
 _atom_site_fract_z
 _atom_site_occupancy
  Zr  Zr0  1  0.89761335  0.50171683  0.10947730  1
  Zr  Zr1  1  0.10730284  0.10174470  0.09675247  1
  Zr  Zr2  1  0.69728436  0.50386297  0.49908181  1
  Zr  Zr3  1  0.49776206  0.09842786  0.28661961  1
  Zr  Zr4  1  0.69866122  0.70185954  0.89734530  1
  Zr  Zr5  1  0.69965512  0.49142627  0.69800358  1
  Zr  Zr6  1  0.69726065  0.90714242  0.49429294  1
  Zr  Zr7  1  0.90296663  0.89745389  0.10775591  1
  Zr  Zr8  1  0.69637488  0.89658264  0.09936519  1
  Zr  Zr9  1  0.69520194  0.69672876  0.69773652  1
  Zr  Zr10  1  0.09504296  0.69447703  0.89566301  1
  Zr  Zr11  1  0.30137784  0.30718748  0.30169872  1
  Zr  Zr12  1  0.09868351  0.50334004  0.30593346  1
  Zr  Zr13  1  0.90182147  0.29996555  0.10126170  1
  Zr  Zr14  1  0.89573693  0.09671697  0.10840458  1
  Zr  Zr15  1  0.89613246  0.09699795  0.29746628  1
  Zr  Zr16  1  0.49185552  0.30509029  0.49164691  1
  Zr  Zr17  1  0.10070381  0.29836827  0.90915514  1
  Zr  Zr18  1  0.30155527  0.90671629  0.30983780  1
  Zr  Zr19  1  0.29984644  0.50268334  0.48926160  1
  Zr  Zr20  1  0.69609987  0.10186684  0.69938560  1
  Zr  Zr21  1  0.90496114  0.09222078  0.49299368  1
  Zr  Zr22  1  0.90909059  0.30208042  0.50074697  1
  Zr  Zr23  1  0.48958565  0.68865268  0.89840565  1
  Zr  Zr24  1  0.10266778  0.50313018  0.90268747  1
  Zr  Zr25  1  0.10540474  0.09512508  0.90163259  1
  Zr  Zr26  1  0.69093147  0.89444523  0.70416635  1
  Zr  Zr27  1  0.50239588  0.09345463  0.71032629  1
  Zr  Zr28  1  0.10997797  0.30461817  0.69148488  1
  Zr  Zr29  1  0.10566034  0.71432117  0.69642532  1
  Zr  Zr30  1  0.49446841  0.29415775  0.69271012  1
  Zr  Zr31  1  0.10016985  0.30010188  0.49798858  1
  Zr  Zr32  1  0.89684252  0.89528594  0.90407382  1
  Zr  Zr33  1  0.10342980  0.30174729  0.10159887  1
  Zr  Zr34  1  0.29196042  0.49086396  0.69835000  1
  Zr  Zr35  1  0.30207234  0.70295273  0.09753543  1
  Zr  Zr36  1  0.89068659  0.30600247  0.70218621  1
  Zr  Zr37  1  0.10472197  0.89127880  0.29786307  1
  Zr  Zr38  1  0.10022916  0.49662435  0.09935445  1
  Zr  Zr39  1  0.09749056  0.89645733  0.50411857  1
  Zr  Zr40  1  0.90391365  0.70190904  0.09749235  1
  Zr  Zr41  1  0.10179029  0.90017860  0.10352289  1
  Zr  Zr42  1  0.29887011  0.30655451  0.51225466  1
  Zr  Zr43  1  0.89369218  0.50246864  0.50558465  1
  Zr  Zr44  1  0.50181628  0.10524105  0.09017638  1
  Zr  Zr45  1  0.29470695  0.90146256  0.10385383  1
  Zr  Zr46  1  0.30261209  0.89013467  0.68882248  1
  Zr  Zr47  1  0.09324092  0.51324449  0.70646429  1
  Zr  Zr48  1  0.69319614  0.48999899  0.89631182  1
  Zr  Zr49  1  0.50184699  0.49482066  0.50478498  1
  Sc  Sc50  1  0.90180813  0.09767383  0.70300335  1
  Sc  Sc51  1  0.69408484  0.10385503  0.10892899  1
  Sc  Sc52  1  0.69746801  0.70091069  0.10162837  1
  Sc  Sc53  1  0.68962105  0.90608772  0.29903073  1
  Sc  Sc54  1  0.30366386  0.71099561  0.50065311  1
  Sc  Sc55  1  0.89530878  0.31013768  0.29952019  1
  Sc  Sc56  1  0.90501337  0.51030433  0.90735954  1
  Sc  Sc57  1  0.50049321  0.70433778  0.70617101  1
  Sc  Sc58  1  0.10165440  0.30996231  0.30094003  1
  Sc  Sc59  1  0.30370587  0.09687478  0.09979979  1
  Sc  Sc60  1  0.30329845  0.50973294  0.90255102  1
  Sc  Sc61  1  0.70001196  0.30226929  0.29633400  1
  Sc  Sc62  1  0.30740095  0.10092919  0.29966350  1
  Sc  Sc63  1  0.29363885  0.70434577  0.31111048  1
  Sc  Sc64  1  0.09850417  0.09077804  0.30880039  1
  Sc  Sc65  1  0.30444322  0.09121354  0.49399578  1
  Sc  Sc66  1  0.89948122  0.70283870  0.90773908  1
  Sc  Sc67  1  0.51260083  0.70206148  0.30050313  1
  Sc  Sc68  1  0.69230931  0.30138059  0.88857314  1
  Sc  Sc69  1  0.68353758  0.30300725  0.49526647  1
  Sc  Sc70  1  0.90158865  0.09740869  0.88934255  1
  Sc  Sc71  1  0.09877342  0.71082465  0.10638587  1
  Sc  Sc72  1  0.91032712  0.69802685  0.49917083  1
  Sc  Sc73  1  0.50795032  0.69308386  0.49973458  1
  Sc  Sc74  1  0.50593635  0.10915352  0.49721370  1
  Sc  Sc75  1  0.50490881  0.70319851  0.10335187  1
  Sc  Sc76  1  0.91230214  0.69070353  0.68960110  1
  Sc  Sc77  1  0.69125078  0.10860602  0.89260970  1
  Sc  Sc78  1  0.69416894  0.29449264  0.10244867  1
  Sc  Sc79  1  0.49996873  0.29925069  0.30245659  1
  Sc  Sc80  1  0.09816060  0.89089114  0.89294219  1
  Sc  Sc81  1  0.49959204  0.30229956  0.09177764  1
  Sc  Sc82  1  0.70137663  0.88985436  0.89846249  1
  Sc  Sc83  1  0.09578303  0.49869057  0.49312065  1
  Sc  Sc84  1  0.69848079  0.69223080  0.50120159  1
  Sc  Sc85  1  0.50001742  0.89776403  0.49447490  1
  Sc  Sc86  1  0.49605327  0.49795118  0.31020059  1
  Sc  Sc87  1  0.91081425  0.90906724  0.30093902  1
  Sc  Sc88  1  0.49828985  0.90690655  0.90066212  1
  Sc  Sc89  1  0.30161512  0.49497280  0.09705206  1
  Sc  Sc90  1  0.49800838  0.48883659  0.89999778  1
  Sc  Sc91  1  0.31086993  0.09401814  0.90454534  1
  Sc  Sc92  1  0.50419237  0.90680390  0.09922883  1
  Sc  Sc93  1  0.29723993  0.29971009  0.10292151  1
  Sc  Sc94  1  0.09680525  0.09866193  0.50711487  1
  Sc  Sc95  1  0.31187092  0.09340515  0.69558219  1
  Sc  Sc96  1  0.90779427  0.90224406  0.70767467  1
  Sc  Sc97  1  0.30047774  0.70267982  0.89635360  1
  Sc  Sc98  1  0.70018054  0.09966082  0.29408885  1
  Sc  Sc99  1  0.30280085  0.89976821  0.90558278  1
  Nb  Nb100  1  0.29994764  0.90209481  0.49915456  1
  Nb  Nb101  1  0.89689478  0.29934477  0.89784626  1
  Nb  Nb102  1  0.70434714  0.09855665  0.49767645  1
  Nb  Nb103  1  0.50013201  0.50046640  0.09758397  1
  Nb  Nb104  1  0.69811369  0.49720451  0.09820232  1
  Nb  Nb105  1  0.71407740  0.50321291  0.29563391  1
  Nb  Nb106  1  0.29835026  0.29901926  0.69870218  1
  Nb  Nb107  1  0.89606483  0.89834160  0.49779285  1
  Nb  Nb108  1  0.10538003  0.90243451  0.70084307  1
  Nb  Nb109  1  0.49831563  0.89898400  0.29172830  1
  Nb  Nb110  1  0.90181849  0.69413434  0.30261469  1
  Nb  Nb111  1  0.09178790  0.69871651  0.31281703  1
  Nb  Nb112  1  0.89083936  0.50671372  0.30458037  1
  Nb  Nb113  1  0.89387959  0.50011934  0.69865483  1
  Nb  Nb114  1  0.30286557  0.69876499  0.69681572  1
  Nb  Nb115  1  0.49694806  0.28881476  0.89928326  1
  Nb  Nb116  1  0.29458752  0.50461852  0.29931075  1
  Nb  Nb117  1  0.49965298  0.90282052  0.70396858  1
  Nb  Nb118  1  0.49398588  0.10949281  0.90013154  1
  Nb  Nb119  1  0.30708381  0.29346809  0.89138968  1
  Nb  Nb120  1  0.70710307  0.69748151  0.30107484  1
  Nb  Nb121  1  0.70331058  0.29670904  0.70791556  1
  Nb  Nb122  1  0.49724150  0.49936928  0.70320739  1
  Nb  Nb123  1  0.09577245  0.69844728  0.49826691  1
  Nb  Nb124  1  0.09958138  0.09673297  0.70562869  1
  Nb  Nb125  1  0.00757255  0.20747933  0.79789579  1
  Nb  Nb126  1  0.59864058  0.59133125  0.00238862  1
  Nb  Nb127  1  0.79500667  0.19695187  0.59529018  1
  Nb  Nb128  1  0.39849615  0.80182718  0.20538259  1
  Nb  Nb129  1  0.80230626  0.20113597  -0.00483535  1
  Nb  Nb130  1  0.60215850  0.41287711  0.19691907  1
  Nb  Nb131  1  0.20098626  0.60682662  0.59660865  1
  Nb  Nb132  1  0.80268484  0.79818991  0.39715261  1
  Nb  Nb133  1  0.20184689  0.20354376  0.40396828  1
  Nb  Nb134  1  0.79983308  0.19715607  0.40675145  1
  Nb  Nb135  1  0.39591458  0.59892175  0.60648001  1
  Nb  Nb136  1  0.39652877  0.60114377  0.20295715  1
  Nb  Nb137  1  0.20105927  0.60130119  0.20639054  1
  Nb  Nb138  1  0.79676938  -0.00172540  0.59743188  1
  Nb  Nb139  1  -0.00301836  0.39893270  0.80159805  1
  Nb  Nb140  1  -0.00299771  -0.00236208  0.00130408  1
  Nb  Nb141  1  0.79912437  0.39611725  0.00004143  1
  Nb  Nb142  1  0.80186169  0.80626621  0.59452266  1
  Nb  Nb143  1  0.80074940  0.00429872  0.00151399  1
  Nb  Nb144  1  0.00254472  0.19998147  0.19859758  1
  Nb  Nb145  1  0.80138943  0.79554960  0.21127315  1
  Nb  Nb146  1  0.20036405  -0.00221896  0.79235520  1
  Nb  Nb147  1  0.20388025  0.19748445  0.79483735  1
  Nb  Nb148  1  0.79936995  0.59571127  0.79484942  1
  Nb  Nb149  1  0.39657264  0.39066872  0.79630670  1
  Pd  Pd150  1  0.20223200  0.00351929  0.60091449  1
  Pd  Pd151  1  0.41307173  -0.00122592  0.59317369  1
  Pd  Pd152  1  0.19870836  0.80109918  0.40796353  1
  Pd  Pd153  1  0.21505433  0.19876337  -0.00587888  1
  Pd  Pd154  1  0.59143731  0.79213021  -0.00631062  1
  Pd  Pd155  1  0.00522261  0.40826610  0.60625150  1
  Pd  Pd156  1  0.59175969  0.00871046  0.39349770  1
  Pd  Pd157  1  0.60506248  0.19602860  0.38947669  1
  Pd  Pd158  1  0.00809898  0.60424814  0.20034002  1
  Pd  Pd159  1  0.59588450  -0.00117175  0.59711060  1
  Pd  Pd160  1  0.19690192  0.60686104  0.00857287  1
  Pd  Pd161  1  0.41283365  0.79450814  0.59547437  1
  Pd  Pd162  1  0.79033035  0.59556861  -0.00607652  1
  Pd  Pd163  1  0.40824509  0.80459362  0.00757324  1
  Pd  Pd164  1  0.59546741  0.59536443  0.20082165  1
  Pd  Pd165  1  0.21233047  0.39802754  -0.00511596  1
  Pd  Pd166  1  -0.00705047  0.79374770  0.79697669  1
  Pd  Pd167  1  0.60039348  0.39381190  0.60501392  1
  Pd  Pd168  1  0.60789516  0.00703744  -0.00693621  1
  Pd  Pd169  1  -0.00092831  0.39969724  0.20808280  1
  Pd  Pd170  1  0.39969837  0.80636324  0.80170244  1
  Pd  Pd171  1  0.00208331  0.20321692  0.38736976  1
  Pd  Pd172  1  0.79504595  0.39312400  0.40716828  1
  Pd  Pd173  1  0.78898542  0.38848704  0.59012137  1
  Pd  Pd174  1  0.20652925  0.60760790  0.79548897  1
  Pd  Pd175  1  0.20784810  0.18575985  0.59785394  1
  Pd  Pd176  1  0.81216606  0.78672314  0.78583411  1
  Pd  Pd177  1  0.19411671  0.19522543  0.21394348  1
  Pd  Pd178  1  0.60261188  0.20302340  0.60052533  1
  Pd  Pd179  1  0.39534789  0.39610264  -0.00722529  1
  Pd  Pd180  1  -0.00697070  0.19826687  0.60929461  1
  Pd  Pd181  1  -0.00766006  0.40421226  -0.00397297  1
  Pd  Pd182  1  0.40632232  0.40550364  0.20288573  1
  Pd  Pd183  1  -0.00590488  -0.00562205  0.60271557  1
  Pd  Pd184  1  0.79855403  0.60763581  0.19341817  1
  Pd  Pd185  1  0.19577010  0.79945095  -0.00785981  1
  Pd  Pd186  1  0.60125965  0.59711532  0.80308975  1
  Pd  Pd187  1  -0.00860132  0.19002668  -0.00000736  1
  Pd  Pd188  1  0.20263354  0.00734197  0.20682775  1
  Pd  Pd189  1  0.40304503  0.60781173  0.39970701  1
  Pd  Pd190  1  0.59878858  0.80034313  0.59607145  1
  Pd  Pd191  1  0.19992929  0.39605534  0.80949981  1
  Pd  Pd192  1  0.60607790  0.79891521  0.39842332  1
  Pd  Pd193  1  0.41112016  0.00314127  0.40293963  1
  Pd  Pd194  1  0.60335314  0.59324639  0.39202522  1
  Pd  Pd195  1  0.39816303  0.19088341  0.59409041  1
  Pd  Pd196  1  0.60221057  -0.00364084  0.81128852  1
  Pd  Pd197  1  0.40809710  0.79594037  0.39674068  1
  Pd  Pd198  1  0.40348043  0.20748113  0.19386429  1
  Pd  Pd199  1  0.79240441  0.00059637  0.80168111  1
  Rh  Rh200  1  0.81031765  0.41111978  0.81192427  1
  Rh  Rh201  1  -0.00545751  0.79351082  0.21150595  1
  Rh  Rh202  1  0.39112151  0.20362936  0.40313631  1
  Rh  Rh203  1  0.00764920  0.60452799  0.00818075  1
  Rh  Rh204  1  0.80256045  0.60564835  0.40621835  1
  Rh  Rh205  1  0.59242117  0.20468727  0.79659534  1
  Rh  Rh206  1  0.59170483  0.21074891  0.20216741  1
  Rh  Rh207  1  0.60850751  0.40869919  0.38547773  1
  Rh  Rh208  1  0.39991448  -0.00726348  0.19465466  1
  Rh  Rh209  1  0.00836527  -0.00872517  0.40302049  1
  Rh  Rh210  1  0.19708114  0.60756732  0.40283182  1
  Rh  Rh211  1  0.20306395  0.39405384  0.40279578  1
  Rh  Rh212  1  0.19556684  -0.00906093  -0.00721557  1
  Rh  Rh213  1  0.40384788  0.00168920  0.00270200  1
  Rh  Rh214  1  0.40640778  0.59983295  0.00820546  1
  Rh  Rh215  1  0.00972650  0.00108166  0.80633300  1
  Rh  Rh216  1  0.19799805  0.00265934  0.40658138  1
  Rh  Rh217  1  0.79895603  0.80478209  0.01232500  1
  Rh  Rh218  1  0.39468817  0.58960558  0.79232721  1
  Rh  Rh219  1  0.79239382  0.39825585  0.19260344  1
  Rh  Rh220  1  -0.00446249  0.80256473  0.39810208  1
  Rh  Rh221  1  0.20587520  0.79103765  0.20967872  1
  Rh  Rh222  1  0.78983985  -0.01347902  0.19843539  1
  Rh  Rh223  1  0.58395560  0.38952011  0.79171177  1
  Rh  Rh224  1  -0.00961994  0.40881307  0.39534638  1
  Rh  Rh225  1  0.58732405  0.80223718  0.80602483  1
  Rh  Rh226  1  0.00850767  0.59550150  0.59394821  1
  Rh  Rh227  1  0.80428857  0.19451296  0.79765954  1
  Rh  Rh228  1  0.80660958  0.20638075  0.20521087  1
  Rh  Rh229  1  -0.01138992  0.59888143  0.80281335  1
  Rh  Rh230  1  0.58951393  0.59659637  0.60743581  1
  Rh  Rh231  1  0.20896376  0.80513639  0.80002591  1
  Rh  Rh232  1  0.39584604  0.40103651  0.39639644  1
  Rh  Rh233  1  0.60291944  0.39772021  0.00591328  1
  Rh  Rh234  1  0.60476625  0.20188850  -0.00498517  1
  Rh  Rh235  1  0.59712564  0.00254337  0.19721090  1
  Rh  Rh236  1  0.19148927  0.41474434  0.59173895  1
  Rh  Rh237  1  0.39529699  -0.00639877  0.79925902  1
  Rh  Rh238  1  0.79924437  -0.00046226  0.39765151  1
  Rh  Rh239  1  0.40063942  0.40794658  0.60576814  1
  Rh  Rh240  1  0.00663870  0.80352413  -0.00230419  1
  Rh  Rh241  1  -0.00256035  0.80718799  0.60094871  1
  Rh  Rh242  1  -0.00829659  0.59320103  0.40465626  1
  Rh  Rh243  1  0.01377600  0.00872138  0.19422274  1
  Rh  Rh244  1  0.39707604  0.20232163  0.00602396  1
  Rh  Rh245  1  0.79877267  0.60876705  0.60393857  1
  Rh  Rh246  1  0.60211708  0.80208070  0.20482401  1
  Rh  Rh247  1  0.20032909  0.79781638  0.59251874  1
  Rh  Rh248  1  0.39711197  0.19840052  0.79487996  1
  Rh  Rh249  1  0.20126724  0.41007859  0.19946560  1
