# generated using pymatgen
data_ZrScNbPdRh
_symmetry_space_group_name_H-M   'P 1'
_cell_length_a   16.55905048
_cell_length_b   16.55386833
_cell_length_c   16.55776093
_cell_angle_alpha   89.97906016
_cell_angle_beta   90.01965906
_cell_angle_gamma   89.98901946
_symmetry_Int_Tables_number   1
_chemical_formula_structural   ZrScNbPdRh
_chemical_formula_sum   'Zr50 Sc50 Nb50 Pd50 Rh50'
_cell_volume   4538.75219367
_cell_formula_units_Z   50
loop_
 _symmetry_equiv_pos_site_id
 _symmetry_equiv_pos_as_xyz
  1  'x, y, z'
loop_
 _atom_site_type_symbol
 _atom_site_label
 _atom_site_symmetry_multiplicity
 _atom_site_fract_x
 _atom_site_fract_y
 _atom_site_fract_z
 _atom_site_occupancy
  Zr  Zr0  1  0.51999631  0.90039711  0.89709740  1
  Zr  Zr1  1  0.09743944  0.09785130  0.89945557  1
  Zr  Zr2  1  0.69306286  0.29606775  0.50181764  1
  Zr  Zr3  1  0.50673665  0.70179681  0.09773423  1
  Zr  Zr4  1  0.89982557  0.50728145  0.51553029  1
  Zr  Zr5  1  0.49307595  0.10152523  0.89400658  1
  Zr  Zr6  1  0.50557104  0.49641954  0.89637983  1
  Zr  Zr7  1  0.29976933  0.49900748  0.89223066  1
  Zr  Zr8  1  0.30914311  0.90464857  0.49392737  1
  Zr  Zr9  1  0.29941088  0.28992149  0.89827960  1
  Zr  Zr10  1  0.30494138  0.10828479  0.50890898  1
  Zr  Zr11  1  0.30207556  0.09777481  0.08799902  1
  Zr  Zr12  1  0.70043473  0.30118160  0.09251358  1
  Zr  Zr13  1  0.30486563  0.70843709  0.10187046  1
  Zr  Zr14  1  0.30046308  0.69029341  0.69703313  1
  Zr  Zr15  1  0.50485961  0.30179139  0.30361680  1
  Zr  Zr16  1  0.69903051  0.70093811  0.29263968  1
  Zr  Zr17  1  0.09038124  0.30869146  0.08691089  1
  Zr  Zr18  1  0.29438166  0.30512464  0.50426423  1
  Zr  Zr19  1  0.90287638  0.89916215  0.50156319  1
  Zr  Zr20  1  0.88963816  0.70050099  0.10681086  1
  Zr  Zr21  1  0.69552551  0.70007033  0.49889553  1
  Zr  Zr22  1  0.30049878  0.49869284  0.69225091  1
  Zr  Zr23  1  0.08987134  0.30404209  0.31033304  1
  Zr  Zr24  1  0.09985913  0.69746416  0.70543738  1
  Zr  Zr25  1  0.50316736  0.89659066  0.09604405  1
  Zr  Zr26  1  0.09400487  0.89823787  0.50186044  1
  Zr  Zr27  1  0.08335171  0.90262376  0.90100990  1
  Zr  Zr28  1  0.29460608  0.69726774  0.89708251  1
  Zr  Zr29  1  0.50040228  0.69668285  0.29323505  1
  Zr  Zr30  1  0.28831783  0.50225050  0.08645788  1
  Zr  Zr31  1  0.28876887  0.51032811  0.49866193  1
  Zr  Zr32  1  0.31029102  0.09714432  0.71084979  1
  Zr  Zr33  1  0.89199281  0.10013715  0.30041053  1
  Zr  Zr34  1  0.10707422  0.48962153  0.91630866  1
  Zr  Zr35  1  0.50376703  0.89749661  0.29515283  1
  Zr  Zr36  1  0.50785641  0.30025176  0.89527469  1
  Zr  Zr37  1  0.69396191  0.49739391  0.50538628  1
  Zr  Zr38  1  0.69492943  0.89482072  0.71357618  1
  Zr  Zr39  1  0.90082559  0.28678299  0.90119807  1
  Zr  Zr40  1  0.10241291  0.31098755  0.50359775  1
  Zr  Zr41  1  0.30167315  0.50348087  0.30113562  1
  Zr  Zr42  1  0.89048684  0.09756650  0.50532476  1
  Zr  Zr43  1  0.89593230  0.71025431  0.50422691  1
  Zr  Zr44  1  0.69259191  0.48967445  0.30548578  1
  Zr  Zr45  1  0.30623319  0.29135836  0.10024467  1
  Zr  Zr46  1  0.30710883  0.69816876  0.30121822  1
  Zr  Zr47  1  0.70530239  0.49926116  0.70058400  1
  Zr  Zr48  1  0.10047118  0.09072644  0.10087136  1
  Zr  Zr49  1  0.89020658  0.29599915  0.30220704  1
  Sc  Sc50  1  0.90015688  0.30817979  0.71430176  1
  Sc  Sc51  1  0.49959877  0.09699866  0.09563169  1
  Sc  Sc52  1  0.10431151  0.71396468  0.09976092  1
  Sc  Sc53  1  0.90150175  0.88883161  0.29602292  1
  Sc  Sc54  1  0.49909359  0.29776943  0.50273327  1
  Sc  Sc55  1  0.49837789  0.29721852  0.10283389  1
  Sc  Sc56  1  0.69755256  0.50244767  0.90464900  1
  Sc  Sc57  1  0.70929742  0.70013899  0.70200563  1
  Sc  Sc58  1  0.70202841  0.70571174  0.90450995  1
  Sc  Sc59  1  0.69877914  0.50323705  0.09250751  1
  Sc  Sc60  1  0.89811620  0.50088389  0.89148075  1
  Sc  Sc61  1  0.49952232  0.69038333  0.49269524  1
  Sc  Sc62  1  0.49777771  0.49429957  0.69605260  1
  Sc  Sc63  1  0.69764492  0.90775356  0.29534867  1
  Sc  Sc64  1  0.70935576  0.89915398  0.50318357  1
  Sc  Sc65  1  0.50332813  0.10773990  0.49938427  1
  Sc  Sc66  1  0.08413169  0.49961172  0.69425105  1
  Sc  Sc67  1  0.09522832  0.89977045  0.70775096  1
  Sc  Sc68  1  0.69804719  0.30233672  0.89721347  1
  Sc  Sc69  1  0.89393955  0.49321426  0.09563307  1
  Sc  Sc70  1  0.08730433  0.29328757  0.89401875  1
  Sc  Sc71  1  0.89952288  0.30166285  0.49478096  1
  Sc  Sc72  1  0.09474033  0.71906267  0.29385605  1
  Sc  Sc73  1  0.09948742  0.49224828  0.31077747  1
  Sc  Sc74  1  0.69809722  0.89939511  0.09549442  1
  Sc  Sc75  1  0.29795431  0.90617656  0.90007010  1
  Sc  Sc76  1  0.30977977  0.90126087  0.29301078  1
  Sc  Sc77  1  0.89572816  0.48882944  0.29825601  1
  Sc  Sc78  1  0.89558394  0.69967492  0.90130369  1
  Sc  Sc79  1  0.90094943  0.88734333  0.69576581  1
  Sc  Sc80  1  0.29769528  0.29022558  0.69109120  1
  Sc  Sc81  1  0.10154244  0.69479608  0.50173804  1
  Sc  Sc82  1  0.50269319  0.49815612  0.50128503  1
  Sc  Sc83  1  0.89134774  0.10994122  0.70098909  1
  Sc  Sc84  1  0.89562285  0.90299403  0.09683127  1
  Sc  Sc85  1  0.69919916  0.10689483  0.90690688  1
  Sc  Sc86  1  0.49650936  0.50232020  0.30158747  1
  Sc  Sc87  1  0.70143515  0.29735143  0.69962766  1
  Sc  Sc88  1  0.50582606  0.50221096  0.10132205  1
  Sc  Sc89  1  0.30871105  0.09932256  0.28830143  1
  Sc  Sc90  1  0.50274634  0.90945219  0.48784770  1
  Sc  Sc91  1  0.10837711  0.10490285  0.70736330  1
  Sc  Sc92  1  0.10281410  0.70640852  0.90048309  1
  Sc  Sc93  1  0.89745057  0.29975095  0.09426644  1
  Sc  Sc94  1  0.10020822  0.90014291  0.10969744  1
  Sc  Sc95  1  0.70523489  0.09399547  0.10321498  1
  Sc  Sc96  1  0.31303629  0.30141744  0.29759541  1
  Sc  Sc97  1  0.50439507  0.09515312  0.30663445  1
  Sc  Sc98  1  0.89736820  0.09780320  0.09531648  1
  Sc  Sc99  1  0.09693576  0.10260084  0.50545114  1
  Nb  Nb100  1  0.70362598  0.10390332  0.50891182  1
  Nb  Nb101  1  0.29793739  0.69869706  0.50180324  1
  Nb  Nb102  1  0.30941168  0.90126646  0.69655414  1
  Nb  Nb103  1  0.50030907  0.90623467  0.70595376  1
  Nb  Nb104  1  0.70116161  0.29589706  0.30456734  1
  Nb  Nb105  1  0.50591958  0.29380659  0.70237652  1
  Nb  Nb106  1  0.09912599  0.49681097  0.49630740  1
  Nb  Nb107  1  0.09699126  0.49982349  0.10047519  1
  Nb  Nb108  1  0.70588780  0.10891997  0.30722255  1
  Nb  Nb109  1  0.10447884  0.90618336  0.29854014  1
  Nb  Nb110  1  0.90380278  0.09803666  0.90054831  1
  Nb  Nb111  1  0.70441882  0.10447081  0.68977815  1
  Nb  Nb112  1  0.89453398  0.90482430  0.90073201  1
  Nb  Nb113  1  0.10084220  0.09648994  0.29629732  1
  Nb  Nb114  1  0.90071036  0.67688162  0.69917851  1
  Nb  Nb115  1  0.10084272  0.29937354  0.69954921  1
  Nb  Nb116  1  0.30035037  0.90074482  0.10417384  1
  Nb  Nb117  1  0.70193325  0.69523000  0.09373666  1
  Nb  Nb118  1  0.89635980  0.51441322  0.70380030  1
  Nb  Nb119  1  0.50206861  0.09890277  0.70213109  1
  Nb  Nb120  1  0.89957636  0.69716379  0.30111656  1
  Nb  Nb121  1  0.49906333  0.70280494  0.69988868  1
  Nb  Nb122  1  0.70723539  0.89757361  0.90073979  1
  Nb  Nb123  1  0.29853522  0.10400857  0.89927600  1
  Nb  Nb124  1  0.50108191  0.70287745  0.90005747  1
  Nb  Nb125  1  0.80056973  -0.00121802  0.80637008  1
  Nb  Nb126  1  0.00208072  0.20752335  0.60418934  1
  Nb  Nb127  1  0.60164689  0.00262928  0.60735461  1
  Nb  Nb128  1  0.20336464  0.80580265  0.40316022  1
  Nb  Nb129  1  0.80116505  0.60199318  0.39830396  1
  Nb  Nb130  1  0.00307368  0.19880548  0.20353845  1
  Nb  Nb131  1  0.19022335  0.20388181  0.20146988  1
  Nb  Nb132  1  0.40192296  0.60159565  -0.00559461  1
  Nb  Nb133  1  0.59066520  0.80578440  0.60631505  1
  Nb  Nb134  1  0.20627137  -0.00561896  0.60008407  1
  Nb  Nb135  1  0.40523847  0.80177138  0.79526252  1
  Nb  Nb136  1  0.40413992  0.80127122  0.60242841  1
  Nb  Nb137  1  -0.00742277  0.60365353  0.39617610  1
  Nb  Nb138  1  0.60972531  0.20043996  0.20906766  1
  Nb  Nb139  1  0.00142928  0.59864380  0.20045215  1
  Nb  Nb140  1  0.19261115  0.59700228  0.19829087  1
  Nb  Nb141  1  0.19830138  0.19656265  0.39378185  1
  Nb  Nb142  1  0.20980444  0.80261612  0.59938323  1
  Nb  Nb143  1  0.19563971  0.39415083  0.79459618  1
  Nb  Nb144  1  0.19731510  0.39831074  0.19635863  1
  Nb  Nb145  1  0.19820520  0.00262775  0.39825103  1
  Nb  Nb146  1  0.00303706  0.00011236  0.39445204  1
  Nb  Nb147  1  0.39908370  0.40180215  -0.00571124  1
  Nb  Nb148  1  0.00299073  0.59996178  0.00968140  1
  Nb  Nb149  1  0.59576034  0.60663776  0.79937091  1
  Pd  Pd150  1  0.00495716  0.01121407  0.60852212  1
  Pd  Pd151  1  0.60496859  0.59488191  0.19982044  1
  Pd  Pd152  1  -0.00875445  0.39604672  0.60520817  1
  Pd  Pd153  1  0.79435502  0.80048114  0.39370090  1
  Pd  Pd154  1  0.79660112  0.40122927  0.80524305  1
  Pd  Pd155  1  0.40296538  0.79472907  0.40299513  1
  Pd  Pd156  1  -0.01160310  0.00001592  0.20311319  1
  Pd  Pd157  1  -0.00800888  0.79701278  0.00600493  1
  Pd  Pd158  1  0.61166917  0.00604903  0.40917373  1
  Pd  Pd159  1  -0.01250906  0.00657098  0.78842924  1
  Pd  Pd160  1  0.40924567  0.00120170  0.59612767  1
  Pd  Pd161  1  0.60285087  0.00930503  0.19919963  1
  Pd  Pd162  1  0.19008889  0.20090970  0.00195846  1
  Pd  Pd163  1  0.80058149  0.58866780  0.20446436  1
  Pd  Pd164  1  0.60272291  0.39449154  0.19587596  1
  Pd  Pd165  1  0.59732554  0.19597538  0.00886644  1
  Pd  Pd166  1  0.40401163  0.39548325  0.59842696  1
  Pd  Pd167  1  0.20052352  0.81059372  -0.00153568  1
  Pd  Pd168  1  0.80032474  0.40586911  0.40924704  1
  Pd  Pd169  1  0.18681529  0.58444150  0.79615103  1
  Pd  Pd170  1  0.00906598  0.59601333  0.81688826  1
  Pd  Pd171  1  0.79650728  -0.01012592  0.61352853  1
  Pd  Pd172  1  0.19578409  -0.01001493  -0.00072794  1
  Pd  Pd173  1  0.00120030  0.19136881  0.40485317  1
  Pd  Pd174  1  0.60883267  0.19481957  0.79617849  1
  Pd  Pd175  1  -0.01103002  0.79230747  0.80031357  1
  Pd  Pd176  1  0.60037953  0.80331639  0.40325287  1
  Pd  Pd177  1  0.80468936  0.39351671  0.60498950  1
  Pd  Pd178  1  0.39365032  0.38821110  0.79594841  1
  Pd  Pd179  1  0.80082412  0.20044188  0.18985258  1
  Pd  Pd180  1  0.81031331  0.79602732  0.79891940  1
  Pd  Pd181  1  0.18567217  0.61289126  0.38764835  1
  Pd  Pd182  1  0.61304508  0.01492229  0.80055827  1
  Pd  Pd183  1  0.79284282  0.40026483  0.19526666  1
  Pd  Pd184  1  0.80179975  0.40052751  -0.01075575  1
  Pd  Pd185  1  0.40513139  0.00172585  0.19520447  1
  Pd  Pd186  1  0.39817531  0.80333972  -0.00983423  1
  Pd  Pd187  1  0.59917309  0.60484747  0.60831949  1
  Pd  Pd188  1  0.20600728  0.80961712  0.79511858  1
  Pd  Pd189  1  0.20136928  -0.00556311  0.79764129  1
  Pd  Pd190  1  0.80230029  -0.00734998  0.39584861  1
  Pd  Pd191  1  0.79692808  0.00399962  -0.00427106  1
  Pd  Pd192  1  0.40345088  -0.00763987  -0.00746438  1
  Pd  Pd193  1  -0.00021020  0.39902740  0.20100160  1
  Pd  Pd194  1  0.39515006  0.41007613  0.18912067  1
  Pd  Pd195  1  0.39849564  0.40625255  0.40884135  1
  Pd  Pd196  1  0.40763348  0.60303516  0.80124390  1
  Pd  Pd197  1  0.39562544  0.19782994  0.39664288  1
  Pd  Pd198  1  0.00546381  0.78963606  0.60629755  1
  Pd  Pd199  1  0.79376050  0.80768281  0.19654784  1
  Rh  Rh200  1  0.80916252  0.21215614  0.59935502  1
  Rh  Rh201  1  0.40333249  0.60090122  0.59320159  1
  Rh  Rh202  1  0.00605330  0.60431999  0.59223951  1
  Rh  Rh203  1  0.79933044  0.79986430  0.00242978  1
  Rh  Rh204  1  0.78852673  0.60063137  0.80774016  1
  Rh  Rh205  1  0.19587247  0.61643635  0.00771061  1
  Rh  Rh206  1  0.79601380  0.19307187  0.80446860  1
  Rh  Rh207  1  0.40008093  -0.00472642  0.81054388  1
  Rh  Rh208  1  0.19372811  0.41024982  0.60849438  1
  Rh  Rh209  1  0.40954976  0.20439087  0.60741717  1
  Rh  Rh210  1  0.59681320  0.60562982  -0.00653894  1
  Rh  Rh211  1  0.40204939  0.20363637  0.79615802  1
  Rh  Rh212  1  -0.00155054  -0.00286395  0.00342480  1
  Rh  Rh213  1  0.21167797  0.00282568  0.19885863  1
  Rh  Rh214  1  0.00520610  0.80197954  0.39835554  1
  Rh  Rh215  1  0.79534441  0.79711751  0.60695722  1
  Rh  Rh216  1  0.21046859  0.80090861  0.20789551  1
  Rh  Rh217  1  0.39745384  0.00979671  0.39573087  1
  Rh  Rh218  1  0.19192383  0.19332830  0.59477245  1
  Rh  Rh219  1  0.60366851  0.19834106  0.39935928  1
  Rh  Rh220  1  0.59537474  0.19607768  0.60413731  1
  Rh  Rh221  1  -0.01364679  0.40727219  -0.00953409  1
  Rh  Rh222  1  0.40471734  0.80420655  0.19803413  1
  Rh  Rh223  1  0.60471401  0.00161709  -0.00281488  1
  Rh  Rh224  1  0.60588704  0.79844893  0.19432665  1
  Rh  Rh225  1  -0.00050666  0.18936028  0.00619965  1
  Rh  Rh226  1  0.59703515  0.39357604  0.60548330  1
  Rh  Rh227  1  0.41518997  0.19234761  0.20173538  1
  Rh  Rh228  1  0.59432704  0.39758028  0.00316770  1
  Rh  Rh229  1  0.79972417  -0.00211749  0.20308536  1
  Rh  Rh230  1  0.19011950  0.59852317  0.60251567  1
  Rh  Rh231  1  0.20782507  0.38400559  -0.00272237  1
  Rh  Rh232  1  0.80088460  0.19854739  -0.00073534  1
  Rh  Rh233  1  0.80671561  0.60125279  -0.00222018  1
  Rh  Rh234  1  0.19929539  0.20303627  0.80219408  1
  Rh  Rh235  1  0.39223211  0.59577420  0.18762297  1
  Rh  Rh236  1  0.60907281  0.79759092  0.00245558  1
  Rh  Rh237  1  -0.00105280  0.19437983  0.79255874  1
  Rh  Rh238  1  0.00500038  0.40377358  0.80172312  1
  Rh  Rh239  1  0.60352267  0.59673975  0.39336897  1
  Rh  Rh240  1  0.79143298  0.60563569  0.59410025  1
  Rh  Rh241  1  0.21117336  0.39073235  0.39121066  1
  Rh  Rh242  1  -0.01323516  0.41362106  0.40802383  1
  Rh  Rh243  1  0.40253090  0.59540363  0.40605233  1
  Rh  Rh244  1  0.59529757  0.39663906  0.40492010  1
  Rh  Rh245  1  0.79598317  0.20127953  0.41174337  1
  Rh  Rh246  1  0.59748805  0.79031064  0.79795487  1
  Rh  Rh247  1  0.40872224  0.20461521  -0.00625799  1
  Rh  Rh248  1  -0.00570480  0.79952591  0.19514889  1
  Rh  Rh249  1  0.60540806  0.40709069  0.79148692  1
