# generated using pymatgen
data_ZrScNbPdRh
_symmetry_space_group_name_H-M   'P 1'
_cell_length_a   16.56126218
_cell_length_b   16.56243193
_cell_length_c   16.55707457
_cell_angle_alpha   90.00835147
_cell_angle_beta   90.02102763
_cell_angle_gamma   89.99680739
_symmetry_Int_Tables_number   1
_chemical_formula_structural   ZrScNbPdRh
_chemical_formula_sum   'Zr50 Sc50 Nb50 Pd50 Rh50'
_cell_volume   4541.51872350
_cell_formula_units_Z   50
loop_
 _symmetry_equiv_pos_site_id
 _symmetry_equiv_pos_as_xyz
  1  'x, y, z'
loop_
 _atom_site_type_symbol
 _atom_site_label
 _atom_site_symmetry_multiplicity
 _atom_site_fract_x
 _atom_site_fract_y
 _atom_site_fract_z
 _atom_site_occupancy
  Zr  Zr0  1  0.49876812  0.90496404  0.49616999  1
  Zr  Zr1  1  0.70934031  0.69799938  0.50414063  1
  Zr  Zr2  1  0.90005558  0.09782622  0.89295844  1
  Zr  Zr3  1  0.50235472  0.29255307  0.70192341  1
  Zr  Zr4  1  0.90684057  0.69389214  0.49682958  1
  Zr  Zr5  1  0.70482013  0.50161484  0.90831880  1
  Zr  Zr6  1  0.09799160  0.50484494  0.49837508  1
  Zr  Zr7  1  0.88981197  0.91322119  0.70306733  1
  Zr  Zr8  1  0.30235864  0.89753722  0.69851905  1
  Zr  Zr9  1  0.50057116  0.10032216  0.70318467  1
  Zr  Zr10  1  0.29383380  0.30560302  0.69136678  1
  Zr  Zr11  1  0.70504930  0.89783312  0.89899900  1
  Zr  Zr12  1  0.50284973  0.49750308  0.49211921  1
  Zr  Zr13  1  0.70519242  0.30351652  0.30080468  1
  Zr  Zr14  1  0.69121800  0.10802474  0.48761961  1
  Zr  Zr15  1  0.29615985  0.29012283  0.09865003  1
  Zr  Zr16  1  0.90522797  0.70326563  0.29991674  1
  Zr  Zr17  1  0.50016821  0.10303054  0.88871192  1
  Zr  Zr18  1  0.70107697  0.29988904  0.90586248  1
  Zr  Zr19  1  0.90465727  0.49859496  0.89609786  1
  Zr  Zr20  1  0.89089117  0.30538011  0.10374439  1
  Zr  Zr21  1  0.69870448  0.90629036  0.29467433  1
  Zr  Zr22  1  0.70075273  0.09429774  0.70821850  1
  Zr  Zr23  1  0.29246285  0.90519101  0.89866615  1
  Zr  Zr24  1  0.29597291  0.49578068  0.69938796  1
  Zr  Zr25  1  0.49608073  0.90351368  0.70167914  1
  Zr  Zr26  1  0.69943855  0.91960200  0.09840872  1
  Zr  Zr27  1  0.29120007  0.69365481  0.29639071  1
  Zr  Zr28  1  0.89486850  0.70528663  0.90439051  1
  Zr  Zr29  1  0.70577414  0.69383192  0.30204798  1
  Zr  Zr30  1  0.11042742  0.10117629  0.10138611  1
  Zr  Zr31  1  0.29908508  0.09823810  0.09709554  1
  Zr  Zr32  1  0.50188535  0.50162285  0.10817493  1
  Zr  Zr33  1  0.49964331  0.09837658  0.10375905  1
  Zr  Zr34  1  0.51115099  0.10006371  0.30742545  1
  Zr  Zr35  1  0.50276481  0.70281078  0.91264591  1
  Zr  Zr36  1  0.29757130  0.09963402  0.89801418  1
  Zr  Zr37  1  0.49805388  0.10283751  0.49376670  1
  Zr  Zr38  1  0.29764507  0.70088863  0.70299555  1
  Zr  Zr39  1  0.30150381  0.50015637  0.10233046  1
  Zr  Zr40  1  0.09323913  0.89911593  0.90749345  1
  Zr  Zr41  1  0.90162506  0.11022398  0.70692394  1
  Zr  Zr42  1  0.29516859  0.30559782  0.49862642  1
  Zr  Zr43  1  0.49646351  0.89544654  0.09979986  1
  Zr  Zr44  1  0.90019291  0.49312631  0.69735942  1
  Zr  Zr45  1  0.90059722  0.90214187  0.90171884  1
  Zr  Zr46  1  0.30826336  0.50282189  0.30062469  1
  Zr  Zr47  1  0.89648024  0.10250814  0.50234556  1
  Zr  Zr48  1  0.49871191  0.50457399  0.90831246  1
  Zr  Zr49  1  0.70429728  0.90100639  0.50866381  1
  Sc  Sc50  1  0.49896052  0.69815272  0.49318606  1
  Sc  Sc51  1  0.10210050  0.70580598  0.10645986  1
  Sc  Sc52  1  0.49642713  0.68776412  0.30176802  1
  Sc  Sc53  1  0.09296272  0.09163557  0.89530468  1
  Sc  Sc54  1  0.70944871  0.50192924  0.49572373  1
  Sc  Sc55  1  0.09919916  0.29776648  0.31335381  1
  Sc  Sc56  1  0.29613252  0.89703539  0.50360395  1
  Sc  Sc57  1  0.89510583  0.30300861  0.30551093  1
  Sc  Sc58  1  0.90636259  0.69290117  0.68909441  1
  Sc  Sc59  1  0.29642467  0.89233067  0.29628793  1
  Sc  Sc60  1  0.50611535  0.29799011  0.49144344  1
  Sc  Sc61  1  0.88609590  0.09820639  0.10138374  1
  Sc  Sc62  1  0.10253068  0.49015085  0.09217429  1
  Sc  Sc63  1  0.50456803  0.90045946  0.90254035  1
  Sc  Sc64  1  0.09862984  0.30157852  0.50763921  1
  Sc  Sc65  1  0.49450947  0.90264524  0.29838354  1
  Sc  Sc66  1  0.70576611  0.30061780  0.10675283  1
  Sc  Sc67  1  0.90501744  0.89708274  0.09913283  1
  Sc  Sc68  1  0.90432597  0.10039276  0.29813957  1
  Sc  Sc69  1  0.29592856  0.89965360  0.10408776  1
  Sc  Sc70  1  0.10265444  0.89845267  0.10079950  1
  Sc  Sc71  1  0.70803811  0.49569254  0.10457858  1
  Sc  Sc72  1  0.70860579  0.69366836  0.09240371  1
  Sc  Sc73  1  0.30253270  0.70332178  0.10409638  1
  Sc  Sc74  1  0.10616589  0.51038308  0.30177067  1
  Sc  Sc75  1  0.29685061  0.49451363  0.49898558  1
  Sc  Sc76  1  0.90155206  0.89245148  0.50146842  1
  Sc  Sc77  1  0.90464211  0.89754931  0.29530925  1
  Sc  Sc78  1  0.29392487  0.49788340  0.89414727  1
  Sc  Sc79  1  0.30010985  0.09268052  0.70347218  1
  Sc  Sc80  1  0.90258825  0.69952373  0.10519812  1
  Sc  Sc81  1  0.29862233  0.10098729  0.29531420  1
  Sc  Sc82  1  0.71195246  0.29388621  0.70036398  1
  Sc  Sc83  1  0.09959585  0.89517963  0.49757668  1
  Sc  Sc84  1  0.31006578  0.69485135  0.89967018  1
  Sc  Sc85  1  0.29718532  0.09721257  0.49380369  1
  Sc  Sc86  1  0.09694051  0.69397220  0.89412631  1
  Sc  Sc87  1  0.49318259  0.71076265  0.70978340  1
  Sc  Sc88  1  0.09759937  0.89708841  0.29511498  1
  Sc  Sc89  1  0.69951729  0.89174487  0.70425120  1
  Sc  Sc90  1  0.29738375  0.70021117  0.49265408  1
  Sc  Sc91  1  0.90042113  0.50068911  0.50299378  1
  Sc  Sc92  1  0.09918355  0.70018722  0.30487457  1
  Sc  Sc93  1  0.29596529  0.29483984  0.90049649  1
  Sc  Sc94  1  0.10008080  0.09281512  0.30262975  1
  Sc  Sc95  1  0.90214849  0.50751873  0.30076087  1
  Sc  Sc96  1  0.10083864  0.10490842  0.49388107  1
  Sc  Sc97  1  0.89525550  0.30059941  0.89100320  1
  Sc  Sc98  1  0.10315301  0.89992003  0.68684042  1
  Sc  Sc99  1  0.49935662  0.30891014  0.29594618  1
  Nb  Nb100  1  0.49754344  0.70483284  0.09812926  1
  Nb  Nb101  1  0.50169204  0.29790082  0.89747062  1
  Nb  Nb102  1  0.90879819  0.29327415  0.69128451  1
  Nb  Nb103  1  0.69702806  0.09562799  0.90910531  1
  Nb  Nb104  1  0.10063479  0.50557808  0.71750542  1
  Nb  Nb105  1  0.30163363  0.30779694  0.29473058  1
  Nb  Nb106  1  0.69642254  0.10224807  0.10485198  1
  Nb  Nb107  1  0.51023009  0.50210022  0.30414346  1
  Nb  Nb108  1  0.09701800  0.69947763  0.69803900  1
  Nb  Nb109  1  0.70793993  0.30474799  0.49670421  1
  Nb  Nb110  1  0.10549581  0.30867015  0.90722399  1
  Nb  Nb111  1  0.08578580  0.11175882  0.69839434  1
  Nb  Nb112  1  0.49439513  0.30015376  0.09630402  1
  Nb  Nb113  1  0.69903691  0.50307006  0.69837272  1
  Nb  Nb114  1  0.90094423  0.50024028  0.09878184  1
  Nb  Nb115  1  0.69954605  0.69794072  0.70177980  1
  Nb  Nb116  1  0.10176715  0.49742977  0.89612919  1
  Nb  Nb117  1  0.50028183  0.49494658  0.69696650  1
  Nb  Nb118  1  0.10465813  0.29921974  0.09357501  1
  Nb  Nb119  1  0.70437349  0.70052917  0.89336990  1
  Nb  Nb120  1  0.69862018  0.09831529  0.28703678  1
  Nb  Nb121  1  0.89005999  0.30332944  0.51065005  1
  Nb  Nb122  1  0.09226842  0.70277849  0.51500894  1
  Nb  Nb123  1  0.09530394  0.29760073  0.70095783  1
  Nb  Nb124  1  0.68533908  0.50096986  0.30336286  1
  Nb  Nb125  1  0.19504338  0.59516210  -0.00250060  1
  Nb  Nb126  1  0.00124571  0.80088448  0.79440754  1
  Nb  Nb127  1  0.39902242  0.20164483  0.59696269  1
  Nb  Nb128  1  0.60517067  0.80025220  0.39543739  1
  Nb  Nb129  1  0.59881888  0.19858724  0.00367248  1
  Nb  Nb130  1  0.18780060  0.20276108  0.79456020  1
  Nb  Nb131  1  0.00383090  0.20814785  0.19183060  1
  Nb  Nb132  1  0.00248866  0.20613370  0.00340075  1
  Nb  Nb133  1  0.19459658  0.79843374  0.79744908  1
  Nb  Nb134  1  0.60704203  0.40150715  0.60198138  1
  Nb  Nb135  1  0.40720007  0.39641616  0.80222314  1
  Nb  Nb136  1  0.60367858  0.60014344  0.79903078  1
  Nb  Nb137  1  0.00512345  0.39624144  0.19632699  1
  Nb  Nb138  1  0.00268223  0.59293189  -0.00146797  1
  Nb  Nb139  1  0.79449694  0.60326808  0.79753668  1
  Nb  Nb140  1  0.19924307  0.39322436  0.20034102  1
  Nb  Nb141  1  0.40422885  0.39490724  -0.00041282  1
  Nb  Nb142  1  0.59979007  0.79547842  0.19842968  1
  Nb  Nb143  1  0.59914898  0.00220256  0.59884890  1
  Nb  Nb144  1  0.19576187  0.60181727  0.60640626  1
  Nb  Nb145  1  0.40101133  0.59458535  0.60293805  1
  Nb  Nb146  1  0.59959238  0.40388476  0.79847379  1
  Nb  Nb147  1  0.79572103  0.00262546  0.39728379  1
  Nb  Nb148  1  -0.00291721  0.00879900  0.60182188  1
  Nb  Nb149  1  0.59808957  0.59844606  0.60749606  1
  Pd  Pd150  1  0.60159211  0.20225421  0.59752146  1
  Pd  Pd151  1  0.40365315  0.79807258  0.39392981  1
  Pd  Pd152  1  0.00574996  0.40398670  0.60146518  1
  Pd  Pd153  1  0.79578002  0.40025602  0.79405799  1
  Pd  Pd154  1  0.40356608  0.19916489  0.20854706  1
  Pd  Pd155  1  0.59831795  0.21003251  0.19886565  1
  Pd  Pd156  1  0.19740766  0.40302222  0.39310971  1
  Pd  Pd157  1  0.20498617  0.20017521  0.39558417  1
  Pd  Pd158  1  0.60309741  0.60797855  0.19204441  1
  Pd  Pd159  1  0.80011780  0.80809581  0.39663734  1
  Pd  Pd160  1  -0.00643994  0.20713769  0.40209669  1
  Pd  Pd161  1  0.40159666  0.79054856  0.59242178  1
  Pd  Pd162  1  0.19204978  0.20447557  0.21298557  1
  Pd  Pd163  1  0.40635976  0.59438095  0.79639188  1
  Pd  Pd164  1  0.80477084  0.41111087  0.39571909  1
  Pd  Pd165  1  0.61201497  0.79996555  0.00811344  1
  Pd  Pd166  1  0.79298941  0.19447046  0.60145479  1
  Pd  Pd167  1  0.60510653  0.60236458  0.00501019  1
  Pd  Pd168  1  -0.00433328  0.40093024  0.39661463  1
  Pd  Pd169  1  0.79515086  0.80297566  0.19221276  1
  Pd  Pd170  1  0.40250592  0.39872538  0.39841364  1
  Pd  Pd171  1  0.01017915  0.59269642  0.19144292  1
  Pd  Pd172  1  0.39823352  0.00192092  0.20574507  1
  Pd  Pd173  1  0.19060879  0.00934821  0.59835950  1
  Pd  Pd174  1  -0.00726669  0.39771022  0.00113976  1
  Pd  Pd175  1  0.40316940  -0.00303629  -0.00470378  1
  Pd  Pd176  1  0.80920748  0.79483842  0.60691515  1
  Pd  Pd177  1  0.18767682  -0.00003413  0.79133818  1
  Pd  Pd178  1  0.39421354  0.20707481  0.39736872  1
  Pd  Pd179  1  0.38774634  -0.00364614  0.39322372  1
  Pd  Pd180  1  0.19291594  0.79701934  0.40174784  1
  Pd  Pd181  1  0.80215142  0.19432649  0.39186477  1
  Pd  Pd182  1  0.59719568  0.79877422  0.80349979  1
  Pd  Pd183  1  0.20419928  0.19137731  0.60343814  1
  Pd  Pd184  1  0.20186424  -0.00608600  0.39692507  1
  Pd  Pd185  1  0.80033081  0.59431096  0.20357793  1
  Pd  Pd186  1  0.79981778  0.19688510  -0.00153813  1
  Pd  Pd187  1  0.38937603  0.80535984  -0.00187508  1
  Pd  Pd188  1  0.40308398  0.60458430  0.19934858  1
  Pd  Pd189  1  0.59173269  0.79720242  0.59478980  1
  Pd  Pd190  1  -0.00294603  0.01085029  0.01214422  1
  Pd  Pd191  1  0.40085232  0.00809171  0.59609911  1
  Pd  Pd192  1  -0.00613690  -0.00490375  0.40732290  1
  Pd  Pd193  1  0.60199203  0.39550230  0.19743410  1
  Pd  Pd194  1  0.59801707  0.39392008  0.00453910  1
  Pd  Pd195  1  0.00156419  0.39166380  0.79793017  1
  Pd  Pd196  1  0.40478184  0.20062059  -0.00443200  1
  Pd  Pd197  1  0.20121726  0.78703997  -0.00745057  1
  Pd  Pd198  1  -0.00064762  0.00683227  0.19379617  1
  Pd  Pd199  1  0.79696699  0.80573875  0.01041767  1
  Rh  Rh200  1  0.60476552  -0.00869743  0.79787286  1
  Rh  Rh201  1  0.39643675  0.59421820  0.40494992  1
  Rh  Rh202  1  0.39712266  0.39898887  0.19502660  1
  Rh  Rh203  1  0.40623200  0.79339021  0.20356770  1
  Rh  Rh204  1  -0.00970741  0.60703582  0.80462182  1
  Rh  Rh205  1  0.20103588  0.38954942  0.79971086  1
  Rh  Rh206  1  -0.00170968  0.20139505  0.58808164  1
  Rh  Rh207  1  0.58960832  -0.00464346  0.19777662  1
  Rh  Rh208  1  0.00168101  0.79967740  0.20018510  1
  Rh  Rh209  1  0.79235712  0.00289706  0.80819775  1
  Rh  Rh210  1  0.60840441  -0.00903802  0.40390162  1
  Rh  Rh211  1  0.19969582  0.79853069  0.20285638  1
  Rh  Rh212  1  0.80175276  0.59463747  0.39548640  1
  Rh  Rh213  1  0.40175698  -0.00659579  0.80619010  1
  Rh  Rh214  1  0.00705332  0.58737096  0.60569600  1
  Rh  Rh215  1  0.80720331  0.00192739  0.20558678  1
  Rh  Rh216  1  0.38179266  0.20844512  0.79026812  1
  Rh  Rh217  1  0.39409992  0.80836409  0.81102477  1
  Rh  Rh218  1  0.80409497  0.40280282  0.00149039  1
  Rh  Rh219  1  0.79829423  0.59862758  0.60354792  1
  Rh  Rh220  1  0.00770290  -0.01216527  0.78727862  1
  Rh  Rh221  1  0.00708261  0.21359284  0.81459697  1
  Rh  Rh222  1  0.79706986  0.01005665  0.59296785  1
  Rh  Rh223  1  0.60426178  0.21208310  0.38828440  1
  Rh  Rh224  1  0.00230277  0.79045735  -0.00255346  1
  Rh  Rh225  1  0.41132048  0.39350133  0.60077070  1
  Rh  Rh226  1  0.80406085  0.19609194  0.20645788  1
  Rh  Rh227  1  0.20322627  0.79218730  0.60068212  1
  Rh  Rh228  1  0.79755164  0.39734223  0.60288548  1
  Rh  Rh229  1  0.79672547  0.19817270  0.80471635  1
  Rh  Rh230  1  0.59360773  0.00852308  -0.00041855  1
  Rh  Rh231  1  0.39332122  0.59607105  0.00688049  1
  Rh  Rh232  1  0.81029306  0.59619906  -0.00329043  1
  Rh  Rh233  1  0.81170324  0.79166930  0.79046356  1
  Rh  Rh234  1  -0.00638961  0.81165764  0.60653787  1
  Rh  Rh235  1  0.60738018  0.39691854  0.40426681  1
  Rh  Rh236  1  0.19898552  0.00157448  0.00279573  1
  Rh  Rh237  1  0.20206288  -0.00406496  0.20134565  1
  Rh  Rh238  1  0.61313971  0.20254539  0.81009585  1
  Rh  Rh239  1  0.00369589  0.79733471  0.40109850  1
  Rh  Rh240  1  0.80423695  0.41163435  0.20887145  1
  Rh  Rh241  1  0.80424463  0.00151883  -0.00186661  1
  Rh  Rh242  1  0.19657116  0.59388925  0.19137668  1
  Rh  Rh243  1  0.21284446  0.40627038  0.00243340  1
  Rh  Rh244  1  0.00185479  0.60320663  0.40037773  1
  Rh  Rh245  1  0.19642753  0.60723040  0.41268458  1
  Rh  Rh246  1  0.19997031  0.60829610  0.80258186  1
  Rh  Rh247  1  0.18884186  0.18891081  -0.01605768  1
  Rh  Rh248  1  0.18261925  0.41240868  0.60638417  1
  Rh  Rh249  1  0.60646162  0.60600492  0.40835921  1
