# generated using pymatgen
data_ZrScNbPdRh
_symmetry_space_group_name_H-M   'P 1'
_cell_length_a   16.55625607
_cell_length_b   16.56244584
_cell_length_c   16.56177693
_cell_angle_alpha   89.97911556
_cell_angle_beta   90.03267130
_cell_angle_gamma   89.97936584
_symmetry_Int_Tables_number   1
_chemical_formula_structural   ZrScNbPdRh
_chemical_formula_sum   'Zr50 Sc50 Nb50 Pd50 Rh50'
_cell_volume   4541.43820518
_cell_formula_units_Z   50
loop_
 _symmetry_equiv_pos_site_id
 _symmetry_equiv_pos_as_xyz
  1  'x, y, z'
loop_
 _atom_site_type_symbol
 _atom_site_label
 _atom_site_symmetry_multiplicity
 _atom_site_fract_x
 _atom_site_fract_y
 _atom_site_fract_z
 _atom_site_occupancy
  Zr  Zr0  1  0.29776877  0.09546966  0.50932986  1
  Zr  Zr1  1  0.70164565  0.50462502  0.30441409  1
  Zr  Zr2  1  0.09145555  0.30157813  0.89826958  1
  Zr  Zr3  1  0.30073948  0.09699973  0.88803928  1
  Zr  Zr4  1  0.50659182  0.90177954  0.29869001  1
  Zr  Zr5  1  0.70734437  0.29416118  0.10063284  1
  Zr  Zr6  1  0.30554735  0.30427862  0.49278859  1
  Zr  Zr7  1  0.30746784  0.70651121  0.29588825  1
  Zr  Zr8  1  0.29958092  0.89637932  0.91096005  1
  Zr  Zr9  1  0.89154763  0.29663856  0.49287939  1
  Zr  Zr10  1  0.09332487  0.90819070  0.29858216  1
  Zr  Zr11  1  0.69928130  0.90190864  0.89935507  1
  Zr  Zr12  1  0.71476954  0.69630865  0.09949996  1
  Zr  Zr13  1  0.10380040  0.70160130  0.50520512  1
  Zr  Zr14  1  0.29579655  0.49972926  0.90309821  1
  Zr  Zr15  1  0.50979926  0.50204269  0.29689313  1
  Zr  Zr16  1  0.70260732  0.30753048  0.29596907  1
  Zr  Zr17  1  0.90110464  0.91368332  0.50389421  1
  Zr  Zr18  1  0.69219167  0.49360890  0.49572804  1
  Zr  Zr19  1  0.89604448  0.10119162  0.49869462  1
  Zr  Zr20  1  0.30703059  0.10158063  0.30166322  1
  Zr  Zr21  1  0.70229607  0.90246217  0.29836573  1
  Zr  Zr22  1  0.90180513  0.90071608  0.30225666  1
  Zr  Zr23  1  0.69982538  0.69631551  0.50262834  1
  Zr  Zr24  1  0.29893140  0.48648786  0.29853328  1
  Zr  Zr25  1  0.49632614  0.49245309  0.10026724  1
  Zr  Zr26  1  0.88900488  0.70113508  0.30024950  1
  Zr  Zr27  1  0.50027547  0.49957257  0.68558871  1
  Zr  Zr28  1  0.89703060  0.10361934  0.90335317  1
  Zr  Zr29  1  0.90301864  0.09181170  0.70088881  1
  Zr  Zr30  1  0.49875180  0.30793719  0.49926507  1
  Zr  Zr31  1  0.50237009  0.69301085  0.50737410  1
  Zr  Zr32  1  0.70062590  0.70501626  0.69987631  1
  Zr  Zr33  1  0.90322002  0.70015726  0.69747357  1
  Zr  Zr34  1  0.30361063  0.30485458  0.89333216  1
  Zr  Zr35  1  0.09510701  0.69994466  0.09180924  1
  Zr  Zr36  1  0.29528043  0.90353218  0.29975081  1
  Zr  Zr37  1  0.29928850  0.50181779  0.10055791  1
  Zr  Zr38  1  0.69275088  0.10224215  0.09414279  1
  Zr  Zr39  1  0.09108422  0.89705606  0.70136180  1
  Zr  Zr40  1  0.89425307  0.50087753  0.50420247  1
  Zr  Zr41  1  0.09741405  0.09974058  0.29473766  1
  Zr  Zr42  1  0.29943464  0.71099041  0.49852641  1
  Zr  Zr43  1  0.08915121  0.30154348  0.10310386  1
  Zr  Zr44  1  0.10887244  0.10439615  0.70294626  1
  Zr  Zr45  1  0.69986000  0.10531123  0.49563586  1
  Zr  Zr46  1  0.70368265  0.89790730  0.69731873  1
  Zr  Zr47  1  0.70442651  0.91158386  0.49564528  1
  Zr  Zr48  1  0.90320058  0.69237430  0.91373286  1
  Zr  Zr49  1  0.10462251  0.49612644  0.89567737  1
  Sc  Sc50  1  0.69819234  0.49205728  0.11502124  1
  Sc  Sc51  1  0.49257400  0.70364869  0.10991487  1
  Sc  Sc52  1  0.90233535  0.89642949  0.09500474  1
  Sc  Sc53  1  0.09828413  0.30582766  0.29763792  1
  Sc  Sc54  1  0.70286863  0.69697398  0.89217537  1
  Sc  Sc55  1  0.09500030  0.09421690  0.50004437  1
  Sc  Sc56  1  0.29047112  0.69787556  0.68749990  1
  Sc  Sc57  1  0.70633812  0.49625821  0.89120423  1
  Sc  Sc58  1  0.50648243  0.29511605  0.10411140  1
  Sc  Sc59  1  0.89849122  0.90082614  0.70056679  1
  Sc  Sc60  1  0.50041197  0.29912362  0.89851621  1
  Sc  Sc61  1  0.50151398  0.90027903  0.89881643  1
  Sc  Sc62  1  0.09743332  0.09621049  0.89839105  1
  Sc  Sc63  1  0.50148218  0.10108068  0.29500351  1
  Sc  Sc64  1  0.69863990  0.90635214  0.09582762  1
  Sc  Sc65  1  0.50559380  0.09857468  0.89211315  1
  Sc  Sc66  1  0.90732431  0.49124402  0.89939105  1
  Sc  Sc67  1  0.69515098  0.09871536  0.30521694  1
  Sc  Sc68  1  0.89842807  0.49239760  0.09584442  1
  Sc  Sc69  1  0.09668044  0.69305231  0.69624983  1
  Sc  Sc70  1  0.90543478  0.11012174  0.30284563  1
  Sc  Sc71  1  0.69922427  0.10337555  0.90263844  1
  Sc  Sc72  1  0.10028166  0.49406656  0.30189645  1
  Sc  Sc73  1  0.30675644  0.49289772  0.50366692  1
  Sc  Sc74  1  0.29542602  0.70998125  0.09389432  1
  Sc  Sc75  1  0.10281579  0.30732296  0.50305949  1
  Sc  Sc76  1  0.50084904  0.89329346  0.50850369  1
  Sc  Sc77  1  0.09960282  0.49445471  0.09291448  1
  Sc  Sc78  1  0.31072868  0.31474218  0.10480457  1
  Sc  Sc79  1  0.50706275  0.90314594  0.10141509  1
  Sc  Sc80  1  0.09280412  0.09488099  0.10001458  1
  Sc  Sc81  1  0.29149263  0.49032055  0.70239213  1
  Sc  Sc82  1  0.90815190  0.69283252  0.49331474  1
  Sc  Sc83  1  0.49919219  0.49259899  0.89182481  1
  Sc  Sc84  1  0.30536163  0.91113237  0.69491385  1
  Sc  Sc85  1  0.29672101  0.08933849  0.10724192  1
  Sc  Sc86  1  0.51419494  0.70227503  0.69687954  1
  Sc  Sc87  1  0.10292081  0.69012244  0.90336432  1
  Sc  Sc88  1  0.50462862  0.89917209  0.70507303  1
  Sc  Sc89  1  0.09443750  0.50082790  0.50342091  1
  Sc  Sc90  1  0.90018513  0.30907530  0.71219744  1
  Sc  Sc91  1  0.50450900  0.30166687  0.70232547  1
  Sc  Sc92  1  0.69488429  0.30352004  0.49750832  1
  Sc  Sc93  1  0.90013995  0.90603224  0.89561210  1
  Sc  Sc94  1  0.29118046  0.89659127  0.10097657  1
  Sc  Sc95  1  0.10225259  0.89871481  0.49778000  1
  Sc  Sc96  1  0.08515873  0.70751045  0.31246214  1
  Sc  Sc97  1  0.10052982  0.90628298  0.90587432  1
  Sc  Sc98  1  0.70272992  0.49206515  0.69492895  1
  Sc  Sc99  1  0.10124470  0.90450515  0.10097001  1
  Nb  Nb100  1  0.09923367  0.30641933  0.69772603  1
  Nb  Nb101  1  0.29977543  0.29938775  0.30364830  1
  Nb  Nb102  1  0.70988359  0.29971008  0.89371543  1
  Nb  Nb103  1  0.30711038  0.10626186  0.70393184  1
  Nb  Nb104  1  0.89885331  0.50344810  0.30933779  1
  Nb  Nb105  1  0.48398767  0.29813534  0.30402117  1
  Nb  Nb106  1  0.49340328  0.09980802  0.70181055  1
  Nb  Nb107  1  0.89516823  0.29183700  0.10560057  1
  Nb  Nb108  1  0.89157081  0.10849391  0.10409188  1
  Nb  Nb109  1  0.69449235  0.10873525  0.70153807  1
  Nb  Nb110  1  0.29604063  0.28997655  0.69634781  1
  Nb  Nb111  1  0.30124563  0.89746675  0.49946179  1
  Nb  Nb112  1  0.90884339  0.50061736  0.69667429  1
  Nb  Nb113  1  0.50049301  0.69897104  0.90005959  1
  Nb  Nb114  1  0.88941528  0.29949608  0.90837886  1
  Nb  Nb115  1  0.89775575  0.29979349  0.29267361  1
  Nb  Nb116  1  0.50419242  0.70075209  0.30363457  1
  Nb  Nb117  1  0.50350352  0.49728404  0.49956331  1
  Nb  Nb118  1  0.69770300  0.69888998  0.30057979  1
  Nb  Nb119  1  0.29999016  0.70007771  0.90272761  1
  Nb  Nb120  1  0.08532663  0.48453638  0.69966292  1
  Nb  Nb121  1  0.90444836  0.69293151  0.09899443  1
  Nb  Nb122  1  0.50260768  0.10552734  0.49713377  1
  Nb  Nb123  1  0.50517434  0.10058996  0.09031317  1
  Nb  Nb124  1  0.70510037  0.29468955  0.71120501  1
  Nb  Nb125  1  -0.00230654  0.20539020  0.60522822  1
  Nb  Nb126  1  0.20495364  0.79800217  0.80192876  1
  Nb  Nb127  1  0.40291681  0.00598154  0.00054372  1
  Nb  Nb128  1  0.40057846  0.19567100  0.60359585  1
  Nb  Nb129  1  0.60316793  0.79385764  0.39608400  1
  Nb  Nb130  1  0.81078511  0.59746217  0.79244493  1
  Nb  Nb131  1  0.80287450  0.00660008  0.19682520  1
  Nb  Nb132  1  -0.00363533  0.60102709  0.20037101  1
  Nb  Nb133  1  0.60724193  0.39725620  -0.00241558  1
  Nb  Nb134  1  0.39773298  0.60609229  0.80041449  1
  Nb  Nb135  1  -0.01118659  0.39966309  0.39862853  1
  Nb  Nb136  1  0.39509434  0.79052656  0.80439271  1
  Nb  Nb137  1  0.59826452  0.01417619  0.60292330  1
  Nb  Nb138  1  0.60046570  0.78908050  -0.00158223  1
  Nb  Nb139  1  0.59694334  0.59800444  -0.00018328  1
  Nb  Nb140  1  0.20581932  0.20213996  0.00376654  1
  Nb  Nb141  1  0.79786757  0.20051944  0.61020967  1
  Nb  Nb142  1  0.40365338  0.60085261  0.39899039  1
  Nb  Nb143  1  0.20427076  0.20203216  0.39568271  1
  Nb  Nb144  1  0.39954854  -0.00285089  0.40915259  1
  Nb  Nb145  1  0.20376765  0.20609389  0.20025764  1
  Nb  Nb146  1  0.20773837  0.60188429  0.39704139  1
  Nb  Nb147  1  0.40293711  0.60409107  -0.00693824  1
  Nb  Nb148  1  0.39703302  0.19357060  0.00007016  1
  Nb  Nb149  1  0.19474708  0.60375892  0.20490512  1
  Pd  Pd150  1  0.40075996  0.81090182  0.19438068  1
  Pd  Pd151  1  0.79505279  0.40360317  0.00258447  1
  Pd  Pd152  1  -0.00108767  0.59987834  0.80201776  1
  Pd  Pd153  1  0.19571669  0.79950583  0.39459562  1
  Pd  Pd154  1  0.80043955  0.80874788  0.19270172  1
  Pd  Pd155  1  0.20306121  0.00465139  0.40138289  1
  Pd  Pd156  1  0.19803961  0.58716523  0.59661002  1
  Pd  Pd157  1  -0.00475300  0.20322882  0.79602986  1
  Pd  Pd158  1  -0.00845834  0.40853328  0.20427994  1
  Pd  Pd159  1  0.19772813  0.20259273  0.59284113  1
  Pd  Pd160  1  0.20229884  0.60205091  0.79156886  1
  Pd  Pd161  1  0.40066761  0.79799461  0.61342257  1
  Pd  Pd162  1  0.18741340  0.79409407  0.20552709  1
  Pd  Pd163  1  0.60173416  0.60803355  0.19035639  1
  Pd  Pd164  1  0.39437190  0.60083119  0.19913721  1
  Pd  Pd165  1  0.19920467  0.38997139  0.00427631  1
  Pd  Pd166  1  0.00225791  0.19772516  0.00243934  1
  Pd  Pd167  1  0.39579256  0.20018085  0.18823276  1
  Pd  Pd168  1  0.39907237  0.40310639  0.79080330  1
  Pd  Pd169  1  0.79440228  0.00549631  0.79938842  1
  Pd  Pd170  1  0.00674095  0.79542853  0.81094436  1
  Pd  Pd171  1  0.80737466  0.59126774  0.19989815  1
  Pd  Pd172  1  0.79681394  0.59873696  0.60357989  1
  Pd  Pd173  1  0.79823762  0.80314323  -0.00388193  1
  Pd  Pd174  1  0.59794580  0.20444527  0.60244666  1
  Pd  Pd175  1  -0.00465466  0.80056331  0.59372826  1
  Pd  Pd176  1  0.60362940  0.00100715  0.79512814  1
  Pd  Pd177  1  0.80720060  0.79991389  0.59009355  1
  Pd  Pd178  1  0.59634640  0.20244043  0.80583905  1
  Pd  Pd179  1  0.19432529  -0.00563535  0.60496195  1
  Pd  Pd180  1  0.60285389  0.40097255  0.79975186  1
  Pd  Pd181  1  -0.00055312  0.79535287  0.19744274  1
  Pd  Pd182  1  0.01115949  0.20980447  0.40438998  1
  Pd  Pd183  1  0.20099615  0.40293926  0.59875120  1
  Pd  Pd184  1  0.60138762  0.59401910  0.79981184  1
  Pd  Pd185  1  0.40975812  0.00264451  0.59708021  1
  Pd  Pd186  1  0.40514142  -0.00411817  0.19617104  1
  Pd  Pd187  1  -0.00733483  0.00179375  0.00347759  1
  Pd  Pd188  1  0.79831333  0.79803830  0.40819101  1
  Pd  Pd189  1  0.41082914  0.80318939  0.40099124  1
  Pd  Pd190  1  0.80868300  0.79309945  0.80846457  1
  Pd  Pd191  1  0.00225655  0.80578247  -0.00629170  1
  Pd  Pd192  1  0.59862678  0.20145799  0.20704523  1
  Pd  Pd193  1  0.79931002  0.39099781  0.60597992  1
  Pd  Pd194  1  0.60707338  0.79390235  0.19534117  1
  Pd  Pd195  1  0.19559946  0.20634417  0.80680595  1
  Pd  Pd196  1  0.59855920  0.20950636  0.39117339  1
  Pd  Pd197  1  0.20063823  -0.00990835  0.79587202  1
  Pd  Pd198  1  0.79450899  0.58629041  -0.00492065  1
  Pd  Pd199  1  0.39369821  0.59946658  0.60095577  1
  Rh  Rh200  1  0.18882470  0.79939203  -0.00644195  1
  Rh  Rh201  1  0.20000353  0.81140048  0.60973136  1
  Rh  Rh202  1  0.58681004  -0.00847276  0.41046691  1
  Rh  Rh203  1  0.80381426  0.00514893  0.00607558  1
  Rh  Rh204  1  0.20566139  0.00936160  0.00173731  1
  Rh  Rh205  1  0.80789857  0.40341411  0.20380578  1
  Rh  Rh206  1  0.59439857  0.38951493  0.20123443  1
  Rh  Rh207  1  -0.00190646  0.00129779  0.40022407  1
  Rh  Rh208  1  0.00365015  0.19924263  0.19798024  1
  Rh  Rh209  1  0.60531719  0.39266625  0.60446958  1
  Rh  Rh210  1  0.59244763  0.39444207  0.39032421  1
  Rh  Rh211  1  0.00209203  -0.00004890  0.80126122  1
  Rh  Rh212  1  0.19483223  0.00375510  0.19983982  1
  Rh  Rh213  1  -0.00755998  0.39266869  -0.00169143  1
  Rh  Rh214  1  0.59674862  0.80291817  0.80623561  1
  Rh  Rh215  1  -0.00561533  0.80834444  0.40800309  1
  Rh  Rh216  1  0.80509430  0.19540428  0.79890626  1
  Rh  Rh217  1  0.39915427  -0.00894445  0.80597196  1
  Rh  Rh218  1  -0.01261604  0.00305290  0.19459841  1
  Rh  Rh219  1  0.39647583  0.19181248  0.40853342  1
  Rh  Rh220  1  0.79308086  0.20282511  0.39558242  1
  Rh  Rh221  1  0.80888130  0.00915589  0.38582037  1
  Rh  Rh222  1  0.19117099  0.40030254  0.40312297  1
  Rh  Rh223  1  0.40427939  0.20544807  0.79741638  1
  Rh  Rh224  1  0.60687613  0.00797748  0.19778598  1
  Rh  Rh225  1  0.59821623  0.21024305  -0.00829436  1
  Rh  Rh226  1  0.80225367  0.40023096  0.39423351  1
  Rh  Rh227  1  0.00704843  0.00472493  0.60320994  1
  Rh  Rh228  1  0.60935871  0.81199013  0.59236442  1
  Rh  Rh229  1  0.79576705  0.19312822  0.20771749  1
  Rh  Rh230  1  0.40911061  0.41174613  0.39483447  1
  Rh  Rh231  1  0.20507000  0.60074123  0.00932227  1
  Rh  Rh232  1  0.79478885  0.60148570  0.40351355  1
  Rh  Rh233  1  0.00825065  0.59099810  0.39600159  1
  Rh  Rh234  1  0.79687380  0.19898001  -0.00358929  1
  Rh  Rh235  1  0.59696047  0.60497807  0.40240881  1
  Rh  Rh236  1  0.00454728  0.59822861  0.59915708  1
  Rh  Rh237  1  -0.00447465  0.39554048  0.80595921  1
  Rh  Rh238  1  0.19845780  0.39839329  0.19526913  1
  Rh  Rh239  1  0.00142629  0.58852744  0.00600764  1
  Rh  Rh240  1  0.78840100  0.01024537  0.60832155  1
  Rh  Rh241  1  0.80612004  0.40676360  0.79813915  1
  Rh  Rh242  1  0.59511486  -0.00738634  -0.00434032  1
  Rh  Rh243  1  -0.00749363  0.39220344  0.59257724  1
  Rh  Rh244  1  0.60866972  0.59232588  0.60255157  1
  Rh  Rh245  1  0.19735227  0.39309480  0.79480267  1
  Rh  Rh246  1  0.40721606  0.39851467  0.20576320  1
  Rh  Rh247  1  0.41181635  0.39729063  -0.00368850  1
  Rh  Rh248  1  0.40902347  0.80368528  0.00004323  1
  Rh  Rh249  1  0.39897881  0.38942895  0.60741016  1
