# generated using pymatgen
data_ZrScNbPdRh
_symmetry_space_group_name_H-M   'P 1'
_cell_length_a   16.55726714
_cell_length_b   16.56134934
_cell_length_c   16.55747317
_cell_angle_alpha   89.98228146
_cell_angle_beta   90.00160411
_cell_angle_gamma   89.99568730
_symmetry_Int_Tables_number   1
_chemical_formula_structural   ZrScNbPdRh
_chemical_formula_sum   'Zr50 Sc50 Nb50 Pd50 Rh50'
_cell_volume   4540.23583098
_cell_formula_units_Z   50
loop_
 _symmetry_equiv_pos_site_id
 _symmetry_equiv_pos_as_xyz
  1  'x, y, z'
loop_
 _atom_site_type_symbol
 _atom_site_label
 _atom_site_symmetry_multiplicity
 _atom_site_fract_x
 _atom_site_fract_y
 _atom_site_fract_z
 _atom_site_occupancy
  Zr  Zr0  1  0.89846374  0.31682617  0.29494342  1
  Zr  Zr1  1  0.49896458  0.89839055  0.90798261  1
  Zr  Zr2  1  0.29706044  0.10222450  0.09835321  1
  Zr  Zr3  1  0.09921315  0.49277611  0.51197210  1
  Zr  Zr4  1  0.89783718  0.09995950  0.89687485  1
  Zr  Zr5  1  0.29936398  0.89691637  0.70891633  1
  Zr  Zr6  1  0.70371288  0.70542619  0.10287868  1
  Zr  Zr7  1  0.49331566  0.89951954  0.70092997  1
  Zr  Zr8  1  0.10101933  0.10448461  0.49789006  1
  Zr  Zr9  1  0.10306780  0.69479803  0.90668096  1
  Zr  Zr10  1  0.69785075  0.89500714  0.49827024  1
  Zr  Zr11  1  0.10079014  0.69945339  0.29900883  1
  Zr  Zr12  1  0.91357940  0.09884422  0.09879233  1
  Zr  Zr13  1  0.89647700  0.69777905  0.70448417  1
  Zr  Zr14  1  0.90292559  0.49422286  0.49270731  1
  Zr  Zr15  1  0.10371969  0.10357999  0.10599189  1
  Zr  Zr16  1  0.29992164  0.10967152  0.89781069  1
  Zr  Zr17  1  0.49826186  0.11081837  0.49957890  1
  Zr  Zr18  1  0.09949441  0.29455934  0.50772496  1
  Zr  Zr19  1  0.29202272  0.10799703  0.29739890  1
  Zr  Zr20  1  0.89879080  0.90749456  0.90048046  1
  Zr  Zr21  1  0.49029163  0.69798951  0.30185435  1
  Zr  Zr22  1  0.11058528  0.11038847  0.69317106  1
  Zr  Zr23  1  0.49588461  0.50681350  0.09206539  1
  Zr  Zr24  1  0.30446871  0.69413128  0.10142107  1
  Zr  Zr25  1  0.89702089  0.50404629  0.89512495  1
  Zr  Zr26  1  0.10188643  0.70596244  0.69901342  1
  Zr  Zr27  1  0.09887728  0.90372438  0.50453810  1
  Zr  Zr28  1  0.69442291  0.29463391  0.29632982  1
  Zr  Zr29  1  0.30312847  0.90750514  0.10392533  1
  Zr  Zr30  1  0.29824857  0.50153742  0.49651082  1
  Zr  Zr31  1  0.10268785  0.31484438  0.89597665  1
  Zr  Zr32  1  0.29579299  0.90168432  0.49400557  1
  Zr  Zr33  1  0.10961282  0.70547930  0.49488665  1
  Zr  Zr34  1  0.30046693  0.70010032  0.69771366  1
  Zr  Zr35  1  0.09918719  0.89524692  0.30846338  1
  Zr  Zr36  1  0.30935359  0.10061135  0.70740011  1
  Zr  Zr37  1  0.49714319  0.09572026  0.09613216  1
  Zr  Zr38  1  0.50102078  0.71159986  0.10258461  1
  Zr  Zr39  1  0.29931671  0.10544491  0.50087606  1
  Zr  Zr40  1  0.30349803  0.31373815  0.30000428  1
  Zr  Zr41  1  0.30065211  0.49358301  0.69259059  1
  Zr  Zr42  1  0.90180185  0.90214761  0.49637980  1
  Zr  Zr43  1  0.29904910  0.49750970  0.10608863  1
  Zr  Zr44  1  0.09332150  0.49892751  0.28870864  1
  Zr  Zr45  1  0.69598092  0.29115895  0.51102650  1
  Zr  Zr46  1  0.69919583  0.89172492  0.69086941  1
  Zr  Zr47  1  0.69767753  0.69824647  0.30220189  1
  Zr  Zr48  1  0.49406746  0.70504550  0.69854562  1
  Zr  Zr49  1  0.70926511  0.10812957  0.70138675  1
  Sc  Sc50  1  0.29615302  0.90218962  0.90188348  1
  Sc  Sc51  1  0.70128636  0.70027288  0.69541982  1
  Sc  Sc52  1  0.89507156  0.29444515  0.69600583  1
  Sc  Sc53  1  0.29553805  0.48671930  0.91096891  1
  Sc  Sc54  1  0.49250264  0.89895367  0.49864867  1
  Sc  Sc55  1  0.69967188  0.69804708  0.50565736  1
  Sc  Sc56  1  0.90172937  0.70314054  0.90867671  1
  Sc  Sc57  1  0.51181721  0.10278949  0.30512148  1
  Sc  Sc58  1  0.50506613  0.30868084  0.10327658  1
  Sc  Sc59  1  0.48957134  0.49386591  0.50543542  1
  Sc  Sc60  1  0.69825448  0.49069006  0.09087510  1
  Sc  Sc61  1  0.50075899  0.30994752  0.69438749  1
  Sc  Sc62  1  0.29705574  0.71142198  0.90282612  1
  Sc  Sc63  1  0.10343522  0.89662030  0.89592086  1
  Sc  Sc64  1  0.09770984  0.09803705  0.29500792  1
  Sc  Sc65  1  0.71289357  0.68993271  0.90748512  1
  Sc  Sc66  1  0.49197278  0.49659897  0.29870926  1
  Sc  Sc67  1  0.69590467  0.89851045  0.10347309  1
  Sc  Sc68  1  0.70377097  0.49475234  0.30493380  1
  Sc  Sc69  1  0.90657265  0.90148362  0.29612170  1
  Sc  Sc70  1  0.10355453  0.91083735  0.10265164  1
  Sc  Sc71  1  0.49478972  0.70174036  0.91164548  1
  Sc  Sc72  1  0.30486535  0.30828954  0.09416210  1
  Sc  Sc73  1  0.49843013  0.89872981  0.29357334  1
  Sc  Sc74  1  0.29404307  0.29540119  0.70815557  1
  Sc  Sc75  1  0.91278730  0.69922181  0.29932985  1
  Sc  Sc76  1  0.90311018  0.29688405  0.49314120  1
  Sc  Sc77  1  0.49030972  0.30371907  0.89902212  1
  Sc  Sc78  1  0.70404090  0.30555564  0.90087493  1
  Sc  Sc79  1  0.89996243  0.09961985  0.70534442  1
  Sc  Sc80  1  0.09723835  0.69027723  0.09837264  1
  Sc  Sc81  1  0.69357716  0.08635877  0.10554656  1
  Sc  Sc82  1  0.71011975  0.09486604  0.89884925  1
  Sc  Sc83  1  0.90432764  0.10263327  0.49282342  1
  Sc  Sc84  1  0.90861547  0.90079751  0.69867547  1
  Sc  Sc85  1  0.89811657  0.09460778  0.30529910  1
  Sc  Sc86  1  0.69624690  0.49685911  0.49663089  1
  Sc  Sc87  1  0.70636205  0.90931191  0.91247927  1
  Sc  Sc88  1  0.69861222  0.90924830  0.29442302  1
  Sc  Sc89  1  0.30415739  0.90206281  0.30443183  1
  Sc  Sc90  1  0.09857413  0.09618387  0.90371046  1
  Sc  Sc91  1  0.90861323  0.30516127  0.90534798  1
  Sc  Sc92  1  0.30399705  0.29971765  0.89974477  1
  Sc  Sc93  1  0.48875630  0.10335810  0.89996986  1
  Sc  Sc94  1  0.10137004  0.29893032  0.30029629  1
  Sc  Sc95  1  0.90235387  0.70710908  0.10143983  1
  Sc  Sc96  1  0.90696646  0.69689698  0.50110976  1
  Sc  Sc97  1  0.90467355  0.48728964  0.10601852  1
  Sc  Sc98  1  0.69103334  0.48673164  0.69351599  1
  Sc  Sc99  1  0.30020615  0.30036166  0.49236485  1
  Nb  Nb100  1  0.49708098  0.29682200  0.30282917  1
  Nb  Nb101  1  0.49324804  0.69433320  0.49838136  1
  Nb  Nb102  1  0.49922475  0.09849025  0.70370936  1
  Nb  Nb103  1  0.90098183  0.50134795  0.69951828  1
  Nb  Nb104  1  0.70409667  0.10098286  0.30880017  1
  Nb  Nb105  1  0.70309024  0.29902722  0.10209918  1
  Nb  Nb106  1  0.89896441  0.50055829  0.29866810  1
  Nb  Nb107  1  0.49735298  0.29598491  0.48880696  1
  Nb  Nb108  1  0.09849305  0.49800958  0.89891424  1
  Nb  Nb109  1  0.70042453  0.50360739  0.89351020  1
  Nb  Nb110  1  0.70215596  0.29641391  0.70304807  1
  Nb  Nb111  1  0.49620239  0.49954425  0.70217692  1
  Nb  Nb112  1  0.89407825  0.90174499  0.09603004  1
  Nb  Nb113  1  0.29968579  0.50396250  0.29508476  1
  Nb  Nb114  1  0.07980563  0.29803868  0.09266868  1
  Nb  Nb115  1  0.89868450  0.29677394  0.10019584  1
  Nb  Nb116  1  0.10168901  0.30426303  0.70169284  1
  Nb  Nb117  1  0.10466160  0.89892163  0.69904485  1
  Nb  Nb118  1  0.50711372  0.90473643  0.10099955  1
  Nb  Nb119  1  0.30708144  0.69438305  0.48916749  1
  Nb  Nb120  1  0.50216510  0.49948654  0.89386757  1
  Nb  Nb121  1  0.29880327  0.69169402  0.30536384  1
  Nb  Nb122  1  0.10362865  0.49769969  0.08704780  1
  Nb  Nb123  1  0.70153078  0.09699927  0.48902117  1
  Nb  Nb124  1  0.09927446  0.48735345  0.70565313  1
  Nb  Nb125  1  0.20455627  0.79344429  0.20513568  1
  Nb  Nb126  1  0.19793711  0.59199634  0.80066685  1
  Nb  Nb127  1  0.60263113  0.19962123  0.79931998  1
  Nb  Nb128  1  0.79716819  0.80008378  0.39896340  1
  Nb  Nb129  1  0.59215506  0.38916107  0.40129356  1
  Nb  Nb130  1  0.60565894  0.20068918  -0.00117723  1
  Nb  Nb131  1  0.59759024  0.79389947  0.40053718  1
  Nb  Nb132  1  0.39957948  0.59313939  0.80104139  1
  Nb  Nb133  1  0.59206671  0.59780705  0.60383230  1
  Nb  Nb134  1  0.19128312  0.20549236  0.00293158  1
  Nb  Nb135  1  0.59663952  0.59781252  0.79957357  1
  Nb  Nb136  1  0.60239607  0.60126636  0.19791803  1
  Nb  Nb137  1  0.00759188  0.20627188  0.79782848  1
  Nb  Nb138  1  0.79778639  0.40467172  0.79518086  1
  Nb  Nb139  1  0.80094273  0.59106588  0.60294211  1
  Nb  Nb140  1  0.79785779  0.20048198  0.19722358  1
  Nb  Nb141  1  0.79929840  0.20188068  0.01035677  1
  Nb  Nb142  1  0.40343149  0.20398531  0.20289109  1
  Nb  Nb143  1  0.79762564  0.80190382  0.80182056  1
  Nb  Nb144  1  0.00674405  0.59263237  0.79813499  1
  Nb  Nb145  1  0.60124571  0.01013548  0.59990841  1
  Nb  Nb146  1  0.60451813  0.79880115  0.80479666  1
  Nb  Nb147  1  0.59891151  0.00100973  0.79417749  1
  Nb  Nb148  1  0.80086811  0.59528647  0.20335307  1
  Nb  Nb149  1  0.79387776  0.00191958  0.59361336  1
  Pd  Pd150  1  0.40080544  0.00194309  0.59706602  1
  Pd  Pd151  1  0.01190966  0.00667398  0.79188788  1
  Pd  Pd152  1  0.19600216  0.00583388  0.39575595  1
  Pd  Pd153  1  0.19250807  0.40413505  0.39986897  1
  Pd  Pd154  1  0.39122836  0.80059063  0.59016312  1
  Pd  Pd155  1  0.59925625  0.40939308  0.20567538  1
  Pd  Pd156  1  0.00766413  0.59538544  0.40149099  1
  Pd  Pd157  1  0.18992802  0.39316529  0.19079334  1
  Pd  Pd158  1  -0.00397788  0.00838044  0.60378960  1
  Pd  Pd159  1  0.59725762  0.39405096  -0.00818625  1
  Pd  Pd160  1  -0.00169889  0.20306910  0.39042968  1
  Pd  Pd161  1  -0.00071685  0.79912010  0.59848353  1
  Pd  Pd162  1  0.80930012  0.19262168  0.59113610  1
  Pd  Pd163  1  0.40413998  0.00803876  0.39437054  1
  Pd  Pd164  1  0.19632412  0.00186039  0.80161819  1
  Pd  Pd165  1  0.00557779  -0.00551216  -0.00079831  1
  Pd  Pd166  1  0.59398880  -0.00754702  0.40269193  1
  Pd  Pd167  1  0.39367626  0.80278091  0.20049244  1
  Pd  Pd168  1  0.19785604  0.59942508  0.60407548  1
  Pd  Pd169  1  0.39803388  0.20952653  0.60671700  1
  Pd  Pd170  1  0.61065647  0.79883392  -0.00648325  1
  Pd  Pd171  1  0.80598488  0.60614891  0.40165876  1
  Pd  Pd172  1  0.80784935  0.59239759  0.01603827  1
  Pd  Pd173  1  -0.00298689  0.79472249  0.80513326  1
  Pd  Pd174  1  0.38998033  0.59740066  -0.01081970  1
  Pd  Pd175  1  0.20662557  0.00054240  0.60511993  1
  Pd  Pd176  1  0.80303302  0.40154676  0.60060431  1
  Pd  Pd177  1  0.20901755  0.80038330  0.59550964  1
  Pd  Pd178  1  0.19700792  0.80305468  0.01358647  1
  Pd  Pd179  1  -0.00885722  0.20155140  0.21225073  1
  Pd  Pd180  1  0.80292631  0.39909090  -0.00556082  1
  Pd  Pd181  1  0.80442683  0.00481640  0.19836591  1
  Pd  Pd182  1  -0.00835099  0.39058235  0.60353600  1
  Pd  Pd183  1  0.78961871  0.39080977  0.40525684  1
  Pd  Pd184  1  0.39547488  -0.00146751  -0.00545311  1
  Pd  Pd185  1  0.60288391  0.60317897  -0.00118054  1
  Pd  Pd186  1  0.40517639  0.01022176  0.20976174  1
  Pd  Pd187  1  0.59407942  0.19841329  0.60776326  1
  Pd  Pd188  1  0.59025536  0.59312113  0.40314545  1
  Pd  Pd189  1  -0.00023965  0.59935986  0.60451614  1
  Pd  Pd190  1  0.19718205  0.60216855  0.19687768  1
  Pd  Pd191  1  0.39425915  0.38899430  0.59620136  1
  Pd  Pd192  1  -0.00863333  0.59413556  0.00128380  1
  Pd  Pd193  1  0.80406125  0.79740863  0.20818908  1
  Pd  Pd194  1  0.00923295  0.80511313  0.19007749  1
  Pd  Pd195  1  0.60337906  0.39571181  0.80320977  1
  Pd  Pd196  1  0.19158117  0.58904555  0.39836368  1
  Pd  Pd197  1  0.59903384  0.19329045  0.19262471  1
  Pd  Pd198  1  0.00555998  0.80945464  0.00587763  1
  Pd  Pd199  1  0.20498710  0.21752793  0.19139350  1
  Rh  Rh200  1  0.20984516  0.79770925  0.39474934  1
  Rh  Rh201  1  -0.00231191  0.19997445  0.60687527  1
  Rh  Rh202  1  0.39422816  0.40366567  0.80050260  1
  Rh  Rh203  1  0.80639716  0.21532373  0.81464822  1
  Rh  Rh204  1  0.40415649  0.79544668  0.81174841  1
  Rh  Rh205  1  -0.00255900  0.40743384  0.00218012  1
  Rh  Rh206  1  0.20394588  0.39190146  0.59950697  1
  Rh  Rh207  1  0.40107503  0.60187781  0.60234572  1
  Rh  Rh208  1  0.60554262  0.20383896  0.40120962  1
  Rh  Rh209  1  0.59661841  0.00855951  -0.00871407  1
  Rh  Rh210  1  -0.00123362  -0.00475532  0.20084536  1
  Rh  Rh211  1  0.80179532  -0.00707101  0.40196906  1
  Rh  Rh212  1  0.59799180  0.79873192  0.20649235  1
  Rh  Rh213  1  0.58561014  0.79269841  0.59209006  1
  Rh  Rh214  1  0.40454842  0.59722874  0.20096556  1
  Rh  Rh215  1  0.19168466  0.20324139  0.81122641  1
  Rh  Rh216  1  -0.00491821  0.79855168  0.40592413  1
  Rh  Rh217  1  0.39646319  0.80850205  0.00832839  1
  Rh  Rh218  1  0.19860191  -0.01122452  0.21013856  1
  Rh  Rh219  1  0.80011300  0.20468010  0.39328246  1
  Rh  Rh220  1  0.40469140  0.39944676  0.19808782  1
  Rh  Rh221  1  0.20515786  0.59624694  -0.00403205  1
  Rh  Rh222  1  0.40102138  0.79858460  0.40141236  1
  Rh  Rh223  1  0.00515865  0.40024215  0.19563124  1
  Rh  Rh224  1  0.19470682  0.39196872  0.00725322  1
  Rh  Rh225  1  0.41170760  0.20845476  0.79239188  1
  Rh  Rh226  1  0.20906625  0.20613331  0.59838349  1
  Rh  Rh227  1  0.19689738  0.79700334  0.80097541  1
  Rh  Rh228  1  0.00055493  0.19887049  -0.01048162  1
  Rh  Rh229  1  0.39915545  0.58997825  0.39805528  1
  Rh  Rh230  1  0.59725243  0.00182997  0.20529864  1
  Rh  Rh231  1  0.79332452  0.59638589  0.78862695  1
  Rh  Rh232  1  0.20199298  0.00832875  -0.00400147  1
  Rh  Rh233  1  -0.01080146  0.39805194  0.79230509  1
  Rh  Rh234  1  0.79400633  0.40225724  0.19883595  1
  Rh  Rh235  1  -0.00596941  0.59393365  0.19263951  1
  Rh  Rh236  1  0.19756787  0.20371594  0.39911139  1
  Rh  Rh237  1  0.39422121  0.19694717  0.39092280  1
  Rh  Rh238  1  0.59452220  0.40035912  0.59002471  1
  Rh  Rh239  1  0.40190783  -0.00360039  0.80716598  1
  Rh  Rh240  1  0.20846623  0.40387025  0.79879253  1
  Rh  Rh241  1  0.40176476  0.40524379  0.39903826  1
  Rh  Rh242  1  0.40750759  0.40210447  0.00076900  1
  Rh  Rh243  1  0.79375099  -0.01487774  0.78609387  1
  Rh  Rh244  1  0.81483691  0.79757386  0.59777144  1
  Rh  Rh245  1  0.00685230  0.40191447  0.39852139  1
  Rh  Rh246  1  0.40299309  0.20629979  0.01182390  1
  Rh  Rh247  1  0.00574109  0.00276339  0.40009491  1
  Rh  Rh248  1  0.80145710  0.80664814  -0.00325970  1
  Rh  Rh249  1  0.80243882  0.00658783  0.01324917  1
