# generated using pymatgen
data_ZrScNbPdRh
_symmetry_space_group_name_H-M   'P 1'
_cell_length_a   16.55866458
_cell_length_b   16.55483309
_cell_length_c   16.55571100
_cell_angle_alpha   89.97720336
_cell_angle_beta   89.99983531
_cell_angle_gamma   89.99272486
_symmetry_Int_Tables_number   1
_chemical_formula_structural   ZrScNbPdRh
_chemical_formula_sum   'Zr50 Sc50 Nb50 Pd50 Rh50'
_cell_volume   4538.34925093
_cell_formula_units_Z   50
loop_
 _symmetry_equiv_pos_site_id
 _symmetry_equiv_pos_as_xyz
  1  'x, y, z'
loop_
 _atom_site_type_symbol
 _atom_site_label
 _atom_site_symmetry_multiplicity
 _atom_site_fract_x
 _atom_site_fract_y
 _atom_site_fract_z
 _atom_site_occupancy
  Zr  Zr0  1  0.10250964  0.10236310  0.69480280  1
  Zr  Zr1  1  0.50193946  0.30120017  0.09009262  1
  Zr  Zr2  1  0.29650024  0.50047157  0.30504471  1
  Zr  Zr3  1  0.88032796  0.50647018  0.49643136  1
  Zr  Zr4  1  0.91183406  0.49290046  0.90354389  1
  Zr  Zr5  1  0.89922485  0.29802047  0.29788447  1
  Zr  Zr6  1  0.70198293  0.50479759  0.10895369  1
  Zr  Zr7  1  0.10069750  0.50473516  0.70361644  1
  Zr  Zr8  1  0.10298564  0.69699448  0.89377478  1
  Zr  Zr9  1  0.89694846  0.90421285  0.69543269  1
  Zr  Zr10  1  0.50876052  0.71202873  0.70311469  1
  Zr  Zr11  1  0.08385925  0.08697206  0.91046907  1
  Zr  Zr12  1  0.31024614  0.10346290  0.70203427  1
  Zr  Zr13  1  0.89843774  0.89249553  0.49068455  1
  Zr  Zr14  1  0.49463723  0.10538992  0.50065402  1
  Zr  Zr15  1  0.50276056  0.49917993  0.30997734  1
  Zr  Zr16  1  0.69777090  0.70587575  0.89858021  1
  Zr  Zr17  1  0.50637597  0.70099188  0.10684792  1
  Zr  Zr18  1  0.49003363  0.29847654  0.29907184  1
  Zr  Zr19  1  0.50326627  0.89889865  0.49277186  1
  Zr  Zr20  1  0.50825381  0.09333549  0.10576128  1
  Zr  Zr21  1  0.69702841  0.90060375  0.69448564  1
  Zr  Zr22  1  0.89684582  0.30623206  0.09891078  1
  Zr  Zr23  1  0.49681919  0.70073840  0.49943065  1
  Zr  Zr24  1  0.10108308  0.70709788  0.50019669  1
  Zr  Zr25  1  0.29218804  0.09806796  0.50689269  1
  Zr  Zr26  1  0.49893599  0.70429023  0.30112565  1
  Zr  Zr27  1  0.50612027  0.49417089  0.70324184  1
  Zr  Zr28  1  0.69882878  0.90089606  0.30895712  1
  Zr  Zr29  1  0.10449381  0.69711036  0.09674488  1
  Zr  Zr30  1  0.71382178  0.70718377  0.09528216  1
  Zr  Zr31  1  0.69581966  0.10053757  0.29649277  1
  Zr  Zr32  1  0.09770396  0.28853667  0.49659061  1
  Zr  Zr33  1  0.30216215  0.90309691  0.91194246  1
  Zr  Zr34  1  0.30575837  0.70414594  0.09903184  1
  Zr  Zr35  1  0.89277286  0.09766056  0.90307965  1
  Zr  Zr36  1  0.89758624  0.48296741  0.29315203  1
  Zr  Zr37  1  0.31691172  0.90275392  0.29570556  1
  Zr  Zr38  1  0.10078479  0.10160679  0.30381182  1
  Zr  Zr39  1  0.68924718  0.48817318  0.49808551  1
  Zr  Zr40  1  0.50190571  0.90517915  0.69459907  1
  Zr  Zr41  1  0.70438388  0.90371882  0.90750889  1
  Zr  Zr42  1  0.09921964  0.90103871  0.49608373  1
  Zr  Zr43  1  0.50133961  0.70697698  0.89936050  1
  Zr  Zr44  1  0.29934499  0.30497410  0.29656502  1
  Zr  Zr45  1  0.30748177  0.29993152  0.70701650  1
  Zr  Zr46  1  0.09754357  0.30482430  0.30266427  1
  Zr  Zr47  1  0.31408576  0.29464375  0.89995005  1
  Zr  Zr48  1  0.28894123  0.69725806  0.49255119  1
  Zr  Zr49  1  0.70431862  0.50166266  0.69852616  1
  Sc  Sc50  1  0.89791475  0.70147792  0.69167823  1
  Sc  Sc51  1  0.71941226  0.69085510  0.49830391  1
  Sc  Sc52  1  0.69638844  0.28472715  0.69656088  1
  Sc  Sc53  1  0.89640184  0.89179820  0.10644890  1
  Sc  Sc54  1  0.10900889  0.49325994  0.49879029  1
  Sc  Sc55  1  0.90451640  0.29505566  0.50167008  1
  Sc  Sc56  1  0.89694812  0.69098494  0.90333103  1
  Sc  Sc57  1  0.29473982  0.48870226  0.89114834  1
  Sc  Sc58  1  0.70481153  0.49921816  0.30776485  1
  Sc  Sc59  1  0.30539438  0.29802400  0.49357319  1
  Sc  Sc60  1  0.30585546  0.11097983  0.29918660  1
  Sc  Sc61  1  0.09149810  0.89213539  0.70671855  1
  Sc  Sc62  1  0.49980800  0.49284621  0.10357752  1
  Sc  Sc63  1  0.70554964  0.90926748  0.49771357  1
  Sc  Sc64  1  0.88915941  0.09813611  0.70172269  1
  Sc  Sc65  1  0.69582796  0.90395032  0.09672264  1
  Sc  Sc66  1  0.70388892  0.29293481  0.09677186  1
  Sc  Sc67  1  0.29622594  0.50093444  0.49600520  1
  Sc  Sc68  1  0.90757942  0.49968169  0.70548742  1
  Sc  Sc69  1  0.50107303  0.09649806  0.30108830  1
  Sc  Sc70  1  0.70116195  0.10019989  0.09679134  1
  Sc  Sc71  1  0.49828507  0.10171129  0.89870292  1
  Sc  Sc72  1  0.89839796  0.72073602  0.29432924  1
  Sc  Sc73  1  0.50636246  0.30366848  0.49624496  1
  Sc  Sc74  1  0.10319928  0.70488150  0.30354007  1
  Sc  Sc75  1  0.09223632  0.31709680  0.90757635  1
  Sc  Sc76  1  0.31021004  0.90798787  0.70172783  1
  Sc  Sc77  1  0.29923563  0.90002820  0.50084054  1
  Sc  Sc78  1  0.90520810  0.09733191  0.30252129  1
  Sc  Sc79  1  0.30641752  0.09883506  0.10028501  1
  Sc  Sc80  1  0.29207252  0.70008354  0.69942276  1
  Sc  Sc81  1  0.10026971  0.49650913  0.08812961  1
  Sc  Sc82  1  0.29537580  0.70813675  0.90126445  1
  Sc  Sc83  1  0.49911248  0.28713832  0.70256296  1
  Sc  Sc84  1  0.08202264  0.90500707  0.29701087  1
  Sc  Sc85  1  0.10643111  0.30187305  0.10345359  1
  Sc  Sc86  1  0.09064014  0.90588688  0.09993616  1
  Sc  Sc87  1  0.29002340  0.49998259  0.70023184  1
  Sc  Sc88  1  0.89770621  0.09822477  0.49856696  1
  Sc  Sc89  1  0.69468193  0.69934324  0.28963511  1
  Sc  Sc90  1  0.90257526  0.91086291  0.89511066  1
  Sc  Sc91  1  0.50098357  0.90239956  0.90109158  1
  Sc  Sc92  1  0.70472493  0.50448651  0.90181435  1
  Sc  Sc93  1  0.69766515  0.09517802  0.69512641  1
  Sc  Sc94  1  0.09301435  0.30914242  0.68997659  1
  Sc  Sc95  1  0.30495069  0.29669119  0.10859914  1
  Sc  Sc96  1  0.10007926  0.69957301  0.70131924  1
  Sc  Sc97  1  0.89943653  0.10343515  0.09522929  1
  Sc  Sc98  1  0.29613165  0.50313450  0.10782811  1
  Sc  Sc99  1  0.69984842  0.09491740  0.90274655  1
  Nb  Nb100  1  0.09954904  0.09684281  0.49874097  1
  Nb  Nb101  1  0.29808412  0.69684890  0.29748867  1
  Nb  Nb102  1  0.90661630  0.70092835  0.49650157  1
  Nb  Nb103  1  0.69761873  0.29939667  0.90417806  1
  Nb  Nb104  1  0.50329641  0.31038988  0.90327921  1
  Nb  Nb105  1  0.70484935  0.30180070  0.29941197  1
  Nb  Nb106  1  0.29417181  0.09973391  0.89697139  1
  Nb  Nb107  1  0.90000528  0.50275950  0.10375751  1
  Nb  Nb108  1  0.09435182  0.49771880  0.30038246  1
  Nb  Nb109  1  0.69779668  0.69921097  0.70555172  1
  Nb  Nb110  1  0.50637165  0.90209363  0.29556897  1
  Nb  Nb111  1  0.89649293  0.90606232  0.30011156  1
  Nb  Nb112  1  0.50020628  0.49271216  0.90503615  1
  Nb  Nb113  1  0.50325976  0.49836836  0.50426069  1
  Nb  Nb114  1  0.09437589  0.89979047  0.90015836  1
  Nb  Nb115  1  0.89806138  0.29833232  0.70209666  1
  Nb  Nb116  1  0.69886783  0.29641149  0.50133990  1
  Nb  Nb117  1  0.90266689  0.70245606  0.10102367  1
  Nb  Nb118  1  0.30688760  0.90061147  0.10375051  1
  Nb  Nb119  1  0.89563187  0.29692567  0.90213688  1
  Nb  Nb120  1  0.48927710  0.09280112  0.69886811  1
  Nb  Nb121  1  0.70227351  0.10499047  0.49641993  1
  Nb  Nb122  1  0.48599040  0.90092561  0.11191028  1
  Nb  Nb123  1  0.09748690  0.09866930  0.10412678  1
  Nb  Nb124  1  0.09567733  0.50581127  0.89004875  1
  Nb  Nb125  1  0.40559168  0.59793740  -0.00734157  1
  Nb  Nb126  1  0.79991043  0.38853631  0.80159377  1
  Nb  Nb127  1  0.79394328  0.79921872  0.79760850  1
  Nb  Nb128  1  0.20313657  -0.00237869  0.19746756  1
  Nb  Nb129  1  0.79818039  0.39184176  0.60505773  1
  Nb  Nb130  1  0.00323117  0.20142521  0.19934605  1
  Nb  Nb131  1  0.60422574  0.39247709  0.80806800  1
  Nb  Nb132  1  0.19114381  0.19751755  0.80934770  1
  Nb  Nb133  1  0.19811108  0.19293561  -0.00549292  1
  Nb  Nb134  1  0.40551252  0.40531962  0.59982753  1
  Nb  Nb135  1  0.40580183  0.59780356  0.60294170  1
  Nb  Nb136  1  -0.00132525  0.60173150  0.58764992  1
  Nb  Nb137  1  0.19703590  0.00344672  0.80861618  1
  Nb  Nb138  1  -0.00327448  0.59616465  0.20113275  1
  Nb  Nb139  1  -0.00297605  0.59829485  0.39540572  1
  Nb  Nb140  1  -0.00366425  0.20482322  0.80318876  1
  Nb  Nb141  1  0.40494921  0.59827025  0.80104954  1
  Nb  Nb142  1  0.59955673  0.60253472  0.60182584  1
  Nb  Nb143  1  0.20720573  0.80715865  0.19882933  1
  Nb  Nb144  1  0.00316290  -0.00000827  0.59501218  1
  Nb  Nb145  1  0.00199102  0.79727106  -0.00361613  1
  Nb  Nb146  1  0.79279777  0.20154028  0.39939488  1
  Nb  Nb147  1  0.80064015  -0.00132573  0.20620180  1
  Nb  Nb148  1  0.59682877  0.60059850  0.00109528  1
  Nb  Nb149  1  0.60319187  0.39454206  0.20402743  1
  Pd  Pd150  1  0.79574463  0.40409469  -0.00185560  1
  Pd  Pd151  1  0.20839025  0.39381673  0.00025329  1
  Pd  Pd152  1  0.61218746  0.79136386  0.40761887  1
  Pd  Pd153  1  0.39689364  0.79952376  0.39854515  1
  Pd  Pd154  1  0.59419454  0.19309837  0.60146463  1
  Pd  Pd155  1  -0.01413693  0.79174239  0.80614207  1
  Pd  Pd156  1  0.59325311  0.80479661  0.00765763  1
  Pd  Pd157  1  0.39775745  0.59724251  0.40503445  1
  Pd  Pd158  1  0.39088097  0.79578311  0.59891910  1
  Pd  Pd159  1  0.60172665  0.19394321  -0.00489778  1
  Pd  Pd160  1  0.38776507  0.40765111  0.00792308  1
  Pd  Pd161  1  0.00063123  0.60195314  0.00379192  1
  Pd  Pd162  1  0.40022566  0.19218950  0.00278314  1
  Pd  Pd163  1  0.59630691  0.59282793  0.80522876  1
  Pd  Pd164  1  0.60560514  0.60826597  0.40568992  1
  Pd  Pd165  1  -0.00924505  0.19034944  0.60516169  1
  Pd  Pd166  1  0.80928704  0.60961260  0.38087058  1
  Pd  Pd167  1  0.21018444  0.39270021  0.59469147  1
  Pd  Pd168  1  0.61504989  0.79167730  0.58539109  1
  Pd  Pd169  1  0.80955380  0.60008197  0.79692821  1
  Pd  Pd170  1  0.79640751  0.79749165  0.60056171  1
  Pd  Pd171  1  0.19215294  0.38952520  0.80053278  1
  Pd  Pd172  1  0.39994127  0.00496481  0.40232383  1
  Pd  Pd173  1  0.20577687  0.81224350  0.79709833  1
  Pd  Pd174  1  0.20537534  0.20119283  0.39870853  1
  Pd  Pd175  1  0.59689622  0.20777905  0.19868215  1
  Pd  Pd176  1  -0.00987308  0.41004830  0.59215381  1
  Pd  Pd177  1  0.81028665  0.60506624  0.20815839  1
  Pd  Pd178  1  0.19210906  0.81021559  0.00678159  1
  Pd  Pd179  1  0.20153395  0.80786370  0.60827836  1
  Pd  Pd180  1  0.59571382  0.19713223  0.80388048  1
  Pd  Pd181  1  -0.00389281  0.40581907  0.41258302  1
  Pd  Pd182  1  0.60031890  0.00193203  0.80182143  1
  Pd  Pd183  1  0.40627559  0.00579647  -0.00096333  1
  Pd  Pd184  1  0.19136894  0.60217365  0.20527544  1
  Pd  Pd185  1  0.20341342  -0.00399630  0.38768005  1
  Pd  Pd186  1  0.39447412  0.80035150  0.79951825  1
  Pd  Pd187  1  0.21146293  0.59244403  -0.00986450  1
  Pd  Pd188  1  0.79898454  0.59631181  -0.00006810  1
  Pd  Pd189  1  0.20531791  0.20984022  0.60544378  1
  Pd  Pd190  1  0.19517694  -0.01052551  0.61170946  1
  Pd  Pd191  1  0.00507047  0.20883138  0.00262324  1
  Pd  Pd192  1  0.20039023  0.81460999  0.38548433  1
  Pd  Pd193  1  0.40541483  0.59526475  0.19823450  1
  Pd  Pd194  1  0.60494367  0.80822876  0.19566506  1
  Pd  Pd195  1  0.79823823  0.19898387  0.80273510  1
  Pd  Pd196  1  0.59901616  0.00736085  0.59167665  1
  Pd  Pd197  1  0.19926239  0.00057996  0.00661808  1
  Pd  Pd198  1  0.19624313  0.40513170  0.19883949  1
  Pd  Pd199  1  0.60063307  0.20316830  0.39739189  1
  Rh  Rh200  1  0.79027504  0.39638767  0.19337081  1
  Rh  Rh201  1  0.79935540  0.38615565  0.41109708  1
  Rh  Rh202  1  0.59486052  0.00439531  0.40356663  1
  Rh  Rh203  1  0.40742714  0.19725914  0.19451228  1
  Rh  Rh204  1  0.39874041  0.40407897  0.40767933  1
  Rh  Rh205  1  0.39868197  0.79332271  0.20576329  1
  Rh  Rh206  1  0.00492384  0.00964525  0.78700831  1
  Rh  Rh207  1  0.19950532  0.39596962  0.39945261  1
  Rh  Rh208  1  0.59241040  -0.00324108  0.00385603  1
  Rh  Rh209  1  0.60781070  0.81570855  0.80188896  1
  Rh  Rh210  1  0.79158203  0.81015251  0.20235478  1
  Rh  Rh211  1  0.40321902  -0.00338706  0.58967287  1
  Rh  Rh212  1  -0.00682823  0.00964707  0.19532733  1
  Rh  Rh213  1  -0.00143690  0.40072587  0.00601198  1
  Rh  Rh214  1  0.39899841  0.00933591  0.20300345  1
  Rh  Rh215  1  0.79592600  0.19685081  -0.00278000  1
  Rh  Rh216  1  -0.00325315  0.00223141  0.40845408  1
  Rh  Rh217  1  0.79834415  0.00965255  0.39544514  1
  Rh  Rh218  1  0.00017929  0.80118337  0.59774290  1
  Rh  Rh219  1  0.80137448  0.59763489  0.60674419  1
  Rh  Rh220  1  0.40212092  0.20740366  0.59639109  1
  Rh  Rh221  1  0.79665145  0.79715922  0.39600519  1
  Rh  Rh222  1  0.40516159  0.40371762  0.20057907  1
  Rh  Rh223  1  0.40630698  0.79797366  0.00291238  1
  Rh  Rh224  1  -0.00388688  0.19572218  0.39596978  1
  Rh  Rh225  1  0.20718763  0.60058030  0.80435506  1
  Rh  Rh226  1  -0.00191837  0.60562882  0.79085807  1
  Rh  Rh227  1  0.19589177  0.60154174  0.59694578  1
  Rh  Rh228  1  0.79002353  -0.00566066  0.79603036  1
  Rh  Rh229  1  -0.00349105  0.39332103  0.79905725  1
  Rh  Rh230  1  0.80475545  0.00315851  0.59435160  1
  Rh  Rh231  1  0.00948333  0.79080156  0.19197020  1
  Rh  Rh232  1  0.39760382  -0.00120214  0.80640201  1
  Rh  Rh233  1  -0.00034546  0.79838238  0.39472545  1
  Rh  Rh234  1  0.60548703  -0.00643418  0.19990467  1
  Rh  Rh235  1  0.40821519  0.40238620  0.79331075  1
  Rh  Rh236  1  0.81543618  0.80471616  -0.01072663  1
  Rh  Rh237  1  0.80433569  -0.00141274  0.01215724  1
  Rh  Rh238  1  0.61030749  0.40695226  0.00362302  1
  Rh  Rh239  1  0.19120865  0.59678500  0.39446930  1
  Rh  Rh240  1  0.40734632  0.19619953  0.80550326  1
  Rh  Rh241  1  -0.01171646  -0.01133891  0.01048089  1
  Rh  Rh242  1  0.59920312  0.39029773  0.39114177  1
  Rh  Rh243  1  0.39787900  0.19878172  0.40260472  1
  Rh  Rh244  1  0.80072059  0.20170746  0.59112712  1
  Rh  Rh245  1  0.00680756  0.39987353  0.19006387  1
  Rh  Rh246  1  0.80778624  0.19211578  0.20660049  1
  Rh  Rh247  1  0.60257924  0.39657081  0.60965904  1
  Rh  Rh248  1  0.59458944  0.58892978  0.19958755  1
  Rh  Rh249  1  0.19341759  0.19151756  0.19209386  1
