# generated using pymatgen
data_ZrScNbPdRh
_symmetry_space_group_name_H-M   'P 1'
_cell_length_a   16.56242258
_cell_length_b   16.56199113
_cell_length_c   16.55862079
_cell_angle_alpha   90.00816471
_cell_angle_beta   90.00681297
_cell_angle_gamma   89.99586100
_symmetry_Int_Tables_number   1
_chemical_formula_structural   ZrScNbPdRh
_chemical_formula_sum   'Zr50 Sc50 Nb50 Pd50 Rh50'
_cell_volume   4542.14046475
_cell_formula_units_Z   50
loop_
 _symmetry_equiv_pos_site_id
 _symmetry_equiv_pos_as_xyz
  1  'x, y, z'
loop_
 _atom_site_type_symbol
 _atom_site_label
 _atom_site_symmetry_multiplicity
 _atom_site_fract_x
 _atom_site_fract_y
 _atom_site_fract_z
 _atom_site_occupancy
  Zr  Zr0  1  0.69861191  0.69910339  0.30539078  1
  Zr  Zr1  1  0.49626293  0.50233676  0.09815173  1
  Zr  Zr2  1  0.89610200  0.50107929  0.90487718  1
  Zr  Zr3  1  0.50093301  0.90989351  0.29824421  1
  Zr  Zr4  1  0.50831818  0.70123104  0.29113829  1
  Zr  Zr5  1  0.70308757  0.70671797  0.11108992  1
  Zr  Zr6  1  0.49287906  0.30153830  0.10459116  1
  Zr  Zr7  1  0.29079843  0.10082101  0.10155355  1
  Zr  Zr8  1  0.09979739  0.49476698  0.49934428  1
  Zr  Zr9  1  0.10348766  0.29704315  0.70321746  1
  Zr  Zr10  1  0.10373890  0.49921543  0.09320004  1
  Zr  Zr11  1  0.70198182  0.50037279  0.70961709  1
  Zr  Zr12  1  0.90181080  0.10099686  0.29365951  1
  Zr  Zr13  1  0.09562769  0.10833996  0.49778253  1
  Zr  Zr14  1  0.50168797  0.90737665  0.50133930  1
  Zr  Zr15  1  0.90233740  0.30040037  0.29645570  1
  Zr  Zr16  1  0.30008885  0.49893523  0.29618368  1
  Zr  Zr17  1  0.09623408  0.70259966  0.48990178  1
  Zr  Zr18  1  0.09456338  0.30142047  0.90404662  1
  Zr  Zr19  1  0.30457416  0.70380015  0.70533413  1
  Zr  Zr20  1  0.90312905  0.89738693  0.50143286  1
  Zr  Zr21  1  0.10359747  0.30388382  0.49991100  1
  Zr  Zr22  1  0.50588575  0.50207804  0.90234664  1
  Zr  Zr23  1  0.89546209  0.09120233  0.49686232  1
  Zr  Zr24  1  0.49366712  0.69879781  0.90155679  1
  Zr  Zr25  1  0.29777521  0.49479147  0.10384609  1
  Zr  Zr26  1  0.69860697  0.50396739  0.28966066  1
  Zr  Zr27  1  0.49678975  0.49631587  0.29046854  1
  Zr  Zr28  1  0.70564632  0.29029982  0.70143373  1
  Zr  Zr29  1  0.29900024  0.30672122  0.49480611  1
  Zr  Zr30  1  0.90429124  0.70124534  0.69817574  1
  Zr  Zr31  1  0.90162919  0.50822792  0.70183894  1
  Zr  Zr32  1  0.09532150  0.69668336  0.70311652  1
  Zr  Zr33  1  0.89795716  0.70260509  0.50567618  1
  Zr  Zr34  1  0.30071516  0.49724651  0.90361296  1
  Zr  Zr35  1  0.49657252  0.69163467  0.70277095  1
  Zr  Zr36  1  0.70113944  0.30300718  0.29032423  1
  Zr  Zr37  1  0.10310527  0.90420441  0.10385025  1
  Zr  Zr38  1  0.70056749  0.89116075  0.29226725  1
  Zr  Zr39  1  0.50576276  0.10171588  0.49100843  1
  Zr  Zr40  1  0.90777514  0.50255784  0.50226341  1
  Zr  Zr41  1  0.29574220  0.11019161  0.70685485  1
  Zr  Zr42  1  0.70689578  0.70623632  0.70581671  1
  Zr  Zr43  1  0.70033094  0.09584146  0.51042417  1
  Zr  Zr44  1  0.10729205  0.69708970  0.89659299  1
  Zr  Zr45  1  0.09535814  0.11031776  0.70543637  1
  Zr  Zr46  1  0.49391394  0.90235410  0.09481799  1
  Zr  Zr47  1  0.29653224  0.89089448  0.90286927  1
  Zr  Zr48  1  0.28433993  0.69933829  0.29505927  1
  Zr  Zr49  1  0.70103102  0.09582085  0.29959434  1
  Sc  Sc50  1  0.30051973  0.49378810  0.49695454  1
  Sc  Sc51  1  0.09915377  0.89826629  0.91087328  1
  Sc  Sc52  1  0.70777104  0.90583332  0.50159419  1
  Sc  Sc53  1  0.50777348  0.09743048  0.69696301  1
  Sc  Sc54  1  0.49793878  0.49675418  0.70378258  1
  Sc  Sc55  1  0.49207689  0.09427220  0.09885280  1
  Sc  Sc56  1  0.70269896  0.90678660  0.09769152  1
  Sc  Sc57  1  0.30136577  0.10007873  0.29576209  1
  Sc  Sc58  1  0.29942851  0.29944978  0.90285124  1
  Sc  Sc59  1  0.72124615  0.09468909  0.90479794  1
  Sc  Sc60  1  0.89778708  0.29406958  0.90713179  1
  Sc  Sc61  1  0.69764205  0.50485405  0.49853116  1
  Sc  Sc62  1  0.49835452  0.70147895  0.50108572  1
  Sc  Sc63  1  0.49313293  0.10260109  0.90473784  1
  Sc  Sc64  1  0.09408075  0.49902238  0.70279165  1
  Sc  Sc65  1  0.29289879  0.10551536  0.48957287  1
  Sc  Sc66  1  0.09844180  0.09949036  0.09760107  1
  Sc  Sc67  1  0.10015009  0.70216528  0.09413510  1
  Sc  Sc68  1  0.50007424  0.30068723  0.49643295  1
  Sc  Sc69  1  0.89510523  0.70387150  0.09369491  1
  Sc  Sc70  1  0.30286591  0.30342079  0.71424588  1
  Sc  Sc71  1  0.89131983  0.70566761  0.29920019  1
  Sc  Sc72  1  0.90422675  0.90341724  0.29969339  1
  Sc  Sc73  1  0.90421181  0.29032321  0.71071121  1
  Sc  Sc74  1  0.10005522  0.10390541  0.91120377  1
  Sc  Sc75  1  0.49259050  0.49485956  0.50529800  1
  Sc  Sc76  1  0.69906058  0.69431795  0.90097284  1
  Sc  Sc77  1  0.89129256  0.90048439  0.90871670  1
  Sc  Sc78  1  0.09276637  0.88622655  0.70671280  1
  Sc  Sc79  1  0.91537632  0.29807309  0.49525078  1
  Sc  Sc80  1  0.10163204  0.09574605  0.29633366  1
  Sc  Sc81  1  0.29876807  0.69248134  0.09467052  1
  Sc  Sc82  1  0.29705684  0.90190614  0.48993126  1
  Sc  Sc83  1  0.89040694  0.88879449  0.70238841  1
  Sc  Sc84  1  0.09538151  0.89676383  0.48841712  1
  Sc  Sc85  1  0.89921217  0.70057641  0.90566080  1
  Sc  Sc86  1  0.29572662  0.11182410  0.90452428  1
  Sc  Sc87  1  0.90064372  0.50326938  0.09170745  1
  Sc  Sc88  1  0.90336533  0.49967955  0.30088240  1
  Sc  Sc89  1  0.90708815  0.29812098  0.10048181  1
  Sc  Sc90  1  0.31075685  0.50250813  0.70192082  1
  Sc  Sc91  1  0.10607913  0.50162581  0.30328625  1
  Sc  Sc92  1  0.48648804  0.29827399  0.90444233  1
  Sc  Sc93  1  0.30808342  0.30048551  0.29460558  1
  Sc  Sc94  1  0.09169773  0.30087623  0.30054715  1
  Sc  Sc95  1  0.71058817  0.31100157  0.09701728  1
  Sc  Sc96  1  0.09572135  0.50170994  0.90265735  1
  Sc  Sc97  1  0.50104388  0.89539306  0.69852656  1
  Sc  Sc98  1  0.49680886  0.90133959  0.90485585  1
  Sc  Sc99  1  0.69132361  0.29337188  0.50395866  1
  Nb  Nb100  1  0.70398501  0.29947332  0.90270138  1
  Nb  Nb101  1  0.10990354  0.88153240  0.29605309  1
  Nb  Nb102  1  0.69831766  0.70125086  0.50038671  1
  Nb  Nb103  1  0.70145238  0.90340232  0.70461669  1
  Nb  Nb104  1  0.70966819  0.09375846  0.70088894  1
  Nb  Nb105  1  0.10440030  0.30317661  0.09400016  1
  Nb  Nb106  1  0.70236424  0.10381510  0.09766580  1
  Nb  Nb107  1  0.09885365  0.70587019  0.29478667  1
  Nb  Nb108  1  0.50397134  0.29795976  0.29695309  1
  Nb  Nb109  1  0.29706401  0.90200123  0.69839397  1
  Nb  Nb110  1  0.29810890  0.69893085  0.89469390  1
  Nb  Nb111  1  0.70068735  0.49152878  0.90922266  1
  Nb  Nb112  1  0.30333036  0.69932394  0.50176662  1
  Nb  Nb113  1  0.49663896  0.70526942  0.09989217  1
  Nb  Nb114  1  0.29770157  0.29643700  0.09707002  1
  Nb  Nb115  1  0.69977253  0.50022246  0.08785518  1
  Nb  Nb116  1  0.90199780  0.90252776  0.09658327  1
  Nb  Nb117  1  0.50392110  0.11137982  0.30025038  1
  Nb  Nb118  1  0.50366764  0.29760997  0.70566698  1
  Nb  Nb119  1  0.89016042  0.09649938  0.70926649  1
  Nb  Nb120  1  0.70068528  0.89330245  0.89560330  1
  Nb  Nb121  1  0.29848030  0.90367275  0.10337503  1
  Nb  Nb122  1  0.90462073  0.09774503  0.90518812  1
  Nb  Nb123  1  0.29147734  0.89720132  0.29237524  1
  Nb  Nb124  1  0.89577728  0.09334776  0.08790725  1
  Nb  Nb125  1  0.79696516  0.39654665  0.40316340  1
  Nb  Nb126  1  0.80269338  0.39933316  0.59859250  1
  Nb  Nb127  1  0.60313354  0.60669631  0.60382321  1
  Nb  Nb128  1  0.79902865  0.20139369  0.39712826  1
  Nb  Nb129  1  0.59772809  0.79909504  0.00270731  1
  Nb  Nb130  1  0.20339286  0.60642013  0.59740007  1
  Nb  Nb131  1  0.20379932  0.79832516  0.59886341  1
  Nb  Nb132  1  0.00087320  0.00182876  0.61003052  1
  Nb  Nb133  1  0.19546717  -0.00255833  0.60575796  1
  Nb  Nb134  1  0.60565157  0.39112948  0.80682432  1
  Nb  Nb135  1  0.60210044  0.39997243  0.39108873  1
  Nb  Nb136  1  -0.00406145  0.00395935  0.80144756  1
  Nb  Nb137  1  0.39105211  0.00543358  0.60195640  1
  Nb  Nb138  1  0.60813417  0.19918739  0.00208840  1
  Nb  Nb139  1  0.39455299  0.80445816  0.19887240  1
  Nb  Nb140  1  0.19745895  -0.00209681  0.79776132  1
  Nb  Nb141  1  0.60025502  0.19752803  0.19584547  1
  Nb  Nb142  1  0.00513134  0.60565999  0.20032290  1
  Nb  Nb143  1  0.39470658  0.00021347  0.79497608  1
  Nb  Nb144  1  0.39714577  0.60680172  0.39451303  1
  Nb  Nb145  1  0.60791575  0.19736026  0.80672256  1
  Nb  Nb146  1  0.60764394  0.79682033  0.60194593  1
  Nb  Nb147  1  0.39606266  0.79881541  0.39063188  1
  Nb  Nb148  1  0.40197674  0.19880637  0.60165309  1
  Nb  Nb149  1  0.60731030  0.00161922  0.80089433  1
  Pd  Pd150  1  0.20675751  0.40795863  0.61103244  1
  Pd  Pd151  1  0.80258616  0.60505044  0.80974176  1
  Pd  Pd152  1  -0.00625232  0.39450281  0.60968213  1
  Pd  Pd153  1  0.80262276  0.39456222  0.79848729  1
  Pd  Pd154  1  0.00422521  -0.00142330  0.19917523  1
  Pd  Pd155  1  0.19933003  0.40430954  0.80140871  1
  Pd  Pd156  1  0.19433775  0.20602968  0.20295161  1
  Pd  Pd157  1  0.59669903  0.80527027  0.40764538  1
  Pd  Pd158  1  0.79395360  0.59557679  0.59857446  1
  Pd  Pd159  1  0.39871789  0.20356245  0.40236960  1
  Pd  Pd160  1  0.79918391  0.19872362  0.19487560  1
  Pd  Pd161  1  0.60434623  0.61023919  0.00649874  1
  Pd  Pd162  1  -0.00723286  0.80634107  0.81433944  1
  Pd  Pd163  1  0.39419074  0.00051489  0.39793885  1
  Pd  Pd164  1  0.39754373  0.39008926  0.60687226  1
  Pd  Pd165  1  0.20932672  0.20276322  0.59709117  1
  Pd  Pd166  1  0.19417082  -0.00193727  0.39780663  1
  Pd  Pd167  1  0.19889743  0.20734463  0.38648972  1
  Pd  Pd168  1  0.00292696  0.41098189  0.19558257  1
  Pd  Pd169  1  0.39687695  0.00313447  0.20464551  1
  Pd  Pd170  1  -0.00635661  0.79591083  0.19647470  1
  Pd  Pd171  1  0.80290393  0.59462837  0.40157628  1
  Pd  Pd172  1  0.59893882  0.00606748  0.19523729  1
  Pd  Pd173  1  0.80845630  0.41054798  0.19570409  1
  Pd  Pd174  1  0.80962617  0.59672688  0.19419390  1
  Pd  Pd175  1  -0.00497675  0.60640230  0.38939725  1
  Pd  Pd176  1  0.20375606  0.79641973  0.00657885  1
  Pd  Pd177  1  0.60948602  -0.00367304  0.39839025  1
  Pd  Pd178  1  0.80340636  -0.00436261  0.19596022  1
  Pd  Pd179  1  0.20204105  0.59022241  0.79367629  1
  Pd  Pd180  1  0.80132842  0.80419030  0.40142844  1
  Pd  Pd181  1  0.59464440  0.19767599  0.60601576  1
  Pd  Pd182  1  0.39502491  0.60038555  -0.00059080  1
  Pd  Pd183  1  0.60534263  0.40621655  0.60214631  1
  Pd  Pd184  1  0.19579664  0.39177483  0.20442730  1
  Pd  Pd185  1  0.40446844  0.80737420  0.80177467  1
  Pd  Pd186  1  0.81143143  0.20698771  0.59032621  1
  Pd  Pd187  1  0.39970563  0.80824615  0.59204132  1
  Pd  Pd188  1  -0.01001358  0.19565242  0.60128216  1
  Pd  Pd189  1  0.58883820  0.59232550  0.40901037  1
  Pd  Pd190  1  -0.00036616  0.80012777  -0.00077239  1
  Pd  Pd191  1  0.00684228  -0.00291043  0.39450204  1
  Pd  Pd192  1  0.20450615  0.59741432  0.40646100  1
  Pd  Pd193  1  0.59507681  0.38875830  -0.00098817  1
  Pd  Pd194  1  0.60133201  0.59739065  0.18814104  1
  Pd  Pd195  1  0.00452919  0.19499541  0.19088076  1
  Pd  Pd196  1  0.59406735  0.80425157  0.80309692  1
  Pd  Pd197  1  -0.00557532  0.40003592  0.80375303  1
  Pd  Pd198  1  0.38716071  0.00441966  -0.00916190  1
  Pd  Pd199  1  0.60739861  0.00169741  -0.01010771  1
  Rh  Rh200  1  -0.00369291  0.19434553  0.81024692  1
  Rh  Rh201  1  0.40391977  0.19485409  0.19666526  1
  Rh  Rh202  1  0.39756333  0.79587198  0.00496155  1
  Rh  Rh203  1  0.59800545  -0.00704388  0.60926829  1
  Rh  Rh204  1  0.80180042  0.20147179  0.00442312  1
  Rh  Rh205  1  0.19569542  -0.00051876  0.20235341  1
  Rh  Rh206  1  0.60014113  0.59008546  0.79901345  1
  Rh  Rh207  1  0.80262659  -0.00664816  0.80348945  1
  Rh  Rh208  1  -0.00026664  0.19964050  0.00666308  1
  Rh  Rh209  1  0.80385004  0.79710776  0.80690340  1
  Rh  Rh210  1  0.79008313  0.80248749  0.00191770  1
  Rh  Rh211  1  0.19813022  0.20587565  0.00176414  1
  Rh  Rh212  1  0.39801626  0.60986513  0.20419954  1
  Rh  Rh213  1  0.39492258  0.40023879  0.00228242  1
  Rh  Rh214  1  0.80812905  0.39839174  0.00234910  1
  Rh  Rh215  1  0.19831613  0.80309463  0.79849714  1
  Rh  Rh216  1  0.40836033  0.40111313  0.80558979  1
  Rh  Rh217  1  -0.00720166  0.79653768  0.39179081  1
  Rh  Rh218  1  0.80842572  0.80858197  0.19715371  1
  Rh  Rh219  1  0.00681197  0.80494704  0.59559392  1
  Rh  Rh220  1  0.59251184  0.80800470  0.18944494  1
  Rh  Rh221  1  0.20204088  0.00004697  -0.00314766  1
  Rh  Rh222  1  -0.00236675  0.39833862  0.00115827  1
  Rh  Rh223  1  0.80919471  -0.00713310  0.60627070  1
  Rh  Rh224  1  0.20327118  0.79709181  0.18636828  1
  Rh  Rh225  1  0.39724806  0.59547478  0.80903631  1
  Rh  Rh226  1  0.79236805  0.80301299  0.59735828  1
  Rh  Rh227  1  0.01096537  0.60255674  0.59735578  1
  Rh  Rh228  1  0.79778501  0.00156833  0.39456440  1
  Rh  Rh229  1  0.19150256  0.20297673  0.81233187  1
  Rh  Rh230  1  0.00259440  0.60263382  0.00374981  1
  Rh  Rh231  1  0.59997890  0.39925043  0.19447227  1
  Rh  Rh232  1  -0.00086823  0.40257029  0.39714963  1
  Rh  Rh233  1  0.39890009  0.19877125  0.01014396  1
  Rh  Rh234  1  0.39558308  0.39626554  0.19727056  1
  Rh  Rh235  1  0.20278109  0.59992426  -0.00460688  1
  Rh  Rh236  1  0.79307078  0.60261421  0.00114465  1
  Rh  Rh237  1  0.79849990  -0.00640237  0.00212756  1
  Rh  Rh238  1  -0.00320177  0.19485789  0.39457574  1
  Rh  Rh239  1  0.18950226  0.60128465  0.19179086  1
  Rh  Rh240  1  0.19981971  0.39429705  0.39223105  1
  Rh  Rh241  1  0.20455195  0.79996871  0.40541580  1
  Rh  Rh242  1  0.41322409  0.19273680  0.79329120  1
  Rh  Rh243  1  -0.00432480  0.60077827  0.80827094  1
  Rh  Rh244  1  -0.00101047  -0.00226965  -0.00169900  1
  Rh  Rh245  1  0.40808292  0.40404721  0.39319326  1
  Rh  Rh246  1  0.20209622  0.39615501  -0.00215873  1
  Rh  Rh247  1  0.80027489  0.19688888  0.80888644  1
  Rh  Rh248  1  0.40072545  0.59707322  0.59238400  1
  Rh  Rh249  1  0.60837272  0.20747841  0.38978690  1
