# generated using pymatgen
data_ZrScNbPdRh
_symmetry_space_group_name_H-M   'P 1'
_cell_length_a   16.56169569
_cell_length_b   16.55676975
_cell_length_c   16.56039198
_cell_angle_alpha   89.99904750
_cell_angle_beta   89.97073677
_cell_angle_gamma   90.04334886
_symmetry_Int_Tables_number   1
_chemical_formula_structural   ZrScNbPdRh
_chemical_formula_sum   'Zr50 Sc50 Nb50 Pd50 Rh50'
_cell_volume   4540.99308849
_cell_formula_units_Z   50
loop_
 _symmetry_equiv_pos_site_id
 _symmetry_equiv_pos_as_xyz
  1  'x, y, z'
loop_
 _atom_site_type_symbol
 _atom_site_label
 _atom_site_symmetry_multiplicity
 _atom_site_fract_x
 _atom_site_fract_y
 _atom_site_fract_z
 _atom_site_occupancy
  Zr  Zr0  1  0.50393700  0.70324554  0.88745415  1
  Zr  Zr1  1  0.90995676  0.29471296  0.49263823  1
  Zr  Zr2  1  0.49331601  0.89191439  0.70583709  1
  Zr  Zr3  1  0.10075221  0.49433641  0.49938203  1
  Zr  Zr4  1  0.09698045  0.10598910  0.50292857  1
  Zr  Zr5  1  0.30129835  0.10694165  0.09882881  1
  Zr  Zr6  1  0.09029409  0.70160567  0.89729643  1
  Zr  Zr7  1  0.10217567  0.29659887  0.89679700  1
  Zr  Zr8  1  0.70456441  0.90470479  0.90163538  1
  Zr  Zr9  1  0.88839350  0.68346117  0.09666534  1
  Zr  Zr10  1  0.09552771  0.09542481  0.90367045  1
  Zr  Zr11  1  0.30461510  0.09519065  0.69271829  1
  Zr  Zr12  1  0.29628628  0.90084423  0.89185576  1
  Zr  Zr13  1  0.70324224  0.09682047  0.49716085  1
  Zr  Zr14  1  0.49828023  0.10557637  0.29934997  1
  Zr  Zr15  1  0.50125119  0.10205640  0.09252819  1
  Zr  Zr16  1  0.69650511  0.70673347  0.10222329  1
  Zr  Zr17  1  0.29300080  0.70307092  0.29796453  1
  Zr  Zr18  1  0.09690725  0.70093576  0.30247543  1
  Zr  Zr19  1  0.89856848  0.90577169  0.09810567  1
  Zr  Zr20  1  0.69988436  0.30372453  0.70452856  1
  Zr  Zr21  1  0.30562062  0.29475327  0.71120722  1
  Zr  Zr22  1  0.90069366  0.09277025  0.50688441  1
  Zr  Zr23  1  0.70823162  0.71260275  0.30700626  1
  Zr  Zr24  1  0.09051892  0.90125554  0.10256572  1
  Zr  Zr25  1  0.50793081  0.28957956  0.69373675  1
  Zr  Zr26  1  0.89262128  0.11329078  0.30492859  1
  Zr  Zr27  1  0.50170713  0.49602866  0.89914322  1
  Zr  Zr28  1  0.70496412  0.89446089  0.49417025  1
  Zr  Zr29  1  0.30803835  0.50148781  0.69844227  1
  Zr  Zr30  1  0.49965405  0.90135618  0.49748587  1
  Zr  Zr31  1  0.29990223  0.30736661  0.09052287  1
  Zr  Zr32  1  0.09497424  0.51188559  0.90005851  1
  Zr  Zr33  1  0.50236066  0.29485031  0.49593225  1
  Zr  Zr34  1  0.69973128  0.90442294  0.29899374  1
  Zr  Zr35  1  0.10032698  0.70430386  0.49281874  1
  Zr  Zr36  1  0.09319913  0.09590585  0.09879552  1
  Zr  Zr37  1  0.89138547  0.29644573  0.71007528  1
  Zr  Zr38  1  0.30359653  0.10911231  0.90320271  1
  Zr  Zr39  1  0.09216634  0.30531756  0.30539874  1
  Zr  Zr40  1  0.89588723  0.30067983  0.09143141  1
  Zr  Zr41  1  0.10165616  0.30383281  0.49526931  1
  Zr  Zr42  1  0.69956966  0.90156757  0.10263060  1
  Zr  Zr43  1  0.50572997  0.30309027  0.30093135  1
  Zr  Zr44  1  0.90085678  0.88773542  0.29770065  1
  Zr  Zr45  1  0.10077520  0.89901374  0.70889039  1
  Zr  Zr46  1  0.50941342  0.90187140  0.90229360  1
  Zr  Zr47  1  0.50055400  0.29525884  0.89697049  1
  Zr  Zr48  1  0.09190937  0.70493225  0.70873243  1
  Zr  Zr49  1  0.10143775  0.88411394  0.30022454  1
  Sc  Sc50  1  0.69960624  0.68993575  0.69534911  1
  Sc  Sc51  1  0.50808598  0.49589052  0.29518519  1
  Sc  Sc52  1  0.30475442  0.49550776  0.50093661  1
  Sc  Sc53  1  0.69117767  0.29453103  0.29953325  1
  Sc  Sc54  1  0.10082013  0.09872932  0.69345487  1
  Sc  Sc55  1  0.50678307  0.51109075  0.70096352  1
  Sc  Sc56  1  0.09864994  0.49726523  0.09691749  1
  Sc  Sc57  1  0.09545771  0.11415208  0.29496070  1
  Sc  Sc58  1  0.30780303  0.10042115  0.49743792  1
  Sc  Sc59  1  0.90098109  0.70725131  0.69683778  1
  Sc  Sc60  1  0.29857405  0.48603048  0.90388422  1
  Sc  Sc61  1  0.68868717  0.30225321  0.50282809  1
  Sc  Sc62  1  0.70452534  0.70708327  0.90410656  1
  Sc  Sc63  1  0.70196956  0.29897722  0.89703369  1
  Sc  Sc64  1  0.89123291  0.70406296  0.49918719  1
  Sc  Sc65  1  0.69480387  0.29519135  0.09690242  1
  Sc  Sc66  1  0.30676184  0.30051448  0.49977384  1
  Sc  Sc67  1  0.29045769  0.89768043  0.09549995  1
  Sc  Sc68  1  0.89677033  0.50425220  0.50141065  1
  Sc  Sc69  1  0.89969780  0.10393744  0.10119257  1
  Sc  Sc70  1  0.10499276  0.70345536  0.09385069  1
  Sc  Sc71  1  0.30225870  0.70129058  0.49417611  1
  Sc  Sc72  1  0.49409045  0.10565946  0.50143603  1
  Sc  Sc73  1  0.50539433  0.29893986  0.09573489  1
  Sc  Sc74  1  0.09562846  0.89480585  0.90554408  1
  Sc  Sc75  1  0.89831680  0.89919062  0.69078324  1
  Sc  Sc76  1  0.89195043  0.11136883  0.90242913  1
  Sc  Sc77  1  0.09712736  0.49138424  0.70000808  1
  Sc  Sc78  1  0.70226619  0.50316330  0.51189370  1
  Sc  Sc79  1  0.49675050  0.69679743  0.50618601  1
  Sc  Sc80  1  0.89283863  0.49766218  0.69815061  1
  Sc  Sc81  1  0.50659353  0.69751830  0.29133002  1
  Sc  Sc82  1  0.69591465  0.49536188  0.89340316  1
  Sc  Sc83  1  0.71052654  0.90432387  0.70602983  1
  Sc  Sc84  1  0.69848316  0.09946050  0.70936758  1
  Sc  Sc85  1  0.09329657  0.89706192  0.50776499  1
  Sc  Sc86  1  0.50284831  0.49230552  0.50607104  1
  Sc  Sc87  1  0.69907120  0.49745591  0.69951746  1
  Sc  Sc88  1  0.30278622  0.89458844  0.30827176  1
  Sc  Sc89  1  0.09993851  0.29951884  0.10811376  1
  Sc  Sc90  1  0.29498022  0.29747320  0.29690328  1
  Sc  Sc91  1  0.90100367  0.50314680  0.91955890  1
  Sc  Sc92  1  0.29139176  0.69781410  0.90257182  1
  Sc  Sc93  1  0.70110401  0.50197656  0.09867821  1
  Sc  Sc94  1  0.70207294  0.10273777  0.10254707  1
  Sc  Sc95  1  0.09723883  0.49721839  0.30049749  1
  Sc  Sc96  1  0.50805439  0.90504726  0.30427325  1
  Sc  Sc97  1  0.31023468  0.90538057  0.50175978  1
  Sc  Sc98  1  0.69305216  0.49433191  0.30026534  1
  Sc  Sc99  1  0.10345370  0.29673404  0.69462976  1
  Nb  Nb100  1  0.69300968  0.09878663  0.29727353  1
  Nb  Nb101  1  0.30480953  0.50349515  0.28962617  1
  Nb  Nb102  1  0.50425766  0.09876062  0.89500267  1
  Nb  Nb103  1  0.90594193  0.69350712  0.89577230  1
  Nb  Nb104  1  0.30413531  0.69491211  0.10154674  1
  Nb  Nb105  1  0.30191300  0.09597356  0.29717310  1
  Nb  Nb106  1  0.30523372  0.29965881  0.89889725  1
  Nb  Nb107  1  0.89581924  0.50058706  0.10503350  1
  Nb  Nb108  1  0.49817913  0.50521829  0.10365243  1
  Nb  Nb109  1  0.30016035  0.50250030  0.09864247  1
  Nb  Nb110  1  0.89954171  0.90210286  0.50532001  1
  Nb  Nb111  1  0.89538882  0.30147178  0.89778635  1
  Nb  Nb112  1  0.89389292  0.09417829  0.70008844  1
  Nb  Nb113  1  0.89543820  0.89963597  0.89832092  1
  Nb  Nb114  1  0.49619131  0.69559753  0.70073666  1
  Nb  Nb115  1  0.29950451  0.89879206  0.70187830  1
  Nb  Nb116  1  0.50126996  0.89947966  0.09843130  1
  Nb  Nb117  1  0.89998093  0.50419544  0.29422771  1
  Nb  Nb118  1  0.69233511  0.09845150  0.89671250  1
  Nb  Nb119  1  0.50320120  0.09949585  0.70274709  1
  Nb  Nb120  1  0.50058976  0.70009411  0.09845111  1
  Nb  Nb121  1  0.69874194  0.70007754  0.50295646  1
  Nb  Nb122  1  0.31123686  0.70055007  0.70218733  1
  Nb  Nb123  1  0.90080111  0.69266076  0.30053447  1
  Nb  Nb124  1  0.90378243  0.30446553  0.30044714  1
  Nb  Nb125  1  0.40295774  0.60067097  0.00638448  1
  Nb  Nb126  1  0.39823429  -0.00324540  0.19566353  1
  Nb  Nb127  1  0.40471757  0.79635619  0.00308134  1
  Nb  Nb128  1  0.80757241  0.60281789  0.80685332  1
  Nb  Nb129  1  0.40444400  0.59559385  0.39127482  1
  Nb  Nb130  1  0.40254493  0.00218587  0.80010531  1
  Nb  Nb131  1  0.20687797  0.79678487  0.61001603  1
  Nb  Nb132  1  -0.00895882  0.00227246  0.80003608  1
  Nb  Nb133  1  0.19347193  0.00270151  0.39505834  1
  Nb  Nb134  1  0.40262779  0.80147366  0.19107090  1
  Nb  Nb135  1  0.60175825  0.60405543  0.40479489  1
  Nb  Nb136  1  0.20206518  0.00159061  0.20643038  1
  Nb  Nb137  1  0.80596732  0.39895978  0.39186991  1
  Nb  Nb138  1  0.59261503  0.60384014  0.00146048  1
  Nb  Nb139  1  0.59918262  0.80012662  0.60212892  1
  Nb  Nb140  1  0.80746012  0.40095677  0.20264158  1
  Nb  Nb141  1  0.39901905  0.40693352  0.19319271  1
  Nb  Nb142  1  0.00687287  0.60268501  0.59937799  1
  Nb  Nb143  1  0.20654026  0.59880455  0.19730097  1
  Nb  Nb144  1  0.80133557  0.19687641  0.60222447  1
  Nb  Nb145  1  0.59663652  -0.00425497  0.60371279  1
  Nb  Nb146  1  0.20051741  0.60044614  0.79214419  1
  Nb  Nb147  1  -0.00662460  0.39525302  0.80775701  1
  Nb  Nb148  1  -0.00043115  -0.00200000  0.39940121  1
  Nb  Nb149  1  0.19935591  0.60563832  0.60542114  1
  Pd  Pd150  1  0.40002026  0.79638832  0.59799672  1
  Pd  Pd151  1  0.19170661  0.40012748  -0.00250861  1
  Pd  Pd152  1  -0.00681834  0.40082003  0.60618951  1
  Pd  Pd153  1  0.00123031  0.00514414  0.21330099  1
  Pd  Pd154  1  0.79675281  0.20916066  0.19945830  1
  Pd  Pd155  1  0.80278515  0.00374333  0.20550893  1
  Pd  Pd156  1  0.20929956  0.20523036  0.59514201  1
  Pd  Pd157  1  0.20739154  0.39804926  0.60234226  1
  Pd  Pd158  1  0.60271179  0.40459152  0.00401144  1
  Pd  Pd159  1  -0.00494198  0.59798060  0.40559337  1
  Pd  Pd160  1  0.39718154  -0.00678200  -0.00160169  1
  Pd  Pd161  1  -0.00970745  0.78295359  0.18815182  1
  Pd  Pd162  1  0.79186788  0.40152677  0.00240697  1
  Pd  Pd163  1  -0.00427041  0.40011932  0.19528724  1
  Pd  Pd164  1  0.80268404  0.38954509  0.58806999  1
  Pd  Pd165  1  0.60917417  0.60105806  0.20226223  1
  Pd  Pd166  1  0.41016654  0.79044482  0.38972768  1
  Pd  Pd167  1  0.39990934  0.40356584  0.38986287  1
  Pd  Pd168  1  0.20566432  0.19566271  0.40190044  1
  Pd  Pd169  1  0.79084594  0.59251193  0.39879929  1
  Pd  Pd170  1  0.20235601  0.79895092  -0.00082288  1
  Pd  Pd171  1  0.60729821  0.00493849  0.00496229  1
  Pd  Pd172  1  -0.01108436  0.79457964  0.00545813  1
  Pd  Pd173  1  0.59513711  0.80536826  0.20380137  1
  Pd  Pd174  1  0.61445335  0.79637660  0.78969684  1
  Pd  Pd175  1  0.19917857  0.19191271  0.79771283  1
  Pd  Pd176  1  0.00517619  0.39685763  -0.00214448  1
  Pd  Pd177  1  0.01108264  0.60271034  0.19384872  1
  Pd  Pd178  1  0.78763938  0.59584978  0.20791358  1
  Pd  Pd179  1  0.19414507  0.40392517  0.80068821  1
  Pd  Pd180  1  0.19523017  0.20466408  0.00225498  1
  Pd  Pd181  1  0.39109627  0.59698392  0.81291352  1
  Pd  Pd182  1  0.80038501  0.01008655  -0.00171067  1
  Pd  Pd183  1  -0.00672400  0.20320827  0.60970349  1
  Pd  Pd184  1  0.80886460  -0.00465478  0.39216467  1
  Pd  Pd185  1  0.79057419  0.21068186  0.40546668  1
  Pd  Pd186  1  0.80733784  0.79852463  0.00088360  1
  Pd  Pd187  1  0.19883129  0.00848008  0.80094119  1
  Pd  Pd188  1  0.19872783  0.20009195  0.19810962  1
  Pd  Pd189  1  0.20816576  0.59024264  0.39961979  1
  Pd  Pd190  1  0.19958951  -0.00800653  0.59046010  1
  Pd  Pd191  1  0.80126882  0.79273556  0.79565455  1
  Pd  Pd192  1  0.00117414  0.19672500  0.79517305  1
  Pd  Pd193  1  0.59524314  0.00793267  0.40573210  1
  Pd  Pd194  1  0.19889463  -0.00164773  0.00471938  1
  Pd  Pd195  1  0.40201384  0.20750336  0.19866540  1
  Pd  Pd196  1  0.41036415  0.40043688  0.79274822  1
  Pd  Pd197  1  0.20909495  0.40389028  0.39398141  1
  Pd  Pd198  1  0.40729857  0.39618751  0.60727142  1
  Pd  Pd199  1  -0.00061418  0.20340125  0.00224744  1
  Rh  Rh200  1  -0.01200071  0.80216956  0.40722055  1
  Rh  Rh201  1  0.39630511  0.00390307  0.39100156  1
  Rh  Rh202  1  -0.00778084  0.41233202  0.39998726  1
  Rh  Rh203  1  0.80707686  0.80118031  0.40248298  1
  Rh  Rh204  1  0.00241879  0.60473781  0.01136720  1
  Rh  Rh205  1  0.61040265  0.40964829  0.40889861  1
  Rh  Rh206  1  0.59774194  0.79698531  -0.00015019  1
  Rh  Rh207  1  0.00245055  -0.00322480  0.60476693  1
  Rh  Rh208  1  0.20347418  0.59786076  -0.00209354  1
  Rh  Rh209  1  0.59466362  0.00414651  0.19668636  1
  Rh  Rh210  1  0.39686761  0.20380585  0.39577972  1
  Rh  Rh211  1  0.80817661  0.60567940  0.60899293  1
  Rh  Rh212  1  0.80983743  0.41404623  0.81281518  1
  Rh  Rh213  1  0.79158410  0.19892149  -0.00410995  1
  Rh  Rh214  1  0.60871833  0.18693628  0.59954247  1
  Rh  Rh215  1  0.39630568  0.60039399  0.59009380  1
  Rh  Rh216  1  0.78993243  0.00317990  0.60206312  1
  Rh  Rh217  1  0.59937463  0.19668905  0.19837070  1
  Rh  Rh218  1  0.40528569  0.20639032  -0.00377946  1
  Rh  Rh219  1  0.59609921  0.40162611  0.60499912  1
  Rh  Rh220  1  0.39505958  0.80162741  0.80831014  1
  Rh  Rh221  1  0.60139102  0.19512135  0.40031760  1
  Rh  Rh222  1  -0.00494341  0.58653817  0.79001370  1
  Rh  Rh223  1  0.59655372  0.60545996  0.59602295  1
  Rh  Rh224  1  0.59995013  0.39645195  0.19249660  1
  Rh  Rh225  1  -0.01202959  -0.00000584  -0.01164924  1
  Rh  Rh226  1  0.78778293  0.59841348  -0.00855084  1
  Rh  Rh227  1  0.20511304  0.40531772  0.20133146  1
  Rh  Rh228  1  0.59472739  0.39731568  0.79420969  1
  Rh  Rh229  1  0.79333808  0.19454601  0.80055081  1
  Rh  Rh230  1  0.40285741  0.19277916  0.80030065  1
  Rh  Rh231  1  0.59560300  0.79032200  0.40767942  1
  Rh  Rh232  1  -0.00623045  0.20566713  0.19639333  1
  Rh  Rh233  1  0.39926393  0.20116658  0.60107755  1
  Rh  Rh234  1  0.80641771  0.79726519  0.19555873  1
  Rh  Rh235  1  0.20509676  0.79942757  0.19398113  1
  Rh  Rh236  1  0.39784308  0.60145668  0.20130175  1
  Rh  Rh237  1  0.40580385  0.40090026  0.00400450  1
  Rh  Rh238  1  0.59538942  -0.00201168  0.79510574  1
  Rh  Rh239  1  0.00255373  0.19307781  0.39824414  1
  Rh  Rh240  1  0.00459547  0.79489488  0.59611075  1
  Rh  Rh241  1  0.79178699  0.80045806  0.59905954  1
  Rh  Rh242  1  0.60277297  0.19511202  -0.00694782  1
  Rh  Rh243  1  0.80717306  0.00401962  0.80764629  1
  Rh  Rh244  1  0.40920535  0.00113312  0.60851150  1
  Rh  Rh245  1  0.20436004  0.81470858  0.41873051  1
  Rh  Rh246  1  -0.01233412  0.81514647  0.80288881  1
  Rh  Rh247  1  0.60410445  0.20183195  0.80375591  1
  Rh  Rh248  1  0.20790725  0.78974868  0.79646092  1
  Rh  Rh249  1  0.61157485  0.60486809  0.80565290  1
