# generated using pymatgen
data_ZrScNbPdRh
_symmetry_space_group_name_H-M   'P 1'
_cell_length_a   16.55944472
_cell_length_b   16.55386719
_cell_length_c   16.55764262
_cell_angle_alpha   90.00252117
_cell_angle_beta   90.04211875
_cell_angle_gamma   90.03339650
_symmetry_Int_Tables_number   1
_chemical_formula_structural   ZrScNbPdRh
_chemical_formula_sum   'Zr50 Sc50 Nb50 Pd50 Rh50'
_cell_volume   4538.82616150
_cell_formula_units_Z   50
loop_
 _symmetry_equiv_pos_site_id
 _symmetry_equiv_pos_as_xyz
  1  'x, y, z'
loop_
 _atom_site_type_symbol
 _atom_site_label
 _atom_site_symmetry_multiplicity
 _atom_site_fract_x
 _atom_site_fract_y
 _atom_site_fract_z
 _atom_site_occupancy
  Zr  Zr0  1  0.29203926  0.89798718  0.10279186  1
  Zr  Zr1  1  0.89929439  0.49420684  0.69618337  1
  Zr  Zr2  1  0.29328918  0.29559247  0.09382901  1
  Zr  Zr3  1  0.69936361  0.49712993  0.90898503  1
  Zr  Zr4  1  0.50429039  0.69855140  0.89583553  1
  Zr  Zr5  1  0.70149129  0.89850007  0.30503023  1
  Zr  Zr6  1  0.49889883  0.49538228  0.30683039  1
  Zr  Zr7  1  0.70113731  0.11157364  0.09600623  1
  Zr  Zr8  1  0.30732327  0.49414669  0.50405804  1
  Zr  Zr9  1  0.69781284  0.29412208  0.50640252  1
  Zr  Zr10  1  0.69904758  0.30057294  0.09609725  1
  Zr  Zr11  1  0.90309527  0.50188133  0.29769063  1
  Zr  Zr12  1  0.89264717  0.09116103  0.70191554  1
  Zr  Zr13  1  0.70203636  0.89212470  0.89156353  1
  Zr  Zr14  1  0.90887563  0.09920150  0.10345614  1
  Zr  Zr15  1  0.09672207  0.90932082  0.10539149  1
  Zr  Zr16  1  0.50491605  0.10219789  0.70038336  1
  Zr  Zr17  1  0.90761206  0.70184687  0.30252331  1
  Zr  Zr18  1  0.70217460  0.90558485  0.09948792  1
  Zr  Zr19  1  0.89448155  0.69797641  0.69082187  1
  Zr  Zr20  1  0.30053017  0.49444114  0.90547360  1
  Zr  Zr21  1  0.90887841  0.69680133  0.50362724  1
  Zr  Zr22  1  0.49495117  0.49584767  0.69213492  1
  Zr  Zr23  1  0.09724067  0.49901547  0.90197871  1
  Zr  Zr24  1  0.49743777  0.29469093  0.30206015  1
  Zr  Zr25  1  0.49684190  0.08813065  0.49703599  1
  Zr  Zr26  1  0.30062305  0.49999854  0.69739352  1
  Zr  Zr27  1  0.09917043  0.70278134  0.68755448  1
  Zr  Zr28  1  0.70072166  0.28932327  0.70117510  1
  Zr  Zr29  1  0.69393135  0.70656525  0.70439071  1
  Zr  Zr30  1  0.69949239  0.49981271  0.29752718  1
  Zr  Zr31  1  0.49983682  0.30650535  0.50287796  1
  Zr  Zr32  1  0.49618030  0.69658023  0.10032400  1
  Zr  Zr33  1  0.30062698  0.90292203  0.49018760  1
  Zr  Zr34  1  0.70194839  0.50143833  0.69975035  1
  Zr  Zr35  1  0.90019727  0.90053318  0.69583884  1
  Zr  Zr36  1  0.50717755  0.70387629  0.49687688  1
  Zr  Zr37  1  0.09759453  0.28591165  0.10279567  1
  Zr  Zr38  1  0.49943982  0.49916243  0.49935768  1
  Zr  Zr39  1  0.89833809  0.90481494  0.89293060  1
  Zr  Zr40  1  0.50125365  0.09926113  0.09588031  1
  Zr  Zr41  1  0.29318820  0.10242340  0.10104145  1
  Zr  Zr42  1  0.10004910  0.30448578  0.91004642  1
  Zr  Zr43  1  0.91153762  0.29896298  0.30150815  1
  Zr  Zr44  1  0.10737864  0.89742664  0.90633556  1
  Zr  Zr45  1  0.70431245  0.90186589  0.69320376  1
  Zr  Zr46  1  0.30121872  0.10910078  0.70547805  1
  Zr  Zr47  1  0.10516981  0.89720980  0.49963488  1
  Zr  Zr48  1  0.69935454  0.69099536  0.09452295  1
  Zr  Zr49  1  0.89647236  0.29493390  0.10529281  1
  Sc  Sc50  1  0.70287089  0.29495977  0.28968557  1
  Sc  Sc51  1  0.89464405  0.31135294  0.89968213  1
  Sc  Sc52  1  0.10144696  0.89800161  0.30045473  1
  Sc  Sc53  1  0.10016435  0.09993423  0.69081200  1
  Sc  Sc54  1  0.10107694  0.10253915  0.30296769  1
  Sc  Sc55  1  0.09903039  0.90462891  0.69459480  1
  Sc  Sc56  1  0.10535839  0.49893968  0.09391118  1
  Sc  Sc57  1  0.30278464  0.70450818  0.69869065  1
  Sc  Sc58  1  0.10406447  0.70636176  0.10677406  1
  Sc  Sc59  1  0.29980094  0.10264098  0.30831467  1
  Sc  Sc60  1  0.49168490  0.29873822  0.90200187  1
  Sc  Sc61  1  0.10282637  0.09785467  0.49764764  1
  Sc  Sc62  1  0.10286219  0.29499537  0.69368447  1
  Sc  Sc63  1  0.90461145  0.10160261  0.49482588  1
  Sc  Sc64  1  0.09992633  0.49615859  0.69476980  1
  Sc  Sc65  1  0.29701540  0.69646799  0.10701055  1
  Sc  Sc66  1  0.30035724  0.29799138  0.70132172  1
  Sc  Sc67  1  0.49417258  0.10461262  0.90032335  1
  Sc  Sc68  1  0.49439933  0.70032904  0.30415128  1
  Sc  Sc69  1  0.69133406  0.50125285  0.50495473  1
  Sc  Sc70  1  0.49621133  0.49905553  0.90278534  1
  Sc  Sc71  1  0.09835430  0.70651448  0.49725133  1
  Sc  Sc72  1  0.30386420  0.50292097  0.10143420  1
  Sc  Sc73  1  0.29878142  0.29394330  0.49748412  1
  Sc  Sc74  1  0.89064030  0.70121874  0.10899083  1
  Sc  Sc75  1  0.30573192  0.29083243  0.30240888  1
  Sc  Sc76  1  0.30290872  0.89906997  0.70317252  1
  Sc  Sc77  1  0.08519335  0.50174117  0.30079467  1
  Sc  Sc78  1  0.70375127  0.29543098  0.90120513  1
  Sc  Sc79  1  0.69673183  0.50017612  0.10237971  1
  Sc  Sc80  1  0.70616864  0.09621666  0.50569385  1
  Sc  Sc81  1  0.50221717  0.50013265  0.09808156  1
  Sc  Sc82  1  0.90240317  0.90134444  0.29484275  1
  Sc  Sc83  1  0.90072113  0.90126912  0.49993757  1
  Sc  Sc84  1  0.09483690  0.10152426  0.91089078  1
  Sc  Sc85  1  0.50298016  0.29534580  0.10284916  1
  Sc  Sc86  1  0.09038355  0.49823400  0.50311623  1
  Sc  Sc87  1  0.70165563  0.70218480  0.30026464  1
  Sc  Sc88  1  0.09503520  0.28883614  0.49788137  1
  Sc  Sc89  1  0.10995368  0.70515224  0.90707741  1
  Sc  Sc90  1  0.70252230  0.70085060  0.50852854  1
  Sc  Sc91  1  0.29465854  0.09998493  0.49666204  1
  Sc  Sc92  1  0.50446504  0.69897433  0.70250802  1
  Sc  Sc93  1  0.09676698  0.70530511  0.30104684  1
  Sc  Sc94  1  0.49581709  0.90943643  0.89658206  1
  Sc  Sc95  1  0.70822112  0.10004556  0.29979378  1
  Sc  Sc96  1  0.29986887  0.70362128  0.29579603  1
  Sc  Sc97  1  0.29402085  0.70751813  0.50062776  1
  Sc  Sc98  1  0.31131704  0.50162328  0.29686841  1
  Sc  Sc99  1  0.69466081  0.89749582  0.50104501  1
  Nb  Nb100  1  0.50180618  0.90063216  0.49512305  1
  Nb  Nb101  1  0.50914447  0.90522885  0.68948891  1
  Nb  Nb102  1  0.49822678  0.90004542  0.30959719  1
  Nb  Nb103  1  0.70451886  0.10291265  0.89251720  1
  Nb  Nb104  1  0.50854488  0.29532481  0.69745708  1
  Nb  Nb105  1  0.29683511  0.29092330  0.89958167  1
  Nb  Nb106  1  0.30083836  0.71225282  0.89694065  1
  Nb  Nb107  1  0.90124876  0.90244831  0.10058303  1
  Nb  Nb108  1  0.90222207  0.10337821  0.29976896  1
  Nb  Nb109  1  0.69904668  0.10350810  0.70392468  1
  Nb  Nb110  1  0.89654138  0.29987435  0.70091781  1
  Nb  Nb111  1  0.89937636  0.49942422  0.49945085  1
  Nb  Nb112  1  0.10049172  0.10096426  0.10551328  1
  Nb  Nb113  1  0.50043336  0.09925165  0.29946956  1
  Nb  Nb114  1  0.49968407  0.90273755  0.09742797  1
  Nb  Nb115  1  0.29687193  0.89558247  0.90052129  1
  Nb  Nb116  1  0.89162568  0.70315966  0.90218629  1
  Nb  Nb117  1  0.10032587  0.30221029  0.30121255  1
  Nb  Nb118  1  0.90041545  0.30421120  0.50003836  1
  Nb  Nb119  1  0.89250027  0.50740194  0.09891304  1
  Nb  Nb120  1  0.30363071  0.89471992  0.30306283  1
  Nb  Nb121  1  0.89333127  0.10021514  0.89488717  1
  Nb  Nb122  1  0.89981637  0.50251552  0.89590912  1
  Nb  Nb123  1  0.30505608  0.10788406  0.89729388  1
  Nb  Nb124  1  0.70010045  0.70161728  0.89891471  1
  Nb  Nb125  1  0.41043419  0.81051155  0.59531538  1
  Nb  Nb126  1  0.19647845  0.40175459  0.39412806  1
  Nb  Nb127  1  0.80207956  0.60166882  0.80745331  1
  Nb  Nb128  1  0.59835282  0.39491142  0.79555421  1
  Nb  Nb129  1  0.59337641  0.80827538  0.19675361  1
  Nb  Nb130  1  0.80291603  0.00476210  -0.00368195  1
  Nb  Nb131  1  -0.00120713  0.60560513  0.80464864  1
  Nb  Nb132  1  0.19670018  0.39442107  0.20646249  1
  Nb  Nb133  1  0.40478079  -0.00557681  0.20505765  1
  Nb  Nb134  1  0.20767617  0.00367174  0.80930073  1
  Nb  Nb135  1  0.39753835  0.80262154  -0.00262151  1
  Nb  Nb136  1  0.20277803  0.40013858  0.80665099  1
  Nb  Nb137  1  -0.00244705  0.79406941  0.80404128  1
  Nb  Nb138  1  0.60514600  0.00492106  0.79478834  1
  Nb  Nb139  1  0.80654275  0.59347957  0.40351504  1
  Nb  Nb140  1  0.40728618  0.19843546  0.60209826  1
  Nb  Nb141  1  0.20033562  0.59936660  0.80221259  1
  Nb  Nb142  1  -0.00873863  0.20109882  0.79852690  1
  Nb  Nb143  1  -0.01084381  0.60523669  -0.00470491  1
  Nb  Nb144  1  0.19877018  0.59251162  0.40038143  1
  Nb  Nb145  1  -0.00838477  0.80082602  -0.00003365  1
  Nb  Nb146  1  0.59384130  -0.00165313  0.20288760  1
  Nb  Nb147  1  0.80568618  0.39995405  0.40460480  1
  Nb  Nb148  1  0.59581143  0.19579138  0.39919122  1
  Nb  Nb149  1  0.59621914  0.80085286  0.00162018  1
  Pd  Pd150  1  0.79892748  0.00663679  0.19655781  1
  Pd  Pd151  1  0.79578540  0.79802332  0.20045990  1
  Pd  Pd152  1  0.39495596  0.39757267  0.19601781  1
  Pd  Pd153  1  0.18496529  0.19898754  0.80513905  1
  Pd  Pd154  1  0.40220534  0.61517519  0.59623586  1
  Pd  Pd155  1  0.20560961  0.00810492  -0.00549454  1
  Pd  Pd156  1  -0.00894486  0.40612769  0.01139047  1
  Pd  Pd157  1  0.40072839  -0.00162485  0.79790784  1
  Pd  Pd158  1  0.39720471  0.19353608  0.19664189  1
  Pd  Pd159  1  0.39277695  0.60214265  0.80114665  1
  Pd  Pd160  1  0.19899286  0.39098968  0.59429587  1
  Pd  Pd161  1  -0.00771566  0.19589929  0.60397965  1
  Pd  Pd162  1  0.20670702  -0.00053489  0.60628334  1
  Pd  Pd163  1  0.60833882  0.00595018  0.39670958  1
  Pd  Pd164  1  0.01358862  0.00438469  0.79939272  1
  Pd  Pd165  1  0.79668246  0.20622605  0.39804968  1
  Pd  Pd166  1  0.79523058  0.39923562  0.59555930  1
  Pd  Pd167  1  0.20567324  0.00324559  0.21282612  1
  Pd  Pd168  1  0.80302919  0.79362920  0.40735637  1
  Pd  Pd169  1  0.59677347  0.20464757  -0.00959905  1
  Pd  Pd170  1  0.39177371  0.00010502  0.60132172  1
  Pd  Pd171  1  0.19561160  0.59030204  0.21064743  1
  Pd  Pd172  1  0.40243529  0.39379378  0.00672444  1
  Pd  Pd173  1  -0.00510445  -0.00205512  -0.00111678  1
  Pd  Pd174  1  0.80214284  0.40164087  0.00442680  1
  Pd  Pd175  1  0.61166111  0.38944295  0.39643488  1
  Pd  Pd176  1  0.00361779  0.39354037  0.59836249  1
  Pd  Pd177  1  0.40247596  0.80349079  0.19664311  1
  Pd  Pd178  1  0.19197010  0.80154366  0.78980891  1
  Pd  Pd179  1  0.80342272  -0.00200864  0.40343936  1
  Pd  Pd180  1  0.60829560  -0.00099502  -0.00860748  1
  Pd  Pd181  1  0.60318438  0.58813963  0.80313589  1
  Pd  Pd182  1  0.80167410  0.40066685  0.20206710  1
  Pd  Pd183  1  0.20239081  0.60646573  -0.00192110  1
  Pd  Pd184  1  -0.01071231  0.20128720  -0.00878069  1
  Pd  Pd185  1  0.38925119  -0.00160621  0.00298218  1
  Pd  Pd186  1  0.00571301  0.40330257  0.18788887  1
  Pd  Pd187  1  0.39292749  0.60752007  -0.00180672  1
  Pd  Pd188  1  0.19802688  0.60041261  0.59453240  1
  Pd  Pd189  1  0.79973766  0.80516640  0.00545655  1
  Pd  Pd190  1  0.59447014  0.60519736  0.20671342  1
  Pd  Pd191  1  0.80923000  0.19431872  0.59876229  1
  Pd  Pd192  1  0.40937296  0.80732375  0.79566755  1
  Pd  Pd193  1  0.59551586  0.39873648  0.19773093  1
  Pd  Pd194  1  0.00740275  0.39517226  0.79427913  1
  Pd  Pd195  1  0.39998652  0.39159439  0.79671491  1
  Pd  Pd196  1  0.39018365  0.60781633  0.40290484  1
  Pd  Pd197  1  0.00363977  0.60249228  0.18736346  1
  Pd  Pd198  1  0.00245410  -0.00237774  0.39705445  1
  Pd  Pd199  1  0.60901493  0.60614287  0.39975749  1
  Rh  Rh200  1  0.20453571  0.39781426  0.00371069  1
  Rh  Rh201  1  0.00069555  0.39538848  0.40733958  1
  Rh  Rh202  1  0.19869481  0.19175590  -0.00467452  1
  Rh  Rh203  1  0.00057436  0.80838288  0.60055635  1
  Rh  Rh204  1  0.59719951  0.20043667  0.80840163  1
  Rh  Rh205  1  0.00289969  0.59504017  0.60238168  1
  Rh  Rh206  1  0.19522433  0.20576780  0.39867236  1
  Rh  Rh207  1  0.39860874  0.20090998  0.00436004  1
  Rh  Rh208  1  -0.00069036  0.80503247  0.19340669  1
  Rh  Rh209  1  0.40629782  0.59669644  0.20314710  1
  Rh  Rh210  1  0.40878010  0.19779105  0.41097537  1
  Rh  Rh211  1  0.39676285  0.38820482  0.60389695  1
  Rh  Rh212  1  0.19829294  0.20178247  0.20693373  1
  Rh  Rh213  1  0.39915088  0.79607509  0.40730892  1
  Rh  Rh214  1  0.80600098  0.19660949  -0.00380775  1
  Rh  Rh215  1  0.79602463  0.59735423  0.59924177  1
  Rh  Rh216  1  0.80573701  0.79278941  0.79022547  1
  Rh  Rh217  1  0.79051964  -0.00028578  0.80029039  1
  Rh  Rh218  1  0.80787612  0.20630033  0.80031216  1
  Rh  Rh219  1  -0.00021709  0.80652933  0.40065513  1
  Rh  Rh220  1  -0.00007384  0.19722088  0.39896606  1
  Rh  Rh221  1  -0.00031272  0.00110375  0.59174628  1
  Rh  Rh222  1  0.59395055  0.18907669  0.58820947  1
  Rh  Rh223  1  0.59643303  0.60086843  0.60191331  1
  Rh  Rh224  1  -0.00002842  0.00389454  0.20749588  1
  Rh  Rh225  1  0.39397430  -0.00002972  0.39257044  1
  Rh  Rh226  1  0.19715195  0.80304778  0.20397241  1
  Rh  Rh227  1  0.80044412  0.59689649  -0.00226301  1
  Rh  Rh228  1  0.59068810  0.81160397  0.80380908  1
  Rh  Rh229  1  0.79024527  0.40170605  0.79917979  1
  Rh  Rh230  1  0.59895391  0.60180892  -0.00338606  1
  Rh  Rh231  1  0.79830925  0.60169927  0.20918995  1
  Rh  Rh232  1  0.60304625  0.79738440  0.39542058  1
  Rh  Rh233  1  0.60805872  0.00363420  0.60169142  1
  Rh  Rh234  1  0.20883073  0.19836144  0.59561088  1
  Rh  Rh235  1  0.00266009  0.60275176  0.40505009  1
  Rh  Rh236  1  0.21035935  0.80696912  0.60194821  1
  Rh  Rh237  1  0.20070026  0.79363098  0.39276527  1
  Rh  Rh238  1  0.60162128  0.19300585  0.20585088  1
  Rh  Rh239  1  0.00379510  0.19246142  0.20788029  1
  Rh  Rh240  1  0.39170265  0.39682371  0.39759218  1
  Rh  Rh241  1  0.80489477  0.19709396  0.20291426  1
  Rh  Rh242  1  0.19981942  -0.00220155  0.39522109  1
  Rh  Rh243  1  0.59616023  0.39585435  -0.00581316  1
  Rh  Rh244  1  0.79855193  0.80278424  0.59494550  1
  Rh  Rh245  1  0.60444336  0.40313432  0.60796303  1
  Rh  Rh246  1  0.80081696  0.00117372  0.59492361  1
  Rh  Rh247  1  0.40620470  0.20651053  0.79456218  1
  Rh  Rh248  1  0.20280882  0.79553612  0.01042397  1
  Rh  Rh249  1  0.59686226  0.80006296  0.59791834  1
