# generated using pymatgen
data_ZrScNbPdRh
_symmetry_space_group_name_H-M   'P 1'
_cell_length_a   16.55618548
_cell_length_b   16.55793029
_cell_length_c   16.55350229
_cell_angle_alpha   89.96878908
_cell_angle_beta   90.00309631
_cell_angle_gamma   89.99238773
_symmetry_Int_Tables_number   1
_chemical_formula_structural   ZrScNbPdRh
_chemical_formula_sum   'Zr50 Sc50 Nb50 Pd50 Rh50'
_cell_volume   4537.91291568
_cell_formula_units_Z   50
loop_
 _symmetry_equiv_pos_site_id
 _symmetry_equiv_pos_as_xyz
  1  'x, y, z'
loop_
 _atom_site_type_symbol
 _atom_site_label
 _atom_site_symmetry_multiplicity
 _atom_site_fract_x
 _atom_site_fract_y
 _atom_site_fract_z
 _atom_site_occupancy
  Zr  Zr0  1  0.49386513  0.30067128  0.90410701  1
  Zr  Zr1  1  0.29893021  0.10295174  0.49451780  1
  Zr  Zr2  1  0.09754842  0.10078824  0.29771707  1
  Zr  Zr3  1  0.29576515  0.50480827  0.49980381  1
  Zr  Zr4  1  0.69577620  0.90448425  0.29676305  1
  Zr  Zr5  1  0.30810978  0.29087727  0.30035427  1
  Zr  Zr6  1  0.69981520  0.89383650  0.49649717  1
  Zr  Zr7  1  0.09985051  0.90563910  0.51864504  1
  Zr  Zr8  1  0.71315665  0.30546128  0.49754927  1
  Zr  Zr9  1  0.70216245  0.10377976  0.10829275  1
  Zr  Zr10  1  0.90460378  0.89687546  0.50322343  1
  Zr  Zr11  1  0.29390530  0.69305898  0.70493838  1
  Zr  Zr12  1  0.69726810  0.70810884  0.30172845  1
  Zr  Zr13  1  0.69935339  0.29721775  0.29647072  1
  Zr  Zr14  1  0.89864487  0.50089293  0.30205461  1
  Zr  Zr15  1  0.69928415  0.10592817  0.30152710  1
  Zr  Zr16  1  0.10195358  0.69539663  0.70741944  1
  Zr  Zr17  1  0.10384820  0.09703144  0.70092745  1
  Zr  Zr18  1  0.10451361  0.28874015  0.51045083  1
  Zr  Zr19  1  0.29675316  0.09991717  0.29384654  1
  Zr  Zr20  1  0.10180436  0.50517124  0.50251725  1
  Zr  Zr21  1  0.90863653  0.29355725  0.90109196  1
  Zr  Zr22  1  0.48961847  0.90413026  0.10676492  1
  Zr  Zr23  1  0.29730472  0.90574981  0.50587261  1
  Zr  Zr24  1  0.69735233  0.50044811  0.69003410  1
  Zr  Zr25  1  0.09679518  0.49182549  0.10398889  1
  Zr  Zr26  1  0.30126304  0.70592789  0.09349880  1
  Zr  Zr27  1  0.70108451  0.09745317  0.70677610  1
  Zr  Zr28  1  0.49199964  0.70240499  0.31620515  1
  Zr  Zr29  1  0.49918432  0.90400478  0.49663387  1
  Zr  Zr30  1  0.49188934  0.10348958  0.09966783  1
  Zr  Zr31  1  0.50173554  0.49591340  0.70263451  1
  Zr  Zr32  1  0.49970509  0.49235335  0.90189500  1
  Zr  Zr33  1  0.50001515  0.10844715  0.30655589  1
  Zr  Zr34  1  0.49467314  0.70367447  0.10167150  1
  Zr  Zr35  1  0.09588116  0.50058343  0.29654998  1
  Zr  Zr36  1  0.90113572  0.70747647  0.49389771  1
  Zr  Zr37  1  0.30182715  0.50209820  0.89623507  1
  Zr  Zr38  1  0.70366189  0.10089444  0.90140997  1
  Zr  Zr39  1  0.50018520  0.30147485  0.70888145  1
  Zr  Zr40  1  0.49554574  0.10537742  0.89922784  1
  Zr  Zr41  1  0.69692210  0.49053463  0.09903314  1
  Zr  Zr42  1  0.10388468  0.29342317  0.89729767  1
  Zr  Zr43  1  0.70158545  0.30511899  0.69199117  1
  Zr  Zr44  1  0.90308703  0.90115623  0.10719952  1
  Zr  Zr45  1  0.29063298  0.89940738  0.90429419  1
  Zr  Zr46  1  0.49839884  0.10144298  0.69982727  1
  Zr  Zr47  1  0.89706531  0.89270713  0.30217924  1
  Zr  Zr48  1  0.28569003  0.49818104  0.70110286  1
  Zr  Zr49  1  0.70366999  0.90448769  0.70185631  1
  Sc  Sc50  1  0.09946220  0.09728679  0.10560744  1
  Sc  Sc51  1  0.29678118  0.69402580  0.90593906  1
  Sc  Sc52  1  0.09858479  0.90264982  0.08976683  1
  Sc  Sc53  1  0.09908427  0.69029619  0.09345192  1
  Sc  Sc54  1  0.29511544  0.50215692  0.29712554  1
  Sc  Sc55  1  0.91827524  0.90259468  0.69998104  1
  Sc  Sc56  1  0.69180413  0.69800918  0.50141817  1
  Sc  Sc57  1  0.50863254  0.29182814  0.49594078  1
  Sc  Sc58  1  0.10215785  0.10123022  0.89967966  1
  Sc  Sc59  1  0.10002108  0.69185532  0.29962892  1
  Sc  Sc60  1  0.89396602  0.29332296  0.30830601  1
  Sc  Sc61  1  0.90370420  0.68934572  0.89838218  1
  Sc  Sc62  1  0.90051689  0.10693506  0.29510107  1
  Sc  Sc63  1  0.70213892  0.49759386  0.89947444  1
  Sc  Sc64  1  0.89121616  0.50478944  0.49764030  1
  Sc  Sc65  1  0.69618690  0.29993551  0.90537895  1
  Sc  Sc66  1  0.50112244  0.90383363  0.89501623  1
  Sc  Sc67  1  0.29922583  0.29655835  0.89776674  1
  Sc  Sc68  1  0.69919598  0.29728385  0.10102546  1
  Sc  Sc69  1  0.29534595  0.49738945  0.09537451  1
  Sc  Sc70  1  0.68859854  0.10971598  0.49712395  1
  Sc  Sc71  1  0.90084600  0.10387226  0.89941096  1
  Sc  Sc72  1  0.90070651  0.29815975  0.09309862  1
  Sc  Sc73  1  0.49683304  0.30769206  0.10302587  1
  Sc  Sc74  1  0.69664045  0.90685416  0.88921444  1
  Sc  Sc75  1  0.89894684  0.51338857  0.69740331  1
  Sc  Sc76  1  0.50367400  0.51179382  0.49623501  1
  Sc  Sc77  1  0.90377106  0.69387242  0.09828603  1
  Sc  Sc78  1  0.50415581  0.91047439  0.69708418  1
  Sc  Sc79  1  0.09768340  0.90572563  0.28508423  1
  Sc  Sc80  1  0.10215002  0.70056376  0.49451159  1
  Sc  Sc81  1  0.91177368  0.90097999  0.89831165  1
  Sc  Sc82  1  0.30299209  0.09138284  0.09878149  1
  Sc  Sc83  1  0.10392501  0.49934199  0.90498139  1
  Sc  Sc84  1  0.51337222  0.69438044  0.70139737  1
  Sc  Sc85  1  0.30235296  0.09335625  0.70652315  1
  Sc  Sc86  1  0.90887240  0.11465183  0.49861491  1
  Sc  Sc87  1  0.90221620  0.69837105  0.70185116  1
  Sc  Sc88  1  0.30322566  0.10266158  0.90232005  1
  Sc  Sc89  1  0.29544978  0.70361642  0.48395080  1
  Sc  Sc90  1  0.10377486  0.09823911  0.50398495  1
  Sc  Sc91  1  0.90461531  0.49532399  0.09169813  1
  Sc  Sc92  1  0.90337319  0.10450521  0.09690486  1
  Sc  Sc93  1  0.90765727  0.69921752  0.30052193  1
  Sc  Sc94  1  0.70179263  0.69285990  0.89412164  1
  Sc  Sc95  1  0.09865424  0.29542315  0.28880468  1
  Sc  Sc96  1  0.70142043  0.69685982  0.69826918  1
  Sc  Sc97  1  0.89999686  0.10339771  0.70845096  1
  Sc  Sc98  1  0.30387599  0.90380132  0.30258485  1
  Sc  Sc99  1  0.30409016  0.29971374  0.09927314  1
  Nb  Nb100  1  0.89654234  0.49458517  0.89291259  1
  Nb  Nb101  1  0.49373159  0.09826488  0.50386539  1
  Nb  Nb102  1  0.49147467  0.70279180  0.50292035  1
  Nb  Nb103  1  0.49973824  0.69921668  0.90272098  1
  Nb  Nb104  1  0.90365791  0.30455713  0.50387271  1
  Nb  Nb105  1  0.49813626  0.49607501  0.10619746  1
  Nb  Nb106  1  0.28823057  0.29859362  0.69439934  1
  Nb  Nb107  1  0.70078196  0.49786136  0.30137811  1
  Nb  Nb108  1  0.10314431  0.71098172  0.90252327  1
  Nb  Nb109  1  0.69540592  0.69995423  0.10153440  1
  Nb  Nb110  1  0.10669171  0.30149368  0.70426614  1
  Nb  Nb111  1  0.29542147  0.89551087  0.70257674  1
  Nb  Nb112  1  0.69876580  0.89748377  0.10520285  1
  Nb  Nb113  1  0.90143976  0.30243891  0.69617977  1
  Nb  Nb114  1  0.29811458  0.69993394  0.29922153  1
  Nb  Nb115  1  0.09514982  0.30540873  0.08889230  1
  Nb  Nb116  1  0.30011608  0.29951430  0.50171563  1
  Nb  Nb117  1  0.49783065  0.30577515  0.29518093  1
  Nb  Nb118  1  0.50446624  0.90373977  0.30655083  1
  Nb  Nb119  1  0.11375464  0.89801581  0.71227721  1
  Nb  Nb120  1  0.10123701  0.89003415  0.88865997  1
  Nb  Nb121  1  0.10388713  0.49770865  0.69844229  1
  Nb  Nb122  1  0.30023404  0.90210047  0.10127057  1
  Nb  Nb123  1  0.49820106  0.49669043  0.29582485  1
  Nb  Nb124  1  0.70202973  0.49568597  0.49419386  1
  Nb  Nb125  1  0.59488466  0.60285613  0.00650752  1
  Nb  Nb126  1  0.20771836  0.79940124  0.19470868  1
  Nb  Nb127  1  0.59730705  0.59575685  0.20284125  1
  Nb  Nb128  1  0.39752686  0.20319797  0.59929598  1
  Nb  Nb129  1  0.00146083  0.39866666  0.60410417  1
  Nb  Nb130  1  0.40156543  0.39906958  0.40090411  1
  Nb  Nb131  1  0.39836746  0.79652652  0.60423609  1
  Nb  Nb132  1  0.79284648  0.80390214  0.00049149  1
  Nb  Nb133  1  0.39844036  0.60288879  0.59988382  1
  Nb  Nb134  1  0.39529658  0.39802865  0.59576517  1
  Nb  Nb135  1  0.80297231  0.00143791  0.59456323  1
  Nb  Nb136  1  0.40299166  0.60028929  0.20263836  1
  Nb  Nb137  1  -0.00405170  -0.00191165  0.40100622  1
  Nb  Nb138  1  0.00331721  0.39456074  0.40864116  1
  Nb  Nb139  1  0.80315652  0.00105741  0.40429469  1
  Nb  Nb140  1  0.00122104  0.40061127  0.79237724  1
  Nb  Nb141  1  0.39979017  0.79712514  0.79593162  1
  Nb  Nb142  1  0.60028888  0.40489462  0.39266495  1
  Nb  Nb143  1  0.19963024  0.39358953  0.40235950  1
  Nb  Nb144  1  0.60367121  0.80052904  0.00225885  1
  Nb  Nb145  1  0.60406441  -0.00306735  0.00689909  1
  Nb  Nb146  1  0.80268123  0.80259899  0.80341309  1
  Nb  Nb147  1  0.79007578  0.59694821  0.19876587  1
  Nb  Nb148  1  0.79524966  -0.00785636  0.00442839  1
  Nb  Nb149  1  0.80850180  0.39943336  0.79517173  1
  Pd  Pd150  1  0.60473196  0.20368613  0.80153850  1
  Pd  Pd151  1  0.39611523  0.80042750  0.21206772  1
  Pd  Pd152  1  0.40446670  0.80873556  -0.01193013  1
  Pd  Pd153  1  0.80390731  0.80328539  0.60974068  1
  Pd  Pd154  1  0.00320017  0.59340742  -0.00571851  1
  Pd  Pd155  1  0.59207336  0.00542973  0.19979547  1
  Pd  Pd156  1  0.00670413  0.59524265  0.80716662  1
  Pd  Pd157  1  0.19464480  0.00190941  -0.00214667  1
  Pd  Pd158  1  0.20535116  0.60538026  0.19369473  1
  Pd  Pd159  1  0.39995306  0.00115127  0.39639695  1
  Pd  Pd160  1  0.01597399  0.80718871  0.39591154  1
  Pd  Pd161  1  -0.00153648  0.00382377  -0.00418769  1
  Pd  Pd162  1  -0.00332988  0.20660118  0.19354603  1
  Pd  Pd163  1  0.80197538  0.39379766  -0.00686813  1
  Pd  Pd164  1  0.79471724  0.60325356  0.00351228  1
  Pd  Pd165  1  0.80648137  0.00486124  0.20257717  1
  Pd  Pd166  1  0.40591883  0.60524137  0.79491185  1
  Pd  Pd167  1  0.79758618  0.21108594  0.80116200  1
  Pd  Pd168  1  0.20056145  0.20252674  0.18782792  1
  Pd  Pd169  1  0.80691811  0.39927810  0.19883099  1
  Pd  Pd170  1  0.18896576  -0.00674717  0.39673341  1
  Pd  Pd171  1  -0.00031631  0.60158922  0.59471074  1
  Pd  Pd172  1  0.60046852  0.79805500  0.80414729  1
  Pd  Pd173  1  -0.01064323  0.39127542  0.20569710  1
  Pd  Pd174  1  0.59052902  0.79824521  0.20248562  1
  Pd  Pd175  1  0.60269866  0.59416038  0.80709971  1
  Pd  Pd176  1  0.38761993  0.39459024  0.79390114  1
  Pd  Pd177  1  0.19284631  0.81123309  0.38826439  1
  Pd  Pd178  1  -0.00617551  0.79757406  0.00002420  1
  Pd  Pd179  1  0.20273068  0.79153703  0.59902202  1
  Pd  Pd180  1  0.20138712  0.19543590  0.00766301  1
  Pd  Pd181  1  0.40300986  0.59099491  0.00567427  1
  Pd  Pd182  1  0.60784096  0.00324103  0.59485930  1
  Pd  Pd183  1  0.00334704  0.00436578  0.80452166  1
  Pd  Pd184  1  0.59699435  0.19838891  0.00677517  1
  Pd  Pd185  1  0.59086291  0.40201524  0.58593616  1
  Pd  Pd186  1  0.20502178  0.39260297  0.20380382  1
  Pd  Pd187  1  0.60185938  0.59797714  0.39847036  1
  Pd  Pd188  1  0.20446298  0.39771352  -0.00386511  1
  Pd  Pd189  1  0.19343826  0.20357552  0.39537375  1
  Pd  Pd190  1  0.80120189  0.19092862  0.59794856  1
  Pd  Pd191  1  0.79767493  0.60524412  0.59388444  1
  Pd  Pd192  1  0.39729421  -0.00793527  0.80223092  1
  Pd  Pd193  1  0.01281535  0.79101471  0.19451999  1
  Pd  Pd194  1  0.59275823  0.80076465  0.60178661  1
  Pd  Pd195  1  0.80598026  0.78884487  0.19505831  1
  Pd  Pd196  1  0.00091293  0.19892714  0.60986722  1
  Pd  Pd197  1  0.59661709  0.20123809  0.60250955  1
  Pd  Pd198  1  0.00785090  0.79294887  0.60858392  1
  Pd  Pd199  1  0.79808400  0.60963346  0.39644077  1
  Rh  Rh200  1  0.19636366  0.39939380  0.59438418  1
  Rh  Rh201  1  0.18993474  0.60048638  0.81248137  1
  Rh  Rh202  1  0.39181141  0.20617204  0.79169429  1
  Rh  Rh203  1  0.79670784  0.59904501  0.79560664  1
  Rh  Rh204  1  0.20654318  0.00416885  0.60827697  1
  Rh  Rh205  1  0.59278650  0.00951230  0.80638333  1
  Rh  Rh206  1  0.19708109  0.59504924  0.39369511  1
  Rh  Rh207  1  0.20797093  0.79250362  0.80605174  1
  Rh  Rh208  1  0.00125390  0.40032349  -0.00959790  1
  Rh  Rh209  1  0.19518139  0.80227417  0.00481885  1
  Rh  Rh210  1  0.61418962  0.39875194  0.80415189  1
  Rh  Rh211  1  -0.00556798  0.00295837  0.20477231  1
  Rh  Rh212  1  0.20379372  -0.00648106  0.19545315  1
  Rh  Rh213  1  0.80244062  0.39966318  0.39858026  1
  Rh  Rh214  1  0.79675744  0.79881418  0.39895580  1
  Rh  Rh215  1  0.39595758  0.20392073  0.00223885  1
  Rh  Rh216  1  0.20457634  0.19465391  0.79804474  1
  Rh  Rh217  1  0.59761942  0.59848302  0.59420152  1
  Rh  Rh218  1  -0.00885158  0.59659084  0.19638154  1
  Rh  Rh219  1  0.60352532  0.00323061  0.40248987  1
  Rh  Rh220  1  0.39615320  0.80883169  0.40442157  1
  Rh  Rh221  1  0.59192109  0.20532241  0.19805564  1
  Rh  Rh222  1  0.00541903  0.20276657  0.79541631  1
  Rh  Rh223  1  0.81336207  -0.01042773  0.79716742  1
  Rh  Rh224  1  0.00816415  0.19580148  0.00326847  1
  Rh  Rh225  1  0.20125773  0.60963370  0.59489638  1
  Rh  Rh226  1  0.79975259  0.19314147  0.00096591  1
  Rh  Rh227  1  0.80044754  0.19592919  0.40579279  1
  Rh  Rh228  1  0.19770236  0.39884789  0.80593074  1
  Rh  Rh229  1  0.39057273  0.40657677  0.20371979  1
  Rh  Rh230  1  -0.00268356  0.79418332  0.79935557  1
  Rh  Rh231  1  0.81021990  0.40996184  0.60461783  1
  Rh  Rh232  1  0.59783564  0.20742856  0.39692598  1
  Rh  Rh233  1  0.39442407  0.59457012  0.39838650  1
  Rh  Rh234  1  0.00539933  0.20057149  0.39798120  1
  Rh  Rh235  1  0.60237017  0.39740781  0.20313101  1
  Rh  Rh236  1  0.40131532  0.19885165  0.19630634  1
  Rh  Rh237  1  0.40051145  0.00210270  0.20966396  1
  Rh  Rh238  1  0.40687969  0.20359828  0.40692451  1
  Rh  Rh239  1  -0.00173921  0.59434677  0.40368157  1
  Rh  Rh240  1  0.39447231  0.00101068  0.60130874  1
  Rh  Rh241  1  0.59556478  0.40123942  0.00129131  1
  Rh  Rh242  1  0.20918085  0.18845623  0.60726794  1
  Rh  Rh243  1  0.80465322  0.20581244  0.19585748  1
  Rh  Rh244  1  0.59586027  0.80185066  0.40268826  1
  Rh  Rh245  1  0.19604863  0.59835308  -0.00057235  1
  Rh  Rh246  1  0.40432247  -0.00346344  -0.00550007  1
  Rh  Rh247  1  -0.00505773  0.00955727  0.59696884  1
  Rh  Rh248  1  0.39649219  0.40096038  0.00153584  1
  Rh  Rh249  1  0.20007518  0.00206780  0.80713441  1
