# generated using pymatgen
data_ZrScNbPdRh
_symmetry_space_group_name_H-M   'P 1'
_cell_length_a   16.56110065
_cell_length_b   16.55976330
_cell_length_c   16.55925984
_cell_angle_alpha   90.00081983
_cell_angle_beta   89.97439569
_cell_angle_gamma   89.98871659
_symmetry_Int_Tables_number   1
_chemical_formula_structural   ZrScNbPdRh
_chemical_formula_sum   'Zr50 Sc50 Nb50 Pd50 Rh50'
_cell_volume   4541.34180699
_cell_formula_units_Z   50
loop_
 _symmetry_equiv_pos_site_id
 _symmetry_equiv_pos_as_xyz
  1  'x, y, z'
loop_
 _atom_site_type_symbol
 _atom_site_label
 _atom_site_symmetry_multiplicity
 _atom_site_fract_x
 _atom_site_fract_y
 _atom_site_fract_z
 _atom_site_occupancy
  Zr  Zr0  1  0.09316032  0.10715344  0.88955507  1
  Zr  Zr1  1  0.29905719  0.29525377  0.09910810  1
  Zr  Zr2  1  0.49977029  0.89788434  0.90602872  1
  Zr  Zr3  1  0.29124512  0.49525488  0.09833209  1
  Zr  Zr4  1  0.90111490  0.50704273  0.71606107  1
  Zr  Zr5  1  0.70426987  0.09002741  0.09957828  1
  Zr  Zr6  1  0.50309505  0.71013516  0.09903334  1
  Zr  Zr7  1  0.29913709  0.10935275  0.10034348  1
  Zr  Zr8  1  0.10088223  0.49910017  0.49984280  1
  Zr  Zr9  1  0.70857263  0.90698544  0.51501394  1
  Zr  Zr10  1  0.09797972  0.70915218  0.50076657  1
  Zr  Zr11  1  0.90453938  0.29652552  0.49419208  1
  Zr  Zr12  1  0.09939597  0.90142095  0.29269158  1
  Zr  Zr13  1  0.30216599  0.29157796  0.30588557  1
  Zr  Zr14  1  0.29978050  0.49998479  0.29733136  1
  Zr  Zr15  1  0.90234387  0.68475540  0.90042106  1
  Zr  Zr16  1  0.29990306  0.30726224  0.70174565  1
  Zr  Zr17  1  0.89972074  0.29849248  0.30687594  1
  Zr  Zr18  1  0.70786927  0.89842293  0.70918554  1
  Zr  Zr19  1  0.49029876  0.70296827  0.29887190  1
  Zr  Zr20  1  0.30988715  0.49621189  0.49847928  1
  Zr  Zr21  1  0.69788566  0.30233500  0.50527094  1
  Zr  Zr22  1  0.09768611  0.29613167  0.49994524  1
  Zr  Zr23  1  0.68622341  0.29887513  0.10794338  1
  Zr  Zr24  1  0.29333780  0.50028800  0.69543058  1
  Zr  Zr25  1  0.70260010  0.28894469  0.89237699  1
  Zr  Zr26  1  0.69976539  0.71124624  0.70217537  1
  Zr  Zr27  1  0.11392045  0.70455543  0.90246294  1
  Zr  Zr28  1  0.90385917  0.70109109  0.49673081  1
  Zr  Zr29  1  0.30200540  0.88808967  0.89557524  1
  Zr  Zr30  1  0.49128892  0.71181786  0.89177880  1
  Zr  Zr31  1  0.09863578  0.69878735  0.10211583  1
  Zr  Zr32  1  0.70023946  0.48736363  0.69508677  1
  Zr  Zr33  1  0.49376759  0.50489983  0.30033234  1
  Zr  Zr34  1  0.90299876  0.50474301  0.08669442  1
  Zr  Zr35  1  0.50638418  0.29557121  0.28996843  1
  Zr  Zr36  1  0.28783269  0.90899761  0.09948552  1
  Zr  Zr37  1  0.30108707  0.70316781  0.71292206  1
  Zr  Zr38  1  0.49729848  0.29191515  0.09007634  1
  Zr  Zr39  1  0.10459696  0.50657411  0.10749231  1
  Zr  Zr40  1  0.70114207  0.29411116  0.30527664  1
  Zr  Zr41  1  0.30446847  0.89242811  0.30686435  1
  Zr  Zr42  1  0.30139168  0.49911591  0.89495476  1
  Zr  Zr43  1  0.11219670  0.29887865  0.09512129  1
  Zr  Zr44  1  0.10428735  0.30011371  0.69990774  1
  Zr  Zr45  1  0.29476707  0.10112838  0.49634285  1
  Zr  Zr46  1  0.89959880  0.50518918  0.30451897  1
  Zr  Zr47  1  0.50711857  0.29630469  0.69463629  1
  Zr  Zr48  1  0.29483273  0.29895591  0.90345744  1
  Zr  Zr49  1  0.90161756  0.90044554  0.69567519  1
  Sc  Sc50  1  0.11211190  0.09437357  0.10788717  1
  Sc  Sc51  1  0.89919111  0.30038509  0.08494523  1
  Sc  Sc52  1  0.89768442  0.09288164  0.49871703  1
  Sc  Sc53  1  0.89519840  0.91024293  0.89370079  1
  Sc  Sc54  1  0.89625262  0.30439140  0.70364137  1
  Sc  Sc55  1  0.50298116  0.09698886  0.90249981  1
  Sc  Sc56  1  0.48402736  0.48980513  0.69203422  1
  Sc  Sc57  1  0.69759610  0.09648457  0.70296051  1
  Sc  Sc58  1  0.90376471  0.49485061  0.49147609  1
  Sc  Sc59  1  0.70588582  0.90243303  0.28005046  1
  Sc  Sc60  1  0.50434908  0.90238681  0.09703942  1
  Sc  Sc61  1  0.10156263  0.29688021  0.31006572  1
  Sc  Sc62  1  0.89905850  0.90897165  0.30177062  1
  Sc  Sc63  1  0.10413083  0.09955719  0.69814231  1
  Sc  Sc64  1  0.69480006  0.50168951  0.10135595  1
  Sc  Sc65  1  0.49570532  0.48955037  0.89789734  1
  Sc  Sc66  1  0.88750969  0.90336641  0.10824444  1
  Sc  Sc67  1  0.09985991  0.90455024  0.69294955  1
  Sc  Sc68  1  0.10890954  0.90309762  0.89880621  1
  Sc  Sc69  1  0.10055189  0.51002260  0.91047031  1
  Sc  Sc70  1  0.50278186  0.09741726  0.49534022  1
  Sc  Sc71  1  0.09312149  0.69850478  0.29474336  1
  Sc  Sc72  1  0.29732942  0.09422860  0.89889124  1
  Sc  Sc73  1  0.89646196  0.70752062  0.70659981  1
  Sc  Sc74  1  0.89991453  0.69784953  0.29452860  1
  Sc  Sc75  1  0.49892335  0.10016704  0.09933707  1
  Sc  Sc76  1  0.70986842  0.49901395  0.90041475  1
  Sc  Sc77  1  0.70230979  0.71297178  0.89912989  1
  Sc  Sc78  1  0.49564229  0.89637009  0.29044807  1
  Sc  Sc79  1  0.70201406  0.09692755  0.49855764  1
  Sc  Sc80  1  0.90774403  0.90344172  0.50487021  1
  Sc  Sc81  1  0.30588075  0.70975761  0.50372615  1
  Sc  Sc82  1  0.90740211  0.09234221  0.70905400  1
  Sc  Sc83  1  0.50741035  0.89710975  0.70477131  1
  Sc  Sc84  1  0.70194623  0.10430538  0.30094797  1
  Sc  Sc85  1  0.89179744  0.10027905  0.30447412  1
  Sc  Sc86  1  0.50041270  0.29643539  0.49673348  1
  Sc  Sc87  1  0.10085330  0.10049289  0.30115481  1
  Sc  Sc88  1  0.29262649  0.70144583  0.10163372  1
  Sc  Sc89  1  0.09524917  0.10436525  0.50632601  1
  Sc  Sc90  1  0.70189785  0.70502149  0.50774175  1
  Sc  Sc91  1  0.50881950  0.09206680  0.70117023  1
  Sc  Sc92  1  0.70815883  0.49557531  0.49776830  1
  Sc  Sc93  1  0.49729322  0.10313660  0.30229625  1
  Sc  Sc94  1  0.70185055  0.69662260  0.28612366  1
  Sc  Sc95  1  0.30221567  0.10001073  0.29826150  1
  Sc  Sc96  1  0.49105773  0.89351954  0.50208858  1
  Sc  Sc97  1  0.50159985  0.49003286  0.10351733  1
  Sc  Sc98  1  0.70504301  0.71221677  0.09819404  1
  Sc  Sc99  1  0.70631077  0.09709397  0.89918205  1
  Nb  Nb100  1  0.29086732  0.89857611  0.50552089  1
  Nb  Nb101  1  0.69983510  0.29442570  0.69876102  1
  Nb  Nb102  1  0.90007830  0.10097587  0.09355969  1
  Nb  Nb103  1  0.29593505  0.29338974  0.49801590  1
  Nb  Nb104  1  0.69907011  0.90120160  0.09143547  1
  Nb  Nb105  1  0.09794241  0.50313804  0.69882205  1
  Nb  Nb106  1  0.69974471  0.49859795  0.29886468  1
  Nb  Nb107  1  0.29685631  0.10290331  0.69825897  1
  Nb  Nb108  1  0.49836042  0.29502814  0.89608449  1
  Nb  Nb109  1  0.50171420  0.50300191  0.49861878  1
  Nb  Nb110  1  0.30409109  0.69490526  0.30502172  1
  Nb  Nb111  1  0.50156673  0.69730496  0.49940106  1
  Nb  Nb112  1  0.29598235  0.90741600  0.69655827  1
  Nb  Nb113  1  0.90544914  0.29488931  0.90119351  1
  Nb  Nb114  1  0.69913524  0.90116262  0.91171294  1
  Nb  Nb115  1  0.90376264  0.49426467  0.90365268  1
  Nb  Nb116  1  0.90106632  0.11024069  0.90696969  1
  Nb  Nb117  1  0.50409452  0.69996245  0.69891975  1
  Nb  Nb118  1  0.10271480  0.89890226  0.50131335  1
  Nb  Nb119  1  0.90300937  0.70200231  0.09712399  1
  Nb  Nb120  1  0.09623386  0.90012350  0.09950250  1
  Nb  Nb121  1  0.09557085  0.50628596  0.29945387  1
  Nb  Nb122  1  0.09640738  0.69513641  0.70454573  1
  Nb  Nb123  1  0.09876213  0.29708719  0.89827513  1
  Nb  Nb124  1  0.30308890  0.70299934  0.90202363  1
  Nb  Nb125  1  -0.00317765  0.20336251  0.19562756  1
  Nb  Nb126  1  0.39373363  0.19493132  0.60254691  1
  Nb  Nb127  1  0.80309681  0.40094034  0.20147178  1
  Nb  Nb128  1  0.59861224  0.40781006  0.39665003  1
  Nb  Nb129  1  -0.00008010  0.80553144  0.00231623  1
  Nb  Nb130  1  0.60294750  -0.01423192  0.39863284  1
  Nb  Nb131  1  0.59235317  0.60510563  -0.00820163  1
  Nb  Nb132  1  0.60408005  0.79931660  0.39853282  1
  Nb  Nb133  1  0.40126345  0.60424644  -0.00367621  1
  Nb  Nb134  1  0.20320668  0.60175698  0.39788971  1
  Nb  Nb135  1  -0.00197919  0.39891526  0.20046723  1
  Nb  Nb136  1  0.00025619  0.60072029  0.60642605  1
  Nb  Nb137  1  0.59530056  0.59760214  0.79496160  1
  Nb  Nb138  1  0.00095293  0.40045141  0.81153330  1
  Nb  Nb139  1  -0.00150143  0.00164763  0.00336573  1
  Nb  Nb140  1  0.79353141  0.80406058  0.39937105  1
  Nb  Nb141  1  0.38953585  0.00022865  0.60252070  1
  Nb  Nb142  1  0.39970003  0.19930165  0.79509702  1
  Nb  Nb143  1  0.79824014  0.20256996  0.60496444  1
  Nb  Nb144  1  0.19885383  -0.00979859  0.40648517  1
  Nb  Nb145  1  0.60180004  0.39439866  0.79650228  1
  Nb  Nb146  1  0.00463561  0.79796287  0.80560420  1
  Nb  Nb147  1  0.80241589  0.59928970  0.60395005  1
  Nb  Nb148  1  0.59869518  0.60205724  0.40322303  1
  Nb  Nb149  1  0.59766849  0.59981298  0.60110818  1
  Pd  Pd150  1  0.39812971  0.00142511  0.19718321  1
  Pd  Pd151  1  0.40064068  0.60603453  0.60171251  1
  Pd  Pd152  1  0.81308026  0.39980216  0.59757382  1
  Pd  Pd153  1  0.39818228  0.39298165  0.19646057  1
  Pd  Pd154  1  0.80665499  0.20448259  0.19093861  1
  Pd  Pd155  1  0.78687266  0.60299285  0.79816212  1
  Pd  Pd156  1  0.18780392  0.40750842  0.80700565  1
  Pd  Pd157  1  0.19769197  0.79545716  0.61077054  1
  Pd  Pd158  1  0.59717649  0.60317798  0.19534561  1
  Pd  Pd159  1  0.59590595  0.80287246  0.59523555  1
  Pd  Pd160  1  0.39901071  0.40225341  0.00166074  1
  Pd  Pd161  1  0.60210076  0.18791297  0.59617572  1
  Pd  Pd162  1  -0.00656659  0.40658247  0.60828628  1
  Pd  Pd163  1  0.19324082  0.00605894  -0.00581290  1
  Pd  Pd164  1  0.19822251  0.59611428  0.80263944  1
  Pd  Pd165  1  0.40633146  0.59528101  0.80048217  1
  Pd  Pd166  1  0.19888295  0.60907172  0.59336318  1
  Pd  Pd167  1  -0.00519140  0.01003798  0.19445560  1
  Pd  Pd168  1  0.39860081  0.00049233  0.00296580  1
  Pd  Pd169  1  0.39095662  0.80485866  0.18928442  1
  Pd  Pd170  1  -0.01064206  0.19615875  0.60812532  1
  Pd  Pd171  1  0.78973469  0.60958842  0.40555163  1
  Pd  Pd172  1  0.59729941  0.00246770  0.20506960  1
  Pd  Pd173  1  0.19316601  0.39267322  0.21177793  1
  Pd  Pd174  1  0.79131701  0.20342955  0.00496184  1
  Pd  Pd175  1  0.40043732  0.80461535  0.60818629  1
  Pd  Pd176  1  0.19788652  0.79579216  0.39348215  1
  Pd  Pd177  1  0.60540403  0.40410257  -0.01049813  1
  Pd  Pd178  1  0.20199760  0.79615886  0.20389936  1
  Pd  Pd179  1  0.60502809  -0.00446173  0.80952014  1
  Pd  Pd180  1  0.00745997  0.00307502  0.40344918  1
  Pd  Pd181  1  0.40757644  0.39151911  0.40141568  1
  Pd  Pd182  1  -0.00977473  0.80417369  0.19652700  1
  Pd  Pd183  1  0.01071586  0.39882896  -0.00002020  1
  Pd  Pd184  1  0.80190829  0.39306367  0.80715843  1
  Pd  Pd185  1  0.40096117  -0.00469874  0.40596807  1
  Pd  Pd186  1  -0.00840431  0.80488719  0.39193209  1
  Pd  Pd187  1  0.20105085  0.39714229  0.59459987  1
  Pd  Pd188  1  0.80349969  0.59663318  0.18863656  1
  Pd  Pd189  1  -0.00531115  0.20668520  0.79051501  1
  Pd  Pd190  1  0.79988532  0.00574011  0.80195202  1
  Pd  Pd191  1  0.19763840  0.40514913  0.39679656  1
  Pd  Pd192  1  0.39659144  0.59985762  0.18510879  1
  Pd  Pd193  1  0.78808576  0.60369771  0.00349185  1
  Pd  Pd194  1  0.01144313  0.19234414  0.00973670  1
  Pd  Pd195  1  0.60354578  0.18999974  -0.00316972  1
  Pd  Pd196  1  0.81266925  0.80525794  -0.00429911  1
  Pd  Pd197  1  0.40095574  0.00279651  0.79463392  1
  Pd  Pd198  1  0.79085691  0.39385646  0.00305613  1
  Pd  Pd199  1  0.19791038  -0.00051534  0.79833763  1
  Rh  Rh200  1  0.79873299  0.19711106  0.41494297  1
  Rh  Rh201  1  0.00376199  0.00172841  0.59875331  1
  Rh  Rh202  1  0.39982425  0.80913424  0.78969373  1
  Rh  Rh203  1  0.19574255  0.20250879  0.20840030  1
  Rh  Rh204  1  0.39634435  0.60632895  0.40730287  1
  Rh  Rh205  1  0.40162227  0.20025520  0.19820652  1
  Rh  Rh206  1  0.19897323  0.80221451  0.00665372  1
  Rh  Rh207  1  0.40400229  0.79946523  0.40475356  1
  Rh  Rh208  1  0.59421455  0.20065261  0.80211533  1
  Rh  Rh209  1  0.00725135  0.40221947  0.39261266  1
  Rh  Rh210  1  0.80794992  0.19514532  0.79450402  1
  Rh  Rh211  1  0.59820608  0.18818113  0.19781538  1
  Rh  Rh212  1  0.40355304  0.20190945  0.40352854  1
  Rh  Rh213  1  0.80793727  0.80467584  0.80976252  1
  Rh  Rh214  1  0.60140140  0.80406405  0.80477361  1
  Rh  Rh215  1  0.39948150  0.19472336  -0.01110844  1
  Rh  Rh216  1  0.80687484  -0.00055848  -0.00152091  1
  Rh  Rh217  1  0.81124098  0.79632357  0.59261633  1
  Rh  Rh218  1  0.19920312  0.00389022  0.59394307  1
  Rh  Rh219  1  0.20589939  0.19972159  0.80079395  1
  Rh  Rh220  1  0.80563729  0.01115250  0.60964685  1
  Rh  Rh221  1  0.19576793  0.19061004  0.40033390  1
  Rh  Rh222  1  0.20378002  0.60694685  0.21046593  1
  Rh  Rh223  1  0.01074322  0.60243448  0.40625695  1
  Rh  Rh224  1  0.19686353  0.19159890  -0.00796722  1
  Rh  Rh225  1  0.60096075  0.19846709  0.40082764  1
  Rh  Rh226  1  -0.00826348  0.59469511  0.19555105  1
  Rh  Rh227  1  0.00419983  0.60711450  0.00109699  1
  Rh  Rh228  1  0.20184980  0.20431473  0.60016796  1
  Rh  Rh229  1  0.38979013  0.80044303  0.00798482  1
  Rh  Rh230  1  0.59400329  0.40622785  0.59660924  1
  Rh  Rh231  1  0.60134338  0.00146719  -0.00088087  1
  Rh  Rh232  1  0.21209406  0.60187526  -0.00223679  1
  Rh  Rh233  1  0.60200038  0.79890655  -0.00099158  1
  Rh  Rh234  1  0.40649702  0.38984636  0.79922717  1
  Rh  Rh235  1  0.20609836  -0.00105762  0.21180049  1
  Rh  Rh236  1  0.00558820  -0.00671476  0.80730262  1
  Rh  Rh237  1  -0.00160348  0.19094866  0.39401840  1
  Rh  Rh238  1  0.60421584  0.40303324  0.20803337  1
  Rh  Rh239  1  0.80344884  0.79894365  0.20344260  1
  Rh  Rh240  1  0.00788900  0.59982165  0.80318615  1
  Rh  Rh241  1  0.80175386  0.00624284  0.19933504  1
  Rh  Rh242  1  0.60309994  0.80228572  0.20013554  1
  Rh  Rh243  1  0.58948815  -0.00340399  0.59034669  1
  Rh  Rh244  1  0.79249135  0.39850591  0.39470436  1
  Rh  Rh245  1  0.19562786  0.80431766  0.79118525  1
  Rh  Rh246  1  0.19615096  0.40303536  -0.00656407  1
  Rh  Rh247  1  0.00262222  0.79590137  0.61082700  1
  Rh  Rh248  1  0.39826342  0.38812101  0.58790805  1
  Rh  Rh249  1  0.78918873  -0.00928666  0.39628835  1
