# generated using pymatgen
data_ZrScNbPdRh
_symmetry_space_group_name_H-M   'P 1'
_cell_length_a   16.55902175
_cell_length_b   16.56116477
_cell_length_c   16.55720984
_cell_angle_alpha   90.07309192
_cell_angle_beta   90.00637819
_cell_angle_gamma   90.00645205
_symmetry_Int_Tables_number   1
_chemical_formula_structural   ZrScNbPdRh
_chemical_formula_sum   'Zr50 Sc50 Nb50 Pd50 Rh50'
_cell_volume   4540.59062929
_cell_formula_units_Z   50
loop_
 _symmetry_equiv_pos_site_id
 _symmetry_equiv_pos_as_xyz
  1  'x, y, z'
loop_
 _atom_site_type_symbol
 _atom_site_label
 _atom_site_symmetry_multiplicity
 _atom_site_fract_x
 _atom_site_fract_y
 _atom_site_fract_z
 _atom_site_occupancy
  Zr  Zr0  1  0.10426318  0.51255392  0.29740548  1
  Zr  Zr1  1  0.50611547  0.70840536  0.49555708  1
  Zr  Zr2  1  0.70011694  0.89836080  0.29805972  1
  Zr  Zr3  1  0.10188354  0.88661803  0.49814364  1
  Zr  Zr4  1  0.09504659  0.30501924  0.50482155  1
  Zr  Zr5  1  0.30909761  0.68630493  0.89955234  1
  Zr  Zr6  1  0.89564562  0.49254476  0.29265063  1
  Zr  Zr7  1  0.70361677  0.11543581  0.50646077  1
  Zr  Zr8  1  0.30035401  0.89630240  0.90500708  1
  Zr  Zr9  1  0.09997697  0.69187228  0.49815707  1
  Zr  Zr10  1  0.29767245  0.68884973  0.30376156  1
  Zr  Zr11  1  0.11147255  0.09567522  0.10113487  1
  Zr  Zr12  1  0.90048015  0.89541963  0.29407495  1
  Zr  Zr13  1  0.10012030  0.90259019  0.90069276  1
  Zr  Zr14  1  0.50370208  0.10583634  0.09794884  1
  Zr  Zr15  1  0.49677211  0.29953563  0.08552611  1
  Zr  Zr16  1  0.89404782  0.50745064  0.09438787  1
  Zr  Zr17  1  0.70156311  0.70249515  0.50776833  1
  Zr  Zr18  1  0.50070655  0.90430749  0.70879782  1
  Zr  Zr19  1  0.50609252  0.09741618  0.90450475  1
  Zr  Zr20  1  0.49895293  0.09590100  0.70064360  1
  Zr  Zr21  1  0.29802134  0.30421896  0.69747873  1
  Zr  Zr22  1  0.09423271  0.30463440  0.30412806  1
  Zr  Zr23  1  0.90042712  0.69137352  0.90109089  1
  Zr  Zr24  1  0.90069759  0.90185509  0.50964588  1
  Zr  Zr25  1  0.69402739  0.89161309  0.49881985  1
  Zr  Zr26  1  0.70046496  0.50128024  0.50071691  1
  Zr  Zr27  1  0.29473925  0.10303669  0.49835408  1
  Zr  Zr28  1  0.90138054  0.89585860  0.09858215  1
  Zr  Zr29  1  0.10128666  0.89320768  0.71067258  1
  Zr  Zr30  1  0.70132639  0.69055752  0.69998288  1
  Zr  Zr31  1  0.89868096  0.29694085  0.49263989  1
  Zr  Zr32  1  0.70484320  0.89729399  0.69907457  1
  Zr  Zr33  1  0.49275692  0.50548980  0.30338850  1
  Zr  Zr34  1  0.89657889  0.09381781  0.69812586  1
  Zr  Zr35  1  0.10033785  0.89564322  0.10138513  1
  Zr  Zr36  1  0.50389724  0.30799474  0.69708344  1
  Zr  Zr37  1  0.70310318  0.50065275  0.89222479  1
  Zr  Zr38  1  0.90360075  0.09381197  0.89616232  1
  Zr  Zr39  1  0.09742800  0.88869445  0.29638731  1
  Zr  Zr40  1  0.09613312  0.70235540  0.30145369  1
  Zr  Zr41  1  0.49600731  0.90105485  0.31377221  1
  Zr  Zr42  1  0.29382937  0.90841886  0.10315985  1
  Zr  Zr43  1  0.50660823  0.69758995  0.70228229  1
  Zr  Zr44  1  0.68940809  0.10866635  0.30618145  1
  Zr  Zr45  1  0.89558152  0.69782525  0.50211501  1
  Zr  Zr46  1  0.29196206  0.70271293  0.50204707  1
  Zr  Zr47  1  0.50820789  0.50002692  0.09997417  1
  Zr  Zr48  1  0.09727117  0.49730696  0.68871059  1
  Zr  Zr49  1  0.08676982  0.10382068  0.49990711  1
  Sc  Sc50  1  0.30164905  0.90305216  0.70624213  1
  Sc  Sc51  1  0.09723871  0.29619387  0.89454602  1
  Sc  Sc52  1  0.89818448  0.07971667  0.10366143  1
  Sc  Sc53  1  0.10430720  0.10722071  0.30142166  1
  Sc  Sc54  1  0.70007053  0.49894886  0.29276670  1
  Sc  Sc55  1  0.50739083  0.49717014  0.70202698  1
  Sc  Sc56  1  0.49404613  0.89494387  0.10299454  1
  Sc  Sc57  1  0.50688167  0.31276401  0.50151859  1
  Sc  Sc58  1  0.69251370  0.69811365  0.10260302  1
  Sc  Sc59  1  0.30376927  0.70434192  0.09452469  1
  Sc  Sc60  1  0.70296446  0.89681363  0.10367175  1
  Sc  Sc61  1  0.29367085  0.09601352  0.29488218  1
  Sc  Sc62  1  0.29793563  0.09707069  0.90711390  1
  Sc  Sc63  1  0.68535469  0.29967057  0.09867517  1
  Sc  Sc64  1  0.30402073  0.30791855  0.90873709  1
  Sc  Sc65  1  0.69956859  0.09737978  0.90017655  1
  Sc  Sc66  1  0.30422067  0.49990576  0.48572174  1
  Sc  Sc67  1  0.90451586  0.49608125  0.70734018  1
  Sc  Sc68  1  0.49669232  0.70045901  0.90176074  1
  Sc  Sc69  1  0.70398197  0.30302839  0.31348522  1
  Sc  Sc70  1  0.29295780  0.30152591  0.30978819  1
  Sc  Sc71  1  0.09307879  0.10727485  0.71025596  1
  Sc  Sc72  1  0.50538449  0.09192936  0.49274808  1
  Sc  Sc73  1  0.70172518  0.30296578  0.89472310  1
  Sc  Sc74  1  0.49581626  0.70419685  0.29033638  1
  Sc  Sc75  1  0.90183786  0.50012854  0.50037719  1
  Sc  Sc76  1  0.29503582  0.69708496  0.70103879  1
  Sc  Sc77  1  0.30558204  0.89549955  0.49699456  1
  Sc  Sc78  1  0.51318335  0.29887669  0.29954512  1
  Sc  Sc79  1  0.29545448  0.31022926  0.49644321  1
  Sc  Sc80  1  0.90159443  0.32169167  0.09795120  1
  Sc  Sc81  1  0.10726626  0.30620618  0.09292622  1
  Sc  Sc82  1  0.90360103  0.50066456  0.90237794  1
  Sc  Sc83  1  0.50149094  0.69850106  0.09886976  1
  Sc  Sc84  1  0.30486289  0.50324223  0.69485664  1
  Sc  Sc85  1  0.50042030  0.90157156  0.90148102  1
  Sc  Sc86  1  0.10094283  0.09513982  0.89890272  1
  Sc  Sc87  1  0.69442850  0.90381792  0.90530334  1
  Sc  Sc88  1  0.29837162  0.29711631  0.09090899  1
  Sc  Sc89  1  0.91457295  0.29859423  0.70534477  1
  Sc  Sc90  1  0.29715046  0.50674081  0.08509048  1
  Sc  Sc91  1  0.10428456  0.69701967  0.88856956  1
  Sc  Sc92  1  0.29876781  0.09325801  0.70995425  1
  Sc  Sc93  1  0.69641233  0.09548138  0.09803293  1
  Sc  Sc94  1  0.89281775  0.69346269  0.09632419  1
  Sc  Sc95  1  0.90222137  0.30760807  0.89507322  1
  Sc  Sc96  1  0.90571210  0.68979604  0.70473375  1
  Sc  Sc97  1  0.69865527  0.69795262  0.90377586  1
  Sc  Sc98  1  0.90138939  0.09305277  0.29942057  1
  Sc  Sc99  1  0.09643194  0.50957393  0.09427175  1
  Nb  Nb100  1  0.50113057  0.10329053  0.30232313  1
  Nb  Nb101  1  0.49978476  0.50738834  0.49489233  1
  Nb  Nb102  1  0.90275150  0.89693890  0.70805969  1
  Nb  Nb103  1  0.89894659  0.30647818  0.29292069  1
  Nb  Nb104  1  0.69769823  0.10674887  0.70011327  1
  Nb  Nb105  1  0.90024567  0.09698676  0.50329851  1
  Nb  Nb106  1  0.10118812  0.50047726  0.50626949  1
  Nb  Nb107  1  0.69702596  0.70416690  0.30349210  1
  Nb  Nb108  1  0.30286814  0.50113535  0.29519842  1
  Nb  Nb109  1  0.10070974  0.30417298  0.69849656  1
  Nb  Nb110  1  0.70089754  0.30073025  0.50662904  1
  Nb  Nb111  1  0.90929560  0.89676672  0.89630736  1
  Nb  Nb112  1  0.09466609  0.70262995  0.10488546  1
  Nb  Nb113  1  0.29875069  0.50298723  0.89691300  1
  Nb  Nb114  1  0.48822768  0.49209955  0.90014604  1
  Nb  Nb115  1  0.69114390  0.29832731  0.68965213  1
  Nb  Nb116  1  0.50333412  0.89881077  0.50228986  1
  Nb  Nb117  1  0.69666415  0.49370086  0.70128329  1
  Nb  Nb118  1  0.49860224  0.29768925  0.90026638  1
  Nb  Nb119  1  0.30085947  0.10238311  0.10486105  1
  Nb  Nb120  1  0.69743931  0.50609969  0.09825466  1
  Nb  Nb121  1  0.10975266  0.49907376  0.90175821  1
  Nb  Nb122  1  0.10410834  0.69809093  0.68608716  1
  Nb  Nb123  1  0.29948878  0.89868519  0.30061871  1
  Nb  Nb124  1  0.89864051  0.69942357  0.30486950  1
  Nb  Nb125  1  0.60210973  0.60531304  0.39898643  1
  Nb  Nb126  1  0.40668950  0.79931268  0.60115234  1
  Nb  Nb127  1  0.40602410  0.20476071  0.80149702  1
  Nb  Nb128  1  0.39808942  0.20035191  0.59889849  1
  Nb  Nb129  1  0.40316307  0.19959226  0.39863491  1
  Nb  Nb130  1  0.00126751  0.79732670  -0.00223814  1
  Nb  Nb131  1  0.19940659  0.40488726  0.80046647  1
  Nb  Nb132  1  0.19603673  -0.00674180  0.40165105  1
  Nb  Nb133  1  0.59210866  0.00218612  0.20874385  1
  Nb  Nb134  1  0.80732172  0.80172107  0.80233528  1
  Nb  Nb135  1  0.39537053  0.39783237  0.20015960  1
  Nb  Nb136  1  0.79345857  0.39365987  0.60278003  1
  Nb  Nb137  1  0.80882104  0.20075871  0.00608414  1
  Nb  Nb138  1  0.59817529  0.20347120  0.79422800  1
  Nb  Nb139  1  0.60443863  -0.00076023  0.60076513  1
  Nb  Nb140  1  0.80703127  0.20512786  0.19613590  1
  Nb  Nb141  1  -0.00736630  0.19612533  0.00787483  1
  Nb  Nb142  1  0.40761925  0.60495332  0.59341104  1
  Nb  Nb143  1  0.80054534  0.00345242  0.40818572  1
  Nb  Nb144  1  0.40024651  0.20105018  0.20184164  1
  Nb  Nb145  1  0.20638903  0.40911470  0.20111049  1
  Nb  Nb146  1  0.19780827  0.20066928  0.60273291  1
  Nb  Nb147  1  0.19422005  0.00199339  0.59697039  1
  Nb  Nb148  1  0.00191572  0.79661239  0.60702152  1
  Nb  Nb149  1  -0.00677862  0.20593035  0.19303811  1
  Pd  Pd150  1  0.20762033  0.20732852  0.80187185  1
  Pd  Pd151  1  0.39962723  0.40694178  0.59287149  1
  Pd  Pd152  1  0.19349800  0.40874613  0.39635653  1
  Pd  Pd153  1  -0.00832283  0.60455626  0.19949000  1
  Pd  Pd154  1  0.19528480  0.19892892  -0.00770164  1
  Pd  Pd155  1  0.79432466  0.59604911  0.39181272  1
  Pd  Pd156  1  0.80452177  0.80610927  0.40071954  1
  Pd  Pd157  1  0.59697525  0.59735064  -0.00829701  1
  Pd  Pd158  1  0.81262399  0.20945693  0.60984238  1
  Pd  Pd159  1  0.78983531  0.39741291  0.00316950  1
  Pd  Pd160  1  0.59822709  0.39978991  0.20255426  1
  Pd  Pd161  1  0.39827343  -0.00248932  0.59492355  1
  Pd  Pd162  1  0.19472806  0.61048591  0.00307604  1
  Pd  Pd163  1  0.80075401  0.78818014  0.19781073  1
  Pd  Pd164  1  -0.00000325  0.41123977  0.40104448  1
  Pd  Pd165  1  0.20158331  0.21382733  0.20046817  1
  Pd  Pd166  1  0.01003923  0.59454038  0.79983926  1
  Pd  Pd167  1  0.79483620  -0.00547470  0.80562785  1
  Pd  Pd168  1  0.39582082  0.79649984  0.79632276  1
  Pd  Pd169  1  0.59529721  0.80291614  0.00263501  1
  Pd  Pd170  1  0.59254674  0.59432667  0.80948500  1
  Pd  Pd171  1  0.19476889  0.78982930  -0.00367772  1
  Pd  Pd172  1  0.79427837  0.60583193  0.20284109  1
  Pd  Pd173  1  0.40102101  0.00093360  0.00190524  1
  Pd  Pd174  1  0.80630930  0.58686989  0.60950824  1
  Pd  Pd175  1  0.00838344  -0.00650965  0.61031998  1
  Pd  Pd176  1  0.39446731  0.80060989  0.20011297  1
  Pd  Pd177  1  0.80028212  0.39412337  0.78899217  1
  Pd  Pd178  1  0.39124835  0.00532562  0.40034515  1
  Pd  Pd179  1  0.20951981  0.79204005  0.20125550  1
  Pd  Pd180  1  -0.00944923  0.19894801  0.38930586  1
  Pd  Pd181  1  0.79659295  0.20478870  0.80048635  1
  Pd  Pd182  1  0.78581052  0.39405003  0.19062870  1
  Pd  Pd183  1  -0.00450465  0.59379920  0.39943317  1
  Pd  Pd184  1  0.79240054  0.00042749  0.59711824  1
  Pd  Pd185  1  0.80351966  0.80035187  -0.00729736  1
  Pd  Pd186  1  0.39652797  0.59488697  0.18733852  1
  Pd  Pd187  1  0.01001346  0.00688372  0.20450048  1
  Pd  Pd188  1  0.39362313  0.39976689  0.80044102  1
  Pd  Pd189  1  0.60933178  0.79907497  0.80560561  1
  Pd  Pd190  1  0.00678001  0.39854434  -0.00523618  1
  Pd  Pd191  1  0.80909571  0.19571310  0.39027660  1
  Pd  Pd192  1  0.19701833  0.59258598  0.78991191  1
  Pd  Pd193  1  0.00008492  -0.00391867  0.39381923  1
  Pd  Pd194  1  0.79918452  -0.00066211  -0.00425674  1
  Pd  Pd195  1  0.01257337  0.40293534  0.19271414  1
  Pd  Pd196  1  0.60223376  0.40679374  0.39936069  1
  Pd  Pd197  1  0.40461989  0.00636499  0.20269496  1
  Pd  Pd198  1  0.20742046  0.79438696  0.80281775  1
  Pd  Pd199  1  0.60441652  0.40448165  -0.01083505  1
  Rh  Rh200  1  0.59023234  0.20774163  0.41288108  1
  Rh  Rh201  1  0.59660088  0.80617902  0.20234366  1
  Rh  Rh202  1  0.00407496  -0.00376307  0.00179322  1
  Rh  Rh203  1  -0.00262776  0.19734345  0.80758367  1
  Rh  Rh204  1  0.60892189  -0.00057949  0.40339322  1
  Rh  Rh205  1  0.40552274  0.59545023  0.79370363  1
  Rh  Rh206  1  0.60491636  0.60412133  0.20777826  1
  Rh  Rh207  1  0.19640624  -0.00473294  0.20910523  1
  Rh  Rh208  1  0.59953473  0.39544841  0.80582583  1
  Rh  Rh209  1  0.40765283  0.59557386  -0.00065765  1
  Rh  Rh210  1  -0.00059314  0.20129607  0.60434255  1
  Rh  Rh211  1  -0.00302546  0.60179653  0.59873085  1
  Rh  Rh212  1  0.20038627  0.19626900  0.40533575  1
  Rh  Rh213  1  0.19824446  0.59380844  0.40516016  1
  Rh  Rh214  1  0.19952586  0.40267166  -0.00373794  1
  Rh  Rh215  1  0.20353746  0.81046071  0.60851008  1
  Rh  Rh216  1  0.00296621  0.00369499  0.79681401  1
  Rh  Rh217  1  0.39619060  0.79589715  0.40276299  1
  Rh  Rh218  1  0.59641865  0.59269671  0.59449151  1
  Rh  Rh219  1  -0.00311897  0.78976565  0.79920091  1
  Rh  Rh220  1  0.78316948  0.01246245  0.21356728  1
  Rh  Rh221  1  0.39635102  0.00420633  0.81478641  1
  Rh  Rh222  1  0.39617115  0.19350637  -0.00091158  1
  Rh  Rh223  1  0.19925548  -0.00045981  0.79828668  1
  Rh  Rh224  1  0.78952101  0.59573936  -0.00174448  1
  Rh  Rh225  1  0.81372116  0.79314533  0.61465936  1
  Rh  Rh226  1  -0.01095879  0.79477087  0.40638564  1
  Rh  Rh227  1  0.60099860  0.19774968  0.19751979  1
  Rh  Rh228  1  -0.01213136  0.78788871  0.19264519  1
  Rh  Rh229  1  0.58803560  0.19277890  0.59878444  1
  Rh  Rh230  1  0.20223549  0.00129529  0.00028480  1
  Rh  Rh231  1  0.40715450  0.39176179  0.38992197  1
  Rh  Rh232  1  -0.00990196  0.39840442  0.59576275  1
  Rh  Rh233  1  0.61280278  0.20275954  -0.01321060  1
  Rh  Rh234  1  0.20207111  0.40164083  0.59994191  1
  Rh  Rh235  1  0.59797592  -0.00969079  0.01607791  1
  Rh  Rh236  1  0.40055780  0.80102758  0.00015518  1
  Rh  Rh237  1  0.20736907  0.80170342  0.39035438  1
  Rh  Rh238  1  0.40540235  0.60948396  0.40467853  1
  Rh  Rh239  1  0.20286865  0.60109465  0.19070017  1
  Rh  Rh240  1  0.79894445  0.60081001  0.79941468  1
  Rh  Rh241  1  0.60419090  0.41092315  0.59618600  1
  Rh  Rh242  1  0.60764291  0.00665714  0.79323769  1
  Rh  Rh243  1  0.59816478  0.79430178  0.39141556  1
  Rh  Rh244  1  0.00939790  0.60765707  -0.00405577  1
  Rh  Rh245  1  0.59272324  0.80908388  0.61153662  1
  Rh  Rh246  1  0.20985850  0.58929974  0.59384580  1
  Rh  Rh247  1  0.80099559  0.40138784  0.40601787  1
  Rh  Rh248  1  0.01353010  0.40628177  0.80543998  1
  Rh  Rh249  1  0.39838303  0.40756787  0.00535453  1
