# generated using pymatgen
data_ZrScNbPdRh
_symmetry_space_group_name_H-M   'P 1'
_cell_length_a   16.56139958
_cell_length_b   16.56379385
_cell_length_c   16.55944255
_cell_angle_alpha   89.97677230
_cell_angle_beta   90.03371890
_cell_angle_gamma   90.00734576
_symmetry_Int_Tables_number   1
_chemical_formula_structural   ZrScNbPdRh
_chemical_formula_sum   'Zr50 Sc50 Nb50 Pd50 Rh50'
_cell_volume   4542.57859683
_cell_formula_units_Z   50
loop_
 _symmetry_equiv_pos_site_id
 _symmetry_equiv_pos_as_xyz
  1  'x, y, z'
loop_
 _atom_site_type_symbol
 _atom_site_label
 _atom_site_symmetry_multiplicity
 _atom_site_fract_x
 _atom_site_fract_y
 _atom_site_fract_z
 _atom_site_occupancy
  Zr  Zr0  1  0.70577395  0.90606476  0.89602072  1
  Zr  Zr1  1  0.10125679  0.49109074  0.49061899  1
  Zr  Zr2  1  0.30307244  0.69564108  0.69501926  1
  Zr  Zr3  1  0.50111336  0.50081162  0.90368592  1
  Zr  Zr4  1  0.49872818  0.50370279  0.68889747  1
  Zr  Zr5  1  0.29666567  0.50131576  0.10372723  1
  Zr  Zr6  1  0.09987492  0.91033729  0.48885961  1
  Zr  Zr7  1  0.50979441  0.69669295  0.30588170  1
  Zr  Zr8  1  0.70291014  0.29739849  0.30060748  1
  Zr  Zr9  1  0.50417590  0.30088843  0.90097285  1
  Zr  Zr10  1  0.69418475  0.29533330  0.49913549  1
  Zr  Zr11  1  0.70350972  0.29888392  0.89188551  1
  Zr  Zr12  1  0.29418406  0.28808015  0.09345014  1
  Zr  Zr13  1  0.69669767  0.70319863  0.68737787  1
  Zr  Zr14  1  0.70158455  0.69762469  0.10030700  1
  Zr  Zr15  1  0.70170761  0.90349022  0.70203163  1
  Zr  Zr16  1  0.90150440  0.50752960  0.69861392  1
  Zr  Zr17  1  0.69712163  0.70226581  0.30430649  1
  Zr  Zr18  1  0.69227205  0.50370997  0.29713464  1
  Zr  Zr19  1  0.68892837  0.90493632  0.09382749  1
  Zr  Zr20  1  0.90045607  0.69927333  0.69723920  1
  Zr  Zr21  1  0.29906719  0.09466256  0.70555725  1
  Zr  Zr22  1  0.49819814  0.08964395  0.09587675  1
  Zr  Zr23  1  0.70684193  0.09527201  0.90430171  1
  Zr  Zr24  1  0.09684696  0.29239309  0.09896392  1
  Zr  Zr25  1  0.09919265  0.70397850  0.69977886  1
  Zr  Zr26  1  0.29844140  0.49978647  0.90193454  1
  Zr  Zr27  1  0.10237403  0.49766218  0.69894764  1
  Zr  Zr28  1  0.89947899  0.29904182  0.49915104  1
  Zr  Zr29  1  0.09849238  0.50505367  0.30126926  1
  Zr  Zr30  1  0.29717326  0.70607858  0.09940046  1
  Zr  Zr31  1  0.09971848  0.69676493  0.28917488  1
  Zr  Zr32  1  0.69777396  0.09760849  0.49832431  1
  Zr  Zr33  1  0.29605085  0.29570141  0.29739536  1
  Zr  Zr34  1  0.29851632  0.09605335  0.29796519  1
  Zr  Zr35  1  0.91147807  0.09772509  0.70692062  1
  Zr  Zr36  1  0.10252923  0.08988222  0.29717511  1
  Zr  Zr37  1  0.09928149  0.90336855  0.29165554  1
  Zr  Zr38  1  0.69346573  0.50149296  0.90203740  1
  Zr  Zr39  1  0.89492525  0.30148118  0.70964445  1
  Zr  Zr40  1  0.09416622  0.31524605  0.30493982  1
  Zr  Zr41  1  0.69448088  0.30079325  0.69823826  1
  Zr  Zr42  1  0.31139512  0.70359322  0.50295452  1
  Zr  Zr43  1  0.29114989  0.50247166  0.30919991  1
  Zr  Zr44  1  0.89863888  0.69679859  0.09669109  1
  Zr  Zr45  1  0.90946416  0.90547430  0.09734855  1
  Zr  Zr46  1  0.89719718  0.50715614  0.49434383  1
  Zr  Zr47  1  0.50149839  0.09716571  0.69551071  1
  Zr  Zr48  1  0.29305816  0.29736658  0.69930655  1
  Zr  Zr49  1  0.10358046  0.30020894  0.70578791  1
  Sc  Sc50  1  0.30287976  0.70180541  0.90114905  1
  Sc  Sc51  1  0.30297852  0.29694522  0.50768388  1
  Sc  Sc52  1  0.70209173  0.70596383  0.90677545  1
  Sc  Sc53  1  0.09731248  0.10017766  0.89848794  1
  Sc  Sc54  1  0.70253797  0.88898463  0.49786382  1
  Sc  Sc55  1  0.89153341  0.08969248  0.30115208  1
  Sc  Sc56  1  0.09466282  0.48655926  0.89492249  1
  Sc  Sc57  1  0.49740928  0.90297642  0.50621449  1
  Sc  Sc58  1  0.30437535  0.10095626  0.50216296  1
  Sc  Sc59  1  0.50479152  0.90280759  0.90795390  1
  Sc  Sc60  1  0.51253540  0.29152226  0.30318388  1
  Sc  Sc61  1  0.70593608  0.30008864  0.11221528  1
  Sc  Sc62  1  0.50656012  0.69521400  0.50572353  1
  Sc  Sc63  1  0.90936319  0.49925433  0.29383361  1
  Sc  Sc64  1  0.69480827  0.09755572  0.70844097  1
  Sc  Sc65  1  0.69711776  0.89227058  0.29873326  1
  Sc  Sc66  1  0.69578312  0.50219242  0.50682878  1
  Sc  Sc67  1  0.29828987  0.50301477  0.50692877  1
  Sc  Sc68  1  0.10212808  0.29597472  0.90692175  1
  Sc  Sc69  1  0.09071101  0.70834906  0.49520798  1
  Sc  Sc70  1  0.69875498  0.10329560  0.29644645  1
  Sc  Sc71  1  0.49667292  0.10037361  0.50168669  1
  Sc  Sc72  1  0.50363897  0.29816185  0.69718712  1
  Sc  Sc73  1  0.90002788  0.90167580  0.29895926  1
  Sc  Sc74  1  0.30331405  0.90814655  0.49426193  1
  Sc  Sc75  1  0.89376534  0.70044180  0.49803347  1
  Sc  Sc76  1  0.30215448  0.09914786  0.10251627  1
  Sc  Sc77  1  0.49558621  0.09684925  0.89870127  1
  Sc  Sc78  1  0.90046024  0.50368752  0.88923736  1
  Sc  Sc79  1  0.10887503  0.71796092  0.90173719  1
  Sc  Sc80  1  0.10084074  0.09817794  0.10052400  1
  Sc  Sc81  1  0.90596014  0.89575731  0.49554401  1
  Sc  Sc82  1  0.29865018  0.90756182  0.29690451  1
  Sc  Sc83  1  0.50344915  0.29418575  0.50584156  1
  Sc  Sc84  1  0.29404308  0.89661249  0.89185656  1
  Sc  Sc85  1  0.49456352  0.09889244  0.29659433  1
  Sc  Sc86  1  0.10507722  0.10359934  0.69781416  1
  Sc  Sc87  1  0.90087400  0.30294349  0.10315133  1
  Sc  Sc88  1  0.50763456  0.90456197  0.69818306  1
  Sc  Sc89  1  0.89823903  0.10161839  0.90497860  1
  Sc  Sc90  1  0.10721982  0.91350874  0.71218460  1
  Sc  Sc91  1  0.69672534  0.50532077  0.10188765  1
  Sc  Sc92  1  0.09198698  0.49650019  0.11126057  1
  Sc  Sc93  1  0.29410028  0.69733728  0.30265187  1
  Sc  Sc94  1  0.30730058  0.10475067  0.90749548  1
  Sc  Sc95  1  0.89838351  0.69095620  0.30599061  1
  Sc  Sc96  1  0.10526724  0.29940913  0.50829506  1
  Sc  Sc97  1  0.49801311  0.70968783  0.09692682  1
  Sc  Sc98  1  0.70071251  0.49845147  0.69768349  1
  Sc  Sc99  1  0.50597090  0.29217412  0.10490493  1
  Nb  Nb100  1  0.30310369  0.30144159  0.90442274  1
  Nb  Nb101  1  0.89398730  0.50268262  0.09642162  1
  Nb  Nb102  1  0.30762396  0.90124777  0.09777752  1
  Nb  Nb103  1  0.70378342  0.69847339  0.49106422  1
  Nb  Nb104  1  0.49658274  0.70145904  0.69454164  1
  Nb  Nb105  1  0.49940980  0.50039092  0.10353021  1
  Nb  Nb106  1  0.89840368  0.70051636  0.90099599  1
  Nb  Nb107  1  0.10280460  0.89181376  0.09612726  1
  Nb  Nb108  1  0.90468111  0.09540943  0.50274931  1
  Nb  Nb109  1  0.50256259  0.89465595  0.29563720  1
  Nb  Nb110  1  0.50033206  0.50388547  0.30067013  1
  Nb  Nb111  1  0.49612981  0.69828423  0.89297725  1
  Nb  Nb112  1  0.29621516  0.49698942  0.70101405  1
  Nb  Nb113  1  0.09952517  0.70487471  0.09858694  1
  Nb  Nb114  1  0.29895076  0.89509242  0.69933082  1
  Nb  Nb115  1  0.10081370  0.90134652  0.90206132  1
  Nb  Nb116  1  0.89916090  0.10018185  0.10103382  1
  Nb  Nb117  1  0.89622114  0.90137453  0.70786122  1
  Nb  Nb118  1  0.09317028  0.09991663  0.49775288  1
  Nb  Nb119  1  0.90070518  0.30023090  0.90321474  1
  Nb  Nb120  1  0.49849121  0.50274252  0.49153809  1
  Nb  Nb121  1  0.89734412  0.30317005  0.29925875  1
  Nb  Nb122  1  0.70269805  0.09860272  0.09576995  1
  Nb  Nb123  1  0.49220580  0.90294476  0.10868655  1
  Nb  Nb124  1  0.90090288  0.90459884  0.89440799  1
  Nb  Nb125  1  0.60812596  0.19405843  0.00272280  1
  Nb  Nb126  1  0.40527248  0.40456094  0.39533865  1
  Nb  Nb127  1  0.40663783  0.80178086  0.39597023  1
  Nb  Nb128  1  0.18983285  0.60232830  0.00065610  1
  Nb  Nb129  1  0.19200662  0.19582548  0.40002734  1
  Nb  Nb130  1  -0.00115776  0.19595170  0.39907951  1
  Nb  Nb131  1  0.40353395  0.59477633  0.20346890  1
  Nb  Nb132  1  0.40350328  0.40358657  0.20264362  1
  Nb  Nb133  1  0.40073022  0.39831975  0.00400025  1
  Nb  Nb134  1  -0.00358395  0.40134475  0.60359309  1
  Nb  Nb135  1  0.80216177  0.40178059  -0.00265734  1
  Nb  Nb136  1  -0.00480859  0.19856953  0.20817701  1
  Nb  Nb137  1  0.80473465  0.19241063  0.60159170  1
  Nb  Nb138  1  -0.00702986  0.80705913  0.80417490  1
  Nb  Nb139  1  0.20125410  0.59757896  0.80081605  1
  Nb  Nb140  1  0.79924217  0.79835986  0.19348677  1
  Nb  Nb141  1  0.00213622  0.60626368  -0.00035749  1
  Nb  Nb142  1  0.59105994  0.60988322  0.79651374  1
  Nb  Nb143  1  0.19775144  -0.01110448  0.00174827  1
  Nb  Nb144  1  0.20166068  0.80754128  0.60039582  1
  Nb  Nb145  1  0.59544716  -0.00588654  0.39696534  1
  Nb  Nb146  1  0.39443525  0.40056403  0.80165210  1
  Nb  Nb147  1  0.79848181  0.39792749  0.39419804  1
  Nb  Nb148  1  0.40596090  0.79538223  0.79247667  1
  Nb  Nb149  1  0.80768370  0.00249835  0.60107160  1
  Pd  Pd150  1  -0.00454995  0.79769154  -0.00804593  1
  Pd  Pd151  1  0.80175452  0.39727341  0.59414487  1
  Pd  Pd152  1  -0.00802384  0.40596535  0.00212301  1
  Pd  Pd153  1  0.00504620  0.00554417  -0.00230350  1
  Pd  Pd154  1  0.79422477  -0.00795902  0.19551397  1
  Pd  Pd155  1  0.60209485  0.00273886  0.20680948  1
  Pd  Pd156  1  0.80144416  0.60060582  0.20645934  1
  Pd  Pd157  1  0.80511726  0.80530765  0.59598551  1
  Pd  Pd158  1  0.59442155  0.80002397  0.00018875  1
  Pd  Pd159  1  0.59681121  0.39721926  0.19817879  1
  Pd  Pd160  1  0.79370027  -0.00811783  0.40619170  1
  Pd  Pd161  1  0.00561078  0.59704276  0.58918593  1
  Pd  Pd162  1  0.39701962  0.79183437  0.21004309  1
  Pd  Pd163  1  0.19798728  0.40449747  0.00402671  1
  Pd  Pd164  1  0.80687397  0.19530002  0.19967100  1
  Pd  Pd165  1  0.00203668  0.20351246  0.80906718  1
  Pd  Pd166  1  0.20543433  0.80626925  0.20171397  1
  Pd  Pd167  1  0.59970853  0.40033195  0.40346322  1
  Pd  Pd168  1  -0.00961028  0.79563902  0.20564673  1
  Pd  Pd169  1  0.40132889  0.40001794  0.59735425  1
  Pd  Pd170  1  0.79938681  0.20936704  0.00497643  1
  Pd  Pd171  1  0.59525469  0.79877617  0.80140087  1
  Pd  Pd172  1  0.00888091  0.81575956  0.61003246  1
  Pd  Pd173  1  0.19438246  0.61131671  0.41099159  1
  Pd  Pd174  1  0.79932376  0.40623413  0.80429883  1
  Pd  Pd175  1  0.80250167  0.81070231  0.00348529  1
  Pd  Pd176  1  0.39980932  0.80704636  -0.01054755  1
  Pd  Pd177  1  0.20109041  0.39663944  0.19684896  1
  Pd  Pd178  1  0.80110374  0.79211331  0.80085424  1
  Pd  Pd179  1  0.19364455  0.60700891  0.59603322  1
  Pd  Pd180  1  0.60512970  0.38953945  0.01258459  1
  Pd  Pd181  1  -0.00118353  0.20644046  0.59834635  1
  Pd  Pd182  1  0.59480628  0.60828865  -0.00040395  1
  Pd  Pd183  1  0.78638573  0.60761962  0.80006042  1
  Pd  Pd184  1  0.80548528  0.19908943  0.40204127  1
  Pd  Pd185  1  0.59784814  0.19190907  0.80668422  1
  Pd  Pd186  1  0.20191761  -0.00015756  0.59511958  1
  Pd  Pd187  1  -0.00333613  0.79844238  0.38963435  1
  Pd  Pd188  1  0.00018092  -0.00931277  0.60558403  1
  Pd  Pd189  1  0.39771403  0.20728090  0.40179085  1
  Pd  Pd190  1  0.59847611  0.80346364  0.59346813  1
  Pd  Pd191  1  0.01252851  0.61227254  0.81344154  1
  Pd  Pd192  1  0.20741423  0.80129161  0.40385571  1
  Pd  Pd193  1  0.40052684  0.20716000  0.79580157  1
  Pd  Pd194  1  0.39670282  -0.00189203  0.60273986  1
  Pd  Pd195  1  0.39764892  0.59967933  0.00833072  1
  Pd  Pd196  1  0.39816260  0.59821193  0.79566772  1
  Pd  Pd197  1  0.40479368  0.20186656  0.19787241  1
  Pd  Pd198  1  0.20263602  0.19638187  0.81063167  1
  Pd  Pd199  1  0.40121124  -0.01143761  0.80320039  1
  Rh  Rh200  1  0.60189807  0.60050733  0.59843200  1
  Rh  Rh201  1  0.80650872  0.58983560  -0.00993630  1
  Rh  Rh202  1  0.60607240  0.59747105  0.40824172  1
  Rh  Rh203  1  0.80667730  -0.00389148  0.00435692  1
  Rh  Rh204  1  0.19811555  0.18774152  -0.00401222  1
  Rh  Rh205  1  0.80264717  0.41022874  0.19997112  1
  Rh  Rh206  1  0.60453617  0.79851226  0.19092769  1
  Rh  Rh207  1  -0.00996798  0.39764191  0.40711665  1
  Rh  Rh208  1  -0.00075338  0.39117403  0.79743536  1
  Rh  Rh209  1  0.00483635  0.60412358  0.39998619  1
  Rh  Rh210  1  0.80372247  0.79875990  0.39152300  1
  Rh  Rh211  1  0.00261902  -0.00207133  0.80563103  1
  Rh  Rh212  1  0.40059720  0.59356377  0.59406732  1
  Rh  Rh213  1  0.80347300  0.00799068  0.79521081  1
  Rh  Rh214  1  0.61119037  -0.00378094  0.59145462  1
  Rh  Rh215  1  0.18598120  0.20336171  0.20906211  1
  Rh  Rh216  1  -0.00058016  0.00536630  0.19473686  1
  Rh  Rh217  1  0.79632600  0.60564789  0.59738306  1
  Rh  Rh218  1  0.39846411  -0.00024165  0.20229975  1
  Rh  Rh219  1  0.79327683  0.59125782  0.39722924  1
  Rh  Rh220  1  0.20237212  -0.00862357  0.18481402  1
  Rh  Rh221  1  0.40990665  -0.00867124  0.39324009  1
  Rh  Rh222  1  -0.00535979  0.19569822  0.00751515  1
  Rh  Rh223  1  0.21586646  0.38811869  0.40973700  1
  Rh  Rh224  1  -0.00523195  0.00207307  0.39400979  1
  Rh  Rh225  1  0.59720359  -0.00003595  0.80649773  1
  Rh  Rh226  1  0.60530882  0.19385441  0.60280999  1
  Rh  Rh227  1  0.39747228  0.80776301  0.59988001  1
  Rh  Rh228  1  0.20049902  0.60378031  0.19168508  1
  Rh  Rh229  1  0.20208856  0.19053130  0.59535733  1
  Rh  Rh230  1  0.39176108  -0.00701852  -0.00314794  1
  Rh  Rh231  1  0.59519364  0.40134188  0.59712512  1
  Rh  Rh232  1  0.59077127  0.41349419  0.78928929  1
  Rh  Rh233  1  0.40082281  0.60185739  0.39929520  1
  Rh  Rh234  1  0.20556125  0.00749680  0.81053734  1
  Rh  Rh235  1  0.41119466  0.20587034  0.00388962  1
  Rh  Rh236  1  0.39943744  0.19641530  0.60830203  1
  Rh  Rh237  1  -0.00528807  0.39647216  0.19489474  1
  Rh  Rh238  1  0.59386151  0.18524077  0.39912311  1
  Rh  Rh239  1  0.59100641  0.60838821  0.19093532  1
  Rh  Rh240  1  0.20628021  0.80377943  0.00376984  1
  Rh  Rh241  1  0.20258853  0.79534036  0.79004325  1
  Rh  Rh242  1  0.59210660  0.80657483  0.40870269  1
  Rh  Rh243  1  0.60250246  0.18868830  0.19173539  1
  Rh  Rh244  1  -0.00156979  0.60240856  0.19186915  1
  Rh  Rh245  1  0.20476926  0.00918551  0.40614731  1
  Rh  Rh246  1  0.80299702  0.19461185  0.79648776  1
  Rh  Rh247  1  0.19624699  0.40034982  0.59763977  1
  Rh  Rh248  1  0.59719721  0.00401033  -0.00314163  1
  Rh  Rh249  1  0.20499328  0.40002957  0.80318962  1
