# generated using pymatgen
data_ZrScNbPdRh
_symmetry_space_group_name_H-M   'P 1'
_cell_length_a   16.56244876
_cell_length_b   16.55989494
_cell_length_c   16.56572197
_cell_angle_alpha   89.98961725
_cell_angle_beta   89.99776506
_cell_angle_gamma   90.01586008
_symmetry_Int_Tables_number   1
_chemical_formula_structural   ZrScNbPdRh
_chemical_formula_sum   'Zr50 Sc50 Nb50 Pd50 Rh50'
_cell_volume   4543.52026038
_cell_formula_units_Z   50
loop_
 _symmetry_equiv_pos_site_id
 _symmetry_equiv_pos_as_xyz
  1  'x, y, z'
loop_
 _atom_site_type_symbol
 _atom_site_label
 _atom_site_symmetry_multiplicity
 _atom_site_fract_x
 _atom_site_fract_y
 _atom_site_fract_z
 _atom_site_occupancy
  Zr  Zr0  1  0.29694141  0.50468004  0.49026644  1
  Zr  Zr1  1  0.89198059  0.09880010  0.90172677  1
  Zr  Zr2  1  0.90048310  0.29763730  0.90295065  1
  Zr  Zr3  1  0.09967425  0.89829474  0.29198298  1
  Zr  Zr4  1  0.49869342  0.90819915  0.70178139  1
  Zr  Zr5  1  0.70559530  0.09970572  0.29555910  1
  Zr  Zr6  1  0.10185448  0.71265022  0.69661311  1
  Zr  Zr7  1  0.89143958  0.10141170  0.70777015  1
  Zr  Zr8  1  0.28776445  0.30265456  0.89361516  1
  Zr  Zr9  1  0.49817452  0.49804384  0.90008469  1
  Zr  Zr10  1  0.09504484  0.90245265  0.10649401  1
  Zr  Zr11  1  0.09790564  0.49884368  0.69340854  1
  Zr  Zr12  1  0.30783849  0.30275214  0.29851166  1
  Zr  Zr13  1  0.29240637  0.49875166  0.68831325  1
  Zr  Zr14  1  0.70419132  0.10385857  0.90272823  1
  Zr  Zr15  1  0.70356801  0.29980617  0.10056511  1
  Zr  Zr16  1  0.89503958  0.71347609  0.49490199  1
  Zr  Zr17  1  0.70415120  0.49652652  0.10522293  1
  Zr  Zr18  1  0.08517777  0.10722928  0.89203061  1
  Zr  Zr19  1  0.49223761  0.09584477  0.90084922  1
  Zr  Zr20  1  0.70277091  0.29671822  0.70119074  1
  Zr  Zr21  1  0.70474516  0.09211457  0.09826454  1
  Zr  Zr22  1  0.70371330  0.49685164  0.30112137  1
  Zr  Zr23  1  0.90498251  0.49795584  0.90407759  1
  Zr  Zr24  1  0.29551146  0.49928645  0.10478874  1
  Zr  Zr25  1  0.49974336  0.50398196  0.09073883  1
  Zr  Zr26  1  0.70030914  0.69668353  0.68475714  1
  Zr  Zr27  1  0.30744093  0.69437216  0.31523033  1
  Zr  Zr28  1  0.49880312  0.49137186  0.49812898  1
  Zr  Zr29  1  0.49434298  0.09653814  0.29993184  1
  Zr  Zr30  1  0.89969671  0.49724494  0.10237688  1
  Zr  Zr31  1  0.90258974  0.09816510  0.29642962  1
  Zr  Zr32  1  0.09557006  0.89341683  0.89516432  1
  Zr  Zr33  1  0.90408791  0.89013383  0.30459740  1
  Zr  Zr34  1  0.09058964  0.70212585  0.30447260  1
  Zr  Zr35  1  0.10757300  0.29736066  0.70462516  1
  Zr  Zr36  1  0.90558382  0.49044453  0.50122418  1
  Zr  Zr37  1  0.28704738  0.89489963  0.10137056  1
  Zr  Zr38  1  0.49742799  0.70740559  0.69342254  1
  Zr  Zr39  1  0.10219746  0.49254474  0.10229813  1
  Zr  Zr40  1  0.50097189  0.30808918  0.10507990  1
  Zr  Zr41  1  0.49503757  0.69464651  0.91330720  1
  Zr  Zr42  1  0.30070993  0.30397508  0.49397782  1
  Zr  Zr43  1  0.30091124  0.90660440  0.89931059  1
  Zr  Zr44  1  0.09848459  0.30108887  0.29285639  1
  Zr  Zr45  1  0.69906536  0.50695943  0.50169884  1
  Zr  Zr46  1  0.30390423  0.69748910  0.09400287  1
  Zr  Zr47  1  0.89609406  0.69494905  0.69584189  1
  Zr  Zr48  1  0.10555136  0.50032382  0.49783356  1
  Zr  Zr49  1  0.70319999  0.69942282  0.49596789  1
  Sc  Sc50  1  0.30420907  0.69789893  0.50706966  1
  Sc  Sc51  1  0.30626683  0.90723997  0.30025818  1
  Sc  Sc52  1  0.09713613  0.09804374  0.28137638  1
  Sc  Sc53  1  0.89924223  0.89906741  0.70545580  1
  Sc  Sc54  1  0.29200775  0.49929616  0.91012078  1
  Sc  Sc55  1  0.49182208  0.90461534  0.89666588  1
  Sc  Sc56  1  0.50134605  0.29905566  0.91157215  1
  Sc  Sc57  1  0.89669712  0.69282770  0.09686629  1
  Sc  Sc58  1  0.70471699  0.30527499  0.50621643  1
  Sc  Sc59  1  0.70540927  0.29660208  0.90502919  1
  Sc  Sc60  1  0.70980520  0.89725185  0.50064069  1
  Sc  Sc61  1  0.90098974  0.89362318  0.09457570  1
  Sc  Sc62  1  0.30379399  0.10162255  0.10199408  1
  Sc  Sc63  1  0.50431399  0.10535785  0.09310938  1
  Sc  Sc64  1  0.09866055  0.49442825  0.90247836  1
  Sc  Sc65  1  0.90386790  0.69448330  0.90380575  1
  Sc  Sc66  1  0.89948479  0.90080078  0.89930152  1
  Sc  Sc67  1  0.89977540  0.49965377  0.70081483  1
  Sc  Sc68  1  0.70376886  0.09359633  0.51157260  1
  Sc  Sc69  1  0.09290596  0.30412758  0.50137639  1
  Sc  Sc70  1  0.29874809  0.71146877  0.90811480  1
  Sc  Sc71  1  0.28987967  0.29965772  0.69485663  1
  Sc  Sc72  1  0.30477529  0.90064032  0.50080263  1
  Sc  Sc73  1  0.51246126  0.91016681  0.11001591  1
  Sc  Sc74  1  0.70086791  0.49549179  0.90093827  1
  Sc  Sc75  1  0.70354764  0.49721856  0.69425430  1
  Sc  Sc76  1  0.69433097  0.90122581  0.29485884  1
  Sc  Sc77  1  0.10130545  0.11172620  0.51015860  1
  Sc  Sc78  1  0.90400139  0.49776059  0.29596191  1
  Sc  Sc79  1  0.71187704  0.90764772  0.90871584  1
  Sc  Sc80  1  0.49812203  0.70029358  0.49350473  1
  Sc  Sc81  1  0.30319210  0.10260387  0.50291803  1
  Sc  Sc82  1  0.30406273  0.09809386  0.29776905  1
  Sc  Sc83  1  0.10347336  0.50481635  0.30054227  1
  Sc  Sc84  1  0.70914758  0.69093125  0.91068531  1
  Sc  Sc85  1  0.50286691  0.29975549  0.68595328  1
  Sc  Sc86  1  0.50625724  0.48838467  0.30699585  1
  Sc  Sc87  1  0.49446140  0.10149514  0.50835527  1
  Sc  Sc88  1  0.90157915  0.69587519  0.30290454  1
  Sc  Sc89  1  0.10535613  0.70558785  0.09840193  1
  Sc  Sc90  1  0.50745217  0.49756669  0.69421151  1
  Sc  Sc91  1  0.09491045  0.69682317  0.50210855  1
  Sc  Sc92  1  0.90109365  0.30662459  0.10332858  1
  Sc  Sc93  1  0.70520456  0.69071294  0.09758042  1
  Sc  Sc94  1  0.49433400  0.90050496  0.50188737  1
  Sc  Sc95  1  0.89546382  0.30568673  0.69227422  1
  Sc  Sc96  1  0.10258396  0.89123574  0.51376770  1
  Sc  Sc97  1  0.30076752  0.30788735  0.10129832  1
  Sc  Sc98  1  0.69529430  0.90799067  0.69398914  1
  Sc  Sc99  1  0.29958360  0.89247326  0.69438504  1
  Nb  Nb100  1  0.50099911  0.69596069  0.10061694  1
  Nb  Nb101  1  0.89897075  0.29969786  0.30637569  1
  Nb  Nb102  1  0.89998555  0.90612040  0.49809037  1
  Nb  Nb103  1  0.50554748  0.29836726  0.30720224  1
  Nb  Nb104  1  0.70372711  0.89409268  0.09858488  1
  Nb  Nb105  1  0.69165519  0.09979090  0.70367932  1
  Nb  Nb106  1  0.69801435  0.69914540  0.30281848  1
  Nb  Nb107  1  0.69893291  0.30301920  0.29870575  1
  Nb  Nb108  1  0.10604796  0.69718854  0.89646227  1
  Nb  Nb109  1  0.29326492  0.10630095  0.70167942  1
  Nb  Nb110  1  0.90293167  0.09993248  0.49964120  1
  Nb  Nb111  1  0.50096434  0.89894774  0.30459090  1
  Nb  Nb112  1  0.10337072  0.10109094  0.69912347  1
  Nb  Nb113  1  0.90426574  0.29441913  0.49403847  1
  Nb  Nb114  1  0.09935571  0.90681694  0.70322346  1
  Nb  Nb115  1  0.29420804  0.50250136  0.30294144  1
  Nb  Nb116  1  0.30044782  0.69562262  0.69927521  1
  Nb  Nb117  1  0.50203337  0.09616226  0.70355546  1
  Nb  Nb118  1  0.09630392  0.09833274  0.09656197  1
  Nb  Nb119  1  0.29835708  0.10000182  0.89873941  1
  Nb  Nb120  1  0.90570756  0.09725380  0.10052474  1
  Nb  Nb121  1  0.50330277  0.70861862  0.30216568  1
  Nb  Nb122  1  0.09951844  0.30237291  0.90159026  1
  Nb  Nb123  1  0.10237813  0.29919062  0.09869909  1
  Nb  Nb124  1  0.49511830  0.29840757  0.48422867  1
  Nb  Nb125  1  0.59464891  0.19323723  0.79730477  1
  Nb  Nb126  1  0.60194128  0.79924853  0.00227180  1
  Nb  Nb127  1  0.20132444  0.60622085  0.79773066  1
  Nb  Nb128  1  0.00295916  0.00028109  0.40938411  1
  Nb  Nb129  1  0.59536922  0.60551427  0.20478245  1
  Nb  Nb130  1  0.19067094  0.00153977  0.40120334  1
  Nb  Nb131  1  0.80464175  0.20275778  0.40009752  1
  Nb  Nb132  1  0.60508278  0.79523924  0.80737488  1
  Nb  Nb133  1  0.19656024  0.00446565  0.79714117  1
  Nb  Nb134  1  0.59679566  0.00428216  0.39819660  1
  Nb  Nb135  1  0.79281552  0.79518461  0.20066758  1
  Nb  Nb136  1  -0.00111953  0.00421858  0.60219669  1
  Nb  Nb137  1  0.39715220  0.39987543  0.79779714  1
  Nb  Nb138  1  0.40984876  0.79546278  0.20346105  1
  Nb  Nb139  1  0.19289765  0.00786559  -0.00474295  1
  Nb  Nb140  1  0.39565442  0.59802828  0.79751766  1
  Nb  Nb141  1  0.60239368  0.20475545  0.20636808  1
  Nb  Nb142  1  0.59618525  0.60910539  0.79951558  1
  Nb  Nb143  1  0.19062769  0.19761431  -0.00057971  1
  Nb  Nb144  1  0.40666125  0.60268825  0.20602221  1
  Nb  Nb145  1  0.79042725  0.79377613  0.79792348  1
  Nb  Nb146  1  0.19874101  0.80394264  0.39938628  1
  Nb  Nb147  1  0.40029434  0.19734731  0.79659679  1
  Nb  Nb148  1  0.60431104  0.20102809  0.39881790  1
  Nb  Nb149  1  0.19782657  0.19861363  0.39409833  1
  Pd  Pd150  1  0.19749303  0.00063887  0.59827660  1
  Pd  Pd151  1  0.00976070  0.60052595  0.00564593  1
  Pd  Pd152  1  0.60243446  0.39581189  0.59364486  1
  Pd  Pd153  1  0.40706778  0.20158038  0.19755569  1
  Pd  Pd154  1  0.39500583  0.00115219  0.60479714  1
  Pd  Pd155  1  0.80293466  0.20586596  0.20003209  1
  Pd  Pd156  1  0.21185138  0.78948891  0.21290769  1
  Pd  Pd157  1  0.40274118  0.79497308  0.80074759  1
  Pd  Pd158  1  0.40336845  0.41070668  0.20663285  1
  Pd  Pd159  1  0.39450438  -0.00432299  0.01229330  1
  Pd  Pd160  1  0.00275491  0.60313576  0.19505970  1
  Pd  Pd161  1  0.59817848  0.80843475  0.59452791  1
  Pd  Pd162  1  0.39741762  0.20388214  0.60503844  1
  Pd  Pd163  1  0.00106840  0.79334979  -0.00001147  1
  Pd  Pd164  1  -0.00363204  0.19991196  0.60897323  1
  Pd  Pd165  1  -0.00297011  0.20574021  0.00750840  1
  Pd  Pd166  1  0.00849777  0.60197704  0.79829703  1
  Pd  Pd167  1  -0.00724894  0.20949699  0.79047277  1
  Pd  Pd168  1  -0.00577953  0.20555189  0.19295965  1
  Pd  Pd169  1  0.59305084  0.39148009  0.80014967  1
  Pd  Pd170  1  0.40053972  -0.00583167  0.19239754  1
  Pd  Pd171  1  0.38925689  0.20855852  -0.00350630  1
  Pd  Pd172  1  0.20663991  0.80212027  0.79860472  1
  Pd  Pd173  1  0.60740508  0.39878494  -0.00223399  1
  Pd  Pd174  1  0.59905815  0.19846911  0.59553961  1
  Pd  Pd175  1  0.60703753  -0.00400157  0.81036190  1
  Pd  Pd176  1  0.79871420  0.39679849  0.40316533  1
  Pd  Pd177  1  0.80843268  -0.01391036  0.19566222  1
  Pd  Pd178  1  0.00663362  0.40413659  0.39311727  1
  Pd  Pd179  1  0.60370273  0.79386863  0.19284358  1
  Pd  Pd180  1  0.79234944  0.60019144  0.80016722  1
  Pd  Pd181  1  0.20309820  0.60892700  0.20341558  1
  Pd  Pd182  1  0.80060070  0.19853434  0.59529030  1
  Pd  Pd183  1  -0.00439400  0.60146122  0.59477259  1
  Pd  Pd184  1  0.80173738  0.40105695  0.80156290  1
  Pd  Pd185  1  -0.01135862  0.79420101  0.80120446  1
  Pd  Pd186  1  0.20526832  0.19694615  0.19719151  1
  Pd  Pd187  1  0.00544671  0.19115736  0.39646867  1
  Pd  Pd188  1  0.40766153  0.59714052  0.60062651  1
  Pd  Pd189  1  0.79850613  0.00286730  0.39995688  1
  Pd  Pd190  1  0.80939201  0.59748798  0.39890607  1
  Pd  Pd191  1  0.39757485  0.39584310  0.60129691  1
  Pd  Pd192  1  -0.00799702  0.80773295  0.60189567  1
  Pd  Pd193  1  0.59384348  0.59893634  0.39659063  1
  Pd  Pd194  1  0.59875672  -0.00686513  -0.00566467  1
  Pd  Pd195  1  0.41267087  0.81591356  0.01454677  1
  Pd  Pd196  1  -0.00077348  0.39546929  0.79665762  1
  Pd  Pd197  1  0.60418086  0.80990645  0.40734956  1
  Pd  Pd198  1  0.80569937  -0.00179669  0.60728432  1
  Pd  Pd199  1  -0.00120721  -0.00359944  -0.00194325  1
  Rh  Rh200  1  0.00131215  0.00197949  0.79293026  1
  Rh  Rh201  1  0.79274652  0.80264466  0.39081715  1
  Rh  Rh202  1  0.39703368  0.19547959  0.39939397  1
  Rh  Rh203  1  0.79713719  0.79773736  0.00005760  1
  Rh  Rh204  1  0.19653074  0.60239428  -0.00549758  1
  Rh  Rh205  1  -0.00843499  -0.00408587  0.19930512  1
  Rh  Rh206  1  0.80412062  0.80749534  0.60675703  1
  Rh  Rh207  1  0.79409896  -0.00705800  0.79583258  1
  Rh  Rh208  1  0.80318618  0.40152094  0.59557535  1
  Rh  Rh209  1  0.19514669  0.39250784  0.00369269  1
  Rh  Rh210  1  0.39819150  0.80026382  0.59801649  1
  Rh  Rh211  1  0.41003081  0.59088828  0.39586465  1
  Rh  Rh212  1  0.60922926  0.39277896  0.40793620  1
  Rh  Rh213  1  -0.01458600  0.79066705  0.19310809  1
  Rh  Rh214  1  0.19786449  0.39309867  0.39408779  1
  Rh  Rh215  1  0.38942284  0.59283974  0.00043135  1
  Rh  Rh216  1  0.59394486  0.59923194  0.59951563  1
  Rh  Rh217  1  0.81018858  0.59308018  0.59059397  1
  Rh  Rh218  1  0.00098757  0.39465301  0.60181503  1
  Rh  Rh219  1  0.20038551  0.19320810  0.80683377  1
  Rh  Rh220  1  0.39495449  0.40686225  0.39337531  1
  Rh  Rh221  1  0.59923781  0.00946987  0.20568080  1
  Rh  Rh222  1  0.19508468  0.39455012  0.59111812  1
  Rh  Rh223  1  0.79354846  0.20304608  0.79928295  1
  Rh  Rh224  1  0.80802092  0.19771375  0.01001590  1
  Rh  Rh225  1  0.59859390  0.40123466  0.19901628  1
  Rh  Rh226  1  0.39436349  0.80714046  0.39823062  1
  Rh  Rh227  1  0.19141136  0.80692668  -0.00324440  1
  Rh  Rh228  1  0.80257891  0.40089364  -0.00204504  1
  Rh  Rh229  1  0.19491054  0.60818884  0.60183521  1
  Rh  Rh230  1  0.60734382  0.60017153  0.00116839  1
  Rh  Rh231  1  0.00937536  0.80823388  0.40724948  1
  Rh  Rh232  1  0.80419614  0.58721614  -0.00117026  1
  Rh  Rh233  1  0.59618452  0.00044165  0.59110946  1
  Rh  Rh234  1  0.19448730  0.60916001  0.40271517  1
  Rh  Rh235  1  0.39371297  0.39693912  -0.00583744  1
  Rh  Rh236  1  0.60508838  0.19904706  0.00319581  1
  Rh  Rh237  1  0.20268108  0.20639760  0.58954216  1
  Rh  Rh238  1  0.40127307  0.00158115  0.40470414  1
  Rh  Rh239  1  0.00101922  0.39774461  0.20255221  1
  Rh  Rh240  1  0.79320045  0.60458338  0.20744383  1
  Rh  Rh241  1  0.38701604  0.00635704  0.78765733  1
  Rh  Rh242  1  0.80936253  0.00073068  0.00808153  1
  Rh  Rh243  1  0.20414341  0.00744317  0.19578649  1
  Rh  Rh244  1  0.00251440  0.39667711  0.00238991  1
  Rh  Rh245  1  0.20034162  0.41399039  0.79862482  1
  Rh  Rh246  1  0.80612821  0.39653420  0.20609978  1
  Rh  Rh247  1  -0.00363939  0.59477464  0.40419166  1
  Rh  Rh248  1  0.20616475  0.79574342  0.59546783  1
  Rh  Rh249  1  0.19902794  0.39934852  0.20470602  1
