# generated using pymatgen
data_ZrScNbPdRh
_symmetry_space_group_name_H-M   'P 1'
_cell_length_a   16.56237003
_cell_length_b   16.56361220
_cell_length_c   16.56148682
_cell_angle_alpha   89.98254237
_cell_angle_beta   90.01118323
_cell_angle_gamma   89.96915553
_symmetry_Int_Tables_number   1
_chemical_formula_structural   ZrScNbPdRh
_chemical_formula_sum   'Zr50 Sc50 Nb50 Pd50 Rh50'
_cell_volume   4543.35601597
_cell_formula_units_Z   50
loop_
 _symmetry_equiv_pos_site_id
 _symmetry_equiv_pos_as_xyz
  1  'x, y, z'
loop_
 _atom_site_type_symbol
 _atom_site_label
 _atom_site_symmetry_multiplicity
 _atom_site_fract_x
 _atom_site_fract_y
 _atom_site_fract_z
 _atom_site_occupancy
  Zr  Zr0  1  0.70107463  0.29162681  0.30492920  1
  Zr  Zr1  1  0.30359466  0.89909394  0.10385921  1
  Zr  Zr2  1  0.89728280  0.50525427  0.30233680  1
  Zr  Zr3  1  0.29531193  0.29802428  0.89348226  1
  Zr  Zr4  1  0.70182753  0.09513662  0.49770390  1
  Zr  Zr5  1  0.89671801  0.29936754  0.09744824  1
  Zr  Zr6  1  0.49800382  0.09763325  0.49657271  1
  Zr  Zr7  1  0.10776427  0.30269261  0.29987986  1
  Zr  Zr8  1  0.50192370  0.50655649  0.90479950  1
  Zr  Zr9  1  0.30154169  0.89632612  0.88556149  1
  Zr  Zr10  1  0.71496083  0.09783732  0.70136691  1
  Zr  Zr11  1  0.49853506  0.29151057  0.90540239  1
  Zr  Zr12  1  0.10504008  0.29462528  0.50427247  1
  Zr  Zr13  1  0.28917616  0.69339625  0.50326935  1
  Zr  Zr14  1  0.09598460  0.11362856  0.89545028  1
  Zr  Zr15  1  0.89582377  0.70081010  0.30006728  1
  Zr  Zr16  1  0.30587021  0.09607223  0.11062955  1
  Zr  Zr17  1  0.69644497  0.50438241  0.89767332  1
  Zr  Zr18  1  0.10050908  0.89974760  0.89397670  1
  Zr  Zr19  1  0.69299146  0.49624638  0.08892640  1
  Zr  Zr20  1  0.69894885  0.09521709  0.29918078  1
  Zr  Zr21  1  0.89635124  0.90109622  0.49881081  1
  Zr  Zr22  1  0.10208505  0.70197616  0.30458581  1
  Zr  Zr23  1  0.30443508  0.09865325  0.30381666  1
  Zr  Zr24  1  0.09108628  0.70197142  0.68764602  1
  Zr  Zr25  1  0.09825817  0.70202207  0.10237457  1
  Zr  Zr26  1  0.48778646  0.89478118  0.70589790  1
  Zr  Zr27  1  0.90158525  0.70633789  0.09923133  1
  Zr  Zr28  1  0.29960835  0.28799281  0.69533294  1
  Zr  Zr29  1  0.48873995  0.09502700  0.69937558  1
  Zr  Zr30  1  0.89923316  0.89986553  0.30013663  1
  Zr  Zr31  1  0.10165086  0.50458190  0.09591102  1
  Zr  Zr32  1  0.70579420  0.30642231  0.90513030  1
  Zr  Zr33  1  0.30837549  0.70660340  0.70399007  1
  Zr  Zr34  1  0.70639749  0.09846929  0.10216116  1
  Zr  Zr35  1  0.10657658  0.49874136  0.89313266  1
  Zr  Zr36  1  0.89235407  0.70583542  0.89809994  1
  Zr  Zr37  1  0.50113183  0.50586792  0.50442102  1
  Zr  Zr38  1  0.70597069  0.29541512  0.50278141  1
  Zr  Zr39  1  0.89181736  0.09850647  0.29728362  1
  Zr  Zr40  1  0.30519843  0.90977726  0.29963542  1
  Zr  Zr41  1  0.50465196  0.70691296  0.09920003  1
  Zr  Zr42  1  0.11551482  0.50276346  0.50383532  1
  Zr  Zr43  1  0.70227033  0.70738035  0.29613602  1
  Zr  Zr44  1  0.29974220  0.10598324  0.49892759  1
  Zr  Zr45  1  0.69903195  0.90412362  0.49384951  1
  Zr  Zr46  1  0.09168615  0.29929263  0.70619540  1
  Zr  Zr47  1  0.89825490  0.30283914  0.50841177  1
  Zr  Zr48  1  0.89691663  0.89594383  0.90612061  1
  Zr  Zr49  1  0.11027881  0.10816901  0.09893659  1
  Sc  Sc50  1  0.29864414  0.90921975  0.49265993  1
  Sc  Sc51  1  0.50198118  0.49596738  0.30122294  1
  Sc  Sc52  1  0.89635088  0.29685926  0.30682858  1
  Sc  Sc53  1  0.90637096  0.09732426  0.50216718  1
  Sc  Sc54  1  0.69275857  0.70024777  0.49337917  1
  Sc  Sc55  1  0.69318442  0.29579723  0.09812974  1
  Sc  Sc56  1  0.10345609  0.89767435  0.29864275  1
  Sc  Sc57  1  0.70037508  0.50358298  0.49806162  1
  Sc  Sc58  1  0.29304301  0.28265405  0.10336286  1
  Sc  Sc59  1  0.90599827  0.50418263  0.10124220  1
  Sc  Sc60  1  0.50773161  0.89764481  0.89685665  1
  Sc  Sc61  1  0.30063854  0.51664806  0.09954112  1
  Sc  Sc62  1  0.10250100  0.09669475  0.31371670  1
  Sc  Sc63  1  0.50245369  0.51192845  0.10050691  1
  Sc  Sc64  1  0.69914820  0.70266369  0.89991664  1
  Sc  Sc65  1  0.30076231  0.29573985  0.30233239  1
  Sc  Sc66  1  0.69927387  0.70442874  0.71062987  1
  Sc  Sc67  1  0.29695556  0.30017466  0.49442803  1
  Sc  Sc68  1  0.88813867  0.10072510  0.09447355  1
  Sc  Sc69  1  0.89242042  0.49378269  0.90015743  1
  Sc  Sc70  1  0.70107470  0.90086144  0.89747959  1
  Sc  Sc71  1  0.89825000  0.48192672  0.69562827  1
  Sc  Sc72  1  0.70561000  0.49888988  0.70424085  1
  Sc  Sc73  1  0.89433237  0.49649539  0.50131973  1
  Sc  Sc74  1  0.49621852  0.29608580  0.49141500  1
  Sc  Sc75  1  0.50168460  0.70044763  0.89503955  1
  Sc  Sc76  1  0.50344722  0.10772263  0.10037735  1
  Sc  Sc77  1  0.89630617  0.89206222  0.69267396  1
  Sc  Sc78  1  0.50369359  0.29537696  0.30163855  1
  Sc  Sc79  1  0.49819421  0.09965611  0.30043822  1
  Sc  Sc80  1  0.10009751  0.30269747  0.09668563  1
  Sc  Sc81  1  0.69612644  0.90108985  0.09868406  1
  Sc  Sc82  1  0.89591633  0.89550887  0.09827309  1
  Sc  Sc83  1  0.10714731  0.50126043  0.29173745  1
  Sc  Sc84  1  0.69886730  0.89817847  0.69668415  1
  Sc  Sc85  1  0.70054654  0.50828405  0.30780948  1
  Sc  Sc86  1  0.09338274  0.69980510  0.90254115  1
  Sc  Sc87  1  0.29467544  0.69683645  0.29447300  1
  Sc  Sc88  1  0.49059471  0.28817748  0.70207847  1
  Sc  Sc89  1  0.29258445  0.50993494  0.70481963  1
  Sc  Sc90  1  0.50028976  0.51733547  0.70288145  1
  Sc  Sc91  1  0.50571939  0.69703281  0.29011276  1
  Sc  Sc92  1  0.30153171  0.10314674  0.89157427  1
  Sc  Sc93  1  0.30991087  0.69857107  0.10130456  1
  Sc  Sc94  1  0.50133875  0.70379130  0.69743541  1
  Sc  Sc95  1  0.09082318  0.90333496  0.49213619  1
  Sc  Sc96  1  0.29553396  0.49876208  0.30037081  1
  Sc  Sc97  1  0.50786222  0.90012265  0.50435622  1
  Sc  Sc98  1  0.50724723  0.90175834  0.29550123  1
  Sc  Sc99  1  0.09975573  0.49256296  0.69769155  1
  Nb  Nb100  1  0.49617573  0.30503508  0.09734107  1
  Nb  Nb101  1  0.30053377  0.50695798  0.90026545  1
  Nb  Nb102  1  0.10035275  0.30179232  0.90054471  1
  Nb  Nb103  1  0.29284955  0.90533790  0.70594249  1
  Nb  Nb104  1  0.70467878  0.29818163  0.69886562  1
  Nb  Nb105  1  0.30101568  0.09294466  0.69744467  1
  Nb  Nb106  1  0.50591329  0.09688634  0.89750497  1
  Nb  Nb107  1  0.89549924  0.09782551  0.89793099  1
  Nb  Nb108  1  0.09895298  0.90125356  0.09517417  1
  Nb  Nb109  1  0.09939437  0.69821996  0.50147195  1
  Nb  Nb110  1  0.69830039  0.69969679  0.10140543  1
  Nb  Nb111  1  0.49417539  0.89790039  0.09767818  1
  Nb  Nb112  1  0.30259074  0.50055952  0.50186016  1
  Nb  Nb113  1  0.10056908  0.09946243  0.50475520  1
  Nb  Nb114  1  0.91444986  0.70492735  0.51154747  1
  Nb  Nb115  1  0.09652210  0.10005075  0.69503635  1
  Nb  Nb116  1  0.49076950  0.69844372  0.50642586  1
  Nb  Nb117  1  0.90937811  0.29061230  0.89746271  1
  Nb  Nb118  1  0.90331984  0.10271822  0.70485476  1
  Nb  Nb119  1  0.88618381  0.29633728  0.70051073  1
  Nb  Nb120  1  0.90046319  0.70206780  0.69526421  1
  Nb  Nb121  1  0.70527058  0.09438499  0.90396998  1
  Nb  Nb122  1  0.70409771  0.90354811  0.30330206  1
  Nb  Nb123  1  0.10544532  0.90351821  0.70599340  1
  Nb  Nb124  1  0.29891888  0.68865958  0.90367435  1
  Nb  Nb125  1  0.39953422  0.40349696  0.80145757  1
  Nb  Nb126  1  -0.00891501  0.60192241  0.79180487  1
  Nb  Nb127  1  0.39915506  0.60307437  0.40647822  1
  Nb  Nb128  1  0.20505500  0.40193035  -0.00768329  1
  Nb  Nb129  1  -0.00013025  0.19528059  0.20093215  1
  Nb  Nb130  1  0.20306021  0.80211776  -0.00143177  1
  Nb  Nb131  1  0.40244008  -0.00188956  -0.00140915  1
  Nb  Nb132  1  0.60388398  0.19961900  0.60631029  1
  Nb  Nb133  1  0.80783528  0.60892787  0.60243285  1
  Nb  Nb134  1  0.00209269  0.00329275  0.19242135  1
  Nb  Nb135  1  0.59544759  0.39164784  0.79624923  1
  Nb  Nb136  1  0.00321110  0.60187073  0.40811119  1
  Nb  Nb137  1  0.79561320  0.40109523  0.20065041  1
  Nb  Nb138  1  0.40137225  0.40507122  0.60313533  1
  Nb  Nb139  1  -0.00244357  0.00549860  0.79830034  1
  Nb  Nb140  1  0.40217014  0.39590557  0.18939315  1
  Nb  Nb141  1  0.00313247  0.00340407  -0.00202124  1
  Nb  Nb142  1  0.20192147  -0.00309791  -0.00312092  1
  Nb  Nb143  1  0.19732073  0.80977870  0.60366125  1
  Nb  Nb144  1  0.60689103  0.19445158  0.80112131  1
  Nb  Nb145  1  0.59632830  0.39285803  0.60763628  1
  Nb  Nb146  1  0.39430207  0.40113083  0.00030446  1
  Nb  Nb147  1  0.40268892  0.79173154  0.40385384  1
  Nb  Nb148  1  0.00605573  0.40445853  0.40316086  1
  Nb  Nb149  1  0.19575784  0.00200036  0.60663620  1
  Pd  Pd150  1  0.60184356  0.00119294  0.79365623  1
  Pd  Pd151  1  0.40240953  0.79890079  0.21213601  1
  Pd  Pd152  1  0.60412803  0.80101735  -0.00225640  1
  Pd  Pd153  1  0.20655495  0.80563889  0.40518297  1
  Pd  Pd154  1  0.80674169  -0.01081330  0.79690657  1
  Pd  Pd155  1  0.19830323  0.19606876  0.79187279  1
  Pd  Pd156  1  0.61382020  0.60039030  0.60638719  1
  Pd  Pd157  1  0.19203366  0.00166007  0.20220764  1
  Pd  Pd158  1  0.78842378  0.79331058  0.59304666  1
  Pd  Pd159  1  0.60349955  0.79722669  0.60190574  1
  Pd  Pd160  1  -0.00482431  0.19608269  0.00756401  1
  Pd  Pd161  1  -0.00591460  0.20383599  0.60466778  1
  Pd  Pd162  1  -0.00451563  0.80144829  0.79539934  1
  Pd  Pd163  1  0.18897680  0.60881089  0.79349855  1
  Pd  Pd164  1  0.79381475  0.80675300  0.19420628  1
  Pd  Pd165  1  0.79252057  0.59281786  0.18989800  1
  Pd  Pd166  1  0.21308294  0.40103479  0.18584838  1
  Pd  Pd167  1  -0.00066063  0.79795103  0.39829911  1
  Pd  Pd168  1  0.80108198  0.60310730  0.00391627  1
  Pd  Pd169  1  0.59173604  0.60606372  0.39723987  1
  Pd  Pd170  1  0.79789206  0.20302143  0.80947515  1
  Pd  Pd171  1  -0.00611340  0.59727905  -0.01204441  1
  Pd  Pd172  1  0.80631821  0.59831172  0.79143349  1
  Pd  Pd173  1  0.59693289  0.20048448  0.19950150  1
  Pd  Pd174  1  -0.00564447  0.58357587  0.60019820  1
  Pd  Pd175  1  0.38912510  0.81077884  0.59172073  1
  Pd  Pd176  1  0.60076279  0.00400934  0.60928156  1
  Pd  Pd177  1  0.39689784  0.40499025  0.39741703  1
  Pd  Pd178  1  0.00475614  0.40226302  -0.00492086  1
  Pd  Pd179  1  0.59708199  -0.00237267  0.19526433  1
  Pd  Pd180  1  0.19703064  0.78526085  0.80071970  1
  Pd  Pd181  1  0.39581635  0.80081126  -0.01002657  1
  Pd  Pd182  1  -0.00050034  0.20377619  0.39719380  1
  Pd  Pd183  1  0.80485399  0.40027401  0.00475925  1
  Pd  Pd184  1  0.60694128  0.19459198  -0.00238248  1
  Pd  Pd185  1  0.00039175  -0.00596476  0.60639108  1
  Pd  Pd186  1  0.20869183  0.39702590  0.60724254  1
  Pd  Pd187  1  0.00321362  0.60294640  0.20755285  1
  Pd  Pd188  1  0.80172566  0.79350854  0.40885081  1
  Pd  Pd189  1  0.39339687  -0.00818846  0.59473484  1
  Pd  Pd190  1  0.59542857  -0.00121283  0.00508585  1
  Pd  Pd191  1  -0.00782858  0.39188100  0.20861122  1
  Pd  Pd192  1  0.60045314  0.40154746  0.20083759  1
  Pd  Pd193  1  0.59024659  0.79852910  0.39709816  1
  Pd  Pd194  1  0.60251064  0.39818689  0.40730635  1
  Pd  Pd195  1  0.20213789  0.79799540  0.19480604  1
  Pd  Pd196  1  0.80071278  0.40115209  0.39588138  1
  Pd  Pd197  1  0.60572228  0.59603694  0.20089278  1
  Pd  Pd198  1  0.39391572  0.19383769  -0.00041961  1
  Pd  Pd199  1  -0.00792422  0.40126062  0.80391972  1
  Rh  Rh200  1  0.58967811  0.39940832  -0.00430449  1
  Rh  Rh201  1  0.40280900  0.00294685  0.80838699  1
  Rh  Rh202  1  0.80419201  0.19227928  0.40751707  1
  Rh  Rh203  1  0.80340718  0.19089273  0.59630209  1
  Rh  Rh204  1  0.59812162  -0.00145452  0.39410475  1
  Rh  Rh205  1  0.60557022  0.80609060  0.19749607  1
  Rh  Rh206  1  0.20225734  0.60572244  0.60931256  1
  Rh  Rh207  1  0.80203268  0.21054050  0.19950954  1
  Rh  Rh208  1  0.40263128  0.19381916  0.80290836  1
  Rh  Rh209  1  0.78946119  0.79675830  0.00413314  1
  Rh  Rh210  1  0.00071296  0.80779661  0.20186010  1
  Rh  Rh211  1  0.78762469  0.40872027  0.59844330  1
  Rh  Rh212  1  0.41337293  0.00222646  0.19401033  1
  Rh  Rh213  1  0.00453176  0.80281875  0.00201887  1
  Rh  Rh214  1  0.00403320  0.39495270  0.59364487  1
  Rh  Rh215  1  0.79946532  0.80386890  0.79910434  1
  Rh  Rh216  1  0.40219737  0.79278015  0.80605879  1
  Rh  Rh217  1  0.41159279  -0.01026368  0.40039037  1
  Rh  Rh218  1  0.19912623  0.19252731  0.60268844  1
  Rh  Rh219  1  0.79773212  0.19973516  -0.00646729  1
  Rh  Rh220  1  0.19816360  0.40080434  0.40131414  1
  Rh  Rh221  1  0.39294731  0.59477595  0.60063182  1
  Rh  Rh222  1  -0.00246119  0.00081463  0.39255120  1
  Rh  Rh223  1  0.00877725  0.81345976  0.59933087  1
  Rh  Rh224  1  0.19877555  0.60443363  0.00286756  1
  Rh  Rh225  1  0.80254241  0.00230493  0.40153186  1
  Rh  Rh226  1  0.80076584  0.39342917  0.80426494  1
  Rh  Rh227  1  0.40155193  0.60206665  0.80106067  1
  Rh  Rh228  1  0.39987441  0.20071080  0.39719870  1
  Rh  Rh229  1  0.40277607  0.20459075  0.59095911  1
  Rh  Rh230  1  0.60133888  0.59965243  0.79948056  1
  Rh  Rh231  1  0.20586637  0.39884658  0.80008258  1
  Rh  Rh232  1  0.80134745  -0.00274714  -0.00066838  1
  Rh  Rh233  1  0.59930071  0.80390666  0.79784291  1
  Rh  Rh234  1  0.20396768  0.20146076  -0.00635755  1
  Rh  Rh235  1  -0.00568139  0.20082161  0.79410163  1
  Rh  Rh236  1  0.19968203  0.59531095  0.39533721  1
  Rh  Rh237  1  0.19255136  0.01375037  0.79896782  1
  Rh  Rh238  1  0.60157547  0.61264049  0.00000991  1
  Rh  Rh239  1  0.40115094  0.59013162  0.21175303  1
  Rh  Rh240  1  0.19948491  0.60412754  0.19705909  1
  Rh  Rh241  1  0.40570310  0.20667866  0.20522622  1
  Rh  Rh242  1  0.19453697  0.19468409  0.21279721  1
  Rh  Rh243  1  0.80322592  -0.00885014  0.19757308  1
  Rh  Rh244  1  0.80628421  0.00057613  0.60066218  1
  Rh  Rh245  1  0.19484932  0.00083093  0.40880756  1
  Rh  Rh246  1  0.60046267  0.19405950  0.40559046  1
  Rh  Rh247  1  0.81328027  0.61331151  0.41619311  1
  Rh  Rh248  1  0.40550922  0.60322836  0.00007429  1
  Rh  Rh249  1  0.20063663  0.19683142  0.40024701  1
