# generated using pymatgen
data_ZrScNbPdRh
_symmetry_space_group_name_H-M   'P 1'
_cell_length_a   16.55489210
_cell_length_b   16.55865896
_cell_length_c   16.55885554
_cell_angle_alpha   90.01514819
_cell_angle_beta   89.97848085
_cell_angle_gamma   89.98785484
_symmetry_Int_Tables_number   1
_chemical_formula_structural   ZrScNbPdRh
_chemical_formula_sum   'Zr50 Sc50 Nb50 Pd50 Rh50'
_cell_volume   4539.22570514
_cell_formula_units_Z   50
loop_
 _symmetry_equiv_pos_site_id
 _symmetry_equiv_pos_as_xyz
  1  'x, y, z'
loop_
 _atom_site_type_symbol
 _atom_site_label
 _atom_site_symmetry_multiplicity
 _atom_site_fract_x
 _atom_site_fract_y
 _atom_site_fract_z
 _atom_site_occupancy
  Zr  Zr0  1  0.10237950  0.89497329  0.90632013  1
  Zr  Zr1  1  0.70056427  0.69400444  0.50253112  1
  Zr  Zr2  1  0.90846354  0.49906777  0.70237386  1
  Zr  Zr3  1  0.30222371  0.29804995  0.69802843  1
  Zr  Zr4  1  0.71023242  0.49946635  0.30659088  1
  Zr  Zr5  1  0.50483887  0.49742396  0.30167440  1
  Zr  Zr6  1  0.70336267  0.09326500  0.29982655  1
  Zr  Zr7  1  0.09160323  0.50892336  0.09234002  1
  Zr  Zr8  1  0.09636833  0.30116899  0.89029733  1
  Zr  Zr9  1  0.69816136  0.71003967  0.09947423  1
  Zr  Zr10  1  0.69234444  0.29823304  0.90591166  1
  Zr  Zr11  1  0.90013976  0.50440291  0.90303727  1
  Zr  Zr12  1  0.29031100  0.30263875  0.30393279  1
  Zr  Zr13  1  0.50541089  0.29319369  0.09846857  1
  Zr  Zr14  1  0.49805637  0.89987287  0.49683279  1
  Zr  Zr15  1  0.09521682  0.50337130  0.88887591  1
  Zr  Zr16  1  0.70660522  0.69888232  0.70215464  1
  Zr  Zr17  1  0.30657270  0.29834065  0.90143723  1
  Zr  Zr18  1  0.30040725  0.90069047  0.09764369  1
  Zr  Zr19  1  0.50486232  0.89851606  0.10536772  1
  Zr  Zr20  1  0.88766557  0.90838747  0.30175204  1
  Zr  Zr21  1  0.09916511  0.09624277  0.50809183  1
  Zr  Zr22  1  0.31134865  0.30145023  0.10057807  1
  Zr  Zr23  1  0.50721365  0.29532872  0.70044503  1
  Zr  Zr24  1  0.09986898  0.50096002  0.30462508  1
  Zr  Zr25  1  0.89478713  0.89369034  0.09985953  1
  Zr  Zr26  1  0.70089409  0.89804462  0.09867513  1
  Zr  Zr27  1  0.09490152  0.29446657  0.09824281  1
  Zr  Zr28  1  0.88847603  0.09987040  0.90106944  1
  Zr  Zr29  1  0.09376259  0.11098784  0.69484866  1
  Zr  Zr30  1  0.30005353  0.51066746  0.70034878  1
  Zr  Zr31  1  0.70319519  0.69714704  0.90067440  1
  Zr  Zr32  1  0.89258382  0.49894269  0.49392006  1
  Zr  Zr33  1  0.69618427  0.70120847  0.30508714  1
  Zr  Zr34  1  0.90073618  0.10044350  0.50415653  1
  Zr  Zr35  1  0.30393953  0.70007698  0.69780937  1
  Zr  Zr36  1  0.30912782  0.69863058  0.29618212  1
  Zr  Zr37  1  0.69946543  0.09588434  0.50758206  1
  Zr  Zr38  1  0.88786575  0.29877842  0.08959861  1
  Zr  Zr39  1  0.69487785  0.89935864  0.49365236  1
  Zr  Zr40  1  0.10323045  0.90124628  0.70229531  1
  Zr  Zr41  1  0.89511662  0.29809476  0.89934429  1
  Zr  Zr42  1  0.30055993  0.90446659  0.89405495  1
  Zr  Zr43  1  0.89589761  0.89806021  0.89884841  1
  Zr  Zr44  1  0.09582644  0.50445276  0.50372029  1
  Zr  Zr45  1  0.89370384  0.10509529  0.70209034  1
  Zr  Zr46  1  0.29675254  0.49356163  0.49933208  1
  Zr  Zr47  1  0.31068182  0.90179395  0.29830313  1
  Zr  Zr48  1  0.09212290  0.70816040  0.09629160  1
  Zr  Zr49  1  0.51090014  0.10650267  0.89826464  1
  Sc  Sc50  1  0.50867142  0.91420593  0.89912917  1
  Sc  Sc51  1  0.69193382  0.30879631  0.28890241  1
  Sc  Sc52  1  0.49178269  0.49382189  0.09825824  1
  Sc  Sc53  1  0.09448255  0.10022652  0.89288570  1
  Sc  Sc54  1  0.09750393  0.70597775  0.50246160  1
  Sc  Sc55  1  0.90046687  0.69549267  0.30235512  1
  Sc  Sc56  1  0.50766259  0.70030197  0.49253538  1
  Sc  Sc57  1  0.49996915  0.90412445  0.30045467  1
  Sc  Sc58  1  0.29826639  0.10199203  0.69874256  1
  Sc  Sc59  1  0.50994510  0.09565827  0.50162894  1
  Sc  Sc60  1  0.70061736  0.50129128  0.89674745  1
  Sc  Sc61  1  0.29987019  0.90136081  0.69993885  1
  Sc  Sc62  1  0.30618227  0.09601364  0.30027082  1
  Sc  Sc63  1  0.49944008  0.69069202  0.68819771  1
  Sc  Sc64  1  0.30054964  0.89968492  0.49730049  1
  Sc  Sc65  1  0.50821579  0.30747175  0.51464287  1
  Sc  Sc66  1  0.30404999  0.50524047  0.90156162  1
  Sc  Sc67  1  0.29803505  0.69180491  0.89716712  1
  Sc  Sc68  1  0.50553508  0.49779233  0.90377227  1
  Sc  Sc69  1  0.69607904  0.49904816  0.70357815  1
  Sc  Sc70  1  0.30005174  0.29614840  0.50612170  1
  Sc  Sc71  1  0.89799280  0.70072923  0.09745419  1
  Sc  Sc72  1  0.10304345  0.69385020  0.69863399  1
  Sc  Sc73  1  0.30679419  0.69455615  0.10172272  1
  Sc  Sc74  1  0.70654928  0.89377993  0.69318144  1
  Sc  Sc75  1  0.30809823  0.09958433  0.89355356  1
  Sc  Sc76  1  0.30663416  0.70366567  0.50619550  1
  Sc  Sc77  1  0.09602312  0.89706613  0.31052350  1
  Sc  Sc78  1  0.49893498  0.89985801  0.70112200  1
  Sc  Sc79  1  0.10760427  0.10375721  0.30520763  1
  Sc  Sc80  1  0.69756566  0.30381463  0.69745649  1
  Sc  Sc81  1  0.50198129  0.69985509  0.10121940  1
  Sc  Sc82  1  0.88609477  0.30187629  0.29420996  1
  Sc  Sc83  1  0.30462495  0.50167668  0.29394937  1
  Sc  Sc84  1  0.09392149  0.69591512  0.90143385  1
  Sc  Sc85  1  0.10539761  0.29614485  0.49938536  1
  Sc  Sc86  1  0.69424191  0.90060051  0.29269981  1
  Sc  Sc87  1  0.90236885  0.69823654  0.50680014  1
  Sc  Sc88  1  0.70163678  0.90426499  0.91079393  1
  Sc  Sc89  1  0.50810923  0.68891584  0.91171704  1
  Sc  Sc90  1  0.29603253  0.09773815  0.50173436  1
  Sc  Sc91  1  0.09987832  0.90135911  0.50590246  1
  Sc  Sc92  1  0.09350931  0.69903858  0.30274308  1
  Sc  Sc93  1  0.69799085  0.10212439  0.09704458  1
  Sc  Sc94  1  0.50719782  0.49912316  0.50460791  1
  Sc  Sc95  1  0.30429760  0.50473458  0.10048661  1
  Sc  Sc96  1  0.89919629  0.89247158  0.70357328  1
  Sc  Sc97  1  0.90292594  0.90195048  0.50514494  1
  Sc  Sc98  1  0.89653283  0.70420895  0.70114209  1
  Sc  Sc99  1  0.90217755  0.29911597  0.69440400  1
  Nb  Nb100  1  0.09972494  0.09774205  0.09983375  1
  Nb  Nb101  1  0.89409550  0.29942452  0.49744555  1
  Nb  Nb102  1  0.50038424  0.30129763  0.29468465  1
  Nb  Nb103  1  0.09941892  0.49471254  0.70238930  1
  Nb  Nb104  1  0.50271048  0.69562228  0.29693030  1
  Nb  Nb105  1  0.49978700  0.30288987  0.90563635  1
  Nb  Nb106  1  0.49809923  0.48573728  0.69717823  1
  Nb  Nb107  1  0.90103642  0.50059221  0.29895894  1
  Nb  Nb108  1  0.50595357  0.09985965  0.70179037  1
  Nb  Nb109  1  0.70287346  0.30709313  0.49436621  1
  Nb  Nb110  1  0.69793516  0.09741789  0.89869981  1
  Nb  Nb111  1  0.30041244  0.10157000  0.09908903  1
  Nb  Nb112  1  0.89489594  0.49716073  0.10305657  1
  Nb  Nb113  1  0.89704567  0.69964342  0.89328440  1
  Nb  Nb114  1  0.70160327  0.30292338  0.09734298  1
  Nb  Nb115  1  0.09963518  0.30493758  0.70316354  1
  Nb  Nb116  1  0.49434670  0.10321636  0.10445125  1
  Nb  Nb117  1  0.09618730  0.30175641  0.29977376  1
  Nb  Nb118  1  0.69907399  0.49397055  0.49091600  1
  Nb  Nb119  1  0.50421622  0.10440727  0.29691974  1
  Nb  Nb120  1  0.89648765  0.09898847  0.29980367  1
  Nb  Nb121  1  0.71457888  0.49597804  0.10499788  1
  Nb  Nb122  1  0.89873551  0.10000034  0.10241032  1
  Nb  Nb123  1  0.68919629  0.10658069  0.70479611  1
  Nb  Nb124  1  0.09876275  0.89944160  0.09697810  1
  Nb  Nb125  1  0.19533477  -0.00247475  0.19245704  1
  Nb  Nb126  1  0.40462800  0.39210885  0.39860541  1
  Nb  Nb127  1  0.40301638  0.00408195  0.00689764  1
  Nb  Nb128  1  -0.00436993  0.19716429  0.20239911  1
  Nb  Nb129  1  0.19727030  0.39656010  0.00143577  1
  Nb  Nb130  1  0.00114064  0.00503173  0.19638843  1
  Nb  Nb131  1  0.20136440  0.19893925  0.00256384  1
  Nb  Nb132  1  -0.00081188  0.00017251  0.00679919  1
  Nb  Nb133  1  0.40744527  0.79660662  0.80559328  1
  Nb  Nb134  1  0.60651578  0.59575554  0.20167131  1
  Nb  Nb135  1  0.19845244  0.80500828  0.19770038  1
  Nb  Nb136  1  0.59873791  0.79493412  0.80230425  1
  Nb  Nb137  1  0.19432618  0.40277670  0.60965436  1
  Nb  Nb138  1  -0.00414892  0.39968721  0.19998594  1
  Nb  Nb139  1  0.41235222  0.20422790  0.39765565  1
  Nb  Nb140  1  0.20210484  0.60077404  0.40178539  1
  Nb  Nb141  1  0.40645554  0.39827758  0.79743251  1
  Nb  Nb142  1  0.40193631  0.80676947  -0.00680955  1
  Nb  Nb143  1  0.79658746  0.20048292  0.40201530  1
  Nb  Nb144  1  0.40539680  0.00256404  0.60298823  1
  Nb  Nb145  1  -0.00550997  0.39514901  0.39551702  1
  Nb  Nb146  1  -0.00829346  0.20311131  0.39654239  1
  Nb  Nb147  1  0.79540467  0.80004596  0.40281883  1
  Nb  Nb148  1  0.19097986  0.39952085  0.19434112  1
  Nb  Nb149  1  0.60089792  0.20494379  0.39621511  1
  Pd  Pd150  1  0.19544873  0.60387750  0.20462768  1
  Pd  Pd151  1  -0.00098061  0.60467081  0.60507780  1
  Pd  Pd152  1  0.60127517  0.00423321  0.19631377  1
  Pd  Pd153  1  0.79510252  0.20011757  0.20153821  1
  Pd  Pd154  1  0.20101396  -0.00201152  0.39565576  1
  Pd  Pd155  1  0.60638672  0.58838986  0.01483694  1
  Pd  Pd156  1  0.79165742  0.20449620  0.59850984  1
  Pd  Pd157  1  0.80195705  -0.00379783  0.60614131  1
  Pd  Pd158  1  0.40805111  0.18941901  0.59244356  1
  Pd  Pd159  1  0.20064438  0.19450131  0.80322086  1
  Pd  Pd160  1  0.00049360  0.40182662  -0.00081868  1
  Pd  Pd161  1  0.80101658  0.39928482  0.79990848  1
  Pd  Pd162  1  0.40699543  0.20174995  0.79865139  1
  Pd  Pd163  1  0.39665081  0.20007780  0.20816427  1
  Pd  Pd164  1  0.60146401  0.40824045  0.18983269  1
  Pd  Pd165  1  0.59703359  0.79911766  0.60591940  1
  Pd  Pd166  1  -0.00014329  0.80722227  0.20875431  1
  Pd  Pd167  1  0.19667493  0.00882951  0.79565172  1
  Pd  Pd168  1  0.00121540  0.19190805  -0.00151017  1
  Pd  Pd169  1  0.00300676  0.00644061  0.39578695  1
  Pd  Pd170  1  -0.00429050  0.59868341  0.19827992  1
  Pd  Pd171  1  0.20041813  0.01009933  -0.00261516  1
  Pd  Pd172  1  0.59692357  -0.00617862  0.60906416  1
  Pd  Pd173  1  0.40573944  0.79659695  0.39882914  1
  Pd  Pd174  1  0.39839610  0.59267309  0.40550647  1
  Pd  Pd175  1  0.20089925  0.59831679  -0.00118164  1
  Pd  Pd176  1  0.00384217  0.39164149  0.59118779  1
  Pd  Pd177  1  0.80094943  0.60199755  0.00188097  1
  Pd  Pd178  1  0.20077789  0.19564721  0.40508168  1
  Pd  Pd179  1  0.20112001  0.80214613  0.59957258  1
  Pd  Pd180  1  -0.00498377  -0.00549341  0.61146267  1
  Pd  Pd181  1  -0.01130731  0.79975368  0.40290830  1
  Pd  Pd182  1  0.61109097  -0.01089800  0.79192403  1
  Pd  Pd183  1  0.79060419  0.20578607  0.79796094  1
  Pd  Pd184  1  0.20900926  0.78869256  0.00288182  1
  Pd  Pd185  1  0.60512790  0.40785182  0.00734745  1
  Pd  Pd186  1  0.79824992  0.60875925  0.20034902  1
  Pd  Pd187  1  0.79033379  -0.00421531  0.79408858  1
  Pd  Pd188  1  0.79597283  0.40560558  0.60369413  1
  Pd  Pd189  1  0.60336344  0.59281603  0.60102342  1
  Pd  Pd190  1  0.00445808  0.79390439  0.79892234  1
  Pd  Pd191  1  0.79907125  0.59063684  0.60357874  1
  Pd  Pd192  1  0.20443343  0.79130711  0.80033883  1
  Pd  Pd193  1  0.21198758  0.40544752  0.80190783  1
  Pd  Pd194  1  -0.00174113  0.00014315  0.80245321  1
  Pd  Pd195  1  0.59386952  0.60153856  0.79429179  1
  Pd  Pd196  1  0.40491623  0.59636910  0.59002045  1
  Pd  Pd197  1  0.19854508  0.19823943  0.19710854  1
  Pd  Pd198  1  0.20303393  0.79231444  0.39463888  1
  Pd  Pd199  1  0.41341458  0.59919247  0.80372757  1
  Rh  Rh200  1  0.39618770  0.40449836  -0.00985877  1
  Rh  Rh201  1  0.40149306  0.60381754  0.00154396  1
  Rh  Rh202  1  0.00185941  0.20781921  0.59470300  1
  Rh  Rh203  1  0.59327491  0.80515648  -0.00804558  1
  Rh  Rh204  1  0.00367324  0.80222147  0.60594991  1
  Rh  Rh205  1  0.79954185  -0.00088085  0.19106225  1
  Rh  Rh206  1  0.59395462  0.39484478  0.40396916  1
  Rh  Rh207  1  0.20729909  -0.00227105  0.60268687  1
  Rh  Rh208  1  0.00145507  0.59727565  0.40369639  1
  Rh  Rh209  1  0.40091993  0.79618955  0.19663387  1
  Rh  Rh210  1  0.60024801  0.59502978  0.39642838  1
  Rh  Rh211  1  0.79625653  -0.00131860  0.40664736  1
  Rh  Rh212  1  0.59343783  0.39686952  0.80357726  1
  Rh  Rh213  1  -0.00995589  0.39586175  0.80114636  1
  Rh  Rh214  1  0.79431374  0.40484782  -0.00700035  1
  Rh  Rh215  1  -0.00699308  0.80154821  -0.00793343  1
  Rh  Rh216  1  0.59964409  0.80285321  0.39440098  1
  Rh  Rh217  1  0.80255270  0.80035631  0.58890380  1
  Rh  Rh218  1  0.40627918  0.01078906  0.40972820  1
  Rh  Rh219  1  0.80153708  0.79691625  0.21039019  1
  Rh  Rh220  1  0.39322420  0.39872922  0.20764938  1
  Rh  Rh221  1  0.80550476  0.59570455  0.79565523  1
  Rh  Rh222  1  0.60605198  0.20136000  0.59590172  1
  Rh  Rh223  1  0.61182419  0.40516942  0.59833943  1
  Rh  Rh224  1  0.41405393  0.59899129  0.19774184  1
  Rh  Rh225  1  0.80202564  0.00483801  0.00436468  1
  Rh  Rh226  1  -0.00719919  0.20358682  0.79623316  1
  Rh  Rh227  1  0.80344303  0.60774985  0.40392264  1
  Rh  Rh228  1  0.19753451  0.59665276  0.59514450  1
  Rh  Rh229  1  0.40286659  -0.00042797  0.79515118  1
  Rh  Rh230  1  0.39103295  0.40301985  0.60175113  1
  Rh  Rh231  1  0.59508095  0.00899198  0.00819508  1
  Rh  Rh232  1  0.59506307  0.79362105  0.20466190  1
  Rh  Rh233  1  0.59701142  0.00462559  0.39322846  1
  Rh  Rh234  1  0.39756690  0.00660662  0.19684410  1
  Rh  Rh235  1  0.79042078  0.80329651  0.80710987  1
  Rh  Rh236  1  -0.00197260  0.60500565  0.79493190  1
  Rh  Rh237  1  0.60324560  0.20559315  0.80220004  1
  Rh  Rh238  1  0.78918394  0.19426369  -0.00195214  1
  Rh  Rh239  1  0.80405433  0.39800342  0.19914035  1
  Rh  Rh240  1  0.60480598  0.20004545  0.19886730  1
  Rh  Rh241  1  0.60232454  0.19729590  0.00443957  1
  Rh  Rh242  1  -0.01094537  0.60629983  -0.00178683  1
  Rh  Rh243  1  0.19552789  0.20723555  0.60231755  1
  Rh  Rh244  1  0.40079743  0.19106695  -0.00208897  1
  Rh  Rh245  1  0.80286182  0.79318630  -0.00612924  1
  Rh  Rh246  1  0.19522155  0.60118573  0.79925036  1
  Rh  Rh247  1  0.80329377  0.39382433  0.39566694  1
  Rh  Rh248  1  0.19951283  0.40577297  0.40053763  1
  Rh  Rh249  1  0.40030731  0.80944416  0.60572680  1
