# generated using pymatgen
data_ZrScNbPdRh
_symmetry_space_group_name_H-M   'P 1'
_cell_length_a   16.55392661
_cell_length_b   16.55453178
_cell_length_c   16.55508651
_cell_angle_alpha   89.97605133
_cell_angle_beta   90.02582150
_cell_angle_gamma   90.01244240
_symmetry_Int_Tables_number   1
_chemical_formula_structural   ZrScNbPdRh
_chemical_formula_sum   'Zr50 Sc50 Nb50 Pd50 Rh50'
_cell_volume   4536.79639852
_cell_formula_units_Z   50
loop_
 _symmetry_equiv_pos_site_id
 _symmetry_equiv_pos_as_xyz
  1  'x, y, z'
loop_
 _atom_site_type_symbol
 _atom_site_label
 _atom_site_symmetry_multiplicity
 _atom_site_fract_x
 _atom_site_fract_y
 _atom_site_fract_z
 _atom_site_occupancy
  Zr  Zr0  1  0.90283201  0.30469663  0.09661588  1
  Zr  Zr1  1  0.29659420  0.69143058  0.70610707  1
  Zr  Zr2  1  0.51026447  0.89893531  0.49998370  1
  Zr  Zr3  1  0.30239435  0.69482619  0.09699526  1
  Zr  Zr4  1  0.30253966  0.90295516  0.29925653  1
  Zr  Zr5  1  0.89872614  0.69289752  0.90003441  1
  Zr  Zr6  1  0.69571666  0.90551039  0.90041151  1
  Zr  Zr7  1  0.70186867  0.49385436  0.29534992  1
  Zr  Zr8  1  0.70419108  0.50293526  0.90181689  1
  Zr  Zr9  1  0.29914654  0.50160178  0.09642033  1
  Zr  Zr10  1  0.10312376  0.89967356  0.28908956  1
  Zr  Zr11  1  0.50336391  0.09363997  0.90275249  1
  Zr  Zr12  1  0.69651669  0.30147983  0.29553307  1
  Zr  Zr13  1  0.29869547  0.50087080  0.49910631  1
  Zr  Zr14  1  0.50159714  0.90140197  0.29629429  1
  Zr  Zr15  1  0.29476285  0.69801200  0.89894065  1
  Zr  Zr16  1  0.50324208  0.09813470  0.29837607  1
  Zr  Zr17  1  0.49069468  0.50548635  0.70074909  1
  Zr  Zr18  1  0.09755791  0.70055421  0.09455293  1
  Zr  Zr19  1  0.89999754  0.10226517  0.29801521  1
  Zr  Zr20  1  0.50053541  0.69801367  0.29593473  1
  Zr  Zr21  1  0.88936827  0.10348008  0.90401022  1
  Zr  Zr22  1  0.70974099  0.09921158  0.08832407  1
  Zr  Zr23  1  0.49828280  0.10173150  0.50548121  1
  Zr  Zr24  1  0.49383870  0.50255680  0.49917259  1
  Zr  Zr25  1  0.09347042  0.50945892  0.49385670  1
  Zr  Zr26  1  0.70851231  0.89169778  0.31736454  1
  Zr  Zr27  1  0.30089183  0.90216967  0.50599744  1
  Zr  Zr28  1  0.29872865  0.31309634  0.29956847  1
  Zr  Zr29  1  0.30628653  0.69367974  0.29041638  1
  Zr  Zr30  1  0.89955450  0.10655386  0.10637108  1
  Zr  Zr31  1  0.90142591  0.49208515  0.49918028  1
  Zr  Zr32  1  0.09858778  0.90024346  0.70019077  1
  Zr  Zr33  1  0.70272777  0.70879597  0.49860128  1
  Zr  Zr34  1  0.49709591  0.29900804  0.49926762  1
  Zr  Zr35  1  0.09868810  0.29920301  0.09463327  1
  Zr  Zr36  1  0.90452521  0.10433288  0.50206474  1
  Zr  Zr37  1  0.09848690  0.30688430  0.90299740  1
  Zr  Zr38  1  0.91243479  0.29757193  0.70185019  1
  Zr  Zr39  1  0.30305190  0.90076132  0.90068408  1
  Zr  Zr40  1  0.10211113  0.10493933  0.50146204  1
  Zr  Zr41  1  0.90605691  0.70087540  0.09263415  1
  Zr  Zr42  1  0.49730188  0.70183854  0.10731890  1
  Zr  Zr43  1  0.29998995  0.09659198  0.29824507  1
  Zr  Zr44  1  0.90690101  0.49585821  0.70064383  1
  Zr  Zr45  1  0.89463959  0.09711259  0.70625558  1
  Zr  Zr46  1  0.50354940  0.11695694  0.70273447  1
  Zr  Zr47  1  0.30064857  0.11670707  0.69554473  1
  Zr  Zr48  1  0.30419902  0.10661071  0.90176517  1
  Zr  Zr49  1  0.10058354  0.69126184  0.30041401  1
  Sc  Sc50  1  0.10577676  0.11062645  0.91037326  1
  Sc  Sc51  1  0.29947690  0.31382880  0.09130438  1
  Sc  Sc52  1  0.09517620  0.29660709  0.50045334  1
  Sc  Sc53  1  0.10909520  0.90057943  0.50964348  1
  Sc  Sc54  1  0.70071114  0.29585747  0.90902674  1
  Sc  Sc55  1  0.69651952  0.49135819  0.09455939  1
  Sc  Sc56  1  0.69392609  0.30640245  0.48986707  1
  Sc  Sc57  1  0.29110364  0.10322183  0.50195243  1
  Sc  Sc58  1  0.90963220  0.69518935  0.50635872  1
  Sc  Sc59  1  0.29829181  0.88528755  0.70062643  1
  Sc  Sc60  1  0.70083154  0.09967210  0.28892450  1
  Sc  Sc61  1  0.09783663  0.10697623  0.30113066  1
  Sc  Sc62  1  0.70155865  0.90260811  0.09964065  1
  Sc  Sc63  1  0.90373799  0.48489598  0.30218446  1
  Sc  Sc64  1  0.50450230  0.89391238  0.90239218  1
  Sc  Sc65  1  0.29728433  0.49967959  0.30064410  1
  Sc  Sc66  1  0.89571033  0.70679497  0.30144724  1
  Sc  Sc67  1  0.89588819  0.89524391  0.70351278  1
  Sc  Sc68  1  0.29492294  0.50163330  0.89581053  1
  Sc  Sc69  1  0.50208511  0.50085388  0.09337339  1
  Sc  Sc70  1  0.50557410  0.09379209  0.09509537  1
  Sc  Sc71  1  0.69590401  0.70025235  0.29904327  1
  Sc  Sc72  1  0.30288333  0.90325193  0.10381336  1
  Sc  Sc73  1  0.10251069  0.49066410  0.09058351  1
  Sc  Sc74  1  0.70128974  0.30303646  0.10193995  1
  Sc  Sc75  1  0.50090111  0.70378595  0.90342167  1
  Sc  Sc76  1  0.69752100  0.70069616  0.89849253  1
  Sc  Sc77  1  0.70002324  0.69933734  0.70784246  1
  Sc  Sc78  1  0.69683973  0.09543246  0.71046482  1
  Sc  Sc79  1  0.50181078  0.69439807  0.50460517  1
  Sc  Sc80  1  0.30141351  0.09517759  0.08831653  1
  Sc  Sc81  1  0.69118380  0.70052812  0.10331519  1
  Sc  Sc82  1  0.10414248  0.30450629  0.70230280  1
  Sc  Sc83  1  0.50566026  0.88986933  0.70822965  1
  Sc  Sc84  1  0.90226679  0.90579559  0.89422838  1
  Sc  Sc85  1  0.09517105  0.90172145  0.89770818  1
  Sc  Sc86  1  0.49467560  0.50292736  0.30042337  1
  Sc  Sc87  1  0.10442961  0.49715740  0.69444265  1
  Sc  Sc88  1  0.69293373  0.28560195  0.71315664  1
  Sc  Sc89  1  0.90139740  0.29958358  0.29314786  1
  Sc  Sc90  1  0.09824305  0.69623055  0.89990403  1
  Sc  Sc91  1  0.69262954  0.49966345  0.49685130  1
  Sc  Sc92  1  0.69915660  0.10050908  0.89793757  1
  Sc  Sc93  1  0.87940540  0.89723854  0.50386008  1
  Sc  Sc94  1  0.69911869  0.08447204  0.51014450  1
  Sc  Sc95  1  0.49304126  0.29788348  0.90274368  1
  Sc  Sc96  1  0.10183744  0.10829086  0.69280676  1
  Sc  Sc97  1  0.29482593  0.30498896  0.50077838  1
  Sc  Sc98  1  0.09860937  0.30648126  0.29728235  1
  Sc  Sc99  1  0.70288185  0.89765596  0.69791144  1
  Nb  Nb100  1  0.09645703  0.49802612  0.29810133  1
  Nb  Nb101  1  0.90090016  0.49932533  0.90563605  1
  Nb  Nb102  1  0.50369094  0.89423160  0.09543563  1
  Nb  Nb103  1  0.90106401  0.30329403  0.89695588  1
  Nb  Nb104  1  0.90692195  0.89879512  0.10395704  1
  Nb  Nb105  1  0.89814266  0.50032935  0.09438039  1
  Nb  Nb106  1  0.30976509  0.30809975  0.70896847  1
  Nb  Nb107  1  0.50138558  0.29339664  0.29988022  1
  Nb  Nb108  1  0.49991112  0.30396523  0.10153678  1
  Nb  Nb109  1  0.10060139  0.10831349  0.09800413  1
  Nb  Nb110  1  0.49329442  0.30153712  0.70118004  1
  Nb  Nb111  1  0.50890091  0.49398933  0.89975887  1
  Nb  Nb112  1  0.69880160  0.89277387  0.50541780  1
  Nb  Nb113  1  0.08979740  0.69891135  0.69213630  1
  Nb  Nb114  1  0.29668980  0.30004669  0.88874699  1
  Nb  Nb115  1  0.89694636  0.29885095  0.50089747  1
  Nb  Nb116  1  0.70061959  0.49911087  0.70434238  1
  Nb  Nb117  1  0.90220200  0.90074354  0.29998097  1
  Nb  Nb118  1  0.29819365  0.49225298  0.70335245  1
  Nb  Nb119  1  0.10010356  0.50185758  0.89467735  1
  Nb  Nb120  1  0.29808175  0.70173103  0.49701315  1
  Nb  Nb121  1  0.09336999  0.89923193  0.09794838  1
  Nb  Nb122  1  0.09757296  0.69830391  0.49817451  1
  Nb  Nb123  1  0.49414901  0.70047732  0.70899861  1
  Nb  Nb124  1  0.89984075  0.69638717  0.70028214  1
  Nb  Nb125  1  0.20111248  0.79367088  0.40159276  1
  Nb  Nb126  1  0.79307576  0.39649402  0.60688076  1
  Nb  Nb127  1  0.39602286  0.79873554  0.40141685  1
  Nb  Nb128  1  0.00525866  0.80529425  0.40193308  1
  Nb  Nb129  1  0.20699953  0.00481277  0.79862265  1
  Nb  Nb130  1  0.39743590  0.00322548  0.79520580  1
  Nb  Nb131  1  0.40118716  0.20142102  0.39191523  1
  Nb  Nb132  1  0.80131615  0.20607935  0.59817706  1
  Nb  Nb133  1  -0.00489725  0.59278613  0.19689202  1
  Nb  Nb134  1  -0.00099342  0.59789020  0.79843799  1
  Nb  Nb135  1  -0.00309755  -0.00919387  0.40108609  1
  Nb  Nb136  1  0.59788949  0.40047287  0.61150433  1
  Nb  Nb137  1  0.80625727  0.59371614  0.19853744  1
  Nb  Nb138  1  0.80698361  0.80235462  0.00161483  1
  Nb  Nb139  1  0.20636648  0.20204596  0.19411075  1
  Nb  Nb140  1  0.19661169  0.80245304  0.00362526  1
  Nb  Nb141  1  0.59833905  0.40216326  0.79860757  1
  Nb  Nb142  1  0.80042933  0.40051429  0.80097771  1
  Nb  Nb143  1  0.80266258  0.59579238  0.40038557  1
  Nb  Nb144  1  0.40145869  0.00118288  0.60888209  1
  Nb  Nb145  1  -0.00018902  0.00341093  0.01054453  1
  Nb  Nb146  1  0.40192845  0.20625966  0.19906862  1
  Nb  Nb147  1  -0.00324344  0.00036356  0.59758510  1
  Nb  Nb148  1  0.79969140  0.59419178  0.60213750  1
  Nb  Nb149  1  0.80050403  0.20117935  0.40424732  1
  Pd  Pd150  1  0.59979034  0.60412183  0.00150181  1
  Pd  Pd151  1  0.19079439  -0.00536951  0.40051044  1
  Pd  Pd152  1  0.19134645  -0.00695139  -0.00347162  1
  Pd  Pd153  1  0.20133087  0.60083068  0.60255080  1
  Pd  Pd154  1  0.40557753  0.79933557  0.59875135  1
  Pd  Pd155  1  -0.00087368  0.79148082  0.20679953  1
  Pd  Pd156  1  0.59020022  0.40498304  0.19770116  1
  Pd  Pd157  1  0.19772292  0.78918249  0.59910149  1
  Pd  Pd158  1  0.59435169  -0.00387541  0.61306409  1
  Pd  Pd159  1  0.79842575  0.80245356  0.80623324  1
  Pd  Pd160  1  0.59880333  0.20290010  0.00248352  1
  Pd  Pd161  1  0.61256931  0.20689540  0.59439982  1
  Pd  Pd162  1  0.19494924  0.39774241  0.59593000  1
  Pd  Pd163  1  0.00087314  0.79160027  0.80230240  1
  Pd  Pd164  1  0.39804970  0.40286005  -0.00960508  1
  Pd  Pd165  1  0.20433671  0.79860755  0.19542864  1
  Pd  Pd166  1  0.40610704  0.40300306  0.20000912  1
  Pd  Pd167  1  0.39814250  0.20591248  0.00720181  1
  Pd  Pd168  1  0.60670021  0.18911701  0.40499239  1
  Pd  Pd169  1  0.19112517  0.58905986  0.19335327  1
  Pd  Pd170  1  0.39986584  0.39897893  0.59847950  1
  Pd  Pd171  1  0.59955190  0.79030526  0.60892864  1
  Pd  Pd172  1  0.39490012  0.80115993  0.00180425  1
  Pd  Pd173  1  0.60492596  0.60094097  0.39750862  1
  Pd  Pd174  1  0.19069692  0.80033996  0.80509667  1
  Pd  Pd175  1  0.40005481  0.00195797  0.41073332  1
  Pd  Pd176  1  0.00520151  0.00750790  0.20097495  1
  Pd  Pd177  1  -0.00791506  0.81004911  0.59330817  1
  Pd  Pd178  1  0.79672012  -0.00710427  0.20097083  1
  Pd  Pd179  1  0.00741635  0.19320607  0.80622179  1
  Pd  Pd180  1  0.80060082  0.00676233  0.40135037  1
  Pd  Pd181  1  0.60504592  0.60130944  0.60579611  1
  Pd  Pd182  1  0.20502531  0.59939706  0.39766373  1
  Pd  Pd183  1  0.19477073  0.20096798  0.79853134  1
  Pd  Pd184  1  0.19580036  0.01008471  0.19138346  1
  Pd  Pd185  1  0.59500381  0.60015409  0.80123982  1
  Pd  Pd186  1  0.39274302  0.60496843  0.60047221  1
  Pd  Pd187  1  0.60753681  0.80762283  0.20240677  1
  Pd  Pd188  1  0.60854710  0.00353587  0.39858618  1
  Pd  Pd189  1  0.40430585  0.00494418  0.18848457  1
  Pd  Pd190  1  0.40085171  0.59662897  0.81089241  1
  Pd  Pd191  1  0.00316041  0.39058990  0.40149884  1
  Pd  Pd192  1  0.59180018  0.40581086  0.39923883  1
  Pd  Pd193  1  0.79752232  0.79600632  0.19386559  1
  Pd  Pd194  1  0.20448758  0.20677659  0.39230161  1
  Pd  Pd195  1  0.78953971  0.60686922  0.00954815  1
  Pd  Pd196  1  0.40645214  0.59570859  -0.00771325  1
  Pd  Pd197  1  0.01135986  0.01234136  0.80110097  1
  Pd  Pd198  1  0.60849015  -0.00593757  0.19726323  1
  Pd  Pd199  1  0.59862181  0.19835390  0.18686057  1
  Rh  Rh200  1  0.79299142  -0.00409841  0.80065403  1
  Rh  Rh201  1  -0.00152167  0.19861093  0.60289655  1
  Rh  Rh202  1  0.80276165  0.20789599  0.00169057  1
  Rh  Rh203  1  0.40249280  0.58916552  0.19426842  1
  Rh  Rh204  1  0.80033557  0.78867406  0.60464279  1
  Rh  Rh205  1  0.40026578  0.80532990  0.20207963  1
  Rh  Rh206  1  0.60072013  -0.00421619  0.00337060  1
  Rh  Rh207  1  0.19578352  0.60261310  -0.00124465  1
  Rh  Rh208  1  0.40909109  -0.00934140  -0.00350470  1
  Rh  Rh209  1  -0.00665545  0.20149272  0.39375665  1
  Rh  Rh210  1  0.79591604  0.20703321  0.20305526  1
  Rh  Rh211  1  0.20375226  0.40069273  -0.01270886  1
  Rh  Rh212  1  0.00775381  0.58809720  -0.00282605  1
  Rh  Rh213  1  0.80305152  0.40258628  0.19395346  1
  Rh  Rh214  1  -0.00936867  0.60602117  0.38791662  1
  Rh  Rh215  1  0.40306285  0.39707590  0.39968198  1
  Rh  Rh216  1  0.19549783  0.39940580  0.19822476  1
  Rh  Rh217  1  0.81014147  0.59339539  0.79433139  1
  Rh  Rh218  1  0.60081033  0.79402358  0.79998670  1
  Rh  Rh219  1  0.00950398  0.20496451  0.20045943  1
  Rh  Rh220  1  -0.00219350  0.81321938  -0.00799203  1
  Rh  Rh221  1  0.60773079  0.80010733  0.00244499  1
  Rh  Rh222  1  0.40189555  0.79964117  0.80096939  1
  Rh  Rh223  1  0.60554461  0.59144842  0.19847040  1
  Rh  Rh224  1  0.79974422  0.39605273  0.40301716  1
  Rh  Rh225  1  0.80318724  0.20680631  0.79752377  1
  Rh  Rh226  1  0.80861706  0.79200898  0.40495994  1
  Rh  Rh227  1  0.39173306  0.20327383  0.58941801  1
  Rh  Rh228  1  0.59339387  0.20718078  0.81218160  1
  Rh  Rh229  1  -0.00154635  0.40392883  -0.00355104  1
  Rh  Rh230  1  0.20377902  0.21613799  0.60347390  1
  Rh  Rh231  1  0.18936585  0.59733735  0.79126866  1
  Rh  Rh232  1  0.20255453  0.00169626  0.61388710  1
  Rh  Rh233  1  0.80287078  0.39580497  -0.00558509  1
  Rh  Rh234  1  0.00284196  0.40593176  0.19417056  1
  Rh  Rh235  1  0.80217922  0.00276188  0.60755176  1
  Rh  Rh236  1  -0.00240263  0.59786956  0.60590007  1
  Rh  Rh237  1  0.59736226  0.39361760  -0.00576151  1
  Rh  Rh238  1  0.81067446  -0.00982672  0.00174828  1
  Rh  Rh239  1  0.59112540  0.79700310  0.39915082  1
  Rh  Rh240  1  0.19051797  0.40774038  0.40346268  1
  Rh  Rh241  1  0.59416608  -0.00189144  0.79900855  1
  Rh  Rh242  1  0.40305852  0.40593104  0.80669346  1
  Rh  Rh243  1  0.20995558  0.21052190  0.00532813  1
  Rh  Rh244  1  0.00482422  0.39801927  0.59335207  1
  Rh  Rh245  1  0.39666606  0.60578604  0.40153503  1
  Rh  Rh246  1  0.00012974  0.40694085  0.80771362  1
  Rh  Rh247  1  0.20163528  0.40236731  0.79973110  1
  Rh  Rh248  1  0.40475248  0.19998811  0.80603095  1
  Rh  Rh249  1  -0.00886021  0.19513834  -0.00398090  1
