# generated using pymatgen
data_ZrScNbPdRh
_symmetry_space_group_name_H-M   'P 1'
_cell_length_a   16.55633466
_cell_length_b   16.55607759
_cell_length_c   16.55453399
_cell_angle_alpha   89.98124965
_cell_angle_beta   89.97162509
_cell_angle_gamma   90.03762450
_symmetry_Int_Tables_number   1
_chemical_formula_structural   ZrScNbPdRh
_chemical_formula_sum   'Zr50 Sc50 Nb50 Pd50 Rh50'
_cell_volume   4537.72778240
_cell_formula_units_Z   50
loop_
 _symmetry_equiv_pos_site_id
 _symmetry_equiv_pos_as_xyz
  1  'x, y, z'
loop_
 _atom_site_type_symbol
 _atom_site_label
 _atom_site_symmetry_multiplicity
 _atom_site_fract_x
 _atom_site_fract_y
 _atom_site_fract_z
 _atom_site_occupancy
  Zr  Zr0  1  0.10177225  0.10333929  0.70059109  1
  Zr  Zr1  1  0.70474790  0.90080695  0.30160938  1
  Zr  Zr2  1  0.89029264  0.09927122  0.29888893  1
  Zr  Zr3  1  0.90840611  0.70323514  0.90011957  1
  Zr  Zr4  1  0.10295864  0.49417031  0.09903137  1
  Zr  Zr5  1  0.70265421  0.70535816  0.69572628  1
  Zr  Zr6  1  0.89492480  0.30242169  0.49707240  1
  Zr  Zr7  1  0.30384315  0.50097770  0.90151702  1
  Zr  Zr8  1  0.30239280  0.89770554  0.29770645  1
  Zr  Zr9  1  0.31048862  0.30139779  0.88571063  1
  Zr  Zr10  1  0.30001245  0.49388516  0.70644957  1
  Zr  Zr11  1  0.89947243  0.89736809  0.90076316  1
  Zr  Zr12  1  0.70424974  0.69706807  0.89265260  1
  Zr  Zr13  1  0.50105662  0.69770836  0.49119041  1
  Zr  Zr14  1  0.10639088  0.10007493  0.90423994  1
  Zr  Zr15  1  0.50089209  0.50463440  0.30611702  1
  Zr  Zr16  1  0.68829812  0.50265210  0.70355556  1
  Zr  Zr17  1  0.49837683  0.49225656  0.88961834  1
  Zr  Zr18  1  0.90464403  0.50044763  0.89895123  1
  Zr  Zr19  1  0.31336105  0.09383943  0.29217535  1
  Zr  Zr20  1  0.10042918  0.29645294  0.10200280  1
  Zr  Zr21  1  0.10776197  0.89288875  0.30112301  1
  Zr  Zr22  1  0.09803932  0.70015467  0.10995393  1
  Zr  Zr23  1  0.90038402  0.49407392  0.50110327  1
  Zr  Zr24  1  0.29963034  0.49666002  0.10500535  1
  Zr  Zr25  1  0.89204182  0.89896336  0.10047463  1
  Zr  Zr26  1  0.89460922  0.48939093  0.30374442  1
  Zr  Zr27  1  0.90487858  0.10934108  0.10255457  1
  Zr  Zr28  1  0.10310991  0.30444005  0.70461731  1
  Zr  Zr29  1  0.49542532  0.10225029  0.50842388  1
  Zr  Zr30  1  0.50642491  0.29451009  0.10604045  1
  Zr  Zr31  1  0.90277532  0.70403645  0.29274127  1
  Zr  Zr32  1  0.69426960  0.49409910  0.90012595  1
  Zr  Zr33  1  0.49843153  0.09873030  0.09960135  1
  Zr  Zr34  1  0.90369109  0.49672326  0.70273099  1
  Zr  Zr35  1  0.09885281  0.10008041  0.50024686  1
  Zr  Zr36  1  0.29846908  0.49667862  0.30503894  1
  Zr  Zr37  1  0.89843346  0.09531306  0.90037076  1
  Zr  Zr38  1  0.09961110  0.50265829  0.90062019  1
  Zr  Zr39  1  0.10043357  0.90181279  0.49955650  1
  Zr  Zr40  1  0.49321596  0.89857137  0.29732512  1
  Zr  Zr41  1  0.89921332  0.89483778  0.70420269  1
  Zr  Zr42  1  0.89456628  0.49578778  0.10341275  1
  Zr  Zr43  1  0.69737807  0.89609467  0.69891396  1
  Zr  Zr44  1  0.09882507  0.70722336  0.50335854  1
  Zr  Zr45  1  0.69603976  0.29963639  0.49804140  1
  Zr  Zr46  1  0.29662992  0.69548201  0.89325013  1
  Zr  Zr47  1  0.49371281  0.28630670  0.69763528  1
  Zr  Zr48  1  0.10529483  0.10336532  0.09504688  1
  Zr  Zr49  1  0.89054478  0.29709081  0.90023400  1
  Sc  Sc50  1  0.70367091  0.70780963  0.11370552  1
  Sc  Sc51  1  0.69977594  0.30316744  0.09608982  1
  Sc  Sc52  1  0.90151314  0.29891718  0.68899531  1
  Sc  Sc53  1  0.69467220  0.49451913  0.49926154  1
  Sc  Sc54  1  0.69111000  0.29402650  0.69581188  1
  Sc  Sc55  1  0.29737480  0.09632159  0.09530750  1
  Sc  Sc56  1  0.09390038  0.30898943  0.29888464  1
  Sc  Sc57  1  0.70058448  0.10685488  0.09301191  1
  Sc  Sc58  1  0.30222186  0.90191840  0.10268331  1
  Sc  Sc59  1  0.68987391  0.70719615  0.50048847  1
  Sc  Sc60  1  0.09654477  0.49195033  0.70268207  1
  Sc  Sc61  1  0.30151160  0.70506937  0.70211187  1
  Sc  Sc62  1  0.69884514  0.89890632  0.10205860  1
  Sc  Sc63  1  0.90378186  0.91238377  0.30358660  1
  Sc  Sc64  1  0.10677858  0.89742310  0.69951378  1
  Sc  Sc65  1  0.70136682  0.10545961  0.49507058  1
  Sc  Sc66  1  0.90306318  0.70758749  0.70400986  1
  Sc  Sc67  1  0.49715464  0.69259435  0.69233121  1
  Sc  Sc68  1  0.09815453  0.49972966  0.49748091  1
  Sc  Sc69  1  0.31591084  0.10492849  0.70004677  1
  Sc  Sc70  1  0.29677049  0.10179828  0.89692910  1
  Sc  Sc71  1  0.49623434  0.70405671  0.30189628  1
  Sc  Sc72  1  0.11184435  0.90587653  0.10444428  1
  Sc  Sc73  1  0.10490033  0.50274665  0.29994682  1
  Sc  Sc74  1  0.69937138  0.91174671  0.90303046  1
  Sc  Sc75  1  0.30561419  0.70240614  0.50095016  1
  Sc  Sc76  1  0.50141915  0.50011135  0.10896964  1
  Sc  Sc77  1  0.70096971  0.10667631  0.89811196  1
  Sc  Sc78  1  0.50150786  0.90960147  0.69426848  1
  Sc  Sc79  1  0.30317731  0.90120537  0.50118373  1
  Sc  Sc80  1  0.29959691  0.69766890  0.30113664  1
  Sc  Sc81  1  0.89863672  0.29568623  0.10778410  1
  Sc  Sc82  1  0.68758774  0.70208212  0.30374642  1
  Sc  Sc83  1  0.30530627  0.09166223  0.50235515  1
  Sc  Sc84  1  0.10249805  0.71140768  0.70225490  1
  Sc  Sc85  1  0.29929074  0.30022379  0.09705233  1
  Sc  Sc86  1  0.30236402  0.89929172  0.89479291  1
  Sc  Sc87  1  0.09018047  0.30529706  0.50583810  1
  Sc  Sc88  1  0.48477028  0.69630546  0.89821611  1
  Sc  Sc89  1  0.30487165  0.69632340  0.10421457  1
  Sc  Sc90  1  0.49636602  0.90738293  0.90116038  1
  Sc  Sc91  1  0.30331539  0.30965111  0.49446273  1
  Sc  Sc92  1  0.09183323  0.08807356  0.29532354  1
  Sc  Sc93  1  0.90110490  0.70449279  0.10087922  1
  Sc  Sc94  1  0.10803455  0.29878747  0.89975822  1
  Sc  Sc95  1  0.30195458  0.50520131  0.48814487  1
  Sc  Sc96  1  0.69451034  0.89489039  0.50462486  1
  Sc  Sc97  1  0.49327944  0.70204804  0.11095870  1
  Sc  Sc98  1  0.10133787  0.90373935  0.89421666  1
  Sc  Sc99  1  0.50930218  0.09450949  0.89675623  1
  Nb  Nb100  1  0.69828219  0.50300374  0.10479280  1
  Nb  Nb101  1  0.69472114  0.09346951  0.70096341  1
  Nb  Nb102  1  0.50244771  0.29373872  0.29808460  1
  Nb  Nb103  1  0.69675136  0.09958232  0.30365733  1
  Nb  Nb104  1  0.49798862  0.49603837  0.49919948  1
  Nb  Nb105  1  0.89871958  0.90293775  0.50164377  1
  Nb  Nb106  1  0.29816232  0.89569150  0.69650556  1
  Nb  Nb107  1  0.90197005  0.70371104  0.50552099  1
  Nb  Nb108  1  0.69580981  0.49724016  0.29684071  1
  Nb  Nb109  1  0.50620327  0.29993646  0.90007294  1
  Nb  Nb110  1  0.49858545  0.89814369  0.49358461  1
  Nb  Nb111  1  0.29876704  0.29812910  0.69965312  1
  Nb  Nb112  1  0.89799071  0.10178087  0.69781396  1
  Nb  Nb113  1  0.50072453  0.10395735  0.29684445  1
  Nb  Nb114  1  0.50366256  0.89962711  0.09667314  1
  Nb  Nb115  1  0.69756727  0.29292448  0.30196934  1
  Nb  Nb116  1  0.69103693  0.30202320  0.90049926  1
  Nb  Nb117  1  0.90128060  0.09826366  0.50029187  1
  Nb  Nb118  1  0.10218803  0.70170652  0.90506375  1
  Nb  Nb119  1  0.89719040  0.29687115  0.30171544  1
  Nb  Nb120  1  0.10088543  0.70246134  0.30454825  1
  Nb  Nb121  1  0.50681009  0.09822830  0.69573170  1
  Nb  Nb122  1  0.30095303  0.29999038  0.30084713  1
  Nb  Nb123  1  0.50218494  0.49430264  0.69204390  1
  Nb  Nb124  1  0.50270540  0.29782864  0.49891954  1
  Nb  Nb125  1  0.20037487  0.19975086  0.39676287  1
  Nb  Nb126  1  0.19955209  0.79253689  -0.00323796  1
  Nb  Nb127  1  0.20536222  0.20541892  0.59778681  1
  Nb  Nb128  1  0.80380033  0.00376252  0.60101729  1
  Nb  Nb129  1  0.80702872  0.79676026  0.40491673  1
  Nb  Nb130  1  -0.00713874  0.00252627  0.60035720  1
  Nb  Nb131  1  0.59443220  0.00514497  0.39470904  1
  Nb  Nb132  1  0.59636372  0.79453307  -0.00347771  1
  Nb  Nb133  1  0.40566619  0.39968058  0.59896709  1
  Nb  Nb134  1  0.59640540  0.00466335  0.20420126  1
  Nb  Nb135  1  0.79402240  0.59573376  0.00367046  1
  Nb  Nb136  1  0.40206657  0.20333010  0.39412734  1
  Nb  Nb137  1  0.79222706  0.39758077  0.80183857  1
  Nb  Nb138  1  0.19934657  0.60011823  0.60048246  1
  Nb  Nb139  1  0.40260859  0.39301999  0.21142665  1
  Nb  Nb140  1  0.60441920  0.60282957  0.00260185  1
  Nb  Nb141  1  0.40763870  0.20440489  -0.00586218  1
  Nb  Nb142  1  0.59598904  0.39367123  0.39394703  1
  Nb  Nb143  1  0.59798197  0.80039609  0.80355136  1
  Nb  Nb144  1  0.80203800  0.60338729  0.40314045  1
  Nb  Nb145  1  -0.00363831  0.19487669  0.79799518  1
  Nb  Nb146  1  -0.00457203  0.19839523  0.39888145  1
  Nb  Nb147  1  0.20112430  0.20087622  0.20790699  1
  Nb  Nb148  1  0.80294612  0.60303984  0.59531147  1
  Nb  Nb149  1  -0.00503755  0.60869691  0.39929772  1
  Pd  Pd150  1  0.40780741  0.80506781  0.79161066  1
  Pd  Pd151  1  0.20113723  0.60491523  0.00556253  1
  Pd  Pd152  1  -0.00609397  0.60016476  0.00893043  1
  Pd  Pd153  1  0.59816388  0.60666306  0.19750027  1
  Pd  Pd154  1  0.01176021  0.80963730  0.00558259  1
  Pd  Pd155  1  0.79745417  0.00640725  0.00547118  1
  Pd  Pd156  1  0.00191151  0.00258455  0.79423181  1
  Pd  Pd157  1  0.20125519  0.60239369  0.20331980  1
  Pd  Pd158  1  0.59399422  0.40663236  0.00867666  1
  Pd  Pd159  1  0.00918759  0.60803808  0.79272259  1
  Pd  Pd160  1  0.00017053  0.40267458  0.20173284  1
  Pd  Pd161  1  0.61066358  0.19455037  0.19714230  1
  Pd  Pd162  1  0.60613870  0.00325981  0.58991477  1
  Pd  Pd163  1  0.79612553  0.60302160  0.20470576  1
  Pd  Pd164  1  0.00069537  0.59201403  0.20542434  1
  Pd  Pd165  1  0.80426176  0.59466467  0.79647205  1
  Pd  Pd166  1  0.39807193  0.80091043  0.00322657  1
  Pd  Pd167  1  0.80332232  0.19995256  0.40015691  1
  Pd  Pd168  1  0.79472800  -0.00083196  0.79668825  1
  Pd  Pd169  1  0.40561087  0.80449801  0.59999544  1
  Pd  Pd170  1  0.19069305  0.39392732  0.40403155  1
  Pd  Pd171  1  0.79836178  0.40069738  -0.00137942  1
  Pd  Pd172  1  0.40032928  0.00198890  0.79481236  1
  Pd  Pd173  1  0.79201852  0.00682475  0.19138508  1
  Pd  Pd174  1  0.40865617  0.59636058  0.00571385  1
  Pd  Pd175  1  0.20391976  0.00577120  0.60700611  1
  Pd  Pd176  1  -0.00086425  0.39121388  -0.00082865  1
  Pd  Pd177  1  0.00280625  0.60061137  0.60033769  1
  Pd  Pd178  1  0.58825918  0.60888563  0.80353749  1
  Pd  Pd179  1  0.00290213  -0.00655745  0.00614487  1
  Pd  Pd180  1  0.79199724  0.19477736  0.60233424  1
  Pd  Pd181  1  0.19224461  0.59987462  0.79031563  1
  Pd  Pd182  1  0.79106379  0.40628592  0.60992024  1
  Pd  Pd183  1  0.79072675  0.79320665  -0.00202127  1
  Pd  Pd184  1  0.20471118  0.00594633  0.39461025  1
  Pd  Pd185  1  0.79175532  0.38964518  0.20360464  1
  Pd  Pd186  1  0.60512412  0.60103118  0.59176897  1
  Pd  Pd187  1  0.39137925  0.59222642  0.59927705  1
  Pd  Pd188  1  0.39648511  0.00568255  -0.00192214  1
  Pd  Pd189  1  0.79917975  0.20555086  0.79231969  1
  Pd  Pd190  1  0.20449059  0.39425590  -0.00606434  1
  Pd  Pd191  1  0.21030503  0.79701716  0.40471341  1
  Pd  Pd192  1  -0.00094062  0.20575785  -0.00919882  1
  Pd  Pd193  1  -0.00574731  0.80225020  0.39920406  1
  Pd  Pd194  1  0.40846584  0.39586958  0.01006669  1
  Pd  Pd195  1  0.59832609  0.19684724  0.80030228  1
  Pd  Pd196  1  0.00105763  -0.00422413  0.19232029  1
  Pd  Pd197  1  0.00054718  0.81227926  0.19842300  1
  Pd  Pd198  1  0.20735224  0.40375197  0.59249819  1
  Pd  Pd199  1  0.21002781  0.00113437  0.79459095  1
  Rh  Rh200  1  0.59318163  0.19821267  0.40241225  1
  Rh  Rh201  1  0.41021754  0.19164029  0.80745412  1
  Rh  Rh202  1  0.00644486  0.79993960  0.80328401  1
  Rh  Rh203  1  0.20127052  0.80233960  0.80752544  1
  Rh  Rh204  1  0.60139219  0.39803951  0.20637937  1
  Rh  Rh205  1  0.39693087  0.80214509  0.19850778  1
  Rh  Rh206  1  0.39680339  0.59062249  0.20809123  1
  Rh  Rh207  1  0.40663643  -0.00562276  0.19101264  1
  Rh  Rh208  1  0.60168564  0.81066807  0.39755181  1
  Rh  Rh209  1  0.39022646  0.20992664  0.58776996  1
  Rh  Rh210  1  0.00633336  0.20035397  0.21187177  1
  Rh  Rh211  1  0.40093751  0.60507513  0.39947973  1
  Rh  Rh212  1  0.20463270  0.79419773  0.19504250  1
  Rh  Rh213  1  0.80321418  0.79967246  0.59375034  1
  Rh  Rh214  1  0.60481361  0.19295114  0.59909729  1
  Rh  Rh215  1  0.78682029  0.40093969  0.39219980  1
  Rh  Rh216  1  0.20743923  0.79657577  0.59888588  1
  Rh  Rh217  1  0.39846242  -0.00813575  0.60391688  1
  Rh  Rh218  1  0.60291322  -0.00520385  0.00803650  1
  Rh  Rh219  1  0.59492907  0.80775681  0.19552971  1
  Rh  Rh220  1  0.00657081  0.19592177  0.59892211  1
  Rh  Rh221  1  0.00081423  0.00326078  0.40506493  1
  Rh  Rh222  1  0.60182367  -0.00330844  0.79914773  1
  Rh  Rh223  1  0.00122111  0.81130375  0.60402101  1
  Rh  Rh224  1  0.00111143  0.39900337  0.39830402  1
  Rh  Rh225  1  0.20230009  0.00644477  0.20429256  1
  Rh  Rh226  1  0.58697752  0.79821540  0.60628168  1
  Rh  Rh227  1  0.60577120  0.59037298  0.40279722  1
  Rh  Rh228  1  0.59293972  0.39590277  0.59589307  1
  Rh  Rh229  1  0.18983733  0.60812161  0.40793237  1
  Rh  Rh230  1  0.39109008  0.20661373  0.19520644  1
  Rh  Rh231  1  0.20427357  -0.01215634  -0.00585896  1
  Rh  Rh232  1  0.21183981  0.20390402  0.00355823  1
  Rh  Rh233  1  0.41018349  0.39369935  0.40066328  1
  Rh  Rh234  1  -0.00866326  0.38658632  0.80227142  1
  Rh  Rh235  1  0.79684647  0.20236895  0.00120527  1
  Rh  Rh236  1  0.59714370  0.20081883  -0.00481251  1
  Rh  Rh237  1  0.40732023  0.00417135  0.40565719  1
  Rh  Rh238  1  0.79440747  0.80677610  0.80790679  1
  Rh  Rh239  1  0.40197949  0.59459649  0.79239389  1
  Rh  Rh240  1  0.39748122  0.79910979  0.39981854  1
  Rh  Rh241  1  0.20071034  0.40340159  0.80853176  1
  Rh  Rh242  1  0.59830633  0.38948768  0.79076568  1
  Rh  Rh243  1  0.80276645  0.80347328  0.20980922  1
  Rh  Rh244  1  0.20487083  0.39494233  0.20028055  1
  Rh  Rh245  1  0.19766866  0.19938428  0.79247928  1
  Rh  Rh246  1  0.40912018  0.39753831  0.78846013  1
  Rh  Rh247  1  0.00015960  0.40159866  0.60103088  1
  Rh  Rh248  1  0.78905680  -0.00751008  0.41177195  1
  Rh  Rh249  1  0.79407241  0.20205513  0.19998995  1
