# generated using pymatgen
data_ZrScNbPdRh
_symmetry_space_group_name_H-M   'P 1'
_cell_length_a   16.55905668
_cell_length_b   16.56600514
_cell_length_c   16.56150340
_cell_angle_alpha   90.00627603
_cell_angle_beta   89.97519142
_cell_angle_gamma   90.00134280
_symmetry_Int_Tables_number   1
_chemical_formula_structural   ZrScNbPdRh
_chemical_formula_sum   'Zr50 Sc50 Nb50 Pd50 Rh50'
_cell_volume   4543.10839859
_cell_formula_units_Z   50
loop_
 _symmetry_equiv_pos_site_id
 _symmetry_equiv_pos_as_xyz
  1  'x, y, z'
loop_
 _atom_site_type_symbol
 _atom_site_label
 _atom_site_symmetry_multiplicity
 _atom_site_fract_x
 _atom_site_fract_y
 _atom_site_fract_z
 _atom_site_occupancy
  Zr  Zr0  1  0.09228983  0.28739866  0.09208602  1
  Zr  Zr1  1  0.50032648  0.69779790  0.91230401  1
  Zr  Zr2  1  0.50295097  0.89830605  0.48963317  1
  Zr  Zr3  1  0.29929473  0.69729257  0.90500078  1
  Zr  Zr4  1  0.31292895  0.50517500  0.50249821  1
  Zr  Zr5  1  0.50150962  0.10059152  0.09694137  1
  Zr  Zr6  1  0.10058805  0.69669701  0.70105639  1
  Zr  Zr7  1  0.30142974  0.09590845  0.29894098  1
  Zr  Zr8  1  0.10398395  0.09931507  0.70857757  1
  Zr  Zr9  1  0.90552713  0.48918996  0.29326586  1
  Zr  Zr10  1  0.29839712  0.30265344  0.29819853  1
  Zr  Zr11  1  0.90225886  0.29532572  0.29263261  1
  Zr  Zr12  1  0.50560629  0.08982148  0.29467648  1
  Zr  Zr13  1  0.48488627  0.69852502  0.50512613  1
  Zr  Zr14  1  0.69945061  0.29644645  0.88628287  1
  Zr  Zr15  1  0.89644951  0.10460360  0.49209104  1
  Zr  Zr16  1  0.29826597  0.90229237  0.30204781  1
  Zr  Zr17  1  0.69638159  0.29652254  0.49351089  1
  Zr  Zr18  1  0.29549547  0.49879019  0.10301973  1
  Zr  Zr19  1  0.09811687  0.89757394  0.49672690  1
  Zr  Zr20  1  0.70342314  0.49029653  0.09759217  1
  Zr  Zr21  1  0.30837917  0.49287433  0.30088014  1
  Zr  Zr22  1  0.89745712  0.70387386  0.10285153  1
  Zr  Zr23  1  0.70055189  0.69851852  0.70652225  1
  Zr  Zr24  1  0.29817453  0.70823008  0.69522023  1
  Zr  Zr25  1  0.29672009  0.69749074  0.09571933  1
  Zr  Zr26  1  0.69565007  0.29423101  0.09543006  1
  Zr  Zr27  1  0.90187293  0.49988653  0.90745712  1
  Zr  Zr28  1  0.70248712  0.50909710  0.70523517  1
  Zr  Zr29  1  0.90554956  0.50103291  0.70600315  1
  Zr  Zr30  1  0.90025336  0.90305583  0.90924767  1
  Zr  Zr31  1  0.10287671  0.29474735  0.50211824  1
  Zr  Zr32  1  0.09339382  0.89820976  0.09246721  1
  Zr  Zr33  1  0.29454194  0.90561404  0.70803099  1
  Zr  Zr34  1  0.30069377  0.89466008  0.09710078  1
  Zr  Zr35  1  0.10166101  0.11222433  0.90620474  1
  Zr  Zr36  1  0.90175543  0.69735819  0.29986893  1
  Zr  Zr37  1  0.70117106  0.89679304  0.50132240  1
  Zr  Zr38  1  0.49811861  0.30611627  0.28840970  1
  Zr  Zr39  1  0.49298632  0.90453921  0.90738116  1
  Zr  Zr40  1  0.09676171  0.91250551  0.89428196  1
  Zr  Zr41  1  0.50276849  0.50948021  0.49093080  1
  Zr  Zr42  1  0.69553709  0.10533865  0.48463939  1
  Zr  Zr43  1  0.69810384  0.89260317  0.69912982  1
  Zr  Zr44  1  0.69833440  0.30182603  0.29732155  1
  Zr  Zr45  1  0.10657321  0.30213479  0.89375008  1
  Zr  Zr46  1  0.29284530  0.69567788  0.29193745  1
  Zr  Zr47  1  0.90736823  0.11582582  0.09858481  1
  Zr  Zr48  1  0.50232670  0.10184518  0.49799360  1
  Zr  Zr49  1  0.09530204  0.49897552  0.89386044  1
  Sc  Sc50  1  0.89928217  0.89997293  0.30838245  1
  Sc  Sc51  1  0.90878489  0.10619563  0.70279576  1
  Sc  Sc52  1  0.50070376  0.29577226  0.90048169  1
  Sc  Sc53  1  0.70558934  0.89463669  0.09983477  1
  Sc  Sc54  1  0.90438384  0.49945724  0.50309001  1
  Sc  Sc55  1  0.91092691  0.69338034  0.50253947  1
  Sc  Sc56  1  0.09407494  0.49129576  0.50513158  1
  Sc  Sc57  1  0.89399277  0.90107882  0.09251658  1
  Sc  Sc58  1  0.30176304  0.09914985  0.69853763  1
  Sc  Sc59  1  0.69477835  0.70256406  0.09581666  1
  Sc  Sc60  1  0.89837104  0.68894462  0.69258605  1
  Sc  Sc61  1  0.70313040  0.10670649  0.91055697  1
  Sc  Sc62  1  0.10485981  0.90495861  0.69605090  1
  Sc  Sc63  1  0.50102992  0.90670485  0.09561890  1
  Sc  Sc64  1  0.69123047  0.89853604  0.30052748  1
  Sc  Sc65  1  0.29707060  0.30047264  0.90136486  1
  Sc  Sc66  1  0.69896478  0.70487851  0.28463133  1
  Sc  Sc67  1  0.50311451  0.69969327  0.70606596  1
  Sc  Sc68  1  0.10024047  0.49815266  0.70716455  1
  Sc  Sc69  1  0.49157610  0.90131839  0.69610700  1
  Sc  Sc70  1  0.69865227  0.69280994  0.51723767  1
  Sc  Sc71  1  0.09858772  0.30401980  0.30396599  1
  Sc  Sc72  1  0.09991725  0.69207902  0.90246502  1
  Sc  Sc73  1  0.29526759  0.30678151  0.50267785  1
  Sc  Sc74  1  0.29642419  0.49661759  0.89700171  1
  Sc  Sc75  1  0.10390087  0.10184071  0.31530990  1
  Sc  Sc76  1  0.69898156  0.89605661  0.91148374  1
  Sc  Sc77  1  0.91041338  0.30279776  0.49721440  1
  Sc  Sc78  1  0.90227434  0.09918870  0.90132628  1
  Sc  Sc79  1  0.10334412  0.10458404  0.50635815  1
  Sc  Sc80  1  0.09918621  0.49815090  0.28997109  1
  Sc  Sc81  1  0.30171119  0.49721208  0.70504319  1
  Sc  Sc82  1  0.90838547  0.90739396  0.69481825  1
  Sc  Sc83  1  0.49344684  0.50099749  0.70212623  1
  Sc  Sc84  1  0.49792787  0.50590227  0.90054395  1
  Sc  Sc85  1  0.69230676  0.11978589  0.71049445  1
  Sc  Sc86  1  0.09967480  0.29731446  0.69860387  1
  Sc  Sc87  1  0.49207531  0.10946178  0.69976699  1
  Sc  Sc88  1  0.30597149  0.10326101  0.89298227  1
  Sc  Sc89  1  0.50684746  0.49709643  0.09446520  1
  Sc  Sc90  1  0.10535926  0.69328365  0.10169706  1
  Sc  Sc91  1  0.30377730  0.89745874  0.50834113  1
  Sc  Sc92  1  0.09591615  0.69319407  0.29526681  1
  Sc  Sc93  1  0.90310425  0.69652326  0.91141560  1
  Sc  Sc94  1  0.69278781  0.69798854  0.90127669  1
  Sc  Sc95  1  0.50819208  0.69880645  0.30585214  1
  Sc  Sc96  1  0.30585749  0.30168769  0.09692179  1
  Sc  Sc97  1  0.50200194  0.29896555  0.09672244  1
  Sc  Sc98  1  0.50065205  0.29316835  0.50473233  1
  Sc  Sc99  1  0.90540263  0.89934924  0.49948449  1
  Nb  Nb100  1  0.10012775  0.10163129  0.09780293  1
  Nb  Nb101  1  0.09965093  0.89774872  0.30029629  1
  Nb  Nb102  1  0.88928669  0.29991870  0.70494906  1
  Nb  Nb103  1  0.50436360  0.50197291  0.29780526  1
  Nb  Nb104  1  0.70170939  0.10096928  0.10413462  1
  Nb  Nb105  1  0.69665129  0.50527832  0.90187500  1
  Nb  Nb106  1  0.69699678  0.30383140  0.70117901  1
  Nb  Nb107  1  0.69997311  0.49523470  0.49848867  1
  Nb  Nb108  1  0.29541047  0.10497479  0.49081109  1
  Nb  Nb109  1  0.30024216  0.90363748  0.90248743  1
  Nb  Nb110  1  0.51153284  0.29664480  0.69858919  1
  Nb  Nb111  1  0.89438957  0.10186787  0.29879317  1
  Nb  Nb112  1  0.49478905  0.69717755  0.09787675  1
  Nb  Nb113  1  0.49534563  0.89899415  0.29935199  1
  Nb  Nb114  1  0.29896683  0.69967881  0.49926005  1
  Nb  Nb115  1  0.90392289  0.49541341  0.10164399  1
  Nb  Nb116  1  0.08839431  0.49790992  0.10007945  1
  Nb  Nb117  1  0.89847278  0.30246407  0.89168693  1
  Nb  Nb118  1  0.50160830  0.09435454  0.89942190  1
  Nb  Nb119  1  0.70225159  0.10664271  0.29894912  1
  Nb  Nb120  1  0.29971437  0.09635196  0.10274405  1
  Nb  Nb121  1  0.89820706  0.31234671  0.10044599  1
  Nb  Nb122  1  0.10167827  0.70022220  0.50044796  1
  Nb  Nb123  1  0.30835298  0.30333844  0.70350119  1
  Nb  Nb124  1  0.69505014  0.49569816  0.30337065  1
  Nb  Nb125  1  0.20143598  0.60060003  0.40641667  1
  Nb  Nb126  1  0.79422403  0.39720591  0.60456540  1
  Nb  Nb127  1  0.60498925  0.00519518  0.60289196  1
  Nb  Nb128  1  -0.00381659  0.80026979  0.80147728  1
  Nb  Nb129  1  0.79916465  0.78922639  0.40292655  1
  Nb  Nb130  1  0.60464989  0.40039245  0.60217339  1
  Nb  Nb131  1  0.80062100  0.58658552  0.20142351  1
  Nb  Nb132  1  0.79852941  0.20608952  0.60164618  1
  Nb  Nb133  1  0.20263960  0.60352139  0.59375414  1
  Nb  Nb134  1  0.20301524  0.00543065  0.00254369  1
  Nb  Nb135  1  0.19936875  0.19288463  0.19553495  1
  Nb  Nb136  1  0.39413399  0.80347491  0.80941625  1
  Nb  Nb137  1  0.79325474  -0.00229634  0.79552596  1
  Nb  Nb138  1  -0.00070805  0.00456358  0.20319597  1
  Nb  Nb139  1  0.80651921  0.80354956  0.80027272  1
  Nb  Nb140  1  0.59987469  0.00176107  0.80022728  1
  Nb  Nb141  1  0.79157560  0.01101710  0.60349090  1
  Nb  Nb142  1  0.40439165  0.79668493  0.19954129  1
  Nb  Nb143  1  0.79378303  0.59399611  0.39503266  1
  Nb  Nb144  1  0.80190127  0.01052706  0.20322660  1
  Nb  Nb145  1  0.19241109  0.00102782  0.19560010  1
  Nb  Nb146  1  0.19658524  0.79392628  0.40214176  1
  Nb  Nb147  1  0.39676049  0.19698211  0.39660891  1
  Nb  Nb148  1  0.40708316  0.60050519  0.19928404  1
  Nb  Nb149  1  0.00203069  0.80711288  0.20106250  1
  Pd  Pd150  1  -0.00434126  0.39331921  0.60881620  1
  Pd  Pd151  1  0.79745095  0.20297254  0.19634395  1
  Pd  Pd152  1  0.60883573  0.78740544  0.40542720  1
  Pd  Pd153  1  0.00161346  0.20035685  0.39767368  1
  Pd  Pd154  1  0.58949626  0.39429815  0.40386769  1
  Pd  Pd155  1  0.60873067  0.00305168  -0.00194827  1
  Pd  Pd156  1  0.59400000  0.59440499  0.60547826  1
  Pd  Pd157  1  0.41090525  0.39737665  0.60059466  1
  Pd  Pd158  1  0.39331180  0.79418295  0.39178060  1
  Pd  Pd159  1  0.60216433  0.59472164  0.19384086  1
  Pd  Pd160  1  0.59364522  0.80741733  0.80766484  1
  Pd  Pd161  1  0.79435045  -0.00919520  0.39690827  1
  Pd  Pd162  1  0.20111823  0.40679091  0.60637105  1
  Pd  Pd163  1  0.19132562  0.38869523  0.19062272  1
  Pd  Pd164  1  0.40509956  0.39381939  0.80485265  1
  Pd  Pd165  1  0.58878949  0.80112601  0.59987215  1
  Pd  Pd166  1  0.61016034  0.60997821  0.40001288  1
  Pd  Pd167  1  -0.00136189  0.79731353  0.60740999  1
  Pd  Pd168  1  0.19488702  0.58856265  -0.00222438  1
  Pd  Pd169  1  -0.00116452  0.20530776  0.80091052  1
  Pd  Pd170  1  0.60890056  -0.00535265  0.19686503  1
  Pd  Pd171  1  0.60017404  0.39808456  -0.01094424  1
  Pd  Pd172  1  0.39054312  0.20301941  0.59364635  1
  Pd  Pd173  1  0.81301622  0.80123131  0.60033934  1
  Pd  Pd174  1  0.39822823  0.19667570  -0.00278819  1
  Pd  Pd175  1  0.79753338  0.39295795  -0.00834114  1
  Pd  Pd176  1  0.00141279  0.39369124  -0.00437510  1
  Pd  Pd177  1  0.79827555  0.40873963  0.80199655  1
  Pd  Pd178  1  0.79576398  0.60241264  0.00702894  1
  Pd  Pd179  1  0.20238795  0.00300326  0.59346226  1
  Pd  Pd180  1  0.39823331  0.00306605  0.40678707  1
  Pd  Pd181  1  0.40221538  0.40336303  -0.00286697  1
  Pd  Pd182  1  0.59292474  0.40788070  0.79926871  1
  Pd  Pd183  1  0.40225595  0.00284871  0.59497301  1
  Pd  Pd184  1  0.80503284  0.20704386  -0.00335435  1
  Pd  Pd185  1  0.39672768  0.60805717  0.79911912  1
  Pd  Pd186  1  0.19570617  0.40978333  0.40410488  1
  Pd  Pd187  1  0.58967941  0.80670493  0.19244924  1
  Pd  Pd188  1  0.39729001  0.19923831  0.20061658  1
  Pd  Pd189  1  0.80665342  0.60831807  0.81107620  1
  Pd  Pd190  1  0.00137164  0.00495311  0.39885174  1
  Pd  Pd191  1  0.00406944  0.59071964  0.40077948  1
  Pd  Pd192  1  0.40925014  0.38962698  0.40596664  1
  Pd  Pd193  1  0.40153066  0.20573832  0.80109097  1
  Pd  Pd194  1  0.19515196  0.79957495  0.80882440  1
  Pd  Pd195  1  -0.00264483  0.01006928  0.59655222  1
  Pd  Pd196  1  0.80806185  0.40021787  0.40457022  1
  Pd  Pd197  1  0.20776026  0.20172762  0.60778613  1
  Pd  Pd198  1  0.19073486  0.80455887  -0.00982762  1
  Pd  Pd199  1  0.19511731  0.40199341  0.00370009  1
  Rh  Rh200  1  0.40566770  -0.00352763  0.80049321  1
  Rh  Rh201  1  0.20198560  0.58764309  0.20302689  1
  Rh  Rh202  1  0.01137984  0.59560861  0.60179411  1
  Rh  Rh203  1  0.79474799  0.79240170  -0.00855885  1
  Rh  Rh204  1  0.00122937  0.00918928  0.00337042  1
  Rh  Rh205  1  0.59694276  0.59636926  0.80416716  1
  Rh  Rh206  1  0.20633427  0.20553023  0.39601627  1
  Rh  Rh207  1  0.20204421  0.00858680  0.80815802  1
  Rh  Rh208  1  0.40856811  0.41035218  0.18967402  1
  Rh  Rh209  1  0.80585900  0.21097884  0.40039230  1
  Rh  Rh210  1  0.59638040  0.79965662  0.00571750  1
  Rh  Rh211  1  0.81063922  0.80735109  0.20962988  1
  Rh  Rh212  1  0.00475617  0.79008659  0.00143175  1
  Rh  Rh213  1  0.60295396  -0.00263193  0.39791375  1
  Rh  Rh214  1  0.21226278  0.19545650  0.00498771  1
  Rh  Rh215  1  0.59976048  0.19919559  0.19950508  1
  Rh  Rh216  1  0.19710698  0.80696517  0.20710136  1
  Rh  Rh217  1  0.20318036  0.39473436  0.79351475  1
  Rh  Rh218  1  0.00237152  0.59850956  0.00706069  1
  Rh  Rh219  1  0.59878382  0.19722865  -0.00129220  1
  Rh  Rh220  1  0.40158186  0.79959428  0.00096201  1
  Rh  Rh221  1  0.00338474  0.40059185  0.39722154  1
  Rh  Rh222  1  0.39599187  0.60208952  0.61039897  1
  Rh  Rh223  1  0.20321359  0.59698131  0.79411488  1
  Rh  Rh224  1  0.19871018  -0.00876459  0.40441802  1
  Rh  Rh225  1  0.79897977  0.00668458  0.00753180  1
  Rh  Rh226  1  0.60350149  0.59713460  0.00312349  1
  Rh  Rh227  1  0.59061076  0.19416542  0.80911060  1
  Rh  Rh228  1  0.80585093  0.19231041  0.79930352  1
  Rh  Rh229  1  -0.01094363  0.21112595  -0.01204979  1
  Rh  Rh230  1  0.60072934  0.40019715  0.19640511  1
  Rh  Rh231  1  0.00139508  0.79647832  0.39509045  1
  Rh  Rh232  1  0.00743454  0.39058878  0.19479019  1
  Rh  Rh233  1  0.39750673  0.60527260  0.38675514  1
  Rh  Rh234  1  0.00934692  0.19557481  0.21038907  1
  Rh  Rh235  1  0.40105593  0.80234106  0.60702995  1
  Rh  Rh236  1  0.39873384  -0.01081768  0.19478076  1
  Rh  Rh237  1  0.20941354  0.20460810  0.79167526  1
  Rh  Rh238  1  0.80236894  0.58801591  0.59060958  1
  Rh  Rh239  1  -0.00607349  -0.00296101  0.79912815  1
  Rh  Rh240  1  -0.00442425  0.60629246  0.80276074  1
  Rh  Rh241  1  -0.00585861  0.20260080  0.60230002  1
  Rh  Rh242  1  0.39235740  0.00781557  0.00122052  1
  Rh  Rh243  1  0.19829000  0.80017279  0.59285302  1
  Rh  Rh244  1  -0.00509648  0.60496491  0.19128778  1
  Rh  Rh245  1  0.39680837  0.58999900  0.00728063  1
  Rh  Rh246  1  -0.00128223  0.39390609  0.79883580  1
  Rh  Rh247  1  0.58568072  0.20453762  0.38350319  1
  Rh  Rh248  1  0.60644832  0.20060480  0.60056618  1
  Rh  Rh249  1  0.79545523  0.39888376  0.19941662  1
