# generated using pymatgen
data_ZrScNbPdRh
_symmetry_space_group_name_H-M   'P 1'
_cell_length_a   16.55790066
_cell_length_b   16.56281261
_cell_length_c   16.55739382
_cell_angle_alpha   90.01690492
_cell_angle_beta   90.03042688
_cell_angle_gamma   90.01019584
_symmetry_Int_Tables_number   1
_chemical_formula_structural   ZrScNbPdRh
_chemical_formula_sum   'Zr50 Sc50 Nb50 Pd50 Rh50'
_cell_volume   4540.78827537
_cell_formula_units_Z   50
loop_
 _symmetry_equiv_pos_site_id
 _symmetry_equiv_pos_as_xyz
  1  'x, y, z'
loop_
 _atom_site_type_symbol
 _atom_site_label
 _atom_site_symmetry_multiplicity
 _atom_site_fract_x
 _atom_site_fract_y
 _atom_site_fract_z
 _atom_site_occupancy
  Zr  Zr0  1  0.30249486  0.70187338  0.10300056  1
  Zr  Zr1  1  0.09600302  0.69930128  0.70445109  1
  Zr  Zr2  1  0.10546262  0.50537303  0.70313423  1
  Zr  Zr3  1  0.09393379  0.10157610  0.69896343  1
  Zr  Zr4  1  0.09665149  0.29908515  0.70178712  1
  Zr  Zr5  1  0.89870294  0.30076803  0.49972504  1
  Zr  Zr6  1  0.50430851  0.71463402  0.29722913  1
  Zr  Zr7  1  0.29735841  0.10122402  0.90122885  1
  Zr  Zr8  1  0.89594781  0.10387373  0.88920027  1
  Zr  Zr9  1  0.09867570  0.90598816  0.50030256  1
  Zr  Zr10  1  0.10234755  0.68878637  0.49691243  1
  Zr  Zr11  1  0.70282492  0.10076520  0.90119857  1
  Zr  Zr12  1  0.50413910  0.89875164  0.90453075  1
  Zr  Zr13  1  0.50952196  0.70209169  0.09993148  1
  Zr  Zr14  1  0.89629872  0.90383353  0.49578249  1
  Zr  Zr15  1  0.10371802  0.69135691  0.88951000  1
  Zr  Zr16  1  0.70733458  0.29662403  0.50008821  1
  Zr  Zr17  1  0.50145224  0.30556267  0.70103809  1
  Zr  Zr18  1  0.50832805  0.10358926  0.69914077  1
  Zr  Zr19  1  0.70146851  0.69887270  0.89970347  1
  Zr  Zr20  1  0.69474218  0.29760358  0.29723167  1
  Zr  Zr21  1  0.89782934  0.69588564  0.89952399  1
  Zr  Zr22  1  0.29968555  0.48952316  0.30397104  1
  Zr  Zr23  1  0.69859208  0.09941944  0.09862430  1
  Zr  Zr24  1  0.30192072  0.70231767  0.49349865  1
  Zr  Zr25  1  0.29857074  0.89930411  0.70668708  1
  Zr  Zr26  1  0.90062971  0.71003597  0.10490976  1
  Zr  Zr27  1  0.69349483  0.49604953  0.09471056  1
  Zr  Zr28  1  0.09688869  0.89951801  0.69975752  1
  Zr  Zr29  1  0.10423657  0.50572328  0.30203350  1
  Zr  Zr30  1  0.70089602  0.69902589  0.51216930  1
  Zr  Zr31  1  0.30448494  0.10210436  0.29859166  1
  Zr  Zr32  1  0.29646651  0.09549040  0.49339679  1
  Zr  Zr33  1  0.70453835  0.09957949  0.70109183  1
  Zr  Zr34  1  0.49878513  0.48898635  0.29237011  1
  Zr  Zr35  1  0.29200651  0.69542270  0.70942435  1
  Zr  Zr36  1  0.31026956  0.30351925  0.29518497  1
  Zr  Zr37  1  0.08252554  0.90165790  0.09874527  1
  Zr  Zr38  1  0.30364565  0.89912310  0.30469403  1
  Zr  Zr39  1  0.69998298  0.49914136  0.70334469  1
  Zr  Zr40  1  0.29755023  0.10200185  0.09660247  1
  Zr  Zr41  1  0.50955542  0.70330596  0.89783931  1
  Zr  Zr42  1  0.90203632  0.29955410  0.69354595  1
  Zr  Zr43  1  0.50126822  0.89631310  0.10685575  1
  Zr  Zr44  1  0.09285281  0.69768198  0.29948681  1
  Zr  Zr45  1  0.70756890  0.90579418  0.90273274  1
  Zr  Zr46  1  0.49087231  0.89490564  0.49054611  1
  Zr  Zr47  1  0.88632617  0.49535255  0.09137673  1
  Zr  Zr48  1  0.70197296  0.70071334  0.29482637  1
  Zr  Zr49  1  0.30666021  0.49007942  0.69927331  1
  Sc  Sc50  1  0.50643450  0.10276995  0.89510375  1
  Sc  Sc51  1  0.49919816  0.48932782  0.50917356  1
  Sc  Sc52  1  0.09959513  0.89964191  0.30339593  1
  Sc  Sc53  1  0.51284376  0.48792580  0.89907664  1
  Sc  Sc54  1  0.09078338  0.89552140  0.89852192  1
  Sc  Sc55  1  0.69404317  0.10110824  0.30071314  1
  Sc  Sc56  1  0.30243267  0.30795707  0.49616675  1
  Sc  Sc57  1  0.90007777  0.89886685  0.70162784  1
  Sc  Sc58  1  0.50363889  0.30872773  0.10024214  1
  Sc  Sc59  1  0.09739012  0.09470563  0.49630280  1
  Sc  Sc60  1  0.51138093  0.49144263  0.70257524  1
  Sc  Sc61  1  0.70632645  0.49425073  0.28289005  1
  Sc  Sc62  1  0.29784793  0.70084627  0.89890969  1
  Sc  Sc63  1  0.70507271  0.90483757  0.30008878  1
  Sc  Sc64  1  0.29113610  0.10470967  0.69772629  1
  Sc  Sc65  1  0.28837307  0.70388856  0.30051574  1
  Sc  Sc66  1  0.69595560  0.29682877  0.90565377  1
  Sc  Sc67  1  0.09246431  0.30334914  0.50079845  1
  Sc  Sc68  1  0.09870016  0.69694911  0.10967258  1
  Sc  Sc69  1  0.29745185  0.30143117  0.70918994  1
  Sc  Sc70  1  0.89469415  0.89520042  0.90462739  1
  Sc  Sc71  1  0.90775991  0.09247470  0.10931201  1
  Sc  Sc72  1  0.09307402  0.30406596  0.30031499  1
  Sc  Sc73  1  0.50086494  0.29554710  0.49475745  1
  Sc  Sc74  1  0.29357276  0.48764449  0.10044639  1
  Sc  Sc75  1  0.90604649  0.09855366  0.30170277  1
  Sc  Sc76  1  0.89435609  0.69887659  0.51145614  1
  Sc  Sc77  1  0.50081280  0.30227553  0.89477494  1
  Sc  Sc78  1  0.51138875  0.70339432  0.50174692  1
  Sc  Sc79  1  0.30670378  0.90126633  0.90354383  1
  Sc  Sc80  1  0.90263910  0.29750516  0.30354042  1
  Sc  Sc81  1  0.89842902  0.10047830  0.49335829  1
  Sc  Sc82  1  0.50040328  0.10374083  0.10890341  1
  Sc  Sc83  1  0.29811303  0.48988412  0.90189053  1
  Sc  Sc84  1  0.49652438  0.11356191  0.30065948  1
  Sc  Sc85  1  0.90064692  0.50134400  0.30035825  1
  Sc  Sc86  1  0.89363234  0.30141449  0.90064610  1
  Sc  Sc87  1  0.30709524  0.90357498  0.09900435  1
  Sc  Sc88  1  0.70663081  0.90242964  0.50647147  1
  Sc  Sc89  1  0.89898918  0.69805691  0.70076789  1
  Sc  Sc90  1  0.29649430  0.49496675  0.49786150  1
  Sc  Sc91  1  0.70082838  0.10101236  0.50403787  1
  Sc  Sc92  1  0.09831803  0.10088230  0.90075440  1
  Sc  Sc93  1  0.89519766  0.90638877  0.29627706  1
  Sc  Sc94  1  0.29270790  0.90381497  0.49068150  1
  Sc  Sc95  1  0.89913551  0.30093877  0.09863330  1
  Sc  Sc96  1  0.70485336  0.49720599  0.51251628  1
  Sc  Sc97  1  0.10401796  0.30794748  0.09616492  1
  Sc  Sc98  1  0.50583415  0.90000166  0.71000894  1
  Sc  Sc99  1  0.90001769  0.49265060  0.51125352  1
  Nb  Nb100  1  0.09603035  0.10202363  0.10372856  1
  Nb  Nb101  1  0.68767105  0.69639532  0.69443577  1
  Nb  Nb102  1  0.71274363  0.50016777  0.90166698  1
  Nb  Nb103  1  0.49638271  0.09836240  0.49742169  1
  Nb  Nb104  1  0.90047808  0.49702044  0.70634594  1
  Nb  Nb105  1  0.49998798  0.29726449  0.30054333  1
  Nb  Nb106  1  0.10330138  0.49734076  0.49738675  1
  Nb  Nb107  1  0.69507250  0.29990975  0.69390345  1
  Nb  Nb108  1  0.29744760  0.30217330  0.90467679  1
  Nb  Nb109  1  0.29953839  0.30196247  0.09703142  1
  Nb  Nb110  1  0.09192882  0.10554925  0.29284708  1
  Nb  Nb111  1  0.50727789  0.69385877  0.70161688  1
  Nb  Nb112  1  0.70351036  0.30153000  0.10383178  1
  Nb  Nb113  1  0.89349214  0.90354629  0.09944220  1
  Nb  Nb114  1  0.70729403  0.89988417  0.69867920  1
  Nb  Nb115  1  0.49749248  0.49975272  0.09557015  1
  Nb  Nb116  1  0.70270586  0.69794467  0.09841603  1
  Nb  Nb117  1  0.89212477  0.50179910  0.89766466  1
  Nb  Nb118  1  0.09849500  0.49972302  0.09720289  1
  Nb  Nb119  1  0.10162228  0.30613378  0.89780320  1
  Nb  Nb120  1  0.89942110  0.70175633  0.30380697  1
  Nb  Nb121  1  0.49998718  0.90087069  0.30158904  1
  Nb  Nb122  1  0.90238701  0.10856073  0.70696082  1
  Nb  Nb123  1  0.71771923  0.90923053  0.09616743  1
  Nb  Nb124  1  0.09709920  0.49741821  0.90408570  1
  Nb  Nb125  1  0.20068827  0.79740612  0.60080282  1
  Nb  Nb126  1  0.19342502  0.00772012  0.19751745  1
  Nb  Nb127  1  0.19583438  0.79818374  0.00223983  1
  Nb  Nb128  1  -0.00094278  0.59082291  -0.00206554  1
  Nb  Nb129  1  0.00448317  0.20114233  0.00033249  1
  Nb  Nb130  1  0.39303276  0.20661959  -0.00109927  1
  Nb  Nb131  1  0.60315990  0.59249757  0.39686104  1
  Nb  Nb132  1  0.60271585  0.39895927  0.39550921  1
  Nb  Nb133  1  0.40323585  0.59773033  0.19798794  1
  Nb  Nb134  1  0.40898241  0.59950538  0.39689541  1
  Nb  Nb135  1  -0.00206371  0.40740286  0.80533794  1
  Nb  Nb136  1  0.19837644  0.19911589  0.39068299  1
  Nb  Nb137  1  0.40155781  0.19441832  0.59810291  1
  Nb  Nb138  1  0.40409935  0.60624519  0.60437860  1
  Nb  Nb139  1  0.40625777  0.59571297  0.00130867  1
  Nb  Nb140  1  0.39741576  0.79780685  0.60566309  1
  Nb  Nb141  1  -0.00594694  0.79447129  0.40021663  1
  Nb  Nb142  1  0.19671665  0.00057326  0.80119698  1
  Nb  Nb143  1  0.40161297  0.00042982  0.59938734  1
  Nb  Nb144  1  0.79666842  0.20099854  0.19731021  1
  Nb  Nb145  1  0.79544948  0.60331599  0.39896024  1
  Nb  Nb146  1  0.59085726  -0.00045260  0.40198614  1
  Nb  Nb147  1  0.00220713  0.40925284  0.19272125  1
  Nb  Nb148  1  0.19749683  0.20003378  0.19823758  1
  Nb  Nb149  1  0.40809558  0.59794460  0.80130725  1
  Pd  Pd150  1  0.19669325  0.39397557  0.59745168  1
  Pd  Pd151  1  0.61413059  0.80578961  0.40226138  1
  Pd  Pd152  1  0.58916974  0.20451101  0.00411156  1
  Pd  Pd153  1  0.20486308  0.20809857  0.58765176  1
  Pd  Pd154  1  0.59439128  -0.00791789  0.59332974  1
  Pd  Pd155  1  0.41251725  0.01025966  0.00002331  1
  Pd  Pd156  1  0.40401568  0.79251482  0.79924361  1
  Pd  Pd157  1  -0.00046787  0.40585210  0.39613506  1
  Pd  Pd158  1  0.39571991  0.00900734  0.79509848  1
  Pd  Pd159  1  0.59617979  0.59711965  0.20358122  1
  Pd  Pd160  1  0.00243593  0.79827825  0.59353219  1
  Pd  Pd161  1  0.59454480  0.81185905  0.60371338  1
  Pd  Pd162  1  0.79217639  0.21109707  0.79487827  1
  Pd  Pd163  1  0.20198612  0.60125949  -0.00108858  1
  Pd  Pd164  1  0.60025180  -0.00172351  0.20777685  1
  Pd  Pd165  1  -0.01010073  0.59345520  0.19164248  1
  Pd  Pd166  1  -0.00378480  0.59272531  0.60013576  1
  Pd  Pd167  1  0.39977721  0.00000154  0.20328390  1
  Pd  Pd168  1  0.61134501  0.80581226  0.79647731  1
  Pd  Pd169  1  -0.01112112  0.00744452  0.60092305  1
  Pd  Pd170  1  0.19322216  -0.01170089  -0.00037085  1
  Pd  Pd171  1  0.79736979  0.79630374  0.79362622  1
  Pd  Pd172  1  0.19478945  0.20633786  0.00185057  1
  Pd  Pd173  1  0.79764954  0.80547230  0.19952758  1
  Pd  Pd174  1  -0.00236383  -0.00423395  0.80390868  1
  Pd  Pd175  1  -0.00788633  0.00843363  -0.00764151  1
  Pd  Pd176  1  0.19646495  0.81388910  0.19146734  1
  Pd  Pd177  1  0.00480522  0.78731841  -0.00456489  1
  Pd  Pd178  1  0.81024533  0.00769770  0.60483790  1
  Pd  Pd179  1  -0.00279118  0.19258257  0.59058392  1
  Pd  Pd180  1  0.59686405  0.20369519  0.59487870  1
  Pd  Pd181  1  0.79467164  0.40952664  0.39623052  1
  Pd  Pd182  1  0.60692967  -0.00181214  0.80104120  1
  Pd  Pd183  1  0.79908403  0.39092412  0.79810180  1
  Pd  Pd184  1  0.80965992  0.19412096  0.00909420  1
  Pd  Pd185  1  0.80057777  0.19250417  0.39106712  1
  Pd  Pd186  1  0.39655310  0.79408338  -0.00217463  1
  Pd  Pd187  1  0.59453091  0.00136573  0.00403658  1
  Pd  Pd188  1  0.61375436  0.80803816  0.00838777  1
  Pd  Pd189  1  0.79368607  0.60662047  0.79086896  1
  Pd  Pd190  1  0.80144355  0.79626608  0.40354597  1
  Pd  Pd191  1  0.20879945  0.59916698  0.59694950  1
  Pd  Pd192  1  0.80597380  0.60075223  0.19971829  1
  Pd  Pd193  1  0.61582149  0.81324920  0.19272573  1
  Pd  Pd194  1  -0.00371572  0.39717496  -0.00173290  1
  Pd  Pd195  1  0.20912742  0.59400071  0.20033937  1
  Pd  Pd196  1  0.19545601  0.19682197  0.80342674  1
  Pd  Pd197  1  0.60001067  0.59414344  -0.00760143  1
  Pd  Pd198  1  -0.01419087  0.59914665  0.40981773  1
  Pd  Pd199  1  0.39944378  0.20145631  0.80001948  1
  Rh  Rh200  1  -0.00093563  -0.00549098  0.39532604  1
  Rh  Rh201  1  0.19119987  0.39592976  0.20206133  1
  Rh  Rh202  1  0.39825852  0.20999033  0.18852815  1
  Rh  Rh203  1  0.19069060  0.01024697  0.38405661  1
  Rh  Rh204  1  0.00578217  0.19972272  0.40505126  1
  Rh  Rh205  1  0.19064583  0.39277619  0.40042691  1
  Rh  Rh206  1  0.79003238  0.00557767  0.39916797  1
  Rh  Rh207  1  0.40095231  0.40256306  0.80491779  1
  Rh  Rh208  1  0.41155411  0.40223018  0.40464056  1
  Rh  Rh209  1  0.60633826  0.20349260  0.79885833  1
  Rh  Rh210  1  0.20976335  0.59479956  0.39801087  1
  Rh  Rh211  1  -0.00625499  0.59326048  0.80478333  1
  Rh  Rh212  1  -0.00722939  0.79758577  0.80209581  1
  Rh  Rh213  1  0.40740676  0.00289155  0.39612193  1
  Rh  Rh214  1  0.61449757  0.39580931  0.80346422  1
  Rh  Rh215  1  0.59417140  0.59300342  0.59490693  1
  Rh  Rh216  1  -0.00703282  0.80649812  0.21009718  1
  Rh  Rh217  1  0.60313171  0.20448653  0.19434425  1
  Rh  Rh218  1  0.60627502  0.39782943  -0.00150398  1
  Rh  Rh219  1  0.39979194  0.39766334  -0.00249581  1
  Rh  Rh220  1  0.81069224  0.38869066  0.20284513  1
  Rh  Rh221  1  0.80524759  0.19598636  0.60401146  1
  Rh  Rh222  1  0.60237268  0.59369899  0.80563856  1
  Rh  Rh223  1  0.39336984  0.20462854  0.40780482  1
  Rh  Rh224  1  0.59756433  0.39491963  0.19856579  1
  Rh  Rh225  1  0.21148706  0.58558569  0.80755312  1
  Rh  Rh226  1  0.19926745  0.39963820  -0.00201154  1
  Rh  Rh227  1  0.79847011  0.39732694  0.60832679  1
  Rh  Rh228  1  0.80100627  0.60757366  0.00550209  1
  Rh  Rh229  1  0.39790100  0.79213223  0.39606820  1
  Rh  Rh230  1  0.79188768  0.39417758  -0.00492895  1
  Rh  Rh231  1  0.39583330  0.79833116  0.20449358  1
  Rh  Rh232  1  0.40045299  0.39334069  0.60199210  1
  Rh  Rh233  1  0.80024781  0.01055234  0.20057745  1
  Rh  Rh234  1  0.80986275  0.00865684  -0.00066168  1
  Rh  Rh235  1  0.40212357  0.39900680  0.19048767  1
  Rh  Rh236  1  0.19429693  0.40143851  0.80320697  1
  Rh  Rh237  1  0.79576301  0.79556961  0.00385820  1
  Rh  Rh238  1  0.60516863  0.39323998  0.59236275  1
  Rh  Rh239  1  0.00127738  0.21225779  0.80855882  1
  Rh  Rh240  1  0.80245838  -0.00220149  0.79464466  1
  Rh  Rh241  1  0.80192413  0.59673312  0.60543681  1
  Rh  Rh242  1  0.20539095  -0.00901483  0.60950504  1
  Rh  Rh243  1  0.00681034  0.40839211  0.60870996  1
  Rh  Rh244  1  0.19521945  0.81276104  0.80627094  1
  Rh  Rh245  1  0.79788839  0.79863591  0.60998127  1
  Rh  Rh246  1  0.18599502  0.79976622  0.40712535  1
  Rh  Rh247  1  -0.00083573  0.21394111  0.19111825  1
  Rh  Rh248  1  0.60003441  0.19875254  0.40276739  1
  Rh  Rh249  1  0.00169032  -0.00743403  0.20587489  1
