# generated using pymatgen
data_ZrScNbPdRh
_symmetry_space_group_name_H-M   'P 1'
_cell_length_a   16.55298583
_cell_length_b   16.55339551
_cell_length_c   16.54660286
_cell_angle_alpha   89.98840490
_cell_angle_beta   90.00596369
_cell_angle_gamma   89.99050852
_symmetry_Int_Tables_number   1
_chemical_formula_structural   ZrScNbPdRh
_chemical_formula_sum   'Zr50 Sc50 Nb50 Pd50 Rh50'
_cell_volume   4533.90338325
_cell_formula_units_Z   50
loop_
 _symmetry_equiv_pos_site_id
 _symmetry_equiv_pos_as_xyz
  1  'x, y, z'
loop_
 _atom_site_type_symbol
 _atom_site_label
 _atom_site_symmetry_multiplicity
 _atom_site_fract_x
 _atom_site_fract_y
 _atom_site_fract_z
 _atom_site_occupancy
  Zr  Zr0  1  0.29494587  0.89688580  0.09707262  1
  Zr  Zr1  1  0.90011387  0.50168123  0.09672090  1
  Zr  Zr2  1  0.09970573  0.28783980  0.29619718  1
  Zr  Zr3  1  0.89804969  0.29404354  0.69603020  1
  Zr  Zr4  1  0.70593684  0.30129280  0.30059894  1
  Zr  Zr5  1  0.89927501  0.10079435  0.70776898  1
  Zr  Zr6  1  0.49598249  0.10006772  0.50137312  1
  Zr  Zr7  1  0.50019795  0.90255289  0.09448464  1
  Zr  Zr8  1  0.50358337  0.49567475  0.50240839  1
  Zr  Zr9  1  0.09741363  0.10621866  0.30405137  1
  Zr  Zr10  1  0.50302829  0.09299758  0.89404670  1
  Zr  Zr11  1  0.70279938  0.49685920  0.09447030  1
  Zr  Zr12  1  0.10440903  0.89322297  0.90335509  1
  Zr  Zr13  1  0.10490435  0.70571887  0.09591150  1
  Zr  Zr14  1  0.09208455  0.69649110  0.89838879  1
  Zr  Zr15  1  0.88838366  0.90494222  0.10266378  1
  Zr  Zr16  1  0.29253400  0.10624548  0.30735836  1
  Zr  Zr17  1  0.90648150  0.29938009  0.30467511  1
  Zr  Zr18  1  0.89462655  0.89869947  0.30834956  1
  Zr  Zr19  1  0.29249037  0.50587879  0.49474182  1
  Zr  Zr20  1  0.09538777  0.50263897  0.70484404  1
  Zr  Zr21  1  0.49463422  0.50182213  0.89410590  1
  Zr  Zr22  1  0.30139655  0.30269199  0.09286693  1
  Zr  Zr23  1  0.49344850  0.50317221  0.30052112  1
  Zr  Zr24  1  0.29579878  0.48989929  0.89770957  1
  Zr  Zr25  1  0.70429478  0.70191210  0.69922226  1
  Zr  Zr26  1  0.30068797  0.69170804  0.30333216  1
  Zr  Zr27  1  0.70176727  0.69701653  0.10176531  1
  Zr  Zr28  1  0.09381493  0.10581593  0.70354963  1
  Zr  Zr29  1  0.49363992  0.70394438  0.69780818  1
  Zr  Zr30  1  0.50378804  0.70526063  0.09918800  1
  Zr  Zr31  1  0.09870107  0.10807547  0.10159517  1
  Zr  Zr32  1  0.30352805  0.49493176  0.09464683  1
  Zr  Zr33  1  0.70513436  0.09876351  0.69983555  1
  Zr  Zr34  1  0.49972409  0.71219218  0.89746389  1
  Zr  Zr35  1  0.70771040  0.10211257  0.89354065  1
  Zr  Zr36  1  0.49862149  0.10209215  0.70509304  1
  Zr  Zr37  1  0.50363906  0.09683376  0.10099807  1
  Zr  Zr38  1  0.50774871  0.30533597  0.30393121  1
  Zr  Zr39  1  0.69750885  0.10144103  0.30995233  1
  Zr  Zr40  1  0.30480063  0.89774764  0.90144978  1
  Zr  Zr41  1  0.30426324  0.30683712  0.50682765  1
  Zr  Zr42  1  0.10684566  0.89790206  0.09642379  1
  Zr  Zr43  1  0.50923737  0.69659494  0.30372812  1
  Zr  Zr44  1  0.69986280  0.89845280  0.69710191  1
  Zr  Zr45  1  0.09505516  0.49868893  0.51116845  1
  Zr  Zr46  1  0.89822503  0.89471685  0.69710181  1
  Zr  Zr47  1  0.09312916  0.09624032  0.90012530  1
  Zr  Zr48  1  0.89116688  0.10044263  0.29693337  1
  Zr  Zr49  1  0.89956602  0.69537614  0.09473765  1
  Sc  Sc50  1  0.50420421  0.90762272  0.30369307  1
  Sc  Sc51  1  0.49647292  0.30307652  0.89104436  1
  Sc  Sc52  1  0.31171433  0.69470353  0.88903829  1
  Sc  Sc53  1  0.30169064  0.90689580  0.30334731  1
  Sc  Sc54  1  0.69310103  0.50515934  0.30055814  1
  Sc  Sc55  1  0.30296206  0.89470785  0.69639550  1
  Sc  Sc56  1  0.89770392  0.10792653  0.50302352  1
  Sc  Sc57  1  0.50003626  0.90144345  0.50586118  1
  Sc  Sc58  1  0.70839701  0.09021753  0.10280824  1
  Sc  Sc59  1  0.49941869  0.90074661  0.70216130  1
  Sc  Sc60  1  0.89649994  0.69948417  0.70010694  1
  Sc  Sc61  1  0.89401662  0.88407020  0.50014641  1
  Sc  Sc62  1  0.09050248  0.30211401  0.69566137  1
  Sc  Sc63  1  0.09714103  0.49429791  0.31334870  1
  Sc  Sc64  1  0.30813544  0.10387609  0.89582225  1
  Sc  Sc65  1  0.50869720  0.69902951  0.50688620  1
  Sc  Sc66  1  0.70014193  0.31198677  0.09248254  1
  Sc  Sc67  1  0.70387703  0.49073972  0.70221841  1
  Sc  Sc68  1  0.89555042  0.50067399  0.69400017  1
  Sc  Sc69  1  0.10411569  0.30430291  0.88357546  1
  Sc  Sc70  1  0.09795579  0.49580732  0.09610112  1
  Sc  Sc71  1  0.29895061  0.90971463  0.50892751  1
  Sc  Sc72  1  0.10797476  0.10405688  0.49733282  1
  Sc  Sc73  1  0.50297237  0.30570638  0.50521549  1
  Sc  Sc74  1  0.30072629  0.70386309  0.09423881  1
  Sc  Sc75  1  0.49694561  0.30397230  0.69675060  1
  Sc  Sc76  1  0.89739333  0.10001289  0.08722316  1
  Sc  Sc77  1  0.90090700  0.30929037  0.50139405  1
  Sc  Sc78  1  0.69941589  0.90267732  0.50404003  1
  Sc  Sc79  1  0.09299027  0.29860096  0.49972933  1
  Sc  Sc80  1  0.50243120  0.49674714  0.69490603  1
  Sc  Sc81  1  0.90560883  0.29526088  0.10208150  1
  Sc  Sc82  1  0.89614001  0.70164387  0.89793574  1
  Sc  Sc83  1  0.09640370  0.69610177  0.50888268  1
  Sc  Sc84  1  0.89725932  0.69660595  0.31937256  1
  Sc  Sc85  1  0.89430823  0.50324467  0.89577835  1
  Sc  Sc86  1  0.50095974  0.49522304  0.09983488  1
  Sc  Sc87  1  0.50351809  0.09248351  0.30615490  1
  Sc  Sc88  1  0.70556024  0.49855848  0.50659557  1
  Sc  Sc89  1  0.90339456  0.49798050  0.31307602  1
  Sc  Sc90  1  0.69891398  0.90858951  0.30670791  1
  Sc  Sc91  1  0.70211244  0.30608063  0.49608016  1
  Sc  Sc92  1  0.09985152  0.69836752  0.70215027  1
  Sc  Sc93  1  0.89990940  0.90474590  0.90073660  1
  Sc  Sc94  1  0.10375332  0.88647290  0.69783405  1
  Sc  Sc95  1  0.31215154  0.09387074  0.69972407  1
  Sc  Sc96  1  0.30243200  0.09752558  0.09433107  1
  Sc  Sc97  1  0.30080279  0.50532179  0.69512307  1
  Sc  Sc98  1  0.69627065  0.90190870  0.09736930  1
  Sc  Sc99  1  0.50256923  0.31076347  0.09519551  1
  Nb  Nb100  1  0.29755702  0.49762309  0.30027959  1
  Nb  Nb101  1  0.90107578  0.50484607  0.50247985  1
  Nb  Nb102  1  0.89979834  0.10506397  0.89600429  1
  Nb  Nb103  1  0.69792495  0.69653606  0.49875253  1
  Nb  Nb104  1  0.69681519  0.49365177  0.89872741  1
  Nb  Nb105  1  0.29808112  0.30225008  0.89783972  1
  Nb  Nb106  1  0.89033483  0.29385463  0.90460002  1
  Nb  Nb107  1  0.69310821  0.70025595  0.30053157  1
  Nb  Nb108  1  0.29701415  0.70323689  0.50480494  1
  Nb  Nb109  1  0.30491008  0.29235422  0.70315677  1
  Nb  Nb110  1  0.69703327  0.70100423  0.89583738  1
  Nb  Nb111  1  0.10168085  0.29989573  0.10238796  1
  Nb  Nb112  1  0.50502403  0.89740911  0.89662083  1
  Nb  Nb113  1  0.69409698  0.10031136  0.49823024  1
  Nb  Nb114  1  0.68611424  0.89210604  0.89668232  1
  Nb  Nb115  1  0.70026468  0.31174249  0.89751860  1
  Nb  Nb116  1  0.29709444  0.29933782  0.30006331  1
  Nb  Nb117  1  0.69953976  0.30041202  0.70255338  1
  Nb  Nb118  1  0.30146126  0.70295786  0.68681214  1
  Nb  Nb119  1  0.10484889  0.70880773  0.29258139  1
  Nb  Nb120  1  0.30422731  0.10347497  0.50307593  1
  Nb  Nb121  1  0.09946406  0.49927768  0.89856235  1
  Nb  Nb122  1  0.09956487  0.89658609  0.30056947  1
  Nb  Nb123  1  0.10011416  0.90051237  0.50052884  1
  Nb  Nb124  1  0.89022009  0.68433697  0.50645807  1
  Nb  Nb125  1  0.19971994  0.20894747  -0.00603977  1
  Nb  Nb126  1  0.40236155  0.80028912  0.20634766  1
  Nb  Nb127  1  0.19923480  0.59317682  0.20047105  1
  Nb  Nb128  1  0.00253550  -0.00563176  0.40220060  1
  Nb  Nb129  1  0.60670193  0.19761670  0.60113882  1
  Nb  Nb130  1  0.20898260  0.20020372  0.60408035  1
  Nb  Nb131  1  0.59922510  0.20111621  0.19612184  1
  Nb  Nb132  1  0.19730870  0.59386143  -0.00388763  1
  Nb  Nb133  1  0.60424996  0.60149754  0.80415985  1
  Nb  Nb134  1  0.80423819  0.40312868  0.20200868  1
  Nb  Nb135  1  0.00279225  0.39648698  -0.00714672  1
  Nb  Nb136  1  0.40317672  0.20401074  0.20571184  1
  Nb  Nb137  1  0.19309859  0.00128940  0.20231318  1
  Nb  Nb138  1  -0.00494006  0.80001683  0.20376821  1
  Nb  Nb139  1  0.39525096  0.79577427  0.40214509  1
  Nb  Nb140  1  0.60351233  0.60102228  -0.00875887  1
  Nb  Nb141  1  0.19872438  -0.00157599  0.80220708  1
  Nb  Nb142  1  0.60363408  0.20120198  -0.00358485  1
  Nb  Nb143  1  0.20193922  0.39879287  0.20347303  1
  Nb  Nb144  1  0.19906771  0.80006607  0.40369592  1
  Nb  Nb145  1  0.00300916  -0.00477987  0.59450838  1
  Nb  Nb146  1  0.00260509  -0.00466592  0.20452214  1
  Nb  Nb147  1  0.79739470  0.79217876  0.20720079  1
  Nb  Nb148  1  0.00657555  0.60726028  0.20352067  1
  Nb  Nb149  1  0.39692077  0.20329801  0.39932741  1
  Pd  Pd150  1  0.00581438  0.79519367  0.40405648  1
  Pd  Pd151  1  0.59615513  0.00421932  0.60342152  1
  Pd  Pd152  1  0.60071968  0.20817719  0.79950923  1
  Pd  Pd153  1  -0.01098851  0.60001524  0.79623640  1
  Pd  Pd154  1  0.59760258  0.59208449  0.19166379  1
  Pd  Pd155  1  0.60799286  0.00530106  -0.00469184  1
  Pd  Pd156  1  0.60755534  0.59600411  0.60925866  1
  Pd  Pd157  1  0.00642076  -0.01312300  0.79131944  1
  Pd  Pd158  1  0.19934338  0.39494360  0.60867212  1
  Pd  Pd159  1  0.39285040  0.00168356  0.20260533  1
  Pd  Pd160  1  0.79491835  0.20691341  0.18932124  1
  Pd  Pd161  1  0.20643692  0.19268086  0.79727038  1
  Pd  Pd162  1  0.79077340  0.20312866  0.00455015  1
  Pd  Pd163  1  0.79439264  0.59920828  -0.01185678  1
  Pd  Pd164  1  0.80660085  0.39788234  0.79674841  1
  Pd  Pd165  1  0.19463491  0.00780170  0.61055319  1
  Pd  Pd166  1  0.18892084  0.60551973  0.39885946  1
  Pd  Pd167  1  0.79402972  0.80390524  0.00055572  1
  Pd  Pd168  1  0.20661415  0.79681102  0.79961036  1
  Pd  Pd169  1  -0.00820871  0.80570419  0.00303194  1
  Pd  Pd170  1  0.79813654  -0.00928121  0.80485522  1
  Pd  Pd171  1  0.80258078  0.80488076  0.80523624  1
  Pd  Pd172  1  0.40699900  0.60485250  0.41176692  1
  Pd  Pd173  1  -0.01205134  0.39683541  0.80456480  1
  Pd  Pd174  1  0.80263716  0.20393330  0.40959734  1
  Pd  Pd175  1  0.39616421  0.60433060  0.19314942  1
  Pd  Pd176  1  0.00943984  0.60587590  0.39967278  1
  Pd  Pd177  1  0.40602236  0.20505953  -0.00063722  1
  Pd  Pd178  1  0.59797129  0.80595839  0.40704245  1
  Pd  Pd179  1  0.00154957  0.40757032  0.19735418  1
  Pd  Pd180  1  0.79268926  0.20600210  0.59428468  1
  Pd  Pd181  1  0.39638976  0.39518719  0.20307720  1
  Pd  Pd182  1  0.40005273  -0.00117584  -0.00417703  1
  Pd  Pd183  1  0.19332350  0.39221927  0.39818145  1
  Pd  Pd184  1  0.81028716  -0.00004861  0.59208727  1
  Pd  Pd185  1  0.78995421  0.59411085  0.39915317  1
  Pd  Pd186  1  0.40121488  0.60100753  0.00039645  1
  Pd  Pd187  1  0.19777290  -0.00514686  0.40005587  1
  Pd  Pd188  1  0.60732679  0.40729121  0.40212208  1
  Pd  Pd189  1  0.60163678  0.81070075  0.20319941  1
  Pd  Pd190  1  0.20277439  0.39977422  0.78649373  1
  Pd  Pd191  1  0.20541038  0.60313415  0.79961165  1
  Pd  Pd192  1  -0.00308021  -0.00380758  0.00516520  1
  Pd  Pd193  1  0.80937161  0.59827131  0.21408642  1
  Pd  Pd194  1  0.39763062  0.40185338  0.79064099  1
  Pd  Pd195  1  0.00816230  0.21126450  -0.01040979  1
  Pd  Pd196  1  0.39983113  0.59736269  0.59418001  1
  Pd  Pd197  1  0.78652194  0.79540637  0.40217077  1
  Pd  Pd198  1  0.39873043  0.39860575  0.40070861  1
  Pd  Pd199  1  -0.00295004  0.79493905  0.59758558  1
  Rh  Rh200  1  0.20963462  0.78187407  -0.01736875  1
  Rh  Rh201  1  0.60147742  0.59573092  0.40610124  1
  Rh  Rh202  1  0.81168870  0.39726922  0.00337475  1
  Rh  Rh203  1  0.21167623  0.80449713  0.21038978  1
  Rh  Rh204  1  0.40410900  0.60128834  0.78791513  1
  Rh  Rh205  1  0.39979182  0.80228403  0.59232529  1
  Rh  Rh206  1  0.39616085  -0.00783039  0.80076238  1
  Rh  Rh207  1  0.20784028  0.21000749  0.41720493  1
  Rh  Rh208  1  0.79514646  0.59806014  0.60302129  1
  Rh  Rh209  1  0.60329842  0.79991344  0.60050563  1
  Rh  Rh210  1  0.80091181  0.20680471  0.80110537  1
  Rh  Rh211  1  0.60961080  0.39820194  0.20278513  1
  Rh  Rh212  1  0.19988251  0.79684257  0.59521916  1
  Rh  Rh213  1  0.79377166  0.59836957  0.79966747  1
  Rh  Rh214  1  -0.00876046  0.20842524  0.80582947  1
  Rh  Rh215  1  0.39991513  0.80422462  0.00332247  1
  Rh  Rh216  1  0.40275401  0.20185103  0.59643750  1
  Rh  Rh217  1  0.79604605  0.79147897  0.59219274  1
  Rh  Rh218  1  -0.00724907  0.19573342  0.40335531  1
  Rh  Rh219  1  0.60001392  -0.00276038  0.40742459  1
  Rh  Rh220  1  0.40118042  0.20285542  0.80174499  1
  Rh  Rh221  1  -0.00618569  0.40467516  0.60063262  1
  Rh  Rh222  1  0.60583292  0.00592943  0.20202049  1
  Rh  Rh223  1  0.59262458  0.19863913  0.40458500  1
  Rh  Rh224  1  0.59850468  0.79765587  0.79027980  1
  Rh  Rh225  1  0.19017007  0.39691145  0.00138917  1
  Rh  Rh226  1  -0.00426115  0.79935378  0.80137982  1
  Rh  Rh227  1  0.79475484  -0.00326162  -0.01345839  1
  Rh  Rh228  1  -0.00362987  0.60128404  0.60543226  1
  Rh  Rh229  1  0.00577252  0.59113120  0.00034792  1
  Rh  Rh230  1  0.60707437  0.39077455  0.60379062  1
  Rh  Rh231  1  -0.01152712  0.19017417  0.19752154  1
  Rh  Rh232  1  0.40633328  0.39793632  -0.00899305  1
  Rh  Rh233  1  0.59253055  0.40120836  -0.01140152  1
  Rh  Rh234  1  0.19740979  0.60249200  0.60513382  1
  Rh  Rh235  1  0.80215687  0.39862088  0.59921833  1
  Rh  Rh236  1  0.79873322  -0.00547691  0.20592499  1
  Rh  Rh237  1  0.39976177  -0.00010342  0.40699983  1
  Rh  Rh238  1  0.20206275  0.01477809  -0.00474280  1
  Rh  Rh239  1  0.00161046  0.39899573  0.40760425  1
  Rh  Rh240  1  0.39829316  0.80367706  0.79352400  1
  Rh  Rh241  1  0.00734393  0.19158646  0.59445865  1
  Rh  Rh242  1  0.40293709  -0.00245941  0.60293532  1
  Rh  Rh243  1  0.59761517  0.40368181  0.79701202  1
  Rh  Rh244  1  0.60347283  -0.00476235  0.79805782  1
  Rh  Rh245  1  0.80165021  0.40634777  0.39674386  1
  Rh  Rh246  1  0.80327560  0.00361884  0.41046846  1
  Rh  Rh247  1  0.21226553  0.20035251  0.18597810  1
  Rh  Rh248  1  0.39586020  0.40769957  0.60315789  1
  Rh  Rh249  1  0.60385515  0.79754742  0.00237099  1
