# generated using pymatgen
data_ZrScNbPdRh
_symmetry_space_group_name_H-M   'P 1'
_cell_length_a   16.56161405
_cell_length_b   16.56148002
_cell_length_c   16.56341529
_cell_angle_alpha   89.98740134
_cell_angle_beta   89.94380158
_cell_angle_gamma   89.99356639
_symmetry_Int_Tables_number   1
_chemical_formula_structural   ZrScNbPdRh
_chemical_formula_sum   'Zr50 Sc50 Nb50 Pd50 Rh50'
_cell_volume   4543.09138958
_cell_formula_units_Z   50
loop_
 _symmetry_equiv_pos_site_id
 _symmetry_equiv_pos_as_xyz
  1  'x, y, z'
loop_
 _atom_site_type_symbol
 _atom_site_label
 _atom_site_symmetry_multiplicity
 _atom_site_fract_x
 _atom_site_fract_y
 _atom_site_fract_z
 _atom_site_occupancy
  Zr  Zr0  1  0.29889027  0.49737201  0.90007543  1
  Zr  Zr1  1  0.50255340  0.09864014  0.09795074  1
  Zr  Zr2  1  0.09529816  0.49390848  0.11395087  1
  Zr  Zr3  1  0.70300985  0.69089265  0.90051876  1
  Zr  Zr4  1  0.49405255  0.70202026  0.69351255  1
  Zr  Zr5  1  0.71110392  0.29781773  0.50011601  1
  Zr  Zr6  1  0.30436551  0.70471668  0.89882179  1
  Zr  Zr7  1  0.50705672  0.29870560  0.70845315  1
  Zr  Zr8  1  0.69725186  0.29670617  0.69359775  1
  Zr  Zr9  1  0.90244879  0.69749775  0.89762758  1
  Zr  Zr10  1  0.90427211  0.90215322  0.90079949  1
  Zr  Zr11  1  0.10387652  0.49013357  0.89883017  1
  Zr  Zr12  1  0.30011421  0.70743958  0.69531081  1
  Zr  Zr13  1  0.70368442  0.49390595  0.49648938  1
  Zr  Zr14  1  0.90014426  0.70312676  0.30135465  1
  Zr  Zr15  1  0.10166595  0.90713464  0.69793905  1
  Zr  Zr16  1  0.69925806  0.10155277  0.70835156  1
  Zr  Zr17  1  0.69999707  0.90443343  0.69937335  1
  Zr  Zr18  1  0.90282317  0.49455914  0.49450949  1
  Zr  Zr19  1  0.50497236  0.49644900  0.90676478  1
  Zr  Zr20  1  0.51464945  0.49818707  0.30058597  1
  Zr  Zr21  1  0.10172695  0.70134907  0.69859504  1
  Zr  Zr22  1  0.30310064  0.10519763  0.30327154  1
  Zr  Zr23  1  0.49840932  0.70186123  0.49787466  1
  Zr  Zr24  1  0.30053673  0.49682349  0.49519057  1
  Zr  Zr25  1  0.49997511  0.89120236  0.29493341  1
  Zr  Zr26  1  0.70579840  0.90562726  0.50197760  1
  Zr  Zr27  1  0.29429189  0.70894393  0.30012543  1
  Zr  Zr28  1  0.89931620  0.29647171  0.30630055  1
  Zr  Zr29  1  0.69791905  0.91269108  0.89864456  1
  Zr  Zr30  1  0.09849212  0.50275906  0.49135243  1
  Zr  Zr31  1  0.69265763  0.90343336  0.10323251  1
  Zr  Zr32  1  0.10524602  0.09774180  0.08985217  1
  Zr  Zr33  1  0.29999953  0.70203621  0.10390501  1
  Zr  Zr34  1  0.90353378  0.29860291  0.90150675  1
  Zr  Zr35  1  0.09514921  0.29564999  0.08988053  1
  Zr  Zr36  1  0.49946748  0.70258444  0.10163403  1
  Zr  Zr37  1  0.89665648  0.90672743  0.69467685  1
  Zr  Zr38  1  0.09954718  0.30899170  0.29609982  1
  Zr  Zr39  1  0.10036245  0.09739719  0.69323768  1
  Zr  Zr40  1  0.89604443  0.10092156  0.29579530  1
  Zr  Zr41  1  0.89830614  0.10034587  0.49926420  1
  Zr  Zr42  1  0.09738001  0.69936844  0.89473132  1
  Zr  Zr43  1  0.49574447  0.29154088  0.09535593  1
  Zr  Zr44  1  0.28543798  0.49293460  0.30322602  1
  Zr  Zr45  1  0.49680160  0.29713877  0.90194984  1
  Zr  Zr46  1  0.90299921  0.90664147  0.49624781  1
  Zr  Zr47  1  0.49799517  0.50469468  0.50130814  1
  Zr  Zr48  1  0.49577907  0.90046161  0.70292651  1
  Zr  Zr49  1  0.90170290  0.90503030  0.30562226  1
  Sc  Sc50  1  0.89887769  0.29410332  0.68881054  1
  Sc  Sc51  1  0.28901360  0.89456399  0.70182334  1
  Sc  Sc52  1  0.69706091  0.69860855  0.29578073  1
  Sc  Sc53  1  0.30530656  0.09745110  0.09864184  1
  Sc  Sc54  1  0.09222801  0.09622843  0.90426072  1
  Sc  Sc55  1  0.50559423  0.49522965  0.69125729  1
  Sc  Sc56  1  0.49575174  0.29940656  0.50476435  1
  Sc  Sc57  1  0.28953598  0.90197811  0.49664697  1
  Sc  Sc58  1  0.90487133  0.68912660  0.70369075  1
  Sc  Sc59  1  0.89791846  0.10343819  0.70277521  1
  Sc  Sc60  1  0.09127923  0.29804771  0.70005040  1
  Sc  Sc61  1  0.29996153  0.29904282  0.31063218  1
  Sc  Sc62  1  0.70295383  0.70368352  0.10704898  1
  Sc  Sc63  1  0.50446467  0.10333175  0.90178039  1
  Sc  Sc64  1  0.89364470  0.89782953  0.09593164  1
  Sc  Sc65  1  0.10712240  0.90139564  0.31517953  1
  Sc  Sc66  1  0.10333416  0.69764417  0.30365761  1
  Sc  Sc67  1  0.49329323  0.90576843  0.90213242  1
  Sc  Sc68  1  0.50388358  0.90047899  0.49029411  1
  Sc  Sc69  1  0.70676473  0.69503296  0.69452242  1
  Sc  Sc70  1  0.31111084  0.28835538  0.69724471  1
  Sc  Sc71  1  0.50995700  0.50018714  0.09518696  1
  Sc  Sc72  1  0.29365163  0.50176452  0.09523713  1
  Sc  Sc73  1  0.69991290  0.30204960  0.09547765  1
  Sc  Sc74  1  0.30144084  0.30049052  0.91104713  1
  Sc  Sc75  1  0.30120056  0.90416847  0.29985748  1
  Sc  Sc76  1  0.69781037  0.48994211  0.90941006  1
  Sc  Sc77  1  0.90281980  0.50267415  0.69273564  1
  Sc  Sc78  1  0.09432496  0.90541455  0.89697120  1
  Sc  Sc79  1  0.69908438  0.10200520  0.29962990  1
  Sc  Sc80  1  0.10641341  0.69693996  0.10878424  1
  Sc  Sc81  1  0.50019027  0.10096452  0.30143965  1
  Sc  Sc82  1  0.29890225  0.50586533  0.69521772  1
  Sc  Sc83  1  0.89625912  0.70638569  0.10523552  1
  Sc  Sc84  1  0.69212253  0.30058368  0.90165446  1
  Sc  Sc85  1  0.10450666  0.70113847  0.49268746  1
  Sc  Sc86  1  0.09212226  0.28814163  0.49797073  1
  Sc  Sc87  1  0.50157194  0.10508787  0.48988773  1
  Sc  Sc88  1  0.29153833  0.11157806  0.49818621  1
  Sc  Sc89  1  0.50328105  0.29091163  0.29926016  1
  Sc  Sc90  1  0.90775056  0.68992938  0.49882631  1
  Sc  Sc91  1  0.90443498  0.29852118  0.10307836  1
  Sc  Sc92  1  0.50001466  0.11575621  0.70781845  1
  Sc  Sc93  1  0.10534209  0.10166927  0.30658729  1
  Sc  Sc94  1  0.69855260  0.69972008  0.50205282  1
  Sc  Sc95  1  0.09873589  0.50142367  0.70249626  1
  Sc  Sc96  1  0.69795912  0.90400390  0.29817550  1
  Sc  Sc97  1  0.30452875  0.90890468  0.10060963  1
  Sc  Sc98  1  0.89834062  0.49829852  0.89201658  1
  Sc  Sc99  1  0.29660254  0.09925334  0.91109437  1
  Nb  Nb100  1  0.29868354  0.89863477  0.89842900  1
  Nb  Nb101  1  0.70460065  0.49627685  0.10014598  1
  Nb  Nb102  1  0.09347138  0.90893779  0.49921370  1
  Nb  Nb103  1  0.70263770  0.49474884  0.70366379  1
  Nb  Nb104  1  0.49423310  0.70078634  0.29825530  1
  Nb  Nb105  1  0.89499472  0.09596130  0.90077756  1
  Nb  Nb106  1  0.69922287  0.09840948  0.09280413  1
  Nb  Nb107  1  0.29648261  0.30415695  0.49777770  1
  Nb  Nb108  1  0.50151118  0.69745107  0.90239011  1
  Nb  Nb109  1  0.29848615  0.09858758  0.70109216  1
  Nb  Nb110  1  0.70280615  0.49257952  0.29943182  1
  Nb  Nb111  1  0.89738237  0.30085342  0.50048015  1
  Nb  Nb112  1  0.90623800  0.50267469  0.29861948  1
  Nb  Nb113  1  0.70049257  0.09476474  0.90226209  1
  Nb  Nb114  1  0.10039401  0.08945597  0.50249243  1
  Nb  Nb115  1  0.70383792  0.31261339  0.30228719  1
  Nb  Nb116  1  0.30037237  0.69197335  0.49961931  1
  Nb  Nb117  1  0.69496557  0.09745501  0.50387710  1
  Nb  Nb118  1  0.30668673  0.29247884  0.10105294  1
  Nb  Nb119  1  0.09456066  0.49882576  0.30054542  1
  Nb  Nb120  1  0.09803229  0.90466959  0.09517760  1
  Nb  Nb121  1  0.10322339  0.29621698  0.89756489  1
  Nb  Nb122  1  0.50173532  0.90126228  0.09998376  1
  Nb  Nb123  1  0.89887300  0.49692098  0.10139341  1
  Nb  Nb124  1  0.90402064  0.10388687  0.09966122  1
  Nb  Nb125  1  0.39819291  0.00603980  0.60497244  1
  Nb  Nb126  1  0.40115571  0.59647466  0.20867117  1
  Nb  Nb127  1  -0.00259078  0.59393545  0.00508005  1
  Nb  Nb128  1  0.20192213  0.39400544  0.59402462  1
  Nb  Nb129  1  0.39966238  0.60335918  0.39395031  1
  Nb  Nb130  1  0.40195296  0.40436650  0.80280337  1
  Nb  Nb131  1  0.60005581  0.79446562  0.80431736  1
  Nb  Nb132  1  0.59697350  0.80153397  -0.00288878  1
  Nb  Nb133  1  0.79618707  0.39697627  0.79360690  1
  Nb  Nb134  1  0.80343601  0.80236828  0.40289334  1
  Nb  Nb135  1  0.20015477  0.80551166  -0.00087658  1
  Nb  Nb136  1  0.00444811  0.81092633  0.20223893  1
  Nb  Nb137  1  0.79957266  0.40634160  0.20414305  1
  Nb  Nb138  1  0.79720237  0.80265919  0.80111072  1
  Nb  Nb139  1  0.80102334  0.18973048  -0.00032758  1
  Nb  Nb140  1  0.00336098  0.80618760  0.59591486  1
  Nb  Nb141  1  0.39131348  0.00386465  0.79644202  1
  Nb  Nb142  1  0.59711397  0.59972159  0.80010874  1
  Nb  Nb143  1  0.19755786  0.20037154  0.80353729  1
  Nb  Nb144  1  0.20269016  0.20380179  0.19508180  1
  Nb  Nb145  1  0.80427110  0.59139516  0.00760759  1
  Nb  Nb146  1  0.40681004  0.60031982  0.80172841  1
  Nb  Nb147  1  0.59500041  0.00557698  0.60186806  1
  Nb  Nb148  1  0.40057447  0.40143739  0.19862482  1
  Nb  Nb149  1  0.00260897  -0.00086139  0.19537069  1
  Pd  Pd150  1  0.39975549  0.80795164  0.00354808  1
  Pd  Pd151  1  0.20809567  0.39078209  0.19093110  1
  Pd  Pd152  1  0.59990035  0.80614884  0.60281172  1
  Pd  Pd153  1  0.00224897  0.19451227  0.40109029  1
  Pd  Pd154  1  0.40581507  0.00103112  0.20244136  1
  Pd  Pd155  1  0.40312683  0.19313535  0.59238680  1
  Pd  Pd156  1  0.01127160  0.19192599  0.20147858  1
  Pd  Pd157  1  -0.00284681  0.40487880  -0.00256886  1
  Pd  Pd158  1  0.60958241  0.20207571  0.19988023  1
  Pd  Pd159  1  0.39236244  0.79956329  0.40514983  1
  Pd  Pd160  1  0.39509263  0.81338447  0.58817463  1
  Pd  Pd161  1  -0.00555183  0.80541132  0.78800677  1
  Pd  Pd162  1  0.80006347  0.59531303  0.20007251  1
  Pd  Pd163  1  0.81324394  0.78889184  0.59854798  1
  Pd  Pd164  1  -0.00851988  0.39921783  0.79295773  1
  Pd  Pd165  1  0.39618620  0.00250870  0.40820738  1
  Pd  Pd166  1  0.40976069  0.40004238  0.39058169  1
  Pd  Pd167  1  0.20735504  0.60215049  0.79755430  1
  Pd  Pd168  1  0.39931210  0.59508701  0.00407539  1
  Pd  Pd169  1  0.79553904  0.20771920  0.80805544  1
  Pd  Pd170  1  0.19467795  0.81363324  0.19644606  1
  Pd  Pd171  1  0.20226920  0.00767477  0.80806220  1
  Pd  Pd172  1  0.60518580  0.20599354  0.40085058  1
  Pd  Pd173  1  -0.00056061  0.60978791  0.19835713  1
  Pd  Pd174  1  0.19507688  0.20666289  0.60542787  1
  Pd  Pd175  1  0.59578252  0.00565394  0.20611601  1
  Pd  Pd176  1  0.20132955  0.39493138  0.00788185  1
  Pd  Pd177  1  0.79330968  0.19346582  0.40069313  1
  Pd  Pd178  1  0.00710559  0.39913596  0.59683041  1
  Pd  Pd179  1  0.60253898  0.39670664  0.59209458  1
  Pd  Pd180  1  0.59968957  0.39190478  0.19326458  1
  Pd  Pd181  1  0.19248362  0.80261695  0.58954281  1
  Pd  Pd182  1  0.61055470  0.79844760  0.39634002  1
  Pd  Pd183  1  0.79147790  0.20738966  0.19296951  1
  Pd  Pd184  1  0.19528414  0.59326282  0.59793685  1
  Pd  Pd185  1  0.80507161  0.00239367  0.00708188  1
  Pd  Pd186  1  0.80113769  0.59595659  0.59597659  1
  Pd  Pd187  1  0.21019719  0.38615944  0.78625328  1
  Pd  Pd188  1  0.59483518  0.39033069  0.40844675  1
  Pd  Pd189  1  0.00435970  0.19383975  0.80241246  1
  Pd  Pd190  1  0.60612638  0.59829899  0.60431791  1
  Pd  Pd191  1  0.79647035  0.60330423  0.39835200  1
  Pd  Pd192  1  0.00851593  0.79053812  0.01036543  1
  Pd  Pd193  1  0.79169634  0.79547563  -0.00506552  1
  Pd  Pd194  1  0.60212009  0.60538952  0.39968644  1
  Pd  Pd195  1  0.19548442  0.00517702  0.20253012  1
  Pd  Pd196  1  0.39530796  0.39928238  0.60891828  1
  Pd  Pd197  1  0.19012782  0.60514081  0.00006751  1
  Pd  Pd198  1  0.80323681  -0.00097333  0.19523828  1
  Pd  Pd199  1  0.60042682  0.60156712  0.19621028  1
  Rh  Rh200  1  0.40030745  0.19067621  -0.00182613  1
  Rh  Rh201  1  0.59726309  0.39186420  0.00777251  1
  Rh  Rh202  1  0.80881215  0.40401317  0.39302629  1
  Rh  Rh203  1  0.59917156  0.19554071  0.59453205  1
  Rh  Rh204  1  0.80457343  0.39613513  -0.00054011  1
  Rh  Rh205  1  0.60828719  0.19606529  -0.00103790  1
  Rh  Rh206  1  0.60015777  0.40575873  0.79968002  1
  Rh  Rh207  1  0.20195971  0.20315049  0.00012307  1
  Rh  Rh208  1  0.39744374  0.59980380  0.59708436  1
  Rh  Rh209  1  0.00239567  0.60009642  0.39432449  1
  Rh  Rh210  1  0.39874896  0.80106552  0.19702775  1
  Rh  Rh211  1  0.39938625  0.20341011  0.40339163  1
  Rh  Rh212  1  0.20684574  0.00229347  0.59411198  1
  Rh  Rh213  1  -0.00384514  0.19400827  0.59428991  1
  Rh  Rh214  1  0.59796472  0.79947981  0.19618201  1
  Rh  Rh215  1  0.79324631  0.01348351  0.60203176  1
  Rh  Rh216  1  0.38783670  0.20024711  0.81194029  1
  Rh  Rh217  1  -0.00228827  0.79704445  0.40240187  1
  Rh  Rh218  1  0.59283780  -0.00326756  0.00074621  1
  Rh  Rh219  1  0.39348480  0.20439091  0.20595350  1
  Rh  Rh220  1  0.00339848  0.01147357  0.39188756  1
  Rh  Rh221  1  0.19591267  0.20343564  0.39700990  1
  Rh  Rh222  1  0.40014662  0.40189128  0.00535505  1
  Rh  Rh223  1  0.40294655  0.00082203  -0.00519533  1
  Rh  Rh224  1  -0.00169304  0.39687737  0.39957436  1
  Rh  Rh225  1  0.19543688  0.80227962  0.80896364  1
  Rh  Rh226  1  0.18532996  0.39065190  0.41060066  1
  Rh  Rh227  1  0.20085725  0.80161985  0.40510157  1
  Rh  Rh228  1  0.00663686  0.58949908  0.80585639  1
  Rh  Rh229  1  0.40361689  0.80068156  0.80184468  1
  Rh  Rh230  1  0.80423715  0.80767302  0.21226324  1
  Rh  Rh231  1  0.80711818  -0.00295293  0.80016200  1
  Rh  Rh232  1  0.60739287  0.19799042  0.80955429  1
  Rh  Rh233  1  0.20280106  -0.00990629  -0.00441599  1
  Rh  Rh234  1  0.80292195  0.40242142  0.60437499  1
  Rh  Rh235  1  -0.00238373  0.00197089  0.60145352  1
  Rh  Rh236  1  0.20360129  0.59600249  0.20604595  1
  Rh  Rh237  1  0.20337569  0.60267379  0.39509332  1
  Rh  Rh238  1  -0.00701373  0.19567496  -0.00730111  1
  Rh  Rh239  1  -0.00735464  0.00205676  0.00443111  1
  Rh  Rh240  1  0.58623022  0.00373342  0.79448783  1
  Rh  Rh241  1  0.20360104  0.00460035  0.40409137  1
  Rh  Rh242  1  0.00727201  0.60700954  0.59884562  1
  Rh  Rh243  1  0.80176374  0.19524810  0.59641808  1
  Rh  Rh244  1  0.61156417  0.60706430  0.00554076  1
  Rh  Rh245  1  -0.00473771  0.00593255  0.79795784  1
  Rh  Rh246  1  0.79309160  0.00189243  0.39869588  1
  Rh  Rh247  1  -0.01095161  0.39710061  0.20607975  1
  Rh  Rh248  1  0.79120929  0.58932091  0.80572331  1
  Rh  Rh249  1  0.60216472  0.00098836  0.40308351  1
