# generated using pymatgen
data_ZrScNbPdRh
_symmetry_space_group_name_H-M   'P 1'
_cell_length_a   16.55777270
_cell_length_b   16.55772932
_cell_length_c   16.55841327
_cell_angle_alpha   89.99700776
_cell_angle_beta   90.00112333
_cell_angle_gamma   90.02824116
_symmetry_Int_Tables_number   1
_chemical_formula_structural   ZrScNbPdRh
_chemical_formula_sum   'Zr50 Sc50 Nb50 Pd50 Rh50'
_cell_volume   4539.63942743
_cell_formula_units_Z   50
loop_
 _symmetry_equiv_pos_site_id
 _symmetry_equiv_pos_as_xyz
  1  'x, y, z'
loop_
 _atom_site_type_symbol
 _atom_site_label
 _atom_site_symmetry_multiplicity
 _atom_site_fract_x
 _atom_site_fract_y
 _atom_site_fract_z
 _atom_site_occupancy
  Zr  Zr0  1  0.69784204  0.89583800  0.90582421  1
  Zr  Zr1  1  0.70509726  0.89745105  0.69130987  1
  Zr  Zr2  1  0.29741253  0.90186633  0.69643993  1
  Zr  Zr3  1  0.69709196  0.67521848  0.49801512  1
  Zr  Zr4  1  0.29825170  0.29388782  0.88760476  1
  Zr  Zr5  1  0.10884518  0.90251074  0.49672215  1
  Zr  Zr6  1  0.49398462  0.29612634  0.29969377  1
  Zr  Zr7  1  0.90048548  0.89268055  0.89671738  1
  Zr  Zr8  1  0.69670265  0.30754852  0.89305617  1
  Zr  Zr9  1  0.89984297  0.30731618  0.10308361  1
  Zr  Zr10  1  0.30002769  0.69665032  0.50452995  1
  Zr  Zr11  1  0.90240059  0.09748277  0.30783435  1
  Zr  Zr12  1  0.10107746  0.10260852  0.69869772  1
  Zr  Zr13  1  0.09852222  0.70514473  0.49823528  1
  Zr  Zr14  1  0.09435428  0.50328159  0.89638058  1
  Zr  Zr15  1  0.49728927  0.89189498  0.70298851  1
  Zr  Zr16  1  0.09226823  0.29608572  0.50497395  1
  Zr  Zr17  1  0.89408888  0.90376051  0.49869111  1
  Zr  Zr18  1  0.29844169  0.50341334  0.10496525  1
  Zr  Zr19  1  0.70494796  0.10746529  0.50543967  1
  Zr  Zr20  1  0.29414438  0.90806897  0.30206871  1
  Zr  Zr21  1  0.30339728  0.90377900  0.50054297  1
  Zr  Zr22  1  0.88913712  0.49910860  0.50750563  1
  Zr  Zr23  1  0.30218029  0.30619916  0.68678125  1
  Zr  Zr24  1  0.30811798  0.50025599  0.30118981  1
  Zr  Zr25  1  0.30479702  0.49842427  0.50686884  1
  Zr  Zr26  1  0.89318060  0.90216373  0.09389868  1
  Zr  Zr27  1  0.69972522  0.49863141  0.67867725  1
  Zr  Zr28  1  0.90380544  0.50237346  0.90459289  1
  Zr  Zr29  1  0.90135921  0.50024719  0.10025537  1
  Zr  Zr30  1  0.49871669  0.69439661  0.70242162  1
  Zr  Zr31  1  0.11273938  0.10245429  0.09727240  1
  Zr  Zr32  1  0.10229092  0.50957288  0.29721723  1
  Zr  Zr33  1  0.69546744  0.69731664  0.70014167  1
  Zr  Zr34  1  0.89932118  0.30342657  0.89604356  1
  Zr  Zr35  1  0.50759916  0.90751590  0.30552430  1
  Zr  Zr36  1  0.70284615  0.70078529  0.30302810  1
  Zr  Zr37  1  0.90362718  0.89531219  0.69790452  1
  Zr  Zr38  1  0.50224576  0.89191439  0.90505913  1
  Zr  Zr39  1  0.50365932  0.31204964  0.89781184  1
  Zr  Zr40  1  0.30229236  0.30333276  0.30303788  1
  Zr  Zr41  1  0.29620813  0.09932007  0.89900819  1
  Zr  Zr42  1  0.70425063  0.30940003  0.09998194  1
  Zr  Zr43  1  0.69985039  0.09971893  0.89499186  1
  Zr  Zr44  1  0.69941758  0.89882676  0.48590084  1
  Zr  Zr45  1  0.90671150  0.69498157  0.29827247  1
  Zr  Zr46  1  0.11755884  0.89804510  0.10716710  1
  Zr  Zr47  1  0.49823879  0.10167571  0.11339942  1
  Zr  Zr48  1  0.10177661  0.89632328  0.30308152  1
  Zr  Zr49  1  0.50534906  0.70265130  0.89025114  1
  Sc  Sc50  1  0.11055204  0.10024482  0.89343809  1
  Sc  Sc51  1  0.89878574  0.30312020  0.68990942  1
  Sc  Sc52  1  0.10371259  0.50025632  0.09597342  1
  Sc  Sc53  1  0.49789446  0.70656802  0.10786223  1
  Sc  Sc54  1  0.30073341  0.09482012  0.50476947  1
  Sc  Sc55  1  0.90176539  0.29970646  0.29702614  1
  Sc  Sc56  1  0.71446977  0.49787129  0.09600574  1
  Sc  Sc57  1  0.09627205  0.69559296  0.89686761  1
  Sc  Sc58  1  0.50018155  0.49725768  0.10256670  1
  Sc  Sc59  1  0.69417940  0.89751062  0.10357611  1
  Sc  Sc60  1  0.50109330  0.29949200  0.10651325  1
  Sc  Sc61  1  0.29221787  0.29648370  0.10532671  1
  Sc  Sc62  1  0.10418894  0.30311791  0.10160331  1
  Sc  Sc63  1  0.29711230  0.10806718  0.70262810  1
  Sc  Sc64  1  0.49963424  0.29860668  0.70243112  1
  Sc  Sc65  1  0.09317396  0.70085220  0.69459292  1
  Sc  Sc66  1  0.30320498  0.69214608  0.69990593  1
  Sc  Sc67  1  0.49419721  0.09268111  0.49814681  1
  Sc  Sc68  1  0.70068966  0.89713102  0.29870352  1
  Sc  Sc69  1  0.90258907  0.70526196  0.69569030  1
  Sc  Sc70  1  0.89311538  0.89838086  0.30699566  1
  Sc  Sc71  1  0.89906205  0.49726499  0.30224296  1
  Sc  Sc72  1  0.51155574  0.50191947  0.49692562  1
  Sc  Sc73  1  0.49222401  0.30121436  0.50704756  1
  Sc  Sc74  1  0.70565995  0.70113967  0.10407883  1
  Sc  Sc75  1  0.89508001  0.09317921  0.89612024  1
  Sc  Sc76  1  0.70328229  0.09020751  0.10250304  1
  Sc  Sc77  1  0.90076730  0.69639187  0.09701479  1
  Sc  Sc78  1  0.10279940  0.30297680  0.90386634  1
  Sc  Sc79  1  0.09821309  0.70412896  0.10923951  1
  Sc  Sc80  1  0.09766687  0.30055492  0.68921711  1
  Sc  Sc81  1  0.30363716  0.68715731  0.30174723  1
  Sc  Sc82  1  0.90288962  0.69859357  0.49795625  1
  Sc  Sc83  1  0.09714470  0.30105468  0.29392153  1
  Sc  Sc84  1  0.09568973  0.90120031  0.88899045  1
  Sc  Sc85  1  0.70154611  0.09302340  0.29791846  1
  Sc  Sc86  1  0.09860779  0.89847457  0.69690546  1
  Sc  Sc87  1  0.88614353  0.11030170  0.69374312  1
  Sc  Sc88  1  0.30924247  0.10283015  0.30138528  1
  Sc  Sc89  1  0.30254494  0.70057692  0.89720269  1
  Sc  Sc90  1  0.90137598  0.29820869  0.49687011  1
  Sc  Sc91  1  0.28811659  0.50943839  0.89822515  1
  Sc  Sc92  1  0.49665166  0.69753304  0.29943896  1
  Sc  Sc93  1  0.10183125  0.09664109  0.30554962  1
  Sc  Sc94  1  0.30545489  0.89615232  0.91061935  1
  Sc  Sc95  1  0.30427781  0.71169411  0.09897976  1
  Sc  Sc96  1  0.50696553  0.09538563  0.89691887  1
  Sc  Sc97  1  0.08781954  0.50732479  0.50393124  1
  Sc  Sc98  1  0.70837313  0.30653119  0.30787760  1
  Sc  Sc99  1  0.89167978  0.09810808  0.10767661  1
  Nb  Nb100  1  0.70036534  0.69405249  0.89883547  1
  Nb  Nb101  1  0.69963507  0.48892541  0.48946514  1
  Nb  Nb102  1  0.09102880  0.10536700  0.49666678  1
  Nb  Nb103  1  0.08899345  0.50834796  0.70586685  1
  Nb  Nb104  1  0.69421490  0.50034523  0.32175539  1
  Nb  Nb105  1  0.69444584  0.10946708  0.69900682  1
  Nb  Nb106  1  0.09327505  0.69766864  0.30489291  1
  Nb  Nb107  1  0.49870943  0.50043051  0.30088458  1
  Nb  Nb108  1  0.90160041  0.50193680  0.70122585  1
  Nb  Nb109  1  0.69402409  0.30926685  0.50458094  1
  Nb  Nb110  1  0.49785137  0.70161131  0.50186688  1
  Nb  Nb111  1  0.49520095  0.49513712  0.70746593  1
  Nb  Nb112  1  0.29256361  0.30343561  0.50465080  1
  Nb  Nb113  1  0.30968700  0.90856939  0.10218502  1
  Nb  Nb114  1  0.70172897  0.28601374  0.69252113  1
  Nb  Nb115  1  0.50967399  0.49470271  0.89991584  1
  Nb  Nb116  1  0.50058291  0.90262315  0.50092453  1
  Nb  Nb117  1  0.29996668  0.09256262  0.09483094  1
  Nb  Nb118  1  0.48661234  0.89513930  0.10330432  1
  Nb  Nb119  1  0.50555795  0.10752339  0.30477574  1
  Nb  Nb120  1  0.90750882  0.10246763  0.49369339  1
  Nb  Nb121  1  0.29393778  0.50087359  0.69854167  1
  Nb  Nb122  1  0.50690886  0.09579562  0.69570730  1
  Nb  Nb123  1  0.69880281  0.49511934  0.90090641  1
  Nb  Nb124  1  0.89592800  0.69902435  0.89820617  1
  Nb  Nb125  1  0.20071218  0.39877092  0.40579061  1
  Nb  Nb126  1  0.40333043  0.80394349  0.40721740  1
  Nb  Nb127  1  0.60303097  0.59166801  0.20349205  1
  Nb  Nb128  1  0.79846933  0.20311997  -0.00241349  1
  Nb  Nb129  1  0.79611602  0.40644277  0.79227073  1
  Nb  Nb130  1  0.40329234  -0.00134173  0.79749182  1
  Nb  Nb131  1  0.79269453  -0.00176720  0.79361171  1
  Nb  Nb132  1  0.40171924  0.20079296  0.00020073  1
  Nb  Nb133  1  -0.00439130  0.19488079  -0.00131600  1
  Nb  Nb134  1  0.20109230  0.79817381  0.79611863  1
  Nb  Nb135  1  0.00291350  0.00197732  0.00525370  1
  Nb  Nb136  1  -0.00225387  0.20006236  0.80216955  1
  Nb  Nb137  1  0.19995476  0.20636821  0.40905502  1
  Nb  Nb138  1  0.60196161  0.20268258  0.00244087  1
  Nb  Nb139  1  0.40975896  0.59537408  -0.00399958  1
  Nb  Nb140  1  0.79922803  0.59581798  0.80306499  1
  Nb  Nb141  1  0.60300760  0.40851776  0.21116531  1
  Nb  Nb142  1  0.19592484  0.40900644  0.78867076  1
  Nb  Nb143  1  0.59818239  0.20117633  0.40078856  1
  Nb  Nb144  1  0.39763807  0.40165152  -0.00508134  1
  Nb  Nb145  1  0.60110057  -0.00200865  0.60051091  1
  Nb  Nb146  1  -0.00292491  0.00658614  0.59212958  1
  Nb  Nb147  1  0.60137438  0.59625171  -0.00249133  1
  Nb  Nb148  1  0.59605072  0.79932674  0.59093390  1
  Nb  Nb149  1  0.00383896  -0.00467170  0.19643050  1
  Pd  Pd150  1  0.39735412  0.19748071  0.41098414  1
  Pd  Pd151  1  0.00293757  0.40207792  0.39909448  1
  Pd  Pd152  1  0.60651224  0.58822465  0.79899270  1
  Pd  Pd153  1  0.59235063  0.00360378  0.01102133  1
  Pd  Pd154  1  0.20991122  0.79067051  0.21073885  1
  Pd  Pd155  1  0.20095328  0.60836671  0.19595250  1
  Pd  Pd156  1  0.00125101  0.19042405  0.19540728  1
  Pd  Pd157  1  0.19231889  0.59954884  0.60315485  1
  Pd  Pd158  1  0.59496939  0.79089656  0.40048662  1
  Pd  Pd159  1  0.59078360  0.39631285  0.60336322  1
  Pd  Pd160  1  0.19394757  0.00717991  0.59834740  1
  Pd  Pd161  1  0.61371172  0.20860625  0.20481132  1
  Pd  Pd162  1  0.40195141  0.19450110  0.59843542  1
  Pd  Pd163  1  0.40184573  0.00264747  0.20831985  1
  Pd  Pd164  1  0.79254422  0.78702962  0.58710007  1
  Pd  Pd165  1  0.21089305  0.79053741  0.39341736  1
  Pd  Pd166  1  0.18613308  0.41316022  0.59925046  1
  Pd  Pd167  1  -0.01019289  0.00947511  0.79198922  1
  Pd  Pd168  1  -0.00664450  0.80641638  0.19816440  1
  Pd  Pd169  1  0.79593883  0.79445914  0.00240854  1
  Pd  Pd170  1  0.19598589  0.79858250  -0.00907368  1
  Pd  Pd171  1  0.59922555  -0.00495912  0.19727909  1
  Pd  Pd172  1  0.19880818  0.59378315  0.40564018  1
  Pd  Pd173  1  0.79412800  0.59211412  0.20804874  1
  Pd  Pd174  1  0.79617619  0.20466243  0.40254632  1
  Pd  Pd175  1  0.59954878  0.78954651  0.01019782  1
  Pd  Pd176  1  0.38817310  0.41056923  0.80410602  1
  Pd  Pd177  1  0.41099573  0.19077404  0.80189097  1
  Pd  Pd178  1  -0.00510472  0.80444818  0.40296972  1
  Pd  Pd179  1  0.40205670  0.39851257  0.19221587  1
  Pd  Pd180  1  0.39594700  0.80364245  0.21461057  1
  Pd  Pd181  1  0.40016414  0.79856844  0.59768039  1
  Pd  Pd182  1  0.79506449  0.19923759  0.19907687  1
  Pd  Pd183  1  0.79589204  0.79732203  0.80075499  1
  Pd  Pd184  1  0.00467044  0.60651296  0.00559312  1
  Pd  Pd185  1  0.19538326  -0.00952535  -0.00881625  1
  Pd  Pd186  1  0.20424002  0.61226285  0.00571373  1
  Pd  Pd187  1  0.39838979  0.59043064  0.80711667  1
  Pd  Pd188  1  0.00166969  0.39168140  0.79245870  1
  Pd  Pd189  1  0.20702178  0.39774534  -0.00804082  1
  Pd  Pd190  1  0.40920734  0.59042441  0.59913294  1
  Pd  Pd191  1  0.59308676  0.20396461  0.80323214  1
  Pd  Pd192  1  0.00652004  0.40663659  0.19835948  1
  Pd  Pd193  1  0.60202438  -0.00860530  0.79278167  1
  Pd  Pd194  1  0.20414548  0.19411503  0.21046373  1
  Pd  Pd195  1  0.80022867  0.00610560  0.60055802  1
  Pd  Pd196  1  0.00744507  0.80394540  0.00013095  1
  Pd  Pd197  1  0.80564897  0.80154068  0.19961631  1
  Pd  Pd198  1  0.40955305  0.00712738  -0.00490986  1
  Pd  Pd199  1  0.40259891  0.40211920  0.40951827  1
  Rh  Rh200  1  0.40165983  -0.00235895  0.39504480  1
  Rh  Rh201  1  0.80110323  0.78989231  0.40205150  1
  Rh  Rh202  1  0.58969113  0.59865579  0.60131128  1
  Rh  Rh203  1  0.80717838  0.60480950  0.60597800  1
  Rh  Rh204  1  0.40670831  0.40710147  0.60171538  1
  Rh  Rh205  1  -0.00617099  0.19229120  0.60684096  1
  Rh  Rh206  1  0.20166307  0.01337032  0.40192346  1
  Rh  Rh207  1  0.80245680  0.00160125  -0.00891377  1
  Rh  Rh208  1  0.20194432  0.00680318  0.20314026  1
  Rh  Rh209  1  0.59502216  0.40097516  0.01427371  1
  Rh  Rh210  1  0.19879776  0.40442533  0.21044243  1
  Rh  Rh211  1  0.20484986  0.20314123  0.00070919  1
  Rh  Rh212  1  -0.00264334  0.40688184  0.60136031  1
  Rh  Rh213  1  0.00322500  0.81084483  0.59101442  1
  Rh  Rh214  1  0.60410172  0.01304920  0.40663452  1
  Rh  Rh215  1  0.60837848  0.80281589  0.79519316  1
  Rh  Rh216  1  0.21323522  -0.01208988  0.80391636  1
  Rh  Rh217  1  0.00161741  0.59779208  0.19773585  1
  Rh  Rh218  1  0.00660485  0.79250589  0.80144752  1
  Rh  Rh219  1  0.79929185  0.39295289  0.59968723  1
  Rh  Rh220  1  0.59386501  0.19550406  0.59230916  1
  Rh  Rh221  1  0.80250484  0.20318734  0.80172379  1
  Rh  Rh222  1  0.40523773  0.00320207  0.61033077  1
  Rh  Rh223  1  0.79643275  0.60315246  -0.00647084  1
  Rh  Rh224  1  0.80559282  -0.00769008  0.20634191  1
  Rh  Rh225  1  0.38736325  0.80592009  0.80136305  1
  Rh  Rh226  1  0.61124909  0.40361280  0.78113152  1
  Rh  Rh227  1  0.79339176  0.40928972  0.21258577  1
  Rh  Rh228  1  0.20074300  0.79327635  0.60759732  1
  Rh  Rh229  1  0.59013872  0.60457679  0.39391405  1
  Rh  Rh230  1  0.19435358  0.60346750  0.79271137  1
  Rh  Rh231  1  0.00251805  -0.00667921  0.39941368  1
  Rh  Rh232  1  0.80848888  0.59774844  0.39807204  1
  Rh  Rh233  1  0.59078773  0.38735250  0.39708905  1
  Rh  Rh234  1  -0.00616066  0.60137621  0.60077471  1
  Rh  Rh235  1  0.80348967  0.20689380  0.58974706  1
  Rh  Rh236  1  0.00311789  0.39539722  0.00797505  1
  Rh  Rh237  1  0.79580817  0.00584942  0.39765133  1
  Rh  Rh238  1  0.18811018  0.21638116  0.79072700  1
  Rh  Rh239  1  0.38898293  0.19457162  0.19187078  1
  Rh  Rh240  1  0.59799592  0.79749130  0.20047593  1
  Rh  Rh241  1  0.00518341  0.20625459  0.39106430  1
  Rh  Rh242  1  0.20244347  0.19397457  0.59495721  1
  Rh  Rh243  1  -0.00413458  0.59794667  0.40106761  1
  Rh  Rh244  1  -0.01058014  0.60964531  0.79829147  1
  Rh  Rh245  1  0.80663135  0.39819186  -0.00810192  1
  Rh  Rh246  1  0.40503824  0.79246262  0.00014993  1
  Rh  Rh247  1  0.40533818  0.60279586  0.40696325  1
  Rh  Rh248  1  0.40591950  0.59856572  0.18983452  1
  Rh  Rh249  1  0.80739082  0.39582602  0.40270971  1
