# generated using pymatgen
data_ZrScNbPdRh
_symmetry_space_group_name_H-M   'P 1'
_cell_length_a   16.55491314
_cell_length_b   16.55579958
_cell_length_c   16.55530075
_cell_angle_alpha   89.99310931
_cell_angle_beta   89.99554624
_cell_angle_gamma   90.01898092
_symmetry_Int_Tables_number   1
_chemical_formula_structural   ZrScNbPdRh
_chemical_formula_sum   'Zr50 Sc50 Nb50 Pd50 Rh50'
_cell_volume   4537.47361930
_cell_formula_units_Z   50
loop_
 _symmetry_equiv_pos_site_id
 _symmetry_equiv_pos_as_xyz
  1  'x, y, z'
loop_
 _atom_site_type_symbol
 _atom_site_label
 _atom_site_symmetry_multiplicity
 _atom_site_fract_x
 _atom_site_fract_y
 _atom_site_fract_z
 _atom_site_occupancy
  Zr  Zr0  1  0.29566219  0.09968015  0.90268729  1
  Zr  Zr1  1  0.69324590  0.70658921  0.30534631  1
  Zr  Zr2  1  0.30365754  0.10198252  0.29536998  1
  Zr  Zr3  1  0.69895982  0.69553104  0.49991043  1
  Zr  Zr4  1  0.50612557  0.29984845  0.69651157  1
  Zr  Zr5  1  0.90153708  0.70567157  0.09497531  1
  Zr  Zr6  1  0.10605163  0.90060998  0.49908402  1
  Zr  Zr7  1  0.89952007  0.29438256  0.10038781  1
  Zr  Zr8  1  0.10602513  0.68760263  0.89802083  1
  Zr  Zr9  1  0.10895694  0.90467649  0.69642997  1
  Zr  Zr10  1  0.29724387  0.29622775  0.30265147  1
  Zr  Zr11  1  0.10865255  0.50134313  0.30081273  1
  Zr  Zr12  1  0.50537107  0.89239379  0.28834324  1
  Zr  Zr13  1  0.89868877  0.90256469  0.71469917  1
  Zr  Zr14  1  0.70322445  0.70131290  0.70119303  1
  Zr  Zr15  1  0.10036648  0.50370273  0.70608736  1
  Zr  Zr16  1  0.29961856  0.70398482  0.29765938  1
  Zr  Zr17  1  0.69780430  0.09707744  0.90065588  1
  Zr  Zr18  1  0.89829598  0.70898821  0.30282902  1
  Zr  Zr19  1  0.70216392  0.90449170  0.29364809  1
  Zr  Zr20  1  0.49569326  0.48766416  0.70422172  1
  Zr  Zr21  1  0.29283154  0.50481017  0.29236117  1
  Zr  Zr22  1  0.30822463  0.90214294  0.91150415  1
  Zr  Zr23  1  0.69660666  0.90118307  0.09771034  1
  Zr  Zr24  1  0.69990104  0.90430298  0.49870175  1
  Zr  Zr25  1  0.51410775  0.50002418  0.49971055  1
  Zr  Zr26  1  0.29083336  0.50005076  0.89246389  1
  Zr  Zr27  1  0.49773367  0.29996005  0.89816205  1
  Zr  Zr28  1  0.49714134  0.09840743  0.90433682  1
  Zr  Zr29  1  0.29555170  0.89846903  0.50712932  1
  Zr  Zr30  1  0.49750243  0.70356132  0.71483832  1
  Zr  Zr31  1  0.50277917  0.50782555  0.89192326  1
  Zr  Zr32  1  0.90430022  0.91033062  0.29404236  1
  Zr  Zr33  1  0.90024104  0.90453551  0.08951926  1
  Zr  Zr34  1  0.90281559  0.49503167  0.30887711  1
  Zr  Zr35  1  0.49698329  0.10073065  0.30132899  1
  Zr  Zr36  1  0.50451933  0.70011824  0.49953715  1
  Zr  Zr37  1  0.30084399  0.09352405  0.09618626  1
  Zr  Zr38  1  0.69872588  0.09734075  0.30037207  1
  Zr  Zr39  1  0.30155551  0.70457267  0.90269012  1
  Zr  Zr40  1  0.31675695  0.30365098  0.69296278  1
  Zr  Zr41  1  0.49822518  0.29480075  0.09727631  1
  Zr  Zr42  1  0.89599638  0.28533663  0.69497264  1
  Zr  Zr43  1  0.90106244  0.10890857  0.29804952  1
  Zr  Zr44  1  0.69803542  0.49836438  0.89840022  1
  Zr  Zr45  1  0.90039187  0.49496070  0.09629732  1
  Zr  Zr46  1  0.69379970  0.49502282  0.70036632  1
  Zr  Zr47  1  0.90217398  0.09615246  0.89479595  1
  Zr  Zr48  1  0.89311643  0.10760781  0.50385321  1
  Zr  Zr49  1  0.10166006  0.09960029  0.70763425  1
  Sc  Sc50  1  0.31499168  0.09947727  0.49102776  1
  Sc  Sc51  1  0.10155109  0.09915352  0.49325006  1
  Sc  Sc52  1  0.49522574  0.28713441  0.50830517  1
  Sc  Sc53  1  0.29793204  0.90426602  0.29199810  1
  Sc  Sc54  1  0.09970793  0.90520365  0.10212335  1
  Sc  Sc55  1  0.70014299  0.29550875  0.30329014  1
  Sc  Sc56  1  0.09107967  0.91189279  0.90103805  1
  Sc  Sc57  1  0.90418160  0.70561869  0.89637506  1
  Sc  Sc58  1  0.70681788  0.29838935  0.90073028  1
  Sc  Sc59  1  0.28873669  0.50696621  0.49403965  1
  Sc  Sc60  1  0.09918829  0.29623818  0.31237323  1
  Sc  Sc61  1  0.09459347  0.50141165  0.50330552  1
  Sc  Sc62  1  0.09041419  0.28796382  0.69788499  1
  Sc  Sc63  1  0.69707686  0.90409869  0.70946749  1
  Sc  Sc64  1  0.29336010  0.71090297  0.09893147  1
  Sc  Sc65  1  0.10819855  0.71050538  0.29979217  1
  Sc  Sc66  1  0.69000205  0.49458649  0.31181180  1
  Sc  Sc67  1  0.70610786  0.29252804  0.50366469  1
  Sc  Sc68  1  0.88881821  0.70551817  0.50118221  1
  Sc  Sc69  1  0.09828485  0.90617670  0.30368878  1
  Sc  Sc70  1  0.29771228  0.70508434  0.69993435  1
  Sc  Sc71  1  0.50549014  0.70470936  0.10589192  1
  Sc  Sc72  1  0.50602714  0.09464739  0.68789895  1
  Sc  Sc73  1  0.89801979  0.50274962  0.69991898  1
  Sc  Sc74  1  0.70771662  0.09553996  0.69566351  1
  Sc  Sc75  1  0.69807370  0.29394766  0.09719027  1
  Sc  Sc76  1  0.49892212  0.90221136  0.70652952  1
  Sc  Sc77  1  0.29690271  0.29597175  0.09710425  1
  Sc  Sc78  1  0.09321895  0.09449779  0.30122295  1
  Sc  Sc79  1  0.28942149  0.70483303  0.50102923  1
  Sc  Sc80  1  0.69656021  0.90352432  0.90139426  1
  Sc  Sc81  1  0.10220575  0.29300451  0.90126360  1
  Sc  Sc82  1  0.50057063  0.10559623  0.09892500  1
  Sc  Sc83  1  0.49887236  0.89623725  0.09602693  1
  Sc  Sc84  1  0.89711763  0.49243558  0.50252526  1
  Sc  Sc85  1  0.10140742  0.30107418  0.09232043  1
  Sc  Sc86  1  0.50329404  0.89321562  0.89897425  1
  Sc  Sc87  1  0.69989041  0.50455378  0.09279820  1
  Sc  Sc88  1  0.10735531  0.49463621  0.90075481  1
  Sc  Sc89  1  0.68792267  0.69741070  0.90341651  1
  Sc  Sc90  1  0.50692817  0.51160816  0.10862951  1
  Sc  Sc91  1  0.89564019  0.29595845  0.90359544  1
  Sc  Sc92  1  0.89436942  0.49400756  0.90209181  1
  Sc  Sc93  1  0.09319176  0.69275189  0.70334129  1
  Sc  Sc94  1  0.89718380  0.90330964  0.49079418  1
  Sc  Sc95  1  0.50479562  0.29547214  0.29488206  1
  Sc  Sc96  1  0.89946854  0.69964534  0.70652144  1
  Sc  Sc97  1  0.90675701  0.29842122  0.49689449  1
  Sc  Sc98  1  0.30202825  0.90314957  0.69724198  1
  Sc  Sc99  1  0.29492040  0.29961443  0.90341484  1
  Nb  Nb100  1  0.70097736  0.69806550  0.10040034  1
  Nb  Nb101  1  0.89874743  0.09892249  0.10609277  1
  Nb  Nb102  1  0.09858538  0.69694556  0.09775142  1
  Nb  Nb103  1  0.69918709  0.29369185  0.70429404  1
  Nb  Nb104  1  0.30022665  0.90440198  0.09706480  1
  Nb  Nb105  1  0.69141463  0.09860415  0.50032820  1
  Nb  Nb106  1  0.49580476  0.70268719  0.90381775  1
  Nb  Nb107  1  0.09986693  0.70481215  0.50124065  1
  Nb  Nb108  1  0.10414171  0.10465520  0.90015899  1
  Nb  Nb109  1  0.29006256  0.49785149  0.10050968  1
  Nb  Nb110  1  0.90246547  0.30277091  0.30257763  1
  Nb  Nb111  1  0.30055943  0.49567425  0.69766764  1
  Nb  Nb112  1  0.49543833  0.49957693  0.30194977  1
  Nb  Nb113  1  0.69866649  0.50625861  0.50316477  1
  Nb  Nb114  1  0.70566810  0.09367419  0.10022071  1
  Nb  Nb115  1  0.10119858  0.10112951  0.09942897  1
  Nb  Nb116  1  0.29694482  0.10079091  0.69949577  1
  Nb  Nb117  1  0.29960784  0.29270877  0.49462148  1
  Nb  Nb118  1  0.90540564  0.10285580  0.70028740  1
  Nb  Nb119  1  0.89668112  0.90493495  0.90143256  1
  Nb  Nb120  1  0.10470189  0.29513758  0.50099965  1
  Nb  Nb121  1  0.10879878  0.50038148  0.10577576  1
  Nb  Nb122  1  0.49797028  0.90467115  0.50722539  1
  Nb  Nb123  1  0.51073786  0.09335876  0.49979630  1
  Nb  Nb124  1  0.49732308  0.69757328  0.29913845  1
  Nb  Nb125  1  0.39682332  0.59912480  0.00078153  1
  Nb  Nb126  1  0.20775948  0.20193085  0.59497087  1
  Nb  Nb127  1  0.40529711  0.79953863  0.39946946  1
  Nb  Nb128  1  0.40208330  0.19559302  0.79430945  1
  Nb  Nb129  1  0.00639869  0.59721781  0.00728218  1
  Nb  Nb130  1  0.19927885  0.80320846  0.80558018  1
  Nb  Nb131  1  -0.00265130  0.00086466  0.60428293  1
  Nb  Nb132  1  0.59922988  0.19942597  0.79667586  1
  Nb  Nb133  1  0.40041359  0.59578605  0.60008673  1
  Nb  Nb134  1  0.00115288  0.40092834  0.20227887  1
  Nb  Nb135  1  0.59202842  0.40138033  -0.00223922  1
  Nb  Nb136  1  0.80247327  0.60102913  0.20241495  1
  Nb  Nb137  1  0.19725498  0.19278693  0.19879781  1
  Nb  Nb138  1  0.00162423  0.59917443  0.19968548  1
  Nb  Nb139  1  0.79856008  0.79813768  0.19378769  1
  Nb  Nb140  1  0.59901532  0.80216091  0.59939988  1
  Nb  Nb141  1  0.80503143  0.40114787  0.20322595  1
  Nb  Nb142  1  0.00075159  0.80650762  0.60078385  1
  Nb  Nb143  1  0.39830090  0.40512405  0.19939378  1
  Nb  Nb144  1  0.40014546  0.40346913  0.39623642  1
  Nb  Nb145  1  -0.00144493  0.39485746  0.79744446  1
  Nb  Nb146  1  0.40037624  0.41195801  0.00477238  1
  Nb  Nb147  1  0.20171369  0.39227550  0.59956549  1
  Nb  Nb148  1  0.40483022  0.60091047  0.39864535  1
  Nb  Nb149  1  0.00156731  0.60614865  0.39825218  1
  Pd  Pd150  1  0.39104744  0.60033094  0.79733710  1
  Pd  Pd151  1  0.80512101  0.59610991  0.60114027  1
  Pd  Pd152  1  0.80606542  0.60412635  -0.00473715  1
  Pd  Pd153  1  0.19302598  0.38596000  0.78846705  1
  Pd  Pd154  1  -0.00025124  0.79886831  0.40721760  1
  Pd  Pd155  1  0.60979210  0.59796273  0.20706326  1
  Pd  Pd156  1  0.00100672  0.01091161  0.00268178  1
  Pd  Pd157  1  0.79996967  0.80854932  0.60321600  1
  Pd  Pd158  1  0.39455810  0.60118145  0.19446633  1
  Pd  Pd159  1  0.79180247  0.79896158  -0.00523173  1
  Pd  Pd160  1  0.79625681  0.39718068  0.60102983  1
  Pd  Pd161  1  0.59419105  -0.00112937  0.00430930  1
  Pd  Pd162  1  0.20702581  0.00260561  0.39867340  1
  Pd  Pd163  1  0.00916983  0.80301667  0.80010168  1
  Pd  Pd164  1  0.20248664  0.59882254  0.60388251  1
  Pd  Pd165  1  0.59312186  0.60541428  0.61361189  1
  Pd  Pd166  1  0.60567386  0.19343789  0.19608339  1
  Pd  Pd167  1  0.80223179  0.59620798  0.39862574  1
  Pd  Pd168  1  0.00793165  0.40287101  -0.00386573  1
  Pd  Pd169  1  0.59447195  -0.00593721  0.39536963  1
  Pd  Pd170  1  0.79368254  0.39449444  0.40227692  1
  Pd  Pd171  1  0.80447729  -0.00415212  0.60361367  1
  Pd  Pd172  1  -0.01029487  0.60996232  0.59103410  1
  Pd  Pd173  1  0.39262706  0.41080734  0.58076020  1
  Pd  Pd174  1  0.40187373  0.00386260  0.79720090  1
  Pd  Pd175  1  0.20525773  -0.00762794  0.80805082  1
  Pd  Pd176  1  0.00518406  0.39661270  0.60531044  1
  Pd  Pd177  1  0.00929712  0.79766820  -0.00955177  1
  Pd  Pd178  1  0.40669043  -0.00310811  0.19306934  1
  Pd  Pd179  1  0.00096003  0.80249358  0.19811343  1
  Pd  Pd180  1  0.79233588  0.79882105  0.81242032  1
  Pd  Pd181  1  0.40533704  0.79388570  0.59825007  1
  Pd  Pd182  1  0.79443865  0.20521170  0.20247409  1
  Pd  Pd183  1  0.01120727  0.20722203  0.20125975  1
  Pd  Pd184  1  0.20891436  0.20965225  0.79140364  1
  Pd  Pd185  1  0.79930768  0.19299706  0.00009159  1
  Pd  Pd186  1  0.79986295  0.60198923  0.80595187  1
  Pd  Pd187  1  0.80684232  0.39563273  0.79418277  1
  Pd  Pd188  1  0.19668765  0.80927070  0.19772554  1
  Pd  Pd189  1  0.40392382  -0.01169878  0.39709013  1
  Pd  Pd190  1  0.59736708  0.20448051  0.40406205  1
  Pd  Pd191  1  0.80218415  0.00706878  0.39897459  1
  Pd  Pd192  1  0.60400959  0.40263140  0.19260724  1
  Pd  Pd193  1  0.59614328  0.80883093  0.40557752  1
  Pd  Pd194  1  0.60901505  0.39138104  0.59135459  1
  Pd  Pd195  1  0.18921460  0.80974761  -0.00450077  1
  Pd  Pd196  1  0.20039871  0.40069557  0.40719264  1
  Pd  Pd197  1  0.59568320  0.38561452  0.40795601  1
  Pd  Pd198  1  0.39788388  0.00444928  0.60172517  1
  Pd  Pd199  1  -0.00053568  0.19443328  -0.00370828  1
  Rh  Rh200  1  0.19354458  0.00015120  -0.00039724  1
  Rh  Rh201  1  -0.00679910  0.00608945  0.40613281  1
  Rh  Rh202  1  0.59609937  0.00723409  0.19410230  1
  Rh  Rh203  1  0.20164032  0.59874538  0.00710898  1
  Rh  Rh204  1  -0.00215651  0.19957744  0.40238970  1
  Rh  Rh205  1  0.39629877  0.80145871  0.19953078  1
  Rh  Rh206  1  0.19833558  0.19496524  0.00599517  1
  Rh  Rh207  1  0.19838504  0.38248981  0.19604409  1
  Rh  Rh208  1  -0.00439538  0.20398677  0.80940717  1
  Rh  Rh209  1  0.60426846  -0.00745521  0.60179575  1
  Rh  Rh210  1  0.59925905  0.79594943  0.00092047  1
  Rh  Rh211  1  0.79956987  0.19887151  0.39934145  1
  Rh  Rh212  1  0.59884836  0.00821015  0.79971387  1
  Rh  Rh213  1  0.20646450  0.60703850  0.79064964  1
  Rh  Rh214  1  0.60296794  0.60384539  0.79631212  1
  Rh  Rh215  1  0.39761996  0.18676161  0.60087378  1
  Rh  Rh216  1  0.20238640  0.39971777  0.00074496  1
  Rh  Rh217  1  0.39347016  0.20232382  -0.00565520  1
  Rh  Rh218  1  0.40736593  -0.00205511  0.00458022  1
  Rh  Rh219  1  0.78680693  0.39685864  0.00758490  1
  Rh  Rh220  1  0.58968263  0.60082870  -0.00022490  1
  Rh  Rh221  1  -0.00596523  0.58483027  0.81274112  1
  Rh  Rh222  1  0.60796041  0.19422180  0.60367523  1
  Rh  Rh223  1  0.79571300  0.19363526  0.79855191  1
  Rh  Rh224  1  0.60712760  0.79707143  0.19392721  1
  Rh  Rh225  1  0.60878266  0.38984885  0.80667092  1
  Rh  Rh226  1  0.79720585  0.80865056  0.39240258  1
  Rh  Rh227  1  0.00020529  0.00300990  0.19454629  1
  Rh  Rh228  1  0.00957186  0.18926851  0.59306063  1
  Rh  Rh229  1  0.60199714  0.79929130  0.79893560  1
  Rh  Rh230  1  0.19578476  0.00426170  0.19728215  1
  Rh  Rh231  1  0.19902576  0.18996598  0.39744591  1
  Rh  Rh232  1  0.19277348  0.60963416  0.40255435  1
  Rh  Rh233  1  0.00062611  0.00315649  0.79835444  1
  Rh  Rh234  1  0.80007182  0.00261557  0.80303413  1
  Rh  Rh235  1  0.20723366  0.80499254  0.39731536  1
  Rh  Rh236  1  0.60735755  0.20133756  -0.00476513  1
  Rh  Rh237  1  0.41246083  0.20342938  0.39893246  1
  Rh  Rh238  1  0.40509181  0.79455645  0.00749167  1
  Rh  Rh239  1  0.80344211  -0.00169407  0.19399936  1
  Rh  Rh240  1  0.59825815  0.59906073  0.39328375  1
  Rh  Rh241  1  0.20169388  0.01605245  0.59278840  1
  Rh  Rh242  1  0.79422738  0.19648687  0.59943276  1
  Rh  Rh243  1  0.39210823  0.80732496  0.80380920  1
  Rh  Rh244  1  0.39200406  0.20573458  0.19804813  1
  Rh  Rh245  1  0.19951321  0.61171475  0.19456713  1
  Rh  Rh246  1  0.00883307  0.40320194  0.40089945  1
  Rh  Rh247  1  0.80185394  0.00470450  -0.00129655  1
  Rh  Rh248  1  0.18884999  0.79030541  0.61203873  1
  Rh  Rh249  1  0.39297911  0.39512097  0.81058763  1
