# generated using pymatgen
data_ZrScNbPdRh
_symmetry_space_group_name_H-M   'P 1'
_cell_length_a   16.55329302
_cell_length_b   16.55670920
_cell_length_c   16.54919003
_cell_angle_alpha   90.00091848
_cell_angle_beta   90.01019949
_cell_angle_gamma   90.03366305
_symmetry_Int_Tables_number   1
_chemical_formula_structural   ZrScNbPdRh
_chemical_formula_sum   'Zr50 Sc50 Nb50 Pd50 Rh50'
_cell_volume   4535.60353263
_cell_formula_units_Z   50
loop_
 _symmetry_equiv_pos_site_id
 _symmetry_equiv_pos_as_xyz
  1  'x, y, z'
loop_
 _atom_site_type_symbol
 _atom_site_label
 _atom_site_symmetry_multiplicity
 _atom_site_fract_x
 _atom_site_fract_y
 _atom_site_fract_z
 _atom_site_occupancy
  Zr  Zr0  1  0.49900314  0.29907264  0.28968491  1
  Zr  Zr1  1  0.69862868  0.50399201  0.29437337  1
  Zr  Zr2  1  0.30702334  0.50324599  0.69827215  1
  Zr  Zr3  1  0.31095544  0.30009488  0.89796257  1
  Zr  Zr4  1  0.30505962  0.09906684  0.49796318  1
  Zr  Zr5  1  0.10185159  0.69956224  0.69557811  1
  Zr  Zr6  1  0.49583795  0.89377240  0.09790361  1
  Zr  Zr7  1  0.09746699  0.49765258  0.29776994  1
  Zr  Zr8  1  0.70669524  0.89949858  0.30526050  1
  Zr  Zr9  1  0.09984741  0.09478414  0.89420367  1
  Zr  Zr10  1  0.09841034  0.09897531  0.10235871  1
  Zr  Zr11  1  0.49930462  0.49661881  0.90174596  1
  Zr  Zr12  1  0.30078602  0.90041127  0.90294998  1
  Zr  Zr13  1  0.89976514  0.30468742  0.90193586  1
  Zr  Zr14  1  0.30091775  0.49753886  0.90098945  1
  Zr  Zr15  1  0.50032006  0.10810647  0.30457909  1
  Zr  Zr16  1  0.50747695  0.49699779  0.29772073  1
  Zr  Zr17  1  0.90091729  0.69248695  0.90254373  1
  Zr  Zr18  1  0.50164859  0.30006042  0.90272756  1
  Zr  Zr19  1  0.69645246  0.70774356  0.48767406  1
  Zr  Zr20  1  0.49938266  0.09883863  0.68952075  1
  Zr  Zr21  1  0.10582183  0.90359911  0.89806105  1
  Zr  Zr22  1  0.29739924  0.90127791  0.49233150  1
  Zr  Zr23  1  0.89917696  0.70481583  0.49755468  1
  Zr  Zr24  1  0.90330751  0.49794819  0.89779617  1
  Zr  Zr25  1  0.90103762  0.09105044  0.70100251  1
  Zr  Zr26  1  0.90229880  0.69649500  0.69851737  1
  Zr  Zr27  1  0.49760931  0.50692714  0.69950973  1
  Zr  Zr28  1  0.70194107  0.50857162  0.90204226  1
  Zr  Zr29  1  0.89815119  0.49788867  0.29402498  1
  Zr  Zr30  1  0.50230072  0.70706190  0.50190422  1
  Zr  Zr31  1  0.89909467  0.90155977  0.70072493  1
  Zr  Zr32  1  0.70704446  0.89729386  0.09447114  1
  Zr  Zr33  1  0.69466525  0.48783970  0.50672506  1
  Zr  Zr34  1  0.89798394  0.90280722  0.10534911  1
  Zr  Zr35  1  0.09754875  0.50482581  0.90093663  1
  Zr  Zr36  1  0.29842703  0.49811091  0.50241759  1
  Zr  Zr37  1  0.69968006  0.29808632  0.68629339  1
  Zr  Zr38  1  0.49429342  0.70816477  0.69571964  1
  Zr  Zr39  1  0.69326668  0.50101597  0.10403792  1
  Zr  Zr40  1  0.69964328  0.90258875  0.49979470  1
  Zr  Zr41  1  0.10039352  0.50330844  0.69107018  1
  Zr  Zr42  1  0.49555516  0.50884716  0.49669269  1
  Zr  Zr43  1  0.09327011  0.10993417  0.50574744  1
  Zr  Zr44  1  0.70194657  0.49888283  0.70141030  1
  Zr  Zr45  1  0.30275326  0.30126922  0.09814393  1
  Zr  Zr46  1  0.29415663  0.70587445  0.10052241  1
  Zr  Zr47  1  0.09812434  0.69926407  0.91100439  1
  Zr  Zr48  1  0.68543320  0.29560992  0.30541338  1
  Zr  Zr49  1  0.89625384  0.30300527  0.10112971  1
  Sc  Sc50  1  0.09409471  0.09604125  0.70288278  1
  Sc  Sc51  1  0.69410105  0.69912964  0.70938398  1
  Sc  Sc52  1  0.29224185  0.10197899  0.10144720  1
  Sc  Sc53  1  0.29516942  0.09687433  0.90124361  1
  Sc  Sc54  1  0.90039509  0.69573686  0.29944573  1
  Sc  Sc55  1  0.30121193  0.09228981  0.30268182  1
  Sc  Sc56  1  0.70848421  0.90425978  0.70048463  1
  Sc  Sc57  1  0.70307155  0.70486358  0.90356540  1
  Sc  Sc58  1  0.10564703  0.89528152  0.49227589  1
  Sc  Sc59  1  0.29585280  0.70591745  0.29696483  1
  Sc  Sc60  1  0.49882357  0.70756633  0.09979543  1
  Sc  Sc61  1  0.09200168  0.29682296  0.68979629  1
  Sc  Sc62  1  0.09536448  0.30554976  0.90367496  1
  Sc  Sc63  1  0.89781218  0.49591110  0.10331805  1
  Sc  Sc64  1  0.09963410  0.29529764  0.29777663  1
  Sc  Sc65  1  0.70353702  0.69374831  0.29956710  1
  Sc  Sc66  1  0.69555671  0.29517461  0.91058484  1
  Sc  Sc67  1  0.09724431  0.89435996  0.10520192  1
  Sc  Sc68  1  0.29788756  0.70067984  0.69477972  1
  Sc  Sc69  1  0.49891764  0.28804240  0.70694508  1
  Sc  Sc70  1  0.70634982  0.69600441  0.09962231  1
  Sc  Sc71  1  0.10020238  0.70403289  0.50141543  1
  Sc  Sc72  1  0.30396162  0.89865412  0.70467829  1
  Sc  Sc73  1  0.48976539  0.90405345  0.29638039  1
  Sc  Sc74  1  0.88363314  0.90183960  0.89755453  1
  Sc  Sc75  1  0.89083376  0.89871374  0.50157625  1
  Sc  Sc76  1  0.09681251  0.30076025  0.50388765  1
  Sc  Sc77  1  0.10329942  0.49948739  0.10142944  1
  Sc  Sc78  1  0.89575031  0.90448991  0.29434175  1
  Sc  Sc79  1  0.90004678  0.49569904  0.70505438  1
  Sc  Sc80  1  0.29582136  0.89891624  0.29716375  1
  Sc  Sc81  1  0.51031878  0.69344986  0.30874349  1
  Sc  Sc82  1  0.28951945  0.70137237  0.90343115  1
  Sc  Sc83  1  0.70157685  0.10420772  0.89837398  1
  Sc  Sc84  1  0.90259751  0.50124375  0.50199413  1
  Sc  Sc85  1  0.49900905  0.11355221  0.89190991  1
  Sc  Sc86  1  0.29618985  0.70269665  0.50655251  1
  Sc  Sc87  1  0.31002202  0.29893038  0.69204196  1
  Sc  Sc88  1  0.51500010  0.29671166  0.48941470  1
  Sc  Sc89  1  0.29515796  0.30537349  0.49963126  1
  Sc  Sc90  1  0.10423427  0.90516563  0.70235140  1
  Sc  Sc91  1  0.10074468  0.09994106  0.29208941  1
  Sc  Sc92  1  0.50627556  0.71260998  0.89990349  1
  Sc  Sc93  1  0.90570614  0.29376455  0.51264975  1
  Sc  Sc94  1  0.30301331  0.48818864  0.30368808  1
  Sc  Sc95  1  0.09694275  0.70549383  0.29611225  1
  Sc  Sc96  1  0.70632908  0.10580102  0.09121129  1
  Sc  Sc97  1  0.10336858  0.90059746  0.29991450  1
  Sc  Sc98  1  0.30237726  0.29706528  0.29800277  1
  Sc  Sc99  1  0.10322076  0.30099366  0.10473600  1
  Nb  Nb100  1  0.69545406  0.29834388  0.09832923  1
  Nb  Nb101  1  0.50401690  0.50103379  0.10164264  1
  Nb  Nb102  1  0.31121900  0.88864813  0.10421139  1
  Nb  Nb103  1  0.69857384  0.10029705  0.50693949  1
  Nb  Nb104  1  0.50169926  0.08907723  0.49874173  1
  Nb  Nb105  1  0.50159150  0.89929926  0.70363323  1
  Nb  Nb106  1  0.09774087  0.70458124  0.09925373  1
  Nb  Nb107  1  0.10458673  0.49260113  0.49633054  1
  Nb  Nb108  1  0.30101190  0.10812721  0.69418100  1
  Nb  Nb109  1  0.51064921  0.29788567  0.09574450  1
  Nb  Nb110  1  0.69564099  0.10057102  0.69832121  1
  Nb  Nb111  1  0.89980286  0.09869390  0.10287106  1
  Nb  Nb112  1  0.90915904  0.71054210  0.09789390  1
  Nb  Nb113  1  0.50305566  0.09651247  0.10023942  1
  Nb  Nb114  1  0.89539199  0.30320923  0.70204968  1
  Nb  Nb115  1  0.50211156  0.90270309  0.50749557  1
  Nb  Nb116  1  0.50107125  0.89953773  0.89880290  1
  Nb  Nb117  1  0.70574098  0.29747095  0.49951679  1
  Nb  Nb118  1  0.89954825  0.10045721  0.29927543  1
  Nb  Nb119  1  0.70541848  0.09407581  0.30487079  1
  Nb  Nb120  1  0.89949909  0.10308620  0.89858343  1
  Nb  Nb121  1  0.69077955  0.89792607  0.89885994  1
  Nb  Nb122  1  0.90081216  0.09849961  0.49750394  1
  Nb  Nb123  1  0.90062397  0.29622177  0.30358011  1
  Nb  Nb124  1  0.30021438  0.50366011  0.09866170  1
  Nb  Nb125  1  0.60380992  0.00199688  0.19905995  1
  Nb  Nb126  1  0.20304330  0.39863750  0.79647257  1
  Nb  Nb127  1  0.39873984  0.59664378  0.00587571  1
  Nb  Nb128  1  -0.00647822  0.00551708  0.00015657  1
  Nb  Nb129  1  0.19806105  0.19667006  0.40302874  1
  Nb  Nb130  1  0.80444712  0.20133250  0.79477967  1
  Nb  Nb131  1  0.40398289  0.80280351  0.40647286  1
  Nb  Nb132  1  0.59932468  0.00263448  0.40154705  1
  Nb  Nb133  1  0.80008832  0.19882102  0.20670438  1
  Nb  Nb134  1  0.60015624  0.40079827  0.80054535  1
  Nb  Nb135  1  0.19652614  0.59252858  0.40175463  1
  Nb  Nb136  1  0.40048837  0.59411693  0.19480734  1
  Nb  Nb137  1  0.59412210  -0.00233775  -0.00359961  1
  Nb  Nb138  1  -0.00507786  0.39718613  0.39698960  1
  Nb  Nb139  1  0.20487107  0.00635601  0.59724670  1
  Nb  Nb140  1  -0.00569553  0.19309590  0.00001489  1
  Nb  Nb141  1  0.80120385  0.38959173  0.40061159  1
  Nb  Nb142  1  0.59619650  -0.00367543  0.79962358  1
  Nb  Nb143  1  0.80114384  0.19530558  0.40220488  1
  Nb  Nb144  1  -0.00035206  0.79740505  0.80181324  1
  Nb  Nb145  1  0.60316613  0.80775758  0.20170379  1
  Nb  Nb146  1  0.20172387  0.20538743  0.79588046  1
  Nb  Nb147  1  0.79611307  0.60230013  0.59825509  1
  Nb  Nb148  1  0.40536906  -0.00361433  0.00205574  1
  Nb  Nb149  1  -0.00662739  0.00902943  0.39903369  1
  Pd  Pd150  1  0.20353525  0.59891555  0.20678585  1
  Pd  Pd151  1  0.40557414  0.39217234  0.40349770  1
  Pd  Pd152  1  0.20082989  0.39435546  0.60836490  1
  Pd  Pd153  1  0.00576400  0.80986938  0.60320705  1
  Pd  Pd154  1  0.41192498  0.39233805  0.59569042  1
  Pd  Pd155  1  0.19990531  0.59662003  0.79858040  1
  Pd  Pd156  1  0.79893728  0.79019001  0.20387204  1
  Pd  Pd157  1  0.40249379  0.40165199  0.19233598  1
  Pd  Pd158  1  -0.00563767  0.81182628  0.39277782  1
  Pd  Pd159  1  -0.00330821  0.20365341  0.19503088  1
  Pd  Pd160  1  0.20289848  0.39740740  0.20272203  1
  Pd  Pd161  1  0.78739505  0.39082357  0.80547890  1
  Pd  Pd162  1  0.01000872  0.39774309  0.79371101  1
  Pd  Pd163  1  0.60834740  0.80422921  0.60879551  1
  Pd  Pd164  1  0.79724330  0.00346020  -0.00600027  1
  Pd  Pd165  1  0.60612038  0.60648839  0.59681694  1
  Pd  Pd166  1  0.39545454  0.20755034  0.40444769  1
  Pd  Pd167  1  0.00734951  0.59672928  0.40391871  1
  Pd  Pd168  1  0.00066565  0.20675562  0.79955848  1
  Pd  Pd169  1  0.19525724  0.79822973  0.79700555  1
  Pd  Pd170  1  0.58613087  0.39355107  0.60708176  1
  Pd  Pd171  1  0.19780228  0.39816889  -0.00393371  1
  Pd  Pd172  1  0.60824381  0.19057684  0.19368420  1
  Pd  Pd173  1  0.39893927  0.00631297  0.19602381  1
  Pd  Pd174  1  0.20293510  -0.00749753  0.19492177  1
  Pd  Pd175  1  0.79256597  0.40373799  -0.00009283  1
  Pd  Pd176  1  0.40184084  0.18997869  0.00572227  1
  Pd  Pd177  1  -0.00244699  0.59322207  0.01260543  1
  Pd  Pd178  1  0.20335244  -0.01001071  0.01351346  1
  Pd  Pd179  1  0.39515946  0.79421752  0.80397349  1
  Pd  Pd180  1  0.40941101  0.20710692  0.58551508  1
  Pd  Pd181  1  0.80654659  0.59947230  0.00834546  1
  Pd  Pd182  1  0.40002386  0.61356373  0.81127579  1
  Pd  Pd183  1  0.00695958  -0.00993090  0.58887307  1
  Pd  Pd184  1  0.59480297  0.60175828  0.80481904  1
  Pd  Pd185  1  0.79118165  0.79237404  0.60420947  1
  Pd  Pd186  1  0.79578605  0.59010783  0.40730753  1
  Pd  Pd187  1  -0.00305072  0.59667548  0.59402522  1
  Pd  Pd188  1  0.38879714  0.60861629  0.39281763  1
  Pd  Pd189  1  0.80613552  0.19207546  0.60175632  1
  Pd  Pd190  1  0.40557043  0.40249130  0.01076722  1
  Pd  Pd191  1  0.80144762  0.79453787  0.80168799  1
  Pd  Pd192  1  -0.00579880  0.81482001  -0.00818885  1
  Pd  Pd193  1  0.39263733  -0.00661259  0.60377070  1
  Pd  Pd194  1  0.59295791  0.61051448  0.00165563  1
  Pd  Pd195  1  0.39577531  0.19419961  0.19288229  1
  Pd  Pd196  1  0.40132569  0.00803156  0.80367943  1
  Pd  Pd197  1  -0.00173054  0.60424277  0.19281958  1
  Pd  Pd198  1  0.19243493  0.20572080  -0.00767081  1
  Pd  Pd199  1  0.79009275  0.38971892  0.20619635  1
  Rh  Rh200  1  0.79920665  0.00266675  0.59888860  1
  Rh  Rh201  1  0.19511194  0.80374561  0.19751756  1
  Rh  Rh202  1  0.80984554  0.60631854  0.19182650  1
  Rh  Rh203  1  0.60558972  0.18844085  0.40893578  1
  Rh  Rh204  1  0.18281398  0.01433795  0.40768720  1
  Rh  Rh205  1  0.21154057  0.01198486  0.78550032  1
  Rh  Rh206  1  0.40534848  0.39806877  0.79120859  1
  Rh  Rh207  1  0.60388053  -0.00214988  0.60334651  1
  Rh  Rh208  1  0.18985365  0.39414090  0.39419897  1
  Rh  Rh209  1  -0.00503189  0.40288784  0.59620308  1
  Rh  Rh210  1  -0.00156492  0.79944185  0.20441040  1
  Rh  Rh211  1  -0.00056754  -0.00345711  0.20259683  1
  Rh  Rh212  1  0.39028245  0.19422715  0.80007971  1
  Rh  Rh213  1  0.00184720  0.19964786  0.39874179  1
  Rh  Rh214  1  0.80277314  0.60166437  0.79543156  1
  Rh  Rh215  1  0.20479937  0.78820744  0.39935323  1
  Rh  Rh216  1  0.80838137  0.79866838  0.39390197  1
  Rh  Rh217  1  0.20041451  0.19698627  0.60014902  1
  Rh  Rh218  1  0.20040156  0.60021146  0.00654436  1
  Rh  Rh219  1  0.41042912  0.78569526  0.21586670  1
  Rh  Rh220  1  0.20100423  0.81100600  0.60272630  1
  Rh  Rh221  1  0.80219157  0.00465614  0.40905504  1
  Rh  Rh222  1  0.59293668  0.61252613  0.19444018  1
  Rh  Rh223  1  0.19940270  0.59852910  0.59102337  1
  Rh  Rh224  1  0.60688758  0.80095524  0.00585761  1
  Rh  Rh225  1  0.80987348  0.40661811  0.59378835  1
  Rh  Rh226  1  0.00237693  0.39627344  0.20386004  1
  Rh  Rh227  1  0.19974433  0.80629202  0.00734786  1
  Rh  Rh228  1  0.78902125  0.00925516  0.80184212  1
  Rh  Rh229  1  -0.00752672  -0.01436934  0.81098867  1
  Rh  Rh230  1  0.60165056  0.40480670  0.39952253  1
  Rh  Rh231  1  0.60786303  0.59124711  0.40546009  1
  Rh  Rh232  1  -0.00936325  0.19787858  0.61130478  1
  Rh  Rh233  1  0.60066557  0.39522840  0.19392821  1
  Rh  Rh234  1  0.80716986  0.20327639  0.00073562  1
  Rh  Rh235  1  0.40859229  -0.00798135  0.40026221  1
  Rh  Rh236  1  0.59514186  0.19830076  0.59349719  1
  Rh  Rh237  1  0.39890103  0.60641804  0.59785505  1
  Rh  Rh238  1  0.61300552  0.20204464  0.79581923  1
  Rh  Rh239  1  0.00322033  0.39753036  0.00789560  1
  Rh  Rh240  1  0.80248689  0.79674568  -0.00222509  1
  Rh  Rh241  1  0.59583602  0.19270031  0.00276223  1
  Rh  Rh242  1  0.60279414  0.40154968  -0.00065214  1
  Rh  Rh243  1  0.58976789  0.81579546  0.38999246  1
  Rh  Rh244  1  0.79417360  0.00965832  0.19449008  1
  Rh  Rh245  1  0.60203112  0.80670172  0.79407740  1
  Rh  Rh246  1  0.39782678  0.80724591  0.59607228  1
  Rh  Rh247  1  0.00391886  0.60513352  0.79873387  1
  Rh  Rh248  1  0.20754227  0.20139389  0.20817101  1
  Rh  Rh249  1  0.39370102  0.79627898  -0.00997293  1
