# generated using pymatgen
data_ZrScNbPdRh
_symmetry_space_group_name_H-M   'P 1'
_cell_length_a   16.55575639
_cell_length_b   16.55728818
_cell_length_c   16.55675118
_cell_angle_alpha   89.98875308
_cell_angle_beta   89.96338077
_cell_angle_gamma   90.03257356
_symmetry_Int_Tables_number   1
_chemical_formula_structural   ZrScNbPdRh
_chemical_formula_sum   'Zr50 Sc50 Nb50 Pd50 Rh50'
_cell_volume   4538.50888402
_cell_formula_units_Z   50
loop_
 _symmetry_equiv_pos_site_id
 _symmetry_equiv_pos_as_xyz
  1  'x, y, z'
loop_
 _atom_site_type_symbol
 _atom_site_label
 _atom_site_symmetry_multiplicity
 _atom_site_fract_x
 _atom_site_fract_y
 _atom_site_fract_z
 _atom_site_occupancy
  Zr  Zr0  1  0.89995830  0.69982279  0.29926195  1
  Zr  Zr1  1  0.29939880  0.10419480  0.29970349  1
  Zr  Zr2  1  0.69850602  0.09451666  0.90611200  1
  Zr  Zr3  1  0.09304099  0.90214431  0.11741286  1
  Zr  Zr4  1  0.89949669  0.49959841  0.70147227  1
  Zr  Zr5  1  0.09970599  0.70070096  0.70583088  1
  Zr  Zr6  1  0.29275153  0.30322337  0.70164247  1
  Zr  Zr7  1  0.29460848  0.70690917  0.30372862  1
  Zr  Zr8  1  0.29400694  0.29537379  0.10267132  1
  Zr  Zr9  1  0.50249032  0.09679636  0.09216390  1
  Zr  Zr10  1  0.90560789  0.30863671  0.09105071  1
  Zr  Zr11  1  0.10146143  0.90535140  0.50397732  1
  Zr  Zr12  1  0.50638681  0.09734545  0.30266487  1
  Zr  Zr13  1  0.70279786  0.90403294  0.09586375  1
  Zr  Zr14  1  0.70234716  0.09108811  0.70181293  1
  Zr  Zr15  1  0.89679360  0.29655183  0.69369142  1
  Zr  Zr16  1  0.49922098  0.69873177  0.50385209  1
  Zr  Zr17  1  0.31080292  0.69652956  0.10522708  1
  Zr  Zr18  1  0.50534059  0.70368401  0.69783842  1
  Zr  Zr19  1  0.09939491  0.90142976  0.69901044  1
  Zr  Zr20  1  0.50745766  0.89454503  0.10169508  1
  Zr  Zr21  1  0.09099902  0.50826646  0.30951243  1
  Zr  Zr22  1  0.31112689  0.30933616  0.29020948  1
  Zr  Zr23  1  0.89845284  0.30839466  0.30863119  1
  Zr  Zr24  1  0.50627029  0.29291799  0.70002845  1
  Zr  Zr25  1  0.50926655  0.89748802  0.70006222  1
  Zr  Zr26  1  0.49886180  0.09490624  0.69405757  1
  Zr  Zr27  1  0.90407621  0.70024030  0.70732950  1
  Zr  Zr28  1  0.70128941  0.49527584  0.69529280  1
  Zr  Zr29  1  0.69258493  0.29224105  0.89385050  1
  Zr  Zr30  1  0.49908982  0.69443460  0.28768272  1
  Zr  Zr31  1  0.89469888  0.70633300  0.89964808  1
  Zr  Zr32  1  0.49268750  0.90266138  0.31110657  1
  Zr  Zr33  1  0.10705938  0.90430722  0.89248000  1
  Zr  Zr34  1  0.50125695  0.70055067  0.90177948  1
  Zr  Zr35  1  0.49982970  0.29082510  0.90127395  1
  Zr  Zr36  1  0.90313290  0.89606745  0.49929780  1
  Zr  Zr37  1  0.70162499  0.10211819  0.30088564  1
  Zr  Zr38  1  0.49902762  0.89509669  0.50508335  1
  Zr  Zr39  1  0.09914231  0.70911543  0.30019274  1
  Zr  Zr40  1  0.29545262  0.69992891  0.90232559  1
  Zr  Zr41  1  0.09663324  0.50456264  0.49911619  1
  Zr  Zr42  1  0.48993361  0.09237342  0.49817280  1
  Zr  Zr43  1  0.10593466  0.30575407  0.09627664  1
  Zr  Zr44  1  0.70274899  0.50066644  0.30188872  1
  Zr  Zr45  1  0.10848812  0.50111236  0.70394631  1
  Zr  Zr46  1  0.09491564  0.29372816  0.90667455  1
  Zr  Zr47  1  0.09889712  0.70626949  0.89680622  1
  Zr  Zr48  1  0.70787391  0.89228623  0.50845490  1
  Zr  Zr49  1  0.29851279  0.49063038  0.10274500  1
  Sc  Sc50  1  0.09976743  0.29702203  0.50279638  1
  Sc  Sc51  1  0.10947850  0.50608893  0.90422238  1
  Sc  Sc52  1  0.89333894  0.50838768  0.10065996  1
  Sc  Sc53  1  0.30157973  0.30860255  0.90452021  1
  Sc  Sc54  1  0.70009014  0.70619643  0.90162309  1
  Sc  Sc55  1  0.09578103  0.09281190  0.68986756  1
  Sc  Sc56  1  0.30689724  0.69186080  0.70495884  1
  Sc  Sc57  1  0.70363750  0.30539522  0.50332514  1
  Sc  Sc58  1  0.69928376  0.50099853  0.89518810  1
  Sc  Sc59  1  0.69455293  0.50068720  0.49433446  1
  Sc  Sc60  1  0.30134483  0.89612063  0.90042568  1
  Sc  Sc61  1  0.50269210  0.30798791  0.49449474  1
  Sc  Sc62  1  0.69859368  0.69189156  0.49761641  1
  Sc  Sc63  1  0.88675639  0.69973632  0.10236656  1
  Sc  Sc64  1  0.29748781  0.90930182  0.71081714  1
  Sc  Sc65  1  0.49759722  0.49104915  0.30480899  1
  Sc  Sc66  1  0.70129706  0.68983848  0.30094372  1
  Sc  Sc67  1  0.29859100  0.08460715  0.90504326  1
  Sc  Sc68  1  0.10096491  0.29645142  0.69753515  1
  Sc  Sc69  1  0.49892694  0.51161045  0.70568772  1
  Sc  Sc70  1  0.10867664  0.29933293  0.29598314  1
  Sc  Sc71  1  0.89913540  0.10356175  0.51246771  1
  Sc  Sc72  1  0.90556201  0.08061256  0.09577713  1
  Sc  Sc73  1  0.49716374  0.51878570  0.10382801  1
  Sc  Sc74  1  0.29920371  0.89688174  0.09589075  1
  Sc  Sc75  1  0.69703360  0.90775656  0.29386506  1
  Sc  Sc76  1  0.69902553  0.29952227  0.69724138  1
  Sc  Sc77  1  0.10070189  0.69607160  0.09472307  1
  Sc  Sc78  1  0.29534018  0.29659856  0.50233425  1
  Sc  Sc79  1  0.10265400  0.69756154  0.49327132  1
  Sc  Sc80  1  0.70590111  0.30610120  0.09301174  1
  Sc  Sc81  1  0.70361365  0.30127086  0.31304794  1
  Sc  Sc82  1  0.89353539  0.29679027  0.50110332  1
  Sc  Sc83  1  0.50449707  0.50211061  0.49872535  1
  Sc  Sc84  1  0.29902551  0.70501635  0.49999727  1
  Sc  Sc85  1  0.10983739  0.10513681  0.09351371  1
  Sc  Sc86  1  0.29595629  0.50397377  0.50313038  1
  Sc  Sc87  1  0.30541814  0.90139701  0.48972771  1
  Sc  Sc88  1  0.89664307  0.70538529  0.49379075  1
  Sc  Sc89  1  0.30537998  0.10523256  0.09531407  1
  Sc  Sc90  1  0.70438596  0.89982934  0.89410424  1
  Sc  Sc91  1  0.50192351  0.09897195  0.90554203  1
  Sc  Sc92  1  0.89338618  0.90478633  0.69614171  1
  Sc  Sc93  1  0.10974298  0.09392664  0.29104930  1
  Sc  Sc94  1  0.89954675  0.09758189  0.29675611  1
  Sc  Sc95  1  0.89151987  0.50641330  0.90435990  1
  Sc  Sc96  1  0.69659104  0.70591188  0.70604959  1
  Sc  Sc97  1  0.48210298  0.28956211  0.09811020  1
  Sc  Sc98  1  0.70528973  0.10724864  0.49755334  1
  Sc  Sc99  1  0.70438862  0.50897158  0.09879964  1
  Nb  Nb100  1  0.69754059  0.10086255  0.10089018  1
  Nb  Nb101  1  0.89757999  0.50385214  0.30642738  1
  Nb  Nb102  1  0.89526438  0.91098627  0.91176243  1
  Nb  Nb103  1  0.10279093  0.89579804  0.30014970  1
  Nb  Nb104  1  0.49642125  0.30019680  0.29710280  1
  Nb  Nb105  1  0.30654609  0.50103426  0.88530281  1
  Nb  Nb106  1  0.90304214  0.29331003  0.89971660  1
  Nb  Nb107  1  0.69987533  0.89979041  0.70141698  1
  Nb  Nb108  1  0.89793702  0.10173822  0.69940916  1
  Nb  Nb109  1  0.09863921  0.10053391  0.89337574  1
  Nb  Nb110  1  0.30193973  0.49710044  0.29901994  1
  Nb  Nb111  1  0.49289221  0.49704511  0.90136073  1
  Nb  Nb112  1  0.29961350  0.10429234  0.69335329  1
  Nb  Nb113  1  0.09946326  0.49830246  0.10564309  1
  Nb  Nb114  1  0.68225192  0.69997777  0.10156419  1
  Nb  Nb115  1  0.49929359  0.89883724  0.90400447  1
  Nb  Nb116  1  0.29090145  0.10176164  0.50568161  1
  Nb  Nb117  1  0.91629439  0.89523747  0.28979247  1
  Nb  Nb118  1  0.10257163  0.09945178  0.49960038  1
  Nb  Nb119  1  0.29803080  0.49504493  0.71350574  1
  Nb  Nb120  1  0.90428308  0.09517537  0.89614174  1
  Nb  Nb121  1  0.29194140  0.89727704  0.29762639  1
  Nb  Nb122  1  0.90112057  0.89624854  0.10416201  1
  Nb  Nb123  1  0.51186527  0.70204814  0.09970370  1
  Nb  Nb124  1  0.90475422  0.49536241  0.48983700  1
  Nb  Nb125  1  0.80567552  0.59469485  0.59999924  1
  Nb  Nb126  1  0.80228868  0.20043919  0.19213552  1
  Nb  Nb127  1  0.20040130  0.59474630  0.20317531  1
  Nb  Nb128  1  0.80888351  0.19292201  0.80489769  1
  Nb  Nb129  1  -0.00311123  0.40565248  0.60126900  1
  Nb  Nb130  1  0.59656485  0.79909890  0.40114181  1
  Nb  Nb131  1  0.59157846  0.40218486  0.00184279  1
  Nb  Nb132  1  0.80644035  0.19379654  -0.00233589  1
  Nb  Nb133  1  0.39265190  0.19439912  0.79390450  1
  Nb  Nb134  1  -0.00155693  0.40482074  0.20277610  1
  Nb  Nb135  1  0.39831909  0.20031302  0.39918582  1
  Nb  Nb136  1  0.39536930  0.40279416  0.60857218  1
  Nb  Nb137  1  -0.00713579  0.81075543  0.00075360  1
  Nb  Nb138  1  0.19880936  0.80316675  0.60450882  1
  Nb  Nb139  1  -0.00415513  0.20563128  0.19847856  1
  Nb  Nb140  1  0.81115437  -0.00640348  0.39911869  1
  Nb  Nb141  1  0.00352241  -0.00052286  0.39718872  1
  Nb  Nb142  1  -0.00224973  0.39678005  0.80222184  1
  Nb  Nb143  1  0.60445443  0.20478487  0.19866012  1
  Nb  Nb144  1  0.20159256  0.19233823  0.80102715  1
  Nb  Nb145  1  0.00489792  0.19207579  0.39781324  1
  Nb  Nb146  1  0.39606192  0.59978038  0.39560690  1
  Nb  Nb147  1  0.40041889  -0.00366643  0.20440859  1
  Nb  Nb148  1  0.20199726  0.40501257  0.39581137  1
  Nb  Nb149  1  0.59662179  0.39377835  0.19639844  1
  Pd  Pd150  1  0.79914912  0.39820665  0.20059028  1
  Pd  Pd151  1  0.19106612  0.80532061  0.00721496  1
  Pd  Pd152  1  0.39003790  -0.01000034  0.60085267  1
  Pd  Pd153  1  0.59063466  0.40513375  0.60076005  1
  Pd  Pd154  1  0.00550417  0.79315796  0.59699370  1
  Pd  Pd155  1  0.40919444  0.39200525  0.79431682  1
  Pd  Pd156  1  0.61379804  -0.00835705  0.41237425  1
  Pd  Pd157  1  0.59284879  0.40539195  0.80312660  1
  Pd  Pd158  1  0.79076781  0.79756526  0.20410713  1
  Pd  Pd159  1  0.59491663  -0.00132729  0.80755783  1
  Pd  Pd160  1  0.79274810  0.39898539  -0.01053794  1
  Pd  Pd161  1  0.20709245  0.59412639  0.00525454  1
  Pd  Pd162  1  0.19975880  -0.00197651  0.40061554  1
  Pd  Pd163  1  0.39959949  0.79935175  0.79787699  1
  Pd  Pd164  1  0.19623319  -0.00445682  0.00457793  1
  Pd  Pd165  1  0.00044481  0.60056217  0.19635208  1
  Pd  Pd166  1  0.40059837  0.20928979  0.59460187  1
  Pd  Pd167  1  0.38685840  0.80755460  0.60950523  1
  Pd  Pd168  1  0.39693054  0.59909337  -0.00373815  1
  Pd  Pd169  1  0.60727502  0.00260124  0.59055825  1
  Pd  Pd170  1  -0.00615225  0.60218329  0.59314240  1
  Pd  Pd171  1  0.20248733  0.40610119  -0.00840376  1
  Pd  Pd172  1  0.60729266  0.80209185  0.21145093  1
  Pd  Pd173  1  0.60385522  0.19722755  0.59254504  1
  Pd  Pd174  1  0.40487454  0.40346058  0.00642532  1
  Pd  Pd175  1  0.00221695  0.59027473  0.81208583  1
  Pd  Pd176  1  0.79809809  0.78723515  0.60884411  1
  Pd  Pd177  1  0.79239311  0.80576924  0.38571312  1
  Pd  Pd178  1  0.40402234  0.00504207  0.80260187  1
  Pd  Pd179  1  0.80457102  0.39077337  0.80686738  1
  Pd  Pd180  1  -0.01104569  0.81495646  0.80716816  1
  Pd  Pd181  1  0.59467400  0.20682761  0.40151959  1
  Pd  Pd182  1  0.60189859  0.59984000  0.80343474  1
  Pd  Pd183  1  0.20113399  0.20710423  0.39659075  1
  Pd  Pd184  1  0.40359022  0.79944759  0.00086658  1
  Pd  Pd185  1  0.20604340  0.60794683  0.60451401  1
  Pd  Pd186  1  0.79236917  0.60427655  0.79614388  1
  Pd  Pd187  1  -0.00399406  0.60414946  -0.00057146  1
  Pd  Pd188  1  0.39635541  0.59183586  0.59690049  1
  Pd  Pd189  1  0.80418848  0.00158300  0.20262432  1
  Pd  Pd190  1  0.21102480  0.00210144  0.19162215  1
  Pd  Pd191  1  0.39857019  0.80770431  0.20027320  1
  Pd  Pd192  1  0.01236664  -0.00254147  0.00029318  1
  Pd  Pd193  1  -0.00125411  0.41651320  -0.00371199  1
  Pd  Pd194  1  0.00337596  0.20012183  0.79188039  1
  Pd  Pd195  1  0.19853328  0.40224169  0.59277878  1
  Pd  Pd196  1  -0.00586577  -0.00415671  0.79545365  1
  Pd  Pd197  1  0.79644694  0.79851950  0.00418633  1
  Pd  Pd198  1  0.60290363  0.59315927  -0.00743484  1
  Pd  Pd199  1  -0.00455424  0.18830330  0.00893856  1
  Rh  Rh200  1  0.19346232  0.19435395  0.60546772  1
  Rh  Rh201  1  0.79513765  0.40609648  0.40612577  1
  Rh  Rh202  1  0.59854466  0.80570104  0.80567572  1
  Rh  Rh203  1  0.39378299  0.59568207  0.20659266  1
  Rh  Rh204  1  0.40700670  0.78849777  0.39672174  1
  Rh  Rh205  1  0.61021867  0.59968546  0.60473702  1
  Rh  Rh206  1  0.20884821  0.59529607  0.39323444  1
  Rh  Rh207  1  0.79519550  0.60466025  0.19924856  1
  Rh  Rh208  1  0.20191174  0.60509405  0.80160509  1
  Rh  Rh209  1  0.00524859  0.80376904  0.40096456  1
  Rh  Rh210  1  -0.00831620  0.61236498  0.40337923  1
  Rh  Rh211  1  0.80539509  0.40964983  0.58837499  1
  Rh  Rh212  1  0.18865153  0.39154721  0.80973618  1
  Rh  Rh213  1  0.60368255  0.58932274  0.20289307  1
  Rh  Rh214  1  0.19497952  0.80810447  0.40927434  1
  Rh  Rh215  1  0.60171666  -0.00986357  -0.00427174  1
  Rh  Rh216  1  0.38897536  0.19548833  -0.01543120  1
  Rh  Rh217  1  0.79739591  0.00313053  0.00291404  1
  Rh  Rh218  1  0.20902644  0.79525543  0.79237914  1
  Rh  Rh219  1  0.19638655  0.20012930  0.19642898  1
  Rh  Rh220  1  0.19968042  0.79255889  0.19330536  1
  Rh  Rh221  1  0.59308418  0.00466287  0.19503515  1
  Rh  Rh222  1  0.20558693  0.19697009  -0.01225507  1
  Rh  Rh223  1  0.59898301  0.18638847  0.79218461  1
  Rh  Rh224  1  0.00319391  0.00807970  0.20614440  1
  Rh  Rh225  1  0.60328439  0.39867815  0.39282934  1
  Rh  Rh226  1  0.20657108  -0.00420323  0.59914393  1
  Rh  Rh227  1  0.80252410  0.81020181  0.79831381  1
  Rh  Rh228  1  0.79078247  0.60950038  0.00017236  1
  Rh  Rh229  1  0.38677141  0.00885291  0.39524344  1
  Rh  Rh230  1  0.39030683  0.39914603  0.41293282  1
  Rh  Rh231  1  0.40359151  0.60490232  0.80446830  1
  Rh  Rh232  1  0.79167254  0.19704720  0.60984125  1
  Rh  Rh233  1  0.40412398  -0.00913713  0.00624825  1
  Rh  Rh234  1  0.00000999  0.78724017  0.18951289  1
  Rh  Rh235  1  0.60673214  0.21057427  0.01243888  1
  Rh  Rh236  1  0.18839217  0.40955288  0.20931814  1
  Rh  Rh237  1  0.60784878  0.79515084  0.59648848  1
  Rh  Rh238  1  -0.00585576  0.00406530  0.59599536  1
  Rh  Rh239  1  0.79934330  0.00130446  0.59626404  1
  Rh  Rh240  1  0.58719468  0.60511735  0.39536330  1
  Rh  Rh241  1  0.80450854  0.00020369  0.79814197  1
  Rh  Rh242  1  0.00298632  0.20294329  0.59462991  1
  Rh  Rh243  1  0.80546302  0.59651579  0.40739765  1
  Rh  Rh244  1  0.00865118  0.38878375  0.40241600  1
  Rh  Rh245  1  0.81236715  0.19099903  0.39556077  1
  Rh  Rh246  1  0.40913449  0.18668566  0.20652400  1
  Rh  Rh247  1  0.41319409  0.40706889  0.18967350  1
  Rh  Rh248  1  0.60268673  0.80480934  -0.00660045  1
  Rh  Rh249  1  0.19842469  0.01036645  0.79646242  1
