# generated using pymatgen
data_ZrScNbPdRh
_symmetry_space_group_name_H-M   'P 1'
_cell_length_a   16.55498209
_cell_length_b   16.55527192
_cell_length_c   16.55675316
_cell_angle_alpha   89.96787004
_cell_angle_beta   89.99791040
_cell_angle_gamma   90.01536193
_symmetry_Int_Tables_number   1
_chemical_formula_structural   ZrScNbPdRh
_chemical_formula_sum   'Zr50 Sc50 Nb50 Pd50 Rh50'
_cell_volume   4537.74538352
_cell_formula_units_Z   50
loop_
 _symmetry_equiv_pos_site_id
 _symmetry_equiv_pos_as_xyz
  1  'x, y, z'
loop_
 _atom_site_type_symbol
 _atom_site_label
 _atom_site_symmetry_multiplicity
 _atom_site_fract_x
 _atom_site_fract_y
 _atom_site_fract_z
 _atom_site_occupancy
  Zr  Zr0  1  0.09655036  0.90239770  0.29253568  1
  Zr  Zr1  1  0.50224816  0.70252383  0.89386686  1
  Zr  Zr2  1  0.09613843  0.30030609  0.30150996  1
  Zr  Zr3  1  0.89922760  0.29547446  0.30153746  1
  Zr  Zr4  1  0.50021980  0.90283420  0.91136341  1
  Zr  Zr5  1  0.90004826  0.08892331  0.50324765  1
  Zr  Zr6  1  0.49779030  0.71163235  0.29761551  1
  Zr  Zr7  1  0.70182572  0.09423620  0.09775785  1
  Zr  Zr8  1  0.09957535  0.70282866  0.30372714  1
  Zr  Zr9  1  0.69902957  0.89565358  0.89733184  1
  Zr  Zr10  1  0.69419217  0.89586152  0.29639195  1
  Zr  Zr11  1  0.89975256  0.50570250  0.90048370  1
  Zr  Zr12  1  0.09097112  0.50032472  0.70746578  1
  Zr  Zr13  1  0.10234846  0.69825660  0.70104404  1
  Zr  Zr14  1  0.90044275  0.89050775  0.09063253  1
  Zr  Zr15  1  0.50950416  0.30810704  0.89188772  1
  Zr  Zr16  1  0.70178611  0.48979258  0.90043505  1
  Zr  Zr17  1  0.70995296  0.09396714  0.29278520  1
  Zr  Zr18  1  0.30658997  0.49131903  0.50432432  1
  Zr  Zr19  1  0.49976630  0.69433851  0.70239387  1
  Zr  Zr20  1  0.49535545  0.70496634  0.09941135  1
  Zr  Zr21  1  0.89437298  0.90265822  0.30063410  1
  Zr  Zr22  1  0.50155192  0.90729850  0.10667127  1
  Zr  Zr23  1  0.30191843  0.69955435  0.10650433  1
  Zr  Zr24  1  0.09623608  0.29796267  0.70250244  1
  Zr  Zr25  1  0.30600025  0.10340424  0.09851986  1
  Zr  Zr26  1  0.10186218  0.10142880  0.89869123  1
  Zr  Zr27  1  0.49358423  0.10135086  0.90320189  1
  Zr  Zr28  1  0.10885373  0.09833286  0.10720651  1
  Zr  Zr29  1  0.30257866  0.09532621  0.90110045  1
  Zr  Zr30  1  0.89821092  0.30520421  0.70301855  1
  Zr  Zr31  1  0.50148771  0.29842883  0.69853593  1
  Zr  Zr32  1  0.89791419  0.50253740  0.09873619  1
  Zr  Zr33  1  0.90640458  0.09608184  0.30294344  1
  Zr  Zr34  1  0.69418274  0.29691170  0.71442457  1
  Zr  Zr35  1  0.09623789  0.49689537  0.49597749  1
  Zr  Zr36  1  0.09814290  0.89507078  0.09624393  1
  Zr  Zr37  1  0.30406369  0.29033220  0.31964859  1
  Zr  Zr38  1  0.70071712  0.71038188  0.70469616  1
  Zr  Zr39  1  0.29547283  0.29981761  0.69131912  1
  Zr  Zr40  1  0.10348785  0.89595785  0.90214109  1
  Zr  Zr41  1  0.29688766  0.90216399  0.89608138  1
  Zr  Zr42  1  0.90080711  0.29913303  0.10196700  1
  Zr  Zr43  1  0.70507272  0.10090207  0.88593783  1
  Zr  Zr44  1  0.11259308  0.29878640  0.50252080  1
  Zr  Zr45  1  0.50324231  0.89770165  0.49333688  1
  Zr  Zr46  1  0.30217125  0.49740381  0.10028342  1
  Zr  Zr47  1  0.50425837  0.09790407  0.50210755  1
  Zr  Zr48  1  0.29267093  0.09645709  0.29361091  1
  Zr  Zr49  1  0.29984619  0.69756026  0.50468023  1
  Sc  Sc50  1  0.29804692  0.70792654  0.90169337  1
  Sc  Sc51  1  0.10215351  0.49181299  0.10200759  1
  Sc  Sc52  1  0.30382215  0.70482400  0.29777993  1
  Sc  Sc53  1  0.49085373  0.31181844  0.49352731  1
  Sc  Sc54  1  0.09976470  0.69607470  0.90054881  1
  Sc  Sc55  1  0.30783005  0.49435635  0.90295416  1
  Sc  Sc56  1  0.29333026  0.10842821  0.48720290  1
  Sc  Sc57  1  0.70009129  0.89636032  0.49911843  1
  Sc  Sc58  1  0.89543140  0.10501400  0.10326893  1
  Sc  Sc59  1  0.49790207  0.50105789  0.50289944  1
  Sc  Sc60  1  0.89131240  0.29069729  0.90088467  1
  Sc  Sc61  1  0.50034932  0.30072717  0.08742034  1
  Sc  Sc62  1  0.30236801  0.09056243  0.70668602  1
  Sc  Sc63  1  0.69616126  0.89795432  0.10026913  1
  Sc  Sc64  1  0.70266774  0.50886897  0.30659290  1
  Sc  Sc65  1  0.09751877  0.70335681  0.09956594  1
  Sc  Sc66  1  0.49494578  0.50375279  0.70763216  1
  Sc  Sc67  1  0.09741073  0.08962735  0.49427259  1
  Sc  Sc68  1  0.71154351  0.49827519  0.70464524  1
  Sc  Sc69  1  0.30475841  0.51161419  0.29859118  1
  Sc  Sc70  1  0.90032028  0.90754169  0.69101163  1
  Sc  Sc71  1  0.10758002  0.90266746  0.69365460  1
  Sc  Sc72  1  0.90486876  0.10023895  0.88956536  1
  Sc  Sc73  1  0.29965802  0.89422770  0.29351047  1
  Sc  Sc74  1  0.50139382  0.70583878  0.49527458  1
  Sc  Sc75  1  0.89568442  0.71054207  0.50088562  1
  Sc  Sc76  1  0.49853447  0.50431636  0.09515792  1
  Sc  Sc77  1  0.69968544  0.69926160  0.30138168  1
  Sc  Sc78  1  0.30556513  0.50629508  0.69953981  1
  Sc  Sc79  1  0.70668184  0.69677437  0.10412839  1
  Sc  Sc80  1  0.69160964  0.31526527  0.50656335  1
  Sc  Sc81  1  0.50189922  0.50629702  0.30717782  1
  Sc  Sc82  1  0.09531809  0.89468139  0.50267550  1
  Sc  Sc83  1  0.90455613  0.90059593  0.89793989  1
  Sc  Sc84  1  0.29937692  0.89681703  0.09743188  1
  Sc  Sc85  1  0.70895994  0.30027119  0.08646802  1
  Sc  Sc86  1  0.89817050  0.69992686  0.90498643  1
  Sc  Sc87  1  0.89622964  0.69369859  0.09259007  1
  Sc  Sc88  1  0.29655660  0.69514912  0.70381156  1
  Sc  Sc89  1  0.88809875  0.49259796  0.50257429  1
  Sc  Sc90  1  0.09443861  0.50508017  0.90209107  1
  Sc  Sc91  1  0.10468435  0.29444210  0.09950182  1
  Sc  Sc92  1  0.90249146  0.49394053  0.30825262  1
  Sc  Sc93  1  0.29462668  0.90286626  0.49979501  1
  Sc  Sc94  1  0.09818410  0.10011453  0.70436118  1
  Sc  Sc95  1  0.89302846  0.70105103  0.30157068  1
  Sc  Sc96  1  0.89446413  0.70634429  0.69497809  1
  Sc  Sc97  1  0.70366561  0.50257264  0.09529722  1
  Sc  Sc98  1  0.90080454  0.89964631  0.50407582  1
  Sc  Sc99  1  0.30692887  0.29570242  0.91063166  1
  Nb  Nb100  1  0.30305450  0.29833723  0.50277282  1
  Nb  Nb101  1  0.89491800  0.29230751  0.50233700  1
  Nb  Nb102  1  0.70254790  0.90840378  0.70258808  1
  Nb  Nb103  1  0.09559176  0.49691836  0.30059537  1
  Nb  Nb104  1  0.10077186  0.29971442  0.90112808  1
  Nb  Nb105  1  0.69907879  0.09798058  0.69562236  1
  Nb  Nb106  1  0.09674220  0.69846099  0.50428352  1
  Nb  Nb107  1  0.70319393  0.70408263  0.50360120  1
  Nb  Nb108  1  0.50317792  0.09675337  0.09969813  1
  Nb  Nb109  1  0.49899465  0.90079985  0.29960281  1
  Nb  Nb110  1  0.90451930  0.50146713  0.70346284  1
  Nb  Nb111  1  0.69678920  0.51075675  0.50300512  1
  Nb  Nb112  1  0.50187964  0.29757564  0.30174554  1
  Nb  Nb113  1  0.69814618  0.29718665  0.29722945  1
  Nb  Nb114  1  0.50526985  0.50483382  0.89506144  1
  Nb  Nb115  1  0.29967898  0.30163952  0.10592618  1
  Nb  Nb116  1  0.49395665  0.91427234  0.69255391  1
  Nb  Nb117  1  0.49957371  0.09782174  0.29444124  1
  Nb  Nb118  1  0.69567494  0.70116686  0.89401112  1
  Nb  Nb119  1  0.10162970  0.09635465  0.29723048  1
  Nb  Nb120  1  0.89287594  0.10066203  0.69867390  1
  Nb  Nb121  1  0.50470561  0.09920881  0.69791558  1
  Nb  Nb122  1  0.69787434  0.29949297  0.90044579  1
  Nb  Nb123  1  0.30325732  0.90262973  0.70402876  1
  Nb  Nb124  1  0.69965552  0.10447807  0.50128989  1
  Nb  Nb125  1  0.19220890  0.59998302  0.40331545  1
  Nb  Nb126  1  0.79488070  0.19988471  0.40657751  1
  Nb  Nb127  1  0.60115220  0.39334697  0.20171427  1
  Nb  Nb128  1  0.79561176  0.19718830  0.60064539  1
  Nb  Nb129  1  0.20720146  0.39528105  0.20613874  1
  Nb  Nb130  1  -0.00028128  0.39472689  -0.00171915  1
  Nb  Nb131  1  0.40609042  0.20179947  0.20054578  1
  Nb  Nb132  1  0.60232787  0.19579349  -0.00367411  1
  Nb  Nb133  1  0.79636946  0.39673619  0.20348644  1
  Nb  Nb134  1  0.19607474  0.39554992  0.80483246  1
  Nb  Nb135  1  -0.00275288  0.59860384  0.59924168  1
  Nb  Nb136  1  0.40260217  0.39165186  0.20480096  1
  Nb  Nb137  1  -0.00885104  0.19934577  0.59918664  1
  Nb  Nb138  1  0.40236509  0.81000761  0.79338928  1
  Nb  Nb139  1  0.00471320  0.79979762  0.79575132  1
  Nb  Nb140  1  0.60028479  0.60288689  -0.01111319  1
  Nb  Nb141  1  0.40087777  0.19806724  0.59811465  1
  Nb  Nb142  1  0.00286382  0.59458139  0.20656720  1
  Nb  Nb143  1  0.60254755  0.19960197  0.39406261  1
  Nb  Nb144  1  0.40565519  0.00065006  0.39115556  1
  Nb  Nb145  1  0.79849615  -0.00085459  -0.00577888  1
  Nb  Nb146  1  0.40062845  0.80718748  0.60737625  1
  Nb  Nb147  1  0.20433397  0.59661605  0.00617084  1
  Nb  Nb148  1  0.60923222  0.60390472  0.59896025  1
  Nb  Nb149  1  0.59780134  0.20108194  0.19759688  1
  Pd  Pd150  1  0.80077948  0.60295842  0.80237130  1
  Pd  Pd151  1  0.60092372  0.00392288  0.39521845  1
  Pd  Pd152  1  0.60667723  0.79147553  0.00822492  1
  Pd  Pd153  1  -0.00427718  0.39887354  0.59229491  1
  Pd  Pd154  1  0.59699230  0.41458185  0.60863095  1
  Pd  Pd155  1  0.39223291  0.39786399  0.79676042  1
  Pd  Pd156  1  0.40689975  0.40019865  0.00133037  1
  Pd  Pd157  1  0.20278030  0.00642283  0.59921741  1
  Pd  Pd158  1  0.20607143  0.80152905  0.60371580  1
  Pd  Pd159  1  0.80074211  0.79806405  0.19778656  1
  Pd  Pd160  1  0.59847586  0.60826270  0.40641632  1
  Pd  Pd161  1  0.80406678  0.60444922  0.40451718  1
  Pd  Pd162  1  -0.00870535  0.78883917  0.19846952  1
  Pd  Pd163  1  0.59671041  0.80063455  0.60572400  1
  Pd  Pd164  1  0.20096855  -0.00837813  0.39606499  1
  Pd  Pd165  1  0.00346541  -0.00759112  0.79259343  1
  Pd  Pd166  1  0.00452608  0.19649541  0.19926076  1
  Pd  Pd167  1  0.19980074  0.18668964  0.60021996  1
  Pd  Pd168  1  -0.00495747  0.60255682  0.40379991  1
  Pd  Pd169  1  0.39979504  0.60339586  -0.00759570  1
  Pd  Pd170  1  0.19268348  0.59508343  0.20241010  1
  Pd  Pd171  1  0.20287610  -0.00049289  0.00375203  1
  Pd  Pd172  1  0.20753235  0.59024952  0.81305440  1
  Pd  Pd173  1  0.59022228  0.81595940  0.78916398  1
  Pd  Pd174  1  0.81160136  0.80703337  0.79913782  1
  Pd  Pd175  1  0.00172511  0.19738324  0.40792607  1
  Pd  Pd176  1  0.00053718  0.19887469  -0.00007011  1
  Pd  Pd177  1  0.79560577  -0.00230074  0.40559263  1
  Pd  Pd178  1  0.39659383  0.60442414  0.40192379  1
  Pd  Pd179  1  0.20170635  0.79697825  0.40059733  1
  Pd  Pd180  1  0.39773840  0.20059491  0.79197359  1
  Pd  Pd181  1  -0.00258282  0.39476668  0.81323921  1
  Pd  Pd182  1  -0.00433972  0.80390915  0.40176787  1
  Pd  Pd183  1  -0.00612572  0.00002113  0.19104015  1
  Pd  Pd184  1  0.20724526  0.20368572  0.80400849  1
  Pd  Pd185  1  0.60833400  -0.00521685  0.59785578  1
  Pd  Pd186  1  0.20240762  0.20138126  -0.00136881  1
  Pd  Pd187  1  0.59789938  0.59481270  0.19229190  1
  Pd  Pd188  1  0.79037308  0.39598063  0.39919673  1
  Pd  Pd189  1  0.19933053  0.41044028  0.61001628  1
  Pd  Pd190  1  -0.00478508  0.39268999  0.40907327  1
  Pd  Pd191  1  0.79514342  0.39710172  0.60419097  1
  Pd  Pd192  1  0.60297206  0.40293944  0.39512108  1
  Pd  Pd193  1  0.20892180  0.40850586  0.39294252  1
  Pd  Pd194  1  0.19399748  0.59147104  0.59650602  1
  Pd  Pd195  1  0.59362516  -0.00043455  0.80084995  1
  Pd  Pd196  1  0.80250048  0.60274223  0.60041520  1
  Pd  Pd197  1  -0.00774832  0.00974044  0.00359563  1
  Pd  Pd198  1  0.59810721  0.20746346  0.59236129  1
  Pd  Pd199  1  0.39028444  0.00570503  0.58759237  1
  Rh  Rh200  1  0.00433847  0.00640136  0.60378885  1
  Rh  Rh201  1  0.81016064  0.59011753  0.20853629  1
  Rh  Rh202  1  -0.01204169  0.61451598  0.78973421  1
  Rh  Rh203  1  0.40759321  -0.00225699  0.80325735  1
  Rh  Rh204  1  0.79199102  0.00024485  0.59922055  1
  Rh  Rh205  1  0.01085630  0.59351335  0.01382057  1
  Rh  Rh206  1  0.19958710  0.80299085  0.79561273  1
  Rh  Rh207  1  0.80197364  -0.00519687  0.79980171  1
  Rh  Rh208  1  0.39300229  0.60775776  0.80742923  1
  Rh  Rh209  1  0.60118590  0.40905735  0.79468024  1
  Rh  Rh210  1  0.00476526  -0.00960298  0.39751110  1
  Rh  Rh211  1  0.40304177  0.39504135  0.60576110  1
  Rh  Rh212  1  0.80734383  -0.01284407  0.18634268  1
  Rh  Rh213  1  0.59988844  0.79791527  0.19865046  1
  Rh  Rh214  1  0.59514245  0.19173854  0.80406050  1
  Rh  Rh215  1  0.79495728  0.80237677  -0.00429839  1
  Rh  Rh216  1  0.41119865  0.59656918  0.20428298  1
  Rh  Rh217  1  0.60155577  0.00084010  0.20430565  1
  Rh  Rh218  1  0.60605420  0.79577069  0.39551310  1
  Rh  Rh219  1  0.60894317  0.00775070  -0.00685610  1
  Rh  Rh220  1  0.19281046  0.40107088  -0.00168953  1
  Rh  Rh221  1  0.20055928  -0.00734092  0.19572665  1
  Rh  Rh222  1  0.40989758  0.19021403  0.40447293  1
  Rh  Rh223  1  0.80130240  0.20119726  0.79350837  1
  Rh  Rh224  1  -0.00209730  0.20080226  0.79556882  1
  Rh  Rh225  1  0.40077431  0.80596834  0.19744572  1
  Rh  Rh226  1  0.79421260  0.18899602  -0.00752275  1
  Rh  Rh227  1  0.80946792  0.39837878  0.00088056  1
  Rh  Rh228  1  0.39543429  -0.00400633  0.00611653  1
  Rh  Rh229  1  0.79718340  0.20660047  0.20499281  1
  Rh  Rh230  1  0.79377501  0.81120183  0.60212183  1
  Rh  Rh231  1  0.18677891  0.19519949  0.39805977  1
  Rh  Rh232  1  0.39299992  0.81047082  0.40688589  1
  Rh  Rh233  1  0.20421019  0.20730505  0.20815595  1
  Rh  Rh234  1  0.79666938  0.80256975  0.40097980  1
  Rh  Rh235  1  0.80562732  0.39814275  0.80546934  1
  Rh  Rh236  1  0.61153107  0.59213044  0.79844357  1
  Rh  Rh237  1  0.39791450  0.80464878  -0.00288021  1
  Rh  Rh238  1  0.19820964  0.80218614  0.19752486  1
  Rh  Rh239  1  0.20037766  0.79114363  0.00408206  1
  Rh  Rh240  1  0.40611720  0.20174710  0.00543162  1
  Rh  Rh241  1  0.39787125  0.40720275  0.39442189  1
  Rh  Rh242  1  0.40989043  0.60842103  0.59541697  1
  Rh  Rh243  1  0.00136949  0.79358377  0.60605732  1
  Rh  Rh244  1  0.00260005  0.79332942  -0.01021359  1
  Rh  Rh245  1  0.19417866  0.00063056  0.79956780  1
  Rh  Rh246  1  0.78529129  0.60587843  -0.00940419  1
  Rh  Rh247  1  -0.00226432  0.40444393  0.19200470  1
  Rh  Rh248  1  0.59860861  0.40339127  0.00262101  1
  Rh  Rh249  1  0.39634557  0.00155118  0.20138721  1
