# generated using pymatgen
data_ZrScNbPdRh
_symmetry_space_group_name_H-M   'P 1'
_cell_length_a   16.55109447
_cell_length_b   16.55777169
_cell_length_c   16.55148050
_cell_angle_alpha   90.03819496
_cell_angle_beta   89.98207934
_cell_angle_gamma   90.02226915
_symmetry_Int_Tables_number   1
_chemical_formula_structural   ZrScNbPdRh
_chemical_formula_sum   'Zr50 Sc50 Nb50 Pd50 Rh50'
_cell_volume   4535.91913598
_cell_formula_units_Z   50
loop_
 _symmetry_equiv_pos_site_id
 _symmetry_equiv_pos_as_xyz
  1  'x, y, z'
loop_
 _atom_site_type_symbol
 _atom_site_label
 _atom_site_symmetry_multiplicity
 _atom_site_fract_x
 _atom_site_fract_y
 _atom_site_fract_z
 _atom_site_occupancy
  Zr  Zr0  1  0.09992948  0.69465661  0.49362104  1
  Zr  Zr1  1  0.90177869  0.29419581  0.70254249  1
  Zr  Zr2  1  0.70183584  0.30404593  0.71646942  1
  Zr  Zr3  1  0.89729575  0.69734333  0.10016346  1
  Zr  Zr4  1  0.70903511  0.10875463  0.90459262  1
  Zr  Zr5  1  0.30805344  0.89531555  0.69707457  1
  Zr  Zr6  1  0.09643145  0.69860748  0.89762344  1
  Zr  Zr7  1  0.90894375  0.89969178  0.89718586  1
  Zr  Zr8  1  0.50638950  0.50695583  0.30069209  1
  Zr  Zr9  1  0.30269827  0.30666415  0.49760346  1
  Zr  Zr10  1  0.49681966  0.11017312  0.89469528  1
  Zr  Zr11  1  0.69942950  0.69637968  0.29764128  1
  Zr  Zr12  1  0.70135626  0.69809409  0.89970081  1
  Zr  Zr13  1  0.89574394  0.09376745  0.51153820  1
  Zr  Zr14  1  0.70945936  0.08829498  0.09939547  1
  Zr  Zr15  1  0.30609613  0.70168720  0.70327178  1
  Zr  Zr16  1  0.90173292  0.70027482  0.70180960  1
  Zr  Zr17  1  0.29934765  0.89508808  0.50449984  1
  Zr  Zr18  1  0.30098729  0.50171935  0.50134082  1
  Zr  Zr19  1  0.90184487  0.88837833  0.30090000  1
  Zr  Zr20  1  0.50016910  0.29672065  0.50081874  1
  Zr  Zr21  1  0.30146692  0.30411912  0.29552362  1
  Zr  Zr22  1  0.09709911  0.30664399  0.29659649  1
  Zr  Zr23  1  0.30499461  0.29988865  0.90395707  1
  Zr  Zr24  1  0.69077658  0.09425490  0.30446700  1
  Zr  Zr25  1  0.51172959  0.09878676  0.49765639  1
  Zr  Zr26  1  0.89832649  0.70622384  0.90226548  1
  Zr  Zr27  1  0.48807522  0.30238955  0.09540683  1
  Zr  Zr28  1  0.50685250  0.30005594  0.89491835  1
  Zr  Zr29  1  0.50296451  0.28995913  0.70417311  1
  Zr  Zr30  1  0.50216757  0.90216591  0.30496061  1
  Zr  Zr31  1  0.30541999  0.69958502  0.09986135  1
  Zr  Zr32  1  0.10110770  0.30892308  0.10043214  1
  Zr  Zr33  1  0.88929324  0.08369385  0.30120120  1
  Zr  Zr34  1  0.49949603  0.50478285  0.70006659  1
  Zr  Zr35  1  0.30043074  0.31414196  0.09763350  1
  Zr  Zr36  1  0.49421876  0.49952468  0.49552143  1
  Zr  Zr37  1  0.50100802  0.68783773  0.49603936  1
  Zr  Zr38  1  0.70646869  0.70596799  0.70347582  1
  Zr  Zr39  1  0.09805382  0.89812431  0.50171116  1
  Zr  Zr40  1  0.49742831  0.90310795  0.50896850  1
  Zr  Zr41  1  0.90057100  0.50056687  0.50123422  1
  Zr  Zr42  1  0.29997354  0.50020177  0.70202188  1
  Zr  Zr43  1  0.29825550  0.88816663  0.29380367  1
  Zr  Zr44  1  0.49174328  0.70271228  0.29799447  1
  Zr  Zr45  1  0.29673485  0.90640770  0.90259409  1
  Zr  Zr46  1  0.89022606  0.28497423  0.89680659  1
  Zr  Zr47  1  0.49267616  0.49804861  0.10280062  1
  Zr  Zr48  1  0.10053939  0.09048681  0.30052857  1
  Zr  Zr49  1  0.10223105  0.89227722  0.30027780  1
  Sc  Sc50  1  0.69590323  0.50608393  0.89153567  1
  Sc  Sc51  1  0.09718361  0.29995151  0.90114090  1
  Sc  Sc52  1  0.90709000  0.29528252  0.09051098  1
  Sc  Sc53  1  0.29507665  0.10225539  0.89755509  1
  Sc  Sc54  1  0.70176543  0.50515570  0.70331643  1
  Sc  Sc55  1  0.69629895  0.51364032  0.10394048  1
  Sc  Sc56  1  0.70634891  0.70038564  0.09820190  1
  Sc  Sc57  1  0.09501619  0.09167852  0.50893857  1
  Sc  Sc58  1  0.70378868  0.70260216  0.50997089  1
  Sc  Sc59  1  0.09563269  0.29558379  0.70764937  1
  Sc  Sc60  1  0.50234987  0.69239002  0.10539524  1
  Sc  Sc61  1  0.09668592  0.69421198  0.09408809  1
  Sc  Sc62  1  0.70509689  0.29681144  0.50440997  1
  Sc  Sc63  1  0.89285931  0.89989924  0.70156342  1
  Sc  Sc64  1  0.10064406  0.09340541  0.89456332  1
  Sc  Sc65  1  0.70555422  0.90464453  0.29462949  1
  Sc  Sc66  1  0.09770161  0.09879730  0.08485096  1
  Sc  Sc67  1  0.09644218  0.90621690  0.70190143  1
  Sc  Sc68  1  0.09578802  0.49998233  0.71592458  1
  Sc  Sc69  1  0.49944159  0.10123362  0.09408642  1
  Sc  Sc70  1  0.09522832  0.50168912  0.49806684  1
  Sc  Sc71  1  0.29836452  0.09710732  0.50418890  1
  Sc  Sc72  1  0.09674403  0.10316625  0.70253279  1
  Sc  Sc73  1  0.68591122  0.29147988  0.10488631  1
  Sc  Sc74  1  0.90444984  0.50664902  0.90337847  1
  Sc  Sc75  1  0.90212172  0.30434882  0.50903650  1
  Sc  Sc76  1  0.29617996  0.09166910  0.29710468  1
  Sc  Sc77  1  0.50252090  0.90044419  0.10213633  1
  Sc  Sc78  1  0.90626694  0.49614264  0.29849348  1
  Sc  Sc79  1  0.29768617  0.50665352  0.90723275  1
  Sc  Sc80  1  0.90431547  0.50196050  0.69866341  1
  Sc  Sc81  1  0.50518744  0.30096520  0.28290964  1
  Sc  Sc82  1  0.50124761  0.51137473  0.89701773  1
  Sc  Sc83  1  0.10872309  0.90096905  0.08770581  1
  Sc  Sc84  1  0.89366361  0.89536014  0.09357283  1
  Sc  Sc85  1  0.09965191  0.49756934  0.09744740  1
  Sc  Sc86  1  0.90345441  0.30906558  0.30411178  1
  Sc  Sc87  1  0.90610280  0.50419629  0.09825705  1
  Sc  Sc88  1  0.30140141  0.10077863  0.08870478  1
  Sc  Sc89  1  0.70465008  0.09371972  0.69659521  1
  Sc  Sc90  1  0.70968421  0.91101903  0.89615529  1
  Sc  Sc91  1  0.09971028  0.49592807  0.30003426  1
  Sc  Sc92  1  0.30299714  0.49582224  0.30984546  1
  Sc  Sc93  1  0.09509730  0.30174536  0.50766285  1
  Sc  Sc94  1  0.49760745  0.91187476  0.90105080  1
  Sc  Sc95  1  0.29155329  0.10655300  0.70320050  1
  Sc  Sc96  1  0.29208631  0.29658499  0.69737524  1
  Sc  Sc97  1  0.89497127  0.89845145  0.49847724  1
  Sc  Sc98  1  0.29856058  0.70165943  0.49544406  1
  Sc  Sc99  1  0.49312412  0.69971828  0.70013513  1
  Nb  Nb100  1  0.10344060  0.89974164  0.89472687  1
  Nb  Nb101  1  0.50013506  0.10298844  0.70311906  1
  Nb  Nb102  1  0.90429986  0.69800303  0.49972264  1
  Nb  Nb103  1  0.69781340  0.89721604  0.09356844  1
  Nb  Nb104  1  0.70365947  0.09433916  0.49514625  1
  Nb  Nb105  1  0.49665420  0.09553071  0.30623564  1
  Nb  Nb106  1  0.69697081  0.50164579  0.49262858  1
  Nb  Nb107  1  0.70171175  0.30064646  0.29590633  1
  Nb  Nb108  1  0.10371064  0.70143883  0.30193758  1
  Nb  Nb109  1  0.30617100  0.90223333  0.09654086  1
  Nb  Nb110  1  0.09720853  0.69782290  0.70162469  1
  Nb  Nb111  1  0.90539549  0.10440217  0.70206524  1
  Nb  Nb112  1  0.29905276  0.50270500  0.09500564  1
  Nb  Nb113  1  0.29091402  0.70345246  0.30055997  1
  Nb  Nb114  1  0.69867452  0.90403941  0.51283412  1
  Nb  Nb115  1  0.90644391  0.70483218  0.30456856  1
  Nb  Nb116  1  0.70177144  0.49714099  0.30072934  1
  Nb  Nb117  1  0.69722326  0.89368643  0.69537204  1
  Nb  Nb118  1  0.69937390  0.30396456  0.90002095  1
  Nb  Nb119  1  0.49635421  0.70525033  0.89482275  1
  Nb  Nb120  1  0.90156143  0.10054605  0.91208194  1
  Nb  Nb121  1  0.50046308  0.90132428  0.70014663  1
  Nb  Nb122  1  0.90218648  0.09893004  0.09434759  1
  Nb  Nb123  1  0.10154559  0.50629971  0.90710105  1
  Nb  Nb124  1  0.30860236  0.70216246  0.89777406  1
  Nb  Nb125  1  0.60158279  0.40255552  0.59652151  1
  Nb  Nb126  1  -0.00225514  0.19122456  0.20290715  1
  Nb  Nb127  1  0.60237747  0.80266081  0.40512150  1
  Nb  Nb128  1  0.39907838  -0.00357598  0.20103247  1
  Nb  Nb129  1  -0.00298413  0.19409112  0.39696967  1
  Nb  Nb130  1  0.59655252  0.80825924  0.79929544  1
  Nb  Nb131  1  0.60774402  0.40010341  0.39849581  1
  Nb  Nb132  1  0.40292855  0.79895611  -0.00209683  1
  Nb  Nb133  1  0.40131462  0.39884979  0.79990413  1
  Nb  Nb134  1  0.59873863  0.80076521  -0.00705327  1
  Nb  Nb135  1  0.78933841  0.39705809  0.00114925  1
  Nb  Nb136  1  -0.00262943  -0.00112787  0.19458559  1
  Nb  Nb137  1  0.19631321  0.60244278  0.60547161  1
  Nb  Nb138  1  0.60234629  0.40072435  -0.00185027  1
  Nb  Nb139  1  0.80348502  0.19946600  0.20417876  1
  Nb  Nb140  1  0.40464700  0.00403174  0.79164558  1
  Nb  Nb141  1  0.19483030  0.20123572  0.20019298  1
  Nb  Nb142  1  0.79452005  0.39579828  0.19606094  1
  Nb  Nb143  1  -0.00092653  0.79181982  0.59881705  1
  Nb  Nb144  1  0.19767336  0.20119104  0.39643655  1
  Nb  Nb145  1  0.80413212  0.60233921  0.39913749  1
  Nb  Nb146  1  0.40091588  0.19711091  0.39457485  1
  Nb  Nb147  1  0.20357901  0.60360169  0.20445005  1
  Nb  Nb148  1  0.19868556  0.79917798  0.80328627  1
  Nb  Nb149  1  0.80017023  0.19675309  0.39742004  1
  Pd  Pd150  1  0.80811475  0.59415334  0.20696642  1
  Pd  Pd151  1  0.00661865  0.40457522  0.60820477  1
  Pd  Pd152  1  0.00749780  0.80405745  0.18878902  1
  Pd  Pd153  1  0.79780985  0.80104995  0.19737793  1
  Pd  Pd154  1  0.39045993  0.00242202  0.39839151  1
  Pd  Pd155  1  0.80870682  0.40944941  0.80856814  1
  Pd  Pd156  1  0.61213963  0.20162684  0.60526683  1
  Pd  Pd157  1  0.79958621  0.59704064  0.59564757  1
  Pd  Pd158  1  0.79174396  0.79680999  0.40693707  1
  Pd  Pd159  1  0.19710054  0.20308164  0.00107483  1
  Pd  Pd160  1  0.19234561  0.79367810  0.18679531  1
  Pd  Pd161  1  0.39886458  0.01211732  0.60620227  1
  Pd  Pd162  1  0.00194041  0.80272708  0.00553970  1
  Pd  Pd163  1  0.20352484  0.39706203  0.80816192  1
  Pd  Pd164  1  0.20592684  0.79301774  -0.00430398  1
  Pd  Pd165  1  0.40551247  0.39556380  0.61082760  1
  Pd  Pd166  1  0.60457678  0.59795483  0.60516723  1
  Pd  Pd167  1  0.80601473  0.00501537  0.79758338  1
  Pd  Pd168  1  0.59244810  0.00308912  0.19507707  1
  Pd  Pd169  1  0.38952694  0.59478269  0.20817484  1
  Pd  Pd170  1  0.19365006  0.19977918  0.59335863  1
  Pd  Pd171  1  0.59618088  0.60230575  0.00048046  1
  Pd  Pd172  1  0.20264066  0.60574455  0.80104554  1
  Pd  Pd173  1  0.40378314  0.79748397  0.40654137  1
  Pd  Pd174  1  -0.00618867  0.39934576  0.80925932  1
  Pd  Pd175  1  0.20075082  0.00483842  0.18599001  1
  Pd  Pd176  1  0.59248838  0.79283863  0.60183617  1
  Pd  Pd177  1  -0.00277311  0.59680324  0.39096572  1
  Pd  Pd178  1  0.80759429  0.59554202  0.80174032  1
  Pd  Pd179  1  0.19839404  0.00092451  0.60789962  1
  Pd  Pd180  1  0.60255964  0.79777897  0.19734273  1
  Pd  Pd181  1  0.79887329  0.39933174  0.39745349  1
  Pd  Pd182  1  0.59921868  0.00129900  0.79887253  1
  Pd  Pd183  1  0.79624794  0.19986141  0.60093722  1
  Pd  Pd184  1  0.19195589  0.79388332  0.60697929  1
  Pd  Pd185  1  0.79332308  0.40491266  0.60492037  1
  Pd  Pd186  1  0.60156464  0.00519133  0.60579413  1
  Pd  Pd187  1  -0.00304992  -0.00258082  0.40075231  1
  Pd  Pd188  1  0.18836117  0.40832001  0.60382673  1
  Pd  Pd189  1  0.19192170  0.39813355  0.40560941  1
  Pd  Pd190  1  0.60048938  0.20894133  0.39556652  1
  Pd  Pd191  1  0.39181257  0.18832722  0.20174735  1
  Pd  Pd192  1  0.59965657  -0.00225196  -0.00270554  1
  Pd  Pd193  1  0.39679450  0.19388549  0.59537752  1
  Pd  Pd194  1  -0.00389385  0.00471764  0.79811069  1
  Pd  Pd195  1  -0.00823175  0.39888567  -0.00790881  1
  Pd  Pd196  1  0.00780578  0.60039964  0.20497535  1
  Pd  Pd197  1  0.60016559  0.18743378  0.19894039  1
  Pd  Pd198  1  0.20583376  -0.00157315  0.40468175  1
  Pd  Pd199  1  0.60048285  0.20176467  0.00153599  1
  Rh  Rh200  1  0.19583475  0.20439335  0.80360768  1
  Rh  Rh201  1  0.20117415  0.59815192  0.39836890  1
  Rh  Rh202  1  -0.00672807  -0.00825136  0.60691263  1
  Rh  Rh203  1  0.38966334  0.20121045  0.79737682  1
  Rh  Rh204  1  0.20792590  0.41081052  0.19591141  1
  Rh  Rh205  1  0.20710379  -0.00643140  0.79441636  1
  Rh  Rh206  1  0.00251508  0.79824118  0.40637693  1
  Rh  Rh207  1  0.79410468  0.20812394  0.01285577  1
  Rh  Rh208  1  0.39684349  0.59205015  0.80406321  1
  Rh  Rh209  1  0.20045618  0.60156207  0.00453068  1
  Rh  Rh210  1  0.38947350  0.60658881  0.39503658  1
  Rh  Rh211  1  0.40835519  0.79167195  0.59282868  1
  Rh  Rh212  1  0.60720231  -0.01252809  0.40528875  1
  Rh  Rh213  1  0.60976775  0.60365609  0.39739776  1
  Rh  Rh214  1  0.39957870  -0.00060059  -0.00090664  1
  Rh  Rh215  1  0.40277892  0.60658580  -0.00277456  1
  Rh  Rh216  1  0.40175701  0.81373477  0.80950909  1
  Rh  Rh217  1  0.80193628  0.59438568  -0.00018876  1
  Rh  Rh218  1  0.79403379  0.80542760  0.80360464  1
  Rh  Rh219  1  0.00691131  0.80186934  0.79194285  1
  Rh  Rh220  1  -0.00314930  0.60011994  0.80477482  1
  Rh  Rh221  1  0.80047350  -0.00377899  0.60496128  1
  Rh  Rh222  1  0.19961940  0.00261082  -0.00283288  1
  Rh  Rh223  1  0.80934669  0.80260657  0.59857890  1
  Rh  Rh224  1  0.19832691  0.80218393  0.40370877  1
  Rh  Rh225  1  0.59856064  0.61439284  0.79277950  1
  Rh  Rh226  1  0.80703603  -0.00585449  -0.00118319  1
  Rh  Rh227  1  0.79302952  -0.00687156  0.40720292  1
  Rh  Rh228  1  0.00050755  0.39534959  0.40741181  1
  Rh  Rh229  1  0.00024575  0.60203142  -0.00184311  1
  Rh  Rh230  1  0.80046107  0.18972556  0.79545240  1
  Rh  Rh231  1  0.40877163  0.40929702  -0.01130155  1
  Rh  Rh232  1  0.60090542  0.60281917  0.20137512  1
  Rh  Rh233  1  0.61359329  0.18902924  0.79742842  1
  Rh  Rh234  1  -0.01198497  0.39616831  0.19203737  1
  Rh  Rh235  1  -0.00158027  0.19331186  0.80670673  1
  Rh  Rh236  1  0.59339580  0.40679122  0.79935570  1
  Rh  Rh237  1  0.00680300  0.60218503  0.60423028  1
  Rh  Rh238  1  0.39612323  0.41036240  0.20433076  1
  Rh  Rh239  1  0.39897950  0.19960191  -0.00153206  1
  Rh  Rh240  1  0.40221943  0.80671196  0.19157872  1
  Rh  Rh241  1  0.79218456  0.80345893  -0.00515243  1
  Rh  Rh242  1  0.60620761  0.40948313  0.19603223  1
  Rh  Rh243  1  -0.00074984  0.19821373  0.59726324  1
  Rh  Rh244  1  0.80619576  -0.00765870  0.19058232  1
  Rh  Rh245  1  0.00539280  0.19919972  -0.00293814  1
  Rh  Rh246  1  0.41728638  0.38794324  0.38873435  1
  Rh  Rh247  1  0.19713111  0.40709582  -0.00499676  1
  Rh  Rh248  1  0.00022468  -0.00518224  -0.00062791  1
  Rh  Rh249  1  0.38974904  0.60489719  0.59643153  1
