# generated using pymatgen
data_ZrScNbPdRh
_symmetry_space_group_name_H-M   'P 1'
_cell_length_a   16.55287170
_cell_length_b   16.55597936
_cell_length_c   16.55186510
_cell_angle_alpha   90.05271250
_cell_angle_beta   89.93815289
_cell_angle_gamma   90.03151320
_symmetry_Int_Tables_number   1
_chemical_formula_structural   ZrScNbPdRh
_chemical_formula_sum   'Zr50 Sc50 Nb50 Pd50 Rh50'
_cell_volume   4536.01686823
_cell_formula_units_Z   50
loop_
 _symmetry_equiv_pos_site_id
 _symmetry_equiv_pos_as_xyz
  1  'x, y, z'
loop_
 _atom_site_type_symbol
 _atom_site_label
 _atom_site_symmetry_multiplicity
 _atom_site_fract_x
 _atom_site_fract_y
 _atom_site_fract_z
 _atom_site_occupancy
  Zr  Zr0  1  0.49394343  0.49810737  0.28983318  1
  Zr  Zr1  1  0.50487401  0.70300467  0.49690427  1
  Zr  Zr2  1  0.09806630  0.50344658  0.50523400  1
  Zr  Zr3  1  0.30357869  0.91437875  0.48981564  1
  Zr  Zr4  1  0.89638692  0.29860900  0.09546251  1
  Zr  Zr5  1  0.50373447  0.30166433  0.29461928  1
  Zr  Zr6  1  0.49661306  0.70131238  0.09988463  1
  Zr  Zr7  1  0.49881632  0.69460961  0.69560203  1
  Zr  Zr8  1  0.31020853  0.50036224  0.69981217  1
  Zr  Zr9  1  0.09445197  0.30083620  0.51061911  1
  Zr  Zr10  1  0.87907963  0.69503075  0.70484099  1
  Zr  Zr11  1  0.70624989  0.51750619  0.70872310  1
  Zr  Zr12  1  0.69497882  0.90275346  0.10240403  1
  Zr  Zr13  1  0.89596296  0.70148681  0.49944293  1
  Zr  Zr14  1  0.30606212  0.50138956  0.09968651  1
  Zr  Zr15  1  0.29549789  0.69632921  0.89599645  1
  Zr  Zr16  1  0.90104388  0.70551359  0.30161687  1
  Zr  Zr17  1  0.30469902  0.30246988  0.50804715  1
  Zr  Zr18  1  0.11482732  0.70736747  0.70736367  1
  Zr  Zr19  1  0.09918506  0.09222691  0.09654889  1
  Zr  Zr20  1  0.50519601  0.89669639  0.90478799  1
  Zr  Zr21  1  0.69886809  0.49014315  0.29344006  1
  Zr  Zr22  1  0.49895904  0.70897463  0.29663130  1
  Zr  Zr23  1  0.89858049  0.09974181  0.50075999  1
  Zr  Zr24  1  0.90407203  0.71783376  0.90374695  1
  Zr  Zr25  1  0.70866284  0.69779093  0.88862228  1
  Zr  Zr26  1  0.70349194  0.29902315  0.90521034  1
  Zr  Zr27  1  0.50015705  0.10233103  0.70145134  1
  Zr  Zr28  1  0.09852515  0.50481018  0.30542684  1
  Zr  Zr29  1  0.70014430  0.30473602  0.10437520  1
  Zr  Zr30  1  0.10000844  0.09747437  0.89873024  1
  Zr  Zr31  1  0.29472745  0.09190117  0.09656657  1
  Zr  Zr32  1  0.29766980  0.50149432  0.50160466  1
  Zr  Zr33  1  0.90438597  0.89870556  0.09536801  1
  Zr  Zr34  1  0.29940154  0.30777672  0.29248330  1
  Zr  Zr35  1  0.29736564  0.29858234  0.09245490  1
  Zr  Zr36  1  0.69086531  0.29327714  0.30034785  1
  Zr  Zr37  1  0.89495568  0.90235402  0.50220972  1
  Zr  Zr38  1  0.89280171  0.89782671  0.70393869  1
  Zr  Zr39  1  0.50128730  0.30125891  0.88993763  1
  Zr  Zr40  1  0.50241298  0.09234927  0.09959662  1
  Zr  Zr41  1  0.30788488  0.89681159  0.90029084  1
  Zr  Zr42  1  0.89663457  0.49962532  0.30124461  1
  Zr  Zr43  1  0.49436915  0.30491028  0.09287449  1
  Zr  Zr44  1  0.90228451  0.29163936  0.90072570  1
  Zr  Zr45  1  0.69351396  0.70830989  0.69361280  1
  Zr  Zr46  1  0.90140181  0.09354230  0.90020803  1
  Zr  Zr47  1  0.09862398  0.50182887  0.09504390  1
  Zr  Zr48  1  0.29534064  0.89823006  0.69923288  1
  Zr  Zr49  1  0.69987072  0.50066316  0.90976056  1
  Sc  Sc50  1  0.49239332  0.09618225  0.50412766  1
  Sc  Sc51  1  0.69178458  0.10221386  0.10921005  1
  Sc  Sc52  1  0.09556418  0.70323960  0.09785298  1
  Sc  Sc53  1  0.30719444  0.09528142  0.70430815  1
  Sc  Sc54  1  0.49435983  0.09203423  0.89846756  1
  Sc  Sc55  1  0.30631902  0.69864121  0.70307290  1
  Sc  Sc56  1  0.51162813  0.10205174  0.29324468  1
  Sc  Sc57  1  0.10635646  0.90285159  0.50001413  1
  Sc  Sc58  1  0.50377982  0.90025427  0.10076131  1
  Sc  Sc59  1  0.69947886  0.28445055  0.71476169  1
  Sc  Sc60  1  0.69503021  0.50067999  0.49640410  1
  Sc  Sc61  1  0.10593612  0.30572623  0.89895197  1
  Sc  Sc62  1  0.70224736  0.89545860  0.29979524  1
  Sc  Sc63  1  0.90399273  0.09814806  0.08970242  1
  Sc  Sc64  1  0.70154428  0.09136165  0.69848179  1
  Sc  Sc65  1  0.49905720  0.49938545  0.08903572  1
  Sc  Sc66  1  0.29143109  0.08396776  0.29650987  1
  Sc  Sc67  1  0.09593778  0.09227427  0.50230004  1
  Sc  Sc68  1  0.50164089  0.90053845  0.69651340  1
  Sc  Sc69  1  0.09637513  0.29870877  0.29392867  1
  Sc  Sc70  1  0.70079328  0.70778737  0.29654380  1
  Sc  Sc71  1  0.88943886  0.30164521  0.29587219  1
  Sc  Sc72  1  0.69536520  0.90111837  0.70143078  1
  Sc  Sc73  1  0.90513114  0.49670237  0.70389486  1
  Sc  Sc74  1  0.30640302  0.70180564  0.09695337  1
  Sc  Sc75  1  0.29525719  0.69986536  0.50886416  1
  Sc  Sc76  1  0.49907919  0.29895078  0.49517174  1
  Sc  Sc77  1  0.91033354  0.29851381  0.69735359  1
  Sc  Sc78  1  0.30168719  0.50654395  0.90045688  1
  Sc  Sc79  1  0.90802306  0.49497064  0.90901694  1
  Sc  Sc80  1  0.70284319  0.10173229  0.88937957  1
  Sc  Sc81  1  0.70243083  0.89856310  0.50711183  1
  Sc  Sc82  1  0.09328399  0.09420492  0.30544766  1
  Sc  Sc83  1  0.10271256  0.49215983  0.70526520  1
  Sc  Sc84  1  0.29998781  0.09672910  0.89602224  1
  Sc  Sc85  1  0.89931628  0.70827232  0.10055393  1
  Sc  Sc86  1  0.49196620  0.70349699  0.90253943  1
  Sc  Sc87  1  0.10622575  0.50427553  0.90199040  1
  Sc  Sc88  1  0.90136354  0.89525392  0.30284083  1
  Sc  Sc89  1  0.89481290  0.09689343  0.69702664  1
  Sc  Sc90  1  0.10524624  0.30802781  0.70298984  1
  Sc  Sc91  1  0.50002466  0.49750886  0.89912452  1
  Sc  Sc92  1  0.10303524  0.29725990  0.09670014  1
  Sc  Sc93  1  0.10589377  0.90698185  0.69931317  1
  Sc  Sc94  1  0.69967609  0.90154398  0.90196247  1
  Sc  Sc95  1  0.10701395  0.89572910  0.29509699  1
  Sc  Sc96  1  0.49842993  0.50509440  0.49854833  1
  Sc  Sc97  1  0.09110790  0.89806910  0.89160026  1
  Sc  Sc98  1  0.09903319  0.70679581  0.31088409  1
  Sc  Sc99  1  0.70865330  0.70509243  0.09568114  1
  Nb  Nb100  1  0.50036444  0.89721612  0.30557701  1
  Nb  Nb101  1  0.70557273  0.50179913  0.09829565  1
  Nb  Nb102  1  0.89829437  0.49987172  0.50273049  1
  Nb  Nb103  1  0.29742395  0.89160849  0.29488390  1
  Nb  Nb104  1  0.69659996  0.29757795  0.50091969  1
  Nb  Nb105  1  0.09383014  0.69534775  0.50401899  1
  Nb  Nb106  1  0.89723915  0.29964165  0.50445759  1
  Nb  Nb107  1  0.28523253  0.90059472  0.11087893  1
  Nb  Nb108  1  0.11070682  0.09873155  0.70271514  1
  Nb  Nb109  1  0.29724612  0.10312355  0.49767651  1
  Nb  Nb110  1  0.10084830  0.89753028  0.10266957  1
  Nb  Nb111  1  0.69847120  0.10539549  0.30086098  1
  Nb  Nb112  1  0.49620587  0.29877244  0.70045454  1
  Nb  Nb113  1  0.29980099  0.50325566  0.29797120  1
  Nb  Nb114  1  0.89430219  0.49791513  0.10649010  1
  Nb  Nb115  1  0.69593975  0.10027934  0.50017178  1
  Nb  Nb116  1  0.30959817  0.29925389  0.89346450  1
  Nb  Nb117  1  0.89500988  0.10230675  0.30367049  1
  Nb  Nb118  1  0.30092238  0.70286927  0.29176840  1
  Nb  Nb119  1  0.89682111  0.90508748  0.90251052  1
  Nb  Nb120  1  0.50318440  0.49663972  0.70288620  1
  Nb  Nb121  1  0.49926125  0.90419337  0.48876166  1
  Nb  Nb122  1  0.70395508  0.69648535  0.50279084  1
  Nb  Nb123  1  0.10403120  0.69899189  0.90206934  1
  Nb  Nb124  1  0.31340687  0.29719642  0.70246865  1
  Nb  Nb125  1  -0.00346428  0.39838733  0.40700949  1
  Nb  Nb126  1  0.00761598  0.19379604  0.79927167  1
  Nb  Nb127  1  0.60359595  0.39482432  0.60966255  1
  Nb  Nb128  1  -0.00010715  0.79291900  0.60210830  1
  Nb  Nb129  1  -0.00128984  0.59713171  0.20033834  1
  Nb  Nb130  1  0.59995074  -0.00109608  0.40122487  1
  Nb  Nb131  1  0.79799676  0.60069582  0.40148031  1
  Nb  Nb132  1  0.19799224  0.80339638  0.00091744  1
  Nb  Nb133  1  0.39515197  0.19755393  0.19855639  1
  Nb  Nb134  1  0.59714733  0.20227856  -0.00336255  1
  Nb  Nb135  1  0.20082347  0.60256374  0.20365252  1
  Nb  Nb136  1  0.39355051  0.60495171  0.39023432  1
  Nb  Nb137  1  0.60320866  0.59873633  0.19382330  1
  Nb  Nb138  1  0.20639682  0.19780159  0.60229416  1
  Nb  Nb139  1  0.79394588  0.39536701  0.60145411  1
  Nb  Nb140  1  0.59930680  0.20281805  0.59974248  1
  Nb  Nb141  1  -0.00078858  0.60699367  0.60480611  1
  Nb  Nb142  1  0.19725419  0.39879542  0.40176234  1
  Nb  Nb143  1  0.20286393  0.20323614  0.40543641  1
  Nb  Nb144  1  -0.00638743  0.19443166  0.19888016  1
  Nb  Nb145  1  0.80023223  0.39814796  0.80076405  1
  Nb  Nb146  1  0.00365775  0.61091366  0.80126861  1
  Nb  Nb147  1  0.80240901  0.00766625  0.20602263  1
  Nb  Nb148  1  0.79490728  0.19939158  0.40551527  1
  Nb  Nb149  1  0.39298375  0.19763361  0.39258585  1
  Pd  Pd150  1  0.79376668  0.20258016  0.60186960  1
  Pd  Pd151  1  0.20622472  0.40218534  -0.00701922  1
  Pd  Pd152  1  0.21169812  0.40281580  0.80244440  1
  Pd  Pd153  1  0.79871773  0.60568666  0.20408292  1
  Pd  Pd154  1  0.41097993  0.40398461  0.59940404  1
  Pd  Pd155  1  -0.00610495  0.00213865  0.20486115  1
  Pd  Pd156  1  0.40607551  0.80050306  0.79493034  1
  Pd  Pd157  1  0.80039045  0.39719031  0.40727541  1
  Pd  Pd158  1  0.20189910  0.20328996  0.79472443  1
  Pd  Pd159  1  0.20537184  0.79840221  0.40604392  1
  Pd  Pd160  1  0.81235007  0.60274666  -0.00132091  1
  Pd  Pd161  1  0.00063412  -0.00521392  0.60580814  1
  Pd  Pd162  1  0.19678542  0.59666900  0.61092417  1
  Pd  Pd163  1  0.00180906  -0.00836809  0.39692974  1
  Pd  Pd164  1  0.60954502  0.80610556  0.40418977  1
  Pd  Pd165  1  0.61019233  0.40154815  0.79437702  1
  Pd  Pd166  1  0.59385190  0.40377821  0.40687466  1
  Pd  Pd167  1  -0.00638614  0.60433753  0.00154661  1
  Pd  Pd168  1  0.40659003  0.00997779  0.38576859  1
  Pd  Pd169  1  0.20707877  0.60445364  0.39667608  1
  Pd  Pd170  1  -0.00199320  0.00402140  0.79109211  1
  Pd  Pd171  1  0.00453432  0.80888679  0.40769813  1
  Pd  Pd172  1  0.40357298  0.19369245  -0.00097662  1
  Pd  Pd173  1  0.40113047  0.81209596  0.19374823  1
  Pd  Pd174  1  0.39853429  0.40211797  0.40018818  1
  Pd  Pd175  1  0.79143519  0.00278413  0.39641960  1
  Pd  Pd176  1  0.20007748  0.20062160  -0.00884302  1
  Pd  Pd177  1  0.40301788  -0.00178412  0.20516325  1
  Pd  Pd178  1  0.59528619  0.80820877  0.59448562  1
  Pd  Pd179  1  0.38864353  0.79402897  0.40551338  1
  Pd  Pd180  1  0.00923718  0.19131835  0.61089471  1
  Pd  Pd181  1  -0.00391544  0.20792865  0.39381947  1
  Pd  Pd182  1  0.19518744  0.19036308  0.20727530  1
  Pd  Pd183  1  0.00321082  0.39631812  0.00020213  1
  Pd  Pd184  1  0.59886879  0.60747982  0.00177853  1
  Pd  Pd185  1  0.79020719  0.00596956  0.00776894  1
  Pd  Pd186  1  0.60647107  0.79178628  -0.00287721  1
  Pd  Pd187  1  -0.00194947  0.39728653  0.20275932  1
  Pd  Pd188  1  0.19873927  0.80457996  0.59253307  1
  Pd  Pd189  1  0.19531732  -0.01209200  -0.01052915  1
  Pd  Pd190  1  0.19530671  0.40785219  0.20027645  1
  Pd  Pd191  1  0.60044034  0.60142816  0.38776852  1
  Pd  Pd192  1  0.39895129  -0.00273125  0.60275022  1
  Pd  Pd193  1  0.59099388  0.60659048  0.80818025  1
  Pd  Pd194  1  0.60026242  -0.00052328  0.80245909  1
  Pd  Pd195  1  0.00029095  0.79818078  0.79139343  1
  Pd  Pd196  1  0.59850783  0.59217484  0.59868508  1
  Pd  Pd197  1  0.39827666  -0.00885068  0.00647585  1
  Pd  Pd198  1  0.40009826  0.80495399  0.59223916  1
  Pd  Pd199  1  0.78932647  0.18708128  0.00477947  1
  Rh  Rh200  1  0.40192692  0.19762481  0.59718919  1
  Rh  Rh201  1  0.39772695  0.40385389  0.80216027  1
  Rh  Rh202  1  0.20262588  0.80682829  0.80994625  1
  Rh  Rh203  1  0.79670916  -0.00125964  0.60082238  1
  Rh  Rh204  1  0.00951269  0.20300682  -0.00093188  1
  Rh  Rh205  1  0.79190011  0.81135404  0.80388585  1
  Rh  Rh206  1  -0.00451994  0.39596720  0.80603298  1
  Rh  Rh207  1  0.60619278  -0.00991385  0.21337094  1
  Rh  Rh208  1  0.80654021  0.19428665  0.20349631  1
  Rh  Rh209  1  0.00273957  0.79476976  0.20098565  1
  Rh  Rh210  1  0.59862792  0.79685142  0.19673916  1
  Rh  Rh211  1  0.59815585  0.41005237  0.18662553  1
  Rh  Rh212  1  0.79970748  0.80465221  0.59979617  1
  Rh  Rh213  1  0.59662038  0.79760304  0.80095133  1
  Rh  Rh214  1  0.20254554  0.60918924  0.00943297  1
  Rh  Rh215  1  0.39142915  0.80719633  0.00769883  1
  Rh  Rh216  1  0.81615671  0.58848374  0.81758857  1
  Rh  Rh217  1  0.79402555  0.79390035  0.40414888  1
  Rh  Rh218  1  0.19166871  -0.00013792  0.20480159  1
  Rh  Rh219  1  0.59326203  0.19259584  0.80075969  1
  Rh  Rh220  1  0.40169274  0.60069219  0.20074295  1
  Rh  Rh221  1  0.81588839  0.20191665  0.79489262  1
  Rh  Rh222  1  0.60390459  0.01070317  -0.00711523  1
  Rh  Rh223  1  0.19652221  0.00026451  0.39639119  1
  Rh  Rh224  1  0.58900793  0.20503077  0.18737260  1
  Rh  Rh225  1  0.00742275  0.80763383  0.00003934  1
  Rh  Rh226  1  0.59527326  0.19058755  0.41056140  1
  Rh  Rh227  1  0.80008134  -0.00448013  0.80128630  1
  Rh  Rh228  1  0.79915399  0.39589486  0.19714826  1
  Rh  Rh229  1  0.40610529  0.59702614  0.79900297  1
  Rh  Rh230  1  0.20463005  -0.00556994  0.80292168  1
  Rh  Rh231  1  0.00553809  -0.00884558  -0.00268060  1
  Rh  Rh232  1  0.79914270  0.59075226  0.59135402  1
  Rh  Rh233  1  0.79696116  0.80672023  -0.00229725  1
  Rh  Rh234  1  0.19670527  0.59446171  0.79636044  1
  Rh  Rh235  1  0.20607736  0.00726204  0.60007773  1
  Rh  Rh236  1  0.80292880  0.81346313  0.19633201  1
  Rh  Rh237  1  0.59800949  0.00217141  0.59192990  1
  Rh  Rh238  1  0.39857007  0.39719594  0.19236493  1
  Rh  Rh239  1  -0.01114167  0.59570471  0.40251486  1
  Rh  Rh240  1  0.40531984  0.59984237  0.59482246  1
  Rh  Rh241  1  0.40098510  0.19612758  0.80324701  1
  Rh  Rh242  1  0.39389447  0.40125709  -0.01012901  1
  Rh  Rh243  1  0.40199803  -0.00691248  0.79768083  1
  Rh  Rh244  1  0.19618758  0.79029744  0.19342132  1
  Rh  Rh245  1  0.60210836  0.39527383  0.00172618  1
  Rh  Rh246  1  -0.00919686  0.40846849  0.59882530  1
  Rh  Rh247  1  0.80302927  0.40381230  -0.00085058  1
  Rh  Rh248  1  0.20869516  0.39494189  0.60456545  1
  Rh  Rh249  1  0.40084730  0.59971548  -0.00435703  1
