# generated using pymatgen
data_ZrScNbPdRh
_symmetry_space_group_name_H-M   'P 1'
_cell_length_a   16.55606991
_cell_length_b   16.56015551
_cell_length_c   16.56000712
_cell_angle_alpha   90.04301600
_cell_angle_beta   89.98516065
_cell_angle_gamma   90.04018802
_symmetry_Int_Tables_number   1
_chemical_formula_structural   ZrScNbPdRh
_chemical_formula_sum   'Zr50 Sc50 Nb50 Pd50 Rh50'
_cell_volume   4540.27269354
_cell_formula_units_Z   50
loop_
 _symmetry_equiv_pos_site_id
 _symmetry_equiv_pos_as_xyz
  1  'x, y, z'
loop_
 _atom_site_type_symbol
 _atom_site_label
 _atom_site_symmetry_multiplicity
 _atom_site_fract_x
 _atom_site_fract_y
 _atom_site_fract_z
 _atom_site_occupancy
  Zr  Zr0  1  0.89817109  0.49741138  0.70622822  1
  Zr  Zr1  1  0.10110162  0.51668794  0.49890725  1
  Zr  Zr2  1  0.49876685  0.29493594  0.70048361  1
  Zr  Zr3  1  0.90863159  0.68952971  0.09240933  1
  Zr  Zr4  1  0.90354070  0.70751353  0.50739090  1
  Zr  Zr5  1  0.51342573  0.09413793  0.49720996  1
  Zr  Zr6  1  0.09651889  0.89716247  0.29738088  1
  Zr  Zr7  1  0.50141835  0.49804722  0.70317933  1
  Zr  Zr8  1  0.49273039  0.30586376  0.10082403  1
  Zr  Zr9  1  0.49707281  0.90379693  0.69077080  1
  Zr  Zr10  1  0.10368840  0.29313693  0.90053931  1
  Zr  Zr11  1  0.49903974  0.30339778  0.90518913  1
  Zr  Zr12  1  0.89780458  0.89874957  0.10856342  1
  Zr  Zr13  1  0.29928854  0.09549584  0.10074951  1
  Zr  Zr14  1  0.68920449  0.49877251  0.89640674  1
  Zr  Zr15  1  0.90526121  0.50520293  0.29809164  1
  Zr  Zr16  1  0.09642593  0.70070896  0.68793935  1
  Zr  Zr17  1  0.10063635  0.30150743  0.30664750  1
  Zr  Zr18  1  0.10394212  0.50607882  0.69570514  1
  Zr  Zr19  1  0.49674922  0.09498279  0.30459735  1
  Zr  Zr20  1  0.89279753  0.11044603  0.90004945  1
  Zr  Zr21  1  0.70378627  0.09540440  0.68820391  1
  Zr  Zr22  1  0.89534543  0.29304446  0.09126903  1
  Zr  Zr23  1  0.90237501  0.30121454  0.49442367  1
  Zr  Zr24  1  0.10159048  0.69248138  0.30574908  1
  Zr  Zr25  1  0.30312959  0.70734106  0.29682578  1
  Zr  Zr26  1  0.70132381  0.89759352  0.28846473  1
  Zr  Zr27  1  0.30592277  0.70199422  0.70485176  1
  Zr  Zr28  1  0.89349197  0.08601026  0.29984303  1
  Zr  Zr29  1  0.51073987  0.69721791  0.50442913  1
  Zr  Zr30  1  0.68997306  0.10457713  0.31584018  1
  Zr  Zr31  1  0.69864355  0.89493970  0.70996351  1
  Zr  Zr32  1  0.90209594  0.49966958  0.10260323  1
  Zr  Zr33  1  0.09385587  0.10432580  0.50230291  1
  Zr  Zr34  1  0.10061953  0.49704220  0.29883874  1
  Zr  Zr35  1  0.30121076  0.29633217  0.90513500  1
  Zr  Zr36  1  0.50906270  0.30719432  0.30179892  1
  Zr  Zr37  1  0.89939357  0.31758560  0.30040753  1
  Zr  Zr38  1  0.49600576  0.70225572  0.30236893  1
  Zr  Zr39  1  0.69691366  0.70393121  0.30208687  1
  Zr  Zr40  1  0.10194939  0.90691543  0.70143559  1
  Zr  Zr41  1  0.49671516  0.09387152  0.69863050  1
  Zr  Zr42  1  0.30564274  0.49292285  0.50482335  1
  Zr  Zr43  1  0.11009639  0.10034486  0.69591972  1
  Zr  Zr44  1  0.10027777  0.50297938  0.10372583  1
  Zr  Zr45  1  0.29898169  0.70398391  0.90122381  1
  Zr  Zr46  1  0.69207766  0.69852418  0.89038442  1
  Zr  Zr47  1  0.10451805  0.30370287  0.10455000  1
  Zr  Zr48  1  0.89339692  0.09917742  0.09951195  1
  Zr  Zr49  1  0.30239235  0.49622706  0.30046169  1
  Sc  Sc50  1  0.30354503  0.10413238  0.50243248  1
  Sc  Sc51  1  0.10342534  0.89481660  0.09495650  1
  Sc  Sc52  1  0.69525570  0.69650347  0.09928265  1
  Sc  Sc53  1  0.69035902  0.09510513  0.89956571  1
  Sc  Sc54  1  0.70068906  0.50748590  0.70787889  1
  Sc  Sc55  1  0.69499372  0.29722532  0.90084718  1
  Sc  Sc56  1  0.10313120  0.29523667  0.71024609  1
  Sc  Sc57  1  0.90087083  0.70431020  0.29658689  1
  Sc  Sc58  1  0.29727811  0.10000390  0.90015442  1
  Sc  Sc59  1  0.28932974  0.90059886  0.89043360  1
  Sc  Sc60  1  0.49764204  0.49437496  0.48925913  1
  Sc  Sc61  1  0.50082115  0.90443915  0.30362655  1
  Sc  Sc62  1  0.29693959  0.50383132  0.70356918  1
  Sc  Sc63  1  0.69223916  0.51109858  0.50656814  1
  Sc  Sc64  1  0.29623321  0.70292641  0.09943889  1
  Sc  Sc65  1  0.90825883  0.70619677  0.90353306  1
  Sc  Sc66  1  0.69310671  0.10096838  0.09972033  1
  Sc  Sc67  1  0.49904272  0.70028441  0.09992853  1
  Sc  Sc68  1  0.50914177  0.90793064  0.11164114  1
  Sc  Sc69  1  0.69922371  0.30063644  0.71064420  1
  Sc  Sc70  1  0.50106736  0.10247084  0.10008394  1
  Sc  Sc71  1  0.89881127  0.50730249  0.89876816  1
  Sc  Sc72  1  0.28994383  0.89772099  0.10357309  1
  Sc  Sc73  1  0.70124161  0.28780070  0.48851905  1
  Sc  Sc74  1  0.69620884  0.50237402  0.09187660  1
  Sc  Sc75  1  0.29943032  0.30041058  0.09631749  1
  Sc  Sc76  1  0.10684940  0.09823549  0.09499451  1
  Sc  Sc77  1  0.89648809  0.90109381  0.50024014  1
  Sc  Sc78  1  0.30158393  0.28755033  0.69269277  1
  Sc  Sc79  1  0.10974471  0.49871246  0.89644128  1
  Sc  Sc80  1  0.49569992  0.10208948  0.89725672  1
  Sc  Sc81  1  0.30482838  0.50910577  0.90221640  1
  Sc  Sc82  1  0.09697386  0.89376842  0.89849212  1
  Sc  Sc83  1  0.50848301  0.70603870  0.70368553  1
  Sc  Sc84  1  0.90572240  0.50064089  0.49252783  1
  Sc  Sc85  1  0.51232410  0.91210212  0.88236430  1
  Sc  Sc86  1  0.30925787  0.69965941  0.49630502  1
  Sc  Sc87  1  0.69997687  0.48929333  0.29783377  1
  Sc  Sc88  1  0.10085880  0.10338481  0.30045960  1
  Sc  Sc89  1  0.10781614  0.09618566  0.89733441  1
  Sc  Sc90  1  0.49672800  0.68841472  0.89505968  1
  Sc  Sc91  1  0.31706907  0.90145852  0.50008013  1
  Sc  Sc92  1  0.08662998  0.90261945  0.50531500  1
  Sc  Sc93  1  0.68687662  0.29778763  0.10032506  1
  Sc  Sc94  1  0.30448127  0.29849235  0.49561813  1
  Sc  Sc95  1  0.31138410  0.90269805  0.29642035  1
  Sc  Sc96  1  0.89783185  0.89483351  0.30004393  1
  Sc  Sc97  1  0.89820744  0.90412625  0.70702655  1
  Sc  Sc98  1  0.10262816  0.70246921  0.09563381  1
  Sc  Sc99  1  0.70608448  0.89939402  0.51168041  1
  Nb  Nb100  1  0.50328928  0.49894723  0.90429668  1
  Nb  Nb101  1  0.89928968  0.69809503  0.69570860  1
  Nb  Nb102  1  0.70167128  0.70060546  0.68545010  1
  Nb  Nb103  1  0.89490508  0.90406690  0.90065967  1
  Nb  Nb104  1  0.70494406  0.70431758  0.50733844  1
  Nb  Nb105  1  0.09702650  0.70308434  0.90642992  1
  Nb  Nb106  1  0.10108429  0.70289174  0.50517032  1
  Nb  Nb107  1  0.30295921  0.90593827  0.69741087  1
  Nb  Nb108  1  0.89584850  0.10614313  0.69996045  1
  Nb  Nb109  1  0.69822954  0.29611651  0.29490975  1
  Nb  Nb110  1  0.69753657  0.89843504  0.09578828  1
  Nb  Nb111  1  0.88364491  0.09936849  0.50697752  1
  Nb  Nb112  1  0.30224946  0.09931577  0.30289355  1
  Nb  Nb113  1  0.70320794  0.90082989  0.89786973  1
  Nb  Nb114  1  0.49767422  0.49595234  0.29116226  1
  Nb  Nb115  1  0.49597129  0.49237327  0.09722987  1
  Nb  Nb116  1  0.50410521  0.89872638  0.49753743  1
  Nb  Nb117  1  0.89879218  0.30170223  0.89530218  1
  Nb  Nb118  1  0.29945964  0.08543380  0.69921161  1
  Nb  Nb119  1  0.49531163  0.30598859  0.50629187  1
  Nb  Nb120  1  0.30815525  0.49241908  0.10353911  1
  Nb  Nb121  1  0.09671029  0.29691381  0.50447640  1
  Nb  Nb122  1  0.29789619  0.29602628  0.30016125  1
  Nb  Nb123  1  0.89886815  0.30133960  0.70975758  1
  Nb  Nb124  1  0.70848726  0.09565046  0.50001488  1
  Nb  Nb125  1  0.19813527  0.80421266  0.40625417  1
  Nb  Nb126  1  0.79549090  0.80535566  -0.00304272  1
  Nb  Nb127  1  0.60075726  0.80741355  -0.00483245  1
  Nb  Nb128  1  0.80105335  0.39645998  0.60263828  1
  Nb  Nb129  1  0.20192818  -0.00259009  0.40028514  1
  Nb  Nb130  1  0.40710859  0.81151286  -0.00500001  1
  Nb  Nb131  1  0.79630212  0.60857579  0.40260150  1
  Nb  Nb132  1  0.40038275  -0.00940969  -0.00114974  1
  Nb  Nb133  1  0.60368884  0.79953158  0.40703789  1
  Nb  Nb134  1  0.79724566  0.20272203  0.20738020  1
  Nb  Nb135  1  -0.01074464  0.20190012  0.60466145  1
  Nb  Nb136  1  0.58960358  0.59156626  0.20269417  1
  Nb  Nb137  1  -0.01081195  -0.00258691  -0.00351647  1
  Nb  Nb138  1  0.19268909  0.39691567  0.59702005  1
  Nb  Nb139  1  -0.00756622  0.20250967  0.20197313  1
  Nb  Nb140  1  -0.00341357  0.39551301  -0.00447045  1
  Nb  Nb141  1  0.40349323  0.39828787  0.80443172  1
  Nb  Nb142  1  0.60020771  0.39430056  0.59933808  1
  Nb  Nb143  1  0.20304631  0.80208106  0.59692096  1
  Nb  Nb144  1  0.79672977  -0.00670957  -0.00138364  1
  Nb  Nb145  1  0.40577112  0.59900389  0.60180986  1
  Nb  Nb146  1  0.80397034  0.39601550  -0.00619444  1
  Nb  Nb147  1  0.00047629  0.39388743  0.60314234  1
  Nb  Nb148  1  0.00411870  0.60806433  0.79598997  1
  Nb  Nb149  1  0.39533300  0.20012311  0.20972213  1
  Pd  Pd150  1  0.39349521  0.19814523  0.79989716  1
  Pd  Pd151  1  0.60182586  0.19289754  0.79918086  1
  Pd  Pd152  1  0.20453214  0.60015074  0.19593534  1
  Pd  Pd153  1  0.40023109  0.79330782  0.59877250  1
  Pd  Pd154  1  0.19992452  0.19924621  0.19936843  1
  Pd  Pd155  1  0.80667358  0.59062171  0.59358497  1
  Pd  Pd156  1  0.19854006  -0.00250670  0.20833449  1
  Pd  Pd157  1  0.00042344  0.00327261  0.40206901  1
  Pd  Pd158  1  0.40499527  0.80771241  0.18931848  1
  Pd  Pd159  1  0.60759543  0.39894987  0.40806632  1
  Pd  Pd160  1  0.00265876  0.79749312  0.40249044  1
  Pd  Pd161  1  0.80391223  0.79073517  0.80032806  1
  Pd  Pd162  1  0.19476122  0.79717849  0.79208826  1
  Pd  Pd163  1  0.20029022  0.40607418  0.00108939  1
  Pd  Pd164  1  0.40718960  0.80876184  0.80703558  1
  Pd  Pd165  1  0.21152231  0.60637899  0.40414061  1
  Pd  Pd166  1  0.78824541  0.41104289  0.41105794  1
  Pd  Pd167  1  -0.00182244  0.00890392  0.80613072  1
  Pd  Pd168  1  0.00455878  0.40746349  0.80437148  1
  Pd  Pd169  1  0.20108066  0.59882315  0.00427211  1
  Pd  Pd170  1  0.80938636  0.20085802  0.39105031  1
  Pd  Pd171  1  0.60468512  0.59966086  0.39288285  1
  Pd  Pd172  1  0.40772460  0.20410138  0.40004838  1
  Pd  Pd173  1  0.20169471  0.19399099  0.40565767  1
  Pd  Pd174  1  0.01046644  0.00593443  0.19229800  1
  Pd  Pd175  1  0.00869962  0.19637237  0.00263425  1
  Pd  Pd176  1  0.00423377  0.19176153  0.79659076  1
  Pd  Pd177  1  0.40131525  0.60568370  0.00596748  1
  Pd  Pd178  1  0.60470931  0.20540754  0.59466653  1
  Pd  Pd179  1  0.78963071  0.60071446  0.20570020  1
  Pd  Pd180  1  0.79548857  0.60129997  -0.00769365  1
  Pd  Pd181  1  0.80039845  0.78778127  0.18934986  1
  Pd  Pd182  1  0.40012448  0.59707841  0.40291510  1
  Pd  Pd183  1  0.78825640  0.19644234  0.80265360  1
  Pd  Pd184  1  0.79040697  0.39569552  0.18700568  1
  Pd  Pd185  1  0.59538207  0.19766136  -0.00009919  1
  Pd  Pd186  1  -0.00235824  0.79662178  0.79525349  1
  Pd  Pd187  1  0.60372933  0.00825989  0.20289088  1
  Pd  Pd188  1  -0.01131137  0.19209494  0.39777798  1
  Pd  Pd189  1  0.79326322  -0.01316002  0.40005807  1
  Pd  Pd190  1  0.19401688  0.61149290  0.80436182  1
  Pd  Pd191  1  0.20658989  -0.00904900  0.58606733  1
  Pd  Pd192  1  0.19789988  0.39792945  0.40837997  1
  Pd  Pd193  1  0.21258578  0.39296615  0.79267296  1
  Pd  Pd194  1  0.80594397  0.61103351  0.80434629  1
  Pd  Pd195  1  0.00563600  0.79201552  0.19534596  1
  Pd  Pd196  1  0.79895445  0.21226757  0.60329075  1
  Pd  Pd197  1  0.40108176  0.59964561  0.19216678  1
  Pd  Pd198  1  -0.01206865  0.00631589  0.60396288  1
  Pd  Pd199  1  0.40157830  0.19178790  0.59635025  1
  Rh  Rh200  1  0.79385731  0.39898508  0.80530988  1
  Rh  Rh201  1  -0.00126730  0.80879513  0.60621996  1
  Rh  Rh202  1  0.59518604  0.19746441  0.20521890  1
  Rh  Rh203  1  0.80630551  0.80548714  0.60987269  1
  Rh  Rh204  1  0.19690999  0.79896810  0.21007423  1
  Rh  Rh205  1  0.59638951  -0.00534719  -0.00151152  1
  Rh  Rh206  1  0.20766433  0.19482580  0.79766839  1
  Rh  Rh207  1  0.59188090  0.20585621  0.40517983  1
  Rh  Rh208  1  0.39928292  0.39382064  0.39098408  1
  Rh  Rh209  1  0.60111782  0.80697660  0.59823284  1
  Rh  Rh210  1  0.20783231  0.40141207  0.20158838  1
  Rh  Rh211  1  0.61079160  -0.01425763  0.40697577  1
  Rh  Rh212  1  0.20048585  0.00055851  0.80041805  1
  Rh  Rh213  1  0.60440454  0.39977211  0.00253179  1
  Rh  Rh214  1  0.40296957  0.00541679  0.59311473  1
  Rh  Rh215  1  0.21817987  0.60535253  0.59307277  1
  Rh  Rh216  1  0.59393991  0.39735919  0.79705264  1
  Rh  Rh217  1  -0.00615672  0.80892900  0.00433376  1
  Rh  Rh218  1  0.20159556  0.19847780  0.00104528  1
  Rh  Rh219  1  0.39821063  0.18840984  0.00968112  1
  Rh  Rh220  1  0.01129832  0.58968140  -0.01192271  1
  Rh  Rh221  1  0.20644676  0.79962354  -0.00431997  1
  Rh  Rh222  1  0.39418616  0.40710495  -0.00724827  1
  Rh  Rh223  1  0.39952673  0.00529037  0.19342161  1
  Rh  Rh224  1  0.19737061  0.20402157  0.59867371  1
  Rh  Rh225  1  0.60449352  -0.00425091  0.59869095  1
  Rh  Rh226  1  0.01347773  0.40742688  0.40784149  1
  Rh  Rh227  1  -0.01130177  0.59324850  0.60326921  1
  Rh  Rh228  1  0.39378284  -0.00099973  0.80442282  1
  Rh  Rh229  1  0.39225102  0.39092135  0.20475661  1
  Rh  Rh230  1  0.60285063  0.40615212  0.19319287  1
  Rh  Rh231  1  -0.00960334  0.60968464  0.39976009  1
  Rh  Rh232  1  0.59623307  0.79258758  0.19963442  1
  Rh  Rh233  1  0.39594677  0.00241360  0.40464742  1
  Rh  Rh234  1  0.59378700  0.59248931  0.60523958  1
  Rh  Rh235  1  0.00533068  0.60488476  0.20269546  1
  Rh  Rh236  1  0.40000046  0.40464162  0.61083802  1
  Rh  Rh237  1  0.59891315  0.79662328  0.79991982  1
  Rh  Rh238  1  0.80349374  -0.00670774  0.60657768  1
  Rh  Rh239  1  0.40729326  0.80393095  0.40063955  1
  Rh  Rh240  1  0.59166560  0.60337406  0.00789630  1
  Rh  Rh241  1  0.78572640  0.00988989  0.19737086  1
  Rh  Rh242  1  0.79355282  0.79869529  0.40200103  1
  Rh  Rh243  1  0.19841463  -0.00690524  -0.00555822  1
  Rh  Rh244  1  0.40415859  0.59196337  0.79544790  1
  Rh  Rh245  1  0.60508948  0.00765150  0.79015029  1
  Rh  Rh246  1  0.79810981  0.00979177  0.80207784  1
  Rh  Rh247  1  0.00136232  0.39457768  0.19298569  1
  Rh  Rh248  1  0.59922379  0.60414401  0.79244689  1
  Rh  Rh249  1  0.78574615  0.20142045  0.00060775  1
