# generated using pymatgen
data_ZrScNbPdRh
_symmetry_space_group_name_H-M   'P 1'
_cell_length_a   16.55426972
_cell_length_b   16.55517180
_cell_length_c   16.55756747
_cell_angle_alpha   90.00448895
_cell_angle_beta   89.99706669
_cell_angle_gamma   90.02034659
_symmetry_Int_Tables_number   1
_chemical_formula_structural   ZrScNbPdRh
_chemical_formula_sum   'Zr50 Sc50 Nb50 Pd50 Rh50'
_cell_volume   4537.74642183
_cell_formula_units_Z   50
loop_
 _symmetry_equiv_pos_site_id
 _symmetry_equiv_pos_as_xyz
  1  'x, y, z'
loop_
 _atom_site_type_symbol
 _atom_site_label
 _atom_site_symmetry_multiplicity
 _atom_site_fract_x
 _atom_site_fract_y
 _atom_site_fract_z
 _atom_site_occupancy
  Zr  Zr0  1  0.30180416  0.09802325  0.50428780  1
  Zr  Zr1  1  0.10501496  0.10407243  0.69588328  1
  Zr  Zr2  1  0.29719854  0.29704586  0.90047448  1
  Zr  Zr3  1  0.50198296  0.70184789  0.89771347  1
  Zr  Zr4  1  0.29659397  0.09821531  0.70478435  1
  Zr  Zr5  1  0.29764684  0.49927473  0.70837201  1
  Zr  Zr6  1  0.30145063  0.29694625  0.70811201  1
  Zr  Zr7  1  0.09749589  0.69942855  0.30016144  1
  Zr  Zr8  1  0.29527033  0.69958013  0.30779123  1
  Zr  Zr9  1  0.49298253  0.89220080  0.29420911  1
  Zr  Zr10  1  0.29683428  0.70199298  0.70110301  1
  Zr  Zr11  1  0.89707187  0.69219063  0.30614202  1
  Zr  Zr12  1  0.89753039  0.09898203  0.50002336  1
  Zr  Zr13  1  0.09601020  0.50758303  0.30032961  1
  Zr  Zr14  1  0.50542462  0.09789848  0.10813747  1
  Zr  Zr15  1  0.89759082  0.70721464  0.49957185  1
  Zr  Zr16  1  0.29922849  0.89657063  0.10104735  1
  Zr  Zr17  1  0.89671109  0.30736866  0.29650521  1
  Zr  Zr18  1  0.09558990  0.09885853  0.10613433  1
  Zr  Zr19  1  0.10448985  0.90755117  0.29514216  1
  Zr  Zr20  1  0.90136339  0.30406938  0.50351006  1
  Zr  Zr21  1  0.30004581  0.89381056  0.89405153  1
  Zr  Zr22  1  0.50178394  0.70233666  0.10196408  1
  Zr  Zr23  1  0.30124736  0.50116776  0.48592842  1
  Zr  Zr24  1  0.69930399  0.10729999  0.70541897  1
  Zr  Zr25  1  0.70008633  0.69777965  0.70396255  1
  Zr  Zr26  1  0.69063565  0.89311037  0.29856147  1
  Zr  Zr27  1  0.50463619  0.69352184  0.49226586  1
  Zr  Zr28  1  0.50611666  0.30259163  0.50445874  1
  Zr  Zr29  1  0.49832778  0.50488069  0.09968330  1
  Zr  Zr30  1  0.09458201  0.50966342  0.09762869  1
  Zr  Zr31  1  0.51024934  0.49096789  0.70786091  1
  Zr  Zr32  1  0.89704879  0.48897293  0.90008638  1
  Zr  Zr33  1  0.70247619  0.09115992  0.90087237  1
  Zr  Zr34  1  0.10083294  0.29531172  0.09376293  1
  Zr  Zr35  1  0.28737061  0.09132713  0.30798320  1
  Zr  Zr36  1  0.71186380  0.29808417  0.30396829  1
  Zr  Zr37  1  0.69924114  0.10194716  0.29355934  1
  Zr  Zr38  1  0.89850005  0.10196855  0.29890483  1
  Zr  Zr39  1  0.09491771  0.90283579  0.89573682  1
  Zr  Zr40  1  0.50425941  0.10622002  0.70472369  1
  Zr  Zr41  1  0.70753353  0.30501176  0.50742060  1
  Zr  Zr42  1  0.48864655  0.30422765  0.10297519  1
  Zr  Zr43  1  0.49471341  0.50141193  0.90235765  1
  Zr  Zr44  1  0.89945826  0.90348663  0.90129766  1
  Zr  Zr45  1  0.70476770  0.10064500  0.49942504  1
  Zr  Zr46  1  0.89561411  0.30623302  0.70138054  1
  Zr  Zr47  1  0.50281355  0.29356831  0.29926764  1
  Zr  Zr48  1  0.09762461  0.90345292  0.09804610  1
  Zr  Zr49  1  0.09551337  0.30024994  0.69041397  1
  Sc  Sc50  1  0.09907494  0.49861763  0.69955365  1
  Sc  Sc51  1  0.30615999  0.29927997  0.29956318  1
  Sc  Sc52  1  0.71532954  0.29410630  0.10453876  1
  Sc  Sc53  1  0.49894654  0.89770819  0.10379693  1
  Sc  Sc54  1  0.70039907  0.50089920  0.89462494  1
  Sc  Sc55  1  0.90541002  0.10668170  0.09643280  1
  Sc  Sc56  1  0.28909478  0.70199921  0.08870541  1
  Sc  Sc57  1  0.90262861  0.30046468  0.90415010  1
  Sc  Sc58  1  0.09686285  0.89174070  0.49116717  1
  Sc  Sc59  1  0.69793393  0.89586798  0.69675283  1
  Sc  Sc60  1  0.89734179  0.10231661  0.89675977  1
  Sc  Sc61  1  0.09545448  0.69582132  0.49712074  1
  Sc  Sc62  1  0.49695674  0.30389382  0.88831503  1
  Sc  Sc63  1  0.29850640  0.89771644  0.69919782  1
  Sc  Sc64  1  0.89507292  0.89464308  0.50018778  1
  Sc  Sc65  1  0.10077221  0.69684097  0.70196836  1
  Sc  Sc66  1  0.89642313  0.10594345  0.70210427  1
  Sc  Sc67  1  0.70310094  0.89333359  0.49940933  1
  Sc  Sc68  1  0.49787873  0.09029501  0.30099357  1
  Sc  Sc69  1  0.69813769  0.70850029  0.49920669  1
  Sc  Sc70  1  0.90312849  0.50006960  0.70554658  1
  Sc  Sc71  1  0.30205901  0.69750933  0.89599819  1
  Sc  Sc72  1  0.90164160  0.49787763  0.49543014  1
  Sc  Sc73  1  0.90411566  0.89354884  0.70140413  1
  Sc  Sc74  1  0.11319506  0.10370416  0.50011604  1
  Sc  Sc75  1  0.49935861  0.89950283  0.89520283  1
  Sc  Sc76  1  0.50555902  0.09665089  0.89066772  1
  Sc  Sc77  1  0.90157362  0.90989258  0.09020440  1
  Sc  Sc78  1  0.49321282  0.50950272  0.31186401  1
  Sc  Sc79  1  0.70379029  0.49604867  0.70671984  1
  Sc  Sc80  1  0.50773725  0.70350605  0.69990435  1
  Sc  Sc81  1  0.10205821  0.89593249  0.70889064  1
  Sc  Sc82  1  0.10731723  0.69454958  0.89748646  1
  Sc  Sc83  1  0.10036509  0.50098600  0.89634567  1
  Sc  Sc84  1  0.10053873  0.49310432  0.50101259  1
  Sc  Sc85  1  0.09490677  0.29988276  0.89843863  1
  Sc  Sc86  1  0.90803039  0.70132461  0.70442208  1
  Sc  Sc87  1  0.28694688  0.11245034  0.10623060  1
  Sc  Sc88  1  0.69373532  0.69329168  0.10957165  1
  Sc  Sc89  1  0.29213773  0.70311319  0.50141831  1
  Sc  Sc90  1  0.09390587  0.30668378  0.29292604  1
  Sc  Sc91  1  0.90704988  0.90184250  0.30895872  1
  Sc  Sc92  1  0.29829486  0.89867390  0.49840570  1
  Sc  Sc93  1  0.49956146  0.89655547  0.70125981  1
  Sc  Sc94  1  0.50023808  0.89665850  0.49728990  1
  Sc  Sc95  1  0.29192492  0.29773083  0.49418995  1
  Sc  Sc96  1  0.69499116  0.69699666  0.30143549  1
  Sc  Sc97  1  0.71460985  0.30330316  0.90126402  1
  Sc  Sc98  1  0.09788597  0.10635813  0.89988567  1
  Sc  Sc99  1  0.69945607  0.50057965  0.50598244  1
  Nb  Nb100  1  0.09342935  0.29512994  0.50504292  1
  Nb  Nb101  1  0.90726210  0.31152813  0.09482779  1
  Nb  Nb102  1  0.49823282  0.50032293  0.50208466  1
  Nb  Nb103  1  0.29432469  0.89898622  0.30133855  1
  Nb  Nb104  1  0.69682049  0.50207882  0.10190068  1
  Nb  Nb105  1  0.30189751  0.50019332  0.90459812  1
  Nb  Nb106  1  0.70392601  0.69833617  0.89959939  1
  Nb  Nb107  1  0.29409556  0.50563019  0.29930824  1
  Nb  Nb108  1  0.70301029  0.90539391  0.09381490  1
  Nb  Nb109  1  0.90070893  0.49808664  0.09967317  1
  Nb  Nb110  1  0.50552080  0.30054319  0.69878056  1
  Nb  Nb111  1  0.69853021  0.09329388  0.09911105  1
  Nb  Nb112  1  0.89943163  0.49790992  0.29636878  1
  Nb  Nb113  1  0.30713990  0.49642638  0.09648882  1
  Nb  Nb114  1  0.68911664  0.30655552  0.69741680  1
  Nb  Nb115  1  0.90335613  0.69349122  0.09982910  1
  Nb  Nb116  1  0.70596628  0.90330312  0.90924430  1
  Nb  Nb117  1  0.29797627  0.10329471  0.89700270  1
  Nb  Nb118  1  0.50119362  0.10094079  0.50362076  1
  Nb  Nb119  1  0.70657717  0.49750406  0.29518251  1
  Nb  Nb120  1  0.30160284  0.30603804  0.09827810  1
  Nb  Nb121  1  0.09197899  0.69741544  0.09877457  1
  Nb  Nb122  1  0.09602778  0.09508229  0.29561873  1
  Nb  Nb123  1  0.50184427  0.70225047  0.29510046  1
  Nb  Nb124  1  0.89330249  0.69674223  0.90041140  1
  Nb  Nb125  1  0.40068558  0.19578043  -0.00110925  1
  Nb  Nb126  1  0.40308620  0.40030490  0.60174491  1
  Nb  Nb127  1  0.80235618  0.60509123  0.60332714  1
  Nb  Nb128  1  0.59890734  0.20166628  0.00423470  1
  Nb  Nb129  1  -0.00448731  0.79492610  0.19277699  1
  Nb  Nb130  1  0.20522657  0.00309028  -0.00357137  1
  Nb  Nb131  1  0.20715296  0.40441233  0.00428444  1
  Nb  Nb132  1  0.80191686  0.59896924  0.00424871  1
  Nb  Nb133  1  0.59966237  0.00703950  0.59870141  1
  Nb  Nb134  1  0.61251647  0.80239168  -0.00278936  1
  Nb  Nb135  1  0.40382535  0.59258907  0.59808140  1
  Nb  Nb136  1  0.00279577  0.20037335  0.40001517  1
  Nb  Nb137  1  0.79737166  0.79859659  0.81232818  1
  Nb  Nb138  1  0.60252158  0.20070131  0.40416554  1
  Nb  Nb139  1  0.20740935  0.40797172  0.19371823  1
  Nb  Nb140  1  0.60359612  0.39999310  0.39600903  1
  Nb  Nb141  1  0.40588912  0.20332863  0.60336132  1
  Nb  Nb142  1  0.79492372  -0.00269856  0.19548588  1
  Nb  Nb143  1  0.60403301  0.40601354  0.20278296  1
  Nb  Nb144  1  0.60179608  0.39757780  0.00844659  1
  Nb  Nb145  1  0.39320404  0.60122102  0.20273113  1
  Nb  Nb146  1  0.39200896  0.00797832  -0.00148842  1
  Nb  Nb147  1  -0.00433646  0.78921595  0.00086411  1
  Nb  Nb148  1  0.00167335  0.00194119  0.59929441  1
  Nb  Nb149  1  0.80494521  0.80287309  0.19317050  1
  Pd  Pd150  1  0.40460584  0.79050076  0.59749777  1
  Pd  Pd151  1  0.60929346  0.21001912  0.81370715  1
  Pd  Pd152  1  0.19124611  -0.01285309  0.59630767  1
  Pd  Pd153  1  -0.00059066  0.20257961  0.79956127  1
  Pd  Pd154  1  0.59874656  0.00132033  0.40484230  1
  Pd  Pd155  1  -0.00475068  0.59949694  -0.01279063  1
  Pd  Pd156  1  0.00052783  0.59890870  0.80469393  1
  Pd  Pd157  1  0.80249231  0.60251641  0.19653967  1
  Pd  Pd158  1  0.40443010  0.60464570  0.79175576  1
  Pd  Pd159  1  0.38923403  0.78915141  0.19907778  1
  Pd  Pd160  1  0.39493360  0.61014213  0.00359475  1
  Pd  Pd161  1  0.40768337  0.00130877  0.60395510  1
  Pd  Pd162  1  0.80133823  -0.00681335  0.60738536  1
  Pd  Pd163  1  0.80037707  0.19661679  0.00207068  1
  Pd  Pd164  1  -0.00111639  0.00853635  0.79138295  1
  Pd  Pd165  1  0.79517982  -0.00850279  0.39242926  1
  Pd  Pd166  1  0.19407045  0.39872841  0.80762065  1
  Pd  Pd167  1  0.39976305  -0.00243141  0.80068386  1
  Pd  Pd168  1  0.58728558  -0.00207132  -0.00141529  1
  Pd  Pd169  1  0.19311503  0.39408460  0.39145012  1
  Pd  Pd170  1  0.79370318  0.59568885  0.40845453  1
  Pd  Pd171  1  0.60544338  0.20783661  0.19719726  1
  Pd  Pd172  1  0.40450616  0.39737015  0.39898255  1
  Pd  Pd173  1  0.80108066  0.20361947  0.60619628  1
  Pd  Pd174  1  0.60742722  0.80723725  0.80753649  1
  Pd  Pd175  1  0.40509336  0.19608426  0.40421063  1
  Pd  Pd176  1  -0.00461686  0.20511045  0.20333325  1
  Pd  Pd177  1  0.20337500  0.59571348  0.59597555  1
  Pd  Pd178  1  0.80020903  0.40251891  0.19175003  1
  Pd  Pd179  1  0.79918855  -0.00832468  0.79177672  1
  Pd  Pd180  1  0.80032203  0.79170894  0.00550429  1
  Pd  Pd181  1  0.19116640  0.80300687  0.60022509  1
  Pd  Pd182  1  0.19377789  0.79512206  0.19966582  1
  Pd  Pd183  1  0.39828006  0.79757690  0.40404298  1
  Pd  Pd184  1  0.19023120  0.80281231  -0.00653393  1
  Pd  Pd185  1  -0.00614742  0.59591532  0.59700233  1
  Pd  Pd186  1  0.00598734  0.80633139  0.60119720  1
  Pd  Pd187  1  0.20605901  0.60010420  0.19231930  1
  Pd  Pd188  1  0.00296862  0.39717558  0.40053993  1
  Pd  Pd189  1  0.38910659  0.00544210  0.19597089  1
  Pd  Pd190  1  0.20037490  0.21024941  0.20955675  1
  Pd  Pd191  1  0.18938117  0.20696954  0.39099332  1
  Pd  Pd192  1  0.39184264  0.19008368  0.20224987  1
  Pd  Pd193  1  0.60335845  0.59711118  0.60420321  1
  Pd  Pd194  1  0.20664054  0.39853000  0.59755563  1
  Pd  Pd195  1  0.60842367  0.59371310  0.39584189  1
  Pd  Pd196  1  0.40124380  0.41035632  0.21380300  1
  Pd  Pd197  1  0.60743845  0.59985688  -0.00638826  1
  Pd  Pd198  1  0.00836539  0.00801947  0.40993822  1
  Pd  Pd199  1  0.39935630  -0.00580811  0.40104511  1
  Rh  Rh200  1  0.21002553  0.20744962  0.60169223  1
  Rh  Rh201  1  0.80482303  0.20184216  0.40301595  1
  Rh  Rh202  1  0.60688659  0.80351457  0.19058474  1
  Rh  Rh203  1  0.60006506  0.19455602  0.59615426  1
  Rh  Rh204  1  0.00608858  0.00513497  -0.00485791  1
  Rh  Rh205  1  0.39909586  0.79625443  0.79478305  1
  Rh  Rh206  1  0.79717466  0.40895015  0.40349953  1
  Rh  Rh207  1  0.19105832  0.20154881  0.79932083  1
  Rh  Rh208  1  0.80167542  0.60393296  0.79864775  1
  Rh  Rh209  1  0.59706867  0.80856881  0.59465771  1
  Rh  Rh210  1  0.41158423  0.80364141  -0.00205126  1
  Rh  Rh211  1  -0.01139345  -0.00653566  0.20026140  1
  Rh  Rh212  1  0.00819972  0.40154792  0.00087017  1
  Rh  Rh213  1  0.59007466  0.59223614  0.21139403  1
  Rh  Rh214  1  0.39918783  0.40152493  0.79865198  1
  Rh  Rh215  1  0.00416640  0.40648880  0.19335248  1
  Rh  Rh216  1  0.80253417  0.79124515  0.61164072  1
  Rh  Rh217  1  0.19869386  0.80243354  0.39850603  1
  Rh  Rh218  1  0.00241922  0.39803770  0.79803788  1
  Rh  Rh219  1  -0.00122053  0.19114768  0.59212516  1
  Rh  Rh220  1  -0.00049474  0.79674040  0.39242893  1
  Rh  Rh221  1  -0.00169981  0.59616700  0.40340933  1
  Rh  Rh222  1  0.60664179  0.39523162  0.81208050  1
  Rh  Rh223  1  0.20003272  0.79502131  0.79981093  1
  Rh  Rh224  1  0.80272481  0.41099660  0.60642889  1
  Rh  Rh225  1  0.60399051  -0.00894058  0.20056201  1
  Rh  Rh226  1  0.40134871  0.19902330  0.79984574  1
  Rh  Rh227  1  0.40032866  0.39265327  -0.01134670  1
  Rh  Rh228  1  -0.00266064  0.20100093  -0.00218267  1
  Rh  Rh229  1  -0.00757095  0.59997758  0.20615559  1
  Rh  Rh230  1  0.59435790  0.79831642  0.39869585  1
  Rh  Rh231  1  0.79658016  0.20894300  0.79705951  1
  Rh  Rh232  1  0.20113596  0.59834993  0.80091228  1
  Rh  Rh233  1  -0.00134758  0.40530260  0.60180444  1
  Rh  Rh234  1  0.20507724  0.00041883  0.19420469  1
  Rh  Rh235  1  0.59930051  0.59678573  0.80396144  1
  Rh  Rh236  1  0.19252766  0.60041249  0.40661476  1
  Rh  Rh237  1  0.20355984  0.59397764  -0.00232145  1
  Rh  Rh238  1  0.20016323  0.00097299  0.80643018  1
  Rh  Rh239  1  0.39770280  0.60817099  0.40027369  1
  Rh  Rh240  1  -0.00432419  0.79291477  0.81105403  1
  Rh  Rh241  1  0.59950702  0.40760614  0.59633931  1
  Rh  Rh242  1  0.80889048  0.19353640  0.19118795  1
  Rh  Rh243  1  0.79878738  0.39555126  0.79691423  1
  Rh  Rh244  1  0.19681811  -0.00477626  0.40466482  1
  Rh  Rh245  1  0.80674773  0.01205528  0.00443497  1
  Rh  Rh246  1  0.79911404  0.80108521  0.38918917  1
  Rh  Rh247  1  0.60709424  -0.00683557  0.79192575  1
  Rh  Rh248  1  0.79532340  0.40921046  0.00663257  1
  Rh  Rh249  1  0.20242320  0.20110716  -0.00260900  1
