# generated using pymatgen
data_ZrScNbPdRh
_symmetry_space_group_name_H-M   'P 1'
_cell_length_a   16.55318324
_cell_length_b   16.55772098
_cell_length_c   16.55337702
_cell_angle_alpha   89.99510378
_cell_angle_beta   90.04598309
_cell_angle_gamma   89.99493169
_symmetry_Int_Tables_number   1
_chemical_formula_structural   ZrScNbPdRh
_chemical_formula_sum   'Zr50 Sc50 Nb50 Pd50 Rh50'
_cell_volume   4536.99756523
_cell_formula_units_Z   50
loop_
 _symmetry_equiv_pos_site_id
 _symmetry_equiv_pos_as_xyz
  1  'x, y, z'
loop_
 _atom_site_type_symbol
 _atom_site_label
 _atom_site_symmetry_multiplicity
 _atom_site_fract_x
 _atom_site_fract_y
 _atom_site_fract_z
 _atom_site_occupancy
  Zr  Zr0  1  0.89679529  0.50875585  0.29855819  1
  Zr  Zr1  1  0.48617520  0.50169813  0.30025344  1
  Zr  Zr2  1  0.49303832  0.70171092  0.50245001  1
  Zr  Zr3  1  0.89389139  0.30871250  0.89297314  1
  Zr  Zr4  1  0.89715856  0.49880370  0.70727731  1
  Zr  Zr5  1  0.49758969  0.10750150  0.49266103  1
  Zr  Zr6  1  0.70391219  0.49651401  0.10123053  1
  Zr  Zr7  1  0.29823055  0.90697359  0.30231602  1
  Zr  Zr8  1  0.10049608  0.70553661  0.10819423  1
  Zr  Zr9  1  0.09494086  0.10452690  0.29802742  1
  Zr  Zr10  1  0.90151320  0.89516615  0.10742206  1
  Zr  Zr11  1  0.69178078  0.70086293  0.10182236  1
  Zr  Zr12  1  0.70113379  0.90321403  0.49246215  1
  Zr  Zr13  1  0.89242376  0.30214393  0.09943241  1
  Zr  Zr14  1  0.90073752  0.49747692  0.90707406  1
  Zr  Zr15  1  0.69448184  0.70992278  0.30249442  1
  Zr  Zr16  1  0.09754227  0.50811350  0.88980706  1
  Zr  Zr17  1  0.49829588  0.30227022  0.69620755  1
  Zr  Zr18  1  0.90096210  0.29085756  0.30033358  1
  Zr  Zr19  1  0.70243338  0.49902425  0.49709552  1
  Zr  Zr20  1  0.69850914  0.70123622  0.70664622  1
  Zr  Zr21  1  0.89961490  0.69811198  0.10090383  1
  Zr  Zr22  1  0.70373677  0.29340100  0.70463433  1
  Zr  Zr23  1  0.49998385  0.69546674  0.69992197  1
  Zr  Zr24  1  0.10051587  0.50319719  0.49610963  1
  Zr  Zr25  1  0.89751599  0.69446571  0.48866773  1
  Zr  Zr26  1  0.29805056  0.90236160  0.91004947  1
  Zr  Zr27  1  0.29842471  0.29663276  0.69793982  1
  Zr  Zr28  1  0.49919253  0.49633186  0.50623421  1
  Zr  Zr29  1  0.30092587  0.31260798  0.30430121  1
  Zr  Zr30  1  0.49163523  0.10215580  0.10245474  1
  Zr  Zr31  1  0.31020271  0.50489260  0.10471568  1
  Zr  Zr32  1  0.50554154  0.29653392  0.90291068  1
  Zr  Zr33  1  0.89939121  0.09818560  0.28732937  1
  Zr  Zr34  1  0.50698520  0.69870574  0.89517146  1
  Zr  Zr35  1  0.10780173  0.89681326  0.09304326  1
  Zr  Zr36  1  0.49059539  0.49787894  0.90417442  1
  Zr  Zr37  1  0.90130168  0.88998949  0.90547913  1
  Zr  Zr38  1  0.10544326  0.89855581  0.49921623  1
  Zr  Zr39  1  0.90890767  0.71021640  0.29614129  1
  Zr  Zr40  1  0.49380784  0.49991088  0.70415878  1
  Zr  Zr41  1  0.89865402  0.49682556  0.50049741  1
  Zr  Zr42  1  0.89060980  0.30463194  0.49888987  1
  Zr  Zr43  1  0.50487756  0.49902080  0.10225766  1
  Zr  Zr44  1  0.50858292  0.09710139  0.71080901  1
  Zr  Zr45  1  0.10216792  0.30622417  0.89347364  1
  Zr  Zr46  1  0.31087052  0.10197904  0.29940061  1
  Zr  Zr47  1  0.89109239  0.70073365  0.70458442  1
  Zr  Zr48  1  0.50536406  0.90551725  0.89956323  1
  Zr  Zr49  1  0.69832679  0.90594592  0.30013211  1
  Sc  Sc50  1  0.10063753  0.09322578  0.69192307  1
  Sc  Sc51  1  0.29924110  0.70475539  0.10421896  1
  Sc  Sc52  1  0.30846804  0.69364876  0.90395777  1
  Sc  Sc53  1  0.50307395  0.89817474  0.09862004  1
  Sc  Sc54  1  0.68950764  0.49843533  0.29230100  1
  Sc  Sc55  1  0.30321076  0.49490146  0.48957085  1
  Sc  Sc56  1  0.10438149  0.09042027  0.50240725  1
  Sc  Sc57  1  0.70320498  0.49318947  0.89758508  1
  Sc  Sc58  1  0.70339090  0.70252959  0.89727997  1
  Sc  Sc59  1  0.90295288  0.09815414  0.89160195  1
  Sc  Sc60  1  0.49790140  0.30198252  0.50304394  1
  Sc  Sc61  1  0.30379593  0.89771103  0.10129845  1
  Sc  Sc62  1  0.89788296  0.90933576  0.50263669  1
  Sc  Sc63  1  0.49878584  0.90211614  0.30143781  1
  Sc  Sc64  1  0.69514844  0.89721887  0.09795899  1
  Sc  Sc65  1  0.89918304  0.69447116  0.90224615  1
  Sc  Sc66  1  0.29558979  0.69408863  0.29465913  1
  Sc  Sc67  1  0.30073994  0.89539987  0.68533992  1
  Sc  Sc68  1  0.10497887  0.29694692  0.10280857  1
  Sc  Sc69  1  0.11358858  0.50476610  0.30175403  1
  Sc  Sc70  1  0.50387773  0.89809523  0.70494995  1
  Sc  Sc71  1  0.10173763  0.30473876  0.29860489  1
  Sc  Sc72  1  0.49362992  0.89555839  0.48968049  1
  Sc  Sc73  1  0.69424860  0.30334301  0.10387183  1
  Sc  Sc74  1  0.10872512  0.68651569  0.70136501  1
  Sc  Sc75  1  0.49523190  0.70095377  0.10696559  1
  Sc  Sc76  1  0.69621595  0.10034162  0.30151398  1
  Sc  Sc77  1  0.69745024  0.09801935  0.11149013  1
  Sc  Sc78  1  0.10858214  0.09812693  0.90202120  1
  Sc  Sc79  1  0.69334723  0.89135719  0.90473890  1
  Sc  Sc80  1  0.09572381  0.30829277  0.49395979  1
  Sc  Sc81  1  0.89999407  0.09046867  0.69106803  1
  Sc  Sc82  1  0.09603205  0.89923803  0.30805914  1
  Sc  Sc83  1  0.29544731  0.90414095  0.49376258  1
  Sc  Sc84  1  0.09899300  0.89835625  0.90798206  1
  Sc  Sc85  1  0.29178866  0.10624214  0.68765306  1
  Sc  Sc86  1  0.69540425  0.50472774  0.70188066  1
  Sc  Sc87  1  0.50261775  0.29541189  0.30858236  1
  Sc  Sc88  1  0.70456864  0.10103929  0.69743046  1
  Sc  Sc89  1  0.10541916  0.50009176  0.70459983  1
  Sc  Sc90  1  0.68699472  0.09681721  0.89081117  1
  Sc  Sc91  1  0.30341008  0.29508264  0.09985840  1
  Sc  Sc92  1  0.50075484  0.30022793  0.09002650  1
  Sc  Sc93  1  0.50143053  0.09818872  0.30128140  1
  Sc  Sc94  1  0.30324291  0.69363621  0.69472122  1
  Sc  Sc95  1  0.70503352  0.10352391  0.50018542  1
  Sc  Sc96  1  0.29498442  0.70976753  0.50221760  1
  Sc  Sc97  1  0.09411293  0.50651811  0.09975738  1
  Sc  Sc98  1  0.50114944  0.09367902  0.90624964  1
  Sc  Sc99  1  0.30115544  0.29742014  0.90153253  1
  Nb  Nb100  1  0.10214893  0.70179543  0.89997191  1
  Nb  Nb101  1  0.29436845  0.10052860  0.09430537  1
  Nb  Nb102  1  0.09658712  0.90240381  0.69775790  1
  Nb  Nb103  1  0.09640997  0.70284878  0.31369469  1
  Nb  Nb104  1  0.50539065  0.69898887  0.30060789  1
  Nb  Nb105  1  0.30059535  0.49682649  0.29678195  1
  Nb  Nb106  1  0.69944088  0.29935512  0.49453582  1
  Nb  Nb107  1  0.89939827  0.10387038  0.10442862  1
  Nb  Nb108  1  0.89621734  0.49923780  0.10073819  1
  Nb  Nb109  1  0.30390418  0.09638487  0.90145189  1
  Nb  Nb110  1  0.71082321  0.89607540  0.69628390  1
  Nb  Nb111  1  0.30165701  0.10366206  0.50007615  1
  Nb  Nb112  1  0.70155862  0.29369890  0.30973215  1
  Nb  Nb113  1  0.10536773  0.29557872  0.69730733  1
  Nb  Nb114  1  0.90236760  0.10439535  0.50511158  1
  Nb  Nb115  1  0.69746930  0.70275232  0.49807223  1
  Nb  Nb116  1  0.90336833  0.89862472  0.69940550  1
  Nb  Nb117  1  0.70213160  0.29682247  0.90234925  1
  Nb  Nb118  1  0.30498724  0.29069101  0.50801382  1
  Nb  Nb119  1  0.89815129  0.90344337  0.29739591  1
  Nb  Nb120  1  0.09829166  0.10379960  0.10148145  1
  Nb  Nb121  1  0.89996283  0.29720888  0.69752083  1
  Nb  Nb122  1  0.30021563  0.50109906  0.89924069  1
  Nb  Nb123  1  0.09301983  0.70167495  0.49280632  1
  Nb  Nb124  1  0.29834102  0.49613481  0.70967554  1
  Nb  Nb125  1  0.59774549  0.59554579  0.00163877  1
  Nb  Nb126  1  0.59494827  0.60511851  0.40253993  1
  Nb  Nb127  1  0.80337196  -0.01154954  0.80047227  1
  Nb  Nb128  1  0.20330435  0.41073968  -0.00407657  1
  Nb  Nb129  1  -0.00210851  0.60336378  0.59598856  1
  Nb  Nb130  1  -0.00362880  0.00879235  0.00838532  1
  Nb  Nb131  1  0.60637643  0.80142056  0.59693608  1
  Nb  Nb132  1  -0.00828799  0.40576366  0.19672405  1
  Nb  Nb133  1  0.20306982  -0.00781992  0.79830457  1
  Nb  Nb134  1  0.39878133  0.19349820  0.80100011  1
  Nb  Nb135  1  -0.00405362  0.19833881  -0.00162649  1
  Nb  Nb136  1  0.60057989  -0.00570762  0.59734152  1
  Nb  Nb137  1  0.20023955  0.80190908  0.80084680  1
  Nb  Nb138  1  0.19975444  0.00923217  0.19473294  1
  Nb  Nb139  1  0.40631210  0.00547223  0.59657689  1
  Nb  Nb140  1  -0.00329622  0.20644025  0.60121396  1
  Nb  Nb141  1  0.80477632  0.00541156  0.00028772  1
  Nb  Nb142  1  0.20751622  0.20011677  0.40391377  1
  Nb  Nb143  1  0.00655089  0.80062982  0.79335973  1
  Nb  Nb144  1  0.00122470  0.20315152  0.79361594  1
  Nb  Nb145  1  0.80092710  0.19509532  -0.00248542  1
  Nb  Nb146  1  0.39660111  0.80377297  0.80106477  1
  Nb  Nb147  1  0.00171469  0.79603564  0.60195414  1
  Nb  Nb148  1  0.20020427  0.59840819  -0.00222543  1
  Nb  Nb149  1  0.20478851  0.39613431  0.60288635  1
  Pd  Pd150  1  0.38717480  -0.00028772  0.78840377  1
  Pd  Pd151  1  0.00240858  0.39748089  0.78971802  1
  Pd  Pd152  1  0.59529698  0.40459763  0.39787005  1
  Pd  Pd153  1  0.80068840  0.39459456  0.20889668  1
  Pd  Pd154  1  0.38719010  0.59194287  0.59709746  1
  Pd  Pd155  1  -0.00493724  0.00062928  0.40206311  1
  Pd  Pd156  1  0.80465022  0.18930858  0.80187742  1
  Pd  Pd157  1  0.79078059  0.39948245  0.60728556  1
  Pd  Pd158  1  0.39649692  0.39045572  0.80537569  1
  Pd  Pd159  1  0.80038491  0.19072145  0.39821045  1
  Pd  Pd160  1  0.80286401  0.79879019  0.59111754  1
  Pd  Pd161  1  0.20094049  0.18913578  0.80150703  1
  Pd  Pd162  1  0.60145990  0.19614782  0.59649368  1
  Pd  Pd163  1  0.00758933  0.59677148  0.20649124  1
  Pd  Pd164  1  0.60876105  0.19207063  0.00403777  1
  Pd  Pd165  1  0.19183167  0.79689287  0.60442872  1
  Pd  Pd166  1  0.59756225  0.20465457  0.20172649  1
  Pd  Pd167  1  0.40190580  -0.00098110  0.00829517  1
  Pd  Pd168  1  0.40354974  0.20766160  0.20088740  1
  Pd  Pd169  1  0.80703509  0.80643011  0.39960838  1
  Pd  Pd170  1  0.40526520  0.79643424  -0.00401192  1
  Pd  Pd171  1  0.59324849  0.39040567  0.20729077  1
  Pd  Pd172  1  0.19682693  0.80764267  0.21051648  1
  Pd  Pd173  1  0.20907706  0.60524616  0.40236283  1
  Pd  Pd174  1  0.79641871  0.40268993  0.38933033  1
  Pd  Pd175  1  0.79347046  0.80287350  0.19821091  1
  Pd  Pd176  1  0.59444139  -0.00262364  0.19938649  1
  Pd  Pd177  1  0.00420938  -0.00069766  0.80750673  1
  Pd  Pd178  1  0.20151323  0.59215774  0.59326729  1
  Pd  Pd179  1  0.00790242  0.40266019  0.60666726  1
  Pd  Pd180  1  0.40787746  0.38941166  0.19601209  1
  Pd  Pd181  1  0.00940060  -0.00811286  0.19540078  1
  Pd  Pd182  1  0.60890415  0.39545679  0.60157099  1
  Pd  Pd183  1  0.79200032  0.60121983  -0.00260812  1
  Pd  Pd184  1  0.39113669  0.79556168  0.39115376  1
  Pd  Pd185  1  0.00008244  0.40677591  0.38615676  1
  Pd  Pd186  1  0.00668544  0.19684124  0.41036850  1
  Pd  Pd187  1  0.78833150  0.60041973  0.38890594  1
  Pd  Pd188  1  0.00820235  0.39576495  0.00842814  1
  Pd  Pd189  1  0.60314146  0.39999600  0.80200043  1
  Pd  Pd190  1  0.79484147  0.60737590  0.20527429  1
  Pd  Pd191  1  0.39606959  0.60685844  0.39973641  1
  Pd  Pd192  1  0.00410034  0.60570885  0.00137667  1
  Pd  Pd193  1  0.80562517  0.01050358  0.39701665  1
  Pd  Pd194  1  0.20466304  0.19834899  0.20851792  1
  Pd  Pd195  1  0.40325835  0.80076012  0.20720632  1
  Pd  Pd196  1  0.19790799  0.20521801  -0.00362943  1
  Pd  Pd197  1  0.60376855  0.60480328  0.59497704  1
  Pd  Pd198  1  0.19378217  0.40776399  0.18871895  1
  Pd  Pd199  1  0.80082299  0.60009938  0.60127615  1
  Rh  Rh200  1  0.79648709  -0.00375634  0.19701638  1
  Rh  Rh201  1  -0.00464114  0.60807114  0.79344705  1
  Rh  Rh202  1  0.20634452  0.39321667  0.40918915  1
  Rh  Rh203  1  0.79949413  0.59449916  0.80796489  1
  Rh  Rh204  1  0.40104321  0.39564927  0.40507272  1
  Rh  Rh205  1  0.20805765  -0.00303051  0.60271325  1
  Rh  Rh206  1  0.59809471  0.00439999  0.40405790  1
  Rh  Rh207  1  0.80444656  0.20229135  0.59636664  1
  Rh  Rh208  1  0.39964802  0.60524337  0.20301577  1
  Rh  Rh209  1  0.00130668  0.59426095  0.39860113  1
  Rh  Rh210  1  0.78923924  0.20295427  0.19962438  1
  Rh  Rh211  1  0.19983942  0.59830248  0.19638825  1
  Rh  Rh212  1  0.41176497  0.80681979  0.60651831  1
  Rh  Rh213  1  0.39508843  -0.00030076  0.19408922  1
  Rh  Rh214  1  0.39014638  0.40729904  0.59993608  1
  Rh  Rh215  1  0.18518175  0.20697555  0.58474945  1
  Rh  Rh216  1  0.79640924  0.00233593  0.60306963  1
  Rh  Rh217  1  0.00790830  0.80579610  0.20573933  1
  Rh  Rh218  1  0.59451038  0.80658221  0.20241032  1
  Rh  Rh219  1  0.39580703  0.60446691  0.79604251  1
  Rh  Rh220  1  0.60015573  0.59101651  0.80989577  1
  Rh  Rh221  1  0.39835813  0.19491251  -0.00718606  1
  Rh  Rh222  1  0.59511667  0.79015905  0.00198593  1
  Rh  Rh223  1  0.20370869  0.39982499  0.79971833  1
  Rh  Rh224  1  0.39649734  0.20674260  0.39754963  1
  Rh  Rh225  1  0.00098789  0.21374416  0.19233189  1
  Rh  Rh226  1  0.60703665  0.00434998  0.00637655  1
  Rh  Rh227  1  0.79423412  0.40074011  0.79453574  1
  Rh  Rh228  1  -0.00038820  0.79437511  -0.00096958  1
  Rh  Rh229  1  0.40251562  0.60119833  0.00628203  1
  Rh  Rh230  1  0.61702388  -0.01236893  0.79197122  1
  Rh  Rh231  1  0.20503524  0.78650232  -0.00474910  1
  Rh  Rh232  1  0.59797206  0.80262388  0.79380637  1
  Rh  Rh233  1  0.39252713  0.39661460  0.00087101  1
  Rh  Rh234  1  0.80454028  0.80409851  0.80516575  1
  Rh  Rh235  1  0.60436378  0.40473037  -0.00392940  1
  Rh  Rh236  1  0.59458335  0.20511749  0.80129050  1
  Rh  Rh237  1  0.41153610  0.18993662  0.61017705  1
  Rh  Rh238  1  0.79310318  0.39522875  0.00034067  1
  Rh  Rh239  1  0.79933288  0.79949313  0.00519904  1
  Rh  Rh240  1  -0.00065209  -0.00058464  0.59265137  1
  Rh  Rh241  1  0.20261582  0.01226551  0.38861810  1
  Rh  Rh242  1  0.59601912  0.60165001  0.20124710  1
  Rh  Rh243  1  0.20207207  0.79488332  0.39600163  1
  Rh  Rh244  1  0.19692500  0.00546459  0.00241091  1
  Rh  Rh245  1  0.60458843  0.20124444  0.40388154  1
  Rh  Rh246  1  0.20963259  0.60738606  0.80755146  1
  Rh  Rh247  1  -0.00698624  0.81134299  0.40511807  1
  Rh  Rh248  1  0.40129961  0.00059829  0.40613361  1
  Rh  Rh249  1  0.59474301  0.79654313  0.40443972  1
