# generated using pymatgen
data_ZrScNbPdRh
_symmetry_space_group_name_H-M   'P 1'
_cell_length_a   16.55508919
_cell_length_b   16.55342685
_cell_length_c   16.55749592
_cell_angle_alpha   90.01545456
_cell_angle_beta   89.99442066
_cell_angle_gamma   89.96998852
_symmetry_Int_Tables_number   1
_chemical_formula_structural   ZrScNbPdRh
_chemical_formula_sum   'Zr50 Sc50 Nb50 Pd50 Rh50'
_cell_volume   4537.47262655
_cell_formula_units_Z   50
loop_
 _symmetry_equiv_pos_site_id
 _symmetry_equiv_pos_as_xyz
  1  'x, y, z'
loop_
 _atom_site_type_symbol
 _atom_site_label
 _atom_site_symmetry_multiplicity
 _atom_site_fract_x
 _atom_site_fract_y
 _atom_site_fract_z
 _atom_site_occupancy
  Zr  Zr0  1  0.91092366  0.09958471  0.51608786  1
  Zr  Zr1  1  0.49817237  0.09367687  0.50873707  1
  Zr  Zr2  1  0.29574076  0.90332732  0.29726635  1
  Zr  Zr3  1  0.50151614  0.71606001  0.10065702  1
  Zr  Zr4  1  0.29409393  0.49344747  0.90537499  1
  Zr  Zr5  1  0.50073936  0.89523740  0.51175378  1
  Zr  Zr6  1  0.70193850  0.10007443  0.10066290  1
  Zr  Zr7  1  0.29592558  0.69951364  0.69447754  1
  Zr  Zr8  1  0.50275781  0.49721130  0.10188779  1
  Zr  Zr9  1  0.70012735  0.50102554  0.90485786  1
  Zr  Zr10  1  0.49739975  0.50063917  0.29891418  1
  Zr  Zr11  1  0.29357741  0.29299845  0.89394454  1
  Zr  Zr12  1  0.10076051  0.49935506  0.49877542  1
  Zr  Zr13  1  0.49621371  0.30374432  0.69269707  1
  Zr  Zr14  1  0.90013066  0.91488170  0.70315153  1
  Zr  Zr15  1  0.49736906  0.09158367  0.89805039  1
  Zr  Zr16  1  0.50953821  0.10284404  0.29669254  1
  Zr  Zr17  1  0.49767997  0.90276911  0.70141958  1
  Zr  Zr18  1  0.71658491  0.09288795  0.49346590  1
  Zr  Zr19  1  0.29948660  0.30140516  0.10458915  1
  Zr  Zr20  1  0.29896469  0.49789229  0.10174103  1
  Zr  Zr21  1  0.49928079  0.50658536  0.89473751  1
  Zr  Zr22  1  0.69488401  0.29780096  0.29710288  1
  Zr  Zr23  1  0.70235087  0.90230852  0.09924961  1
  Zr  Zr24  1  0.10913994  0.70008715  0.50262216  1
  Zr  Zr25  1  0.88724388  0.90333747  0.49570977  1
  Zr  Zr26  1  0.89764765  0.70439411  0.29776995  1
  Zr  Zr27  1  0.10223092  0.49712179  0.09564240  1
  Zr  Zr28  1  0.90633767  0.29358045  0.49513926  1
  Zr  Zr29  1  0.30248751  0.90554962  0.89995690  1
  Zr  Zr30  1  0.91069002  0.29689073  0.30053459  1
  Zr  Zr31  1  0.29899518  0.69695143  0.30370021  1
  Zr  Zr32  1  0.10606957  0.29979183  0.89543341  1
  Zr  Zr33  1  0.30020721  0.49504403  0.29439387  1
  Zr  Zr34  1  0.70470445  0.50420304  0.70844909  1
  Zr  Zr35  1  0.89410409  0.29028146  0.70434171  1
  Zr  Zr36  1  0.29023146  0.29669632  0.50632577  1
  Zr  Zr37  1  0.90396044  0.89385968  0.29282819  1
  Zr  Zr38  1  0.90321709  0.50104543  0.10023838  1
  Zr  Zr39  1  0.50542078  0.69564303  0.29584237  1
  Zr  Zr40  1  0.09783858  0.29943842  0.49619256  1
  Zr  Zr41  1  0.89810702  0.51236632  0.29292900  1
  Zr  Zr42  1  0.10583983  0.28638690  0.30316160  1
  Zr  Zr43  1  0.69553817  0.50847796  0.50467748  1
  Zr  Zr44  1  0.49537375  0.29293199  0.90088989  1
  Zr  Zr45  1  0.29438758  0.10425159  0.90327833  1
  Zr  Zr46  1  0.49897346  0.49420142  0.50029326  1
  Zr  Zr47  1  0.89200966  0.70746609  0.50285435  1
  Zr  Zr48  1  0.50738583  0.09024463  0.70240429  1
  Zr  Zr49  1  0.29596383  0.09791628  0.09902671  1
  Sc  Sc50  1  0.08102639  0.91117276  0.09859643  1
  Sc  Sc51  1  0.69866039  0.69870340  0.89906179  1
  Sc  Sc52  1  0.09515625  0.50454577  0.69479938  1
  Sc  Sc53  1  0.90152745  0.89747941  0.90574926  1
  Sc  Sc54  1  0.31394528  0.90315180  0.09843042  1
  Sc  Sc55  1  0.49972248  0.50625810  0.69335286  1
  Sc  Sc56  1  0.11199380  0.29918355  0.69783290  1
  Sc  Sc57  1  0.90703807  0.10091397  0.08977545  1
  Sc  Sc58  1  0.89106879  0.50070091  0.89355912  1
  Sc  Sc59  1  0.89727140  0.69201048  0.70574965  1
  Sc  Sc60  1  0.70519312  0.89798942  0.29450663  1
  Sc  Sc61  1  0.69512454  0.30254416  0.49462212  1
  Sc  Sc62  1  0.50218816  0.30116521  0.49961237  1
  Sc  Sc63  1  0.30535919  0.70139036  0.89829259  1
  Sc  Sc64  1  0.49264187  0.69506195  0.70545576  1
  Sc  Sc65  1  0.70644625  0.69991324  0.70105899  1
  Sc  Sc66  1  0.89329949  0.10412234  0.31848845  1
  Sc  Sc67  1  0.09911739  0.10249910  0.10304681  1
  Sc  Sc68  1  0.71020383  0.89934870  0.90302817  1
  Sc  Sc69  1  0.29659497  0.89906840  0.51168780  1
  Sc  Sc70  1  0.09866402  0.69526406  0.09841931  1
  Sc  Sc71  1  0.50477057  0.90212992  0.09201377  1
  Sc  Sc72  1  0.29916990  0.10461401  0.69351974  1
  Sc  Sc73  1  0.70175501  0.90850966  0.70257610  1
  Sc  Sc74  1  0.50900387  0.30484076  0.29900390  1
  Sc  Sc75  1  0.09684166  0.70179073  0.70487895  1
  Sc  Sc76  1  0.10632396  0.50243709  0.29848516  1
  Sc  Sc77  1  0.30457146  0.50125610  0.69240095  1
  Sc  Sc78  1  0.29291248  0.51016130  0.49687098  1
  Sc  Sc79  1  0.89693140  0.29686086  0.91043713  1
  Sc  Sc80  1  0.50068877  0.89409965  0.28224471  1
  Sc  Sc81  1  0.29611111  0.89358607  0.70041417  1
  Sc  Sc82  1  0.28100689  0.09841236  0.29503033  1
  Sc  Sc83  1  0.09790784  0.70835735  0.30327566  1
  Sc  Sc84  1  0.50676030  0.09768424  0.09826281  1
  Sc  Sc85  1  0.69611458  0.69717802  0.09956979  1
  Sc  Sc86  1  0.68611150  0.50433757  0.29571838  1
  Sc  Sc87  1  0.89948610  0.69555253  0.10633507  1
  Sc  Sc88  1  0.70051223  0.09930116  0.29838119  1
  Sc  Sc89  1  0.09250643  0.70596045  0.89212445  1
  Sc  Sc90  1  0.49845774  0.70007944  0.90445221  1
  Sc  Sc91  1  0.71059330  0.30119856  0.90713541  1
  Sc  Sc92  1  0.30353170  0.70140836  0.09562530  1
  Sc  Sc93  1  0.70518862  0.09556042  0.90404428  1
  Sc  Sc94  1  0.89771424  0.70378201  0.89382714  1
  Sc  Sc95  1  0.50913300  0.30044888  0.10290501  1
  Sc  Sc96  1  0.10612514  0.10019088  0.50599389  1
  Sc  Sc97  1  0.11145682  0.89788586  0.50354644  1
  Sc  Sc98  1  0.90595642  0.50141289  0.51041558  1
  Sc  Sc99  1  0.50817310  0.69868121  0.50184364  1
  Nb  Nb100  1  0.07914493  0.29540880  0.10621201  1
  Nb  Nb101  1  0.10804205  0.89913070  0.89155207  1
  Nb  Nb102  1  0.10288944  0.49623136  0.89597539  1
  Nb  Nb103  1  0.89774335  0.10058066  0.70169290  1
  Nb  Nb104  1  0.69880595  0.89035708  0.49782247  1
  Nb  Nb105  1  0.10544868  0.09741088  0.89369100  1
  Nb  Nb106  1  0.89694590  0.49811183  0.70355204  1
  Nb  Nb107  1  0.50074974  0.90102255  0.89658532  1
  Nb  Nb108  1  0.90459033  0.29945746  0.10210212  1
  Nb  Nb109  1  0.29636911  0.29710046  0.30340147  1
  Nb  Nb110  1  0.30399772  0.09591817  0.49969794  1
  Nb  Nb111  1  0.70222637  0.29916413  0.70633439  1
  Nb  Nb112  1  0.71313597  0.10396759  0.70547816  1
  Nb  Nb113  1  0.10004839  0.09241235  0.29515771  1
  Nb  Nb114  1  0.30038484  0.30288896  0.70564047  1
  Nb  Nb115  1  0.89646954  0.10203943  0.89478792  1
  Nb  Nb116  1  0.08412340  0.08651163  0.69582548  1
  Nb  Nb117  1  0.10143639  0.90637473  0.29598107  1
  Nb  Nb118  1  0.29294228  0.70947086  0.49849558  1
  Nb  Nb119  1  0.70352275  0.71011177  0.49569110  1
  Nb  Nb120  1  0.69418474  0.69529575  0.30272273  1
  Nb  Nb121  1  0.70446333  0.49591390  0.09817022  1
  Nb  Nb122  1  0.89240757  0.90118476  0.09867122  1
  Nb  Nb123  1  0.10064361  0.90224880  0.70449471  1
  Nb  Nb124  1  0.70906447  0.30347072  0.09870077  1
  Nb  Nb125  1  0.59583947  0.80719326  0.80318443  1
  Nb  Nb126  1  0.00291011  0.59347766  -0.00778111  1
  Nb  Nb127  1  0.80524838  0.20810378  0.19451398  1
  Nb  Nb128  1  0.60961786  0.19489171  0.60823942  1
  Nb  Nb129  1  0.80042342  0.39895645  0.60284860  1
  Nb  Nb130  1  0.60548041  0.20017760  0.79640441  1
  Nb  Nb131  1  -0.00163507  0.80702208  0.60357482  1
  Nb  Nb132  1  0.39823410  0.80204461  0.40197925  1
  Nb  Nb133  1  0.79656169  0.60418819  0.40179104  1
  Nb  Nb134  1  0.19669945  0.80865887  0.19457933  1
  Nb  Nb135  1  -0.00506982  0.60638470  0.40260658  1
  Nb  Nb136  1  0.39342577  0.19640012  0.39740104  1
  Nb  Nb137  1  0.00692422  -0.00550643  0.39690428  1
  Nb  Nb138  1  0.00156281  0.19264010  0.79890301  1
  Nb  Nb139  1  0.80115110  0.39894695  0.19871261  1
  Nb  Nb140  1  0.39606300  0.20209128  0.20803793  1
  Nb  Nb141  1  0.19420503  0.80876296  -0.00182579  1
  Nb  Nb142  1  0.40176044  -0.00014734  0.40038288  1
  Nb  Nb143  1  0.59807452  -0.00815275  0.40488638  1
  Nb  Nb144  1  0.59829362  0.39489412  0.80019581  1
  Nb  Nb145  1  -0.00134140  0.39734054  0.79913167  1
  Nb  Nb146  1  0.19926111  0.59521632  0.80319560  1
  Nb  Nb147  1  0.39921299  0.39680327  0.79882485  1
  Nb  Nb148  1  0.39192897  0.39320858  0.39798184  1
  Nb  Nb149  1  0.80184584  0.40713698  0.39887071  1
  Pd  Pd150  1  0.40208171  0.01082597  0.20360853  1
  Pd  Pd151  1  0.40106552  0.39669663  -0.00368387  1
  Pd  Pd152  1  -0.00443536  0.39170689  0.61038609  1
  Pd  Pd153  1  0.79256048  0.79298906  0.19578574  1
  Pd  Pd154  1  0.40283954  0.19639323  0.01212559  1
  Pd  Pd155  1  0.60240113  0.79320270  0.61493095  1
  Pd  Pd156  1  -0.00647710  0.80521852  0.79277648  1
  Pd  Pd157  1  0.80344770  0.80597422  0.61430656  1
  Pd  Pd158  1  0.40360566  0.20266895  0.59695204  1
  Pd  Pd159  1  0.79413635  0.20711558  0.59204724  1
  Pd  Pd160  1  0.61657739  0.00364006  0.59651483  1
  Pd  Pd161  1  0.19300582  0.61338232  -0.01021597  1
  Pd  Pd162  1  0.40127804  0.60517880  0.19122357  1
  Pd  Pd163  1  0.40284474  0.60132232  0.00468465  1
  Pd  Pd164  1  0.00622894  0.19362354  -0.01029286  1
  Pd  Pd165  1  0.19438818  0.38739992  0.00845606  1
  Pd  Pd166  1  -0.00310570  0.00076969  0.81258925  1
  Pd  Pd167  1  0.00568478  0.79710976  0.18924625  1
  Pd  Pd168  1  0.40291262  0.79774427  0.80207493  1
  Pd  Pd169  1  0.00143258  0.79406449  0.00504500  1
  Pd  Pd170  1  0.40087508  0.60216124  0.40760319  1
  Pd  Pd171  1  0.20125561  0.40717075  0.60270058  1
  Pd  Pd172  1  0.19497786  0.19293559  0.60558312  1
  Pd  Pd173  1  -0.00192531  0.61060917  0.59890052  1
  Pd  Pd174  1  -0.00207407  0.41219173  0.39282369  1
  Pd  Pd175  1  0.00002873  0.00262376  -0.01038176  1
  Pd  Pd176  1  0.80781056  0.60549992  -0.00185897  1
  Pd  Pd177  1  -0.00530517  0.40475599  -0.01135015  1
  Pd  Pd178  1  0.18941600  0.20579345  0.00941555  1
  Pd  Pd179  1  0.00699043  0.80460313  0.40970357  1
  Pd  Pd180  1  0.60414245  -0.00490543  -0.00600647  1
  Pd  Pd181  1  0.80993393  0.01217491  0.20145695  1
  Pd  Pd182  1  0.61005660  0.39641016  0.60593240  1
  Pd  Pd183  1  0.20671559  0.00594897  0.78976300  1
  Pd  Pd184  1  0.59603003  0.60442394  0.00445315  1
  Pd  Pd185  1  0.80101207  0.79214346  0.00391288  1
  Pd  Pd186  1  0.40364456  0.19761054  0.79328136  1
  Pd  Pd187  1  0.38797882  0.00383486  0.79336665  1
  Pd  Pd188  1  0.60336299  0.61164658  0.60599349  1
  Pd  Pd189  1  0.59289781  0.80685458  0.39306497  1
  Pd  Pd190  1  0.39764836  0.60698995  0.58855689  1
  Pd  Pd191  1  0.00366913  0.40501423  0.20902382  1
  Pd  Pd192  1  0.19359993  -0.00717825  0.00599515  1
  Pd  Pd193  1  0.60020153  0.39583038  -0.00570223  1
  Pd  Pd194  1  0.19027442  0.39147863  0.19796786  1
  Pd  Pd195  1  0.19655062  0.60964718  0.20116039  1
  Pd  Pd196  1  0.60662930  0.20148961  -0.00567364  1
  Pd  Pd197  1  -0.01287604  0.01028696  0.20584296  1
  Pd  Pd198  1  0.59711610  0.19110677  0.41226125  1
  Pd  Pd199  1  0.20014871  0.00064673  0.40705452  1
  Rh  Rh200  1  0.38914491  0.58969558  0.80245774  1
  Rh  Rh201  1  0.80683492  0.40405425  0.00626438  1
  Rh  Rh202  1  0.59866807  0.60066030  0.18959432  1
  Rh  Rh203  1  0.79228010  0.79730688  0.38800902  1
  Rh  Rh204  1  0.20164966  0.79332904  0.80511547  1
  Rh  Rh205  1  0.78502503  0.59700272  0.20372468  1
  Rh  Rh206  1  0.79882882  0.60347633  0.80539215  1
  Rh  Rh207  1  0.19808104  0.60074936  0.60589424  1
  Rh  Rh208  1  0.60456321  0.20015511  0.19135782  1
  Rh  Rh209  1  0.00474503  -0.01293429  0.58891931  1
  Rh  Rh210  1  0.79637260  0.21392670  0.39591936  1
  Rh  Rh211  1  0.80074422  0.59561235  0.59617053  1
  Rh  Rh212  1  0.79970844  0.19831107  0.81022579  1
  Rh  Rh213  1  -0.00552034  0.18971644  0.20570176  1
  Rh  Rh214  1  0.19097956  0.80030037  0.61158520  1
  Rh  Rh215  1  0.00366220  0.58851082  0.80524941  1
  Rh  Rh216  1  0.60898931  0.80170775  0.19749928  1
  Rh  Rh217  1  0.20566779  0.80421392  0.39079416  1
  Rh  Rh218  1  0.39926439  0.79399551  0.59566104  1
  Rh  Rh219  1  0.01055373  0.60259105  0.20000895  1
  Rh  Rh220  1  0.79577487  -0.00264507  0.60102437  1
  Rh  Rh221  1  0.59715253  0.40735866  0.39960282  1
  Rh  Rh222  1  0.20063855  0.00235957  0.60654084  1
  Rh  Rh223  1  0.80873599  0.00108994  -0.00015044  1
  Rh  Rh224  1  0.19612007  -0.00904909  0.18651729  1
  Rh  Rh225  1  0.60309806  -0.00348484  0.20336321  1
  Rh  Rh226  1  0.60955141  -0.00056781  0.80660900  1
  Rh  Rh227  1  0.00851672  0.20490173  0.61026515  1
  Rh  Rh228  1  0.40398995  0.00332369  -0.00057338  1
  Rh  Rh229  1  0.01310537  0.18220360  0.39989381  1
  Rh  Rh230  1  0.39071419  0.39916714  0.59367314  1
  Rh  Rh231  1  0.79836714  -0.01030110  0.39144263  1
  Rh  Rh232  1  0.19756905  0.20348356  0.19320684  1
  Rh  Rh233  1  0.79428410  0.80253284  0.79884253  1
  Rh  Rh234  1  0.60273136  0.80417596  -0.00868297  1
  Rh  Rh235  1  0.19934243  0.19014020  0.40326812  1
  Rh  Rh236  1  0.60262386  0.60219892  0.40591443  1
  Rh  Rh237  1  0.39014841  -0.00567167  0.60387222  1
  Rh  Rh238  1  0.19352091  0.60049224  0.39766650  1
  Rh  Rh239  1  0.60017687  0.60466333  0.79946059  1
  Rh  Rh240  1  0.60601936  0.40339132  0.19342345  1
  Rh  Rh241  1  0.80087340  0.19520985  0.00560186  1
  Rh  Rh242  1  0.80187663  0.00084731  0.80619879  1
  Rh  Rh243  1  0.20392828  0.40233338  0.40028273  1
  Rh  Rh244  1  0.19074687  0.18694808  0.78784552  1
  Rh  Rh245  1  0.39015218  0.79324455  0.20641120  1
  Rh  Rh246  1  0.40329547  0.39054417  0.20768806  1
  Rh  Rh247  1  0.80057206  0.39776964  0.79881346  1
  Rh  Rh248  1  0.39611734  0.80583216  -0.00527787  1
  Rh  Rh249  1  0.20197400  0.41056214  0.78893754  1
