# generated using pymatgen
data_ZrScNbPdRh
_symmetry_space_group_name_H-M   'P 1'
_cell_length_a   16.56890460
_cell_length_b   16.57663295
_cell_length_c   16.56253054
_cell_angle_alpha   89.98746212
_cell_angle_beta   89.98034322
_cell_angle_gamma   89.99926581
_symmetry_Int_Tables_number   1
_chemical_formula_structural   ZrScNbPdRh
_chemical_formula_sum   'Zr50 Sc50 Nb50 Pd50 Rh50'
_cell_volume   4549.00877621
_cell_formula_units_Z   50
loop_
 _symmetry_equiv_pos_site_id
 _symmetry_equiv_pos_as_xyz
  1  'x, y, z'
loop_
 _atom_site_type_symbol
 _atom_site_label
 _atom_site_symmetry_multiplicity
 _atom_site_fract_x
 _atom_site_fract_y
 _atom_site_fract_z
 _atom_site_occupancy
  Zr  Zr0  1  0.89251259  0.70427056  0.70107892  1
  Zr  Zr1  1  0.10364821  0.90573145  0.69413261  1
  Zr  Zr2  1  0.89904401  0.29035286  0.90410745  1
  Zr  Zr3  1  0.50239100  0.49841153  0.10026825  1
  Zr  Zr4  1  0.90223645  0.11230826  0.30067731  1
  Zr  Zr5  1  0.09365075  0.49540732  0.29918908  1
  Zr  Zr6  1  0.69319082  0.10391219  0.49791573  1
  Zr  Zr7  1  0.90120011  0.89998873  0.70883447  1
  Zr  Zr8  1  0.09970186  0.70325429  0.30343366  1
  Zr  Zr9  1  0.89882471  0.10597046  0.09898481  1
  Zr  Zr10  1  0.69840958  0.69448775  0.30200643  1
  Zr  Zr11  1  0.89746661  0.49924094  0.70347269  1
  Zr  Zr12  1  0.10102089  0.09300712  0.50148315  1
  Zr  Zr13  1  0.89993767  0.30043064  0.30958487  1
  Zr  Zr14  1  0.30153993  0.70104179  0.10196699  1
  Zr  Zr15  1  0.90319643  0.90265976  0.50629020  1
  Zr  Zr16  1  0.90935278  0.89880639  0.09333335  1
  Zr  Zr17  1  0.09942487  0.49154123  0.70044264  1
  Zr  Zr18  1  0.30182357  0.50163956  0.31169249  1
  Zr  Zr19  1  0.90519066  0.10131383  0.89906913  1
  Zr  Zr20  1  0.30058695  0.29818679  0.10408989  1
  Zr  Zr21  1  0.29790694  0.69754454  0.90277110  1
  Zr  Zr22  1  0.50532727  0.30195503  0.08972704  1
  Zr  Zr23  1  0.90171767  0.69898867  0.29678034  1
  Zr  Zr24  1  0.69455536  0.89279058  0.70168485  1
  Zr  Zr25  1  0.29505457  0.90717515  0.49731407  1
  Zr  Zr26  1  0.29977907  0.69236995  0.49637223  1
  Zr  Zr27  1  0.49653584  0.31300526  0.70029441  1
  Zr  Zr28  1  0.09783694  0.90236598  0.49799306  1
  Zr  Zr29  1  0.10416205  0.90469241  0.10432918  1
  Zr  Zr30  1  0.69982860  0.49650154  0.09741284  1
  Zr  Zr31  1  0.49735188  0.90376975  0.10324199  1
  Zr  Zr32  1  0.09749511  0.29404198  0.89750841  1
  Zr  Zr33  1  0.69652505  0.30397046  0.30592803  1
  Zr  Zr34  1  0.69650312  0.30442681  0.90335695  1
  Zr  Zr35  1  0.29911554  0.89745115  0.88627952  1
  Zr  Zr36  1  0.90367146  0.50131121  0.90340707  1
  Zr  Zr37  1  0.49799847  0.10519619  0.30844171  1
  Zr  Zr38  1  0.50029200  0.49620361  0.69755422  1
  Zr  Zr39  1  0.30552106  0.50319345  0.09800108  1
  Zr  Zr40  1  0.49824733  0.50570097  0.49852653  1
  Zr  Zr41  1  0.51281621  0.90047926  0.49934764  1
  Zr  Zr42  1  0.69455450  0.49353244  0.49408489  1
  Zr  Zr43  1  0.09771172  0.69223777  0.90806946  1
  Zr  Zr44  1  0.88258498  0.29358109  0.69555721  1
  Zr  Zr45  1  0.09913719  0.50322626  0.09860837  1
  Zr  Zr46  1  0.29849761  0.70623636  0.70316567  1
  Zr  Zr47  1  0.30259822  0.49359401  0.69582307  1
  Zr  Zr48  1  0.30198455  0.29575886  0.49629790  1
  Zr  Zr49  1  0.09632499  0.49370691  0.90078950  1
  Sc  Sc50  1  0.10479696  0.49037396  0.50154363  1
  Sc  Sc51  1  0.69717399  0.49749760  0.29739091  1
  Sc  Sc52  1  0.50410799  0.69515757  0.30181295  1
  Sc  Sc53  1  0.69264059  0.10014504  0.90578529  1
  Sc  Sc54  1  0.49227432  0.09564919  0.70032179  1
  Sc  Sc55  1  0.70353029  0.10523830  0.70275690  1
  Sc  Sc56  1  0.89817921  0.10107996  0.71303890  1
  Sc  Sc57  1  0.90965912  0.89072496  0.30014156  1
  Sc  Sc58  1  0.89572675  0.29224921  0.10185120  1
  Sc  Sc59  1  0.69916734  0.10709852  0.30213670  1
  Sc  Sc60  1  0.69510034  0.72209464  0.50025578  1
  Sc  Sc61  1  0.49920263  0.70860816  0.70093529  1
  Sc  Sc62  1  0.49479124  0.69398814  0.10723759  1
  Sc  Sc63  1  0.09801823  0.70555590  0.69605138  1
  Sc  Sc64  1  0.90315870  0.71975358  0.50099155  1
  Sc  Sc65  1  0.49414310  0.90469568  0.29564313  1
  Sc  Sc66  1  0.89541120  0.69382165  0.89468021  1
  Sc  Sc67  1  0.09614364  0.70090053  0.09513319  1
  Sc  Sc68  1  0.30530292  0.29542902  0.90510298  1
  Sc  Sc69  1  0.71358961  0.49968646  0.90181001  1
  Sc  Sc70  1  0.30433792  0.50195477  0.90697349  1
  Sc  Sc71  1  0.09640685  0.10197068  0.10347075  1
  Sc  Sc72  1  0.49103568  0.70401658  0.88942435  1
  Sc  Sc73  1  0.49423881  0.48821410  0.90189546  1
  Sc  Sc74  1  0.50222967  0.90482024  0.69973727  1
  Sc  Sc75  1  0.89962050  0.50206894  0.09947014  1
  Sc  Sc76  1  0.30185527  0.10436177  0.88903060  1
  Sc  Sc77  1  0.30023640  0.10800455  0.10101925  1
  Sc  Sc78  1  0.68854147  0.90568562  0.10318928  1
  Sc  Sc79  1  0.90268621  0.69569709  0.10094194  1
  Sc  Sc80  1  0.50913906  0.09869076  0.09287075  1
  Sc  Sc81  1  0.10430463  0.70921976  0.50414597  1
  Sc  Sc82  1  0.69525506  0.88910801  0.30070936  1
  Sc  Sc83  1  0.70023034  0.48324330  0.70125689  1
  Sc  Sc84  1  0.10632984  0.29905337  0.69964369  1
  Sc  Sc85  1  0.30253289  0.50062259  0.50293794  1
  Sc  Sc86  1  0.49824026  0.09327371  0.49743790  1
  Sc  Sc87  1  0.51290060  0.50190737  0.30577767  1
  Sc  Sc88  1  0.30536939  0.10370880  0.30393225  1
  Sc  Sc89  1  0.10465989  0.29972037  0.30035531  1
  Sc  Sc90  1  0.90105690  0.49122617  0.29737778  1
  Sc  Sc91  1  0.29476196  0.09583610  0.69619320  1
  Sc  Sc92  1  0.08918125  0.89634793  0.90188683  1
  Sc  Sc93  1  0.50682713  0.91033313  0.88892376  1
  Sc  Sc94  1  0.70622249  0.69423543  0.10639192  1
  Sc  Sc95  1  0.70421069  0.30226325  0.09445100  1
  Sc  Sc96  1  0.10403372  0.29897592  0.50280048  1
  Sc  Sc97  1  0.89923893  0.47500987  0.49845182  1
  Sc  Sc98  1  0.10755452  0.30089927  0.09797414  1
  Sc  Sc99  1  0.30079091  0.10354241  0.50139847  1
  Nb  Nb100  1  0.31109861  0.29612324  0.30019951  1
  Nb  Nb101  1  0.30112630  0.70282186  0.30048897  1
  Nb  Nb102  1  0.49927249  0.29736214  0.30167061  1
  Nb  Nb103  1  0.09733924  0.10423577  0.70319718  1
  Nb  Nb104  1  0.30009131  0.29986733  0.68688808  1
  Nb  Nb105  1  0.70360132  0.10200858  0.10173446  1
  Nb  Nb106  1  0.30246442  0.90093954  0.10206800  1
  Nb  Nb107  1  0.29969882  0.89429237  0.28924459  1
  Nb  Nb108  1  0.89438288  0.90250212  0.90047881  1
  Nb  Nb109  1  0.09739011  0.09044108  0.30077633  1
  Nb  Nb110  1  0.69338358  0.29872427  0.70014865  1
  Nb  Nb111  1  0.30088599  0.89842892  0.69818203  1
  Nb  Nb112  1  0.50086153  0.29309145  0.90388814  1
  Nb  Nb113  1  0.11018294  0.90750149  0.29973721  1
  Nb  Nb114  1  0.70641448  0.30012831  0.50653117  1
  Nb  Nb115  1  0.89543271  0.10404645  0.49744005  1
  Nb  Nb116  1  0.69755356  0.89693621  0.89901204  1
  Nb  Nb117  1  0.50569714  0.30205679  0.49739335  1
  Nb  Nb118  1  0.89090267  0.28786880  0.49855887  1
  Nb  Nb119  1  0.70041917  0.70155546  0.89319175  1
  Nb  Nb120  1  0.69992324  0.90740177  0.50578243  1
  Nb  Nb121  1  0.09715229  0.10527467  0.88868981  1
  Nb  Nb122  1  0.70131575  0.69935151  0.70349391  1
  Nb  Nb123  1  0.49599130  0.10730939  0.90304392  1
  Nb  Nb124  1  0.49986272  0.70356836  0.49786107  1
  Nb  Nb125  1  0.79950668  0.00055648  0.59602871  1
  Nb  Nb126  1  0.60394609  0.59919439  0.79838671  1
  Nb  Nb127  1  0.20376657  -0.00090334  -0.00259159  1
  Nb  Nb128  1  0.59895856  0.20943503  0.60287788  1
  Nb  Nb129  1  0.39742615  0.80326147  0.59232629  1
  Nb  Nb130  1  0.59190945  0.20741733  0.80044783  1
  Nb  Nb131  1  0.80221126  0.00221967  0.19984000  1
  Nb  Nb132  1  -0.00615711  0.59877249  0.40811614  1
  Nb  Nb133  1  0.40099306  0.80908627  0.00132305  1
  Nb  Nb134  1  0.80582564  0.60162221  0.40931524  1
  Nb  Nb135  1  0.60572572  0.60515082  0.60314657  1
  Nb  Nb136  1  0.20316818  0.60127118  0.20483546  1
  Nb  Nb137  1  0.19873311  0.59516849  0.79909828  1
  Nb  Nb138  1  0.39492459  0.80013478  0.39822931  1
  Nb  Nb139  1  0.60177342  0.60604230  -0.00909965  1
  Nb  Nb140  1  -0.00648659  0.19561074  0.59760328  1
  Nb  Nb141  1  0.80196934  -0.00083167  0.40139332  1
  Nb  Nb142  1  0.59956203  0.20482870  0.19954044  1
  Nb  Nb143  1  0.39552863  -0.00218760  -0.00308066  1
  Nb  Nb144  1  0.79883532  -0.00407579  0.00110343  1
  Nb  Nb145  1  0.79759788  0.60058965  0.59451554  1
  Nb  Nb146  1  0.40225609  0.39382411  0.20788667  1
  Nb  Nb147  1  0.79336939  0.80527815  -0.00671513  1
  Nb  Nb148  1  -0.00917497  0.59675290  0.59407664  1
  Nb  Nb149  1  0.60014295  0.79681610  -0.00514831  1
  Pd  Pd150  1  0.20449644  0.39997494  -0.00452902  1
  Pd  Pd151  1  0.80252244  0.39572884  0.19865348  1
  Pd  Pd152  1  0.39963325  0.20371896  0.79037793  1
  Pd  Pd153  1  0.19065242  0.59758321  0.60584021  1
  Pd  Pd154  1  0.00592332  0.00833461  -0.00543467  1
  Pd  Pd155  1  0.20445433  0.80900385  0.00045729  1
  Pd  Pd156  1  0.19427939  0.79361172  0.19645319  1
  Pd  Pd157  1  0.40746660  0.20048585  0.59989861  1
  Pd  Pd158  1  0.39994506  0.59152572  0.21179298  1
  Pd  Pd159  1  0.60574690  0.01000922  0.20864916  1
  Pd  Pd160  1  0.20107414  0.39397621  0.40124495  1
  Pd  Pd161  1  0.40000935  -0.00545811  0.59827142  1
  Pd  Pd162  1  -0.00296345  0.38976418  0.60121641  1
  Pd  Pd163  1  0.60692966  -0.00442589  0.38946106  1
  Pd  Pd164  1  0.21077265  0.39918288  0.80575676  1
  Pd  Pd165  1  0.80278689  0.59118923  0.20817907  1
  Pd  Pd166  1  0.19516204  0.19429902  0.21026391  1
  Pd  Pd167  1  0.80289389  0.39538767  0.80522437  1
  Pd  Pd168  1  0.18899553  0.59676695  0.39970390  1
  Pd  Pd169  1  0.19724159  0.18988776  -0.00466860  1
  Pd  Pd170  1  0.19679902  0.19551442  0.39461668  1
  Pd  Pd171  1  0.40734633  0.60848093  0.60542425  1
  Pd  Pd172  1  0.19280933  0.00074792  0.80313712  1
  Pd  Pd173  1  0.00907468  0.80064215  0.19901409  1
  Pd  Pd174  1  0.39697997  0.01211633  0.19611206  1
  Pd  Pd175  1  -0.00693829  -0.00211865  0.39291998  1
  Pd  Pd176  1  0.39132869  0.39453901  0.80600342  1
  Pd  Pd177  1  0.00699001  0.60260586  0.79116507  1
  Pd  Pd178  1  -0.00421509  0.39118947  0.00869273  1
  Pd  Pd179  1  0.40091734  0.59538484  0.79845447  1
  Pd  Pd180  1  -0.00810594  0.01060860  0.60944648  1
  Pd  Pd181  1  -0.00301223  0.39096673  0.19284549  1
  Pd  Pd182  1  0.20781981  0.00598392  0.39272564  1
  Pd  Pd183  1  0.01154892  0.20338071  0.40656316  1
  Pd  Pd184  1  0.79781008  0.81019333  0.18904431  1
  Pd  Pd185  1  0.79180673  0.00272433  0.80268658  1
  Pd  Pd186  1  0.00888878  0.20791396  0.19936135  1
  Pd  Pd187  1  0.20307376  0.80431206  0.39946117  1
  Pd  Pd188  1  0.00158189  0.79788859  0.80356206  1
  Pd  Pd189  1  0.79924624  0.80341113  0.39923084  1
  Pd  Pd190  1  0.40588061  0.39993981  0.40041532  1
  Pd  Pd191  1  0.59496983  0.79288855  0.19562519  1
  Pd  Pd192  1  0.21016363  0.40496544  0.20466002  1
  Pd  Pd193  1  -0.00646517  0.00000646  0.20686573  1
  Pd  Pd194  1  0.20929325  0.20686631  0.79280550  1
  Pd  Pd195  1  0.60202283  0.01296157  0.79704850  1
  Pd  Pd196  1  0.41222432  0.19920392  0.19228139  1
  Pd  Pd197  1  -0.00812532  0.38650864  0.79485514  1
  Pd  Pd198  1  0.20814051  0.00990851  0.19724042  1
  Pd  Pd199  1  0.18810212  0.79454594  0.80112834  1
  Rh  Rh200  1  0.39844694  0.19339611  0.00256263  1
  Rh  Rh201  1  0.78993082  0.20066153  0.20508605  1
  Rh  Rh202  1  0.60509002  0.19816223  0.00145992  1
  Rh  Rh203  1  0.60278480  0.59731652  0.19100297  1
  Rh  Rh204  1  0.20677251  0.80574635  0.59828135  1
  Rh  Rh205  1  -0.01398010  0.79033318  -0.00726829  1
  Rh  Rh206  1  0.59784342  -0.00391885  -0.00293108  1
  Rh  Rh207  1  0.00507547  -0.00256779  0.80168672  1
  Rh  Rh208  1  0.19779275  0.59285805  0.00102719  1
  Rh  Rh209  1  0.00198375  0.39434649  0.40308963  1
  Rh  Rh210  1  0.79608106  0.19073151  0.60069135  1
  Rh  Rh211  1  0.40273313  0.79868123  0.20324427  1
  Rh  Rh212  1  0.59423572  0.79740657  0.60409133  1
  Rh  Rh213  1  0.60317137  0.41087936  -0.00678417  1
  Rh  Rh214  1  0.20003385  0.00361720  0.60217481  1
  Rh  Rh215  1  0.59142539  0.80258576  0.39291158  1
  Rh  Rh216  1  0.19251529  0.19588927  0.60335779  1
  Rh  Rh217  1  0.79254132  0.59359025  0.79193390  1
  Rh  Rh218  1  0.59632449  0.79451563  0.80209274  1
  Rh  Rh219  1  0.59266949  0.39238518  0.20052739  1
  Rh  Rh220  1  0.79728291  0.40072625  0.59974631  1
  Rh  Rh221  1  0.39469439  -0.00809522  0.39503802  1
  Rh  Rh222  1  0.40371684  0.19919205  0.40952402  1
  Rh  Rh223  1  0.79366662  0.19864086  0.39675628  1
  Rh  Rh224  1  0.60798677  0.01211630  0.60833417  1
  Rh  Rh225  1  0.78722636  0.20019444  0.81028890  1
  Rh  Rh226  1  0.79535549  0.19300683  -0.00489041  1
  Rh  Rh227  1  0.00572576  0.59853449  0.20641618  1
  Rh  Rh228  1  0.79777187  0.40110657  0.39806543  1
  Rh  Rh229  1  0.40467413  0.60663516  0.39642223  1
  Rh  Rh230  1  0.61096505  0.60976943  0.41203454  1
  Rh  Rh231  1  0.20687457  0.39726313  0.59569050  1
  Rh  Rh232  1  -0.00595133  0.60027936  0.00220763  1
  Rh  Rh233  1  0.79712606  0.80570063  0.60593930  1
  Rh  Rh234  1  0.59887665  0.40084881  0.80967505  1
  Rh  Rh235  1  0.79662748  0.60692318  0.00016927  1
  Rh  Rh236  1  0.00308928  0.79883512  0.60396599  1
  Rh  Rh237  1  0.40538260  0.81039013  0.79381553  1
  Rh  Rh238  1  0.80898102  0.39908880  0.00207127  1
  Rh  Rh239  1  0.39656021  0.39677300  0.58803847  1
  Rh  Rh240  1  0.59948844  0.40032423  0.59234510  1
  Rh  Rh241  1  0.59822273  0.39542477  0.40229579  1
  Rh  Rh242  1  0.59818474  0.20707440  0.40402789  1
  Rh  Rh243  1  0.00969780  0.80263518  0.39761114  1
  Rh  Rh244  1  0.80082972  0.80356598  0.80390447  1
  Rh  Rh245  1  0.39555762  0.39286302  0.00563680  1
  Rh  Rh246  1  0.00873153  0.20042864  0.00324069  1
  Rh  Rh247  1  0.41125623  0.61199046  -0.00621472  1
  Rh  Rh248  1  0.39975789  0.00148212  0.80203687  1
  Rh  Rh249  1  0.00130087  0.20523475  0.78879490  1
