# generated using pymatgen
data_ZrScNbPdRh
_symmetry_space_group_name_H-M   'P 1'
_cell_length_a   16.56008309
_cell_length_b   16.56379741
_cell_length_c   16.56205940
_cell_angle_alpha   90.03390157
_cell_angle_beta   90.00982338
_cell_angle_gamma   90.03963790
_symmetry_Int_Tables_number   1
_chemical_formula_structural   ZrScNbPdRh
_chemical_formula_sum   'Zr50 Sc50 Nb50 Pd50 Rh50'
_cell_volume   4542.93552315
_cell_formula_units_Z   50
loop_
 _symmetry_equiv_pos_site_id
 _symmetry_equiv_pos_as_xyz
  1  'x, y, z'
loop_
 _atom_site_type_symbol
 _atom_site_label
 _atom_site_symmetry_multiplicity
 _atom_site_fract_x
 _atom_site_fract_y
 _atom_site_fract_z
 _atom_site_occupancy
  Zr  Zr0  1  0.91094494  0.50145120  0.70844469  1
  Zr  Zr1  1  0.51463849  0.50363812  0.69930491  1
  Zr  Zr2  1  0.70775597  0.29971893  0.89817968  1
  Zr  Zr3  1  0.30265482  0.09769649  0.70978957  1
  Zr  Zr4  1  0.89699983  0.69712182  0.09535711  1
  Zr  Zr5  1  0.49840385  0.89866015  0.69871917  1
  Zr  Zr6  1  0.70578137  0.89479445  0.69993461  1
  Zr  Zr7  1  0.90302273  0.11011037  0.89696801  1
  Zr  Zr8  1  0.49163456  0.09951014  0.90547762  1
  Zr  Zr9  1  0.90003950  0.70239020  0.50322332  1
  Zr  Zr10  1  0.30102947  0.70912054  0.50264533  1
  Zr  Zr11  1  0.69487586  0.30179423  0.69960916  1
  Zr  Zr12  1  0.10202744  0.71275278  0.09398444  1
  Zr  Zr13  1  0.29986316  0.49606966  0.09806271  1
  Zr  Zr14  1  0.29900349  0.70551798  0.89097689  1
  Zr  Zr15  1  0.49447724  0.30238840  0.69632638  1
  Zr  Zr16  1  0.90261430  0.49720531  0.09927773  1
  Zr  Zr17  1  0.09969848  0.49951966  0.50033838  1
  Zr  Zr18  1  0.69941084  0.11379483  0.30270976  1
  Zr  Zr19  1  0.49334678  0.10074908  0.30649175  1
  Zr  Zr20  1  0.50020842  0.49913357  0.30737751  1
  Zr  Zr21  1  0.90109068  0.89917878  0.50459181  1
  Zr  Zr22  1  0.49915588  0.69532013  0.89387679  1
  Zr  Zr23  1  0.09776393  0.49339076  0.89264842  1
  Zr  Zr24  1  0.29611490  0.31201114  0.10204114  1
  Zr  Zr25  1  0.10361593  0.09260230  0.89451834  1
  Zr  Zr26  1  0.49954915  0.10016358  0.10214939  1
  Zr  Zr27  1  0.69990659  0.11205484  0.70266701  1
  Zr  Zr28  1  0.30198122  0.50071212  0.90862554  1
  Zr  Zr29  1  0.71242150  0.10156227  0.10138929  1
  Zr  Zr30  1  0.48959208  0.69961824  0.69649834  1
  Zr  Zr31  1  0.70232020  0.89605188  0.50252801  1
  Zr  Zr32  1  0.30132358  0.29474789  0.30849866  1
  Zr  Zr33  1  0.49160253  0.90377249  0.49796365  1
  Zr  Zr34  1  0.29835215  0.90851455  0.89328769  1
  Zr  Zr35  1  0.30216160  0.49585934  0.70194056  1
  Zr  Zr36  1  0.89660573  0.90394106  0.10006172  1
  Zr  Zr37  1  0.09800354  0.90579446  0.50229012  1
  Zr  Zr38  1  0.10198998  0.70488570  0.90034821  1
  Zr  Zr39  1  0.69921424  0.69409343  0.10019198  1
  Zr  Zr40  1  0.69753843  0.11002086  0.49841490  1
  Zr  Zr41  1  0.29557862  0.48736768  0.29329283  1
  Zr  Zr42  1  0.10103400  0.49573665  0.70736671  1
  Zr  Zr43  1  0.50145840  0.70187293  0.29448711  1
  Zr  Zr44  1  0.69680394  0.90139067  0.89822136  1
  Zr  Zr45  1  0.69111201  0.10389406  0.90196350  1
  Zr  Zr46  1  0.29864852  0.70013846  0.08977998  1
  Zr  Zr47  1  0.10586082  0.49047930  0.09812112  1
  Zr  Zr48  1  0.09074268  0.09959694  0.70012449  1
  Zr  Zr49  1  0.09822873  0.69865762  0.70440223  1
  Sc  Sc50  1  0.29797919  0.71279238  0.30475788  1
  Sc  Sc51  1  0.89759885  0.49295762  0.30135568  1
  Sc  Sc52  1  0.90326909  0.50206402  0.49071288  1
  Sc  Sc53  1  0.90984341  0.89708160  0.69676873  1
  Sc  Sc54  1  0.70514632  0.89954223  0.10062808  1
  Sc  Sc55  1  0.90072709  0.28359913  0.70797070  1
  Sc  Sc56  1  0.29761523  0.90702734  0.50248265  1
  Sc  Sc57  1  0.69271918  0.49453266  0.49730196  1
  Sc  Sc58  1  0.89366781  0.90737804  0.29602846  1
  Sc  Sc59  1  0.09737008  0.49415212  0.30723885  1
  Sc  Sc60  1  0.50220771  0.29385183  0.90783720  1
  Sc  Sc61  1  0.69956654  0.69035199  0.29561818  1
  Sc  Sc62  1  0.88962213  0.69103926  0.30406019  1
  Sc  Sc63  1  0.09375166  0.30504927  0.08858787  1
  Sc  Sc64  1  0.50064904  0.29905370  0.29754703  1
  Sc  Sc65  1  0.49349364  0.30518140  0.50111729  1
  Sc  Sc66  1  0.50257093  0.89768035  0.10635462  1
  Sc  Sc67  1  0.10798016  0.90273630  0.09773882  1
  Sc  Sc68  1  0.70694403  0.49540199  0.10013047  1
  Sc  Sc69  1  0.89680978  0.30171709  0.09217137  1
  Sc  Sc70  1  0.50035400  0.49575521  0.50122181  1
  Sc  Sc71  1  0.30802573  0.09138323  0.09725920  1
  Sc  Sc72  1  0.49448020  0.69599738  0.49532808  1
  Sc  Sc73  1  0.10849797  0.91258043  0.29764452  1
  Sc  Sc74  1  0.10272623  0.89871584  0.89957341  1
  Sc  Sc75  1  0.69332988  0.70287571  0.69788237  1
  Sc  Sc76  1  0.90045340  0.30171063  0.30778341  1
  Sc  Sc77  1  0.89937435  0.10040728  0.29914110  1
  Sc  Sc78  1  0.70043799  0.49440880  0.30205003  1
  Sc  Sc79  1  0.70930767  0.70097026  0.49687230  1
  Sc  Sc80  1  0.49223477  0.29901354  0.10048646  1
  Sc  Sc81  1  0.90431643  0.70661255  0.70539599  1
  Sc  Sc82  1  0.49011082  0.90168779  0.29905881  1
  Sc  Sc83  1  0.09843495  0.09682161  0.49289022  1
  Sc  Sc84  1  0.09339925  0.28582507  0.49232674  1
  Sc  Sc85  1  0.09635461  0.29891607  0.89385778  1
  Sc  Sc86  1  0.70155884  0.30224070  0.10588353  1
  Sc  Sc87  1  0.69870240  0.29885332  0.49793439  1
  Sc  Sc88  1  0.29825149  0.90012252  0.10464881  1
  Sc  Sc89  1  0.09805671  0.30065026  0.30626456  1
  Sc  Sc90  1  0.30731442  0.49473590  0.49002350  1
  Sc  Sc91  1  0.10171885  0.69891549  0.49599969  1
  Sc  Sc92  1  0.89986954  0.49765848  0.90516100  1
  Sc  Sc93  1  0.49914837  0.10635702  0.70660193  1
  Sc  Sc94  1  0.70307277  0.70612237  0.89953130  1
  Sc  Sc95  1  0.10056901  0.90543042  0.69892214  1
  Sc  Sc96  1  0.30129453  0.29369017  0.89708226  1
  Sc  Sc97  1  0.90184970  0.70385554  0.90549095  1
  Sc  Sc98  1  0.30009892  0.09789274  0.30673027  1
  Sc  Sc99  1  0.49133199  0.48996510  0.09185218  1
  Nb  Nb100  1  0.50221438  0.69744062  0.09984114  1
  Nb  Nb101  1  0.50243981  0.89723360  0.89985872  1
  Nb  Nb102  1  0.29948557  0.09879603  0.90328902  1
  Nb  Nb103  1  0.69976825  0.90873166  0.30167674  1
  Nb  Nb104  1  0.09910341  0.09740515  0.09812501  1
  Nb  Nb105  1  0.10134548  0.70346235  0.29574202  1
  Nb  Nb106  1  0.50069396  0.50124317  0.89735407  1
  Nb  Nb107  1  0.90365499  0.10115393  0.09683537  1
  Nb  Nb108  1  0.10499294  0.30209720  0.69961469  1
  Nb  Nb109  1  0.89755895  0.90193122  0.89757466  1
  Nb  Nb110  1  0.49120700  0.09208166  0.49997192  1
  Nb  Nb111  1  0.90071578  0.09761111  0.69952376  1
  Nb  Nb112  1  0.30189538  0.90241653  0.30120425  1
  Nb  Nb113  1  0.30333845  0.89049626  0.69710536  1
  Nb  Nb114  1  0.30256152  0.30043406  0.69949135  1
  Nb  Nb115  1  0.90167912  0.29258933  0.50477963  1
  Nb  Nb116  1  0.30193196  0.29683221  0.50621847  1
  Nb  Nb117  1  0.90477168  0.29607653  0.90424825  1
  Nb  Nb118  1  0.30002466  0.70733029  0.69865829  1
  Nb  Nb119  1  0.70092492  0.30333005  0.30204968  1
  Nb  Nb120  1  0.90162037  0.11211336  0.50650406  1
  Nb  Nb121  1  0.10131907  0.10611276  0.29944578  1
  Nb  Nb122  1  0.70159935  0.49604154  0.70245880  1
  Nb  Nb123  1  0.30366111  0.10432509  0.49823643  1
  Nb  Nb124  1  0.69223699  0.50052144  0.89171699  1
  Nb  Nb125  1  0.19782762  0.60333413  0.20051311  1
  Nb  Nb126  1  0.79713496  0.00670663  0.40917907  1
  Nb  Nb127  1  0.60465675  0.00571522  0.20633671  1
  Nb  Nb128  1  0.19935601  0.19158480  0.00204271  1
  Nb  Nb129  1  0.00026523  0.39132471  0.60117788  1
  Nb  Nb130  1  0.79479834  0.59502595  0.79811687  1
  Nb  Nb131  1  0.19923621  0.39420601  0.60068257  1
  Nb  Nb132  1  -0.00012268  0.79668779  0.20378887  1
  Nb  Nb133  1  0.20541322  0.20290624  0.60246890  1
  Nb  Nb134  1  0.80058010  0.00998252  0.60153670  1
  Nb  Nb135  1  0.00505066  0.19362322  0.19366406  1
  Nb  Nb136  1  0.80382670  0.00325563  0.79728791  1
  Nb  Nb137  1  0.20472203  0.59745881  0.60257747  1
  Nb  Nb138  1  0.00110809  0.80097217  0.39106162  1
  Nb  Nb139  1  0.80069292  0.59069037  0.60822164  1
  Nb  Nb140  1  0.40691256  0.80050684  -0.00605170  1
  Nb  Nb141  1  0.80707133  0.40094695  0.60517545  1
  Nb  Nb142  1  0.40431411  0.40164537  0.79977885  1
  Nb  Nb143  1  -0.00423054  0.00485145  0.00046116  1
  Nb  Nb144  1  0.39586157  0.60103537  0.19718023  1
  Nb  Nb145  1  0.00693376  0.60447246  0.19775074  1
  Nb  Nb146  1  0.19362543  0.19653781  0.19583280  1
  Nb  Nb147  1  0.60158568  0.00401924  0.59731908  1
  Nb  Nb148  1  0.60151219  0.80442108  0.39437234  1
  Nb  Nb149  1  0.59733612  0.59554630  -0.00483854  1
  Pd  Pd150  1  0.00282360  0.80567523  0.80297965  1
  Pd  Pd151  1  0.59851367  -0.00294425  0.01081838  1
  Pd  Pd152  1  0.79844548  0.40207227  -0.00354257  1
  Pd  Pd153  1  0.79921103  0.39746229  0.40854980  1
  Pd  Pd154  1  0.59711779  0.40230271  0.19958606  1
  Pd  Pd155  1  0.39969258  0.19255475  0.59987564  1
  Pd  Pd156  1  0.00743443  0.59574413  0.00041872  1
  Pd  Pd157  1  0.39772609  0.59363819  0.79646335  1
  Pd  Pd158  1  0.58827185  0.20943160  0.40519798  1
  Pd  Pd159  1  0.80891581  0.40052031  0.79881076  1
  Pd  Pd160  1  0.60708891  0.80859947  0.20569261  1
  Pd  Pd161  1  0.60254718  0.40149074  0.00058808  1
  Pd  Pd162  1  0.59161999  0.39022077  0.80473570  1
  Pd  Pd163  1  0.59896473  0.19944971  0.19622709  1
  Pd  Pd164  1  0.58714593  0.19896543  0.59268526  1
  Pd  Pd165  1  0.39077833  0.60204898  0.39122157  1
  Pd  Pd166  1  0.60196328  0.00285965  0.79267110  1
  Pd  Pd167  1  0.40338596  -0.01143461  0.00392814  1
  Pd  Pd168  1  0.60148324  -0.00300814  0.40087665  1
  Pd  Pd169  1  0.59805961  0.79555169  0.79788065  1
  Pd  Pd170  1  0.60842733  0.60373555  0.59238232  1
  Pd  Pd171  1  0.60426813  0.20570206  0.00955515  1
  Pd  Pd172  1  0.59127898  0.79798273  0.58853095  1
  Pd  Pd173  1  0.00073884  0.39359017  0.20238099  1
  Pd  Pd174  1  0.80095883  0.79771201  0.20630405  1
  Pd  Pd175  1  0.60464601  0.60603214  0.40517157  1
  Pd  Pd176  1  0.20356987  0.60156256  0.79731947  1
  Pd  Pd177  1  0.20743069  0.00708772  0.20162990  1
  Pd  Pd178  1  0.79845741  0.80026268  -0.00130264  1
  Pd  Pd179  1  0.59739403  0.79563779  0.00217246  1
  Pd  Pd180  1  0.19858330  0.20125895  0.80092932  1
  Pd  Pd181  1  0.20685658  0.60134788  0.39836616  1
  Pd  Pd182  1  0.80393349  0.00394031  -0.01016874  1
  Pd  Pd183  1  0.59153038  0.58410495  0.18893238  1
  Pd  Pd184  1  0.39359437  0.59384931  0.59636885  1
  Pd  Pd185  1  0.19353550  0.81103872  0.39874395  1
  Pd  Pd186  1  0.80530219  0.59047472  0.20233047  1
  Pd  Pd187  1  0.19285663  0.79676155  0.60303008  1
  Pd  Pd188  1  0.00131657  -0.00176148  0.19694090  1
  Pd  Pd189  1  0.20580090  0.00934088  0.60297531  1
  Pd  Pd190  1  -0.00707097  0.00100288  0.39909960  1
  Pd  Pd191  1  0.19676976  0.39046593  0.40967152  1
  Pd  Pd192  1  0.00080428  0.59847134  0.59994692  1
  Pd  Pd193  1  0.38831875  0.19842056  0.19829681  1
  Pd  Pd194  1  0.80081977  0.80533393  0.38958572  1
  Pd  Pd195  1  -0.00061287  0.60513576  0.39076014  1
  Pd  Pd196  1  0.81259882  0.20909789  0.20196249  1
  Pd  Pd197  1  0.40452652  -0.00249049  0.79757224  1
  Pd  Pd198  1  0.39410152  0.79564544  0.19252787  1
  Pd  Pd199  1  0.19110107  0.59795742  0.00017693  1
  Rh  Rh200  1  -0.00595094  0.19528368  0.39138798  1
  Rh  Rh201  1  0.59901703  0.39405119  0.39727148  1
  Rh  Rh202  1  -0.00720649  -0.00451594  0.80671044  1
  Rh  Rh203  1  0.40142583  0.80598867  0.80347899  1
  Rh  Rh204  1  0.00605430  0.19640029  0.00228522  1
  Rh  Rh205  1  0.00838835  0.20106731  0.60359505  1
  Rh  Rh206  1  0.40279213  0.80420552  0.40179477  1
  Rh  Rh207  1  0.79518564  0.59200791  0.40787940  1
  Rh  Rh208  1  -0.00799113  0.38733476  0.79942515  1
  Rh  Rh209  1  0.20248877  -0.00405818  0.79151072  1
  Rh  Rh210  1  0.21305721  0.80998784  -0.00735641  1
  Rh  Rh211  1  0.00761404  0.79621142  0.59214185  1
  Rh  Rh212  1  0.40223134  0.39393758  0.39820527  1
  Rh  Rh213  1  0.19682870  0.80636919  0.79287021  1
  Rh  Rh214  1  0.40926570  0.40435137  0.20691300  1
  Rh  Rh215  1  0.80048977  0.39485417  0.20473673  1
  Rh  Rh216  1  0.80125287  0.20541830  0.60190923  1
  Rh  Rh217  1  0.78662863  0.59486014  -0.01187316  1
  Rh  Rh218  1  0.40433431  0.00033416  0.20318040  1
  Rh  Rh219  1  0.40038206  0.00396590  0.60622568  1
  Rh  Rh220  1  0.60693129  0.60717290  0.80188253  1
  Rh  Rh221  1  0.79359341  0.00784118  0.20841500  1
  Rh  Rh222  1  0.19744457  0.00180335  -0.00107760  1
  Rh  Rh223  1  0.20298588  0.19625751  0.40270821  1
  Rh  Rh224  1  0.21155819  0.39494563  0.80266679  1
  Rh  Rh225  1  0.19987634  0.38929333  -0.01284109  1
  Rh  Rh226  1  -0.00584460  0.00590262  0.59596874  1
  Rh  Rh227  1  0.60517879  0.39855687  0.59644725  1
  Rh  Rh228  1  -0.00171795  0.39575692  0.40957895  1
  Rh  Rh229  1  0.38845554  -0.00128843  0.39980638  1
  Rh  Rh230  1  0.80346655  0.80179061  0.79927257  1
  Rh  Rh231  1  0.18931933  0.39300131  0.20542645  1
  Rh  Rh232  1  0.00502025  0.20202030  0.79858889  1
  Rh  Rh233  1  0.80700697  0.79299165  0.60990942  1
  Rh  Rh234  1  0.79924428  0.19734009  0.80459347  1
  Rh  Rh235  1  0.19942126  0.80028870  0.20441041  1
  Rh  Rh236  1  0.38867045  0.20124965  0.00328148  1
  Rh  Rh237  1  0.41005792  0.60713724  0.00462457  1
  Rh  Rh238  1  0.40273628  0.20217693  0.40572055  1
  Rh  Rh239  1  0.59337455  0.20507101  0.80559843  1
  Rh  Rh240  1  -0.00248060  0.40024929  -0.00688602  1
  Rh  Rh241  1  -0.00437262  0.81548544  0.00536076  1
  Rh  Rh242  1  0.20355414  0.00281144  0.39995428  1
  Rh  Rh243  1  -0.00767876  0.60769496  0.81331925  1
  Rh  Rh244  1  0.40122183  0.80244187  0.59564893  1
  Rh  Rh245  1  0.40276509  0.20516916  0.80604354  1
  Rh  Rh246  1  0.79918304  0.20347197  -0.00015847  1
  Rh  Rh247  1  0.39981562  0.39200811  -0.01181420  1
  Rh  Rh248  1  0.80504241  0.20226317  0.39901524  1
  Rh  Rh249  1  0.39823209  0.40594310  0.60442716  1
