# generated using pymatgen
data_ZrScNbPdRh
_symmetry_space_group_name_H-M   'P 1'
_cell_length_a   16.55766997
_cell_length_b   16.56057827
_cell_length_c   16.55890748
_cell_angle_alpha   90.01465966
_cell_angle_beta   89.99801773
_cell_angle_gamma   90.01758384
_symmetry_Int_Tables_number   1
_chemical_formula_structural   ZrScNbPdRh
_chemical_formula_sum   'Zr50 Sc50 Nb50 Pd50 Rh50'
_cell_volume   4540.52806378
_cell_formula_units_Z   50
loop_
 _symmetry_equiv_pos_site_id
 _symmetry_equiv_pos_as_xyz
  1  'x, y, z'
loop_
 _atom_site_type_symbol
 _atom_site_label
 _atom_site_symmetry_multiplicity
 _atom_site_fract_x
 _atom_site_fract_y
 _atom_site_fract_z
 _atom_site_occupancy
  Zr  Zr0  1  0.70330936  0.69870760  0.50052910  1
  Zr  Zr1  1  0.30235269  0.88501520  0.69688154  1
  Zr  Zr2  1  0.10390781  0.69675864  0.50777833  1
  Zr  Zr3  1  0.91204800  0.50275560  0.89952351  1
  Zr  Zr4  1  0.89649807  0.30490572  0.29764628  1
  Zr  Zr5  1  0.29170762  0.70765884  0.89545953  1
  Zr  Zr6  1  0.69712359  0.90404388  0.70260510  1
  Zr  Zr7  1  0.71086174  0.89784489  0.49526834  1
  Zr  Zr8  1  0.89884031  0.10002210  0.09377884  1
  Zr  Zr9  1  0.09465908  0.29920213  0.50111749  1
  Zr  Zr10  1  0.90725660  0.91399821  0.49679614  1
  Zr  Zr11  1  0.70195675  0.10372770  0.09743923  1
  Zr  Zr12  1  0.10198017  0.30472255  0.90562180  1
  Zr  Zr13  1  0.69312146  0.49334055  0.90092777  1
  Zr  Zr14  1  0.09540284  0.50460934  0.69815210  1
  Zr  Zr15  1  0.90161541  0.49990891  0.10625920  1
  Zr  Zr16  1  0.49964887  0.50169319  0.29648791  1
  Zr  Zr17  1  0.29843528  0.29423454  0.70387196  1
  Zr  Zr18  1  0.50777172  0.50714609  0.10392607  1
  Zr  Zr19  1  0.90838176  0.29461033  0.89930425  1
  Zr  Zr20  1  0.29753440  0.70899553  0.09727954  1
  Zr  Zr21  1  0.70236956  0.50760717  0.49868559  1
  Zr  Zr22  1  0.29801499  0.29249352  0.50487438  1
  Zr  Zr23  1  0.10575869  0.89439619  0.10070429  1
  Zr  Zr24  1  0.50556692  0.29524745  0.28948830  1
  Zr  Zr25  1  0.89472817  0.29854363  0.49785745  1
  Zr  Zr26  1  0.49614644  0.29361619  0.70320006  1
  Zr  Zr27  1  0.90329289  0.09639487  0.70052389  1
  Zr  Zr28  1  0.09907312  0.29419973  0.29176036  1
  Zr  Zr29  1  0.69846995  0.49747829  0.69724980  1
  Zr  Zr30  1  0.91245176  0.49658853  0.50132445  1
  Zr  Zr31  1  0.49427741  0.10523590  0.10452942  1
  Zr  Zr32  1  0.69046542  0.69885192  0.09530410  1
  Zr  Zr33  1  0.69647742  0.28817550  0.90097539  1
  Zr  Zr34  1  0.69137272  0.30173057  0.70069281  1
  Zr  Zr35  1  0.29842710  0.08945999  0.49891645  1
  Zr  Zr36  1  0.50322106  0.49361874  0.49829698  1
  Zr  Zr37  1  0.90229344  0.49277511  0.70061806  1
  Zr  Zr38  1  0.10272312  0.70865187  0.29384260  1
  Zr  Zr39  1  0.49464573  0.29783271  0.89663751  1
  Zr  Zr40  1  0.90128445  0.70850840  0.70493139  1
  Zr  Zr41  1  0.30080382  0.09360336  0.09956901  1
  Zr  Zr42  1  0.90165585  0.89503408  0.30385159  1
  Zr  Zr43  1  0.70586832  0.70673421  0.69698368  1
  Zr  Zr44  1  0.49312778  0.49390194  0.90237902  1
  Zr  Zr45  1  0.30075557  0.70466944  0.51757725  1
  Zr  Zr46  1  0.90025412  0.70431986  0.89765913  1
  Zr  Zr47  1  0.09460805  0.50589710  0.29985213  1
  Zr  Zr48  1  0.89996055  0.90134913  0.71023877  1
  Zr  Zr49  1  0.30513829  0.50101636  0.50123359  1
  Sc  Sc50  1  0.70149127  0.90236464  0.09942063  1
  Sc  Sc51  1  0.10561874  0.70032685  0.10213663  1
  Sc  Sc52  1  0.49768945  0.68640140  0.50072778  1
  Sc  Sc53  1  0.49073632  0.71264477  0.69560289  1
  Sc  Sc54  1  0.50266858  0.29848148  0.51057236  1
  Sc  Sc55  1  0.10834237  0.89940735  0.89353776  1
  Sc  Sc56  1  0.50404018  0.90738365  0.69740700  1
  Sc  Sc57  1  0.09625223  0.29300479  0.70853891  1
  Sc  Sc58  1  0.29998508  0.29607143  0.29531428  1
  Sc  Sc59  1  0.10901765  0.90342870  0.49681711  1
  Sc  Sc60  1  0.89607854  0.30040181  0.70559920  1
  Sc  Sc61  1  0.10406562  0.10814347  0.09857787  1
  Sc  Sc62  1  0.50286732  0.90272298  0.90018553  1
  Sc  Sc63  1  0.70940629  0.69193198  0.30680735  1
  Sc  Sc64  1  0.11224847  0.69830441  0.70583061  1
  Sc  Sc65  1  0.89240476  0.70515857  0.49572116  1
  Sc  Sc66  1  0.09752173  0.89675875  0.30426099  1
  Sc  Sc67  1  0.10168888  0.10373888  0.89789233  1
  Sc  Sc68  1  0.70357066  0.90203308  0.29704659  1
  Sc  Sc69  1  0.30259521  0.29961595  0.89595456  1
  Sc  Sc70  1  0.50220219  0.29905619  0.09849853  1
  Sc  Sc71  1  0.49431057  0.90089129  0.09100909  1
  Sc  Sc72  1  0.30928795  0.49799348  0.29720149  1
  Sc  Sc73  1  0.29548037  0.50284091  0.70609284  1
  Sc  Sc74  1  0.68664092  0.10544936  0.30221022  1
  Sc  Sc75  1  0.29248922  0.90896655  0.30174668  1
  Sc  Sc76  1  0.88638885  0.89641796  0.10422936  1
  Sc  Sc77  1  0.49518823  0.91301461  0.50381521  1
  Sc  Sc78  1  0.69959586  0.89610317  0.89837364  1
  Sc  Sc79  1  0.50768551  0.09505040  0.69344432  1
  Sc  Sc80  1  0.70689229  0.49919350  0.28841474  1
  Sc  Sc81  1  0.30046748  0.50090298  0.09349291  1
  Sc  Sc82  1  0.11306948  0.09770566  0.29871717  1
  Sc  Sc83  1  0.29402430  0.29634755  0.09286384  1
  Sc  Sc84  1  0.29841948  0.10187727  0.90412423  1
  Sc  Sc85  1  0.29702887  0.10566005  0.69699266  1
  Sc  Sc86  1  0.29305619  0.49271129  0.90205204  1
  Sc  Sc87  1  0.50250626  0.71095623  0.91693782  1
  Sc  Sc88  1  0.50557913  0.48443094  0.69903741  1
  Sc  Sc89  1  0.29797395  0.90061879  0.90787533  1
  Sc  Sc90  1  0.70462030  0.28958769  0.49595404  1
  Sc  Sc91  1  0.10495706  0.09686420  0.70238753  1
  Sc  Sc92  1  0.89153008  0.10344183  0.89873334  1
  Sc  Sc93  1  0.49739506  0.91760494  0.30371584  1
  Sc  Sc94  1  0.50851453  0.09468018  0.50064816  1
  Sc  Sc95  1  0.89911944  0.50679250  0.30064968  1
  Sc  Sc96  1  0.10287542  0.09037089  0.50225235  1
  Sc  Sc97  1  0.69952014  0.09879561  0.70521973  1
  Sc  Sc98  1  0.09965920  0.50424594  0.08928347  1
  Sc  Sc99  1  0.49481786  0.10826648  0.90312782  1
  Nb  Nb100  1  0.70752504  0.10153218  0.50331914  1
  Nb  Nb101  1  0.90436841  0.89843117  0.90151141  1
  Nb  Nb102  1  0.10015029  0.50035363  0.50208348  1
  Nb  Nb103  1  0.69703912  0.09849542  0.90547814  1
  Nb  Nb104  1  0.49131515  0.10374092  0.29605716  1
  Nb  Nb105  1  0.89744258  0.10058867  0.49624985  1
  Nb  Nb106  1  0.90083953  0.70239886  0.09901809  1
  Nb  Nb107  1  0.49888747  0.70210700  0.10649547  1
  Nb  Nb108  1  0.30792273  0.10199160  0.29584447  1
  Nb  Nb109  1  0.09712981  0.50920853  0.89484361  1
  Nb  Nb110  1  0.49597179  0.69528234  0.29558281  1
  Nb  Nb111  1  0.29897839  0.70145580  0.30139381  1
  Nb  Nb112  1  0.70169163  0.49637278  0.09764788  1
  Nb  Nb113  1  0.70012856  0.30068108  0.29636320  1
  Nb  Nb114  1  0.69848996  0.69837290  0.89721884  1
  Nb  Nb115  1  0.30545298  0.89877778  0.50037830  1
  Nb  Nb116  1  0.09408296  0.90031720  0.69955501  1
  Nb  Nb117  1  0.09263489  0.30124075  0.10221227  1
  Nb  Nb118  1  0.30064019  0.69862898  0.70304920  1
  Nb  Nb119  1  0.29585311  0.89905087  0.09121960  1
  Nb  Nb120  1  0.70101660  0.30502356  0.10964139  1
  Nb  Nb121  1  0.09318612  0.69214380  0.89734845  1
  Nb  Nb122  1  0.90235506  0.09745326  0.30345919  1
  Nb  Nb123  1  0.90677943  0.70461446  0.29211944  1
  Nb  Nb124  1  0.90903340  0.29833246  0.10193381  1
  Nb  Nb125  1  -0.00345984  -0.00097128  0.19717850  1
  Nb  Nb126  1  -0.00288963  0.80080280  -0.00229392  1
  Nb  Nb127  1  0.39749186  -0.00064166  0.79846955  1
  Nb  Nb128  1  0.80122009  0.39751225  0.00729469  1
  Nb  Nb129  1  -0.00547864  0.19392358  0.40120163  1
  Nb  Nb130  1  -0.00638469  0.19345222  0.59442292  1
  Nb  Nb131  1  0.40263305  0.60537932  0.80323998  1
  Nb  Nb132  1  0.00217546  0.80794030  0.60423879  1
  Nb  Nb133  1  0.58909309  0.79511951  0.20664828  1
  Nb  Nb134  1  0.59729016  0.60555700  0.80256075  1
  Nb  Nb135  1  0.40241808  0.19226257  0.39591266  1
  Nb  Nb136  1  0.79443917  0.59994605  0.80479062  1
  Nb  Nb137  1  0.60391567  0.80175060  0.58976597  1
  Nb  Nb138  1  0.60337657  0.39704261  0.39374421  1
  Nb  Nb139  1  0.40160396  0.79810013  0.39605958  1
  Nb  Nb140  1  0.79741501  0.59724023  -0.00069653  1
  Nb  Nb141  1  0.20121376  0.59983910  0.40183294  1
  Nb  Nb142  1  0.80136543  0.20547850  0.20096134  1
  Nb  Nb143  1  0.19217946  0.39879626  0.19886824  1
  Nb  Nb144  1  0.19680145  0.40413626  0.40034234  1
  Nb  Nb145  1  0.39956369  0.79884951  0.20476529  1
  Nb  Nb146  1  0.60318470  0.00869206  -0.00121430  1
  Nb  Nb147  1  0.59183643  0.79686244  0.39747602  1
  Nb  Nb148  1  -0.00309669  -0.00745093  0.00130531  1
  Nb  Nb149  1  0.19560615  0.40157560  0.59561737  1
  Pd  Pd150  1  0.80119632  0.19799874  0.61032007  1
  Pd  Pd151  1  0.79891006  -0.00096193  0.60317810  1
  Pd  Pd152  1  0.79832125  0.60812898  0.19364915  1
  Pd  Pd153  1  0.40609924  0.18737444  0.59394951  1
  Pd  Pd154  1  0.40525731  0.80294632  0.80788913  1
  Pd  Pd155  1  0.59005692  0.60638983  0.61295200  1
  Pd  Pd156  1  0.80102468  0.20958395  0.00568166  1
  Pd  Pd157  1  0.40627661  0.59068597  0.61613012  1
  Pd  Pd158  1  -0.00314374  0.18845805  0.20447146  1
  Pd  Pd159  1  0.00068497  0.40281265  0.00176579  1
  Pd  Pd160  1  0.21050104  -0.00241570  0.79709841  1
  Pd  Pd161  1  0.79720824  0.00115514  0.80812945  1
  Pd  Pd162  1  0.59431619  0.79706305  0.79426538  1
  Pd  Pd163  1  0.38996660  0.60303150  0.19292804  1
  Pd  Pd164  1  0.78997448  0.79204753  0.20394543  1
  Pd  Pd165  1  0.39625639  0.60540009  -0.00626472  1
  Pd  Pd166  1  0.79615465  0.39734645  0.59436529  1
  Pd  Pd167  1  0.59849532  0.59998095  -0.00410182  1
  Pd  Pd168  1  0.20676551  0.59221347  0.20369327  1
  Pd  Pd169  1  0.00036683  0.61196918  0.39993584  1
  Pd  Pd170  1  0.19926045  0.20053531  -0.00145862  1
  Pd  Pd171  1  0.59605595  -0.00457003  0.19199863  1
  Pd  Pd172  1  0.00342839  0.60400729  0.19363186  1
  Pd  Pd173  1  0.39162823  0.40153971  0.60856739  1
  Pd  Pd174  1  0.00328199  0.00500555  0.81096644  1
  Pd  Pd175  1  0.00319601  0.39549979  0.39318881  1
  Pd  Pd176  1  0.39782162  0.39530877  0.00725163  1
  Pd  Pd177  1  0.39311365  0.39498970  0.18988690  1
  Pd  Pd178  1  0.59638878  0.19114773  0.79751469  1
  Pd  Pd179  1  0.20429431  -0.00846681  0.60630010  1
  Pd  Pd180  1  0.20775971  0.79682591  0.40388435  1
  Pd  Pd181  1  0.00115126  0.79613024  0.41032618  1
  Pd  Pd182  1  0.79335215  0.40784586  0.40010631  1
  Pd  Pd183  1  0.20113998  0.19859868  0.39965925  1
  Pd  Pd184  1  0.60516777  -0.00200415  0.40238451  1
  Pd  Pd185  1  0.60085567  0.39070656  0.00283440  1
  Pd  Pd186  1  0.79150038  0.00831538  0.39056857  1
  Pd  Pd187  1  0.39326960  0.60558843  0.40124739  1
  Pd  Pd188  1  0.20146183  0.60209836  -0.00503432  1
  Pd  Pd189  1  0.80079854  0.39923772  0.81017123  1
  Pd  Pd190  1  0.39631918  -0.01136971  0.19468185  1
  Pd  Pd191  1  0.19558058  -0.00260159  0.19830597  1
  Pd  Pd192  1  0.59353744  0.20395149  0.40502370  1
  Pd  Pd193  1  0.60242557  0.59713830  0.39139688  1
  Pd  Pd194  1  0.19426232  0.40186340  0.79554095  1
  Pd  Pd195  1  0.79829357  0.79767163  -0.00312789  1
  Pd  Pd196  1  0.81126545  0.59797168  0.60402017  1
  Pd  Pd197  1  -0.00576592  0.61195044  0.60489195  1
  Pd  Pd198  1  0.80110264  0.00919107  0.20698664  1
  Pd  Pd199  1  0.40411054  0.38418372  0.39749256  1
  Rh  Rh200  1  0.60518105  0.19724467  0.19463311  1
  Rh  Rh201  1  0.21024139  0.80796290  0.20204458  1
  Rh  Rh202  1  0.00514860  0.38858387  0.60937187  1
  Rh  Rh203  1  0.00208626  0.00092611  0.60082761  1
  Rh  Rh204  1  0.19316354  0.00301752  0.00232396  1
  Rh  Rh205  1  0.80573081  0.39579818  0.19481243  1
  Rh  Rh206  1  0.39639509  0.20220396  0.00195412  1
  Rh  Rh207  1  0.80161602  0.79661541  0.39192181  1
  Rh  Rh208  1  0.80628663  0.81368149  0.60065702  1
  Rh  Rh209  1  0.39235281  -0.00002690  0.61108888  1
  Rh  Rh210  1  0.79443913  0.80175153  0.80540173  1
  Rh  Rh211  1  0.39855553  0.80282792  0.00392825  1
  Rh  Rh212  1  0.59174981  0.00726497  0.81265496  1
  Rh  Rh213  1  0.60728346  0.60258254  0.20263330  1
  Rh  Rh214  1  0.00346997  0.19369308  -0.00328969  1
  Rh  Rh215  1  0.19537778  0.80063521  0.79962588  1
  Rh  Rh216  1  0.59863413  0.19995139  0.00713246  1
  Rh  Rh217  1  0.00712210  0.39742131  0.79965995  1
  Rh  Rh218  1  -0.00422801  0.60277783  0.79106659  1
  Rh  Rh219  1  0.39540176  0.00302894  0.39902107  1
  Rh  Rh220  1  0.20381289  0.00050697  0.39752389  1
  Rh  Rh221  1  0.80185178  0.19269233  0.38919254  1
  Rh  Rh222  1  0.20146208  0.20025108  0.80490194  1
  Rh  Rh223  1  0.20457484  0.59236478  0.59959043  1
  Rh  Rh224  1  0.00518755  0.40740477  0.19967939  1
  Rh  Rh225  1  0.60226652  0.81069180  0.01000220  1
  Rh  Rh226  1  0.81208088  0.59759758  0.39879230  1
  Rh  Rh227  1  0.79612081  0.19877583  0.79884069  1
  Rh  Rh228  1  0.79769914  -0.00595212  -0.00871114  1
  Rh  Rh229  1  0.20598296  0.59783168  0.80571688  1
  Rh  Rh230  1  0.40405714  0.00035176  -0.00743135  1
  Rh  Rh231  1  0.19171878  0.80631839  0.60460249  1
  Rh  Rh232  1  0.20683011  0.20400502  0.19444231  1
  Rh  Rh233  1  0.59577273  0.39665644  0.80407685  1
  Rh  Rh234  1  -0.00213101  0.61035319  0.00571787  1
  Rh  Rh235  1  0.18675827  0.20567020  0.60293173  1
  Rh  Rh236  1  0.01127378  0.79991604  0.80067178  1
  Rh  Rh237  1  0.41207880  0.80589761  0.58814371  1
  Rh  Rh238  1  0.61394708  -0.00330440  0.59168647  1
  Rh  Rh239  1  -0.00159826  0.19394742  0.79667930  1
  Rh  Rh240  1  0.60683150  0.19602066  0.59810249  1
  Rh  Rh241  1  0.39369641  0.20453601  0.19867681  1
  Rh  Rh242  1  0.61145224  0.39496476  0.58540487  1
  Rh  Rh243  1  0.00946549  0.00742225  0.39069671  1
  Rh  Rh244  1  0.18766694  0.79551966  -0.00746461  1
  Rh  Rh245  1  -0.00478955  0.80662732  0.19000696  1
  Rh  Rh246  1  0.59870459  0.40568112  0.20318772  1
  Rh  Rh247  1  0.19235411  0.40062493  0.00438128  1
  Rh  Rh248  1  0.39833044  0.40543164  0.79715779  1
  Rh  Rh249  1  0.40012572  0.18896654  0.79615902  1
