# generated using pymatgen
data_ZrScNbPdRh
_symmetry_space_group_name_H-M   'P 1'
_cell_length_a   16.55129275
_cell_length_b   16.55340203
_cell_length_c   16.55127103
_cell_angle_alpha   90.01272317
_cell_angle_beta   89.99949503
_cell_angle_gamma   89.99313447
_symmetry_Int_Tables_number   1
_chemical_formula_structural   ZrScNbPdRh
_chemical_formula_sum   'Zr50 Sc50 Nb50 Pd50 Rh50'
_cell_volume   4534.72045237
_cell_formula_units_Z   50
loop_
 _symmetry_equiv_pos_site_id
 _symmetry_equiv_pos_as_xyz
  1  'x, y, z'
loop_
 _atom_site_type_symbol
 _atom_site_label
 _atom_site_symmetry_multiplicity
 _atom_site_fract_x
 _atom_site_fract_y
 _atom_site_fract_z
 _atom_site_occupancy
  Zr  Zr0  1  0.69635913  0.10486440  0.88751373  1
  Zr  Zr1  1  0.91422166  0.50839049  0.70334033  1
  Zr  Zr2  1  0.89135953  0.69007033  0.30240141  1
  Zr  Zr3  1  0.50497305  0.10130897  0.70083219  1
  Zr  Zr4  1  0.89598962  0.89994042  0.30034613  1
  Zr  Zr5  1  0.50583281  0.11005627  0.11025016  1
  Zr  Zr6  1  0.70419874  0.50343607  0.90286001  1
  Zr  Zr7  1  0.90132874  0.90670370  0.50302235  1
  Zr  Zr8  1  0.90060210  0.09533344  0.90115229  1
  Zr  Zr9  1  0.10577234  0.29855926  0.70063054  1
  Zr  Zr10  1  0.89596968  0.50654351  0.10286039  1
  Zr  Zr11  1  0.69138985  0.49102075  0.49965013  1
  Zr  Zr12  1  0.90125204  0.29312477  0.89595838  1
  Zr  Zr13  1  0.89782643  0.30087211  0.49849825  1
  Zr  Zr14  1  0.50239280  0.89897613  0.29921085  1
  Zr  Zr15  1  0.30493392  0.29450834  0.69681176  1
  Zr  Zr16  1  0.70102545  0.09783295  0.10421800  1
  Zr  Zr17  1  0.10853528  0.10080733  0.69014528  1
  Zr  Zr18  1  0.29327248  0.90618058  0.90519242  1
  Zr  Zr19  1  0.50311562  0.49579991  0.30160233  1
  Zr  Zr20  1  0.90957909  0.70234967  0.10178548  1
  Zr  Zr21  1  0.29808841  0.49412767  0.71174910  1
  Zr  Zr22  1  0.29380612  0.90208821  0.31954785  1
  Zr  Zr23  1  0.89386730  0.10182582  0.49745379  1
  Zr  Zr24  1  0.29845741  0.49170984  0.29605154  1
  Zr  Zr25  1  0.49937218  0.09743215  0.89991034  1
  Zr  Zr26  1  0.68443708  0.29687820  0.09312166  1
  Zr  Zr27  1  0.10046241  0.70311488  0.10008095  1
  Zr  Zr28  1  0.50301506  0.70274589  0.29439728  1
  Zr  Zr29  1  0.71158207  0.50203634  0.29905244  1
  Zr  Zr30  1  0.29729023  0.71060055  0.49481934  1
  Zr  Zr31  1  0.69398512  0.10281125  0.69983324  1
  Zr  Zr32  1  0.09257168  0.90091919  0.69502804  1
  Zr  Zr33  1  0.29652353  0.69672433  0.09537228  1
  Zr  Zr34  1  0.49470416  0.69943057  0.50571559  1
  Zr  Zr35  1  0.88539859  0.09213612  0.69411759  1
  Zr  Zr36  1  0.70278760  0.70325475  0.71930721  1
  Zr  Zr37  1  0.70440799  0.10276583  0.50999471  1
  Zr  Zr38  1  0.70417773  0.49338611  0.10243011  1
  Zr  Zr39  1  0.50508565  0.30330293  0.50256933  1
  Zr  Zr40  1  0.08827459  0.09901788  0.10754894  1
  Zr  Zr41  1  0.69996548  0.90030581  0.10250872  1
  Zr  Zr42  1  0.49109987  0.29600794  0.29397052  1
  Zr  Zr43  1  0.50040135  0.50012142  0.69794817  1
  Zr  Zr44  1  0.50388687  0.70067645  0.70190529  1
  Zr  Zr45  1  0.30172703  0.69783132  0.29601641  1
  Zr  Zr46  1  0.09641942  0.28998536  0.89733755  1
  Zr  Zr47  1  0.29610688  0.09107448  0.09890060  1
  Zr  Zr48  1  0.29749344  0.30448069  0.89402744  1
  Zr  Zr49  1  0.31052312  0.69965415  0.69586903  1
  Sc  Sc50  1  0.69280513  0.51045688  0.70397858  1
  Sc  Sc51  1  0.10371650  0.90625630  0.49765585  1
  Sc  Sc52  1  0.30806638  0.10429273  0.69282838  1
  Sc  Sc53  1  0.49273980  0.90170473  0.89962345  1
  Sc  Sc54  1  0.30230116  0.29029879  0.49456578  1
  Sc  Sc55  1  0.09960239  0.89823126  0.09186790  1
  Sc  Sc56  1  0.48911676  0.70544985  0.10250900  1
  Sc  Sc57  1  0.08193647  0.69549894  0.69689898  1
  Sc  Sc58  1  0.50712175  0.10116249  0.50589794  1
  Sc  Sc59  1  0.10671204  0.50458970  0.88636264  1
  Sc  Sc60  1  0.90907592  0.49638743  0.49123831  1
  Sc  Sc61  1  0.50431047  0.49611552  0.50464172  1
  Sc  Sc62  1  0.30020199  0.89922544  0.09173670  1
  Sc  Sc63  1  0.10300760  0.70199722  0.91070310  1
  Sc  Sc64  1  0.50075138  0.90622171  0.70290651  1
  Sc  Sc65  1  0.11497387  0.29793585  0.29689111  1
  Sc  Sc66  1  0.09588646  0.29301872  0.10470408  1
  Sc  Sc67  1  0.70010302  0.90596096  0.49192543  1
  Sc  Sc68  1  0.69964129  0.90871416  0.70762428  1
  Sc  Sc69  1  0.09722872  0.69828771  0.30338710  1
  Sc  Sc70  1  0.91134018  0.29520319  0.69772983  1
  Sc  Sc71  1  0.30286331  0.09124449  0.89774440  1
  Sc  Sc72  1  0.09581677  0.91145236  0.30293868  1
  Sc  Sc73  1  0.69899438  0.89275639  0.29751923  1
  Sc  Sc74  1  0.09295586  0.69768636  0.49804086  1
  Sc  Sc75  1  0.69881523  0.10177495  0.30481558  1
  Sc  Sc76  1  0.09860890  0.50380068  0.30518465  1
  Sc  Sc77  1  0.90256729  0.29598686  0.09585137  1
  Sc  Sc78  1  0.49919934  0.49183709  0.09642537  1
  Sc  Sc79  1  0.70767196  0.71185583  0.09273142  1
  Sc  Sc80  1  0.09929273  0.51284626  0.09941005  1
  Sc  Sc81  1  0.50756641  0.30082573  0.91037130  1
  Sc  Sc82  1  0.50139187  0.10771413  0.30338182  1
  Sc  Sc83  1  0.90202867  0.89716163  0.70348935  1
  Sc  Sc84  1  0.30437484  0.50751607  0.09804767  1
  Sc  Sc85  1  0.30132885  0.69819025  0.90432836  1
  Sc  Sc86  1  0.70406436  0.29483772  0.49967163  1
  Sc  Sc87  1  0.88888356  0.69974600  0.89497192  1
  Sc  Sc88  1  0.10271979  0.09717674  0.50214861  1
  Sc  Sc89  1  0.90703702  0.09157759  0.29488609  1
  Sc  Sc90  1  0.29637689  0.49632589  0.49333117  1
  Sc  Sc91  1  0.70280231  0.88697569  0.90022063  1
  Sc  Sc92  1  0.50123947  0.70608848  0.89516563  1
  Sc  Sc93  1  0.70079600  0.69926483  0.48191628  1
  Sc  Sc94  1  0.09812130  0.08976985  0.90177278  1
  Sc  Sc95  1  0.89401949  0.90452465  0.09894804  1
  Sc  Sc96  1  0.30497495  0.50508103  0.90182801  1
  Sc  Sc97  1  0.30839409  0.90996666  0.69525328  1
  Sc  Sc98  1  0.09393065  0.49829926  0.49548706  1
  Sc  Sc99  1  0.70455822  0.30901463  0.30579788  1
  Nb  Nb100  1  0.90300721  0.90230347  0.89485496  1
  Nb  Nb101  1  0.69645261  0.69950821  0.89780644  1
  Nb  Nb102  1  0.89374098  0.30565744  0.30402437  1
  Nb  Nb103  1  0.89549016  0.10104212  0.09936233  1
  Nb  Nb104  1  0.30354237  0.90253828  0.50306360  1
  Nb  Nb105  1  0.89735868  0.70150382  0.69084874  1
  Nb  Nb106  1  0.30378059  0.29438619  0.29405910  1
  Nb  Nb107  1  0.69971569  0.29725744  0.70659752  1
  Nb  Nb108  1  0.10259831  0.49860041  0.69443611  1
  Nb  Nb109  1  0.50086343  0.30061961  0.69311354  1
  Nb  Nb110  1  0.49725967  0.29234183  0.10301514  1
  Nb  Nb111  1  0.90142254  0.70320505  0.50302597  1
  Nb  Nb112  1  0.70107329  0.29923638  0.89743198  1
  Nb  Nb113  1  0.10085495  0.89784608  0.89237695  1
  Nb  Nb114  1  0.49386973  0.90106897  0.50518706  1
  Nb  Nb115  1  0.50295985  0.50030206  0.90391776  1
  Nb  Nb116  1  0.89680020  0.49577349  0.90267584  1
  Nb  Nb117  1  0.09983186  0.09779263  0.30129325  1
  Nb  Nb118  1  0.49978560  0.90662112  0.10333282  1
  Nb  Nb119  1  0.89645377  0.49319472  0.29436248  1
  Nb  Nb120  1  0.29336382  0.10333179  0.30495046  1
  Nb  Nb121  1  0.30003048  0.08900343  0.50244373  1
  Nb  Nb122  1  0.29920086  0.30013711  0.10649803  1
  Nb  Nb123  1  0.09517498  0.29805212  0.50771669  1
  Nb  Nb124  1  0.69766282  0.69875512  0.29601122  1
  Nb  Nb125  1  0.19662739  0.39433713  0.00153513  1
  Nb  Nb126  1  -0.00544699  0.40205628  0.20085321  1
  Nb  Nb127  1  0.40014345  0.60096213  0.39563065  1
  Nb  Nb128  1  0.60668757  0.60346925  0.19601964  1
  Nb  Nb129  1  0.80321053  0.60265366  0.59921473  1
  Nb  Nb130  1  0.79690287  0.19538556  -0.00067944  1
  Nb  Nb131  1  0.00207960  0.40345463  -0.00182214  1
  Nb  Nb132  1  0.79759896  0.79461718  0.59913299  1
  Nb  Nb133  1  0.60228993  0.60262060  0.00028706  1
  Nb  Nb134  1  0.20381135  0.20108055  0.00354529  1
  Nb  Nb135  1  0.79964609  0.40054335  0.79849783  1
  Nb  Nb136  1  0.60279118  0.80132265  0.59928812  1
  Nb  Nb137  1  0.19520332  0.39863862  0.60164694  1
  Nb  Nb138  1  0.20166334  0.79984654  0.20318078  1
  Nb  Nb139  1  0.60249882  0.39758743  0.80154861  1
  Nb  Nb140  1  0.00428041  0.20151927  0.39610516  1
  Nb  Nb141  1  0.39601922  0.00150157  0.20668498  1
  Nb  Nb142  1  -0.00919790  0.80122112  0.40158038  1
  Nb  Nb143  1  0.60001325  -0.00093362  0.00430905  1
  Nb  Nb144  1  0.19832782  0.59807130  0.60342927  1
  Nb  Nb145  1  0.80043958  0.40536968  0.61018750  1
  Nb  Nb146  1  0.80351979  0.20042735  0.19638299  1
  Nb  Nb147  1  0.19612231  0.80448661  0.79538558  1
  Nb  Nb148  1  0.39520079  0.20528121  0.00868196  1
  Nb  Nb149  1  0.20139464  0.79805536  0.60236611  1
  Pd  Pd150  1  0.59800263  0.00050915  0.20401325  1
  Pd  Pd151  1  0.20363548  0.18709202  0.80537376  1
  Pd  Pd152  1  0.60298226  0.20538467  0.39943953  1
  Pd  Pd153  1  -0.00011552  0.79150620  0.80564123  1
  Pd  Pd154  1  0.59968234  0.39945259  0.20408068  1
  Pd  Pd155  1  0.19142395  0.40628293  0.19093259  1
  Pd  Pd156  1  0.39952950  0.19200514  0.40645110  1
  Pd  Pd157  1  0.40712693  0.00853104  0.39941145  1
  Pd  Pd158  1  0.00073943  0.40141234  0.80418649  1
  Pd  Pd159  1  0.00909039  0.39058548  0.38899992  1
  Pd  Pd160  1  0.39976148  0.40303262  0.19308855  1
  Pd  Pd161  1  0.20206767  0.60095239  0.40564953  1
  Pd  Pd162  1  -0.00040817  -0.00616732  0.00363059  1
  Pd  Pd163  1  0.80550327  0.38959959  -0.00132060  1
  Pd  Pd164  1  0.19737484  0.39110915  0.40614824  1
  Pd  Pd165  1  -0.00083453  0.18433122  0.79197983  1
  Pd  Pd166  1  0.41322944  0.39507062  0.80512347  1
  Pd  Pd167  1  0.20208982  -0.00969742  0.20042738  1
  Pd  Pd168  1  0.39017567  0.40297243  0.59431064  1
  Pd  Pd169  1  0.79174686  -0.00014506  -0.01001643  1
  Pd  Pd170  1  0.80115537  0.79629099  0.19991504  1
  Pd  Pd171  1  0.00680896  0.80572244  0.20936176  1
  Pd  Pd172  1  0.40550735  0.60088988  0.80607178  1
  Pd  Pd173  1  0.80378984  0.59179133  0.40966948  1
  Pd  Pd174  1  0.39424594  0.39613789  0.00315309  1
  Pd  Pd175  1  -0.00263026  0.19183807  0.59596316  1
  Pd  Pd176  1  0.39936973  0.40141165  0.40294543  1
  Pd  Pd177  1  0.61243477  0.61322936  0.59782856  1
  Pd  Pd178  1  0.59795955  0.00100470  0.40257652  1
  Pd  Pd179  1  0.79751741  0.60886267  0.00326359  1
  Pd  Pd180  1  0.59749199  0.80391929  0.40627931  1
  Pd  Pd181  1  0.79606147  0.00369967  0.39363308  1
  Pd  Pd182  1  0.40082080  0.79987102  -0.00294684  1
  Pd  Pd183  1  0.59483483  0.59937986  0.39538472  1
  Pd  Pd184  1  0.19618531  0.19715209  0.40611087  1
  Pd  Pd185  1  0.38916152  0.81347590  0.20062574  1
  Pd  Pd186  1  0.00054606  0.59519030  -0.01017611  1
  Pd  Pd187  1  0.19588794  0.60141572  0.20219490  1
  Pd  Pd188  1  0.40638484  0.20365913  0.80763074  1
  Pd  Pd189  1  0.20286949  0.19513124  0.19679826  1
  Pd  Pd190  1  -0.00694209  0.80444226  -0.00776039  1
  Pd  Pd191  1  0.39251455  0.80755673  0.80137246  1
  Pd  Pd192  1  0.59215049  0.80111138  0.00318511  1
  Pd  Pd193  1  -0.00168458  0.60848050  0.81032781  1
  Pd  Pd194  1  0.40671459  0.79721637  0.39828414  1
  Pd  Pd195  1  -0.00853997  0.20777557  0.21125145  1
  Pd  Pd196  1  0.19570761  0.61500368  0.79332961  1
  Pd  Pd197  1  0.39022940  0.58810484  0.59115723  1
  Pd  Pd198  1  -0.00057922  0.00629313  0.79239384  1
  Pd  Pd199  1  0.20395806  -0.00060965  0.79064851  1
  Rh  Rh200  1  0.00089682  0.59466461  0.59118025  1
  Rh  Rh201  1  0.79898602  -0.00551679  0.80440276  1
  Rh  Rh202  1  0.80554864  0.20226184  0.79876121  1
  Rh  Rh203  1  -0.00107730  0.59376609  0.20745966  1
  Rh  Rh204  1  -0.00621329  0.60401946  0.39632867  1
  Rh  Rh205  1  0.80936230  0.19348624  0.38770059  1
  Rh  Rh206  1  0.79326328  -0.01094759  0.60218449  1
  Rh  Rh207  1  -0.00281779  -0.00600248  0.19414928  1
  Rh  Rh208  1  0.00224045  0.40146923  0.60083023  1
  Rh  Rh209  1  0.41366309  0.01089607  0.01270462  1
  Rh  Rh210  1  0.60232223  0.79400053  0.19297400  1
  Rh  Rh211  1  0.20158130  0.59178516  -0.00174034  1
  Rh  Rh212  1  0.20659926  0.20328732  0.59222248  1
  Rh  Rh213  1  0.41035621  0.58974846  0.20420014  1
  Rh  Rh214  1  0.79881524  0.40563648  0.41214070  1
  Rh  Rh215  1  0.19795830  0.00737282  0.40604600  1
  Rh  Rh216  1  0.59930212  0.39356355  0.39691029  1
  Rh  Rh217  1  0.59889799  0.19131133  -0.00526219  1
  Rh  Rh218  1  0.00274371  0.00394620  0.40258965  1
  Rh  Rh219  1  0.60841178  0.39321360  0.60987852  1
  Rh  Rh220  1  0.60271008  0.20654004  0.60029937  1
  Rh  Rh221  1  0.59161497  0.59559020  0.81110675  1
  Rh  Rh222  1  0.80680700  0.38719959  0.19089050  1
  Rh  Rh223  1  0.61124591  0.21191741  0.21447876  1
  Rh  Rh224  1  0.79909339  0.21116014  0.60880598  1
  Rh  Rh225  1  0.41145156  0.60425454  -0.00322720  1
  Rh  Rh226  1  0.59669774  0.80673873  0.79641496  1
  Rh  Rh227  1  0.80725156  0.59366779  0.79587529  1
  Rh  Rh228  1  -0.00137749  0.00485968  0.60090014  1
  Rh  Rh229  1  -0.00007596  0.19821354  -0.00040083  1
  Rh  Rh230  1  0.60008721  -0.00837691  0.81267391  1
  Rh  Rh231  1  0.18522922  0.80228046  0.40122041  1
  Rh  Rh232  1  0.39880296  0.00239672  0.79535885  1
  Rh  Rh233  1  0.38775256  0.19136318  0.19925456  1
  Rh  Rh234  1  0.80933911  0.80155819  -0.00594220  1
  Rh  Rh235  1  0.19694631  0.39902980  0.79970556  1
  Rh  Rh236  1  0.18832447  0.00314033  0.00136084  1
  Rh  Rh237  1  0.59902187  0.40670964  -0.00506931  1
  Rh  Rh238  1  0.20484053  -0.00539563  0.59925286  1
  Rh  Rh239  1  0.80638194  0.80483108  0.79899307  1
  Rh  Rh240  1  0.80443565  0.80053099  0.40205948  1
  Rh  Rh241  1  0.79991996  0.00495244  0.20695871  1
  Rh  Rh242  1  -0.00028132  0.80492928  0.59047066  1
  Rh  Rh243  1  0.20130339  0.80251858  -0.00185146  1
  Rh  Rh244  1  0.58892159  0.21158448  0.79775553  1
  Rh  Rh245  1  0.40327780  0.80866897  0.60342020  1
  Rh  Rh246  1  0.79374689  0.61005949  0.19184359  1
  Rh  Rh247  1  0.60006211  -0.00917344  0.59514725  1
  Rh  Rh248  1  0.40502148  0.19639113  0.59315986  1
  Rh  Rh249  1  0.40586740  0.00554214  0.59777711  1
