# generated using pymatgen
data_ZrScNbPdRh
_symmetry_space_group_name_H-M   'P 1'
_cell_length_a   16.55048201
_cell_length_b   16.54671377
_cell_length_c   16.55044937
_cell_angle_alpha   89.98567169
_cell_angle_beta   89.98086310
_cell_angle_gamma   90.05277295
_symmetry_Int_Tables_number   1
_chemical_formula_structural   ZrScNbPdRh
_chemical_formula_sum   'Zr50 Sc50 Nb50 Pd50 Rh50'
_cell_volume   4532.43900955
_cell_formula_units_Z   50
loop_
 _symmetry_equiv_pos_site_id
 _symmetry_equiv_pos_as_xyz
  1  'x, y, z'
loop_
 _atom_site_type_symbol
 _atom_site_label
 _atom_site_symmetry_multiplicity
 _atom_site_fract_x
 _atom_site_fract_y
 _atom_site_fract_z
 _atom_site_occupancy
  Zr  Zr0  1  0.10171180  0.09987166  0.69395773  1
  Zr  Zr1  1  0.89415623  0.50310855  0.89937468  1
  Zr  Zr2  1  0.09658525  0.89513880  0.50060570  1
  Zr  Zr3  1  0.29842542  0.50004410  0.29640691  1
  Zr  Zr4  1  0.09049281  0.09888111  0.30149536  1
  Zr  Zr5  1  0.50125375  0.49842961  0.49505369  1
  Zr  Zr6  1  0.50172851  0.10751797  0.49771737  1
  Zr  Zr7  1  0.69890178  0.69723523  0.51271782  1
  Zr  Zr8  1  0.29828509  0.70139920  0.90408295  1
  Zr  Zr9  1  0.29553738  0.29599585  0.09611488  1
  Zr  Zr10  1  0.50051424  0.89753654  0.30091302  1
  Zr  Zr11  1  0.69337712  0.28302999  0.09727664  1
  Zr  Zr12  1  0.29459162  0.69237043  0.09926827  1
  Zr  Zr13  1  0.09969714  0.30184640  0.69828005  1
  Zr  Zr14  1  0.70463412  0.89819045  0.50474937  1
  Zr  Zr15  1  0.09892696  0.51036912  0.89496217  1
  Zr  Zr16  1  0.90237199  0.30267311  0.30164153  1
  Zr  Zr17  1  0.29673997  0.89619286  0.50491667  1
  Zr  Zr18  1  0.70131508  0.09486633  0.70978592  1
  Zr  Zr19  1  0.50279325  0.31095116  0.29985922  1
  Zr  Zr20  1  0.70398692  0.10607979  0.90581948  1
  Zr  Zr21  1  0.30496933  0.30481526  0.70812644  1
  Zr  Zr22  1  0.29551140  0.09708606  0.29334580  1
  Zr  Zr23  1  0.10620332  0.90192007  0.70885196  1
  Zr  Zr24  1  0.89839837  0.09802356  0.29629735  1
  Zr  Zr25  1  0.10146087  0.09319744  0.89906187  1
  Zr  Zr26  1  0.90154111  0.89019630  0.50367801  1
  Zr  Zr27  1  0.50305611  0.69719964  0.69879984  1
  Zr  Zr28  1  0.29807238  0.50536460  0.49604564  1
  Zr  Zr29  1  0.50260562  0.09171119  0.90005510  1
  Zr  Zr30  1  0.90159204  0.30088846  0.69201886  1
  Zr  Zr31  1  0.30108736  0.30689232  0.49660363  1
  Zr  Zr32  1  0.09156865  0.69586423  0.49618233  1
  Zr  Zr33  1  0.09547146  0.89258811  0.90294696  1
  Zr  Zr34  1  0.09605914  0.50558021  0.10285877  1
  Zr  Zr35  1  0.09989715  0.29729462  0.10300111  1
  Zr  Zr36  1  0.49531637  0.89835715  0.09726257  1
  Zr  Zr37  1  0.69839480  0.69653958  0.89356987  1
  Zr  Zr38  1  0.09735826  0.29363488  0.50448933  1
  Zr  Zr39  1  0.49726453  0.49783894  0.10318021  1
  Zr  Zr40  1  0.10126991  0.69626534  0.29298156  1
  Zr  Zr41  1  0.90114589  0.89388423  0.09656630  1
  Zr  Zr42  1  0.29685342  0.30354242  0.29870636  1
  Zr  Zr43  1  0.70183858  0.49955047  0.88709239  1
  Zr  Zr44  1  0.70270637  0.51040542  0.09496959  1
  Zr  Zr45  1  0.29515827  0.10354364  0.49653257  1
  Zr  Zr46  1  0.69383518  0.31599014  0.69704879  1
  Zr  Zr47  1  0.69798498  0.30009181  0.29826407  1
  Zr  Zr48  1  0.71098603  0.90160077  0.29746306  1
  Zr  Zr49  1  0.90547463  0.69597471  0.29822886  1
  Sc  Sc50  1  0.90076227  0.49200103  0.29603625  1
  Sc  Sc51  1  0.30184610  0.69874893  0.50778148  1
  Sc  Sc52  1  0.30703716  0.10562578  0.90329363  1
  Sc  Sc53  1  0.29646809  0.49975161  0.90316583  1
  Sc  Sc54  1  0.50070473  0.30066260  0.10009940  1
  Sc  Sc55  1  0.09769555  0.50017714  0.70189219  1
  Sc  Sc56  1  0.29148655  0.89769159  0.70083825  1
  Sc  Sc57  1  0.90321459  0.09710258  0.49809310  1
  Sc  Sc58  1  0.30265413  0.30390590  0.90496965  1
  Sc  Sc59  1  0.49953692  0.50499030  0.90387373  1
  Sc  Sc60  1  0.50336308  0.70265003  0.50040030  1
  Sc  Sc61  1  0.70357637  0.30041074  0.89661167  1
  Sc  Sc62  1  0.10331274  0.49928853  0.49985861  1
  Sc  Sc63  1  0.29694773  0.09382023  0.70460353  1
  Sc  Sc64  1  0.50363792  0.90150556  0.71626828  1
  Sc  Sc65  1  0.50730235  0.49508115  0.70298387  1
  Sc  Sc66  1  0.30460526  0.49779572  0.09634127  1
  Sc  Sc67  1  0.89741975  0.70198724  0.69526424  1
  Sc  Sc68  1  0.30190498  0.90331377  0.10778313  1
  Sc  Sc69  1  0.30435671  0.90527259  0.29746438  1
  Sc  Sc70  1  0.49426398  0.30226510  0.89708681  1
  Sc  Sc71  1  0.09437872  0.30044221  0.29777235  1
  Sc  Sc72  1  0.89066820  0.09635392  0.89878703  1
  Sc  Sc73  1  0.69421674  0.68881521  0.29862685  1
  Sc  Sc74  1  0.11185934  0.30965331  0.90079034  1
  Sc  Sc75  1  0.49451666  0.09941438  0.29953814  1
  Sc  Sc76  1  0.50091760  0.89180470  0.49466307  1
  Sc  Sc77  1  0.69164911  0.50034800  0.30033873  1
  Sc  Sc78  1  0.49526982  0.09956018  0.70933732  1
  Sc  Sc79  1  0.10152918  0.49815190  0.30375173  1
  Sc  Sc80  1  0.88645041  0.30036542  0.89488718  1
  Sc  Sc81  1  0.89455931  0.50715466  0.10365490  1
  Sc  Sc82  1  0.89650368  0.30454067  0.10885189  1
  Sc  Sc83  1  0.09793937  0.70378418  0.09863991  1
  Sc  Sc84  1  0.49888807  0.69193183  0.08746501  1
  Sc  Sc85  1  0.90158304  0.30822670  0.50081027  1
  Sc  Sc86  1  0.90904324  0.90249491  0.29777625  1
  Sc  Sc87  1  0.90170318  0.89851277  0.90002211  1
  Sc  Sc88  1  0.90901432  0.49608378  0.50593321  1
  Sc  Sc89  1  0.70896751  0.69720625  0.09761592  1
  Sc  Sc90  1  0.10406409  0.10633339  0.10941781  1
  Sc  Sc91  1  0.30441425  0.89344484  0.89908588  1
  Sc  Sc92  1  0.29950025  0.70696814  0.69631917  1
  Sc  Sc93  1  0.90006053  0.49641516  0.69912342  1
  Sc  Sc94  1  0.89222703  0.09881093  0.70477552  1
  Sc  Sc95  1  0.90092113  0.69707705  0.10143619  1
  Sc  Sc96  1  0.30357671  0.50348902  0.69344617  1
  Sc  Sc97  1  0.71062953  0.89556991  0.70472734  1
  Sc  Sc98  1  0.10036543  0.70132398  0.70510293  1
  Sc  Sc99  1  0.90748309  0.70323443  0.89869689  1
  Nb  Nb100  1  0.50885178  0.30179783  0.50470698  1
  Nb  Nb101  1  0.90359804  0.69891526  0.49814828  1
  Nb  Nb102  1  0.09834055  0.09757424  0.50418388  1
  Nb  Nb103  1  0.50503979  0.69559258  0.29971351  1
  Nb  Nb104  1  0.10413307  0.70205672  0.90119717  1
  Nb  Nb105  1  0.69765345  0.10157357  0.49959968  1
  Nb  Nb106  1  0.70006293  0.89752028  0.09922609  1
  Nb  Nb107  1  0.70185520  0.68672143  0.70192452  1
  Nb  Nb108  1  0.68795283  0.30126293  0.49906204  1
  Nb  Nb109  1  0.69285049  0.90163774  0.90167920  1
  Nb  Nb110  1  0.70238526  0.09959373  0.29568392  1
  Nb  Nb111  1  0.50027825  0.29998474  0.70002458  1
  Nb  Nb112  1  0.50280051  0.10102990  0.09879224  1
  Nb  Nb113  1  0.09878607  0.90065030  0.10450308  1
  Nb  Nb114  1  0.30018649  0.09990575  0.10135784  1
  Nb  Nb115  1  0.90211418  0.89909322  0.70051499  1
  Nb  Nb116  1  0.69503028  0.10182406  0.10002297  1
  Nb  Nb117  1  0.70097967  0.50973738  0.70023913  1
  Nb  Nb118  1  0.09896032  0.90063774  0.29571458  1
  Nb  Nb119  1  0.50364784  0.88920936  0.90315953  1
  Nb  Nb120  1  0.29643261  0.69560137  0.29878121  1
  Nb  Nb121  1  0.89568142  0.10553879  0.09337143  1
  Nb  Nb122  1  0.49280384  0.71248010  0.89607053  1
  Nb  Nb123  1  0.70060741  0.49355223  0.50615069  1
  Nb  Nb124  1  0.50438629  0.50839818  0.29517794  1
  Nb  Nb125  1  0.40392459  0.60216788  0.38979713  1
  Nb  Nb126  1  -0.00213738  0.40044204  -0.00127929  1
  Nb  Nb127  1  0.19650087  0.80055065  0.39374081  1
  Nb  Nb128  1  0.80484003  0.78922413  0.40394365  1
  Nb  Nb129  1  0.40314570  0.60906513  0.80162385  1
  Nb  Nb130  1  0.59931769  0.00301548  0.59707881  1
  Nb  Nb131  1  0.19911435  -0.00011004  0.00694572  1
  Nb  Nb132  1  0.40464828  0.78780839  0.20564167  1
  Nb  Nb133  1  0.60669540  0.00086521  0.19643479  1
  Nb  Nb134  1  0.59862893  0.80118048  0.19721664  1
  Nb  Nb135  1  0.00119213  -0.00429116  0.60243913  1
  Nb  Nb136  1  0.39760704  0.19792712  0.19493840  1
  Nb  Nb137  1  0.19651794  0.20069156  0.80002189  1
  Nb  Nb138  1  0.80059083  0.59918651  0.40933225  1
  Nb  Nb139  1  0.60964440  0.00409180  0.39875593  1
  Nb  Nb140  1  0.78751879  0.20315070  0.59158705  1
  Nb  Nb141  1  0.00390070  0.20167189  0.80325617  1
  Nb  Nb142  1  0.60489568  0.40143993  -0.00012415  1
  Nb  Nb143  1  -0.00135130  0.20419077  -0.00414553  1
  Nb  Nb144  1  0.79004335  0.19916492  0.40256302  1
  Nb  Nb145  1  0.19060632  -0.00281353  0.39963755  1
  Nb  Nb146  1  0.40530841  0.20565922  0.60043611  1
  Nb  Nb147  1  0.60285565  -0.00405209  0.00328166  1
  Nb  Nb148  1  0.59812626  0.20320949  0.79758089  1
  Nb  Nb149  1  0.40447424  0.00341857  0.59744109  1
  Pd  Pd150  1  0.19844931  0.40403133  0.60141732  1
  Pd  Pd151  1  0.80137971  0.79876878  0.80263437  1
  Pd  Pd152  1  0.79054964  0.40395013  0.19516876  1
  Pd  Pd153  1  0.80295373  0.00173286  0.18761562  1
  Pd  Pd154  1  0.40869213  0.81126324  0.60937985  1
  Pd  Pd155  1  0.39756428  -0.00388327  -0.00104688  1
  Pd  Pd156  1  -0.00549690  0.58751834  0.39681621  1
  Pd  Pd157  1  0.79854249  0.39545539  0.00693888  1
  Pd  Pd158  1  0.80238222  0.00526749  0.60046753  1
  Pd  Pd159  1  0.20689862  0.80452286  0.20329041  1
  Pd  Pd160  1  0.39827309  -0.00259379  0.40642051  1
  Pd  Pd161  1  0.60819080  0.79704674  0.79314930  1
  Pd  Pd162  1  0.60079610  0.19655723  0.38963227  1
  Pd  Pd163  1  0.40095238  0.60287456  0.19994476  1
  Pd  Pd164  1  0.21325826  0.20314574  0.60742084  1
  Pd  Pd165  1  0.60750479  0.40328936  0.19095054  1
  Pd  Pd166  1  0.39387108  -0.00835377  0.79894072  1
  Pd  Pd167  1  0.59389734  0.59329588  0.59849084  1
  Pd  Pd168  1  0.40247898  0.20782855  0.39710797  1
  Pd  Pd169  1  -0.00856736  0.00420007  0.79547829  1
  Pd  Pd170  1  0.19263709  0.19822802  0.39379716  1
  Pd  Pd171  1  0.80392748  0.20035016  0.20269694  1
  Pd  Pd172  1  0.19517865  0.60440794  0.60321160  1
  Pd  Pd173  1  0.60028555  0.80937352  0.61257666  1
  Pd  Pd174  1  0.19731438  0.40359420  0.19800759  1
  Pd  Pd175  1  0.60354107  0.79694846  0.00547370  1
  Pd  Pd176  1  -0.00303450  0.60061536  0.00103484  1
  Pd  Pd177  1  0.20317739  0.80877069  0.00565623  1
  Pd  Pd178  1  0.40193921  0.41309940  0.80500253  1
  Pd  Pd179  1  0.20984653  0.60131435  0.79404363  1
  Pd  Pd180  1  -0.00611689  0.60667841  0.79290245  1
  Pd  Pd181  1  0.40501367  0.40007076  0.59903694  1
  Pd  Pd182  1  0.79645691  0.40204062  0.40531870  1
  Pd  Pd183  1  0.00434059  0.80001231  0.61205187  1
  Pd  Pd184  1  0.80999254  0.59381573  0.59713030  1
  Pd  Pd185  1  0.79852626  0.79147701  0.20613409  1
  Pd  Pd186  1  0.40703644  0.20241735  0.00345965  1
  Pd  Pd187  1  0.80168188  0.79581415  -0.00760480  1
  Pd  Pd188  1  0.00468594  0.00735455  0.00901945  1
  Pd  Pd189  1  0.59874039  0.19286651  0.61225871  1
  Pd  Pd190  1  -0.00287052  0.00296469  0.18867137  1
  Pd  Pd191  1  0.40322186  0.40640135  0.39645130  1
  Pd  Pd192  1  0.80317349  -0.00022877  0.40379440  1
  Pd  Pd193  1  0.19444807  0.40963915  0.00249996  1
  Pd  Pd194  1  0.39061500  0.78964299  0.39632259  1
  Pd  Pd195  1  0.79540705  -0.00422811  0.00076558  1
  Pd  Pd196  1  0.61285421  0.80048661  0.39302643  1
  Pd  Pd197  1  -0.00846660  0.20238619  0.40622226  1
  Pd  Pd198  1  -0.00314271  0.39409852  0.80856102  1
  Pd  Pd199  1  0.59992850  0.59993447  -0.00720044  1
  Rh  Rh200  1  0.39765207  0.39333697  0.19831562  1
  Rh  Rh201  1  0.19275064  0.39468702  0.40190013  1
  Rh  Rh202  1  0.39325472  0.79850865  0.00907679  1
  Rh  Rh203  1  0.80702665  0.60445069  0.79663947  1
  Rh  Rh204  1  0.19501631  0.18920586  -0.00744621  1
  Rh  Rh205  1  0.19262273  0.79230836  0.59415169  1
  Rh  Rh206  1  0.20599461  0.60788613  0.40295431  1
  Rh  Rh207  1  0.80029565  0.40358365  0.79069374  1
  Rh  Rh208  1  0.39766636  0.60035874  -0.00966602  1
  Rh  Rh209  1  0.19630834  0.59842701  0.00063804  1
  Rh  Rh210  1  -0.00059130  0.80042482  0.19712240  1
  Rh  Rh211  1  -0.01403749  0.18857000  0.60413772  1
  Rh  Rh212  1  0.00046641  0.79938436  0.38869945  1
  Rh  Rh213  1  0.00101640  0.59948048  0.60347173  1
  Rh  Rh214  1  0.21085969  0.00180963  0.81765211  1
  Rh  Rh215  1  0.59159375  0.60392312  0.80351666  1
  Rh  Rh216  1  0.39638668  0.79837440  0.79502642  1
  Rh  Rh217  1  0.59738198  0.40792936  0.59967869  1
  Rh  Rh218  1  0.39841023  0.20266642  0.79628560  1
  Rh  Rh219  1  0.60481589  0.00004696  0.80607832  1
  Rh  Rh220  1  0.20433344  0.20155864  0.20573756  1
  Rh  Rh221  1  0.19748980  0.59405021  0.19616924  1
  Rh  Rh222  1  0.00638996  0.39935032  0.40201868  1
  Rh  Rh223  1  0.19851711  0.79770633  0.80426623  1
  Rh  Rh224  1  0.00070209  0.79790224  0.79895385  1
  Rh  Rh225  1  0.59741325  0.39554113  0.80857459  1
  Rh  Rh226  1  0.19448867  -0.00170910  0.19896219  1
  Rh  Rh227  1  0.40446077  0.59849621  0.60046377  1
  Rh  Rh228  1  -0.00043272  0.59707211  0.20140393  1
  Rh  Rh229  1  0.20446998  0.40134411  0.79730041  1
  Rh  Rh230  1  0.59310782  0.20139030  -0.01314055  1
  Rh  Rh231  1  0.60163333  0.59581190  0.40749144  1
  Rh  Rh232  1  0.79713448  0.21062896  0.78524719  1
  Rh  Rh233  1  0.60029362  0.60677606  0.19019060  1
  Rh  Rh234  1  0.40686764  0.40078963  0.00109771  1
  Rh  Rh235  1  0.80732418  0.20495982  0.00462066  1
  Rh  Rh236  1  0.20067453  -0.00098233  0.59068110  1
  Rh  Rh237  1  0.00264157  -0.00305873  0.40708280  1
  Rh  Rh238  1  0.58843961  0.19330125  0.20607684  1
  Rh  Rh239  1  0.79875584  0.59712753  0.21197501  1
  Rh  Rh240  1  0.00141333  0.79621603  0.00239018  1
  Rh  Rh241  1  0.40737418  0.00549453  0.19613147  1
  Rh  Rh242  1  0.60114460  0.40683655  0.39934799  1
  Rh  Rh243  1  0.80033446  -0.01250466  0.80854994  1
  Rh  Rh244  1  0.80042238  0.79344957  0.60275701  1
  Rh  Rh245  1  0.79503956  0.39962366  0.59753308  1
  Rh  Rh246  1  0.80344544  0.60825969  -0.00910337  1
  Rh  Rh247  1  0.00917928  0.40421906  0.59770428  1
  Rh  Rh248  1  0.00120683  0.40320799  0.19521143  1
  Rh  Rh249  1  -0.00819695  0.19763976  0.19235430  1
