# generated using pymatgen
data_ZrScNbPdRh
_symmetry_space_group_name_H-M   'P 1'
_cell_length_a   16.55674853
_cell_length_b   16.55986571
_cell_length_c   16.55936109
_cell_angle_alpha   89.96109667
_cell_angle_beta   90.01445798
_cell_angle_gamma   89.98374566
_symmetry_Int_Tables_number   1
_chemical_formula_structural   ZrScNbPdRh
_chemical_formula_sum   'Zr50 Sc50 Nb50 Pd50 Rh50'
_cell_volume   4540.20338609
_cell_formula_units_Z   50
loop_
 _symmetry_equiv_pos_site_id
 _symmetry_equiv_pos_as_xyz
  1  'x, y, z'
loop_
 _atom_site_type_symbol
 _atom_site_label
 _atom_site_symmetry_multiplicity
 _atom_site_fract_x
 _atom_site_fract_y
 _atom_site_fract_z
 _atom_site_occupancy
  Zr  Zr0  1  0.89957016  0.49765606  0.50491647  1
  Zr  Zr1  1  0.29745633  0.89818033  0.90965345  1
  Zr  Zr2  1  0.70816732  0.89827837  0.90074258  1
  Zr  Zr3  1  0.90226537  0.90283412  0.09271256  1
  Zr  Zr4  1  0.49253153  0.49931588  0.29697673  1
  Zr  Zr5  1  0.90396397  0.09254987  0.10621660  1
  Zr  Zr6  1  0.49503990  0.48892443  0.10615656  1
  Zr  Zr7  1  0.30041805  0.10374429  0.90448412  1
  Zr  Zr8  1  0.29982767  0.49836686  0.49749157  1
  Zr  Zr9  1  0.90088600  0.30422403  0.49590418  1
  Zr  Zr10  1  0.50356989  0.30253331  0.70192099  1
  Zr  Zr11  1  0.69909201  0.50223459  0.49752370  1
  Zr  Zr12  1  0.49598832  0.10546351  0.29549121  1
  Zr  Zr13  1  0.89079782  0.09897906  0.69991370  1
  Zr  Zr14  1  0.49953068  0.70074658  0.88788749  1
  Zr  Zr15  1  0.50216015  0.70701249  0.10420083  1
  Zr  Zr16  1  0.50353627  0.30350973  0.50578273  1
  Zr  Zr17  1  0.50152911  0.90083441  0.10176374  1
  Zr  Zr18  1  0.50677165  0.49475600  0.69586119  1
  Zr  Zr19  1  0.30356541  0.30291790  0.08771922  1
  Zr  Zr20  1  0.30192657  0.09681199  0.10066726  1
  Zr  Zr21  1  0.30475862  0.49810541  0.10787968  1
  Zr  Zr22  1  0.70482395  0.89931310  0.49898620  1
  Zr  Zr23  1  0.50106239  0.69134238  0.50194692  1
  Zr  Zr24  1  0.69905994  0.89885457  0.29688787  1
  Zr  Zr25  1  0.91021152  0.29267602  0.30494242  1
  Zr  Zr26  1  0.29738468  0.69875047  0.89475296  1
  Zr  Zr27  1  0.49782787  0.90430615  0.50880022  1
  Zr  Zr28  1  0.50547975  0.10245674  0.50064955  1
  Zr  Zr29  1  0.69763065  0.49651802  0.30004914  1
  Zr  Zr30  1  0.90145875  0.89418847  0.50749064  1
  Zr  Zr31  1  0.49906038  0.10271669  0.10499812  1
  Zr  Zr32  1  0.70761221  0.69871460  0.49993126  1
  Zr  Zr33  1  0.50645420  0.09813505  0.89041200  1
  Zr  Zr34  1  0.29861354  0.09862254  0.70654431  1
  Zr  Zr35  1  0.70108058  0.69722987  0.89737355  1
  Zr  Zr36  1  0.71641330  0.49890999  0.09807510  1
  Zr  Zr37  1  0.69289411  0.10723076  0.50502474  1
  Zr  Zr38  1  0.69857263  0.29617267  0.10034488  1
  Zr  Zr39  1  0.09823858  0.90128014  0.69408147  1
  Zr  Zr40  1  0.70535552  0.50138885  0.89434439  1
  Zr  Zr41  1  0.28767807  0.10007379  0.29367884  1
  Zr  Zr42  1  0.71019524  0.69401788  0.30629175  1
  Zr  Zr43  1  0.70788273  0.10384770  0.89419937  1
  Zr  Zr44  1  0.08724020  0.30944833  0.70537436  1
  Zr  Zr45  1  0.89313731  0.70155578  0.49167656  1
  Zr  Zr46  1  0.70600040  0.30055769  0.89924295  1
  Zr  Zr47  1  0.09767032  0.69885859  0.10037075  1
  Zr  Zr48  1  0.08768720  0.70668927  0.48671271  1
  Zr  Zr49  1  0.49952427  0.29673987  0.10716143  1
  Sc  Sc50  1  0.29791411  0.70855120  0.10594943  1
  Sc  Sc51  1  0.10908656  0.89459969  0.09550152  1
  Sc  Sc52  1  0.30285868  0.48989831  0.90823287  1
  Sc  Sc53  1  0.29838157  0.69881417  0.29371749  1
  Sc  Sc54  1  0.90783839  0.50171661  0.10085636  1
  Sc  Sc55  1  0.50621565  0.29973157  0.29090207  1
  Sc  Sc56  1  0.89409247  0.91369535  0.29408633  1
  Sc  Sc57  1  0.09655550  0.49242283  0.50399154  1
  Sc  Sc58  1  0.90227402  0.69000782  0.09435590  1
  Sc  Sc59  1  0.29000612  0.09442237  0.50245133  1
  Sc  Sc60  1  0.89851276  0.50474879  0.90131282  1
  Sc  Sc61  1  0.50421394  0.50233871  0.49814988  1
  Sc  Sc62  1  0.28331049  0.29240803  0.30169323  1
  Sc  Sc63  1  0.29263001  0.50423640  0.69588308  1
  Sc  Sc64  1  0.49713051  0.90268501  0.70635783  1
  Sc  Sc65  1  0.09897279  0.89962509  0.49707361  1
  Sc  Sc66  1  0.89330354  0.31175308  0.69965178  1
  Sc  Sc67  1  0.30436959  0.69656246  0.70306428  1
  Sc  Sc68  1  0.89059436  0.10655190  0.49368411  1
  Sc  Sc69  1  0.30747681  0.69112274  0.50207286  1
  Sc  Sc70  1  0.30773789  0.30857092  0.70218777  1
  Sc  Sc71  1  0.90468299  0.69992221  0.90017381  1
  Sc  Sc72  1  0.50587963  0.10000724  0.70244001  1
  Sc  Sc73  1  0.89870769  0.49935180  0.29151708  1
  Sc  Sc74  1  0.09882807  0.10105220  0.10043851  1
  Sc  Sc75  1  0.50340093  0.90239164  0.28802262  1
  Sc  Sc76  1  0.90323205  0.69865178  0.69764550  1
  Sc  Sc77  1  0.10198388  0.09590489  0.50157639  1
  Sc  Sc78  1  0.09828336  0.69866869  0.90078935  1
  Sc  Sc79  1  0.90236423  0.49972506  0.70455906  1
  Sc  Sc80  1  0.10528080  0.69416018  0.71008220  1
  Sc  Sc81  1  0.70122079  0.30061210  0.49764428  1
  Sc  Sc82  1  0.49822716  0.69657254  0.29982279  1
  Sc  Sc83  1  0.09570073  0.30239122  0.09183224  1
  Sc  Sc84  1  0.71259743  0.90417960  0.70380663  1
  Sc  Sc85  1  0.30068694  0.90420889  0.70219428  1
  Sc  Sc86  1  0.89884331  0.30842033  0.10115354  1
  Sc  Sc87  1  0.70486411  0.69519369  0.70568194  1
  Sc  Sc88  1  0.70355098  0.70430139  0.09628740  1
  Sc  Sc89  1  0.10082608  0.88880783  0.90320228  1
  Sc  Sc90  1  0.90765851  0.30067414  0.89711149  1
  Sc  Sc91  1  0.50193386  0.89466086  0.89877751  1
  Sc  Sc92  1  0.09889333  0.09223571  0.70061286  1
  Sc  Sc93  1  0.09408302  0.50679550  0.70380029  1
  Sc  Sc94  1  0.08760719  0.50042607  0.29231794  1
  Sc  Sc95  1  0.49210850  0.29880185  0.89451726  1
  Sc  Sc96  1  0.28601591  0.30569321  0.49780195  1
  Sc  Sc97  1  0.50438423  0.49645858  0.88883688  1
  Sc  Sc98  1  0.70518231  0.49408851  0.70399202  1
  Sc  Sc99  1  0.69998720  0.09636505  0.30978865  1
  Nb  Nb100  1  0.29745604  0.89957015  0.49833058  1
  Nb  Nb101  1  0.50062326  0.70111778  0.70241313  1
  Nb  Nb102  1  0.09213586  0.11297306  0.90039348  1
  Nb  Nb103  1  0.90286362  0.90288138  0.70174970  1
  Nb  Nb104  1  0.89999605  0.90298067  0.89672482  1
  Nb  Nb105  1  0.30018947  0.50143416  0.29734168  1
  Nb  Nb106  1  0.30033928  0.90456379  0.10547837  1
  Nb  Nb107  1  0.69747452  0.29931820  0.69961040  1
  Nb  Nb108  1  0.09934899  0.49988620  0.09765754  1
  Nb  Nb109  1  0.90518859  0.09295170  0.90312351  1
  Nb  Nb110  1  0.90529408  0.10421405  0.29458105  1
  Nb  Nb111  1  0.70095923  0.90087733  0.10338395  1
  Nb  Nb112  1  0.29345619  0.29696900  0.90220932  1
  Nb  Nb113  1  0.69694261  0.10890766  0.70592221  1
  Nb  Nb114  1  0.29174348  0.90135764  0.30046668  1
  Nb  Nb115  1  0.70191912  0.10355360  0.09630159  1
  Nb  Nb116  1  0.90460777  0.70047399  0.30046039  1
  Nb  Nb117  1  0.09458546  0.70612836  0.29935281  1
  Nb  Nb118  1  0.09126801  0.11325624  0.29737819  1
  Nb  Nb119  1  0.10494191  0.89037694  0.30678935  1
  Nb  Nb120  1  0.10034010  0.49970380  0.90368587  1
  Nb  Nb121  1  0.09523482  0.29835878  0.49460137  1
  Nb  Nb122  1  0.10222660  0.29998644  0.90286288  1
  Nb  Nb123  1  0.09473166  0.29338723  0.30566117  1
  Nb  Nb124  1  0.70067498  0.29576990  0.29867572  1
  Nb  Nb125  1  0.19531403  0.20582072  0.80355616  1
  Nb  Nb126  1  0.20260096  0.59414827  0.00461669  1
  Nb  Nb127  1  0.59603324  0.59567884  0.00265730  1
  Nb  Nb128  1  0.80065287  0.19441118  0.20272436  1
  Nb  Nb129  1  0.39872954  0.80940314  0.40197189  1
  Nb  Nb130  1  0.19460181  0.40225483  0.19790091  1
  Nb  Nb131  1  0.39492017  0.39626853  0.39624338  1
  Nb  Nb132  1  0.59903282  0.79610194  0.60091198  1
  Nb  Nb133  1  0.00193488  0.20473242  0.59859590  1
  Nb  Nb134  1  0.40384735  0.60136374  0.00200181  1
  Nb  Nb135  1  0.19470809  0.39531925  0.80986085  1
  Nb  Nb136  1  -0.00648531  -0.00160462  0.80593525  1
  Nb  Nb137  1  0.80513656  0.80126017  0.19826416  1
  Nb  Nb138  1  0.19436503  0.59956749  0.39321000  1
  Nb  Nb139  1  0.39649970  0.19933698  0.40421097  1
  Nb  Nb140  1  -0.00154477  0.79969993  0.20568476  1
  Nb  Nb141  1  0.19478700  0.20660839  0.60781307  1
  Nb  Nb142  1  0.60821611  0.00166195  0.00467593  1
  Nb  Nb143  1  0.20308916  0.79941736  0.59385771  1
  Nb  Nb144  1  0.00196205  0.00501952  0.39049093  1
  Nb  Nb145  1  0.60306618  0.59591334  0.19435461  1
  Nb  Nb146  1  0.39528970  0.20132134  0.59662633  1
  Nb  Nb147  1  0.60236728  0.40093885  0.00161894  1
  Nb  Nb148  1  0.59642838  0.79920668  0.40611271  1
  Nb  Nb149  1  0.39325597  -0.00207759  0.39638543  1
  Pd  Pd150  1  -0.00517931  0.00972702  0.59455609  1
  Pd  Pd151  1  0.80911103  0.79477846  0.79602069  1
  Pd  Pd152  1  0.39515870  0.00895802  0.59828537  1
  Pd  Pd153  1  0.19492230  0.39684574  0.60988628  1
  Pd  Pd154  1  0.79618566  0.00286991  0.00015259  1
  Pd  Pd155  1  0.19311854  0.59622987  0.20230630  1
  Pd  Pd156  1  0.60728727  0.00920923  0.19619505  1
  Pd  Pd157  1  0.39509374  0.80593186  0.20861910  1
  Pd  Pd158  1  0.40786569  0.19832182  -0.00312601  1
  Pd  Pd159  1  0.80358664  0.39050345  0.20684056  1
  Pd  Pd160  1  0.00343165  0.60543464  0.60068518  1
  Pd  Pd161  1  0.20316132  0.80298961  0.79114726  1
  Pd  Pd162  1  0.19275789  0.00452669  0.39709541  1
  Pd  Pd163  1  0.60517938  0.80578365  0.78985255  1
  Pd  Pd164  1  0.18937576  -0.00320402  0.20067007  1
  Pd  Pd165  1  0.80745657  0.79484140  0.00354578  1
  Pd  Pd166  1  -0.00128978  0.80235989  0.79935550  1
  Pd  Pd167  1  0.59070158  -0.00631932  0.39663053  1
  Pd  Pd168  1  0.39235536  0.40528284  0.80099649  1
  Pd  Pd169  1  0.60251079  0.80178273  -0.00280778  1
  Pd  Pd170  1  0.59328515  0.39545050  0.39730526  1
  Pd  Pd171  1  -0.00648747  0.40377724  -0.00406462  1
  Pd  Pd172  1  -0.00755015  0.20255968  0.00696565  1
  Pd  Pd173  1  0.60871662  -0.00539136  0.61404498  1
  Pd  Pd174  1  0.00622355  0.79105203  0.60584848  1
  Pd  Pd175  1  0.19346260  0.40858306  0.38754704  1
  Pd  Pd176  1  0.39983716  -0.00544381  0.80728153  1
  Pd  Pd177  1  0.39681737  0.79576054  0.00096463  1
  Pd  Pd178  1  0.18834842  0.00325135  0.81248376  1
  Pd  Pd179  1  0.79488130  0.00414678  0.59845893  1
  Pd  Pd180  1  -0.00282775  0.19466999  0.79119348  1
  Pd  Pd181  1  0.60613391  0.60272432  0.60990886  1
  Pd  Pd182  1  0.80149454  0.59605314  0.60657483  1
  Pd  Pd183  1  0.40254502  0.59233082  0.60672435  1
  Pd  Pd184  1  0.59342556  0.20150058  -0.00682693  1
  Pd  Pd185  1  0.01253293  -0.00442231  -0.00646316  1
  Pd  Pd186  1  0.21189694  0.78714465  0.40557657  1
  Pd  Pd187  1  0.19144698  0.00524475  -0.00481939  1
  Pd  Pd188  1  0.80994490  0.20631645  0.79975017  1
  Pd  Pd189  1  0.01523689  -0.01050719  0.20626773  1
  Pd  Pd190  1  0.80622044  0.00272430  0.40182719  1
  Pd  Pd191  1  -0.00120181  0.59045873  0.39766077  1
  Pd  Pd192  1  0.81423656  0.20009146  0.00557296  1
  Pd  Pd193  1  0.39858251  0.79739800  0.60176949  1
  Pd  Pd194  1  0.39632525  0.58912622  0.80029490  1
  Pd  Pd195  1  0.18848697  0.61028251  0.58797967  1
  Pd  Pd196  1  0.80329032  0.40135755  0.39530390  1
  Pd  Pd197  1  0.80210186  0.20845144  0.59997380  1
  Pd  Pd198  1  0.19505275  0.20988528  0.18522072  1
  Pd  Pd199  1  0.41057398  -0.00114333  -0.00262559  1
  Rh  Rh200  1  0.79517997  0.20068727  0.39260597  1
  Rh  Rh201  1  0.61150973  0.40473862  0.19364500  1
  Rh  Rh202  1  0.59808307  0.60346219  0.38934834  1
  Rh  Rh203  1  0.61455364  0.78721622  0.20898275  1
  Rh  Rh204  1  0.80158451  0.39783424  0.80130936  1
  Rh  Rh205  1  -0.00056330  0.59980688  0.80397162  1
  Rh  Rh206  1  0.00779761  0.59832957  -0.00249173  1
  Rh  Rh207  1  0.80252428  0.39964315  -0.00564224  1
  Rh  Rh208  1  0.19657320  0.40548638  0.00235583  1
  Rh  Rh209  1  0.61345957  0.19218396  0.20649910  1
  Rh  Rh210  1  0.39072155  0.59663975  0.39518892  1
  Rh  Rh211  1  0.20193613  -0.00746162  0.60066263  1
  Rh  Rh212  1  0.39501375  0.80469240  0.79794945  1
  Rh  Rh213  1  -0.00326123  0.80021885  0.00417836  1
  Rh  Rh214  1  0.80449271  0.00260490  0.80059459  1
  Rh  Rh215  1  0.80243205  0.80830278  0.39121871  1
  Rh  Rh216  1  0.79226826  0.00437376  0.19752682  1
  Rh  Rh217  1  0.19569885  0.80544309  0.19984845  1
  Rh  Rh218  1  0.00400249  0.19037376  0.41156334  1
  Rh  Rh219  1  0.19702297  0.19445847  0.40982547  1
  Rh  Rh220  1  0.00793970  0.39224916  0.20095029  1
  Rh  Rh221  1  -0.00373954  0.20709028  0.18959068  1
  Rh  Rh222  1  0.79831112  0.79888306  0.60790827  1
  Rh  Rh223  1  0.38862888  0.20311795  0.20524120  1
  Rh  Rh224  1  0.39302640  -0.00436732  0.20509181  1
  Rh  Rh225  1  0.39299325  0.20137815  0.79297861  1
  Rh  Rh226  1  0.19732420  0.19415764  0.00005818  1
  Rh  Rh227  1  0.79481507  0.40125345  0.59921827  1
  Rh  Rh228  1  -0.00161545  0.39796258  0.59739437  1
  Rh  Rh229  1  0.38155474  0.38264149  0.21438007  1
  Rh  Rh230  1  0.39738010  0.39985671  0.59018564  1
  Rh  Rh231  1  0.00241755  0.40937204  0.80873864  1
  Rh  Rh232  1  0.00098027  0.40522502  0.39735262  1
  Rh  Rh233  1  0.80772325  0.60252326  0.79933132  1
  Rh  Rh234  1  0.20720418  0.79242750  0.00269781  1
  Rh  Rh235  1  0.60594021  0.39386106  0.80458342  1
  Rh  Rh236  1  0.60164191  0.20596728  0.79955709  1
  Rh  Rh237  1  0.81139183  0.58815993  0.39794277  1
  Rh  Rh238  1  0.40614509  0.60668206  0.19537570  1
  Rh  Rh239  1  0.79767186  0.60302520  -0.00417354  1
  Rh  Rh240  1  -0.00171076  0.60653402  0.19885792  1
  Rh  Rh241  1  0.80044382  0.60736945  0.19862988  1
  Rh  Rh242  1  0.59830155  0.20362133  0.60749389  1
  Rh  Rh243  1  0.59600288  0.20555036  0.39533708  1
  Rh  Rh244  1  0.20357060  0.58739922  0.81290604  1
  Rh  Rh245  1  -0.01483594  0.81601833  0.38940389  1
  Rh  Rh246  1  0.59988143  0.59812024  0.79815942  1
  Rh  Rh247  1  0.60988539  0.40116406  0.59939947  1
  Rh  Rh248  1  0.41117222  0.40054451  -0.00778604  1
  Rh  Rh249  1  0.60925573  -0.00364113  0.80419590  1
