# generated using pymatgen
data_ZrScNbPdRh
_symmetry_space_group_name_H-M   'P 1'
_cell_length_a   16.56125692
_cell_length_b   16.56132638
_cell_length_c   16.56051908
_cell_angle_alpha   89.99578363
_cell_angle_beta   89.99164053
_cell_angle_gamma   90.01820331
_symmetry_Int_Tables_number   1
_chemical_formula_structural   ZrScNbPdRh
_chemical_formula_sum   'Zr50 Sc50 Nb50 Pd50 Rh50'
_cell_volume   4542.15895418
_cell_formula_units_Z   50
loop_
 _symmetry_equiv_pos_site_id
 _symmetry_equiv_pos_as_xyz
  1  'x, y, z'
loop_
 _atom_site_type_symbol
 _atom_site_label
 _atom_site_symmetry_multiplicity
 _atom_site_fract_x
 _atom_site_fract_y
 _atom_site_fract_z
 _atom_site_occupancy
  Zr  Zr0  1  0.90448957  0.49730672  0.30024015  1
  Zr  Zr1  1  0.09677586  0.90523874  0.49655664  1
  Zr  Zr2  1  0.09695322  0.69383835  0.09899299  1
  Zr  Zr3  1  0.30799847  0.70959155  0.69182926  1
  Zr  Zr4  1  0.49839296  0.10068109  0.09433261  1
  Zr  Zr5  1  0.30301452  0.29945225  0.49923851  1
  Zr  Zr6  1  0.30763942  0.49330942  0.10665907  1
  Zr  Zr7  1  0.10700818  0.09647912  0.09668368  1
  Zr  Zr8  1  0.70968251  0.30285757  0.29909340  1
  Zr  Zr9  1  0.10434440  0.70285708  0.49475875  1
  Zr  Zr10  1  0.69701430  0.71027455  0.50195593  1
  Zr  Zr11  1  0.30719743  0.69518821  0.30971400  1
  Zr  Zr12  1  0.69372075  0.70064370  0.30509828  1
  Zr  Zr13  1  0.10332670  0.29513239  0.29876538  1
  Zr  Zr14  1  0.49963376  0.51736809  0.30290493  1
  Zr  Zr15  1  0.49559661  0.30274773  0.10301229  1
  Zr  Zr16  1  0.89599577  0.89810453  0.10075064  1
  Zr  Zr17  1  0.50322327  0.09855220  0.48440436  1
  Zr  Zr18  1  0.29873019  0.90388630  0.09253280  1
  Zr  Zr19  1  0.30953660  0.49981276  0.89972593  1
  Zr  Zr20  1  0.10191772  0.91152136  0.29463308  1
  Zr  Zr21  1  0.29593064  0.89123312  0.50513075  1
  Zr  Zr22  1  0.30530866  0.29910163  0.70203946  1
  Zr  Zr23  1  0.90625677  0.10712312  0.30377198  1
  Zr  Zr24  1  0.50315743  0.27905105  0.30549215  1
  Zr  Zr25  1  0.10160323  0.28168912  0.90008250  1
  Zr  Zr26  1  0.49605534  0.89833216  0.70177031  1
  Zr  Zr27  1  0.69052923  0.89189856  0.69801755  1
  Zr  Zr28  1  0.49720820  0.29802328  0.50200544  1
  Zr  Zr29  1  0.90036435  0.29923130  0.29905790  1
  Zr  Zr30  1  0.29639895  0.50068176  0.70015073  1
  Zr  Zr31  1  0.68796603  0.89582389  0.30282123  1
  Zr  Zr32  1  0.10552519  0.90052303  0.09763227  1
  Zr  Zr33  1  0.70520402  0.30200983  0.50542690  1
  Zr  Zr34  1  0.30615252  0.90651471  0.70110405  1
  Zr  Zr35  1  0.90351838  0.70882632  0.49644405  1
  Zr  Zr36  1  0.10441149  0.29241493  0.10528278  1
  Zr  Zr37  1  0.90075198  0.49571538  0.49730559  1
  Zr  Zr38  1  0.50334494  0.50013934  0.90794837  1
  Zr  Zr39  1  0.90048316  0.30014952  0.90114103  1
  Zr  Zr40  1  0.70718741  0.29890874  0.90530952  1
  Zr  Zr41  1  0.30125220  0.10994057  0.90129265  1
  Zr  Zr42  1  0.90125156  0.89956507  0.50305709  1
  Zr  Zr43  1  0.09643710  0.50674494  0.89147359  1
  Zr  Zr44  1  0.09624288  0.68866466  0.30533286  1
  Zr  Zr45  1  0.49369859  0.90752544  0.89858615  1
  Zr  Zr46  1  0.89247557  0.10387006  0.89884745  1
  Zr  Zr47  1  0.49848398  0.50769558  0.09629604  1
  Zr  Zr48  1  0.50351250  0.70565815  0.69678558  1
  Zr  Zr49  1  0.10444748  0.89190060  0.90023959  1
  Sc  Sc50  1  0.70114107  0.49247087  0.90439531  1
  Sc  Sc51  1  0.90136746  0.49829070  0.89579172  1
  Sc  Sc52  1  0.10258225  0.10191976  0.29991894  1
  Sc  Sc53  1  0.50261246  0.50069680  0.50496635  1
  Sc  Sc54  1  0.29917526  0.89643315  0.29644496  1
  Sc  Sc55  1  0.09545894  0.30076958  0.70166785  1
  Sc  Sc56  1  0.49768402  0.30469945  0.69819788  1
  Sc  Sc57  1  0.90321629  0.89547527  0.70014142  1
  Sc  Sc58  1  0.90413359  0.90176412  0.30587233  1
  Sc  Sc59  1  0.68357700  0.10881140  0.30209391  1
  Sc  Sc60  1  0.70492306  0.29858061  0.69965985  1
  Sc  Sc61  1  0.90535587  0.10547892  0.50154085  1
  Sc  Sc62  1  0.90508405  0.49577511  0.70856670  1
  Sc  Sc63  1  0.30419920  0.49432344  0.30259708  1
  Sc  Sc64  1  0.09565636  0.10844880  0.70249185  1
  Sc  Sc65  1  0.50086491  0.70565217  0.29987248  1
  Sc  Sc66  1  0.10408306  0.30677585  0.50172350  1
  Sc  Sc67  1  0.70661463  0.50299724  0.29820246  1
  Sc  Sc68  1  0.10073392  0.09956423  0.49180322  1
  Sc  Sc69  1  0.09822077  0.49258175  0.69660572  1
  Sc  Sc70  1  0.69394023  0.91085411  0.89243282  1
  Sc  Sc71  1  0.69494053  0.10383651  0.08891438  1
  Sc  Sc72  1  0.70247514  0.70637489  0.10785767  1
  Sc  Sc73  1  0.70497469  0.09191213  0.70851528  1
  Sc  Sc74  1  0.29021593  0.70103319  0.88313524  1
  Sc  Sc75  1  0.89516812  0.10487285  0.70001913  1
  Sc  Sc76  1  0.89014825  0.90209689  0.90057775  1
  Sc  Sc77  1  0.89712810  0.29629419  0.49783575  1
  Sc  Sc78  1  0.30506479  0.70880923  0.10823726  1
  Sc  Sc79  1  0.90303283  0.50174222  0.10749437  1
  Sc  Sc80  1  0.49399202  0.69673415  0.49449073  1
  Sc  Sc81  1  0.10029725  0.89951046  0.69775574  1
  Sc  Sc82  1  0.29489705  0.10057384  0.30418031  1
  Sc  Sc83  1  0.49001607  0.08920553  0.70161212  1
  Sc  Sc84  1  0.30247117  0.49097456  0.49904154  1
  Sc  Sc85  1  0.49373889  0.30727395  0.90034130  1
  Sc  Sc86  1  0.90073111  0.29481413  0.70269889  1
  Sc  Sc87  1  0.49224233  0.69758156  0.89883514  1
  Sc  Sc88  1  0.89526368  0.29724345  0.10101951  1
  Sc  Sc89  1  0.70443011  0.71149942  0.88946000  1
  Sc  Sc90  1  0.69536456  0.49214309  0.69274793  1
  Sc  Sc91  1  0.10049339  0.70212307  0.71874234  1
  Sc  Sc92  1  0.90571641  0.10268729  0.09627134  1
  Sc  Sc93  1  0.29893130  0.29508286  0.30120494  1
  Sc  Sc94  1  0.69800497  0.89969461  0.10046413  1
  Sc  Sc95  1  0.69900157  0.49819279  0.09213630  1
  Sc  Sc96  1  0.30269778  0.29383406  0.10768389  1
  Sc  Sc97  1  0.29869100  0.09227819  0.49695792  1
  Sc  Sc98  1  0.70630620  0.30711788  0.09492028  1
  Sc  Sc99  1  0.49854245  0.49468087  0.69812172  1
  Nb  Nb100  1  0.09698657  0.49669536  0.29688864  1
  Nb  Nb101  1  0.09847563  0.09923714  0.90403845  1
  Nb  Nb102  1  0.30210143  0.09840074  0.10180019  1
  Nb  Nb103  1  0.09353771  0.69749382  0.89958481  1
  Nb  Nb104  1  0.89393396  0.69893368  0.70311054  1
  Nb  Nb105  1  0.29799580  0.10191904  0.70257279  1
  Nb  Nb106  1  0.69642260  0.09552586  0.50789748  1
  Nb  Nb107  1  0.70213342  0.50071840  0.49726299  1
  Nb  Nb108  1  0.09885994  0.50496850  0.49885648  1
  Nb  Nb109  1  0.69687428  0.90371435  0.49898563  1
  Nb  Nb110  1  0.29642903  0.30129236  0.89836540  1
  Nb  Nb111  1  0.89911080  0.70082501  0.10128869  1
  Nb  Nb112  1  0.70018743  0.70156742  0.69945813  1
  Nb  Nb113  1  0.29836869  0.90406920  0.89851667  1
  Nb  Nb114  1  0.29790785  0.70123700  0.50075337  1
  Nb  Nb115  1  0.51000325  0.09506521  0.90401329  1
  Nb  Nb116  1  0.50323329  0.91163870  0.30052782  1
  Nb  Nb117  1  0.50852898  0.91022294  0.49598583  1
  Nb  Nb118  1  0.49436244  0.90000450  0.09438332  1
  Nb  Nb119  1  0.89904938  0.69256868  0.29386865  1
  Nb  Nb120  1  0.10412544  0.49514092  0.10400209  1
  Nb  Nb121  1  0.69593208  0.09969604  0.89664454  1
  Nb  Nb122  1  0.49612286  0.09533670  0.29624657  1
  Nb  Nb123  1  0.90609778  0.69655189  0.89161939  1
  Nb  Nb124  1  0.50099155  0.70001236  0.09716796  1
  Nb  Nb125  1  0.80919288  0.61135954  -0.00330406  1
  Nb  Nb126  1  0.59872530  0.19498644  0.80347428  1
  Nb  Nb127  1  -0.00585983  0.79040133  -0.00112324  1
  Nb  Nb128  1  0.20720812  0.20062040  0.60368344  1
  Nb  Nb129  1  0.19972288  0.40047365  -0.00210068  1
  Nb  Nb130  1  -0.00272024  0.79370769  0.19713988  1
  Nb  Nb131  1  0.79469123  -0.00592471  0.59399207  1
  Nb  Nb132  1  0.58988028  0.80102558  0.00227943  1
  Nb  Nb133  1  0.19726073  0.59504453  0.00256470  1
  Nb  Nb134  1  0.40638365  -0.00025179  0.19771186  1
  Nb  Nb135  1  0.00481091  0.00335741  0.80824812  1
  Nb  Nb136  1  0.80202497  0.60612459  0.60172100  1
  Nb  Nb137  1  0.00000424  0.60359590  0.59829925  1
  Nb  Nb138  1  0.20022087  0.00675316  0.80435038  1
  Nb  Nb139  1  0.79652764  0.00341334  0.20847157  1
  Nb  Nb140  1  0.59596157  0.40079033  0.20674150  1
  Nb  Nb141  1  0.79268932  0.00160232  0.40287968  1
  Nb  Nb142  1  0.19642762  0.60294949  0.59432672  1
  Nb  Nb143  1  0.19727398  0.59305471  0.20020349  1
  Nb  Nb144  1  0.80204345  0.60467705  0.40480930  1
  Nb  Nb145  1  0.60393435  0.60291891  0.79535124  1
  Nb  Nb146  1  0.20308875  0.39543984  0.80786909  1
  Nb  Nb147  1  0.60352329  0.40036054  0.39728345  1
  Nb  Nb148  1  0.01123704  0.39983110  0.00175098  1
  Nb  Nb149  1  0.60039136  0.19196074  0.60347110  1
  Pd  Pd150  1  0.40908612  0.39566088  0.21469180  1
  Pd  Pd151  1  0.60616211  0.20650897  0.18921707  1
  Pd  Pd152  1  0.41207382  0.19807447  0.80320399  1
  Pd  Pd153  1  0.60612717  0.59693309  0.19475062  1
  Pd  Pd154  1  0.80256258  0.80730459  0.79837625  1
  Pd  Pd155  1  -0.00764215  -0.00039405  0.19729404  1
  Pd  Pd156  1  0.00525521  0.39346510  0.40161474  1
  Pd  Pd157  1  0.00741060  0.79108243  0.60934358  1
  Pd  Pd158  1  0.60501132  0.59934736  0.60302100  1
  Pd  Pd159  1  0.19810654  0.80539169  0.39160024  1
  Pd  Pd160  1  0.40645108  0.80912229  0.40419202  1
  Pd  Pd161  1  0.20114296  0.78694818  -0.00424675  1
  Pd  Pd162  1  0.80088548  0.80223995  0.39266845  1
  Pd  Pd163  1  0.39337605  0.59568415  0.59478988  1
  Pd  Pd164  1  0.79528375  0.19041264  0.19329512  1
  Pd  Pd165  1  0.79326151  0.00272895  0.00643479  1
  Pd  Pd166  1  -0.00520052  0.00698036  0.60892121  1
  Pd  Pd167  1  0.19724125  0.40185076  0.39680370  1
  Pd  Pd168  1  0.41186891  0.40022167  0.39404752  1
  Pd  Pd169  1  0.79127903  0.59210915  0.79980095  1
  Pd  Pd170  1  0.80783142  0.40437950  0.60696853  1
  Pd  Pd171  1  0.40232275  0.00147689  0.59110045  1
  Pd  Pd172  1  0.19354037  0.79017059  0.20840427  1
  Pd  Pd173  1  -0.00430716  0.39990921  0.59968407  1
  Pd  Pd174  1  0.59011167  0.80284490  0.59066956  1
  Pd  Pd175  1  0.40265310  0.18883886  0.59705330  1
  Pd  Pd176  1  0.39551768  0.79397107  -0.00925005  1
  Pd  Pd177  1  0.60201730  0.39748072  0.80139757  1
  Pd  Pd178  1  0.00423372  0.80341606  0.38869081  1
  Pd  Pd179  1  0.20708784  0.58751737  0.40023796  1
  Pd  Pd180  1  0.79705020  0.40169013  0.79571404  1
  Pd  Pd181  1  0.80434789  0.80697986  0.21115619  1
  Pd  Pd182  1  0.40023482  0.20475630  -0.00224402  1
  Pd  Pd183  1  0.38601486  0.61248982  0.00207194  1
  Pd  Pd184  1  0.19401200  0.00948292  0.60695475  1
  Pd  Pd185  1  0.79427679  0.59667591  0.19672001  1
  Pd  Pd186  1  0.40818995  0.80624036  0.20362345  1
  Pd  Pd187  1  0.00856332  0.20257181  0.59439952  1
  Pd  Pd188  1  -0.00206299  0.39248744  0.19422431  1
  Pd  Pd189  1  -0.00366602  0.59434524  0.00115095  1
  Pd  Pd190  1  0.40997345  0.59926471  0.79397481  1
  Pd  Pd191  1  -0.00261649  -0.00826522  -0.00545302  1
  Pd  Pd192  1  0.79494774  0.19061258  0.40520323  1
  Pd  Pd193  1  0.19114702  0.79506226  0.60782436  1
  Pd  Pd194  1  0.79637094  0.79647942  -0.00608352  1
  Pd  Pd195  1  0.58958561  0.80138520  0.19365522  1
  Pd  Pd196  1  0.61577607  0.61483700  -0.01079926  1
  Pd  Pd197  1  0.39044100  -0.00664285  0.39450142  1
  Pd  Pd198  1  0.60072985  0.00259535  0.19110808  1
  Pd  Pd199  1  0.59773652  0.21064039  -0.00513009  1
  Rh  Rh200  1  0.59563135  0.00495012  0.79473318  1
  Rh  Rh201  1  0.39242017  0.19361883  0.39869839  1
  Rh  Rh202  1  0.39542353  0.59688863  0.40858171  1
  Rh  Rh203  1  0.19793544  0.59344275  0.79575334  1
  Rh  Rh204  1  0.39778482  0.40181331  0.79960684  1
  Rh  Rh205  1  0.21211071  0.00459579  0.19994523  1
  Rh  Rh206  1  0.20334730  0.19303129  0.20038150  1
  Rh  Rh207  1  0.20669319  0.81160216  0.79516131  1
  Rh  Rh208  1  -0.00377531  0.20417548  0.00439672  1
  Rh  Rh209  1  0.59092580  0.79376331  0.80936905  1
  Rh  Rh210  1  0.79564542  0.40472749  0.19559876  1
  Rh  Rh211  1  -0.00619548  0.19341023  0.80056260  1
  Rh  Rh212  1  0.39243495  0.00623214  0.80983437  1
  Rh  Rh213  1  0.00158863  0.19830505  0.19901640  1
  Rh  Rh214  1  0.20165625  -0.00586627  0.39955693  1
  Rh  Rh215  1  0.60633447  0.00248591  0.39666571  1
  Rh  Rh216  1  0.20119932  0.20254150  0.41069215  1
  Rh  Rh217  1  0.20769232  0.00676052  -0.00799949  1
  Rh  Rh218  1  0.59812320  0.39174770  0.59244701  1
  Rh  Rh219  1  0.39809509  0.80196226  0.80290489  1
  Rh  Rh220  1  0.59366689  0.39626509  0.00838897  1
  Rh  Rh221  1  0.39453993  0.39303607  0.00120532  1
  Rh  Rh222  1  0.60070130  0.00316986  0.60757530  1
  Rh  Rh223  1  0.79625901  0.40685032  0.39872210  1
  Rh  Rh224  1  0.39563714  0.00599862  0.00004582  1
  Rh  Rh225  1  0.79980298  0.19557901  0.00086227  1
  Rh  Rh226  1  0.20089685  0.39895773  0.60695729  1
  Rh  Rh227  1  0.40097173  0.40457357  0.60065548  1
  Rh  Rh228  1  0.00714174  0.38983389  0.80858289  1
  Rh  Rh229  1  0.39541150  0.60659012  0.19853355  1
  Rh  Rh230  1  0.39582991  0.18826549  0.20391983  1
  Rh  Rh231  1  0.20311054  0.40255688  0.20282271  1
  Rh  Rh232  1  0.60902705  0.20668878  0.41210131  1
  Rh  Rh233  1  0.60398108  -0.00946822  0.00199261  1
  Rh  Rh234  1  0.79358794  0.19156903  0.60203347  1
  Rh  Rh235  1  0.19953360  0.19998499  0.79093666  1
  Rh  Rh236  1  0.79205857  0.20233522  0.80093192  1
  Rh  Rh237  1  0.79755462  0.80426785  0.60555444  1
  Rh  Rh238  1  0.80918811  -0.00449251  0.78961367  1
  Rh  Rh239  1  -0.00559751  0.80786964  0.80667000  1
  Rh  Rh240  1  0.40827781  0.80625321  0.58836745  1
  Rh  Rh241  1  -0.00216607  0.60064238  0.78796527  1
  Rh  Rh242  1  0.60747803  0.59684914  0.40439017  1
  Rh  Rh243  1  0.81702744  0.41288231  0.00434434  1
  Rh  Rh244  1  -0.00475949  0.00440354  0.40088657  1
  Rh  Rh245  1  0.00361141  0.60022804  0.20129602  1
  Rh  Rh246  1  0.58850419  0.80191907  0.40446317  1
  Rh  Rh247  1  0.20801782  0.19998998  0.00898568  1
  Rh  Rh248  1  -0.00757940  0.59625447  0.40393478  1
  Rh  Rh249  1  0.00603945  0.20710319  0.40208259  1
