# generated using pymatgen
data_ZrScNbPdRh
_symmetry_space_group_name_H-M   'P 1'
_cell_length_a   16.55040890
_cell_length_b   16.55211740
_cell_length_c   16.55485708
_cell_angle_alpha   89.99049890
_cell_angle_beta   90.02215231
_cell_angle_gamma   90.01709668
_symmetry_Int_Tables_number   1
_chemical_formula_structural   ZrScNbPdRh
_chemical_formula_sum   'Zr50 Sc50 Nb50 Pd50 Rh50'
_cell_volume   4535.10831287
_cell_formula_units_Z   50
loop_
 _symmetry_equiv_pos_site_id
 _symmetry_equiv_pos_as_xyz
  1  'x, y, z'
loop_
 _atom_site_type_symbol
 _atom_site_label
 _atom_site_symmetry_multiplicity
 _atom_site_fract_x
 _atom_site_fract_y
 _atom_site_fract_z
 _atom_site_occupancy
  Zr  Zr0  1  0.09735161  0.28420612  0.90667240  1
  Zr  Zr1  1  0.51431244  0.30711088  0.69654243  1
  Zr  Zr2  1  0.30374014  0.50093287  0.90441877  1
  Zr  Zr3  1  0.49920546  0.89874866  0.09956822  1
  Zr  Zr4  1  0.09688365  0.69752490  0.69426082  1
  Zr  Zr5  1  0.89879323  0.70281064  0.89602471  1
  Zr  Zr6  1  0.50959714  0.09918884  0.89964281  1
  Zr  Zr7  1  0.10539197  0.89959309  0.69485462  1
  Zr  Zr8  1  0.30683597  0.09544754  0.49387574  1
  Zr  Zr9  1  0.49912743  0.29998449  0.90382517  1
  Zr  Zr10  1  0.90726471  0.50533745  0.69919053  1
  Zr  Zr11  1  0.70803989  0.49758907  0.91820539  1
  Zr  Zr12  1  0.30039038  0.30490463  0.49158091  1
  Zr  Zr13  1  0.09237797  0.50627046  0.30122931  1
  Zr  Zr14  1  0.48916472  0.90922467  0.50672153  1
  Zr  Zr15  1  0.70088812  0.70115371  0.68838778  1
  Zr  Zr16  1  0.90281172  0.49801824  0.29193697  1
  Zr  Zr17  1  0.50544116  0.09809310  0.30387820  1
  Zr  Zr18  1  0.90190393  0.89526190  0.49841805  1
  Zr  Zr19  1  0.70378763  0.70129764  0.49632180  1
  Zr  Zr20  1  0.29957677  0.29273060  0.89787979  1
  Zr  Zr21  1  0.49537595  0.49847160  0.50625326  1
  Zr  Zr22  1  0.30227778  0.69900974  0.50054483  1
  Zr  Zr23  1  0.30052479  0.50159323  0.50019549  1
  Zr  Zr24  1  0.90443723  0.11256954  0.49767509  1
  Zr  Zr25  1  0.50424605  0.70490781  0.10306568  1
  Zr  Zr26  1  0.29257560  0.10104642  0.89489829  1
  Zr  Zr27  1  0.09592759  0.90217756  0.10842106  1
  Zr  Zr28  1  0.49746169  0.30368787  0.10509505  1
  Zr  Zr29  1  0.30220222  0.50813033  0.69042311  1
  Zr  Zr30  1  0.30116309  0.89647400  0.89516780  1
  Zr  Zr31  1  0.09798304  0.71054823  0.49735468  1
  Zr  Zr32  1  0.09429895  0.11080164  0.09893784  1
  Zr  Zr33  1  0.30431016  0.70025230  0.90442398  1
  Zr  Zr34  1  0.09368002  0.50368885  0.89691027  1
  Zr  Zr35  1  0.49833498  0.49965938  0.90034322  1
  Zr  Zr36  1  0.70668951  0.89934185  0.10537977  1
  Zr  Zr37  1  0.70383817  0.89473700  0.30358474  1
  Zr  Zr38  1  0.69041937  0.89457347  0.69623030  1
  Zr  Zr39  1  0.10363247  0.69894760  0.10526337  1
  Zr  Zr40  1  0.30293388  0.70210465  0.10364475  1
  Zr  Zr41  1  0.88250571  0.49672498  0.09585483  1
  Zr  Zr42  1  0.70364290  0.50107460  0.29792594  1
  Zr  Zr43  1  0.29978392  0.10133732  0.69880016  1
  Zr  Zr44  1  0.09974438  0.49758364  0.69545222  1
  Zr  Zr45  1  0.30082246  0.29543369  0.10330641  1
  Zr  Zr46  1  0.10065185  0.90283646  0.49706606  1
  Zr  Zr47  1  0.90080882  0.10667265  0.29684991  1
  Zr  Zr48  1  0.29973387  0.70330904  0.30360110  1
  Zr  Zr49  1  0.69424720  0.69785289  0.30334358  1
  Sc  Sc50  1  0.10188018  0.90779442  0.89323110  1
  Sc  Sc51  1  0.90643519  0.69597970  0.31069471  1
  Sc  Sc52  1  0.69800491  0.30407904  0.30732498  1
  Sc  Sc53  1  0.09762938  0.70230297  0.29790233  1
  Sc  Sc54  1  0.70420026  0.90294158  0.90135729  1
  Sc  Sc55  1  0.30377104  0.09549281  0.29589080  1
  Sc  Sc56  1  0.31050390  0.50009898  0.10182642  1
  Sc  Sc57  1  0.10283817  0.90151193  0.30293200  1
  Sc  Sc58  1  0.90331753  0.90015114  0.29089847  1
  Sc  Sc59  1  0.51124168  0.89073193  0.89979866  1
  Sc  Sc60  1  0.50667738  0.10020632  0.49210467  1
  Sc  Sc61  1  0.69586646  0.50220211  0.49515806  1
  Sc  Sc62  1  0.89085819  0.29396702  0.68186558  1
  Sc  Sc63  1  0.88915108  0.29143311  0.90674650  1
  Sc  Sc64  1  0.09964874  0.09287432  0.69392636  1
  Sc  Sc65  1  0.50719613  0.49748995  0.30578302  1
  Sc  Sc66  1  0.49681860  0.70726874  0.90305341  1
  Sc  Sc67  1  0.29852395  0.89600705  0.49809991  1
  Sc  Sc68  1  0.50881201  0.09577875  0.69153067  1
  Sc  Sc69  1  0.10375533  0.49636120  0.50920686  1
  Sc  Sc70  1  0.49650060  0.90309156  0.30132135  1
  Sc  Sc71  1  0.51198600  0.09448090  0.11125355  1
  Sc  Sc72  1  0.50489782  0.49812191  0.10462687  1
  Sc  Sc73  1  0.89962513  0.71302223  0.10029740  1
  Sc  Sc74  1  0.70391934  0.11196849  0.70518347  1
  Sc  Sc75  1  0.69238651  0.29474843  0.89863831  1
  Sc  Sc76  1  0.70022360  0.88967294  0.50154297  1
  Sc  Sc77  1  0.49777546  0.29663437  0.30182774  1
  Sc  Sc78  1  0.90549495  0.29051689  0.10831929  1
  Sc  Sc79  1  0.10060098  0.70179838  0.90078746  1
  Sc  Sc80  1  0.69337078  0.70919914  0.90191103  1
  Sc  Sc81  1  0.89914877  0.50188786  0.49743055  1
  Sc  Sc82  1  0.29053354  0.09657417  0.10836370  1
  Sc  Sc83  1  0.29960187  0.90420964  0.11151930  1
  Sc  Sc84  1  0.88984149  0.09063485  0.89226295  1
  Sc  Sc85  1  0.49900152  0.69874060  0.30402131  1
  Sc  Sc86  1  0.09967133  0.30249101  0.50357826  1
  Sc  Sc87  1  0.89886930  0.90841145  0.70375420  1
  Sc  Sc88  1  0.89376707  0.29608825  0.30170507  1
  Sc  Sc89  1  0.08905007  0.50287444  0.11216905  1
  Sc  Sc90  1  0.08911117  0.29555675  0.29227193  1
  Sc  Sc91  1  0.30471350  0.71045085  0.69927975  1
  Sc  Sc92  1  0.29486049  0.29255779  0.70005295  1
  Sc  Sc93  1  0.10073902  0.29922421  0.69133498  1
  Sc  Sc94  1  0.89965428  0.70515803  0.50382250  1
  Sc  Sc95  1  0.10053017  0.09596123  0.89559217  1
  Sc  Sc96  1  0.30727813  0.49423935  0.30241712  1
  Sc  Sc97  1  0.29713981  0.90388892  0.30337153  1
  Sc  Sc98  1  0.70887420  0.30154646  0.50137705  1
  Sc  Sc99  1  0.49845300  0.69299812  0.49494567  1
  Nb  Nb100  1  0.89372965  0.09210896  0.10384931  1
  Nb  Nb101  1  0.89762263  0.49900309  0.89862239  1
  Nb  Nb102  1  0.90092817  0.70143838  0.70030033  1
  Nb  Nb103  1  0.30771939  0.90252124  0.69759708  1
  Nb  Nb104  1  0.50502432  0.50432680  0.69715389  1
  Nb  Nb105  1  0.49865827  0.29927874  0.49775380  1
  Nb  Nb106  1  0.69580845  0.49800709  0.69840291  1
  Nb  Nb107  1  0.09845913  0.29832535  0.09757358  1
  Nb  Nb108  1  0.09961737  0.09825961  0.30208365  1
  Nb  Nb109  1  0.90050562  0.29996996  0.49145551  1
  Nb  Nb110  1  0.29708484  0.29486102  0.29654672  1
  Nb  Nb111  1  0.89983169  0.89953744  0.90371635  1
  Nb  Nb112  1  0.50552655  0.70063889  0.70382253  1
  Nb  Nb113  1  0.70184252  0.10109190  0.90746663  1
  Nb  Nb114  1  0.69910271  0.30702534  0.09572608  1
  Nb  Nb115  1  0.49633026  0.89714305  0.70025134  1
  Nb  Nb116  1  0.69976042  0.50812504  0.10557879  1
  Nb  Nb117  1  0.89732125  0.90773650  0.09684672  1
  Nb  Nb118  1  0.70470102  0.09260716  0.10725730  1
  Nb  Nb119  1  0.10100702  0.09868682  0.48766807  1
  Nb  Nb120  1  0.69875055  0.09644787  0.29947861  1
  Nb  Nb121  1  0.69287216  0.69041870  0.10577858  1
  Nb  Nb122  1  0.70439692  0.09928875  0.49365520  1
  Nb  Nb123  1  0.89630229  0.10243881  0.69976441  1
  Nb  Nb124  1  0.70589200  0.30577679  0.70114750  1
  Nb  Nb125  1  -0.00735657  0.59750155  -0.00093170  1
  Nb  Nb126  1  0.40114680  0.00379391  -0.00544240  1
  Nb  Nb127  1  0.40101753  0.40294252  0.79538638  1
  Nb  Nb128  1  0.20050965  0.59904169  0.40238498  1
  Nb  Nb129  1  -0.01012209  -0.00192367  0.00296680  1
  Nb  Nb130  1  0.19858490  0.39303094  0.19802204  1
  Nb  Nb131  1  0.79860259  0.40210731  0.79557406  1
  Nb  Nb132  1  -0.00428476  0.80221833  0.79862794  1
  Nb  Nb133  1  0.60441054  0.59560183  0.79526340  1
  Nb  Nb134  1  0.19757002  0.19818312  0.39474978  1
  Nb  Nb135  1  -0.00259487  0.40048553  -0.00212241  1
  Nb  Nb136  1  -0.01006942  0.19744268  0.79335223  1
  Nb  Nb137  1  0.40284174  0.19094605  0.00207847  1
  Nb  Nb138  1  0.79102760  0.18875724  0.00864054  1
  Nb  Nb139  1  0.79950688  0.00841654  0.59531271  1
  Nb  Nb140  1  -0.00576726  0.39172648  0.80279185  1
  Nb  Nb141  1  0.40730414  0.20490384  0.59270044  1
  Nb  Nb142  1  0.20158353  0.59758727  0.79847279  1
  Nb  Nb143  1  0.40387715  -0.00442173  0.79836961  1
  Nb  Nb144  1  0.19264875  0.39871834  0.00380113  1
  Nb  Nb145  1  0.19858667  0.40208155  0.80437150  1
  Nb  Nb146  1  -0.00311101  0.39895633  0.39982972  1
  Nb  Nb147  1  0.79945747  0.00563720  0.40102654  1
  Nb  Nb148  1  0.79590232  0.59649243  0.79654639  1
  Nb  Nb149  1  0.20159034  0.80150478  0.00370995  1
  Pd  Pd150  1  0.18808004  0.39795838  0.38910479  1
  Pd  Pd151  1  0.60388985  0.40628819  0.80618684  1
  Pd  Pd152  1  0.59954653  0.80323379  0.20347130  1
  Pd  Pd153  1  0.60823379  0.20502667  0.20125209  1
  Pd  Pd154  1  -0.00597258  0.00305629  0.59870413  1
  Pd  Pd155  1  0.80068767  0.59513180  0.60009681  1
  Pd  Pd156  1  0.41348449  0.19814904  0.79197039  1
  Pd  Pd157  1  0.60903458  0.00315261  0.59727204  1
  Pd  Pd158  1  0.60304627  -0.00027030  0.79831606  1
  Pd  Pd159  1  0.80152844  0.61506110  -0.00162150  1
  Pd  Pd160  1  -0.00205471  0.79836157  0.20514346  1
  Pd  Pd161  1  0.39554328  0.39103424  0.60830555  1
  Pd  Pd162  1  0.80574653  0.61238010  0.20290519  1
  Pd  Pd163  1  0.40274606  0.19111366  0.19778649  1
  Pd  Pd164  1  0.79287387  0.79639561  0.00396990  1
  Pd  Pd165  1  0.39963064  0.80374028  0.20784610  1
  Pd  Pd166  1  0.78907540  0.20551138  0.19760560  1
  Pd  Pd167  1  0.80205308  0.40700478  0.59760941  1
  Pd  Pd168  1  -0.00112042  0.60241197  0.58932868  1
  Pd  Pd169  1  0.20721711  0.59029062  0.20841972  1
  Pd  Pd170  1  0.60129813  0.19733797  0.01237395  1
  Pd  Pd171  1  0.19718795  -0.00529603  0.00486221  1
  Pd  Pd172  1  0.19278582  0.59816886  0.00041064  1
  Pd  Pd173  1  0.20276654  0.19662722  0.58855147  1
  Pd  Pd174  1  0.60546253  0.20175991  0.59282800  1
  Pd  Pd175  1  0.00852797  0.80482437  -0.00634716  1
  Pd  Pd176  1  0.59990802  0.40283083  0.00469658  1
  Pd  Pd177  1  0.60522543  -0.00953052  0.40283646  1
  Pd  Pd178  1  0.40669056  0.39824521  0.39321679  1
  Pd  Pd179  1  0.60543940  0.20707473  0.40332295  1
  Pd  Pd180  1  -0.00804325  -0.00293817  0.39395237  1
  Pd  Pd181  1  0.58817723  0.79526771  0.59003749  1
  Pd  Pd182  1  0.60167687  0.20006230  0.79701894  1
  Pd  Pd183  1  0.40806588  0.59668624  0.20612024  1
  Pd  Pd184  1  0.20482260  -0.00186604  0.59470430  1
  Pd  Pd185  1  0.58880759  0.80467909  0.40718445  1
  Pd  Pd186  1  0.60698070  0.39997936  0.58944126  1
  Pd  Pd187  1  0.79645608  0.39028952  0.20005738  1
  Pd  Pd188  1  0.19498626  0.79466199  0.80087562  1
  Pd  Pd189  1  0.59428367  0.60351524  -0.00453811  1
  Pd  Pd190  1  0.40212666  0.60080622  0.79458050  1
  Pd  Pd191  1  0.80310475  0.59864001  0.40009314  1
  Pd  Pd192  1  0.40597641  0.79334414  0.59801273  1
  Pd  Pd193  1  0.41113552  0.60238405  0.00781471  1
  Pd  Pd194  1  0.00509511  0.19945427  0.60101600  1
  Pd  Pd195  1  0.80364786  0.79208939  0.20537223  1
  Pd  Pd196  1  0.60152774  -0.00642862  0.00283584  1
  Pd  Pd197  1  0.80118747  0.79998009  0.79402743  1
  Pd  Pd198  1  0.60376030  0.39968973  0.20298196  1
  Pd  Pd199  1  0.79057323  -0.00229224  0.79313022  1
  Rh  Rh200  1  0.80701555  0.40412561  0.39956336  1
  Rh  Rh201  1  -0.01746468  0.18933952  -0.00659645  1
  Rh  Rh202  1  0.79979869  0.20574892  0.80544264  1
  Rh  Rh203  1  0.60363584  -0.00735124  0.20542749  1
  Rh  Rh204  1  0.80726757  0.80306154  0.39529533  1
  Rh  Rh205  1  -0.00253615  0.00049118  0.80482770  1
  Rh  Rh206  1  0.40129397  0.80403408  0.40039620  1
  Rh  Rh207  1  0.40804930  0.60848128  0.60411950  1
  Rh  Rh208  1  0.79907168  -0.00155280  0.21108315  1
  Rh  Rh209  1  0.40687301  0.80541279  0.79884700  1
  Rh  Rh210  1  0.39525365  0.59687430  0.39787794  1
  Rh  Rh211  1  0.00858085  0.59488232  0.40987889  1
  Rh  Rh212  1  0.80234062  0.38580612  0.00172541  1
  Rh  Rh213  1  0.39499499  0.20022364  0.40166857  1
  Rh  Rh214  1  0.59698847  0.59740866  0.20399979  1
  Rh  Rh215  1  0.00090473  0.80554733  0.39509462  1
  Rh  Rh216  1  0.60091923  0.59716543  0.40088552  1
  Rh  Rh217  1  0.59831762  0.39775227  0.40539338  1
  Rh  Rh218  1  0.40037568  0.00913321  0.60611061  1
  Rh  Rh219  1  0.40417272  0.00185506  0.19608491  1
  Rh  Rh220  1  0.80070899  0.00263198  -0.00018751  1
  Rh  Rh221  1  0.20811439  0.39587580  0.60667618  1
  Rh  Rh222  1  0.60044381  0.79462789  0.79753581  1
  Rh  Rh223  1  0.60866570  0.80140338  0.00847545  1
  Rh  Rh224  1  0.39722123  0.40020506  0.20559657  1
  Rh  Rh225  1  0.80696459  0.81053424  0.60600823  1
  Rh  Rh226  1  0.20235498  0.00565887  0.39772917  1
  Rh  Rh227  1  -0.01231122  0.60807795  0.18774471  1
  Rh  Rh228  1  0.20391711  0.80443513  0.59899772  1
  Rh  Rh229  1  0.59659911  0.60214471  0.59992020  1
  Rh  Rh230  1  0.18100367  0.20022475  0.79042076  1
  Rh  Rh231  1  0.39468495  0.38952806  -0.00329679  1
  Rh  Rh232  1  0.20121344  0.80285113  0.19882110  1
  Rh  Rh233  1  0.79422219  0.19626664  0.59469738  1
  Rh  Rh234  1  0.01008240  0.20922307  0.40200390  1
  Rh  Rh235  1  -0.00067677  0.39740796  0.20040733  1
  Rh  Rh236  1  -0.00989250  0.39497130  0.59433611  1
  Rh  Rh237  1  0.79387246  0.19707379  0.39649530  1
  Rh  Rh238  1  0.19938764  0.79592380  0.39853910  1
  Rh  Rh239  1  0.20981640  0.19853847  0.00527291  1
  Rh  Rh240  1  -0.00147532  0.19572073  0.20048383  1
  Rh  Rh241  1  0.00258517  0.00582895  0.19684483  1
  Rh  Rh242  1  -0.00587696  0.80563194  0.60996572  1
  Rh  Rh243  1  0.19217831  0.00361669  0.20498262  1
  Rh  Rh244  1  0.39270023  0.80983173  0.00451139  1
  Rh  Rh245  1  0.20673925  0.00080530  0.79000091  1
  Rh  Rh246  1  0.20082106  0.60975280  0.59821354  1
  Rh  Rh247  1  0.40013483  -0.00104383  0.39589861  1
  Rh  Rh248  1  -0.00105109  0.60787870  0.80403695  1
  Rh  Rh249  1  0.19454012  0.20165970  0.20785879  1
