# generated using pymatgen
data_ZrScNbPdRh
_symmetry_space_group_name_H-M   'P 1'
_cell_length_a   16.55698454
_cell_length_b   16.55546384
_cell_length_c   16.55407541
_cell_angle_alpha   89.98587899
_cell_angle_beta   90.00312042
_cell_angle_gamma   89.99436791
_symmetry_Int_Tables_number   1
_chemical_formula_structural   ZrScNbPdRh
_chemical_formula_sum   'Zr50 Sc50 Nb50 Pd50 Rh50'
_cell_volume   4537.61358700
_cell_formula_units_Z   50
loop_
 _symmetry_equiv_pos_site_id
 _symmetry_equiv_pos_as_xyz
  1  'x, y, z'
loop_
 _atom_site_type_symbol
 _atom_site_label
 _atom_site_symmetry_multiplicity
 _atom_site_fract_x
 _atom_site_fract_y
 _atom_site_fract_z
 _atom_site_occupancy
  Zr  Zr0  1  0.30123846  0.09608759  0.89910509  1
  Zr  Zr1  1  0.29459520  0.90288587  0.70024086  1
  Zr  Zr2  1  0.30424921  0.50611515  0.09390291  1
  Zr  Zr3  1  0.90062884  0.90215734  0.30446494  1
  Zr  Zr4  1  0.70383420  0.49075129  0.69654950  1
  Zr  Zr5  1  0.49768311  0.09535605  0.70054572  1
  Zr  Zr6  1  0.90180039  0.10423316  0.70010258  1
  Zr  Zr7  1  0.28688343  0.89407500  0.30611243  1
  Zr  Zr8  1  0.10075450  0.30035143  0.49971048  1
  Zr  Zr9  1  0.69856368  0.49554112  0.89781641  1
  Zr  Zr10  1  0.90058929  0.69714636  0.89751436  1
  Zr  Zr11  1  0.89674269  0.09506614  0.50116035  1
  Zr  Zr12  1  0.09613651  0.10245603  0.29717891  1
  Zr  Zr13  1  0.89655635  0.69757215  0.09814948  1
  Zr  Zr14  1  0.30294811  0.10125896  0.70990533  1
  Zr  Zr15  1  0.10279020  0.30151313  0.30169500  1
  Zr  Zr16  1  0.29867662  0.10213059  0.29885058  1
  Zr  Zr17  1  0.70377548  0.69790833  0.10160577  1
  Zr  Zr18  1  0.69796489  0.90059402  0.69515869  1
  Zr  Zr19  1  0.71412591  0.89989786  0.90243554  1
  Zr  Zr20  1  0.30361755  0.30863260  0.10031849  1
  Zr  Zr21  1  0.09503068  0.10226174  0.90855518  1
  Zr  Zr22  1  0.30354085  0.50352795  0.70454783  1
  Zr  Zr23  1  0.50199199  0.48935363  0.49563481  1
  Zr  Zr24  1  0.90329580  0.10132916  0.30259420  1
  Zr  Zr25  1  0.90456472  0.30530952  0.29912891  1
  Zr  Zr26  1  0.68729751  0.30186107  0.50672332  1
  Zr  Zr27  1  0.69642538  0.30785797  0.90108972  1
  Zr  Zr28  1  0.09774844  0.50785210  0.30714160  1
  Zr  Zr29  1  0.70133213  0.29953102  0.70640447  1
  Zr  Zr30  1  0.50003016  0.30238442  0.31042556  1
  Zr  Zr31  1  0.70300533  0.69687115  0.49505616  1
  Zr  Zr32  1  0.89935844  0.70010797  0.29673930  1
  Zr  Zr33  1  0.30228186  0.50091825  0.29566975  1
  Zr  Zr34  1  0.30821298  0.29869679  0.90381442  1
  Zr  Zr35  1  0.50398352  0.90102209  0.09893857  1
  Zr  Zr36  1  0.09888917  0.89759603  0.10050133  1
  Zr  Zr37  1  0.71130056  0.89572124  0.50290459  1
  Zr  Zr38  1  0.90151491  0.31845751  0.10403946  1
  Zr  Zr39  1  0.69386569  0.30685396  0.29305097  1
  Zr  Zr40  1  0.89622931  0.09017333  0.90161484  1
  Zr  Zr41  1  0.50530669  0.69681005  0.10289530  1
  Zr  Zr42  1  0.10364642  0.50753560  0.89435150  1
  Zr  Zr43  1  0.08825128  0.29841105  0.69969452  1
  Zr  Zr44  1  0.49762511  0.70009910  0.50778186  1
  Zr  Zr45  1  0.10136592  0.90135958  0.49819204  1
  Zr  Zr46  1  0.48782861  0.10362251  0.90406600  1
  Zr  Zr47  1  0.70077618  0.09614326  0.51062578  1
  Zr  Zr48  1  0.09293196  0.89414786  0.70305416  1
  Zr  Zr49  1  0.30288656  0.10505951  0.09166877  1
  Sc  Sc50  1  0.49883882  0.50201147  0.09964152  1
  Sc  Sc51  1  0.50340193  0.30471527  0.90242821  1
  Sc  Sc52  1  0.69877539  0.70909462  0.70119582  1
  Sc  Sc53  1  0.49582029  0.89591335  0.90937055  1
  Sc  Sc54  1  0.29501047  0.69288563  0.50310931  1
  Sc  Sc55  1  0.30429465  0.50178266  0.50380991  1
  Sc  Sc56  1  0.10576165  0.50722773  0.49893654  1
  Sc  Sc57  1  0.90416654  0.70825532  0.70268861  1
  Sc  Sc58  1  0.09478765  0.49601731  0.09142336  1
  Sc  Sc59  1  0.29709445  0.30036362  0.30490821  1
  Sc  Sc60  1  0.89302889  0.89913637  0.09453971  1
  Sc  Sc61  1  0.70262050  0.69203155  0.29647702  1
  Sc  Sc62  1  0.49550498  0.90064580  0.51251770  1
  Sc  Sc63  1  0.50480311  0.30385532  0.09746124  1
  Sc  Sc64  1  0.90066614  0.50555557  0.29088702  1
  Sc  Sc65  1  0.09688931  0.09875097  0.70170982  1
  Sc  Sc66  1  0.49911395  0.70043563  0.70058059  1
  Sc  Sc67  1  0.68691139  0.10449808  0.29607661  1
  Sc  Sc68  1  0.09965640  0.29993060  0.10055524  1
  Sc  Sc69  1  0.51081709  0.69632582  0.90407406  1
  Sc  Sc70  1  0.70165901  0.89510145  0.09981156  1
  Sc  Sc71  1  0.50823348  0.50047374  0.29428195  1
  Sc  Sc72  1  0.09857128  0.30324423  0.89988608  1
  Sc  Sc73  1  0.89231057  0.70112602  0.49832898  1
  Sc  Sc74  1  0.70320880  0.10486729  0.69603442  1
  Sc  Sc75  1  0.10747930  0.69960508  0.09840842  1
  Sc  Sc76  1  0.50363006  0.31019044  0.69988160  1
  Sc  Sc77  1  0.49877449  0.10202466  0.29732220  1
  Sc  Sc78  1  0.49737455  0.89199296  0.69420508  1
  Sc  Sc79  1  0.10000299  0.69282939  0.89393631  1
  Sc  Sc80  1  0.28687395  0.69519695  0.29299149  1
  Sc  Sc81  1  0.90343551  0.30186259  0.89639052  1
  Sc  Sc82  1  0.29680822  0.89101897  0.08195516  1
  Sc  Sc83  1  0.50457134  0.90413490  0.29363213  1
  Sc  Sc84  1  0.90945682  0.50118382  0.90498782  1
  Sc  Sc85  1  0.90043555  0.30201901  0.69605713  1
  Sc  Sc86  1  0.50313468  0.50042451  0.89827666  1
  Sc  Sc87  1  0.30468262  0.30415164  0.71361179  1
  Sc  Sc88  1  0.10299052  0.70091728  0.29953349  1
  Sc  Sc89  1  0.70477740  0.89508300  0.29563875  1
  Sc  Sc90  1  0.09517719  0.10072451  0.49861760  1
  Sc  Sc91  1  0.91386209  0.09580285  0.09452782  1
  Sc  Sc92  1  0.49867086  0.10018758  0.49869337  1
  Sc  Sc93  1  0.30390816  0.69017771  0.69362177  1
  Sc  Sc94  1  0.29736255  0.08977544  0.49324885  1
  Sc  Sc95  1  0.70316200  0.10793800  0.89521857  1
  Sc  Sc96  1  0.70123863  0.70435854  0.90240665  1
  Sc  Sc97  1  0.90050236  0.50533035  0.09989095  1
  Sc  Sc98  1  0.50197989  0.10338646  0.10521417  1
  Sc  Sc99  1  0.09884734  0.69143087  0.70385742  1
  Nb  Nb100  1  0.89576943  0.49869520  0.50658523  1
  Nb  Nb101  1  0.30256864  0.30566085  0.50112502  1
  Nb  Nb102  1  0.30318950  0.69716810  0.09972298  1
  Nb  Nb103  1  0.89871531  0.89698298  0.70208045  1
  Nb  Nb104  1  0.10020197  0.89396804  0.29875093  1
  Nb  Nb105  1  0.29194365  0.69807582  0.90994234  1
  Nb  Nb106  1  0.29694458  0.89114771  0.49891253  1
  Nb  Nb107  1  0.29837003  0.50260748  0.90132266  1
  Nb  Nb108  1  0.89933865  0.89889347  0.50069789  1
  Nb  Nb109  1  0.69447837  0.49867040  0.30556464  1
  Nb  Nb110  1  0.90238107  0.29981926  0.50337971  1
  Nb  Nb111  1  0.10705467  0.89063655  0.89887366  1
  Nb  Nb112  1  0.69767315  0.10268343  0.10177443  1
  Nb  Nb113  1  0.09977385  0.49930590  0.69847507  1
  Nb  Nb114  1  0.29349068  0.89310470  0.89695015  1
  Nb  Nb115  1  0.49888647  0.50515098  0.69503212  1
  Nb  Nb116  1  0.70010265  0.48910162  0.11075470  1
  Nb  Nb117  1  0.90196161  0.89456083  0.89166253  1
  Nb  Nb118  1  0.90103249  0.49729803  0.69578575  1
  Nb  Nb119  1  0.70129273  0.50277166  0.49694921  1
  Nb  Nb120  1  0.09774640  0.69350356  0.49708409  1
  Nb  Nb121  1  0.10446524  0.09659303  0.09983031  1
  Nb  Nb122  1  0.48856046  0.30608075  0.50140634  1
  Nb  Nb123  1  0.70128313  0.30263136  0.09981094  1
  Nb  Nb124  1  0.50188432  0.69578788  0.29923135  1
  Nb  Nb125  1  0.19730152  0.00004565  0.19613434  1
  Nb  Nb126  1  0.80338021  0.59436769  0.79582379  1
  Nb  Nb127  1  0.79823302  0.20752774  0.40051312  1
  Nb  Nb128  1  0.39741602  0.79608090  0.20107692  1
  Nb  Nb129  1  0.20722815  0.20587868  0.59987105  1
  Nb  Nb130  1  0.19521479  0.79977839  0.59683676  1
  Nb  Nb131  1  0.80007992  0.40208717  0.40571934  1
  Nb  Nb132  1  0.38778583  -0.00748768  0.19774058  1
  Nb  Nb133  1  -0.00507755  0.59358004  0.59889211  1
  Nb  Nb134  1  0.40065291  0.79617850  0.39592823  1
  Nb  Nb135  1  0.00060563  0.80255370  -0.00866005  1
  Nb  Nb136  1  0.79956615  0.20174285  0.19601731  1
  Nb  Nb137  1  0.00167704  0.80261388  0.40304453  1
  Nb  Nb138  1  0.60302995  -0.00746791  0.40530583  1
  Nb  Nb139  1  0.38884376  0.79685619  0.80931626  1
  Nb  Nb140  1  0.59446047  0.79872299  0.40067528  1
  Nb  Nb141  1  -0.00659689  0.40635069  0.40795063  1
  Nb  Nb142  1  0.79786639  0.20441026  0.00997851  1
  Nb  Nb143  1  0.20012873  0.39708959  0.60518039  1
  Nb  Nb144  1  0.59913862  -0.00160784  0.80490616  1
  Nb  Nb145  1  0.39453338  0.20696265  0.59741675  1
  Nb  Nb146  1  0.79839272  0.01079727  0.19711562  1
  Nb  Nb147  1  0.40496023  0.60491302  0.39433953  1
  Nb  Nb148  1  0.60401197  0.59230611  0.59725135  1
  Nb  Nb149  1  0.60559103  0.00470972  -0.00286684  1
  Pd  Pd150  1  0.19940242  0.40057221  -0.00316139  1
  Pd  Pd151  1  0.19386922  0.20090741  0.79913177  1
  Pd  Pd152  1  0.00437951  -0.00141974  0.80364344  1
  Pd  Pd153  1  0.39491842  0.19851400  0.40659993  1
  Pd  Pd154  1  0.19601520  0.40728871  0.19688821  1
  Pd  Pd155  1  0.20456604  0.78637953  0.78999350  1
  Pd  Pd156  1  0.40827791  -0.01105688  0.39495177  1
  Pd  Pd157  1  -0.00296172  0.20463153  0.40527429  1
  Pd  Pd158  1  0.40319391  0.79037988  -0.00073455  1
  Pd  Pd159  1  0.39425820  0.00442254  0.59707936  1
  Pd  Pd160  1  0.79453528  0.00051207  0.79091068  1
  Pd  Pd161  1  0.79457451  0.59292379  -0.00484566  1
  Pd  Pd162  1  0.20125284  0.19974506  0.19575429  1
  Pd  Pd163  1  0.40012953  0.60910070  0.81024079  1
  Pd  Pd164  1  0.40818655  0.40334160  0.80459373  1
  Pd  Pd165  1  0.79805293  0.39122914  0.59633628  1
  Pd  Pd166  1  0.40441140  0.60077283  -0.00796298  1
  Pd  Pd167  1  0.80567914  0.59235688  0.39286876  1
  Pd  Pd168  1  0.60024131  0.79811390  0.20586722  1
  Pd  Pd169  1  0.60108761  0.19462163  0.40549524  1
  Pd  Pd170  1  0.59097163  0.80813435  0.80606592  1
  Pd  Pd171  1  0.60783534  0.59252950  0.00596307  1
  Pd  Pd172  1  -0.00281447  0.20300568  0.18988965  1
  Pd  Pd173  1  0.79989426  0.60823736  0.60990180  1
  Pd  Pd174  1  0.19295500  0.59189440  0.19189418  1
  Pd  Pd175  1  0.18921753  0.00351193  0.80490657  1
  Pd  Pd176  1  0.00780486  0.60316494  0.19319487  1
  Pd  Pd177  1  0.19982536  0.20667117  -0.00095464  1
  Pd  Pd178  1  0.00193814  0.79007219  0.59341489  1
  Pd  Pd179  1  0.40762685  -0.01574088  0.80351263  1
  Pd  Pd180  1  0.20050565  -0.00097844  -0.00005478  1
  Pd  Pd181  1  -0.00331640  0.40387142  0.80181221  1
  Pd  Pd182  1  0.19803693  0.39970636  0.79832727  1
  Pd  Pd183  1  0.19983835  0.40723695  0.40676783  1
  Pd  Pd184  1  -0.00400473  -0.00038955  0.60121989  1
  Pd  Pd185  1  0.00236547  -0.01208019  -0.00589271  1
  Pd  Pd186  1  0.40426314  0.20270580  0.19884870  1
  Pd  Pd187  1  0.58682636  0.20106662  0.60264322  1
  Pd  Pd188  1  -0.00237600  0.79713073  0.19783286  1
  Pd  Pd189  1  -0.00624674  0.20784222  0.00335028  1
  Pd  Pd190  1  0.80613264  0.20445827  0.80629869  1
  Pd  Pd191  1  0.19137819  0.00508705  0.39500839  1
  Pd  Pd192  1  0.40660876  0.39818115  0.20361022  1
  Pd  Pd193  1  0.80367080  0.40200451  -0.00501739  1
  Pd  Pd194  1  0.78852082  0.00943200  0.39032524  1
  Pd  Pd195  1  0.19956843  0.00216170  0.60020879  1
  Pd  Pd196  1  0.60860275  0.59816561  0.78999037  1
  Pd  Pd197  1  0.59345115  0.19617672  0.79994193  1
  Pd  Pd198  1  -0.00095395  -0.00421402  0.19829610  1
  Pd  Pd199  1  0.60204683  0.19776802  -0.00072581  1
  Rh  Rh200  1  0.80901520  -0.00430086  0.60910855  1
  Rh  Rh201  1  0.00855700  0.40800822  0.59427306  1
  Rh  Rh202  1  0.60329995  0.39857136  0.40124661  1
  Rh  Rh203  1  0.00572016  -0.00810012  0.39954647  1
  Rh  Rh204  1  0.60653412  0.59498821  0.19627919  1
  Rh  Rh205  1  0.59742580  0.20911917  0.19828233  1
  Rh  Rh206  1  0.20727248  0.60018458  0.79954094  1
  Rh  Rh207  1  0.59352022  0.40088914  0.19745313  1
  Rh  Rh208  1  0.40812451  0.20786242  0.79426285  1
  Rh  Rh209  1  0.19919408  0.59890257  0.00125037  1
  Rh  Rh210  1  0.21092594  0.60076518  0.39917452  1
  Rh  Rh211  1  0.80190802  0.80448192  0.19982599  1
  Rh  Rh212  1  0.40385442  -0.00021654  0.00585909  1
  Rh  Rh213  1  -0.00284081  0.19660197  0.80410146  1
  Rh  Rh214  1  0.80815803  0.40503095  0.80325415  1
  Rh  Rh215  1  0.39233749  0.39853797  0.60719512  1
  Rh  Rh216  1  0.79881056  0.40480179  0.20700049  1
  Rh  Rh217  1  -0.00768261  0.59392060  0.78987107  1
  Rh  Rh218  1  0.19583610  0.78911323  0.40964739  1
  Rh  Rh219  1  0.40357787  0.20789242  0.00549109  1
  Rh  Rh220  1  0.00300814  0.40096902  -0.00279161  1
  Rh  Rh221  1  0.80290338  0.79755120  0.39482409  1
  Rh  Rh222  1  0.20471106  0.19651787  0.40634828  1
  Rh  Rh223  1  0.80722972  0.79621319  -0.00138320  1
  Rh  Rh224  1  -0.00836445  0.60302413  0.40819639  1
  Rh  Rh225  1  0.40942645  0.59207672  0.59292946  1
  Rh  Rh226  1  0.59853887  -0.00062541  0.60153791  1
  Rh  Rh227  1  0.19236605  0.79201399  -0.00103794  1
  Rh  Rh228  1  0.80469101  0.80021375  0.60490060  1
  Rh  Rh229  1  0.39630422  0.40771507  0.39258231  1
  Rh  Rh230  1  0.00161758  0.19462893  0.59857536  1
  Rh  Rh231  1  0.60232381  0.00035350  0.19806727  1
  Rh  Rh232  1  0.00280506  0.79992474  0.80526581  1
  Rh  Rh233  1  0.19046476  0.59867072  0.60294508  1
  Rh  Rh234  1  0.39957000  0.60580272  0.20298102  1
  Rh  Rh235  1  0.40160251  0.40561019  -0.00368954  1
  Rh  Rh236  1  0.79335746  0.59278151  0.20115357  1
  Rh  Rh237  1  0.80132190  0.79556050  0.79613443  1
  Rh  Rh238  1  0.59478850  0.40457376  0.79638841  1
  Rh  Rh239  1  0.59816807  0.40407214  0.60223178  1
  Rh  Rh240  1  0.20745944  0.80577471  0.18919954  1
  Rh  Rh241  1  0.00426493  0.60951058  0.00372413  1
  Rh  Rh242  1  0.38445706  0.80073256  0.60533018  1
  Rh  Rh243  1  0.01030395  0.40681602  0.20811172  1
  Rh  Rh244  1  0.80329285  0.20487674  0.59632625  1
  Rh  Rh245  1  0.60653273  0.79213959  0.59272764  1
  Rh  Rh246  1  0.79471260  0.00996328  0.00683524  1
  Rh  Rh247  1  0.60710441  0.80637307  -0.00245943  1
  Rh  Rh248  1  0.59418914  0.60429452  0.40710010  1
  Rh  Rh249  1  0.59976542  0.40617774  0.00527572  1
