# generated using pymatgen
data_ZrScNbPdRh
_symmetry_space_group_name_H-M   'P 1'
_cell_length_a   16.56081716
_cell_length_b   16.56154991
_cell_length_c   16.56248430
_cell_angle_alpha   89.96815218
_cell_angle_beta   90.01607457
_cell_angle_gamma   90.01031024
_symmetry_Int_Tables_number   1
_chemical_formula_structural   ZrScNbPdRh
_chemical_formula_sum   'Zr50 Sc50 Nb50 Pd50 Rh50'
_cell_volume   4542.63798858
_cell_formula_units_Z   50
loop_
 _symmetry_equiv_pos_site_id
 _symmetry_equiv_pos_as_xyz
  1  'x, y, z'
loop_
 _atom_site_type_symbol
 _atom_site_label
 _atom_site_symmetry_multiplicity
 _atom_site_fract_x
 _atom_site_fract_y
 _atom_site_fract_z
 _atom_site_occupancy
  Zr  Zr0  1  0.69797796  0.49145438  0.69800071  1
  Zr  Zr1  1  0.70033977  0.70885193  0.49707870  1
  Zr  Zr2  1  0.89688180  0.90683421  0.50638616  1
  Zr  Zr3  1  0.89958600  0.70220943  0.70101637  1
  Zr  Zr4  1  0.09502524  0.69835409  0.49642420  1
  Zr  Zr5  1  0.50295944  0.70718688  0.50301886  1
  Zr  Zr6  1  0.30146812  0.69630785  0.90325091  1
  Zr  Zr7  1  0.10090885  0.49721647  0.49955949  1
  Zr  Zr8  1  0.09853817  0.50115601  0.90593179  1
  Zr  Zr9  1  0.69114675  0.50496063  0.89265350  1
  Zr  Zr10  1  0.90005368  0.70393006  0.30430338  1
  Zr  Zr11  1  0.30229992  0.90678256  0.69680223  1
  Zr  Zr12  1  0.90516590  0.70118218  0.09827977  1
  Zr  Zr13  1  0.70184204  0.29438693  0.70247537  1
  Zr  Zr14  1  0.69444257  0.50142451  0.09380534  1
  Zr  Zr15  1  0.50064769  0.09937641  0.88673587  1
  Zr  Zr16  1  0.90199186  0.49577855  0.70076370  1
  Zr  Zr17  1  0.08878547  0.70206550  0.29805258  1
  Zr  Zr18  1  0.10281793  0.49676555  0.30273876  1
  Zr  Zr19  1  0.29798301  0.29371088  0.70332937  1
  Zr  Zr20  1  0.10520692  0.89701257  0.90667598  1
  Zr  Zr21  1  0.49733664  0.09977185  0.09732268  1
  Zr  Zr22  1  0.89946796  0.09951986  0.70063174  1
  Zr  Zr23  1  0.30371652  0.69589609  0.70164492  1
  Zr  Zr24  1  0.10555930  0.10299516  0.08719345  1
  Zr  Zr25  1  0.30446999  0.49791241  0.90205372  1
  Zr  Zr26  1  0.90124932  0.89279494  0.90040414  1
  Zr  Zr27  1  0.10634134  0.11174257  0.69911093  1
  Zr  Zr28  1  0.89190872  0.90132774  0.70228617  1
  Zr  Zr29  1  0.49686098  0.29143641  0.69689394  1
  Zr  Zr30  1  0.30764329  0.70808671  0.49905505  1
  Zr  Zr31  1  0.69912398  0.70268093  0.09205334  1
  Zr  Zr32  1  0.10414577  0.30198537  0.30382065  1
  Zr  Zr33  1  0.69869538  0.69786537  0.89878336  1
  Zr  Zr34  1  0.49816476  0.70258911  0.09380067  1
  Zr  Zr35  1  0.29845493  0.10746242  0.90493055  1
  Zr  Zr36  1  0.69811111  0.70049529  0.69871659  1
  Zr  Zr37  1  0.49810111  0.90767092  0.29950736  1
  Zr  Zr38  1  0.10025825  0.30207182  0.70906227  1
  Zr  Zr39  1  0.90541366  0.30043318  0.30483060  1
  Zr  Zr40  1  0.69934101  0.09624763  0.30241205  1
  Zr  Zr41  1  0.69488406  0.90762351  0.10219529  1
  Zr  Zr42  1  0.89370520  0.29130645  0.09693378  1
  Zr  Zr43  1  0.70043663  0.30908252  0.50287332  1
  Zr  Zr44  1  0.89470410  0.48634048  0.49718722  1
  Zr  Zr45  1  0.50451048  0.48835681  0.50345432  1
  Zr  Zr46  1  0.30211782  0.69784992  0.09293366  1
  Zr  Zr47  1  0.70021278  0.49214420  0.30293695  1
  Zr  Zr48  1  0.30309746  0.49768280  0.69672448  1
  Zr  Zr49  1  0.10482062  0.09179401  0.30148942  1
  Sc  Sc50  1  0.49936239  0.10423191  0.50387567  1
  Sc  Sc51  1  0.89921134  0.90088899  0.30767902  1
  Sc  Sc52  1  0.90381998  0.49488801  0.09366777  1
  Sc  Sc53  1  0.30163797  0.29615835  0.29857195  1
  Sc  Sc54  1  0.30139116  0.71054863  0.29861199  1
  Sc  Sc55  1  0.29341583  0.90786662  0.28996266  1
  Sc  Sc56  1  0.89770862  0.70453040  0.49015341  1
  Sc  Sc57  1  0.10158476  0.88717165  0.09754480  1
  Sc  Sc58  1  0.10139468  0.49903302  0.09915454  1
  Sc  Sc59  1  0.09305591  0.91846748  0.49389677  1
  Sc  Sc60  1  0.30804034  0.29426627  0.50276995  1
  Sc  Sc61  1  0.70011026  0.90312898  0.50361800  1
  Sc  Sc62  1  0.49703066  0.30141606  0.30343283  1
  Sc  Sc63  1  0.49288763  0.69154778  0.89909982  1
  Sc  Sc64  1  0.69942524  0.29444485  0.29585786  1
  Sc  Sc65  1  0.29613069  0.50073996  0.09953188  1
  Sc  Sc66  1  0.50436006  0.50136388  0.70109675  1
  Sc  Sc67  1  0.49634853  0.89994326  0.50318885  1
  Sc  Sc68  1  0.90052996  0.29774002  0.89714955  1
  Sc  Sc69  1  0.49865273  0.11014013  0.30507763  1
  Sc  Sc70  1  0.30383333  0.89288607  0.09670358  1
  Sc  Sc71  1  0.09268066  0.29370325  0.49932659  1
  Sc  Sc72  1  0.10382019  0.90150626  0.71360812  1
  Sc  Sc73  1  0.10135464  0.69298925  0.09752315  1
  Sc  Sc74  1  0.68888059  0.09731374  0.50267652  1
  Sc  Sc75  1  0.30181389  0.89418465  0.89472541  1
  Sc  Sc76  1  0.89572426  0.09616424  0.30006676  1
  Sc  Sc77  1  0.70759614  0.29839801  0.89112899  1
  Sc  Sc78  1  0.30308222  0.49312286  0.50038415  1
  Sc  Sc79  1  0.70692450  0.10960793  0.10695120  1
  Sc  Sc80  1  0.30343868  0.09978859  0.69520372  1
  Sc  Sc81  1  0.90432373  0.49877103  0.30492011  1
  Sc  Sc82  1  0.29772841  0.10209144  0.10708449  1
  Sc  Sc83  1  0.70584245  0.90466981  0.89402382  1
  Sc  Sc84  1  0.10795994  0.29636973  0.89957282  1
  Sc  Sc85  1  0.49403139  0.91535930  0.70084460  1
  Sc  Sc86  1  0.09371612  0.50858057  0.70132581  1
  Sc  Sc87  1  0.70681302  0.29995020  0.10211506  1
  Sc  Sc88  1  0.48785582  0.29974047  0.10717233  1
  Sc  Sc89  1  0.49796979  0.90283627  0.10563950  1
  Sc  Sc90  1  0.89801101  0.70220910  0.90313253  1
  Sc  Sc91  1  0.50067524  0.29086881  0.50018482  1
  Sc  Sc92  1  0.49537356  0.49683799  0.10043238  1
  Sc  Sc93  1  0.90183245  0.49677226  0.89961353  1
  Sc  Sc94  1  0.29708572  0.48653979  0.30197017  1
  Sc  Sc95  1  0.29648741  0.29391496  0.09735671  1
  Sc  Sc96  1  0.70059878  0.10564526  0.89019220  1
  Sc  Sc97  1  0.90003321  0.30470007  0.70779912  1
  Sc  Sc98  1  0.90356783  0.89093750  0.09538183  1
  Sc  Sc99  1  0.50616177  0.72182043  0.30658200  1
  Nb  Nb100  1  0.48795844  0.29350541  0.90012547  1
  Nb  Nb101  1  0.49961676  0.49875179  0.29875575  1
  Nb  Nb102  1  0.50713130  0.10185683  0.69465382  1
  Nb  Nb103  1  0.89891836  0.29439836  0.49727980  1
  Nb  Nb104  1  0.10163652  0.29456071  0.10746470  1
  Nb  Nb105  1  0.69335444  0.89606556  0.29891272  1
  Nb  Nb106  1  0.30930264  0.29837924  0.89654979  1
  Nb  Nb107  1  0.50181085  0.90546637  0.89842776  1
  Nb  Nb108  1  0.90240076  0.10378091  0.09768884  1
  Nb  Nb109  1  0.29036478  0.09509408  0.50311096  1
  Nb  Nb110  1  0.50196335  0.49483011  0.90336611  1
  Nb  Nb111  1  0.29652520  0.09693691  0.30338066  1
  Nb  Nb112  1  0.90533577  0.10611382  0.90733718  1
  Nb  Nb113  1  0.50397195  0.70244875  0.69855868  1
  Nb  Nb114  1  0.09520833  0.10372909  0.49928671  1
  Nb  Nb115  1  0.29724775  0.90420490  0.50072582  1
  Nb  Nb116  1  0.70124789  0.49708723  0.50214129  1
  Nb  Nb117  1  0.10135455  0.70015605  0.69534417  1
  Nb  Nb118  1  0.69936832  0.70463726  0.30242753  1
  Nb  Nb119  1  0.71064239  0.90370749  0.69426870  1
  Nb  Nb120  1  0.09421985  0.89892360  0.29939212  1
  Nb  Nb121  1  0.09823281  0.09964812  0.90009119  1
  Nb  Nb122  1  0.69744825  0.09959230  0.69720114  1
  Nb  Nb123  1  0.91445937  0.10120710  0.50222978  1
  Nb  Nb124  1  0.10331693  0.69939914  0.89605157  1
  Nb  Nb125  1  0.59920326  0.60389615  0.20814176  1
  Nb  Nb126  1  0.38753063  0.00458558  0.40276113  1
  Nb  Nb127  1  0.19556756  0.80658698  0.40321718  1
  Nb  Nb128  1  0.80438060  0.19689821  0.59527553  1
  Nb  Nb129  1  0.79572557  0.59491513  0.59438364  1
  Nb  Nb130  1  0.40701383  0.60075526  0.21063760  1
  Nb  Nb131  1  0.20013924  0.18872256  0.40373806  1
  Nb  Nb132  1  0.00184619  0.00219265  0.19313479  1
  Nb  Nb133  1  0.20506402  0.60671447  0.40012531  1
  Nb  Nb134  1  0.59608459  0.80340069  0.79689706  1
  Nb  Nb135  1  0.59255640  0.39168483  -0.00804726  1
  Nb  Nb136  1  0.79404959  0.60472748  0.20259310  1
  Nb  Nb137  1  0.00348459  0.19508156  0.19602412  1
  Nb  Nb138  1  0.00054808  0.00809526  0.81068754  1
  Nb  Nb139  1  0.40669368  0.59872326  0.39576049  1
  Nb  Nb140  1  0.79325994  0.79765951  0.20466192  1
  Nb  Nb141  1  0.40487543  0.00099984  -0.00527370  1
  Nb  Nb142  1  0.00667533  0.80028740  0.60323130  1
  Nb  Nb143  1  0.19914037  0.39616075  0.60355284  1
  Nb  Nb144  1  0.59496407  0.80815967  -0.00905723  1
  Nb  Nb145  1  0.19584466  0.80031115  0.59749629  1
  Nb  Nb146  1  0.59930236  0.59682429  0.39775089  1
  Nb  Nb147  1  0.59405774  0.20651027  -0.00516398  1
  Nb  Nb148  1  0.80436465  0.19792844  0.41041275  1
  Nb  Nb149  1  0.80862642  0.00843727  0.00088252  1
  Pd  Pd150  1  0.00276739  0.80154858  0.79836760  1
  Pd  Pd151  1  0.60452299  0.00752278  -0.00273557  1
  Pd  Pd152  1  0.18965399  -0.00400872  0.60370246  1
  Pd  Pd153  1  0.80356740  0.59674381  0.79511973  1
  Pd  Pd154  1  0.39937758  0.39743852  0.40061733  1
  Pd  Pd155  1  0.80642658  0.40588997  0.20129570  1
  Pd  Pd156  1  0.00444746  0.38999594  -0.00025067  1
  Pd  Pd157  1  0.20329798  0.79456827  0.79550501  1
  Pd  Pd158  1  0.40765045  0.80161493  0.79743199  1
  Pd  Pd159  1  0.79906750  0.00496039  0.40816190  1
  Pd  Pd160  1  0.19867767  0.40829973  0.79772371  1
  Pd  Pd161  1  0.59860446  0.39502806  0.39794005  1
  Pd  Pd162  1  -0.00334074  -0.00580004  0.00209099  1
  Pd  Pd163  1  0.80755738  0.59409478  0.00149375  1
  Pd  Pd164  1  0.21009314  0.60129381  0.20955945  1
  Pd  Pd165  1  -0.00444590  0.20880768  0.60791290  1
  Pd  Pd166  1  0.21235434  -0.00445736  0.00331464  1
  Pd  Pd167  1  0.40010724  0.79847347  0.20231291  1
  Pd  Pd168  1  0.00537760  0.21128164  -0.00020203  1
  Pd  Pd169  1  0.79188469  0.40012319  -0.00820967  1
  Pd  Pd170  1  0.59003339  -0.00107158  0.40496755  1
  Pd  Pd171  1  0.40668458  0.59710541  0.59330151  1
  Pd  Pd172  1  0.20094482  0.00733688  0.80308950  1
  Pd  Pd173  1  0.80564462  0.00820693  0.80892565  1
  Pd  Pd174  1  0.40625856  0.59414981  0.79918883  1
  Pd  Pd175  1  0.19904597  0.59468685  0.80167286  1
  Pd  Pd176  1  -0.00754398  0.59242494  0.19818757  1
  Pd  Pd177  1  0.59731952  0.20403798  0.19426022  1
  Pd  Pd178  1  0.00979919  -0.00592235  0.61529829  1
  Pd  Pd179  1  0.19465323  -0.00573786  0.18719047  1
  Pd  Pd180  1  0.80960113  -0.00914301  0.19343843  1
  Pd  Pd181  1  0.39913706  0.80577658  0.60851721  1
  Pd  Pd182  1  0.39910151  0.39914852  0.00594341  1
  Pd  Pd183  1  0.59553705  0.01014945  0.20343463  1
  Pd  Pd184  1  0.60332482  0.59820170  0.59384169  1
  Pd  Pd185  1  -0.01341189  0.60558154  0.59220133  1
  Pd  Pd186  1  0.79432558  0.59721784  0.40015419  1
  Pd  Pd187  1  0.59654145  0.39772696  0.19140734  1
  Pd  Pd188  1  0.40660042  0.40178260  0.79460956  1
  Pd  Pd189  1  0.39638783  0.19749229  0.20406204  1
  Pd  Pd190  1  0.19699269  0.79788502  0.20200764  1
  Pd  Pd191  1  0.60733250  -0.00530696  0.79061720  1
  Pd  Pd192  1  0.00466838  0.39252024  0.60068874  1
  Pd  Pd193  1  0.59162445  0.38935265  0.80314749  1
  Pd  Pd194  1  -0.00299956  0.39545732  0.19379914  1
  Pd  Pd195  1  0.20535771  0.59876935  0.59347037  1
  Pd  Pd196  1  -0.00115956  0.60358215  0.80684758  1
  Pd  Pd197  1  0.59750864  0.81497805  0.60973254  1
  Pd  Pd198  1  0.20072006  0.39261691  0.00183774  1
  Pd  Pd199  1  0.20535116  0.39726846  0.19371841  1
  Rh  Rh200  1  0.00094675  0.19209973  0.39047467  1
  Rh  Rh201  1  0.59586906  0.39317104  0.60459597  1
  Rh  Rh202  1  0.80350318  0.39667230  0.60452234  1
  Rh  Rh203  1  0.39130655  0.19150996  0.40226331  1
  Rh  Rh204  1  0.19780013  0.60060461  -0.00450157  1
  Rh  Rh205  1  0.40029421  0.58988521  0.00636756  1
  Rh  Rh206  1  -0.00519159  0.00425044  0.39162649  1
  Rh  Rh207  1  0.19922524  0.20774482  0.59076029  1
  Rh  Rh208  1  0.59705806  0.20398449  0.80097971  1
  Rh  Rh209  1  0.79515443  0.01247839  0.59460995  1
  Rh  Rh210  1  0.58955328  0.59610206  0.00171275  1
  Rh  Rh211  1  0.00441647  0.40138352  0.80727833  1
  Rh  Rh212  1  0.80797792  0.79320686  0.59747884  1
  Rh  Rh213  1  0.59900393  -0.00183676  0.60413399  1
  Rh  Rh214  1  0.78797835  0.81369293  0.00496595  1
  Rh  Rh215  1  0.39881227  0.19217452  0.60096445  1
  Rh  Rh216  1  0.79706413  0.39008557  0.39442371  1
  Rh  Rh217  1  0.60342663  0.80913410  0.40489182  1
  Rh  Rh218  1  0.40282159  0.00776235  0.59195248  1
  Rh  Rh219  1  0.59146103  0.60680184  0.79939964  1
  Rh  Rh220  1  0.39330797  0.00566816  0.80333521  1
  Rh  Rh221  1  0.60697145  0.20068022  0.60077890  1
  Rh  Rh222  1  0.39012190  0.81564672  0.39254325  1
  Rh  Rh223  1  0.39450546  0.40439330  0.19957677  1
  Rh  Rh224  1  0.00310134  0.40109183  0.40453929  1
  Rh  Rh225  1  0.80189493  0.40483060  0.80309671  1
  Rh  Rh226  1  0.00971732  0.78944425  -0.00489527  1
  Rh  Rh227  1  0.40085593  0.00459929  0.20076015  1
  Rh  Rh228  1  0.00008497  0.19731643  0.80335419  1
  Rh  Rh229  1  0.79438937  0.81358725  0.39716547  1
  Rh  Rh230  1  0.00159102  0.60250159  -0.00365558  1
  Rh  Rh231  1  0.80533463  0.19518397  0.79437954  1
  Rh  Rh232  1  -0.00868812  0.80764811  0.20154220  1
  Rh  Rh233  1  0.79003989  0.19448468  -0.00579814  1
  Rh  Rh234  1  0.60854531  0.20374414  0.40066606  1
  Rh  Rh235  1  0.60471511  0.79804543  0.18991782  1
  Rh  Rh236  1  0.00381941  0.58958746  0.40057880  1
  Rh  Rh237  1  0.19613961  0.20132041  0.20830830  1
  Rh  Rh238  1  0.39830752  0.39491855  0.60448146  1
  Rh  Rh239  1  0.20243020  0.20671878  -0.00411730  1
  Rh  Rh240  1  0.20092103  0.38980964  0.41340009  1
  Rh  Rh241  1  0.00352774  0.81264129  0.40932579  1
  Rh  Rh242  1  0.40738873  0.81190563  -0.00619444  1
  Rh  Rh243  1  0.79031583  0.79835266  0.79896804  1
  Rh  Rh244  1  0.20132665  -0.00182897  0.40181820  1
  Rh  Rh245  1  0.39727801  0.19235447  0.79262552  1
  Rh  Rh246  1  0.20442938  0.19686372  0.80613255  1
  Rh  Rh247  1  0.20108600  0.79182871  -0.00174728  1
  Rh  Rh248  1  0.40188465  0.19346099  0.00214202  1
  Rh  Rh249  1  0.80887054  0.20094862  0.21265443  1
