# generated using pymatgen
data_ZrScNbPdRh
_symmetry_space_group_name_H-M   'P 1'
_cell_length_a   16.55833987
_cell_length_b   16.56257278
_cell_length_c   16.55709193
_cell_angle_alpha   89.95990074
_cell_angle_beta   89.98317669
_cell_angle_gamma   90.01056824
_symmetry_Int_Tables_number   1
_chemical_formula_structural   ZrScNbPdRh
_chemical_formula_sum   'Zr50 Sc50 Nb50 Pd50 Rh50'
_cell_volume   4540.75970469
_cell_formula_units_Z   50
loop_
 _symmetry_equiv_pos_site_id
 _symmetry_equiv_pos_as_xyz
  1  'x, y, z'
loop_
 _atom_site_type_symbol
 _atom_site_label
 _atom_site_symmetry_multiplicity
 _atom_site_fract_x
 _atom_site_fract_y
 _atom_site_fract_z
 _atom_site_occupancy
  Zr  Zr0  1  0.69800368  0.30589243  0.11464512  1
  Zr  Zr1  1  0.10109446  0.10337118  0.29898341  1
  Zr  Zr2  1  0.49403263  0.28879323  0.70398989  1
  Zr  Zr3  1  0.70634261  0.90315019  0.69395536  1
  Zr  Zr4  1  0.09642567  0.70502222  0.69515004  1
  Zr  Zr5  1  0.69459395  0.48413368  0.30066155  1
  Zr  Zr6  1  0.50075444  0.70684410  0.70199405  1
  Zr  Zr7  1  0.90869487  0.70657004  0.30169585  1
  Zr  Zr8  1  0.71101899  0.50055405  0.70621882  1
  Zr  Zr9  1  0.70263198  0.49660890  0.90676619  1
  Zr  Zr10  1  0.09702987  0.50732242  0.50414698  1
  Zr  Zr11  1  0.90477742  0.70640445  0.90765083  1
  Zr  Zr12  1  0.52007241  0.30567003  0.29439831  1
  Zr  Zr13  1  0.49135460  0.10359620  0.89226483  1
  Zr  Zr14  1  0.28294449  0.49380612  0.69752514  1
  Zr  Zr15  1  0.90615137  0.89957413  0.70803176  1
  Zr  Zr16  1  0.09957905  0.10404678  0.50266728  1
  Zr  Zr17  1  0.90387604  0.90294499  0.30030695  1
  Zr  Zr18  1  0.08967230  0.90921647  0.89496942  1
  Zr  Zr19  1  0.50300134  0.70798374  0.50128211  1
  Zr  Zr20  1  0.09283710  0.70193133  0.49473204  1
  Zr  Zr21  1  0.09171933  0.30640248  0.29427034  1
  Zr  Zr22  1  0.89493519  0.49423026  0.89444745  1
  Zr  Zr23  1  0.08788917  0.70076504  0.10250411  1
  Zr  Zr24  1  0.30636677  0.70179342  0.48388809  1
  Zr  Zr25  1  0.29778920  0.09611046  0.48549985  1
  Zr  Zr26  1  0.49364743  0.30048333  0.90889499  1
  Zr  Zr27  1  0.70242889  0.29933542  0.90335319  1
  Zr  Zr28  1  0.69925595  0.69982547  0.09936418  1
  Zr  Zr29  1  0.50492995  0.70890830  0.09962883  1
  Zr  Zr30  1  0.70417889  0.29201611  0.70370821  1
  Zr  Zr31  1  0.90447700  0.49984082  0.69443877  1
  Zr  Zr32  1  0.30652744  0.29170954  0.09508102  1
  Zr  Zr33  1  0.10843696  0.70461101  0.89809294  1
  Zr  Zr34  1  0.89579920  0.10520307  0.69016788  1
  Zr  Zr35  1  0.70337032  0.10267139  0.89828583  1
  Zr  Zr36  1  0.49376875  0.29830470  0.50326335  1
  Zr  Zr37  1  0.49928069  0.09314140  0.70168127  1
  Zr  Zr38  1  0.09903201  0.49761351  0.30444543  1
  Zr  Zr39  1  0.90558697  0.30250606  0.90880248  1
  Zr  Zr40  1  0.29397902  0.89952499  0.30327089  1
  Zr  Zr41  1  0.09323327  0.29414103  0.10031764  1
  Zr  Zr42  1  0.70655490  0.70619779  0.50339371  1
  Zr  Zr43  1  0.28560435  0.29779665  0.30546234  1
  Zr  Zr44  1  0.50015710  0.50484638  0.49087341  1
  Zr  Zr45  1  0.30164315  0.90487272  0.69231144  1
  Zr  Zr46  1  0.49613750  0.70413740  0.89983854  1
  Zr  Zr47  1  0.49423413  0.09514321  0.30022027  1
  Zr  Zr48  1  0.49036028  0.10209129  0.11063145  1
  Zr  Zr49  1  0.90233788  0.09616032  0.49720504  1
  Sc  Sc50  1  0.50671808  0.90374340  0.29865750  1
  Sc  Sc51  1  0.49321172  0.08997925  0.49831475  1
  Sc  Sc52  1  0.70087847  0.70457034  0.89750395  1
  Sc  Sc53  1  0.10162640  0.49086520  0.89499481  1
  Sc  Sc54  1  0.90167029  0.29858147  0.10188087  1
  Sc  Sc55  1  0.29519368  0.89438923  0.90151296  1
  Sc  Sc56  1  0.29542144  0.49544632  0.10262213  1
  Sc  Sc57  1  0.90606038  0.29298506  0.50206486  1
  Sc  Sc58  1  0.70420695  0.30934116  0.49080630  1
  Sc  Sc59  1  0.30061542  0.29380670  0.89982320  1
  Sc  Sc60  1  0.10412846  0.29302089  0.90186303  1
  Sc  Sc61  1  0.10339209  0.30932035  0.70234583  1
  Sc  Sc62  1  0.28089608  0.70825666  0.09682228  1
  Sc  Sc63  1  0.70733532  0.08141881  0.50529865  1
  Sc  Sc64  1  0.30503709  0.09434977  0.70606719  1
  Sc  Sc65  1  0.10030122  0.90001621  0.09841766  1
  Sc  Sc66  1  0.09647262  0.89331751  0.30055099  1
  Sc  Sc67  1  0.10708111  0.89780392  0.70150018  1
  Sc  Sc68  1  0.28780322  0.50347704  0.30290344  1
  Sc  Sc69  1  0.89653392  0.89752914  0.90076161  1
  Sc  Sc70  1  0.50759327  0.49811780  0.09455322  1
  Sc  Sc71  1  0.09612779  0.49629445  0.10858018  1
  Sc  Sc72  1  0.29055563  0.70963050  0.70240946  1
  Sc  Sc73  1  0.70489445  0.70526876  0.70321795  1
  Sc  Sc74  1  0.90462070  0.49929342  0.08609713  1
  Sc  Sc75  1  0.49987525  0.49599275  0.90808432  1
  Sc  Sc76  1  0.90926643  0.10670326  0.10298904  1
  Sc  Sc77  1  0.90202673  0.10151731  0.30300194  1
  Sc  Sc78  1  0.30568425  0.90340162  0.49733420  1
  Sc  Sc79  1  0.70726298  0.09995347  0.30098201  1
  Sc  Sc80  1  0.90240955  0.51065430  0.50060979  1
  Sc  Sc81  1  0.49841708  0.50143223  0.70250241  1
  Sc  Sc82  1  0.50208438  0.69655678  0.31011077  1
  Sc  Sc83  1  0.49558399  0.90006699  0.69264895  1
  Sc  Sc84  1  0.29266784  0.49797293  0.49867531  1
  Sc  Sc85  1  0.89684856  0.70801714  0.69476734  1
  Sc  Sc86  1  0.29132843  0.09966155  0.90374764  1
  Sc  Sc87  1  0.69598975  0.89107560  0.10455906  1
  Sc  Sc88  1  0.10030898  0.30013690  0.48810112  1
  Sc  Sc89  1  0.90061888  0.09188175  0.90689544  1
  Sc  Sc90  1  0.90321447  0.88407864  0.09791307  1
  Sc  Sc91  1  0.49294728  0.89308552  0.89792900  1
  Sc  Sc92  1  0.69777911  0.70048786  0.30131609  1
  Sc  Sc93  1  0.69632597  0.89819312  0.30433768  1
  Sc  Sc94  1  0.71093612  0.50643468  0.49596468  1
  Sc  Sc95  1  0.29262286  0.49644923  0.90316911  1
  Sc  Sc96  1  0.90064300  0.30163784  0.69648947  1
  Sc  Sc97  1  0.89219881  0.89704062  0.49637049  1
  Sc  Sc98  1  0.11155787  0.90220280  0.49925286  1
  Sc  Sc99  1  0.70889481  0.10016994  0.10183188  1
  Nb  Nb100  1  0.30180406  0.09537053  0.29723853  1
  Nb  Nb101  1  0.89551713  0.69845499  0.49773672  1
  Nb  Nb102  1  0.29754903  0.70229384  0.29608598  1
  Nb  Nb103  1  0.69151459  0.89728048  0.50374162  1
  Nb  Nb104  1  0.70802071  0.29936620  0.30065441  1
  Nb  Nb105  1  0.30084442  0.90294492  0.10201881  1
  Nb  Nb106  1  0.10258321  0.09702321  0.70228895  1
  Nb  Nb107  1  0.30210039  0.30302944  0.69176968  1
  Nb  Nb108  1  0.10616844  0.10114761  0.08812960  1
  Nb  Nb109  1  0.89984847  0.69807720  0.10042944  1
  Nb  Nb110  1  0.09631083  0.50827523  0.69682411  1
  Nb  Nb111  1  0.89310522  0.50332670  0.30196284  1
  Nb  Nb112  1  0.88438392  0.29998689  0.29541624  1
  Nb  Nb113  1  0.30008605  0.09765554  0.10488647  1
  Nb  Nb114  1  0.30015151  0.69887749  0.90363383  1
  Nb  Nb115  1  0.30131173  0.29744667  0.50285298  1
  Nb  Nb116  1  0.49794689  0.30075201  0.09703947  1
  Nb  Nb117  1  0.70526759  0.90647842  0.90044289  1
  Nb  Nb118  1  0.69775412  0.10028473  0.70022149  1
  Nb  Nb119  1  0.70242911  0.50365746  0.09831246  1
  Nb  Nb120  1  0.49667243  0.90116174  0.10227882  1
  Nb  Nb121  1  0.09860297  0.09746786  0.90186302  1
  Nb  Nb122  1  0.49607301  0.50041108  0.30113376  1
  Nb  Nb123  1  0.11133513  0.70289198  0.29801192  1
  Nb  Nb124  1  0.50980465  0.89800562  0.50493449  1
  Nb  Nb125  1  0.59486386  0.00184178  -0.00144619  1
  Nb  Nb126  1  0.59987466  0.59843754  0.60228528  1
  Nb  Nb127  1  0.00312752  0.59923702  0.79539271  1
  Nb  Nb128  1  0.39697147  0.39980180  0.79578424  1
  Nb  Nb129  1  0.60101829  0.39996944  0.60450866  1
  Nb  Nb130  1  0.60255566  0.19768907  0.59690556  1
  Nb  Nb131  1  0.60284588  0.19953099  0.40288812  1
  Nb  Nb132  1  0.40419582  0.40200747  0.20513193  1
  Nb  Nb133  1  0.39378870  0.60849517  0.00185791  1
  Nb  Nb134  1  0.20688655  0.20293321  0.60048177  1
  Nb  Nb135  1  0.39836919  0.60385688  0.19986460  1
  Nb  Nb136  1  0.39887537  0.39688490  0.39547380  1
  Nb  Nb137  1  0.80225941  0.59758834  0.19730149  1
  Nb  Nb138  1  0.20274623  0.00616809  0.19606544  1
  Nb  Nb139  1  0.00566578  0.19106095  0.79988475  1
  Nb  Nb140  1  0.80716176  -0.00558664  0.20128387  1
  Nb  Nb141  1  0.39958663  -0.00299531  0.00903915  1
  Nb  Nb142  1  0.19843080  0.39158067  0.00566330  1
  Nb  Nb143  1  0.00223868  0.00358989  0.60335285  1
  Nb  Nb144  1  0.40002510  0.60361906  0.60336449  1
  Nb  Nb145  1  0.39591305  0.79792015  0.19885300  1
  Nb  Nb146  1  0.59808950  0.39490139  0.79852899  1
  Nb  Nb147  1  0.59465114  0.19835897  0.00561268  1
  Nb  Nb148  1  0.39325590  0.59948456  0.80177688  1
  Nb  Nb149  1  0.60562922  0.00049096  0.80330544  1
  Pd  Pd150  1  0.20096072  0.59963964  0.19570783  1
  Pd  Pd151  1  0.80182890  0.00421205  0.79703285  1
  Pd  Pd152  1  0.40899680  0.80979030  0.39082796  1
  Pd  Pd153  1  0.39914778  0.21223810  0.21278836  1
  Pd  Pd154  1  0.81126808  0.60993246  0.80023646  1
  Pd  Pd155  1  0.79921728  0.39995424  0.59353758  1
  Pd  Pd156  1  0.20526804  -0.00429146  0.80324236  1
  Pd  Pd157  1  0.39590311  0.18465750  0.59957382  1
  Pd  Pd158  1  0.79952090  -0.00855579  0.01423583  1
  Pd  Pd159  1  0.40418063  0.41173237  0.59894604  1
  Pd  Pd160  1  0.59454814  0.59254656  0.80097400  1
  Pd  Pd161  1  -0.01188936  0.40041315  0.40063363  1
  Pd  Pd162  1  0.81250811  0.40122636  0.40798650  1
  Pd  Pd163  1  -0.00469661  0.20569434  0.39134839  1
  Pd  Pd164  1  0.00645449  -0.00640665  0.40812987  1
  Pd  Pd165  1  0.60234760  0.00623140  0.40230020  1
  Pd  Pd166  1  0.60545935  0.81304795  0.79948572  1
  Pd  Pd167  1  -0.01341734  0.40306047  0.20093830  1
  Pd  Pd168  1  0.61072138  0.60166954  0.40385002  1
  Pd  Pd169  1  -0.00329935  0.81090155  0.59151491  1
  Pd  Pd170  1  0.80902711  0.41061320  0.19177354  1
  Pd  Pd171  1  0.60458674  0.80996800  -0.00748687  1
  Pd  Pd172  1  0.79697522  0.80294225  0.39762521  1
  Pd  Pd173  1  0.59586546  0.60240053  -0.00537532  1
  Pd  Pd174  1  0.20599436  0.79709308  0.58904943  1
  Pd  Pd175  1  0.00858879  0.59314756  -0.01086737  1
  Pd  Pd176  1  0.00543594  0.39550935  0.59486530  1
  Pd  Pd177  1  0.60007860  0.59590421  0.20316757  1
  Pd  Pd178  1  0.39045899  0.80056845  0.79668150  1
  Pd  Pd179  1  -0.00616195  -0.00377713  0.00862660  1
  Pd  Pd180  1  0.79794990  0.20364187  0.00868909  1
  Pd  Pd181  1  0.19569876  0.59080197  0.00567397  1
  Pd  Pd182  1  0.40597356  0.20749856  0.39030232  1
  Pd  Pd183  1  0.19741586  0.19693008  0.19707858  1
  Pd  Pd184  1  0.19831430  0.60050563  0.79958798  1
  Pd  Pd185  1  0.80057036  0.60459004  0.00136966  1
  Pd  Pd186  1  0.00245661  0.39731470  0.79943061  1
  Pd  Pd187  1  0.00056525  0.60208328  0.39437719  1
  Pd  Pd188  1  0.19246981  0.80898110  -0.00134869  1
  Pd  Pd189  1  0.79452405  0.19608492  0.40673966  1
  Pd  Pd190  1  0.20761347  0.61225099  0.59351242  1
  Pd  Pd191  1  0.19917342  0.20304241  0.79257359  1
  Pd  Pd192  1  0.79924324  0.79869710  0.20223952  1
  Pd  Pd193  1  0.60696223  0.19038609  0.20163456  1
  Pd  Pd194  1  0.78944669  0.20150633  0.58649152  1
  Pd  Pd195  1  0.81593045  0.20100216  0.80499617  1
  Pd  Pd196  1  -0.00639500  0.59650938  0.20447867  1
  Pd  Pd197  1  0.18839513  0.39304060  0.59041781  1
  Pd  Pd198  1  0.00349810  0.00009603  0.19184826  1
  Pd  Pd199  1  0.61125619  0.00255756  0.19423047  1
  Rh  Rh200  1  0.19823180  0.80744549  0.20012453  1
  Rh  Rh201  1  0.79961689  0.39181248  0.79979373  1
  Rh  Rh202  1  0.20038314  0.20019512  0.00109282  1
  Rh  Rh203  1  0.38604431  0.20440517  0.79817128  1
  Rh  Rh204  1  0.60557292  0.79582777  0.60510144  1
  Rh  Rh205  1  0.01497159  0.19848035  0.61001356  1
  Rh  Rh206  1  0.80442679  0.19242246  0.20152450  1
  Rh  Rh207  1  0.00323094  0.80136256  0.40318699  1
  Rh  Rh208  1  0.38915915  0.40988910  0.00370497  1
  Rh  Rh209  1  0.60824565  0.39163716  0.00252460  1
  Rh  Rh210  1  -0.00432582  0.20159847  0.20562048  1
  Rh  Rh211  1  0.80368785  0.80444826  0.59760154  1
  Rh  Rh212  1  0.59594092  0.40988312  0.19137266  1
  Rh  Rh213  1  0.39827916  -0.00095048  0.59327217  1
  Rh  Rh214  1  0.20543765  0.39180632  0.19287881  1
  Rh  Rh215  1  0.79986872  0.80162593  0.80515133  1
  Rh  Rh216  1  0.60220155  0.19773005  0.80177525  1
  Rh  Rh217  1  0.00515175  0.80218856  -0.00126377  1
  Rh  Rh218  1  0.79988196  0.60416265  0.38948720  1
  Rh  Rh219  1  0.40512720  -0.00946974  0.39859854  1
  Rh  Rh220  1  0.00371069  0.79883864  0.20110560  1
  Rh  Rh221  1  0.59152621  0.79787498  0.20822057  1
  Rh  Rh222  1  0.59970335  0.80202477  0.40004359  1
  Rh  Rh223  1  0.00169995  0.19503352  -0.00807695  1
  Rh  Rh224  1  0.20476080  0.00032780  0.00395721  1
  Rh  Rh225  1  0.19499053  0.00167825  0.39010675  1
  Rh  Rh226  1  0.40141031  0.18689735  0.00022561  1
  Rh  Rh227  1  0.80865996  -0.00730958  0.60086211  1
  Rh  Rh228  1  0.39704782  0.79783183  0.59510860  1
  Rh  Rh229  1  -0.00692477  0.60854483  0.60374616  1
  Rh  Rh230  1  0.59675472  0.39650135  0.40846386  1
  Rh  Rh231  1  0.79873391  0.60559642  0.60206638  1
  Rh  Rh232  1  0.39429772  0.79918670  0.01001934  1
  Rh  Rh233  1  0.20034151  0.40174858  0.40534696  1
  Rh  Rh234  1  0.20005618  0.80677687  0.80266207  1
  Rh  Rh235  1  0.20673629  0.39262886  0.80701083  1
  Rh  Rh236  1  0.59810837  0.00205062  0.60615780  1
  Rh  Rh237  1  0.00258409  0.79281523  0.80306645  1
  Rh  Rh238  1  0.79759719  0.39677316  0.00829158  1
  Rh  Rh239  1  0.79551601  0.79836072  -0.00005959  1
  Rh  Rh240  1  0.39137564  -0.01037270  0.20321941  1
  Rh  Rh241  1  0.40025857  -0.00919441  0.80978960  1
  Rh  Rh242  1  -0.00412943  0.00886039  0.79369857  1
  Rh  Rh243  1  0.19802220  0.19785339  0.40289958  1
  Rh  Rh244  1  0.79673473  -0.00748119  0.39345261  1
  Rh  Rh245  1  0.19555536  0.60297823  0.39997145  1
  Rh  Rh246  1  0.00957119  0.40012509  -0.00092025  1
  Rh  Rh247  1  0.19748686  0.79834453  0.40171633  1
  Rh  Rh248  1  0.38983899  0.59052840  0.39547812  1
  Rh  Rh249  1  0.19926877  0.01010955  0.59936144  1
