# generated using pymatgen
data_ZrScNbPdRh
_symmetry_space_group_name_H-M   'P 1'
_cell_length_a   16.55375404
_cell_length_b   16.55396269
_cell_length_c   16.55466780
_cell_angle_alpha   90.03521550
_cell_angle_beta   90.01715736
_cell_angle_gamma   90.01046743
_symmetry_Int_Tables_number   1
_chemical_formula_structural   ZrScNbPdRh
_chemical_formula_sum   'Zr50 Sc50 Nb50 Pd50 Rh50'
_cell_volume   4536.47823674
_cell_formula_units_Z   50
loop_
 _symmetry_equiv_pos_site_id
 _symmetry_equiv_pos_as_xyz
  1  'x, y, z'
loop_
 _atom_site_type_symbol
 _atom_site_label
 _atom_site_symmetry_multiplicity
 _atom_site_fract_x
 _atom_site_fract_y
 _atom_site_fract_z
 _atom_site_occupancy
  Zr  Zr0  1  0.10752364  0.50357208  0.29368720  1
  Zr  Zr1  1  0.09773316  0.90031434  0.10503407  1
  Zr  Zr2  1  0.10318253  0.09444968  0.49769411  1
  Zr  Zr3  1  0.70243761  0.50323405  0.90440851  1
  Zr  Zr4  1  0.89415722  0.69478811  0.30123290  1
  Zr  Zr5  1  0.89951215  0.89667268  0.50177771  1
  Zr  Zr6  1  0.29840461  0.50510532  0.50273658  1
  Zr  Zr7  1  0.10043930  0.89670381  0.29765797  1
  Zr  Zr8  1  0.50157800  0.90369913  0.89737134  1
  Zr  Zr9  1  0.69794070  0.09516375  0.09931251  1
  Zr  Zr10  1  0.69357079  0.49212008  0.50231610  1
  Zr  Zr11  1  0.09658303  0.89228757  0.50453877  1
  Zr  Zr12  1  0.71221012  0.30312955  0.30263976  1
  Zr  Zr13  1  0.90021420  0.09802851  0.29540882  1
  Zr  Zr14  1  0.09696829  0.09175477  0.10350672  1
  Zr  Zr15  1  0.29916433  0.70388268  0.90367681  1
  Zr  Zr16  1  0.09955657  0.69588298  0.90003152  1
  Zr  Zr17  1  0.69958310  0.09865295  0.90203857  1
  Zr  Zr18  1  0.51360732  0.50503201  0.11128231  1
  Zr  Zr19  1  0.69593040  0.30417803  0.91378723  1
  Zr  Zr20  1  0.09680166  0.50431909  0.68851641  1
  Zr  Zr21  1  0.69268363  0.90426795  0.29617160  1
  Zr  Zr22  1  0.71402748  0.69992119  0.89882959  1
  Zr  Zr23  1  0.90602491  0.29070695  0.89787514  1
  Zr  Zr24  1  0.49623850  0.70047124  0.29435676  1
  Zr  Zr25  1  0.09187249  0.50406183  0.90472223  1
  Zr  Zr26  1  0.89785793  0.89745768  0.89926667  1
  Zr  Zr27  1  0.30349173  0.09151411  0.50374390  1
  Zr  Zr28  1  0.09904672  0.30154671  0.29663943  1
  Zr  Zr29  1  0.10807780  0.69449653  0.09519552  1
  Zr  Zr30  1  0.30164010  0.50582947  0.69814536  1
  Zr  Zr31  1  0.89642958  0.30462834  0.10387252  1
  Zr  Zr32  1  0.30108500  0.30207938  0.29384004  1
  Zr  Zr33  1  0.09633605  0.29813818  0.50388972  1
  Zr  Zr34  1  0.70187376  0.89817569  0.70718185  1
  Zr  Zr35  1  0.50157675  0.29909727  0.09738508  1
  Zr  Zr36  1  0.69834878  0.70201556  0.69764656  1
  Zr  Zr37  1  0.30990354  0.90408895  0.90338623  1
  Zr  Zr38  1  0.50530470  0.09276437  0.30086153  1
  Zr  Zr39  1  0.70484920  0.90160112  0.49422636  1
  Zr  Zr40  1  0.29254255  0.29322728  0.90258195  1
  Zr  Zr41  1  0.89997344  0.70867657  0.49333414  1
  Zr  Zr42  1  0.70404909  0.69317422  0.50454448  1
  Zr  Zr43  1  0.89430484  0.89578196  0.30801708  1
  Zr  Zr44  1  0.49601072  0.09570983  0.50032349  1
  Zr  Zr45  1  0.69661823  0.70271604  0.30167981  1
  Zr  Zr46  1  0.49562236  0.10445618  0.09718886  1
  Zr  Zr47  1  0.50410250  0.89570587  0.30938462  1
  Zr  Zr48  1  0.69837716  0.50153221  0.29785069  1
  Zr  Zr49  1  0.30204415  0.29700290  0.09694340  1
  Sc  Sc50  1  0.10211733  0.90266189  0.90241830  1
  Sc  Sc51  1  0.10514562  0.31019384  0.08897502  1
  Sc  Sc52  1  0.30230807  0.88735742  0.10364082  1
  Sc  Sc53  1  0.90365164  0.90712767  0.08693481  1
  Sc  Sc54  1  0.70628159  0.09014851  0.30038386  1
  Sc  Sc55  1  0.08636366  0.30043790  0.69828238  1
  Sc  Sc56  1  0.10186153  0.10970162  0.89845473  1
  Sc  Sc57  1  0.29742427  0.89418915  0.29883056  1
  Sc  Sc58  1  0.50136595  0.49751631  0.89140951  1
  Sc  Sc59  1  0.90329655  0.50277555  0.69952892  1
  Sc  Sc60  1  0.30453192  0.10596696  0.89816282  1
  Sc  Sc61  1  0.49382531  0.09560075  0.90287008  1
  Sc  Sc62  1  0.29667653  0.90592874  0.69484399  1
  Sc  Sc63  1  0.68888923  0.30698255  0.69050838  1
  Sc  Sc64  1  0.30434069  0.50420039  0.30294325  1
  Sc  Sc65  1  0.09808816  0.49882032  0.09775839  1
  Sc  Sc66  1  0.30284070  0.90273908  0.50298472  1
  Sc  Sc67  1  0.30210798  0.50522102  0.89734613  1
  Sc  Sc68  1  0.49718062  0.89830936  0.10202115  1
  Sc  Sc69  1  0.89780807  0.90220332  0.69841872  1
  Sc  Sc70  1  0.30219251  0.09833234  0.31324771  1
  Sc  Sc71  1  0.90113280  0.09539526  0.09183256  1
  Sc  Sc72  1  0.30254813  0.09857068  0.70654067  1
  Sc  Sc73  1  0.10531880  0.90107333  0.69415437  1
  Sc  Sc74  1  0.70291639  0.90268177  0.89723009  1
  Sc  Sc75  1  0.90059290  0.09399258  0.49751869  1
  Sc  Sc76  1  0.49738387  0.69897068  0.89962202  1
  Sc  Sc77  1  0.30347376  0.69983530  0.50998621  1
  Sc  Sc78  1  0.89131958  0.69520456  0.70341926  1
  Sc  Sc79  1  0.10293228  0.09566059  0.70326050  1
  Sc  Sc80  1  0.90036847  0.50210415  0.09834650  1
  Sc  Sc81  1  0.10297275  0.08974210  0.30460881  1
  Sc  Sc82  1  0.49648597  0.30225762  0.70235321  1
  Sc  Sc83  1  0.49565005  0.49893426  0.69588215  1
  Sc  Sc84  1  0.29662191  0.69890570  0.29115301  1
  Sc  Sc85  1  0.49342876  0.30784278  0.29622867  1
  Sc  Sc86  1  0.89938704  0.69104803  0.90144633  1
  Sc  Sc87  1  0.89795343  0.09986212  0.71325138  1
  Sc  Sc88  1  0.09897201  0.69243526  0.30063609  1
  Sc  Sc89  1  0.89665736  0.51235120  0.50138675  1
  Sc  Sc90  1  0.49561736  0.10054167  0.70410189  1
  Sc  Sc91  1  0.89974850  0.29726831  0.49750377  1
  Sc  Sc92  1  0.50595661  0.30306280  0.50960924  1
  Sc  Sc93  1  0.30631637  0.29532359  0.49877677  1
  Sc  Sc94  1  0.28582916  0.49874920  0.10351961  1
  Sc  Sc95  1  0.89834465  0.30422758  0.29867072  1
  Sc  Sc96  1  0.69641698  0.09784066  0.70514152  1
  Sc  Sc97  1  0.30110178  0.29629937  0.70485802  1
  Sc  Sc98  1  0.70210758  0.50271598  0.69047146  1
  Sc  Sc99  1  0.89860243  0.49951063  0.29318350  1
  Nb  Nb100  1  0.69746810  0.68994256  0.09391792  1
  Nb  Nb101  1  0.50178991  0.30218223  0.90134102  1
  Nb  Nb102  1  0.50586442  0.89933041  0.70048706  1
  Nb  Nb103  1  0.70013816  0.89599428  0.09787665  1
  Nb  Nb104  1  0.89735453  0.09486275  0.90328520  1
  Nb  Nb105  1  0.50190701  0.70371447  0.69478327  1
  Nb  Nb106  1  0.49915204  0.89876941  0.50085148  1
  Nb  Nb107  1  0.89424843  0.29803421  0.70181042  1
  Nb  Nb108  1  0.49678209  0.70055003  0.10107925  1
  Nb  Nb109  1  0.10281332  0.69525443  0.50204569  1
  Nb  Nb110  1  0.49596195  0.50570345  0.49399522  1
  Nb  Nb111  1  0.50094519  0.50518977  0.30693241  1
  Nb  Nb112  1  0.30717675  0.70298293  0.09800808  1
  Nb  Nb113  1  0.89436041  0.70346589  0.09488215  1
  Nb  Nb114  1  0.10665189  0.30398075  0.89807537  1
  Nb  Nb115  1  0.10880529  0.70397079  0.69584833  1
  Nb  Nb116  1  0.30527958  0.10699042  0.09772936  1
  Nb  Nb117  1  0.30308861  0.70056336  0.70494039  1
  Nb  Nb118  1  0.69695561  0.29648792  0.50245231  1
  Nb  Nb119  1  0.89981697  0.50700626  0.89036764  1
  Nb  Nb120  1  0.69913216  0.49479806  0.09631144  1
  Nb  Nb121  1  0.10519630  0.50554327  0.50008801  1
  Nb  Nb122  1  0.69687551  0.30597251  0.09947616  1
  Nb  Nb123  1  0.69330002  0.10440758  0.50550885  1
  Nb  Nb124  1  0.50506708  0.70653947  0.50315268  1
  Nb  Nb125  1  0.80508124  0.39574509  0.80088934  1
  Nb  Nb126  1  0.59829208  0.20606572  0.80861251  1
  Nb  Nb127  1  0.00567276  0.79437320  0.79784200  1
  Nb  Nb128  1  0.19785076  0.60154790  0.79366392  1
  Nb  Nb129  1  -0.00881662  0.79541247  0.19617006  1
  Nb  Nb130  1  0.20023602  0.19717027  0.19694292  1
  Nb  Nb131  1  0.19405996  0.79391419  0.40687112  1
  Nb  Nb132  1  0.40323340  0.40269666  0.00170690  1
  Nb  Nb133  1  0.40445043  0.79954117  0.79061320  1
  Nb  Nb134  1  0.19170689  0.40401347  0.80059960  1
  Nb  Nb135  1  0.60353759  0.79326949  0.00518301  1
  Nb  Nb136  1  0.79775851  0.79737521  0.18887328  1
  Nb  Nb137  1  0.59087614  0.59955737  0.40290188  1
  Nb  Nb138  1  0.40180506  0.60010784  0.00848674  1
  Nb  Nb139  1  0.20636694  0.00485685  0.00705747  1
  Nb  Nb140  1  0.60615481  0.20282194  0.39990524  1
  Nb  Nb141  1  0.79564913  0.20245153  0.60081712  1
  Nb  Nb142  1  0.40021384  0.00249446  0.20096015  1
  Nb  Nb143  1  0.19748324  0.19712221  0.59706296  1
  Nb  Nb144  1  0.59607912  -0.00571800  0.59890951  1
  Nb  Nb145  1  0.00493776  0.19965027  0.19715095  1
  Nb  Nb146  1  0.60684666  0.20328497  0.20195368  1
  Nb  Nb147  1  0.59969199  0.60641160  0.79262638  1
  Nb  Nb148  1  0.19620155  0.40338562  0.40546420  1
  Nb  Nb149  1  0.00912179  0.40805752  0.40361643  1
  Pd  Pd150  1  0.79585748  0.59991943  0.19350918  1
  Pd  Pd151  1  0.79840965  0.19276398  0.40757865  1
  Pd  Pd152  1  -0.00573183  0.79258903  0.61105202  1
  Pd  Pd153  1  0.39867901  0.61243559  0.40168939  1
  Pd  Pd154  1  -0.00158750  0.40172366  0.79921767  1
  Pd  Pd155  1  0.40718679  0.60320190  0.60009184  1
  Pd  Pd156  1  0.20223106  0.20516705  0.40083723  1
  Pd  Pd157  1  0.80135528  0.19831537  0.00529134  1
  Pd  Pd158  1  0.80658128  -0.00984187  0.19289154  1
  Pd  Pd159  1  0.60315996  0.39360357  0.20699265  1
  Pd  Pd160  1  -0.00374154  0.20289922  0.39162283  1
  Pd  Pd161  1  0.00002461  -0.00391701  0.39912099  1
  Pd  Pd162  1  0.60193280  0.79680009  0.19136541  1
  Pd  Pd163  1  0.60676036  0.80752018  0.59375334  1
  Pd  Pd164  1  0.00307665  -0.00685580  0.80291714  1
  Pd  Pd165  1  0.00023448  0.60412287  0.19246423  1
  Pd  Pd166  1  0.20252948  0.00141634  0.81010917  1
  Pd  Pd167  1  0.20241322  0.80294532  0.79777104  1
  Pd  Pd168  1  0.19863111  0.80854810  0.00148141  1
  Pd  Pd169  1  0.59484288  0.39645964  0.39821727  1
  Pd  Pd170  1  0.41165711  0.20614363  0.39918053  1
  Pd  Pd171  1  0.81156471  0.40469196  -0.00639260  1
  Pd  Pd172  1  0.79522773  0.00902215  0.60325901  1
  Pd  Pd173  1  0.00412512  0.19644482  0.79870483  1
  Pd  Pd174  1  -0.00254374  0.00479638  0.60603167  1
  Pd  Pd175  1  0.39368617  0.59331122  0.19455089  1
  Pd  Pd176  1  0.00020878  0.59542980  0.39882066  1
  Pd  Pd177  1  0.39739109  0.41303592  0.19335433  1
  Pd  Pd178  1  0.38982018  0.39548773  0.80728552  1
  Pd  Pd179  1  -0.00557485  0.61097462  0.60092642  1
  Pd  Pd180  1  0.39642345  0.80616157  0.60519449  1
  Pd  Pd181  1  0.60772394  0.40396231  0.79524822  1
  Pd  Pd182  1  0.38931982  0.79549269  0.39993993  1
  Pd  Pd183  1  0.20424047  0.38901622  0.60237943  1
  Pd  Pd184  1  0.81052534  0.40726672  0.40520138  1
  Pd  Pd185  1  0.21525787  0.00668367  0.19801014  1
  Pd  Pd186  1  0.39630760  0.39768496  0.40472765  1
  Pd  Pd187  1  0.39579653  0.19854815  0.60575197  1
  Pd  Pd188  1  -0.00754527  0.40170606  -0.00318006  1
  Pd  Pd189  1  0.80022792  0.19664812  0.19275249  1
  Pd  Pd190  1  0.39983367  0.39747558  0.59788167  1
  Pd  Pd191  1  0.80725943  0.39572844  0.60066796  1
  Pd  Pd192  1  0.00463547  0.20024229  0.00457076  1
  Pd  Pd193  1  0.59739987  0.79351000  0.81053258  1
  Pd  Pd194  1  -0.01208085  0.40306951  0.59131800  1
  Pd  Pd195  1  0.59799000  -0.00776763  0.00309663  1
  Pd  Pd196  1  0.78677763  0.20826782  0.79412595  1
  Pd  Pd197  1  -0.00588874  0.18894708  0.60564182  1
  Pd  Pd198  1  0.59333853  0.60127342  -0.00936530  1
  Pd  Pd199  1  0.00049303  0.79623193  -0.00285108  1
  Rh  Rh200  1  0.60183974  0.19329705  0.60611919  1
  Rh  Rh201  1  0.80369644  0.60110524  0.59918428  1
  Rh  Rh202  1  0.59227581  0.40853171  0.00201342  1
  Rh  Rh203  1  0.59296777  0.00369783  0.19064770  1
  Rh  Rh204  1  0.79673946  0.40652611  0.19559014  1
  Rh  Rh205  1  0.80236977  -0.00030450  0.80460967  1
  Rh  Rh206  1  0.39226684  -0.00254769  0.01160018  1
  Rh  Rh207  1  0.60318319  0.00484409  0.41098481  1
  Rh  Rh208  1  0.59879603  0.19840902  0.00110251  1
  Rh  Rh209  1  0.20032656  -0.01556792  0.40494377  1
  Rh  Rh210  1  0.59070877  0.40679132  0.59956775  1
  Rh  Rh211  1  0.81103439  0.80262026  0.79812645  1
  Rh  Rh212  1  0.79116910  0.58827593  0.79422650  1
  Rh  Rh213  1  0.41004274  0.79559244  -0.00462380  1
  Rh  Rh214  1  0.20731647  0.40783795  -0.01226645  1
  Rh  Rh215  1  0.39995971  -0.00691251  0.79383512  1
  Rh  Rh216  1  0.79420895  0.80118120  0.00301197  1
  Rh  Rh217  1  -0.00047219  0.39620023  0.20283603  1
  Rh  Rh218  1  0.00918343  0.79378833  0.39273253  1
  Rh  Rh219  1  0.79131940  0.79993380  0.39575864  1
  Rh  Rh220  1  0.79741523  -0.00134104  -0.00391336  1
  Rh  Rh221  1  0.20944206  0.59693282  -0.00326785  1
  Rh  Rh222  1  0.40354410  0.20706628  -0.01019683  1
  Rh  Rh223  1  0.19830956  0.00651839  0.59882073  1
  Rh  Rh224  1  0.19091162  0.79009048  0.20385676  1
  Rh  Rh225  1  0.80521092  0.59206848  0.00479166  1
  Rh  Rh226  1  0.20051095  0.39665706  0.20560437  1
  Rh  Rh227  1  0.60366766  0.79394671  0.40747635  1
  Rh  Rh228  1  0.40375645  0.80650740  0.20433214  1
  Rh  Rh229  1  0.40779496  -0.00467173  0.60605323  1
  Rh  Rh230  1  0.60350302  0.60386781  0.20678780  1
  Rh  Rh231  1  0.79822191  0.00526910  0.40373679  1
  Rh  Rh232  1  0.40949260  0.20285172  0.80471108  1
  Rh  Rh233  1  0.58991732  0.59606313  0.59775388  1
  Rh  Rh234  1  0.80186346  0.80005029  0.60175025  1
  Rh  Rh235  1  -0.00830332  0.59957669  0.00410841  1
  Rh  Rh236  1  0.19120349  0.20986241  0.78597999  1
  Rh  Rh237  1  0.19265269  0.19143471  0.00854919  1
  Rh  Rh238  1  0.20335102  0.60775315  0.60351831  1
  Rh  Rh239  1  0.20579896  0.79802544  0.59492426  1
  Rh  Rh240  1  0.79164661  0.59472319  0.40079739  1
  Rh  Rh241  1  0.59643352  0.00962769  0.79483142  1
  Rh  Rh242  1  0.39990458  0.18892259  0.21121644  1
  Rh  Rh243  1  0.20337925  0.60337934  0.19587861  1
  Rh  Rh244  1  0.40260809  0.61097971  0.80236333  1
  Rh  Rh245  1  0.00826342  0.60858300  0.79113950  1
  Rh  Rh246  1  0.20648647  0.60318982  0.40398202  1
  Rh  Rh247  1  0.00854969  0.00576731  -0.01306232  1
  Rh  Rh248  1  0.39687758  -0.01155802  0.39351144  1
  Rh  Rh249  1  -0.01027991  -0.00523307  0.20609891  1
