# generated using pymatgen
data_ZrScNbPdRh
_symmetry_space_group_name_H-M   'P 1'
_cell_length_a   16.55265879
_cell_length_b   16.55546008
_cell_length_c   16.55315500
_cell_angle_alpha   90.00406305
_cell_angle_beta   90.01225709
_cell_angle_gamma   89.99650070
_symmetry_Int_Tables_number   1
_chemical_formula_structural   ZrScNbPdRh
_chemical_formula_sum   'Zr50 Sc50 Nb50 Pd50 Rh50'
_cell_volume   4536.17485811
_cell_formula_units_Z   50
loop_
 _symmetry_equiv_pos_site_id
 _symmetry_equiv_pos_as_xyz
  1  'x, y, z'
loop_
 _atom_site_type_symbol
 _atom_site_label
 _atom_site_symmetry_multiplicity
 _atom_site_fract_x
 _atom_site_fract_y
 _atom_site_fract_z
 _atom_site_occupancy
  Zr  Zr0  1  0.10551817  0.50033416  0.49624734  1
  Zr  Zr1  1  0.29485285  0.10189944  0.29656093  1
  Zr  Zr2  1  0.89803101  0.09595745  0.30140413  1
  Zr  Zr3  1  0.49746718  0.69791605  0.70024718  1
  Zr  Zr4  1  0.10083983  0.49627977  0.90103287  1
  Zr  Zr5  1  0.69932411  0.90576464  0.09796533  1
  Zr  Zr6  1  0.89774166  0.90476835  0.10532966  1
  Zr  Zr7  1  0.10703024  0.90045416  0.31205737  1
  Zr  Zr8  1  0.09657819  0.90528315  0.51122672  1
  Zr  Zr9  1  0.30872501  0.50200813  0.09765570  1
  Zr  Zr10  1  0.89785402  0.50092348  0.29698252  1
  Zr  Zr11  1  0.30315107  0.50027224  0.68758905  1
  Zr  Zr12  1  0.50898905  0.09810047  0.50729170  1
  Zr  Zr13  1  0.49089081  0.30062437  0.69634135  1
  Zr  Zr14  1  0.70375925  0.29558300  0.10669239  1
  Zr  Zr15  1  0.70397959  0.68667792  0.69124072  1
  Zr  Zr16  1  0.49952569  0.70049095  0.30178685  1
  Zr  Zr17  1  0.50228343  0.49915308  0.70090444  1
  Zr  Zr18  1  0.89389491  0.69665018  0.30417253  1
  Zr  Zr19  1  0.90907203  0.88785310  0.68691823  1
  Zr  Zr20  1  0.49723254  0.70019852  0.89461752  1
  Zr  Zr21  1  0.10535084  0.69201926  0.49777682  1
  Zr  Zr22  1  0.90657805  0.10483666  0.49387005  1
  Zr  Zr23  1  0.30834880  0.10338986  0.71038026  1
  Zr  Zr24  1  0.50529584  0.49805154  0.90910401  1
  Zr  Zr25  1  0.88928163  0.49672593  0.89705347  1
  Zr  Zr26  1  0.90839043  0.70564365  0.11107029  1
  Zr  Zr27  1  0.70362443  0.09629790  0.89552777  1
  Zr  Zr28  1  0.29956138  0.49800318  0.31133484  1
  Zr  Zr29  1  0.89707461  0.30576240  0.29935099  1
  Zr  Zr30  1  0.10504861  0.10437919  0.10559941  1
  Zr  Zr31  1  0.90248658  0.29701564  0.89562855  1
  Zr  Zr32  1  0.69803262  0.49589713  0.09205420  1
  Zr  Zr33  1  0.69630676  0.29698986  0.29916434  1
  Zr  Zr34  1  0.89570802  0.29818565  0.49962629  1
  Zr  Zr35  1  0.10791594  0.10041941  0.70250891  1
  Zr  Zr36  1  0.50452066  0.10051541  0.09816095  1
  Zr  Zr37  1  0.69437841  0.31336248  0.89839541  1
  Zr  Zr38  1  0.89830958  0.10415236  0.09883197  1
  Zr  Zr39  1  0.30377408  0.69829560  0.69717460  1
  Zr  Zr40  1  0.49624975  0.50332195  0.29261954  1
  Zr  Zr41  1  0.50376460  0.29620006  0.49884603  1
  Zr  Zr42  1  0.30295902  0.90679082  0.90130845  1
  Zr  Zr43  1  0.29247260  0.89430900  0.49359538  1
  Zr  Zr44  1  0.69801048  0.50276976  0.30656078  1
  Zr  Zr45  1  0.89769858  0.69737780  0.90264226  1
  Zr  Zr46  1  0.70182566  0.30036278  0.49681091  1
  Zr  Zr47  1  0.08835154  0.30178980  0.50199293  1
  Zr  Zr48  1  0.90105066  0.90279957  0.49686432  1
  Zr  Zr49  1  0.10949494  0.90026744  0.89609744  1
  Sc  Sc50  1  0.69259034  0.89853791  0.49620291  1
  Sc  Sc51  1  0.89699898  0.09792514  0.90370403  1
  Sc  Sc52  1  0.51087914  0.10507544  0.30511909  1
  Sc  Sc53  1  0.29811757  0.89660387  0.69972768  1
  Sc  Sc54  1  0.10606914  0.70389336  0.89988375  1
  Sc  Sc55  1  0.70974036  0.49574629  0.69719175  1
  Sc  Sc56  1  0.69677962  0.10133708  0.69527126  1
  Sc  Sc57  1  0.30138631  0.32080756  0.49938832  1
  Sc  Sc58  1  0.50722989  0.89736509  0.89971082  1
  Sc  Sc59  1  0.88733425  0.11106075  0.70534658  1
  Sc  Sc60  1  0.69736768  0.90162644  0.90146303  1
  Sc  Sc61  1  0.70389876  0.70148351  0.10063544  1
  Sc  Sc62  1  0.09759052  0.29640685  0.10346827  1
  Sc  Sc63  1  0.29915455  0.70007661  0.88389082  1
  Sc  Sc64  1  0.70869013  0.29388022  0.69399987  1
  Sc  Sc65  1  0.30030721  0.50198315  0.90057329  1
  Sc  Sc66  1  0.29640348  0.30624687  0.29876867  1
  Sc  Sc67  1  0.30734276  0.29949710  0.90035651  1
  Sc  Sc68  1  0.50165029  0.89867855  0.69997133  1
  Sc  Sc69  1  0.29880238  0.89667813  0.10601589  1
  Sc  Sc70  1  0.69467608  0.69503596  0.49561465  1
  Sc  Sc71  1  0.50449131  0.30764284  0.30195718  1
  Sc  Sc72  1  0.30108813  0.30134132  0.10015297  1
  Sc  Sc73  1  0.50516719  0.70208583  0.49981371  1
  Sc  Sc74  1  0.49964971  0.31075154  0.10273475  1
  Sc  Sc75  1  0.09463718  0.50726382  0.31343164  1
  Sc  Sc76  1  0.69542993  0.90488862  0.70335735  1
  Sc  Sc77  1  0.50601431  0.89847472  0.49872842  1
  Sc  Sc78  1  0.70350904  0.90020566  0.30767539  1
  Sc  Sc79  1  0.90355672  0.30424091  0.69812513  1
  Sc  Sc80  1  0.70889500  0.10140838  0.10401006  1
  Sc  Sc81  1  0.49240213  0.50051252  0.49052034  1
  Sc  Sc82  1  0.90099085  0.48975411  0.49200599  1
  Sc  Sc83  1  0.09714698  0.49371428  0.69558924  1
  Sc  Sc84  1  0.30065862  0.08917444  0.51007348  1
  Sc  Sc85  1  0.70084674  0.69872600  0.90570055  1
  Sc  Sc86  1  0.89267734  0.70975688  0.50326404  1
  Sc  Sc87  1  0.89959104  0.89257905  0.30219664  1
  Sc  Sc88  1  0.10175918  0.09583642  0.89792510  1
  Sc  Sc89  1  0.10047990  0.29485637  0.29621474  1
  Sc  Sc90  1  0.30714308  0.71325774  0.29833527  1
  Sc  Sc91  1  0.49867856  0.31242152  0.89887777  1
  Sc  Sc92  1  0.10316105  0.88899308  0.09652120  1
  Sc  Sc93  1  0.90101565  0.90201901  0.90753734  1
  Sc  Sc94  1  0.49672986  0.90420993  0.09422890  1
  Sc  Sc95  1  0.30568509  0.09449686  0.09346622  1
  Sc  Sc96  1  0.08940996  0.70216761  0.29878388  1
  Sc  Sc97  1  0.10458564  0.71131384  0.70173117  1
  Sc  Sc98  1  0.48860559  0.09034804  0.90337800  1
  Sc  Sc99  1  0.29895821  0.69602509  0.50376776  1
  Nb  Nb100  1  0.69301198  0.49600080  0.50284301  1
  Nb  Nb101  1  0.69484567  0.09874047  0.49554048  1
  Nb  Nb102  1  0.89834974  0.50631616  0.70278670  1
  Nb  Nb103  1  0.48862740  0.68942703  0.10709592  1
  Nb  Nb104  1  0.29228630  0.09561625  0.90088206  1
  Nb  Nb105  1  0.10147443  0.10043247  0.30595310  1
  Nb  Nb106  1  0.89762210  0.69658545  0.69890601  1
  Nb  Nb107  1  0.09858905  0.29913153  0.89213726  1
  Nb  Nb108  1  0.50146197  0.10747777  0.69296641  1
  Nb  Nb109  1  0.30608503  0.90071295  0.29926361  1
  Nb  Nb110  1  0.10521001  0.50336394  0.09404315  1
  Nb  Nb111  1  0.69649459  0.69953935  0.30466529  1
  Nb  Nb112  1  0.69759675  0.10035251  0.29778098  1
  Nb  Nb113  1  0.49483925  0.50830537  0.10165628  1
  Nb  Nb114  1  0.90348899  0.49527312  0.10290070  1
  Nb  Nb115  1  0.10557650  0.69950395  0.10397897  1
  Nb  Nb116  1  0.10027767  0.09851623  0.49467919  1
  Nb  Nb117  1  0.29977666  0.70271547  0.10770806  1
  Nb  Nb118  1  0.09976239  0.29606456  0.70757402  1
  Nb  Nb119  1  0.49536440  0.89646126  0.30099930  1
  Nb  Nb120  1  0.28821362  0.50343986  0.49550672  1
  Nb  Nb121  1  0.29857702  0.29799273  0.70001587  1
  Nb  Nb122  1  0.09734817  0.89974167  0.69936695  1
  Nb  Nb123  1  0.89886981  0.30529906  0.10503517  1
  Nb  Nb124  1  0.69609235  0.49955471  0.89730141  1
  Nb  Nb125  1  0.19864469  0.20480608  0.60158678  1
  Nb  Nb126  1  -0.00619290  0.60151346  0.60501316  1
  Nb  Nb127  1  0.60050519  0.20166246  -0.00533273  1
  Nb  Nb128  1  0.59338690  0.19961442  0.80049479  1
  Nb  Nb129  1  0.19975742  0.19677345  0.41131848  1
  Nb  Nb130  1  0.60464972  0.59318214  0.80231642  1
  Nb  Nb131  1  0.20024656  0.60133655  0.19573180  1
  Nb  Nb132  1  0.39850463  0.79084990  0.00457885  1
  Nb  Nb133  1  0.59969569  0.39970080  0.59686574  1
  Nb  Nb134  1  0.00248359  -0.00605581  0.79264654  1
  Nb  Nb135  1  0.19725221  -0.00185338  0.20727001  1
  Nb  Nb136  1  -0.00181760  0.40063053  0.00471413  1
  Nb  Nb137  1  0.00694664  0.00084102  0.20464926  1
  Nb  Nb138  1  0.59508305  0.80036901  0.20268189  1
  Nb  Nb139  1  0.20061461  0.19886668  -0.00758524  1
  Nb  Nb140  1  0.79919188  0.00294208  0.59280421  1
  Nb  Nb141  1  0.00111078  0.59641348  0.00494108  1
  Nb  Nb142  1  0.19929263  0.39115138  0.79532482  1
  Nb  Nb143  1  0.40310679  0.19936981  0.20439135  1
  Nb  Nb144  1  0.40075485  -0.00075074  0.39465114  1
  Nb  Nb145  1  -0.00588421  0.59990872  0.79873685  1
  Nb  Nb146  1  0.19591326  0.41301801  0.19558491  1
  Nb  Nb147  1  0.80432252  0.79413324  0.79465296  1
  Nb  Nb148  1  0.39496486  0.19569272  0.40085151  1
  Nb  Nb149  1  0.60154536  -0.00348177  0.20567349  1
  Pd  Pd150  1  -0.00316095  0.18781471  0.80149845  1
  Pd  Pd151  1  0.00747239  0.59499555  0.19796626  1
  Pd  Pd152  1  0.19132347  0.59153979  0.79003914  1
  Pd  Pd153  1  0.00758878  -0.00120369  0.00185071  1
  Pd  Pd154  1  0.79482990  0.20566353  -0.00438309  1
  Pd  Pd155  1  0.79629960  0.19790649  0.39624385  1
  Pd  Pd156  1  0.39133696  0.60723041  -0.00905291  1
  Pd  Pd157  1  0.20093905  0.78990715  0.39704433  1
  Pd  Pd158  1  0.40583167  0.19937267  0.80990785  1
  Pd  Pd159  1  0.20389994  0.00159122  0.60755681  1
  Pd  Pd160  1  0.60699526  0.60521422  0.19734297  1
  Pd  Pd161  1  0.00365544  0.79588006  -0.00023334  1
  Pd  Pd162  1  0.79914918  0.39486580  0.79156535  1
  Pd  Pd163  1  0.79384965  0.59671853  0.19432481  1
  Pd  Pd164  1  0.61167975  0.79007026  0.79459472  1
  Pd  Pd165  1  0.59074825  0.00984443  0.79668028  1
  Pd  Pd166  1  0.80417760  0.39532026  0.00240367  1
  Pd  Pd167  1  0.60081661  0.40489747  0.19716299  1
  Pd  Pd168  1  0.40695112  -0.00446420  0.79623051  1
  Pd  Pd169  1  0.59003655  0.79158577  0.01115755  1
  Pd  Pd170  1  0.40410398  0.59789823  0.58922093  1
  Pd  Pd171  1  0.81232344  -0.01357247  0.79048938  1
  Pd  Pd172  1  0.40156372  0.80394146  0.59562578  1
  Pd  Pd173  1  0.78633858  0.80806112  0.60120923  1
  Pd  Pd174  1  0.60065950  0.60672709  -0.00013214  1
  Pd  Pd175  1  0.80065220  0.59788248  0.40950140  1
  Pd  Pd176  1  0.79653593  -0.00076365  0.40373842  1
  Pd  Pd177  1  0.80785549  0.59090987  0.58548512  1
  Pd  Pd178  1  0.00218001  0.19493040  0.60714136  1
  Pd  Pd179  1  0.19632382  0.39452233  0.60503373  1
  Pd  Pd180  1  0.79094666  0.80127721  0.20634009  1
  Pd  Pd181  1  0.38993699  0.40591508  0.80111943  1
  Pd  Pd182  1  0.38765887  0.20377483  0.58822543  1
  Pd  Pd183  1  0.01084604  0.40523250  0.20004874  1
  Pd  Pd184  1  0.00666644  0.20508853  -0.00253837  1
  Pd  Pd185  1  -0.00859624  0.01491578  0.60894989  1
  Pd  Pd186  1  0.40327194  -0.01060714  0.59644667  1
  Pd  Pd187  1  0.20366134  0.61025072  0.00034119  1
  Pd  Pd188  1  0.21148813  0.79383875  -0.00388761  1
  Pd  Pd189  1  -0.00581256  0.40568496  0.60319070  1
  Pd  Pd190  1  -0.00415495  0.79929706  0.80538235  1
  Pd  Pd191  1  0.80487445  0.60009058  0.01000315  1
  Pd  Pd192  1  0.60418950  0.79994960  0.60401129  1
  Pd  Pd193  1  0.00037064  0.79718739  0.40608007  1
  Pd  Pd194  1  0.40110662  0.20321041  0.00206267  1
  Pd  Pd195  1  0.19753387  0.38737878  -0.00154404  1
  Pd  Pd196  1  -0.00626643  0.19662962  0.20605879  1
  Pd  Pd197  1  0.79939769  0.80449322  -0.00390903  1
  Pd  Pd198  1  0.39614738  0.60801687  0.40197479  1
  Pd  Pd199  1  0.40332019  0.00594477  0.20370536  1
  Rh  Rh200  1  0.20692158  0.20577563  0.80429914  1
  Rh  Rh201  1  0.79275327  0.20606923  0.80685032  1
  Rh  Rh202  1  0.60753397  0.01040801  0.00584503  1
  Rh  Rh203  1  0.00257850  0.40604573  0.80271490  1
  Rh  Rh204  1  0.59973338  0.19939672  0.40018776  1
  Rh  Rh205  1  0.59727453  0.39784994  0.00993253  1
  Rh  Rh206  1  0.19256149  0.60061346  0.60635753  1
  Rh  Rh207  1  0.00159283  0.39622759  0.39329789  1
  Rh  Rh208  1  0.60075893  0.79811109  0.39323324  1
  Rh  Rh209  1  0.19886277  -0.00496543  0.79343728  1
  Rh  Rh210  1  0.79385370  0.40512954  0.20148790  1
  Rh  Rh211  1  0.80084489  0.00027193  0.20454171  1
  Rh  Rh212  1  0.39911448  0.80830777  0.80647599  1
  Rh  Rh213  1  0.19924194  0.00470543  0.01068424  1
  Rh  Rh214  1  0.40338015  0.40622385  0.59331008  1
  Rh  Rh215  1  0.59646336  0.19528427  0.19315695  1
  Rh  Rh216  1  0.20513436  0.80492626  0.79549203  1
  Rh  Rh217  1  0.79468535  0.60580263  0.80408384  1
  Rh  Rh218  1  0.00470340  0.20510705  0.39424748  1
  Rh  Rh219  1  0.60599481  0.20628413  0.60533141  1
  Rh  Rh220  1  0.40212099  0.80537786  0.40888463  1
  Rh  Rh221  1  0.19956053  0.79845943  0.60149196  1
  Rh  Rh222  1  0.79669806  0.19006758  0.58861856  1
  Rh  Rh223  1  0.79758593  -0.00061151  -0.00093223  1
  Rh  Rh224  1  0.40401889  0.40294648  0.00302513  1
  Rh  Rh225  1  0.59648412  0.59780141  0.40138368  1
  Rh  Rh226  1  0.79398533  0.79643148  0.40017962  1
  Rh  Rh227  1  0.19606116  0.80022936  0.20668509  1
  Rh  Rh228  1  0.00948556  0.78725530  0.59215698  1
  Rh  Rh229  1  0.40847389  0.80383338  0.19119812  1
  Rh  Rh230  1  0.38870263  0.59796897  0.20938889  1
  Rh  Rh231  1  0.20756157  0.60939904  0.38738676  1
  Rh  Rh232  1  0.40755359  0.59178785  0.80202424  1
  Rh  Rh233  1  -0.01153251  0.60567267  0.41161824  1
  Rh  Rh234  1  0.59644155  0.58984259  0.60078010  1
  Rh  Rh235  1  0.39699137  -0.00933360  -0.00027011  1
  Rh  Rh236  1  0.19011545  0.39238189  0.39340458  1
  Rh  Rh237  1  0.20950842  0.20033083  0.19423873  1
  Rh  Rh238  1  0.80561557  0.20025630  0.20524076  1
  Rh  Rh239  1  0.60559414  -0.00092253  0.60278358  1
  Rh  Rh240  1  0.80067293  0.40287131  0.59730896  1
  Rh  Rh241  1  0.59809853  0.40493789  0.40313376  1
  Rh  Rh242  1  0.79549549  0.40176850  0.39707454  1
  Rh  Rh243  1  -0.00065486  -0.00388541  0.39542654  1
  Rh  Rh244  1  0.39438484  0.39771120  0.19953136  1
  Rh  Rh245  1  0.59482574  -0.00198419  0.39299785  1
  Rh  Rh246  1  0.20818908  0.00527194  0.39908818  1
  Rh  Rh247  1  0.40369333  0.39687865  0.39934103  1
  Rh  Rh248  1  0.60672489  0.39916555  0.78443180  1
  Rh  Rh249  1  0.00551238  0.80892227  0.20136291  1
