# generated using pymatgen
data_ZrScNbPdRh
_symmetry_space_group_name_H-M   'P 1'
_cell_length_a   16.55154572
_cell_length_b   16.55141759
_cell_length_c   16.55159965
_cell_angle_alpha   89.99230210
_cell_angle_beta   90.01992259
_cell_angle_gamma   90.01142684
_symmetry_Int_Tables_number   1
_chemical_formula_structural   ZrScNbPdRh
_chemical_formula_sum   'Zr50 Sc50 Nb50 Pd50 Rh50'
_cell_volume   4534.33589366
_cell_formula_units_Z   50
loop_
 _symmetry_equiv_pos_site_id
 _symmetry_equiv_pos_as_xyz
  1  'x, y, z'
loop_
 _atom_site_type_symbol
 _atom_site_label
 _atom_site_symmetry_multiplicity
 _atom_site_fract_x
 _atom_site_fract_y
 _atom_site_fract_z
 _atom_site_occupancy
  Zr  Zr0  1  0.30030251  0.68303126  0.30037249  1
  Zr  Zr1  1  0.50879346  0.69765375  0.09942437  1
  Zr  Zr2  1  0.49530211  0.30843990  0.09824902  1
  Zr  Zr3  1  0.69508500  0.10666927  0.50755332  1
  Zr  Zr4  1  0.09398898  0.50589889  0.90207527  1
  Zr  Zr5  1  0.48997262  0.90004938  0.90444341  1
  Zr  Zr6  1  0.29648462  0.49388593  0.31177408  1
  Zr  Zr7  1  0.90909072  0.10697652  0.50883377  1
  Zr  Zr8  1  0.10228306  0.30553977  0.30336333  1
  Zr  Zr9  1  0.70240589  0.69370106  0.89775258  1
  Zr  Zr10  1  0.69749308  0.30699517  0.89602626  1
  Zr  Zr11  1  0.10123955  0.69243617  0.29955663  1
  Zr  Zr12  1  0.50734496  0.50105180  0.90292063  1
  Zr  Zr13  1  0.90738588  0.89225655  0.49767776  1
  Zr  Zr14  1  0.70514538  0.09634967  0.69668882  1
  Zr  Zr15  1  0.50443137  0.70404409  0.89642168  1
  Zr  Zr16  1  0.90399433  0.49475277  0.50864210  1
  Zr  Zr17  1  0.90683433  0.89391106  0.90298710  1
  Zr  Zr18  1  0.89304973  0.10107925  0.29418257  1
  Zr  Zr19  1  0.30023015  0.29810986  0.69604600  1
  Zr  Zr20  1  0.89519240  0.50209991  0.89424929  1
  Zr  Zr21  1  0.49912086  0.90095086  0.30757367  1
  Zr  Zr22  1  0.10277884  0.69711247  0.70290533  1
  Zr  Zr23  1  0.89468511  0.69623037  0.29757919  1
  Zr  Zr24  1  0.29323833  0.90016973  0.69791722  1
  Zr  Zr25  1  0.30575919  0.29823780  0.89870729  1
  Zr  Zr26  1  0.70484494  0.49359325  0.49897286  1
  Zr  Zr27  1  0.09492825  0.50527787  0.69988257  1
  Zr  Zr28  1  0.89725367  0.49355085  0.30340245  1
  Zr  Zr29  1  0.30267784  0.30743328  0.49596882  1
  Zr  Zr30  1  0.30220442  0.90213486  0.08756115  1
  Zr  Zr31  1  0.70209515  0.70101900  0.49874735  1
  Zr  Zr32  1  0.70071015  0.89768539  0.69952437  1
  Zr  Zr33  1  0.09943527  0.90519665  0.50897776  1
  Zr  Zr34  1  0.69680892  0.10509056  0.30644339  1
  Zr  Zr35  1  0.50017111  0.70388022  0.70032760  1
  Zr  Zr36  1  0.69228518  0.30571648  0.09825583  1
  Zr  Zr37  1  0.50310100  0.89712045  0.10052321  1
  Zr  Zr38  1  0.30241889  0.68921391  0.50425134  1
  Zr  Zr39  1  0.09467958  0.89811210  0.30609610  1
  Zr  Zr40  1  0.09781861  0.30507918  0.09798255  1
  Zr  Zr41  1  0.29904376  0.69213125  0.09428867  1
  Zr  Zr42  1  0.10022080  0.89691909  0.70264943  1
  Zr  Zr43  1  0.09735119  0.89792408  0.89458919  1
  Zr  Zr44  1  0.50011318  0.70796155  0.49984253  1
  Zr  Zr45  1  0.49947544  0.49949565  0.10143133  1
  Zr  Zr46  1  0.70131579  0.10536484  0.89171512  1
  Zr  Zr47  1  0.09074370  0.70518603  0.50406073  1
  Zr  Zr48  1  0.29265606  0.89683745  0.89479481  1
  Zr  Zr49  1  0.48709140  0.29408181  0.30271574  1
  Sc  Sc50  1  0.49727521  0.10250719  0.89262009  1
  Sc  Sc51  1  0.89397990  0.70211400  0.50547862  1
  Sc  Sc52  1  0.70620047  0.09705888  0.11590018  1
  Sc  Sc53  1  0.09303204  0.29839715  0.50565314  1
  Sc  Sc54  1  0.30435759  0.09256248  0.50615922  1
  Sc  Sc55  1  0.70540857  0.31706136  0.30002508  1
  Sc  Sc56  1  0.90100897  0.29797044  0.89165161  1
  Sc  Sc57  1  0.29005371  0.09485487  0.10316291  1
  Sc  Sc58  1  0.30230062  0.30685208  0.11033234  1
  Sc  Sc59  1  0.90331375  0.30370039  0.09803976  1
  Sc  Sc60  1  0.70294992  0.89076156  0.10640341  1
  Sc  Sc61  1  0.89498417  0.89398955  0.09722262  1
  Sc  Sc62  1  0.08692292  0.30642948  0.90561716  1
  Sc  Sc63  1  0.90070171  0.49903100  0.69769202  1
  Sc  Sc64  1  0.50037261  0.30175178  0.69976826  1
  Sc  Sc65  1  0.89745234  0.89569273  0.70588260  1
  Sc  Sc66  1  0.90003661  0.69754369  0.69639718  1
  Sc  Sc67  1  0.70484269  0.29555983  0.70054626  1
  Sc  Sc68  1  0.49972848  0.50491997  0.29568171  1
  Sc  Sc69  1  0.50593256  0.30173303  0.90117544  1
  Sc  Sc70  1  0.50408031  0.10262515  0.49553744  1
  Sc  Sc71  1  0.70812519  0.89303582  0.89096309  1
  Sc  Sc72  1  0.30477177  0.08903153  0.89613658  1
  Sc  Sc73  1  0.10039984  0.49826446  0.29647292  1
  Sc  Sc74  1  0.09698755  0.09695049  0.68838724  1
  Sc  Sc75  1  0.89631948  0.89792965  0.30163482  1
  Sc  Sc76  1  0.49799307  0.10093093  0.31087001  1
  Sc  Sc77  1  0.49988975  0.09964349  0.09892384  1
  Sc  Sc78  1  0.29969701  0.09678225  0.70464657  1
  Sc  Sc79  1  0.09283561  0.68520911  0.09443333  1
  Sc  Sc80  1  0.49756967  0.50065875  0.69193130  1
  Sc  Sc81  1  0.10402293  0.90646161  0.08447809  1
  Sc  Sc82  1  0.10560517  0.49824589  0.50166515  1
  Sc  Sc83  1  0.70945929  0.49842867  0.70666234  1
  Sc  Sc84  1  0.09934779  0.69631794  0.89676015  1
  Sc  Sc85  1  0.69833632  0.89607744  0.50673893  1
  Sc  Sc86  1  0.90685114  0.50891677  0.10153323  1
  Sc  Sc87  1  0.30455846  0.49842109  0.10215696  1
  Sc  Sc88  1  0.29373896  0.50564315  0.91165296  1
  Sc  Sc89  1  0.70078808  0.90378470  0.29523594  1
  Sc  Sc90  1  0.50613958  0.69368201  0.30383441  1
  Sc  Sc91  1  0.49628225  0.49824568  0.50304458  1
  Sc  Sc92  1  0.09161166  0.09013343  0.90642964  1
  Sc  Sc93  1  0.90638863  0.10338950  0.89761870  1
  Sc  Sc94  1  0.30267123  0.90328491  0.30394535  1
  Sc  Sc95  1  0.50227130  0.89258040  0.69966216  1
  Sc  Sc96  1  0.50761458  0.10040885  0.69880774  1
  Sc  Sc97  1  0.90011483  0.70247775  0.90449066  1
  Sc  Sc98  1  0.50809372  0.30115721  0.49972661  1
  Sc  Sc99  1  0.29644060  0.50640816  0.68209064  1
  Nb  Nb100  1  0.29849106  0.69616413  0.70580448  1
  Nb  Nb101  1  0.70302060  0.51129828  0.29507997  1
  Nb  Nb102  1  0.89197859  0.11600540  0.70084887  1
  Nb  Nb103  1  0.30130991  0.50327819  0.49824693  1
  Nb  Nb104  1  0.70388421  0.68798609  0.29621253  1
  Nb  Nb105  1  0.30425618  0.90016917  0.49717021  1
  Nb  Nb106  1  0.10425446  0.09852066  0.29473816  1
  Nb  Nb107  1  0.10307838  0.29986023  0.70292157  1
  Nb  Nb108  1  0.48284046  0.90005730  0.49497774  1
  Nb  Nb109  1  0.29569323  0.69908531  0.89182238  1
  Nb  Nb110  1  0.69945052  0.30097454  0.49627758  1
  Nb  Nb111  1  0.10089837  0.09676605  0.49495765  1
  Nb  Nb112  1  0.29850236  0.10406818  0.29933015  1
  Nb  Nb113  1  0.69602667  0.71000547  0.69556951  1
  Nb  Nb114  1  0.90223581  0.30717100  0.49557794  1
  Nb  Nb115  1  0.90102749  0.10142767  0.09848015  1
  Nb  Nb116  1  0.70497082  0.49756933  0.89995779  1
  Nb  Nb117  1  0.09488682  0.10270598  0.09837000  1
  Nb  Nb118  1  0.90536807  0.30204221  0.30928352  1
  Nb  Nb119  1  0.29918055  0.29390560  0.30451573  1
  Nb  Nb120  1  0.91071492  0.29406268  0.69437484  1
  Nb  Nb121  1  0.71232393  0.69890369  0.10887655  1
  Nb  Nb122  1  0.89884272  0.70529283  0.10104375  1
  Nb  Nb123  1  0.09573361  0.49610728  0.09061074  1
  Nb  Nb124  1  0.69792909  0.50083827  0.10702643  1
  Nb  Nb125  1  0.39554763  0.60047289  0.79996719  1
  Nb  Nb126  1  0.59843891  0.20618089  0.20346414  1
  Nb  Nb127  1  0.20293993  0.80211536  0.40250336  1
  Nb  Nb128  1  0.60759424  0.60621787  0.60076473  1
  Nb  Nb129  1  0.00480129  0.79948635  0.19665627  1
  Nb  Nb130  1  0.19820065  0.00216637  0.40058744  1
  Nb  Nb131  1  0.80450258  0.20843635  0.40528086  1
  Nb  Nb132  1  0.39514646  0.19980429  0.00149526  1
  Nb  Nb133  1  0.20065280  0.79855645  0.20014088  1
  Nb  Nb134  1  0.79766519  0.19995210  0.00183955  1
  Nb  Nb135  1  0.39605819  0.79903043  0.19890981  1
  Nb  Nb136  1  -0.00363570  0.59836125  0.40117788  1
  Nb  Nb137  1  0.39997238  0.20225645  0.59911209  1
  Nb  Nb138  1  0.80143248  0.00972206  0.40804025  1
  Nb  Nb139  1  0.00203524  0.19779115  0.20316641  1
  Nb  Nb140  1  0.19985642  0.19396372  0.39726049  1
  Nb  Nb141  1  0.79865795  0.00579799  0.00012577  1
  Nb  Nb142  1  0.19938734  0.20047647  -0.00185037  1
  Nb  Nb143  1  0.39824507  -0.00309395  0.20278984  1
  Nb  Nb144  1  0.00245747  0.00329911  0.19556817  1
  Nb  Nb145  1  0.19955467  0.39876603  0.79778402  1
  Nb  Nb146  1  0.39336258  0.40875981  0.79914929  1
  Nb  Nb147  1  0.19417853  0.20448637  0.80390962  1
  Nb  Nb148  1  0.79383398  0.40410646  -0.00165157  1
  Nb  Nb149  1  0.60807259  -0.00036263  -0.00253045  1
  Pd  Pd150  1  -0.00398605  0.00630938  0.39433797  1
  Pd  Pd151  1  0.00975033  0.19246062  0.79828237  1
  Pd  Pd152  1  0.40727986  0.40456875  0.40037678  1
  Pd  Pd153  1  0.00330059  0.19737685  0.39514154  1
  Pd  Pd154  1  0.80737269  0.40187950  0.19296787  1
  Pd  Pd155  1  0.80659386  0.59488381  0.40772262  1
  Pd  Pd156  1  0.80968520  0.00181604  0.80480631  1
  Pd  Pd157  1  0.20205190  0.39622399  -0.00330036  1
  Pd  Pd158  1  0.00034326  0.40117574  0.79497525  1
  Pd  Pd159  1  0.19647198  0.40199327  0.60040881  1
  Pd  Pd160  1  0.59991910  0.79225844  0.21007275  1
  Pd  Pd161  1  0.80221777  0.39182516  0.60765206  1
  Pd  Pd162  1  0.79236648  0.80658277  0.39581799  1
  Pd  Pd163  1  0.80190891  0.60687680  0.79218210  1
  Pd  Pd164  1  0.20263065  0.19252066  0.59725363  1
  Pd  Pd165  1  0.59828081  0.59476358  0.78950185  1
  Pd  Pd166  1  0.19975127  -0.00997087  0.20210776  1
  Pd  Pd167  1  0.40644765  0.00507009  0.60578142  1
  Pd  Pd168  1  0.80961309  -0.00611347  0.59595626  1
  Pd  Pd169  1  0.58901556  -0.00945378  0.59256947  1
  Pd  Pd170  1  0.20343414  0.40649575  0.19960471  1
  Pd  Pd171  1  0.40217305  0.19084908  0.19340960  1
  Pd  Pd172  1  0.60069216  0.18996397  0.00677460  1
  Pd  Pd173  1  0.59297224  0.39813475  0.21108400  1
  Pd  Pd174  1  -0.00984065  -0.00117986  0.61050811  1
  Pd  Pd175  1  0.59794284  0.59242729  0.40804172  1
  Pd  Pd176  1  0.61253184  0.80537370  -0.00478590  1
  Pd  Pd177  1  0.19621419  0.59118376  0.19093103  1
  Pd  Pd178  1  0.59882318  0.20315091  0.79223423  1
  Pd  Pd179  1  0.59666826  0.40373215  0.39242017  1
  Pd  Pd180  1  0.59531489  0.40558738  0.79074617  1
  Pd  Pd181  1  0.80057817  0.59691945  0.00734479  1
  Pd  Pd182  1  0.39854258  0.79076575  0.00071849  1
  Pd  Pd183  1  0.61010682  0.59856041  0.00584480  1
  Pd  Pd184  1  0.79999370  0.21211801  0.59446991  1
  Pd  Pd185  1  0.20607447  0.79487113  0.59623150  1
  Pd  Pd186  1  0.59670840  -0.00744145  0.80585243  1
  Pd  Pd187  1  0.60714557  0.80451353  0.39582111  1
  Pd  Pd188  1  0.60546014  -0.00737019  0.41004836  1
  Pd  Pd189  1  0.40231107  0.60296705  -0.00723972  1
  Pd  Pd190  1  0.39268367  0.80015467  0.60456879  1
  Pd  Pd191  1  -0.00591608  0.00770868  0.79027909  1
  Pd  Pd192  1  0.40557762  -0.00410669  0.78992152  1
  Pd  Pd193  1  0.80000960  0.21452778  0.20069353  1
  Pd  Pd194  1  0.39214722  0.79009847  0.39037119  1
  Pd  Pd195  1  0.59268062  0.00739902  0.19811023  1
  Pd  Pd196  1  0.19511698  0.20510996  0.19685132  1
  Pd  Pd197  1  0.19127825  0.78963425  0.00179548  1
  Pd  Pd198  1  0.60567433  0.40393657  0.60539042  1
  Pd  Pd199  1  -0.00300463  0.39786573  0.19965200  1
  Rh  Rh200  1  0.80274661  0.80192509  0.60371939  1
  Rh  Rh201  1  0.39437270  0.40499308  0.21063587  1
  Rh  Rh202  1  0.00360217  0.79625288  0.00641148  1
  Rh  Rh203  1  0.19752658  0.79848112  0.79870375  1
  Rh  Rh204  1  0.19719448  0.39456963  0.40476835  1
  Rh  Rh205  1  -0.00009564  0.59936844  0.59530794  1
  Rh  Rh206  1  0.39763363  0.20505872  0.79688970  1
  Rh  Rh207  1  0.80216409  0.79154731  0.79858430  1
  Rh  Rh208  1  0.40852311  0.60379844  0.60231040  1
  Rh  Rh209  1  0.20293708  0.00061625  0.59620585  1
  Rh  Rh210  1  0.60265579  0.80411082  0.80527760  1
  Rh  Rh211  1  -0.00770466  0.60433678  0.80104366  1
  Rh  Rh212  1  -0.00461870  0.80241138  0.60977724  1
  Rh  Rh213  1  -0.01016008  -0.00534557  0.00672040  1
  Rh  Rh214  1  0.60570765  0.41139350  0.00054628  1
  Rh  Rh215  1  0.39364879  0.00794965  0.39576011  1
  Rh  Rh216  1  -0.00540210  0.60113357  -0.00360543  1
  Rh  Rh217  1  0.80308312  0.79892932  0.20529902  1
  Rh  Rh218  1  0.79707234  0.80060460  -0.00221834  1
  Rh  Rh219  1  0.59579593  0.20420468  0.60249540  1
  Rh  Rh220  1  0.79887055  0.40008393  0.40122681  1
  Rh  Rh221  1  0.39317223  0.79715745  0.79830295  1
  Rh  Rh222  1  0.80176021  0.20552288  0.80172285  1
  Rh  Rh223  1  0.38947356  0.19460267  0.41240938  1
  Rh  Rh224  1  0.19209539  0.00733887  0.80089378  1
  Rh  Rh225  1  0.39943598  0.39512112  0.59961110  1
  Rh  Rh226  1  0.40782539  0.00873772  0.00558209  1
  Rh  Rh227  1  0.19628961  0.59907996  0.00113896  1
  Rh  Rh228  1  0.00660249  0.40964950  0.40356977  1
  Rh  Rh229  1  0.20737702  0.59014134  0.79990848  1
  Rh  Rh230  1  0.00423796  0.39613332  0.60350024  1
  Rh  Rh231  1  0.80869287  -0.00988555  0.19783390  1
  Rh  Rh232  1  0.19059685  0.60292553  0.41052405  1
  Rh  Rh233  1  0.40225840  0.39593399  -0.00742920  1
  Rh  Rh234  1  0.60348006  0.60247955  0.19611694  1
  Rh  Rh235  1  0.20004184  0.00973828  -0.00872524  1
  Rh  Rh236  1  0.59552197  0.80302641  0.59452909  1
  Rh  Rh237  1  0.80772479  0.39353158  0.79944178  1
  Rh  Rh238  1  0.00005669  0.79168782  0.79930389  1
  Rh  Rh239  1  0.00488345  0.20329385  0.60075603  1
  Rh  Rh240  1  -0.00300209  0.60220355  0.20375249  1
  Rh  Rh241  1  -0.01362168  0.40614118  -0.00222289  1
  Rh  Rh242  1  -0.00207946  0.20323226  0.00633641  1
  Rh  Rh243  1  0.80430641  0.59449401  0.19412123  1
  Rh  Rh244  1  0.60880950  0.21494939  0.39210809  1
  Rh  Rh245  1  0.79142239  0.60160982  0.60314723  1
  Rh  Rh246  1  0.19566184  0.60332779  0.59609104  1
  Rh  Rh247  1  0.00112332  0.78629202  0.39209445  1
  Rh  Rh248  1  0.40462877  0.60268163  0.19836966  1
  Rh  Rh249  1  0.40776622  0.59515770  0.40449835  1
