# generated using pymatgen
data_ZrScNbPdRh
_symmetry_space_group_name_H-M   'P 1'
_cell_length_a   16.55768181
_cell_length_b   16.56434633
_cell_length_c   16.56224538
_cell_angle_alpha   89.98167529
_cell_angle_beta   90.01510160
_cell_angle_gamma   90.01327389
_symmetry_Int_Tables_number   1
_chemical_formula_structural   ZrScNbPdRh
_chemical_formula_sum   'Zr50 Sc50 Nb50 Pd50 Rh50'
_cell_volume   4542.47975856
_cell_formula_units_Z   50
loop_
 _symmetry_equiv_pos_site_id
 _symmetry_equiv_pos_as_xyz
  1  'x, y, z'
loop_
 _atom_site_type_symbol
 _atom_site_label
 _atom_site_symmetry_multiplicity
 _atom_site_fract_x
 _atom_site_fract_y
 _atom_site_fract_z
 _atom_site_occupancy
  Zr  Zr0  1  0.70018752  0.30185772  0.88887708  1
  Zr  Zr1  1  0.70187180  0.70939808  0.50769485  1
  Zr  Zr2  1  0.10126578  0.29378243  0.88926609  1
  Zr  Zr3  1  0.49802381  0.70122303  0.10460988  1
  Zr  Zr4  1  0.29575200  0.50263499  0.10149086  1
  Zr  Zr5  1  0.89783821  0.49629235  0.89249438  1
  Zr  Zr6  1  0.89298806  0.10329171  0.09830547  1
  Zr  Zr7  1  0.90591087  0.49632501  0.49752491  1
  Zr  Zr8  1  0.70026556  0.10154559  0.69572417  1
  Zr  Zr9  1  0.09889611  0.89869585  0.49538962  1
  Zr  Zr10  1  0.69645035  0.70503015  0.70703184  1
  Zr  Zr11  1  0.50281379  0.10474567  0.10404460  1
  Zr  Zr12  1  0.30049480  0.90589486  0.29857066  1
  Zr  Zr13  1  0.49099928  0.89638006  0.10205420  1
  Zr  Zr14  1  0.10157407  0.49300071  0.89652393  1
  Zr  Zr15  1  0.10164212  0.90794195  0.69229602  1
  Zr  Zr16  1  0.88570860  0.69545716  0.09876051  1
  Zr  Zr17  1  0.71317653  0.50581719  0.10734506  1
  Zr  Zr18  1  0.70203011  0.49983709  0.89157444  1
  Zr  Zr19  1  0.09135873  0.90837399  0.30376804  1
  Zr  Zr20  1  0.70383665  0.49402236  0.51197890  1
  Zr  Zr21  1  0.50141877  0.70386147  0.89087798  1
  Zr  Zr22  1  0.89500981  0.90402102  0.30296776  1
  Zr  Zr23  1  0.89983524  0.89898761  0.50019771  1
  Zr  Zr24  1  0.48966382  0.90179853  0.90114899  1
  Zr  Zr25  1  0.09567315  0.30065800  0.10061899  1
  Zr  Zr26  1  0.89803506  0.71629528  0.70472008  1
  Zr  Zr27  1  0.50315227  0.89729309  0.30301395  1
  Zr  Zr28  1  0.11085816  0.29829409  0.69588440  1
  Zr  Zr29  1  0.90443358  0.29258183  0.69540422  1
  Zr  Zr30  1  0.29420531  0.90180179  0.09100397  1
  Zr  Zr31  1  0.10751303  0.49125355  0.49546989  1
  Zr  Zr32  1  0.29732441  0.71317892  0.89488948  1
  Zr  Zr33  1  0.30103271  0.71058609  0.70214125  1
  Zr  Zr34  1  0.89685639  0.29862538  0.49659314  1
  Zr  Zr35  1  0.30113272  0.49872169  0.89544879  1
  Zr  Zr36  1  0.70038749  0.29886322  0.68990086  1
  Zr  Zr37  1  0.50000488  0.50479683  0.10415222  1
  Zr  Zr38  1  0.09747789  0.50693089  0.29738068  1
  Zr  Zr39  1  0.90362969  0.29302605  0.90247505  1
  Zr  Zr40  1  0.70031641  0.89565158  0.69174863  1
  Zr  Zr41  1  0.90562136  0.09654437  0.90198695  1
  Zr  Zr42  1  0.29481967  0.70340869  0.49911357  1
  Zr  Zr43  1  0.70298941  0.49788247  0.30083895  1
  Zr  Zr44  1  0.69668225  0.09807810  0.50259500  1
  Zr  Zr45  1  0.29853745  0.29594196  0.50279169  1
  Zr  Zr46  1  0.69855183  0.90054947  0.31377796  1
  Zr  Zr47  1  0.49388859  0.50310352  0.30316236  1
  Zr  Zr48  1  0.89894045  0.49766948  0.28841180  1
  Zr  Zr49  1  0.70460709  0.89818524  0.10832848  1
  Sc  Sc50  1  0.71384980  0.29615382  0.30000530  1
  Sc  Sc51  1  0.69789446  0.71049412  0.29623458  1
  Sc  Sc52  1  0.30723788  0.49602159  0.49794387  1
  Sc  Sc53  1  0.09732379  0.70604464  0.49119294  1
  Sc  Sc54  1  0.09596043  0.10711175  0.70052949  1
  Sc  Sc55  1  0.70186536  0.09647884  0.90869023  1
  Sc  Sc56  1  0.10078718  0.30263453  0.49568234  1
  Sc  Sc57  1  0.89826340  0.90429128  0.09574010  1
  Sc  Sc58  1  0.50348016  0.70430268  0.70012796  1
  Sc  Sc59  1  0.09628266  0.70370419  0.89422271  1
  Sc  Sc60  1  0.90482352  0.29987552  0.29800500  1
  Sc  Sc61  1  0.49636835  0.29034251  0.09526069  1
  Sc  Sc62  1  0.09967106  0.49752225  0.70055867  1
  Sc  Sc63  1  0.30118113  0.09963561  0.68519629  1
  Sc  Sc64  1  0.90016922  0.10605823  0.50182265  1
  Sc  Sc65  1  0.49899805  0.69889860  0.29581317  1
  Sc  Sc66  1  0.48850046  0.09721798  0.30937756  1
  Sc  Sc67  1  0.50314262  0.29891200  0.69444182  1
  Sc  Sc68  1  0.09983897  0.69333489  0.10426319  1
  Sc  Sc69  1  0.49430052  0.49143526  0.88525357  1
  Sc  Sc70  1  0.51106502  0.90829294  0.50208744  1
  Sc  Sc71  1  0.09602167  0.70324001  0.70212272  1
  Sc  Sc72  1  0.30214388  0.29261208  0.09810230  1
  Sc  Sc73  1  0.29473464  0.28653926  0.30538091  1
  Sc  Sc74  1  0.70612016  0.09768293  0.09933686  1
  Sc  Sc75  1  0.30321678  0.49131034  0.70394859  1
  Sc  Sc76  1  0.10114223  0.10688605  0.29475831  1
  Sc  Sc77  1  0.09834342  0.10143094  0.50142246  1
  Sc  Sc78  1  0.10021129  0.09466955  0.10625403  1
  Sc  Sc79  1  0.29154789  0.69155177  0.30543157  1
  Sc  Sc80  1  0.69732002  0.90127525  0.89723609  1
  Sc  Sc81  1  0.49962107  0.90296464  0.70086563  1
  Sc  Sc82  1  0.50181590  0.09889701  0.69407531  1
  Sc  Sc83  1  0.49834263  0.69173152  0.51533246  1
  Sc  Sc84  1  0.70814526  0.10013213  0.29945316  1
  Sc  Sc85  1  0.70426425  0.49566352  0.70164461  1
  Sc  Sc86  1  0.70344788  0.28598128  0.10389771  1
  Sc  Sc87  1  0.90560276  0.70313653  0.50685137  1
  Sc  Sc88  1  0.29474887  0.50661711  0.30854657  1
  Sc  Sc89  1  0.10160537  0.90056968  0.90935158  1
  Sc  Sc90  1  0.29941001  0.70307719  0.10234616  1
  Sc  Sc91  1  0.49000764  0.28839677  0.29767896  1
  Sc  Sc92  1  0.29507061  0.90305530  0.51777143  1
  Sc  Sc93  1  0.30129567  0.30962878  0.89663808  1
  Sc  Sc94  1  0.89993503  0.50166830  0.69378604  1
  Sc  Sc95  1  0.50333885  0.09550377  0.90435361  1
  Sc  Sc96  1  0.49335338  0.09912496  0.50548029  1
  Sc  Sc97  1  0.09849192  0.90695982  0.10098751  1
  Sc  Sc98  1  0.29454706  0.09700714  0.11034718  1
  Sc  Sc99  1  0.90392950  0.10012644  0.30043412  1
  Nb  Nb100  1  0.50028076  0.30259707  0.50048131  1
  Nb  Nb101  1  0.89617817  0.70702295  0.90058024  1
  Nb  Nb102  1  0.90325060  0.69851838  0.30694298  1
  Nb  Nb103  1  0.10490841  0.10151275  0.89627063  1
  Nb  Nb104  1  0.89867742  0.30313898  0.09872439  1
  Nb  Nb105  1  0.90173734  0.90315164  0.70159041  1
  Nb  Nb106  1  0.09671958  0.49933707  0.09971342  1
  Nb  Nb107  1  0.29704271  0.90205583  0.70666765  1
  Nb  Nb108  1  0.70080430  0.69929505  0.89887063  1
  Nb  Nb109  1  0.69684455  0.69991075  0.09457291  1
  Nb  Nb110  1  0.30269045  0.10214383  0.49376614  1
  Nb  Nb111  1  0.90420939  0.49474895  0.10246007  1
  Nb  Nb112  1  0.29659654  0.09703872  0.89723267  1
  Nb  Nb113  1  0.29915762  0.29357966  0.70270381  1
  Nb  Nb114  1  0.50364226  0.49510766  0.50393618  1
  Nb  Nb115  1  0.09971000  0.70479301  0.30343647  1
  Nb  Nb116  1  0.69998874  0.29623301  0.50170563  1
  Nb  Nb117  1  0.29939060  0.90337109  0.89741576  1
  Nb  Nb118  1  0.90197911  0.89458763  0.89623773  1
  Nb  Nb119  1  0.69948373  0.90036552  0.49620113  1
  Nb  Nb120  1  0.49835010  0.29828991  0.89787764  1
  Nb  Nb121  1  0.29644383  0.10393177  0.30703523  1
  Nb  Nb122  1  0.10523693  0.30493399  0.30008306  1
  Nb  Nb123  1  0.90230234  0.09728512  0.69947319  1
  Nb  Nb124  1  0.50291405  0.50184117  0.68306450  1
  Nb  Nb125  1  -0.00201168  0.79518041  0.20606678  1
  Nb  Nb126  1  0.79974016  0.60194937  0.40098328  1
  Nb  Nb127  1  0.60268765  0.79286353  0.00082529  1
  Nb  Nb128  1  0.59648235  0.39678630  0.20137548  1
  Nb  Nb129  1  0.19103113  0.80180357  0.20802190  1
  Nb  Nb130  1  0.60141484  0.60080112  -0.00444167  1
  Nb  Nb131  1  0.20213537  0.60081392  0.59930572  1
  Nb  Nb132  1  0.60415846  0.59274194  0.40807527  1
  Nb  Nb133  1  0.19764959  0.40060580  0.20067299  1
  Nb  Nb134  1  0.19748364  0.59536553  -0.00426007  1
  Nb  Nb135  1  0.20522916  0.00575619  0.40112637  1
  Nb  Nb136  1  0.60098819  0.20657178  0.40699932  1
  Nb  Nb137  1  0.59732748  0.39594010  0.40184046  1
  Nb  Nb138  1  0.20411747  0.00047887  0.80145917  1
  Nb  Nb139  1  0.59814974  -0.00305881  0.20432256  1
  Nb  Nb140  1  0.39845589  0.20183100  0.80156070  1
  Nb  Nb141  1  0.60390957  0.40216859  0.00252960  1
  Nb  Nb142  1  0.39962364  0.60221656  -0.00606688  1
  Nb  Nb143  1  0.39677290  0.40085395  0.20123354  1
  Nb  Nb144  1  0.80973363  -0.00228228  0.79562336  1
  Nb  Nb145  1  0.80408515  0.19092311  0.79576542  1
  Nb  Nb146  1  -0.00420358  0.59437326  -0.00045036  1
  Nb  Nb147  1  0.39774071  0.80189893  0.40497456  1
  Nb  Nb148  1  0.80157568  0.39927022  0.00348142  1
  Nb  Nb149  1  0.19789911  0.19441877  -0.00849258  1
  Pd  Pd150  1  0.80662173  0.60526947  0.79251483  1
  Pd  Pd151  1  -0.00146296  0.00468035  0.59344896  1
  Pd  Pd152  1  -0.00285672  0.20133755  0.20036257  1
  Pd  Pd153  1  0.39021927  0.59801703  0.60592729  1
  Pd  Pd154  1  0.20006232  0.39459980  0.00381632  1
  Pd  Pd155  1  0.40390689  0.60034705  0.79366977  1
  Pd  Pd156  1  0.40772822  0.60915126  0.40556212  1
  Pd  Pd157  1  -0.00416846  0.40247975  -0.00223186  1
  Pd  Pd158  1  0.19827718  0.19487516  0.59429752  1
  Pd  Pd159  1  -0.00613161  0.60320490  0.80247173  1
  Pd  Pd160  1  0.40740691  0.80914844  0.59721386  1
  Pd  Pd161  1  0.60126243  0.19610556  0.21358793  1
  Pd  Pd162  1  0.80200388  -0.00171461  0.59939928  1
  Pd  Pd163  1  0.00874659  0.19275946  0.00499793  1
  Pd  Pd164  1  0.59662194  0.19248758  0.80268688  1
  Pd  Pd165  1  0.39404561  -0.01001210  0.41227696  1
  Pd  Pd166  1  0.59517726  0.59367711  0.79506714  1
  Pd  Pd167  1  0.00631893  -0.00406474  0.80288798  1
  Pd  Pd168  1  0.60562016  -0.00003210  0.79791770  1
  Pd  Pd169  1  0.79407955  0.80693016  -0.00658718  1
  Pd  Pd170  1  0.40796727  0.40384249  0.00530493  1
  Pd  Pd171  1  0.19217810  0.79413107  0.60312518  1
  Pd  Pd172  1  0.39607419  0.39432829  0.60383073  1
  Pd  Pd173  1  0.39159573  0.19313893  -0.00783557  1
  Pd  Pd174  1  0.00568847  0.20108734  0.39866141  1
  Pd  Pd175  1  0.39570331  0.01039301  0.00561804  1
  Pd  Pd176  1  0.00172041  0.79135161  0.01021346  1
  Pd  Pd177  1  0.19045643  0.79255456  0.00803202  1
  Pd  Pd178  1  -0.00152246  0.59826985  0.40414115  1
  Pd  Pd179  1  0.00815122  0.80968208  0.80036260  1
  Pd  Pd180  1  0.80402538  0.00878192  0.40445450  1
  Pd  Pd181  1  0.80521119  0.79799137  0.20540254  1
  Pd  Pd182  1  0.19912709  0.60066590  0.79564449  1
  Pd  Pd183  1  0.60073206  -0.00983098  0.01098733  1
  Pd  Pd184  1  0.00300320  0.39558162  0.60070046  1
  Pd  Pd185  1  0.80028497  0.40169133  0.40051447  1
  Pd  Pd186  1  -0.00181262  0.39644227  0.79037507  1
  Pd  Pd187  1  0.60743107  0.60021453  0.20430767  1
  Pd  Pd188  1  0.00129750  0.00185663  0.00135288  1
  Pd  Pd189  1  0.80198784  0.59375894  -0.00718776  1
  Pd  Pd190  1  0.60501241  0.20528255  -0.00434335  1
  Pd  Pd191  1  0.38664030  0.79272390  0.21130801  1
  Pd  Pd192  1  0.01111114  0.60264215  0.59764268  1
  Pd  Pd193  1  0.59342662  0.40058462  0.79237942  1
  Pd  Pd194  1  0.40251643  0.00700640  0.19903803  1
  Pd  Pd195  1  0.39608638  0.01024992  0.79182371  1
  Pd  Pd196  1  0.39887156  0.39136676  0.39286041  1
  Pd  Pd197  1  0.58686395  0.78701749  0.41062380  1
  Pd  Pd198  1  0.80122298  0.60582351  0.60253192  1
  Pd  Pd199  1  -0.00438261  0.60729663  0.19472218  1
  Rh  Rh200  1  0.79595772  0.00250015  0.20157488  1
  Rh  Rh201  1  0.79665288  0.38886441  0.19129651  1
  Rh  Rh202  1  -0.00316079  0.19663696  0.79445288  1
  Rh  Rh203  1  0.39876144  -0.00229227  0.60100726  1
  Rh  Rh204  1  0.79764340  0.80729334  0.80568527  1
  Rh  Rh205  1  0.80387393  0.80547346  0.59807385  1
  Rh  Rh206  1  0.38897059  0.60013516  0.19813057  1
  Rh  Rh207  1  0.40392953  0.20249567  0.40755710  1
  Rh  Rh208  1  0.79807169  0.61217992  0.21205238  1
  Rh  Rh209  1  0.20048631  0.00727037  -0.00609827  1
  Rh  Rh210  1  0.20822939  0.81102541  0.39453699  1
  Rh  Rh211  1  0.00613088  0.39487281  0.20445076  1
  Rh  Rh212  1  0.00053444  0.39836095  0.39300103  1
  Rh  Rh213  1  0.40194900  0.80694799  0.79577239  1
  Rh  Rh214  1  0.40109715  0.20339126  0.60196743  1
  Rh  Rh215  1  0.80507698  0.79338633  0.40506197  1
  Rh  Rh216  1  0.79738883  0.19799679  0.40208526  1
  Rh  Rh217  1  0.60640896  0.59912272  0.60376013  1
  Rh  Rh218  1  -0.00825474  0.80226034  0.39638220  1
  Rh  Rh219  1  0.60041001  0.80789471  0.80479483  1
  Rh  Rh220  1  0.19435910  0.19502007  0.40458296  1
  Rh  Rh221  1  0.40735552  0.38965311  0.78821521  1
  Rh  Rh222  1  0.19214041  0.81364079  0.79952199  1
  Rh  Rh223  1  0.21071391  0.19368643  0.80134683  1
  Rh  Rh224  1  0.00422562  0.00926759  0.40359530  1
  Rh  Rh225  1  0.19802931  0.60118525  0.19687577  1
  Rh  Rh226  1  0.80385316  -0.00777636  -0.00904012  1
  Rh  Rh227  1  0.59286496  0.19998652  0.59205097  1
  Rh  Rh228  1  0.60309903  0.01387277  0.39526249  1
  Rh  Rh229  1  0.20135087  0.39800128  0.79461368  1
  Rh  Rh230  1  0.79511445  0.20698174  -0.00707022  1
  Rh  Rh231  1  0.20428985  0.39784658  0.39158297  1
  Rh  Rh232  1  0.40276047  0.79379897  -0.00573930  1
  Rh  Rh233  1  0.60193389  -0.00166858  0.60093816  1
  Rh  Rh234  1  -0.00911160  -0.00278382  0.19763344  1
  Rh  Rh235  1  0.20717282  0.40456293  0.60183577  1
  Rh  Rh236  1  0.00292476  0.20186299  0.59721810  1
  Rh  Rh237  1  0.80691332  0.39579053  0.60199052  1
  Rh  Rh238  1  0.19944322  0.00710115  0.59958034  1
  Rh  Rh239  1  0.00217479  0.80302534  0.60153528  1
  Rh  Rh240  1  0.60063641  0.80664941  0.19395721  1
  Rh  Rh241  1  0.80884539  0.38841247  0.79596450  1
  Rh  Rh242  1  0.59595861  0.80335023  0.59871964  1
  Rh  Rh243  1  0.80900647  0.19844636  0.20154826  1
  Rh  Rh244  1  0.39373372  0.19893527  0.20031981  1
  Rh  Rh245  1  0.80373774  0.19790600  0.60057500  1
  Rh  Rh246  1  0.19949409  0.20680133  0.19308927  1
  Rh  Rh247  1  0.59939967  0.39841045  0.59984633  1
  Rh  Rh248  1  0.19798182  -0.00345592  0.20955780  1
  Rh  Rh249  1  0.19411291  0.59909418  0.41023561  1
