# generated using pymatgen
data_ZrScNbPdRh
_symmetry_space_group_name_H-M   'P 1'
_cell_length_a   16.56185078
_cell_length_b   16.55752821
_cell_length_c   16.55843435
_cell_angle_alpha   89.99705901
_cell_angle_beta   90.03212230
_cell_angle_gamma   90.00432437
_symmetry_Int_Tables_number   1
_chemical_formula_structural   ZrScNbPdRh
_chemical_formula_sum   'Zr50 Sc50 Nb50 Pd50 Rh50'
_cell_volume   4540.70796700
_cell_formula_units_Z   50
loop_
 _symmetry_equiv_pos_site_id
 _symmetry_equiv_pos_as_xyz
  1  'x, y, z'
loop_
 _atom_site_type_symbol
 _atom_site_label
 _atom_site_symmetry_multiplicity
 _atom_site_fract_x
 _atom_site_fract_y
 _atom_site_fract_z
 _atom_site_occupancy
  Zr  Zr0  1  0.29214003  0.69703799  0.70811391  1
  Zr  Zr1  1  0.90503832  0.09833384  0.90582815  1
  Zr  Zr2  1  0.70478040  0.10093842  0.49571978  1
  Zr  Zr3  1  0.69308330  0.89719211  0.50848368  1
  Zr  Zr4  1  0.10331566  0.09223226  0.70275955  1
  Zr  Zr5  1  0.50179266  0.69926684  0.29573279  1
  Zr  Zr6  1  0.90464346  0.50335914  0.28874365  1
  Zr  Zr7  1  0.29380152  0.89907536  0.71313022  1
  Zr  Zr8  1  0.70041133  0.90265524  0.70847132  1
  Zr  Zr9  1  0.29213567  0.49374790  0.90667282  1
  Zr  Zr10  1  0.10568154  0.70265209  0.30140271  1
  Zr  Zr11  1  0.10396860  0.70061802  0.49428783  1
  Zr  Zr12  1  0.29822683  0.90590520  0.30041819  1
  Zr  Zr13  1  0.89529639  0.30697156  0.89848499  1
  Zr  Zr14  1  0.69991981  0.08796257  0.90735188  1
  Zr  Zr15  1  0.70015149  0.70281077  0.49939686  1
  Zr  Zr16  1  0.70401570  0.90754830  0.29505100  1
  Zr  Zr17  1  0.29766414  0.49235120  0.29945590  1
  Zr  Zr18  1  0.49701139  0.69910836  0.09489566  1
  Zr  Zr19  1  0.50283202  0.49420866  0.30239185  1
  Zr  Zr20  1  0.10715740  0.48721038  0.49417962  1
  Zr  Zr21  1  0.50771832  0.90147894  0.69457411  1
  Zr  Zr22  1  0.90189463  0.70333745  0.70479822  1
  Zr  Zr23  1  0.30056465  0.70970202  0.90647592  1
  Zr  Zr24  1  0.10114518  0.10251442  0.50058092  1
  Zr  Zr25  1  0.30356629  0.50297723  0.70166572  1
  Zr  Zr26  1  0.29913015  0.89955305  0.90465116  1
  Zr  Zr27  1  0.11312177  0.09525405  0.30010823  1
  Zr  Zr28  1  0.09379889  0.09390988  0.10190862  1
  Zr  Zr29  1  0.10119823  0.90486538  0.29519065  1
  Zr  Zr30  1  0.89933260  0.49979051  0.90709382  1
  Zr  Zr31  1  0.29736494  0.30064054  0.50506557  1
  Zr  Zr32  1  0.69873831  0.71125019  0.09292435  1
  Zr  Zr33  1  0.49925500  0.29513729  0.90393029  1
  Zr  Zr34  1  0.49866190  0.30359094  0.50264048  1
  Zr  Zr35  1  0.49714939  0.89745076  0.30386831  1
  Zr  Zr36  1  0.70505252  0.49225813  0.89281973  1
  Zr  Zr37  1  0.90187216  0.50032380  0.49905600  1
  Zr  Zr38  1  0.10762810  0.50631656  0.71135969  1
  Zr  Zr39  1  0.51248806  0.30044553  0.29771080  1
  Zr  Zr40  1  0.49891676  0.90298746  0.10231458  1
  Zr  Zr41  1  0.69914103  0.49921954  0.50052612  1
  Zr  Zr42  1  0.89501261  0.70155648  0.50359059  1
  Zr  Zr43  1  0.90928358  0.30227869  0.51101839  1
  Zr  Zr44  1  0.89734883  0.69083333  0.09874823  1
  Zr  Zr45  1  0.69431230  0.49861421  0.29972785  1
  Zr  Zr46  1  0.90293008  0.09825005  0.69341110  1
  Zr  Zr47  1  0.10044326  0.89877010  0.10275412  1
  Zr  Zr48  1  0.29840627  0.69583444  0.49460707  1
  Zr  Zr49  1  0.49674681  0.10190602  0.29545316  1
  Sc  Sc50  1  0.89567833  0.09727921  0.29930267  1
  Sc  Sc51  1  0.89233485  0.50000794  0.70879908  1
  Sc  Sc52  1  0.30056102  0.49340136  0.09548371  1
  Sc  Sc53  1  0.30813820  0.10613876  0.11628004  1
  Sc  Sc54  1  0.89792296  0.09913622  0.10034613  1
  Sc  Sc55  1  0.90089432  0.29546264  0.09446413  1
  Sc  Sc56  1  0.90318987  0.90837424  0.49177208  1
  Sc  Sc57  1  0.29383279  0.10229870  0.50119813  1
  Sc  Sc58  1  0.50708802  0.10520715  0.09795380  1
  Sc  Sc59  1  0.09946903  0.09511652  0.89735559  1
  Sc  Sc60  1  0.10601398  0.30653997  0.89521988  1
  Sc  Sc61  1  0.09583230  0.90010144  0.90092266  1
  Sc  Sc62  1  0.50611246  0.89737403  0.49244118  1
  Sc  Sc63  1  0.30063718  0.70690156  0.30346217  1
  Sc  Sc64  1  0.49737709  0.30020090  0.69691559  1
  Sc  Sc65  1  0.49786805  0.70446200  0.70399851  1
  Sc  Sc66  1  0.49490524  0.10016871  0.90860347  1
  Sc  Sc67  1  0.70296511  0.50951870  0.09320730  1
  Sc  Sc68  1  0.10122831  0.90799312  0.48762191  1
  Sc  Sc69  1  0.70724810  0.71167383  0.69755658  1
  Sc  Sc70  1  0.69852438  0.69607347  0.29263452  1
  Sc  Sc71  1  0.09722968  0.49934414  0.90242692  1
  Sc  Sc72  1  0.90005546  0.10427848  0.49628988  1
  Sc  Sc73  1  0.50214686  0.48817607  0.69416744  1
  Sc  Sc74  1  0.09643999  0.70737571  0.09353601  1
  Sc  Sc75  1  0.69425600  0.28687391  0.09907523  1
  Sc  Sc76  1  0.90173299  0.90127300  0.09941637  1
  Sc  Sc77  1  0.49234392  0.10108717  0.69960044  1
  Sc  Sc78  1  0.30360567  0.28831195  0.70429400  1
  Sc  Sc79  1  0.49374431  0.50415403  0.10115562  1
  Sc  Sc80  1  0.70152757  0.31302262  0.69800468  1
  Sc  Sc81  1  0.30182000  0.49555599  0.50791727  1
  Sc  Sc82  1  0.30150412  0.29530929  0.90288352  1
  Sc  Sc83  1  0.50418928  0.70812186  0.49620691  1
  Sc  Sc84  1  0.09565679  0.69622487  0.89954583  1
  Sc  Sc85  1  0.70142531  0.10898375  0.29843357  1
  Sc  Sc86  1  0.90236953  0.90212521  0.89863181  1
  Sc  Sc87  1  0.70347283  0.30312015  0.90097610  1
  Sc  Sc88  1  0.89895002  0.70134202  0.29215120  1
  Sc  Sc89  1  0.70491736  0.29616626  0.49730592  1
  Sc  Sc90  1  0.30299108  0.10408522  0.89061874  1
  Sc  Sc91  1  0.49214087  0.89453192  0.89653654  1
  Sc  Sc92  1  0.49661931  0.29179996  0.09838944  1
  Sc  Sc93  1  0.50251525  0.09924624  0.49607190  1
  Sc  Sc94  1  0.90209671  0.69847695  0.90157895  1
  Sc  Sc95  1  0.09614802  0.30234311  0.10890006  1
  Sc  Sc96  1  0.09366867  0.49924859  0.09620976  1
  Sc  Sc97  1  0.90842493  0.29897136  0.28987475  1
  Sc  Sc98  1  0.90235044  0.90822615  0.29673690  1
  Sc  Sc99  1  0.29550001  0.10158060  0.70213016  1
  Nb  Nb100  1  0.29791000  0.29555488  0.28774297  1
  Nb  Nb101  1  0.50100095  0.69339607  0.90352143  1
  Nb  Nb102  1  0.68813481  0.69989396  0.90533656  1
  Nb  Nb103  1  0.69627646  0.09464055  0.70088864  1
  Nb  Nb104  1  0.69913766  0.89949145  0.90876611  1
  Nb  Nb105  1  0.29584147  0.88883009  0.09698860  1
  Nb  Nb106  1  0.89612080  0.49645928  0.09862067  1
  Nb  Nb107  1  0.09754482  0.30466003  0.50066323  1
  Nb  Nb108  1  0.30390396  0.89318656  0.49781096  1
  Nb  Nb109  1  0.50152541  0.50004746  0.90529614  1
  Nb  Nb110  1  0.69711416  0.08874369  0.09520869  1
  Nb  Nb111  1  0.70057850  0.91199884  0.09063046  1
  Nb  Nb112  1  0.10411304  0.31605582  0.30652316  1
  Nb  Nb113  1  0.09192458  0.29675392  0.69549129  1
  Nb  Nb114  1  0.69947900  0.30355495  0.29992482  1
  Nb  Nb115  1  0.69194990  0.49976187  0.70301100  1
  Nb  Nb116  1  0.29957260  0.29926214  0.09602944  1
  Nb  Nb117  1  0.29362814  0.70691586  0.10029858  1
  Nb  Nb118  1  0.10035076  0.70078220  0.70293077  1
  Nb  Nb119  1  0.09806332  0.90045912  0.70401903  1
  Nb  Nb120  1  0.90059958  0.89751564  0.69969734  1
  Nb  Nb121  1  0.10010619  0.49522912  0.30073727  1
  Nb  Nb122  1  0.89985716  0.29246021  0.69579923  1
  Nb  Nb123  1  0.49905418  0.49500488  0.50180687  1
  Nb  Nb124  1  0.30097361  0.10508162  0.30124557  1
  Nb  Nb125  1  0.79972325  0.19610571  0.79388450  1
  Nb  Nb126  1  0.40271228  0.40519397  0.80770728  1
  Nb  Nb127  1  0.20646025  0.00212109  0.00744859  1
  Nb  Nb128  1  0.19999284  0.60105855  0.19998034  1
  Nb  Nb129  1  0.79650554  0.80218086  0.39957935  1
  Nb  Nb130  1  0.01238098  0.20986102  0.39989499  1
  Nb  Nb131  1  0.39336821  0.20436871  0.39060919  1
  Nb  Nb132  1  -0.00466934  0.20349022  0.79381404  1
  Nb  Nb133  1  0.79679211  0.40022313  0.19881603  1
  Nb  Nb134  1  0.79690264  -0.00137023  0.60546398  1
  Nb  Nb135  1  0.00623332  0.80198845  0.60510182  1
  Nb  Nb136  1  0.20109394  0.19617194  0.00702613  1
  Nb  Nb137  1  0.40506331  0.59272225  0.40070021  1
  Nb  Nb138  1  0.39077286  0.80349510  0.60111208  1
  Nb  Nb139  1  0.00500397  0.59609197  0.39995975  1
  Nb  Nb140  1  0.60768195  0.19619477  0.79713959  1
  Nb  Nb141  1  0.00584071  0.60328318  0.59998419  1
  Nb  Nb142  1  0.59703443  0.40338423  -0.00362553  1
  Nb  Nb143  1  0.39548278  -0.00897167  0.59759689  1
  Nb  Nb144  1  0.59903672  0.59721855  0.80202210  1
  Nb  Nb145  1  0.40521493  0.59612399  0.80922150  1
  Nb  Nb146  1  0.60617785  0.19652418  0.60494562  1
  Nb  Nb147  1  0.80279197  0.39893312  0.39131953  1
  Nb  Nb148  1  0.60134352  0.59629356  0.60382975  1
  Nb  Nb149  1  0.19589221  0.80312459  0.60315362  1
  Pd  Pd150  1  0.60571800  0.40131500  0.18254790  1
  Pd  Pd151  1  0.59175636  0.80879055  -0.00266089  1
  Pd  Pd152  1  0.60023932  0.79591552  0.80279972  1
  Pd  Pd153  1  0.19645004  0.20286370  0.60567632  1
  Pd  Pd154  1  0.40194160  0.00199019  0.79521467  1
  Pd  Pd155  1  0.01178097  0.20715047  -0.01066742  1
  Pd  Pd156  1  0.38908945  0.60177228  0.20474348  1
  Pd  Pd157  1  0.79894134  0.40241241  0.59905082  1
  Pd  Pd158  1  0.59246303  0.60123737  0.40763975  1
  Pd  Pd159  1  0.81486299  0.21199748  0.39544517  1
  Pd  Pd160  1  0.80678642  0.00133385  0.79937246  1
  Pd  Pd161  1  0.79674069  0.59704998  0.61019574  1
  Pd  Pd162  1  0.20607082  -0.00883628  0.59644547  1
  Pd  Pd163  1  0.41215427  0.60626753  0.59814949  1
  Pd  Pd164  1  -0.00390771  0.39930239  0.79525559  1
  Pd  Pd165  1  0.60178405  0.59882316  0.19037391  1
  Pd  Pd166  1  0.39426202  0.00850270  0.40750707  1
  Pd  Pd167  1  0.19646710  0.60314952  0.00604610  1
  Pd  Pd168  1  0.79683499  0.60266526  -0.00565691  1
  Pd  Pd169  1  0.39167186  0.59988099  -0.00000863  1
  Pd  Pd170  1  0.39690004  0.79948951  0.20015634  1
  Pd  Pd171  1  0.19404940  0.60145420  0.59737699  1
  Pd  Pd172  1  0.40336458  0.39413465  0.19364564  1
  Pd  Pd173  1  0.00224193  0.41362894  0.61513595  1
  Pd  Pd174  1  0.80653164  0.80374670  -0.00548793  1
  Pd  Pd175  1  0.60386338  0.00320724  0.39498945  1
  Pd  Pd176  1  0.60395034  0.80464661  0.19774037  1
  Pd  Pd177  1  0.00182776  0.80130576  0.80224609  1
  Pd  Pd178  1  0.20305060  0.39334239  0.61341342  1
  Pd  Pd179  1  -0.00380836  0.79911549  0.19781193  1
  Pd  Pd180  1  0.00792102  0.19644555  0.21049106  1
  Pd  Pd181  1  -0.00869374  0.79688197  0.40050469  1
  Pd  Pd182  1  0.00320824  0.39464901  0.00281862  1
  Pd  Pd183  1  -0.00323700  -0.00617971  0.59647992  1
  Pd  Pd184  1  0.39422503  0.39598273  0.39937603  1
  Pd  Pd185  1  0.19690339  0.40698986  0.19096023  1
  Pd  Pd186  1  0.80609997  0.60167213  0.39021901  1
  Pd  Pd187  1  0.01151376  0.60160827  0.19849452  1
  Pd  Pd188  1  0.60062194  0.00535657  0.20277059  1
  Pd  Pd189  1  0.79481315  0.19818759  -0.00387214  1
  Pd  Pd190  1  0.20856035  0.39064246  0.79480266  1
  Pd  Pd191  1  0.79151561  0.60871533  0.80161436  1
  Pd  Pd192  1  0.58963791  0.00425763  0.80969162  1
  Pd  Pd193  1  0.20091021  0.21016141  0.39834221  1
  Pd  Pd194  1  0.19335282  0.20371539  0.19599337  1
  Pd  Pd195  1  0.39695039  -0.00273401  0.19552849  1
  Pd  Pd196  1  0.79795201  0.79964535  0.81415742  1
  Pd  Pd197  1  0.80073500  0.80576253  0.20044663  1
  Pd  Pd198  1  0.79697854  0.20093457  0.19722137  1
  Pd  Pd199  1  0.39355552  0.00713796  0.00876028  1
  Rh  Rh200  1  0.59152752  0.79019459  0.60577810  1
  Rh  Rh201  1  -0.00580808  0.40119483  0.19415472  1
  Rh  Rh202  1  -0.00878575  0.39906185  0.39503075  1
  Rh  Rh203  1  0.60519777  0.19427387  0.19830682  1
  Rh  Rh204  1  0.60714515  0.20155782  -0.00891730  1
  Rh  Rh205  1  0.21070963  0.39498258  0.40028608  1
  Rh  Rh206  1  -0.00510238  0.00352282  0.20265321  1
  Rh  Rh207  1  -0.00322978  0.59836983  0.00089333  1
  Rh  Rh208  1  0.58942115  -0.00663549  -0.00373005  1
  Rh  Rh209  1  0.40601457  0.39602599  -0.00087776  1
  Rh  Rh210  1  0.60822210  0.39454357  0.40797390  1
  Rh  Rh211  1  0.79446130  -0.00736521  0.40686498  1
  Rh  Rh212  1  0.00960407  0.19621848  0.59812116  1
  Rh  Rh213  1  0.19175398  0.80577730  -0.00363767  1
  Rh  Rh214  1  0.80858119  -0.00482540  0.00156596  1
  Rh  Rh215  1  0.00397995  -0.00509298  0.00268273  1
  Rh  Rh216  1  0.40202006  0.79189640  0.40125319  1
  Rh  Rh217  1  0.79389064  0.59760548  0.19600171  1
  Rh  Rh218  1  0.19842994  -0.00061693  0.81226632  1
  Rh  Rh219  1  0.19955193  0.81095984  0.40005960  1
  Rh  Rh220  1  0.39318432  0.39698935  0.61004611  1
  Rh  Rh221  1  0.40606771  0.79887525  0.00382005  1
  Rh  Rh222  1  0.79019050  0.19275287  0.60628108  1
  Rh  Rh223  1  0.19521248  0.38836758  0.00570399  1
  Rh  Rh224  1  0.41088718  0.20499603  0.79943429  1
  Rh  Rh225  1  0.81183966  0.81528386  0.59133763  1
  Rh  Rh226  1  -0.00513112  0.79855914  -0.00021348  1
  Rh  Rh227  1  -0.00092048  0.59602066  0.79930632  1
  Rh  Rh228  1  0.21014419  -0.00293926  0.19261258  1
  Rh  Rh229  1  0.40510863  0.20694687  0.20361681  1
  Rh  Rh230  1  0.20358817  0.58729108  0.39158218  1
  Rh  Rh231  1  0.00185871  0.01613126  0.39386326  1
  Rh  Rh232  1  -0.00262276  0.00243309  0.79907260  1
  Rh  Rh233  1  0.20187419  0.79611322  0.20303035  1
  Rh  Rh234  1  0.40616977  0.19034928  0.58985825  1
  Rh  Rh235  1  0.60419959  0.39725959  0.59420201  1
  Rh  Rh236  1  0.59312419  0.20496997  0.40577381  1
  Rh  Rh237  1  0.18694246  0.19921904  0.80372921  1
  Rh  Rh238  1  0.20746701  -0.00145670  0.40261613  1
  Rh  Rh239  1  0.19027187  0.79948635  0.80478660  1
  Rh  Rh240  1  0.40231855  0.79325749  0.79887080  1
  Rh  Rh241  1  0.79189225  0.39588143  0.01438177  1
  Rh  Rh242  1  0.80506756  0.39403588  0.79186878  1
  Rh  Rh243  1  0.59243551  0.39676757  0.80804256  1
  Rh  Rh244  1  0.59701333  0.00774873  0.59580061  1
  Rh  Rh245  1  0.20447284  0.60338607  0.81541035  1
  Rh  Rh246  1  0.38810563  0.19455273  0.00266800  1
  Rh  Rh247  1  0.60948843  0.80175005  0.38725574  1
  Rh  Rh248  1  0.79847641  0.00417359  0.19221806  1
  Rh  Rh249  1  0.60353625  0.59508873  -0.00283075  1
