# generated using pymatgen
data_ZrScNbPdRh
_symmetry_space_group_name_H-M   'P 1'
_cell_length_a   16.55706847
_cell_length_b   16.55459383
_cell_length_c   16.56038821
_cell_angle_alpha   89.96502234
_cell_angle_beta   90.02015450
_cell_angle_gamma   89.99295616
_symmetry_Int_Tables_number   1
_chemical_formula_structural   ZrScNbPdRh
_chemical_formula_sum   'Zr50 Sc50 Nb50 Pd50 Rh50'
_cell_volume   4539.12744853
_cell_formula_units_Z   50
loop_
 _symmetry_equiv_pos_site_id
 _symmetry_equiv_pos_as_xyz
  1  'x, y, z'
loop_
 _atom_site_type_symbol
 _atom_site_label
 _atom_site_symmetry_multiplicity
 _atom_site_fract_x
 _atom_site_fract_y
 _atom_site_fract_z
 _atom_site_occupancy
  Zr  Zr0  1  0.50460868  0.70447451  0.49969529  1
  Zr  Zr1  1  0.30113801  0.70056810  0.90021334  1
  Zr  Zr2  1  0.89655922  0.50341913  0.50157600  1
  Zr  Zr3  1  0.29303644  0.70061975  0.29268396  1
  Zr  Zr4  1  0.30347845  0.89839790  0.49650732  1
  Zr  Zr5  1  0.30384606  0.09657033  0.70081710  1
  Zr  Zr6  1  0.90362279  0.69466525  0.29399173  1
  Zr  Zr7  1  0.29495950  0.11055481  0.10280503  1
  Zr  Zr8  1  0.69703818  0.10037973  0.49866721  1
  Zr  Zr9  1  0.10789695  0.89633539  0.29887179  1
  Zr  Zr10  1  0.30231312  0.70146477  0.70123126  1
  Zr  Zr11  1  0.70781695  0.89325896  0.10030256  1
  Zr  Zr12  1  0.91287862  0.49300020  0.29852154  1
  Zr  Zr13  1  0.49948017  0.90101433  0.50746070  1
  Zr  Zr14  1  0.89887650  0.29833066  0.70698303  1
  Zr  Zr15  1  0.09914980  0.89754734  0.50227158  1
  Zr  Zr16  1  0.30331945  0.29388745  0.70215345  1
  Zr  Zr17  1  0.69909903  0.30069365  0.09747300  1
  Zr  Zr18  1  0.30121185  0.90269770  0.70229607  1
  Zr  Zr19  1  0.29404600  0.89499878  0.09921845  1
  Zr  Zr20  1  0.70145349  0.29134781  0.90065276  1
  Zr  Zr21  1  0.29483637  0.30706068  0.89848519  1
  Zr  Zr22  1  0.90139537  0.69129970  0.10195123  1
  Zr  Zr23  1  0.09707901  0.69612954  0.29418288  1
  Zr  Zr24  1  0.29271813  0.29422070  0.29476725  1
  Zr  Zr25  1  0.30427569  0.89459498  0.89442874  1
  Zr  Zr26  1  0.89923890  0.10273318  0.50236305  1
  Zr  Zr27  1  0.50645375  0.50455977  0.49931166  1
  Zr  Zr28  1  0.09868893  0.10435804  0.30598184  1
  Zr  Zr29  1  0.49675128  0.49930955  0.89894458  1
  Zr  Zr30  1  0.50665405  0.69471154  0.29908161  1
  Zr  Zr31  1  0.70365532  0.69551756  0.10496632  1
  Zr  Zr32  1  0.10157988  0.69965283  0.09977327  1
  Zr  Zr33  1  0.70212523  0.10628419  0.70035494  1
  Zr  Zr34  1  0.29897172  0.30596730  0.09906113  1
  Zr  Zr35  1  0.10636028  0.90057825  0.69947804  1
  Zr  Zr36  1  0.09539518  0.10808318  0.90454888  1
  Zr  Zr37  1  0.51140212  0.69281328  0.09904406  1
  Zr  Zr38  1  0.90675879  0.09698870  0.30515559  1
  Zr  Zr39  1  0.69764168  0.50274634  0.50581652  1
  Zr  Zr40  1  0.69343683  0.50257774  0.09775647  1
  Zr  Zr41  1  0.89509091  0.69982222  0.69874531  1
  Zr  Zr42  1  0.90351308  0.09387280  0.09225283  1
  Zr  Zr43  1  0.89862997  0.31151649  0.09655133  1
  Zr  Zr44  1  0.49759926  0.09984739  0.50382634  1
  Zr  Zr45  1  0.30138159  0.09995769  0.89023251  1
  Zr  Zr46  1  0.30084449  0.50206173  0.28932788  1
  Zr  Zr47  1  0.10335483  0.69657882  0.90690841  1
  Zr  Zr48  1  0.10509445  0.29893695  0.08891231  1
  Zr  Zr49  1  0.49750686  0.69911740  0.69913417  1
  Sc  Sc50  1  0.89438780  0.10536286  0.70132483  1
  Sc  Sc51  1  0.50362832  0.10562608  0.09830558  1
  Sc  Sc52  1  0.10735313  0.89414968  0.89431143  1
  Sc  Sc53  1  0.69568832  0.30937392  0.49679256  1
  Sc  Sc54  1  0.50206931  0.30199384  0.70741408  1
  Sc  Sc55  1  0.49532936  0.09858365  0.70124907  1
  Sc  Sc56  1  0.50403934  0.10083524  0.31271036  1
  Sc  Sc57  1  0.50328516  0.89268608  0.10121740  1
  Sc  Sc58  1  0.49780173  0.49952719  0.10712237  1
  Sc  Sc59  1  0.70101432  0.50789268  0.88996001  1
  Sc  Sc60  1  0.29096834  0.69118749  0.09304794  1
  Sc  Sc61  1  0.70306085  0.69824789  0.70519105  1
  Sc  Sc62  1  0.50564809  0.49965406  0.70460595  1
  Sc  Sc63  1  0.09962626  0.49366661  0.69691917  1
  Sc  Sc64  1  0.69960525  0.90389713  0.70381010  1
  Sc  Sc65  1  0.89785398  0.49427280  0.89943178  1
  Sc  Sc66  1  0.30252870  0.69617690  0.51146458  1
  Sc  Sc67  1  0.89428336  0.10468116  0.89937224  1
  Sc  Sc68  1  0.89378919  0.49612232  0.69986983  1
  Sc  Sc69  1  0.89481590  0.89320542  0.70127587  1
  Sc  Sc70  1  0.69972425  0.70250061  0.51182836  1
  Sc  Sc71  1  0.49472663  0.69509496  0.89424871  1
  Sc  Sc72  1  0.70414363  0.10494470  0.89788186  1
  Sc  Sc73  1  0.90177301  0.90438486  0.50282618  1
  Sc  Sc74  1  0.10070646  0.50211253  0.09537385  1
  Sc  Sc75  1  0.50789409  0.10777801  0.89138401  1
  Sc  Sc76  1  0.09168855  0.50327308  0.50411360  1
  Sc  Sc77  1  0.08679890  0.30106165  0.29579900  1
  Sc  Sc78  1  0.69924960  0.50450839  0.69938190  1
  Sc  Sc79  1  0.89780455  0.30146147  0.50538892  1
  Sc  Sc80  1  0.70186001  0.30445774  0.70099722  1
  Sc  Sc81  1  0.49872195  0.90519198  0.70234474  1
  Sc  Sc82  1  0.10192020  0.70177086  0.50767506  1
  Sc  Sc83  1  0.30397882  0.49479753  0.90225145  1
  Sc  Sc84  1  0.50536278  0.88846603  0.31318872  1
  Sc  Sc85  1  0.30216290  0.10950017  0.50036530  1
  Sc  Sc86  1  0.10324011  0.09962648  0.69950836  1
  Sc  Sc87  1  0.30234867  0.50153959  0.70191733  1
  Sc  Sc88  1  0.49868571  0.30151389  0.10231599  1
  Sc  Sc89  1  0.09354294  0.09634877  0.49793521  1
  Sc  Sc90  1  0.10191949  0.70921449  0.69510400  1
  Sc  Sc91  1  0.09657575  0.30075689  0.70971377  1
  Sc  Sc92  1  0.09559059  0.10149443  0.10265462  1
  Sc  Sc93  1  0.90120511  0.70638863  0.50940692  1
  Sc  Sc94  1  0.09895827  0.28607065  0.49522018  1
  Sc  Sc95  1  0.89257366  0.69961101  0.89798154  1
  Sc  Sc96  1  0.69106079  0.49074776  0.30156935  1
  Sc  Sc97  1  0.50588139  0.30264237  0.30201584  1
  Sc  Sc98  1  0.69669342  0.90237376  0.50438193  1
  Sc  Sc99  1  0.29336387  0.09959303  0.30138953  1
  Nb  Nb100  1  0.70371192  0.09665614  0.30044787  1
  Nb  Nb101  1  0.29653539  0.49180571  0.09699355  1
  Nb  Nb102  1  0.70208000  0.89849942  0.89870396  1
  Nb  Nb103  1  0.49806109  0.50445127  0.30244197  1
  Nb  Nb104  1  0.89644927  0.50227976  0.10355925  1
  Nb  Nb105  1  0.89624910  0.90755627  0.90357805  1
  Nb  Nb106  1  0.70152204  0.10313324  0.09936002  1
  Nb  Nb107  1  0.09459268  0.31066415  0.89573149  1
  Nb  Nb108  1  0.09676154  0.90364800  0.09540048  1
  Nb  Nb109  1  0.90256433  0.89973732  0.30134995  1
  Nb  Nb110  1  0.49860789  0.30150436  0.90122506  1
  Nb  Nb111  1  0.70221911  0.89607518  0.29638214  1
  Nb  Nb112  1  0.90518585  0.30209211  0.89427742  1
  Nb  Nb113  1  0.50325216  0.90130796  0.90227288  1
  Nb  Nb114  1  0.30292991  0.29974158  0.49758915  1
  Nb  Nb115  1  0.89558911  0.29998850  0.29719217  1
  Nb  Nb116  1  0.69607111  0.69813599  0.90185941  1
  Nb  Nb117  1  0.69987268  0.70999465  0.29582600  1
  Nb  Nb118  1  0.90472335  0.90544193  0.09431747  1
  Nb  Nb119  1  0.10296788  0.49367171  0.89223961  1
  Nb  Nb120  1  0.49600306  0.29600569  0.50153422  1
  Nb  Nb121  1  0.70149841  0.29654389  0.29698714  1
  Nb  Nb122  1  0.09893267  0.50132374  0.30448436  1
  Nb  Nb123  1  0.29797495  0.49976960  0.50018459  1
  Nb  Nb124  1  0.30083847  0.89712085  0.29604860  1
  Nb  Nb125  1  0.19928927  0.59256087  0.39911241  1
  Nb  Nb126  1  -0.00387162  -0.00399510  0.80500160  1
  Nb  Nb127  1  0.60230870  -0.00402496  -0.00020153  1
  Nb  Nb128  1  0.59834968  0.39924069  -0.00488493  1
  Nb  Nb129  1  0.61128938  0.19509119  0.20484731  1
  Nb  Nb130  1  0.80081453  0.19657002  0.20159554  1
  Nb  Nb131  1  0.39713843  0.20186964  -0.00488074  1
  Nb  Nb132  1  0.20714519  0.39584397  0.59117110  1
  Nb  Nb133  1  0.40164067  0.00230889  0.00143142  1
  Nb  Nb134  1  0.39676401  0.79962078  0.20176509  1
  Nb  Nb135  1  0.00536451  0.59885356  0.80219627  1
  Nb  Nb136  1  0.19537678  0.59880156  0.80205886  1
  Nb  Nb137  1  -0.00622991  0.80820679  0.00211967  1
  Nb  Nb138  1  0.79953231  0.60556922  0.39555489  1
  Nb  Nb139  1  0.20188088  0.40311844  0.40216536  1
  Nb  Nb140  1  0.60569726  0.00008822  0.20033264  1
  Nb  Nb141  1  0.39668189  0.40346770  0.40239033  1
  Nb  Nb142  1  0.20352135  0.00108060  -0.00123978  1
  Nb  Nb143  1  0.39866712  0.39661059  0.59149241  1
  Nb  Nb144  1  0.40236158  -0.00613952  0.20117545  1
  Nb  Nb145  1  0.80144368  -0.00137313  0.20139073  1
  Nb  Nb146  1  0.79747112  0.20267157  0.39124252  1
  Nb  Nb147  1  0.79852493  0.80012523  0.39140314  1
  Nb  Nb148  1  0.60720622  0.80037928  -0.00804479  1
  Nb  Nb149  1  0.59580544  0.20274959  0.59579062  1
  Pd  Pd150  1  -0.00378348  0.20462533  0.19352127  1
  Pd  Pd151  1  0.39386696  0.60176524  0.40060639  1
  Pd  Pd152  1  0.80321173  0.79453467  -0.00216979  1
  Pd  Pd153  1  0.00756560  0.39077595  0.59905520  1
  Pd  Pd154  1  0.60544817  0.39882222  0.80566123  1
  Pd  Pd155  1  0.79158337  0.00423394  -0.00155644  1
  Pd  Pd156  1  0.39566171  0.78991040  0.39681321  1
  Pd  Pd157  1  0.18745800  0.40044105  0.20327235  1
  Pd  Pd158  1  0.39687653  0.00113481  0.39325383  1
  Pd  Pd159  1  0.41150716  0.19262747  0.20331830  1
  Pd  Pd160  1  -0.00039222  0.60805944  0.40809941  1
  Pd  Pd161  1  -0.00147712  0.80593491  0.19307869  1
  Pd  Pd162  1  0.79769924  0.40422932  0.20269430  1
  Pd  Pd163  1  0.39722927  0.59428799  0.00636939  1
  Pd  Pd164  1  0.40903859  0.79872333  0.00496712  1
  Pd  Pd165  1  0.00398508  0.39224947  0.40881395  1
  Pd  Pd166  1  0.81464660  0.80466734  0.20012690  1
  Pd  Pd167  1  0.60349882  0.80309970  0.61000495  1
  Pd  Pd168  1  -0.00325163  0.79934947  0.80707550  1
  Pd  Pd169  1  0.80081310  -0.00494286  0.39948380  1
  Pd  Pd170  1  0.00238792  0.60141823  0.61083567  1
  Pd  Pd171  1  0.20094120  0.00323640  0.19542019  1
  Pd  Pd172  1  0.80066951  -0.00265967  0.60578480  1
  Pd  Pd173  1  0.60038246  -0.00773381  0.39757716  1
  Pd  Pd174  1  0.79668426  0.39810135  0.60335010  1
  Pd  Pd175  1  0.39793401  0.60563533  0.19000609  1
  Pd  Pd176  1  0.60341327  0.00479239  0.80355087  1
  Pd  Pd177  1  -0.00422196  0.59681793  -0.00696335  1
  Pd  Pd178  1  0.20302157  0.78917000  0.40691557  1
  Pd  Pd179  1  0.80191314  0.40248384  0.39853338  1
  Pd  Pd180  1  0.40450525  0.59233567  0.60351747  1
  Pd  Pd181  1  0.40701951  0.39844042  0.20633202  1
  Pd  Pd182  1  0.19312158  0.20220440  0.80049552  1
  Pd  Pd183  1  0.80087722  0.59434539  -0.00481663  1
  Pd  Pd184  1  0.00095657  0.40870837  0.00024545  1
  Pd  Pd185  1  0.20191738  0.00350219  0.40589863  1
  Pd  Pd186  1  -0.00623638  -0.00042440  0.61257016  1
  Pd  Pd187  1  0.79683672  0.80142700  0.80126798  1
  Pd  Pd188  1  0.19583648  0.20191692  0.60049635  1
  Pd  Pd189  1  0.79322817  0.58711522  0.21139475  1
  Pd  Pd190  1  -0.00555538  0.79856578  0.40380522  1
  Pd  Pd191  1  0.59341108  0.39748218  0.40015870  1
  Pd  Pd192  1  0.00104305  -0.00436547  0.20625359  1
  Pd  Pd193  1  0.20532123  0.00522185  0.59015150  1
  Pd  Pd194  1  0.00414746  0.20019768  0.60658638  1
  Pd  Pd195  1  0.61305288  0.60753144  0.39806973  1
  Pd  Pd196  1  0.79198887  0.40612154  -0.00931725  1
  Pd  Pd197  1  -0.00678541  0.20690869  -0.00236763  1
  Pd  Pd198  1  0.59652808  0.79654842  0.80142140  1
  Pd  Pd199  1  0.39981961  0.20350464  0.39089857  1
  Rh  Rh200  1  0.59110653  0.20376340  0.00430085  1
  Rh  Rh201  1  0.40756671  -0.00270612  0.80607992  1
  Rh  Rh202  1  0.79897683  0.60016478  0.59593061  1
  Rh  Rh203  1  0.40647667  0.39573069  0.00333456  1
  Rh  Rh204  1  0.00545432  0.58941610  0.19379712  1
  Rh  Rh205  1  0.18664817  0.20299982  0.20295945  1
  Rh  Rh206  1  0.40439763  0.20407057  0.80490224  1
  Rh  Rh207  1  0.40037393  0.80479241  0.60316080  1
  Rh  Rh208  1  0.59814629  0.60549625  0.80009714  1
  Rh  Rh209  1  0.39535544  -0.00026921  0.59797264  1
  Rh  Rh210  1  0.59509273  0.39754127  0.19670954  1
  Rh  Rh211  1  -0.00089329  0.80675822  0.60139861  1
  Rh  Rh212  1  -0.00584726  0.40601695  0.79807556  1
  Rh  Rh213  1  0.39903888  0.39984293  0.79296784  1
  Rh  Rh214  1  0.80506727  -0.00046346  0.79979991  1
  Rh  Rh215  1  0.19103257  0.80629075  0.00321961  1
  Rh  Rh216  1  0.39360669  0.59542932  0.79966635  1
  Rh  Rh217  1  0.81021858  0.20391340  0.00237695  1
  Rh  Rh218  1  0.00362503  0.40314603  0.19095124  1
  Rh  Rh219  1  0.79822490  0.39831251  0.80156851  1
  Rh  Rh220  1  0.00739878  -0.00809026  0.39882387  1
  Rh  Rh221  1  0.19593850  0.59230778  0.60306561  1
  Rh  Rh222  1  0.01228400  -0.00765226  -0.01279903  1
  Rh  Rh223  1  0.80292748  0.20404832  0.80295385  1
  Rh  Rh224  1  0.19866191  0.79949905  0.19434406  1
  Rh  Rh225  1  0.60105576  0.20198627  0.79039745  1
  Rh  Rh226  1  0.60655893  0.20320861  0.40354061  1
  Rh  Rh227  1  0.78772752  0.20593976  0.58745976  1
  Rh  Rh228  1  0.20305399  0.40557538  0.79122138  1
  Rh  Rh229  1  0.60555895  0.59349184  0.20908333  1
  Rh  Rh230  1  0.61041036  0.79913298  0.40702021  1
  Rh  Rh231  1  0.20529891  0.58749516  -0.00696505  1
  Rh  Rh232  1  0.79724593  0.80551757  0.59416113  1
  Rh  Rh233  1  0.20682006  0.80448873  0.59775406  1
  Rh  Rh234  1  0.59248131  0.80177629  0.19637929  1
  Rh  Rh235  1  0.19655582  0.40441667  -0.00332846  1
  Rh  Rh236  1  0.20376785  0.19962001  -0.00662817  1
  Rh  Rh237  1  0.40656230  0.20330931  0.60696686  1
  Rh  Rh238  1  0.80595993  0.60198395  0.79920315  1
  Rh  Rh239  1  0.20314998  0.79017940  0.79629010  1
  Rh  Rh240  1  -0.00145901  0.19504463  0.80118229  1
  Rh  Rh241  1  0.59901581  0.00852362  0.60544295  1
  Rh  Rh242  1  0.40583625  0.80350193  0.79664567  1
  Rh  Rh243  1  -0.01194866  0.20571256  0.40321959  1
  Rh  Rh244  1  0.19403210  0.59181918  0.19881879  1
  Rh  Rh245  1  0.59230425  0.39586054  0.60028971  1
  Rh  Rh246  1  0.59872591  0.60255955  0.60716970  1
  Rh  Rh247  1  0.18840819  0.00550522  0.80753078  1
  Rh  Rh248  1  0.19648075  0.20342022  0.39654427  1
  Rh  Rh249  1  0.59960935  0.59755309  -0.00788871  1
