# generated using pymatgen
data_ZrScNbPdRh
_symmetry_space_group_name_H-M   'P 1'
_cell_length_a   16.55321698
_cell_length_b   16.55464396
_cell_length_c   16.55331780
_cell_angle_alpha   90.01909228
_cell_angle_beta   90.02749922
_cell_angle_gamma   90.01383596
_symmetry_Int_Tables_number   1
_chemical_formula_structural   ZrScNbPdRh
_chemical_formula_sum   'Zr50 Sc50 Nb50 Pd50 Rh50'
_cell_volume   4536.14803345
_cell_formula_units_Z   50
loop_
 _symmetry_equiv_pos_site_id
 _symmetry_equiv_pos_as_xyz
  1  'x, y, z'
loop_
 _atom_site_type_symbol
 _atom_site_label
 _atom_site_symmetry_multiplicity
 _atom_site_fract_x
 _atom_site_fract_y
 _atom_site_fract_z
 _atom_site_occupancy
  Zr  Zr0  1  0.10221914  0.09715460  0.89581955  1
  Zr  Zr1  1  0.10140727  0.29677602  0.89468891  1
  Zr  Zr2  1  0.69813031  0.69782607  0.70241345  1
  Zr  Zr3  1  0.49715447  0.50664003  0.09407423  1
  Zr  Zr4  1  0.90500128  0.69547052  0.89352305  1
  Zr  Zr5  1  0.50252221  0.89634078  0.70590723  1
  Zr  Zr6  1  0.50532404  0.70668497  0.10613847  1
  Zr  Zr7  1  0.10612545  0.90581508  0.90113366  1
  Zr  Zr8  1  0.08884116  0.49862165  0.50029146  1
  Zr  Zr9  1  0.90258043  0.29533754  0.10873880  1
  Zr  Zr10  1  0.69655096  0.89520403  0.10289900  1
  Zr  Zr11  1  0.28877304  0.49427442  0.10170250  1
  Zr  Zr12  1  0.90610935  0.49054641  0.29940728  1
  Zr  Zr13  1  0.49581095  0.90246274  0.09399981  1
  Zr  Zr14  1  0.49874257  0.89415199  0.90196772  1
  Zr  Zr15  1  0.09325469  0.49893606  0.89936526  1
  Zr  Zr16  1  0.89956505  0.49597117  0.09340080  1
  Zr  Zr17  1  0.29436986  0.70713040  0.50088740  1
  Zr  Zr18  1  0.70812413  0.50213041  0.30094028  1
  Zr  Zr19  1  0.69864632  0.69921475  0.48756912  1
  Zr  Zr20  1  0.70228884  0.29838489  0.30479726  1
  Zr  Zr21  1  0.29496023  0.90283589  0.49750299  1
  Zr  Zr22  1  0.31191908  0.09658619  0.10758808  1
  Zr  Zr23  1  0.69615508  0.50789198  0.70256222  1
  Zr  Zr24  1  0.50033106  0.49236813  0.30721611  1
  Zr  Zr25  1  0.89564279  0.50204581  0.49021216  1
  Zr  Zr26  1  0.49057558  0.50158709  0.69774927  1
  Zr  Zr27  1  0.50434796  0.31488237  0.50018955  1
  Zr  Zr28  1  0.29314279  0.09824441  0.30229797  1
  Zr  Zr29  1  0.69938858  0.89795020  0.70537650  1
  Zr  Zr30  1  0.10323712  0.70528544  0.89063380  1
  Zr  Zr31  1  0.29639495  0.68817284  0.70834030  1
  Zr  Zr32  1  0.30801069  0.29894455  0.70389746  1
  Zr  Zr33  1  0.10309704  0.49967487  0.69690120  1
  Zr  Zr34  1  0.90481241  0.69850364  0.50121888  1
  Zr  Zr35  1  0.71015939  0.09971171  0.69746755  1
  Zr  Zr36  1  0.69706428  0.10521948  0.09834203  1
  Zr  Zr37  1  0.28817649  0.09518338  0.90041935  1
  Zr  Zr38  1  0.29751953  0.09743199  0.69461644  1
  Zr  Zr39  1  0.89440205  0.70268476  0.30611431  1
  Zr  Zr40  1  0.90164617  0.09931208  0.10594958  1
  Zr  Zr41  1  0.29514233  0.90604244  0.29602431  1
  Zr  Zr42  1  0.09745561  0.09894513  0.49888266  1
  Zr  Zr43  1  0.50339170  0.09887474  0.49626865  1
  Zr  Zr44  1  0.49377911  0.28028737  0.10303381  1
  Zr  Zr45  1  0.49818202  0.09591037  0.91604297  1
  Zr  Zr46  1  0.91208799  0.09968869  0.89951299  1
  Zr  Zr47  1  0.30111110  0.71045729  0.10079422  1
  Zr  Zr48  1  0.29781408  0.70948284  0.30044253  1
  Zr  Zr49  1  0.71015543  0.09783463  0.49584477  1
  Sc  Sc50  1  0.29396937  0.09547938  0.50417690  1
  Sc  Sc51  1  0.29771341  0.30019126  0.30256193  1
  Sc  Sc52  1  0.29548658  0.89850406  0.69026474  1
  Sc  Sc53  1  0.69923541  0.10158817  0.30628828  1
  Sc  Sc54  1  0.70778503  0.50854072  0.90490974  1
  Sc  Sc55  1  0.09629973  0.29474847  0.50063419  1
  Sc  Sc56  1  0.49820391  0.90333152  0.49293060  1
  Sc  Sc57  1  0.09930338  0.70133645  0.69221734  1
  Sc  Sc58  1  0.09980360  0.10184625  0.69893651  1
  Sc  Sc59  1  0.90150468  0.90350601  0.29806783  1
  Sc  Sc60  1  0.09842217  0.90352713  0.30515785  1
  Sc  Sc61  1  0.69680162  0.10099089  0.90285174  1
  Sc  Sc62  1  0.70788271  0.29763093  0.70181373  1
  Sc  Sc63  1  0.90690618  0.90374140  0.69435483  1
  Sc  Sc64  1  0.48760851  0.69720396  0.89953719  1
  Sc  Sc65  1  0.09287026  0.70671364  0.29788076  1
  Sc  Sc66  1  0.69390181  0.49824692  0.49744886  1
  Sc  Sc67  1  0.09867490  0.49870938  0.10515934  1
  Sc  Sc68  1  0.70479796  0.50718480  0.09589318  1
  Sc  Sc69  1  0.09895415  0.09870235  0.30410324  1
  Sc  Sc70  1  0.09535926  0.70345941  0.10506957  1
  Sc  Sc71  1  0.90828873  0.51055225  0.69168229  1
  Sc  Sc72  1  0.70224241  0.89916331  0.30823296  1
  Sc  Sc73  1  0.92007421  0.89597452  0.89148523  1
  Sc  Sc74  1  0.90360183  0.29893478  0.49072791  1
  Sc  Sc75  1  0.50648372  0.29430157  0.30416808  1
  Sc  Sc76  1  0.48147588  0.30001573  0.89913132  1
  Sc  Sc77  1  0.71189591  0.30156569  0.90470589  1
  Sc  Sc78  1  0.70824305  0.29447432  0.10016906  1
  Sc  Sc79  1  0.09867396  0.09243166  0.09707433  1
  Sc  Sc80  1  0.29530886  0.29539553  0.50396528  1
  Sc  Sc81  1  0.09739748  0.70883882  0.49710958  1
  Sc  Sc82  1  0.90566300  0.70446630  0.10721291  1
  Sc  Sc83  1  0.30434259  0.49337024  0.51220763  1
  Sc  Sc84  1  0.90429174  0.90517244  0.49817009  1
  Sc  Sc85  1  0.90900797  0.29226095  0.70340538  1
  Sc  Sc86  1  0.29427667  0.29674811  0.90645885  1
  Sc  Sc87  1  0.48900743  0.09793275  0.69779360  1
  Sc  Sc88  1  0.68707693  0.89819430  0.89682426  1
  Sc  Sc89  1  0.31107572  0.50164972  0.89749635  1
  Sc  Sc90  1  0.89979378  0.10113291  0.30150428  1
  Sc  Sc91  1  0.70650860  0.69873199  0.89057109  1
  Sc  Sc92  1  0.50037283  0.10264178  0.29429664  1
  Sc  Sc93  1  0.50210697  0.89872181  0.30272804  1
  Sc  Sc94  1  0.90918465  0.30249593  0.90241085  1
  Sc  Sc95  1  0.09777711  0.89717877  0.50206808  1
  Sc  Sc96  1  0.90681456  0.10054627  0.69362333  1
  Sc  Sc97  1  0.09099576  0.29697208  0.29891736  1
  Sc  Sc98  1  0.10595866  0.30852683  0.09875301  1
  Sc  Sc99  1  0.69901556  0.69995467  0.10808757  1
  Nb  Nb100  1  0.89611722  0.70640362  0.69693702  1
  Nb  Nb101  1  0.09789543  0.30245948  0.70329714  1
  Nb  Nb102  1  0.50129418  0.09748177  0.10314231  1
  Nb  Nb103  1  0.29347055  0.90356136  0.10278984  1
  Nb  Nb104  1  0.69130141  0.70363441  0.29959578  1
  Nb  Nb105  1  0.09402003  0.89987666  0.69563727  1
  Nb  Nb106  1  0.50630418  0.69961374  0.30621472  1
  Nb  Nb107  1  0.50195437  0.69635070  0.69476201  1
  Nb  Nb108  1  0.29847157  0.88805444  0.90594026  1
  Nb  Nb109  1  0.29726594  0.29863950  0.10414685  1
  Nb  Nb110  1  0.90010057  0.49851525  0.89802230  1
  Nb  Nb111  1  0.29303397  0.70318450  0.90028465  1
  Nb  Nb112  1  0.29814897  0.50126136  0.29753757  1
  Nb  Nb113  1  0.10689757  0.49635902  0.29580085  1
  Nb  Nb114  1  0.50212774  0.69480247  0.49937321  1
  Nb  Nb115  1  0.50169669  0.30038493  0.70298714  1
  Nb  Nb116  1  0.49948458  0.50079520  0.50329091  1
  Nb  Nb117  1  0.90150519  0.90336548  0.09864528  1
  Nb  Nb118  1  0.69909565  0.90425346  0.50350197  1
  Nb  Nb119  1  0.09235968  0.90329874  0.10115394  1
  Nb  Nb120  1  0.69858203  0.29841779  0.49890543  1
  Nb  Nb121  1  0.29595235  0.49813662  0.70380054  1
  Nb  Nb122  1  0.50012958  0.49474938  0.90083554  1
  Nb  Nb123  1  0.90176385  0.09284474  0.50503707  1
  Nb  Nb124  1  0.89858195  0.30264058  0.29313209  1
  Nb  Nb125  1  0.19938377  0.40147309  0.79478195  1
  Nb  Nb126  1  0.59941089  0.79739518  0.59481128  1
  Nb  Nb127  1  0.59452576  0.40043446  -0.00114283  1
  Nb  Nb128  1  0.39980716  0.19960548  0.40295458  1
  Nb  Nb129  1  0.60477657  -0.00000551  0.59888457  1
  Nb  Nb130  1  0.20265522  0.19905041  0.19802712  1
  Nb  Nb131  1  0.80454297  0.00022939  0.80496701  1
  Nb  Nb132  1  0.80571047  -0.00720252  -0.00197460  1
  Nb  Nb133  1  0.39305467  -0.00765002  0.80755914  1
  Nb  Nb134  1  0.40051770  0.59965489  0.40115154  1
  Nb  Nb135  1  0.40670109  0.79142412  0.59951161  1
  Nb  Nb136  1  0.20149204  0.60609495  -0.00487144  1
  Nb  Nb137  1  0.20310104  0.59347211  0.39494452  1
  Nb  Nb138  1  0.59853364  0.39892259  0.80486722  1
  Nb  Nb139  1  0.19634916  0.40777359  0.39709881  1
  Nb  Nb140  1  0.39981081  0.60042884  0.20849072  1
  Nb  Nb141  1  0.79515414  0.79968501  0.59863642  1
  Nb  Nb142  1  0.59827276  0.00205467  0.19345427  1
  Nb  Nb143  1  0.60206139  0.20103447  0.60127215  1
  Nb  Nb144  1  0.59473105  0.20620974  0.79671790  1
  Nb  Nb145  1  0.59638281  0.39980696  0.19303956  1
  Nb  Nb146  1  0.79947569  0.39901212  0.60021621  1
  Nb  Nb147  1  0.39976687  0.40071623  0.19880372  1
  Nb  Nb148  1  0.80464608  0.40820580  0.79615609  1
  Nb  Nb149  1  0.80696827  0.80788066  -0.00036984  1
  Pd  Pd150  1  0.59745930  0.59289556  0.40069715  1
  Pd  Pd151  1  0.80541952  0.20926751  0.59463229  1
  Pd  Pd152  1  0.19802180  0.80714175  0.78919583  1
  Pd  Pd153  1  0.40446605  0.79795705  0.40437505  1
  Pd  Pd154  1  0.80241432  0.20071143  0.80647237  1
  Pd  Pd155  1  0.20337306  -0.00973852  0.79125107  1
  Pd  Pd156  1  0.19111306  0.79974884  0.00776351  1
  Pd  Pd157  1  0.59690470  0.59386827  0.20349463  1
  Pd  Pd158  1  0.39216077  0.60634740  0.00479843  1
  Pd  Pd159  1  -0.00025875  0.60358872  0.79067436  1
  Pd  Pd160  1  0.79597540  0.59991004  0.59551926  1
  Pd  Pd161  1  0.40045794  0.18758681  0.80694401  1
  Pd  Pd162  1  0.00370765  0.00117027  0.20668770  1
  Pd  Pd163  1  0.39470078  0.79910798  0.79333000  1
  Pd  Pd164  1  0.19919328  0.39355238  0.59907704  1
  Pd  Pd165  1  0.59105129  0.59806197  0.80907959  1
  Pd  Pd166  1  0.80622835  0.60366562  0.20094171  1
  Pd  Pd167  1  0.00856554  0.20272600  0.00755404  1
  Pd  Pd168  1  -0.00419939  0.59746475  0.20356605  1
  Pd  Pd169  1  0.39532312  0.60190675  0.59510899  1
  Pd  Pd170  1  0.80935697  0.20068373  0.39846814  1
  Pd  Pd171  1  0.38918191  -0.00523790  -0.00341711  1
  Pd  Pd172  1  0.00591379  0.60402437  0.00327068  1
  Pd  Pd173  1  -0.00554237  0.19714223  0.39754827  1
  Pd  Pd174  1  0.40018693  0.00711122  0.39481714  1
  Pd  Pd175  1  0.00123495  0.39567004  0.00379224  1
  Pd  Pd176  1  0.80820528  0.80978638  0.80171260  1
  Pd  Pd177  1  0.40641973  0.80332403  0.20333864  1
  Pd  Pd178  1  0.60832336  0.78648994  -0.00800433  1
  Pd  Pd179  1  0.39952976  0.39442532  0.00792303  1
  Pd  Pd180  1  0.20137406  0.60832517  0.19827825  1
  Pd  Pd181  1  -0.01091469  0.39478179  0.60047991  1
  Pd  Pd182  1  0.38976129  0.39780149  0.40006987  1
  Pd  Pd183  1  0.18854866  0.80818308  0.20053020  1
  Pd  Pd184  1  0.80518627  0.61377442  0.00359036  1
  Pd  Pd185  1  0.60751704  0.39725205  0.60988829  1
  Pd  Pd186  1  0.80748952  0.19320366  -0.00477883  1
  Pd  Pd187  1  0.59637865  0.01487463  0.79679680  1
  Pd  Pd188  1  0.60310680  0.60429364  -0.00709963  1
  Pd  Pd189  1  0.00003389  0.79977946  0.00089368  1
  Pd  Pd190  1  0.40751088  0.20578592  0.59028686  1
  Pd  Pd191  1  0.79187199  0.00380366  0.19951409  1
  Pd  Pd192  1  0.19460752  0.20308137  0.60430525  1
  Pd  Pd193  1  0.20024117  0.19324930  0.01143226  1
  Pd  Pd194  1  0.19612459  0.60018317  0.58954645  1
  Pd  Pd195  1  0.59889356  0.21257707  -0.01066592  1
  Pd  Pd196  1  0.80069215  0.79935007  0.19974645  1
  Pd  Pd197  1  0.79233557  0.40030150  0.19322736  1
  Pd  Pd198  1  0.80373315  0.80721397  0.40557779  1
  Pd  Pd199  1  0.00789730  0.60230879  0.39248109  1
  Rh  Rh200  1  0.20194945  0.80081353  0.60308944  1
  Rh  Rh201  1  0.19044122  -0.00177948  0.59949378  1
  Rh  Rh202  1  0.20391028  0.20592477  0.39406678  1
  Rh  Rh203  1  0.40774023  -0.01362624  0.60682362  1
  Rh  Rh204  1  0.19394198  0.80074190  0.39710594  1
  Rh  Rh205  1  0.20123101  0.58893732  0.80998280  1
  Rh  Rh206  1  0.00192611  0.00209056  0.79218530  1
  Rh  Rh207  1  0.00548824  0.19676301  0.79704521  1
  Rh  Rh208  1  0.00173493  0.39923659  0.19761889  1
  Rh  Rh209  1  0.79993065  0.19656681  0.20791744  1
  Rh  Rh210  1  0.79858443  0.60138243  0.39465472  1
  Rh  Rh211  1  0.40072191  0.59968875  0.80071408  1
  Rh  Rh212  1  0.19283316  0.00274889  0.19524825  1
  Rh  Rh213  1  0.19442618  -0.00199336  0.40572584  1
  Rh  Rh214  1  0.39880376  0.39780767  0.60370641  1
  Rh  Rh215  1  -0.00191065  -0.00206405  0.00032218  1
  Rh  Rh216  1  0.00560801  0.79773008  0.79004172  1
  Rh  Rh217  1  0.00747145  0.19903514  0.19811575  1
  Rh  Rh218  1  -0.00292228  0.00313204  0.40206917  1
  Rh  Rh219  1  0.39073649  0.19535550  -0.00184947  1
  Rh  Rh220  1  0.60881196  -0.00079802  0.00715102  1
  Rh  Rh221  1  0.20057672  0.38765642  0.20846921  1
  Rh  Rh222  1  0.79955093  0.40389737  -0.00535655  1
  Rh  Rh223  1  0.39742184  0.40364005  0.79696887  1
  Rh  Rh224  1  0.59246479  0.78488479  0.80208467  1
  Rh  Rh225  1  0.81135356  0.59354707  0.79721388  1
  Rh  Rh226  1  0.79796015  0.39479955  0.40652180  1
  Rh  Rh227  1  0.39172172  0.20472912  0.21173869  1
  Rh  Rh228  1  0.00546729  0.39656479  0.39490761  1
  Rh  Rh229  1  0.20231365  -0.00452220  0.00686053  1
  Rh  Rh230  1  0.00352477  0.60719529  0.59953460  1
  Rh  Rh231  1  0.59898825  0.80716266  0.20881295  1
  Rh  Rh232  1  0.59893273  0.80374886  0.40208889  1
  Rh  Rh233  1  -0.00135918  0.40275364  0.79452237  1
  Rh  Rh234  1  0.80547301  -0.00079546  0.40103935  1
  Rh  Rh235  1  0.00488700  0.00174180  0.59787058  1
  Rh  Rh236  1  -0.00732706  0.80033495  0.60086680  1
  Rh  Rh237  1  0.80024908  -0.00858664  0.60531721  1
  Rh  Rh238  1  0.60939913  0.40353269  0.39473836  1
  Rh  Rh239  1  0.59497198  0.20090895  0.40744104  1
  Rh  Rh240  1  0.00013974  0.19997513  0.59750206  1
  Rh  Rh241  1  0.40710996  -0.00742314  0.20384806  1
  Rh  Rh242  1  0.60356504  0.00021099  0.39565078  1
  Rh  Rh243  1  0.60150328  0.60291992  0.59459087  1
  Rh  Rh244  1  -0.00197623  0.80817023  0.20322588  1
  Rh  Rh245  1  0.60655798  0.19795960  0.20211242  1
  Rh  Rh246  1  0.19935160  0.20741458  0.79196881  1
  Rh  Rh247  1  -0.00386790  0.80419563  0.39856651  1
  Rh  Rh248  1  0.39708764  0.79976653  0.00326954  1
  Rh  Rh249  1  0.19974998  0.41000301  -0.01342452  1
