# generated using pymatgen
data_ZrScNbPdRh
_symmetry_space_group_name_H-M   'P 1'
_cell_length_a   16.55151447
_cell_length_b   16.55542673
_cell_length_c   16.55559884
_cell_angle_alpha   89.99291602
_cell_angle_beta   89.98071075
_cell_angle_gamma   89.99480390
_symmetry_Int_Tables_number   1
_chemical_formula_structural   ZrScNbPdRh
_chemical_formula_sum   'Zr50 Sc50 Nb50 Pd50 Rh50'
_cell_volume   4536.52159235
_cell_formula_units_Z   50
loop_
 _symmetry_equiv_pos_site_id
 _symmetry_equiv_pos_as_xyz
  1  'x, y, z'
loop_
 _atom_site_type_symbol
 _atom_site_label
 _atom_site_symmetry_multiplicity
 _atom_site_fract_x
 _atom_site_fract_y
 _atom_site_fract_z
 _atom_site_occupancy
  Zr  Zr0  1  0.90837983  0.29453129  0.69163745  1
  Zr  Zr1  1  0.69071544  0.30312693  0.10355289  1
  Zr  Zr2  1  0.69948619  0.30338793  0.68954967  1
  Zr  Zr3  1  0.50552063  0.29680600  0.29959653  1
  Zr  Zr4  1  0.70486899  0.90175644  0.50341897  1
  Zr  Zr5  1  0.88930986  0.30213540  0.10074006  1
  Zr  Zr6  1  0.69875443  0.70923415  0.10527324  1
  Zr  Zr7  1  0.29478267  0.49599795  0.50338294  1
  Zr  Zr8  1  0.30076824  0.89305283  0.70043231  1
  Zr  Zr9  1  0.09415319  0.89685654  0.69993893  1
  Zr  Zr10  1  0.09715642  0.30424679  0.09796773  1
  Zr  Zr11  1  0.70210844  0.49072218  0.50698558  1
  Zr  Zr12  1  0.69891173  0.70350581  0.30137386  1
  Zr  Zr13  1  0.09518854  0.10357329  0.69449972  1
  Zr  Zr14  1  0.70782474  0.69565028  0.90169841  1
  Zr  Zr15  1  0.29671908  0.69362009  0.69968337  1
  Zr  Zr16  1  0.50099013  0.69495648  0.89972287  1
  Zr  Zr17  1  0.50354311  0.90305813  0.69438985  1
  Zr  Zr18  1  0.70039671  0.90408143  0.30044982  1
  Zr  Zr19  1  0.90587872  0.29748990  0.89325080  1
  Zr  Zr20  1  0.70615755  0.49910360  0.30492987  1
  Zr  Zr21  1  0.49790955  0.09519515  0.10325293  1
  Zr  Zr22  1  0.70102772  0.09879636  0.09678867  1
  Zr  Zr23  1  0.29554725  0.70337991  0.30154025  1
  Zr  Zr24  1  0.29530025  0.09853872  0.31207738  1
  Zr  Zr25  1  0.30364051  0.69506416  0.89740864  1
  Zr  Zr26  1  0.29705685  0.90078703  0.89949833  1
  Zr  Zr27  1  0.50244955  0.29426545  0.69238814  1
  Zr  Zr28  1  0.90831846  0.49500526  0.70092972  1
  Zr  Zr29  1  0.50150003  0.70203004  0.69973073  1
  Zr  Zr30  1  0.29538322  0.90277370  0.09197090  1
  Zr  Zr31  1  0.28991610  0.30471237  0.09218091  1
  Zr  Zr32  1  0.10209430  0.89995348  0.90425223  1
  Zr  Zr33  1  0.90728292  0.90294446  0.89976571  1
  Zr  Zr34  1  0.89362203  0.90338256  0.29901635  1
  Zr  Zr35  1  0.49856194  0.90855218  0.90054999  1
  Zr  Zr36  1  0.49768556  0.09370777  0.30018871  1
  Zr  Zr37  1  0.29331079  0.30337077  0.70313043  1
  Zr  Zr38  1  0.09324107  0.90277674  0.09657161  1
  Zr  Zr39  1  0.70112039  0.90903729  0.90691934  1
  Zr  Zr40  1  0.49571128  0.49702179  0.09679090  1
  Zr  Zr41  1  0.70326742  0.69951840  0.70108653  1
  Zr  Zr42  1  0.10447256  0.49985322  0.69320228  1
  Zr  Zr43  1  0.29792556  0.10134437  0.10134881  1
  Zr  Zr44  1  0.09184009  0.09934260  0.10151441  1
  Zr  Zr45  1  0.50398952  0.69952823  0.29874126  1
  Zr  Zr46  1  0.70016791  0.90425040  0.69285970  1
  Zr  Zr47  1  0.10453236  0.49302327  0.10193666  1
  Zr  Zr48  1  0.69646030  0.10192859  0.30244801  1
  Zr  Zr49  1  0.70853329  0.29162801  0.91095882  1
  Sc  Sc50  1  0.50618434  0.10238969  0.69766148  1
  Sc  Sc51  1  0.50082378  0.49794830  0.90340248  1
  Sc  Sc52  1  0.69955513  0.50467774  0.89675300  1
  Sc  Sc53  1  0.50952512  0.49092314  0.71025580  1
  Sc  Sc54  1  0.50277371  0.49237371  0.48895156  1
  Sc  Sc55  1  0.90240331  0.48779513  0.49978402  1
  Sc  Sc56  1  0.88958095  0.69620888  0.09707037  1
  Sc  Sc57  1  0.70333090  0.09875193  0.89734216  1
  Sc  Sc58  1  0.90119884  0.10310663  0.69882547  1
  Sc  Sc59  1  0.89674036  0.90542658  0.09956940  1
  Sc  Sc60  1  0.10246924  0.89230326  0.30676866  1
  Sc  Sc61  1  0.90541078  0.70061437  0.70450755  1
  Sc  Sc62  1  0.69756322  0.09866012  0.69635454  1
  Sc  Sc63  1  0.90596987  0.90499140  0.68784518  1
  Sc  Sc64  1  0.29396788  0.09286126  0.90401867  1
  Sc  Sc65  1  0.89559655  0.10278280  0.50658775  1
  Sc  Sc66  1  0.70120176  0.49346738  0.10443257  1
  Sc  Sc67  1  0.89664967  0.71343478  0.50102799  1
  Sc  Sc68  1  0.30630013  0.89476168  0.49077327  1
  Sc  Sc69  1  0.89860973  0.50831797  0.90115746  1
  Sc  Sc70  1  0.11316046  0.70528521  0.09989367  1
  Sc  Sc71  1  0.29774697  0.10859192  0.69616884  1
  Sc  Sc72  1  0.50122520  0.70939968  0.49411003  1
  Sc  Sc73  1  0.09064634  0.49446151  0.89929475  1
  Sc  Sc74  1  0.09963832  0.69925101  0.69218520  1
  Sc  Sc75  1  0.09665383  0.70467267  0.89933182  1
  Sc  Sc76  1  0.50393174  0.49977990  0.30054125  1
  Sc  Sc77  1  0.70074808  0.71011155  0.49714237  1
  Sc  Sc78  1  0.70350535  0.10091965  0.49922760  1
  Sc  Sc79  1  0.88263264  0.70110592  0.30043610  1
  Sc  Sc80  1  0.30411101  0.69281450  0.10441944  1
  Sc  Sc81  1  0.30534030  0.90321496  0.30736174  1
  Sc  Sc82  1  0.70055191  0.49768364  0.70569543  1
  Sc  Sc83  1  0.90036564  0.09278636  0.10349806  1
  Sc  Sc84  1  0.11009809  0.10946622  0.49467278  1
  Sc  Sc85  1  0.29480455  0.50252786  0.30509903  1
  Sc  Sc86  1  0.90099649  0.69583961  0.90155586  1
  Sc  Sc87  1  0.30830085  0.49106503  0.89462717  1
  Sc  Sc88  1  0.89372185  0.09769269  0.29351276  1
  Sc  Sc89  1  0.09739944  0.29739959  0.70678069  1
  Sc  Sc90  1  0.10171255  0.30123384  0.50730500  1
  Sc  Sc91  1  0.69845210  0.29466902  0.49779942  1
  Sc  Sc92  1  0.10228226  0.09800483  0.89477282  1
  Sc  Sc93  1  0.29733566  0.69841635  0.49654527  1
  Sc  Sc94  1  0.10207220  0.50143423  0.50456133  1
  Sc  Sc95  1  0.29122273  0.29447823  0.50237190  1
  Sc  Sc96  1  0.50618262  0.30916576  0.90669595  1
  Sc  Sc97  1  0.50766986  0.10665544  0.50226793  1
  Sc  Sc98  1  0.89966694  0.49791328  0.09866732  1
  Sc  Sc99  1  0.50411511  0.09588368  0.89691158  1
  Nb  Nb100  1  0.49778867  0.29649719  0.50248806  1
  Nb  Nb101  1  0.90349122  0.31151294  0.30034982  1
  Nb  Nb102  1  0.50023781  0.69955046  0.10276071  1
  Nb  Nb103  1  0.09547459  0.10151914  0.30099333  1
  Nb  Nb104  1  0.09464579  0.70663362  0.49311480  1
  Nb  Nb105  1  0.29676945  0.50109489  0.69292009  1
  Nb  Nb106  1  0.30013771  0.09924626  0.50038141  1
  Nb  Nb107  1  0.69434541  0.90459475  0.09903576  1
  Nb  Nb108  1  0.09159098  0.49703762  0.29791819  1
  Nb  Nb109  1  0.49863511  0.90178828  0.30660121  1
  Nb  Nb110  1  0.30287841  0.49704843  0.09313984  1
  Nb  Nb111  1  0.50166525  0.89978964  0.49614626  1
  Nb  Nb112  1  0.29861321  0.29702651  0.30113005  1
  Nb  Nb113  1  0.50461714  0.90201613  0.10020592  1
  Nb  Nb114  1  0.10833124  0.29402970  0.90266811  1
  Nb  Nb115  1  0.89953056  0.29672140  0.50235353  1
  Nb  Nb116  1  0.10170555  0.69707262  0.30043529  1
  Nb  Nb117  1  0.90094789  0.90509299  0.50081366  1
  Nb  Nb118  1  0.29152840  0.29284750  0.90062319  1
  Nb  Nb119  1  0.89598888  0.10430276  0.90277747  1
  Nb  Nb120  1  0.08342814  0.89565043  0.50755679  1
  Nb  Nb121  1  0.49852451  0.30434422  0.09981490  1
  Nb  Nb122  1  0.70484128  0.30012779  0.29291687  1
  Nb  Nb123  1  0.09565144  0.30373269  0.29639254  1
  Nb  Nb124  1  0.90607737  0.49608895  0.30237934  1
  Nb  Nb125  1  0.39637157  0.00160017  0.59365510  1
  Nb  Nb126  1  0.40735346  0.80015720  0.00625273  1
  Nb  Nb127  1  0.59809832  0.60572803  0.00817061  1
  Nb  Nb128  1  0.39859068  0.20531406  0.00000919  1
  Nb  Nb129  1  0.00172852  0.60245558  0.39316773  1
  Nb  Nb130  1  0.39686812  0.20653280  0.80787220  1
  Nb  Nb131  1  0.20128923  -0.00548387  0.59380243  1
  Nb  Nb132  1  0.39849170  0.39978789  0.60065806  1
  Nb  Nb133  1  0.19361687  0.20107002  0.20846963  1
  Nb  Nb134  1  -0.00013820  0.79146389  0.20434319  1
  Nb  Nb135  1  0.79818624  0.59766273  0.60065395  1
  Nb  Nb136  1  0.59989427  0.59918153  0.59947082  1
  Nb  Nb137  1  0.19456871  0.00495038  0.20529680  1
  Nb  Nb138  1  0.39602219  0.39513931  0.19695856  1
  Nb  Nb139  1  0.60641742  0.80318838  0.80260947  1
  Nb  Nb140  1  0.00074053  0.00246633  0.40313499  1
  Nb  Nb141  1  -0.00154545  0.20199247  -0.00281686  1
  Nb  Nb142  1  0.40817905  0.80445698  0.19693024  1
  Nb  Nb143  1  -0.00179728  0.20543104  0.39222702  1
  Nb  Nb144  1  0.40359280  0.59125539  0.60174918  1
  Nb  Nb145  1  0.20564219  0.59239067  0.00005169  1
  Nb  Nb146  1  0.79869664  0.80718435  0.80103363  1
  Nb  Nb147  1  0.80546088  0.39334470  0.79783895  1
  Nb  Nb148  1  0.00359715  0.60143660  0.20807831  1
  Nb  Nb149  1  0.39841989  0.20198418  0.40223753  1
  Pd  Pd150  1  0.79734881  0.39168217  0.39988949  1
  Pd  Pd151  1  0.60747117  0.39137015  0.39740386  1
  Pd  Pd152  1  -0.00773326  0.60554334  0.58682194  1
  Pd  Pd153  1  0.19850553  0.80530888  0.40674970  1
  Pd  Pd154  1  -0.00925336  0.79855490  0.39149431  1
  Pd  Pd155  1  0.59732089  0.20320712  0.80408665  1
  Pd  Pd156  1  -0.00563972  0.79082017  0.01018175  1
  Pd  Pd157  1  0.20257376  0.80882678  0.20027804  1
  Pd  Pd158  1  0.19907173  0.80138749  0.59062749  1
  Pd  Pd159  1  0.40421343  0.58899913  0.79295584  1
  Pd  Pd160  1  0.80609908  0.80586507  -0.00152964  1
  Pd  Pd161  1  0.19214936  0.59719063  0.40481917  1
  Pd  Pd162  1  0.19338586  0.59317156  0.80849238  1
  Pd  Pd163  1  0.40163498  0.60155933  0.40541746  1
  Pd  Pd164  1  0.40172209  0.39393680  0.79622779  1
  Pd  Pd165  1  0.39918532  0.79829472  0.59339056  1
  Pd  Pd166  1  0.59157977  0.19488699  -0.00155114  1
  Pd  Pd167  1  -0.00381911  0.39583020  -0.00349088  1
  Pd  Pd168  1  0.60032758  0.00081320  0.40639939  1
  Pd  Pd169  1  0.59659986  0.79734491  -0.00483218  1
  Pd  Pd170  1  0.19307624  0.39775149  0.39845902  1
  Pd  Pd171  1  0.80712502  0.20260920  0.39647266  1
  Pd  Pd172  1  0.39223108  -0.00866337  0.20087114  1
  Pd  Pd173  1  0.01014888  0.60653838  0.01162237  1
  Pd  Pd174  1  0.20706081  0.39949648  0.20800228  1
  Pd  Pd175  1  0.00731331  0.39791387  0.40890719  1
  Pd  Pd176  1  0.39286150  0.20680848  0.19972576  1
  Pd  Pd177  1  0.80372410  0.59265515  0.19782496  1
  Pd  Pd178  1  0.79902512  0.40827078  -0.00859196  1
  Pd  Pd179  1  0.61235802  0.39092501  0.80974730  1
  Pd  Pd180  1  -0.00248613  0.00489544  0.80034385  1
  Pd  Pd181  1  0.00618403  0.60265436  0.79981896  1
  Pd  Pd182  1  0.18858272  -0.00974301  0.40635179  1
  Pd  Pd183  1  0.19418627  0.40545808  0.80418066  1
  Pd  Pd184  1  -0.00420314  0.20532411  0.19946989  1
  Pd  Pd185  1  0.39631089  0.39123593  0.39965453  1
  Pd  Pd186  1  0.80581874  -0.00127616  0.79394445  1
  Pd  Pd187  1  0.79709071  0.20198845  0.79070952  1
  Pd  Pd188  1  0.40638068  0.80202702  0.80582423  1
  Pd  Pd189  1  0.19894086  0.59425123  0.19636543  1
  Pd  Pd190  1  0.60327444  0.60239209  0.40913069  1
  Pd  Pd191  1  0.60412454  0.59248991  0.19667082  1
  Pd  Pd192  1  0.39598584  0.01298871  0.78867796  1
  Pd  Pd193  1  0.19356800  0.79565110  0.80095200  1
  Pd  Pd194  1  0.59658971  0.80975595  0.20572033  1
  Pd  Pd195  1  0.80084488  0.20007539  0.20014648  1
  Pd  Pd196  1  0.20193247  0.00407668  0.78795211  1
  Pd  Pd197  1  0.39684175  0.59592098  0.20595700  1
  Pd  Pd198  1  0.59964861  0.19697477  0.19901589  1
  Pd  Pd199  1  0.80867106  0.59819829  0.41263834  1
  Rh  Rh200  1  0.59875750  0.20315983  0.39761343  1
  Rh  Rh201  1  0.00278985  0.19850221  0.58807252  1
  Rh  Rh202  1  0.39740394  0.39158139  0.00067996  1
  Rh  Rh203  1  0.19483983  0.19180717  0.00437798  1
  Rh  Rh204  1  0.80679621  0.00376983  0.40424298  1
  Rh  Rh205  1  0.00665132  0.01173175  0.58926695  1
  Rh  Rh206  1  0.60213462  -0.00163554  0.20101855  1
  Rh  Rh207  1  0.19712037  0.21019544  0.39498248  1
  Rh  Rh208  1  0.79061451  -0.00054120  0.19502990  1
  Rh  Rh209  1  0.79764146  0.80704233  0.40159098  1
  Rh  Rh210  1  0.40314154  0.00233666  0.00075371  1
  Rh  Rh211  1  0.21221153  0.78748338  -0.00481412  1
  Rh  Rh212  1  0.80122709  0.40365065  0.20670137  1
  Rh  Rh213  1  0.80134357  0.80834935  0.19500441  1
  Rh  Rh214  1  -0.00772266  0.40427628  0.19521511  1
  Rh  Rh215  1  0.78888757  0.59569209  0.00840419  1
  Rh  Rh216  1  0.59809617  0.60466644  0.80220397  1
  Rh  Rh217  1  0.00777884  -0.01615443  0.21376646  1
  Rh  Rh218  1  0.40279032  0.79519942  0.39107129  1
  Rh  Rh219  1  0.59388922  0.00176737  0.59285252  1
  Rh  Rh220  1  0.20154202  0.60877128  0.59280055  1
  Rh  Rh221  1  0.20053104  0.41070374  -0.01293104  1
  Rh  Rh222  1  0.19761204  0.19744310  0.60402053  1
  Rh  Rh223  1  -0.00369422  0.01084098  -0.00947181  1
  Rh  Rh224  1  0.59949326  0.00742971  0.00177116  1
  Rh  Rh225  1  0.40007064  0.60370852  -0.00003871  1
  Rh  Rh226  1  0.60394817  -0.00328149  0.79780412  1
  Rh  Rh227  1  0.00388474  0.19471783  0.80779174  1
  Rh  Rh228  1  0.80804969  0.40091077  0.60578035  1
  Rh  Rh229  1  0.19932238  0.39591931  0.60313627  1
  Rh  Rh230  1  0.81023093  0.59404185  0.79081241  1
  Rh  Rh231  1  -0.00364440  0.80168018  0.79801855  1
  Rh  Rh232  1  0.59958772  0.79752133  0.60076079  1
  Rh  Rh233  1  0.39906907  0.20139046  0.59794610  1
  Rh  Rh234  1  0.40998525  0.00867505  0.41143096  1
  Rh  Rh235  1  0.00554370  0.39562200  0.59779354  1
  Rh  Rh236  1  0.60723140  0.19778649  0.59543082  1
  Rh  Rh237  1  0.80131846  0.00435039  0.59970552  1
  Rh  Rh238  1  0.80622305  0.79859052  0.60612993  1
  Rh  Rh239  1  0.59516031  0.40246282  0.20616743  1
  Rh  Rh240  1  0.60596220  0.40864637  -0.00034072  1
  Rh  Rh241  1  0.80707199  0.19256552  0.00693389  1
  Rh  Rh242  1  0.60214144  0.80710485  0.39776315  1
  Rh  Rh243  1  0.58867982  0.40507575  0.59457390  1
  Rh  Rh244  1  0.20243497  0.19506139  0.79911295  1
  Rh  Rh245  1  0.00123429  0.39712006  0.80021603  1
  Rh  Rh246  1  0.79736057  0.19937329  0.60173429  1
  Rh  Rh247  1  -0.00461401  0.79302777  0.60348409  1
  Rh  Rh248  1  0.19156304  0.00462819  0.00469615  1
  Rh  Rh249  1  0.80293152  0.00260883  0.00269677  1
