# generated using pymatgen
data_ZrScNbPdRh
_symmetry_space_group_name_H-M   'P 1'
_cell_length_a   16.55701701
_cell_length_b   16.56222776
_cell_length_c   16.56253646
_cell_angle_alpha   90.03852788
_cell_angle_beta   90.00238355
_cell_angle_gamma   90.01457357
_symmetry_Int_Tables_number   1
_chemical_formula_structural   ZrScNbPdRh
_chemical_formula_sum   'Zr50 Sc50 Nb50 Pd50 Rh50'
_cell_volume   4541.79557052
_cell_formula_units_Z   50
loop_
 _symmetry_equiv_pos_site_id
 _symmetry_equiv_pos_as_xyz
  1  'x, y, z'
loop_
 _atom_site_type_symbol
 _atom_site_label
 _atom_site_symmetry_multiplicity
 _atom_site_fract_x
 _atom_site_fract_y
 _atom_site_fract_z
 _atom_site_occupancy
  Zr  Zr0  1  0.10588761  0.90363125  0.29817287  1
  Zr  Zr1  1  0.50349050  0.90310130  0.30173384  1
  Zr  Zr2  1  0.49506644  0.69373584  0.69054955  1
  Zr  Zr3  1  0.69466933  0.29922337  0.50284526  1
  Zr  Zr4  1  0.68522278  0.10239036  0.70639246  1
  Zr  Zr5  1  0.90093852  0.50040384  0.50016478  1
  Zr  Zr6  1  0.89833895  0.69342547  0.30138352  1
  Zr  Zr7  1  0.30403315  0.10970365  0.10043071  1
  Zr  Zr8  1  0.30532068  0.29644320  0.09255711  1
  Zr  Zr9  1  0.30389842  0.70353963  0.29751475  1
  Zr  Zr10  1  0.90551454  0.09663334  0.70736885  1
  Zr  Zr11  1  0.28919283  0.29634457  0.69701450  1
  Zr  Zr12  1  0.69378482  0.30735305  0.09432198  1
  Zr  Zr13  1  0.69035043  0.89958273  0.29934087  1
  Zr  Zr14  1  0.49836612  0.50544830  0.69525173  1
  Zr  Zr15  1  0.70056847  0.70218201  0.89607357  1
  Zr  Zr16  1  0.29794289  0.10178213  0.90239329  1
  Zr  Zr17  1  0.70164247  0.50018104  0.69164978  1
  Zr  Zr18  1  0.70523601  0.69490427  0.70004939  1
  Zr  Zr19  1  0.70249428  0.50463619  0.10350186  1
  Zr  Zr20  1  0.70537866  0.09811143  0.90015204  1
  Zr  Zr21  1  0.69980704  0.69953182  0.49717853  1
  Zr  Zr22  1  0.30489121  0.90299879  0.90436146  1
  Zr  Zr23  1  0.09964383  0.10214850  0.69911079  1
  Zr  Zr24  1  0.10346123  0.29944434  0.50791931  1
  Zr  Zr25  1  0.29925550  0.49288247  0.89175405  1
  Zr  Zr26  1  0.10780930  0.70261282  0.50883089  1
  Zr  Zr27  1  0.29719309  0.49684601  0.29867520  1
  Zr  Zr28  1  0.50239319  0.10804752  0.29936105  1
  Zr  Zr29  1  0.89736258  0.29620170  0.30200240  1
  Zr  Zr30  1  0.09929474  0.89797381  0.90909115  1
  Zr  Zr31  1  0.90308163  0.69760482  0.69683729  1
  Zr  Zr32  1  0.09879806  0.09811289  0.30003622  1
  Zr  Zr33  1  0.48867094  0.50334081  0.89441770  1
  Zr  Zr34  1  0.09776139  0.50071039  0.09329485  1
  Zr  Zr35  1  0.68928505  0.90369940  0.10169770  1
  Zr  Zr36  1  0.09192299  0.10567243  0.89399186  1
  Zr  Zr37  1  0.49850901  0.30169254  0.90922431  1
  Zr  Zr38  1  0.69920378  0.90899971  0.89946612  1
  Zr  Zr39  1  0.89574489  0.10770453  0.29030325  1
  Zr  Zr40  1  0.09731380  0.10551641  0.10590077  1
  Zr  Zr41  1  0.89712894  0.50161751  0.09765840  1
  Zr  Zr42  1  0.10061585  0.88844494  0.10164341  1
  Zr  Zr43  1  0.09681764  0.90206867  0.69346242  1
  Zr  Zr44  1  0.69983424  0.30122005  0.69788034  1
  Zr  Zr45  1  0.09996694  0.69395471  0.90561085  1
  Zr  Zr46  1  0.30303848  0.89921156  0.49640398  1
  Zr  Zr47  1  0.50302083  0.49962198  0.49993155  1
  Zr  Zr48  1  0.90610227  0.50613729  0.30445412  1
  Zr  Zr49  1  0.89601408  0.10441013  0.90303039  1
  Sc  Sc50  1  0.90068743  0.11170098  0.50395238  1
  Sc  Sc51  1  0.10056638  0.29437886  0.70489836  1
  Sc  Sc52  1  0.49640777  0.69911405  0.90061222  1
  Sc  Sc53  1  0.89553640  0.30052685  0.70035002  1
  Sc  Sc54  1  0.30775925  0.69072306  0.90815248  1
  Sc  Sc55  1  0.71266772  0.49842867  0.90013520  1
  Sc  Sc56  1  0.10534437  0.30001404  0.10201296  1
  Sc  Sc57  1  0.89311844  0.29988129  0.49932165  1
  Sc  Sc58  1  0.90194642  0.29315698  0.09626054  1
  Sc  Sc59  1  0.09529667  0.09711748  0.51054160  1
  Sc  Sc60  1  0.90115467  0.89260214  0.29833635  1
  Sc  Sc61  1  0.50117713  0.09661369  0.50738632  1
  Sc  Sc62  1  0.70036414  0.29511904  0.31108353  1
  Sc  Sc63  1  0.50563531  0.29924036  0.30586525  1
  Sc  Sc64  1  0.90302016  0.69551072  0.89848898  1
  Sc  Sc65  1  0.30017123  0.69380654  0.68688672  1
  Sc  Sc66  1  0.10546374  0.89985572  0.50277578  1
  Sc  Sc67  1  0.10878736  0.50133778  0.71251715  1
  Sc  Sc68  1  0.09526201  0.70314899  0.29716970  1
  Sc  Sc69  1  0.91163692  0.69280347  0.09752878  1
  Sc  Sc70  1  0.89686914  0.50436957  0.70304698  1
  Sc  Sc71  1  0.49437985  0.91408509  0.69173028  1
  Sc  Sc72  1  0.50025402  0.70246791  0.29849279  1
  Sc  Sc73  1  0.90616948  0.69282975  0.50029910  1
  Sc  Sc74  1  0.90041627  0.90170633  0.10003967  1
  Sc  Sc75  1  0.29647767  0.09196434  0.30342101  1
  Sc  Sc76  1  0.69994758  0.10461517  0.29826434  1
  Sc  Sc77  1  0.69577781  0.49710474  0.49899636  1
  Sc  Sc78  1  0.89536956  0.90949814  0.89640991  1
  Sc  Sc79  1  0.30012573  0.49495879  0.09346272  1
  Sc  Sc80  1  0.49445038  0.71300086  0.10254613  1
  Sc  Sc81  1  0.69315236  0.68917324  0.29846622  1
  Sc  Sc82  1  0.30263581  0.89553681  0.09588961  1
  Sc  Sc83  1  0.50536229  0.29293494  0.69303572  1
  Sc  Sc84  1  0.50598118  0.10021189  0.89882017  1
  Sc  Sc85  1  0.10085009  0.50367138  0.48642417  1
  Sc  Sc86  1  0.50594652  0.49816047  0.30377467  1
  Sc  Sc87  1  0.89744882  0.89917265  0.70222671  1
  Sc  Sc88  1  0.89998758  0.88244053  0.50261748  1
  Sc  Sc89  1  0.10027495  0.29935360  0.29831572  1
  Sc  Sc90  1  0.50620530  0.48773670  0.09842373  1
  Sc  Sc91  1  0.30156584  0.90419540  0.68780036  1
  Sc  Sc92  1  0.29796044  0.90074541  0.30579840  1
  Sc  Sc93  1  0.49979825  0.90128033  0.91526386  1
  Sc  Sc94  1  0.10631690  0.69165194  0.70084358  1
  Sc  Sc95  1  0.09795404  0.30219162  0.89584103  1
  Sc  Sc96  1  0.29020704  0.49229096  0.49095760  1
  Sc  Sc97  1  0.70402151  0.29401402  0.89548114  1
  Sc  Sc98  1  0.90745952  0.49610121  0.89958801  1
  Sc  Sc99  1  0.29709338  0.30669273  0.30347850  1
  Nb  Nb100  1  0.50466771  0.90720457  0.10799067  1
  Nb  Nb101  1  0.89621789  0.10148730  0.10140789  1
  Nb  Nb102  1  0.50039927  0.89215703  0.49587027  1
  Nb  Nb103  1  0.89917768  0.29687323  0.89911170  1
  Nb  Nb104  1  0.30463128  0.09916971  0.69481429  1
  Nb  Nb105  1  0.10350684  0.70017551  0.09657726  1
  Nb  Nb106  1  0.70062420  0.69907186  0.09991123  1
  Nb  Nb107  1  0.69792396  0.89828671  0.69984849  1
  Nb  Nb108  1  0.29917334  0.29986230  0.50226419  1
  Nb  Nb109  1  0.30599225  0.49804938  0.70551524  1
  Nb  Nb110  1  0.29873099  0.10083849  0.50790044  1
  Nb  Nb111  1  0.70319922  0.10065109  0.49910445  1
  Nb  Nb112  1  0.48820686  0.10408856  0.70013827  1
  Nb  Nb113  1  0.49233529  0.69803997  0.50443749  1
  Nb  Nb114  1  0.49363689  0.29113661  0.10287602  1
  Nb  Nb115  1  0.69533348  0.90243159  0.49882390  1
  Nb  Nb116  1  0.50063142  0.11542214  0.10790190  1
  Nb  Nb117  1  0.49556968  0.30626511  0.49616917  1
  Nb  Nb118  1  0.71094944  0.09798177  0.10301551  1
  Nb  Nb119  1  0.30873353  0.70366882  0.50087308  1
  Nb  Nb120  1  0.30448821  0.29914423  0.89613779  1
  Nb  Nb121  1  0.10318088  0.49997640  0.29381572  1
  Nb  Nb122  1  0.10231101  0.50421401  0.89627281  1
  Nb  Nb123  1  0.69938775  0.50152368  0.29533654  1
  Nb  Nb124  1  0.29947891  0.69935803  0.10638794  1
  Nb  Nb125  1  0.79421728  0.79975043  0.00472726  1
  Nb  Nb126  1  0.20486349  0.80252914  0.80092482  1
  Nb  Nb127  1  0.80090379  0.40417075  0.20411139  1
  Nb  Nb128  1  0.59906090  0.80481194  0.59746219  1
  Nb  Nb129  1  0.00801684  0.79966737  0.80091417  1
  Nb  Nb130  1  0.59595770  0.80404693  0.79088696  1
  Nb  Nb131  1  0.20122228  -0.00112341  0.79848861  1
  Nb  Nb132  1  0.39819040  0.60341735  0.40515025  1
  Nb  Nb133  1  0.39508301  0.39637212  0.59727804  1
  Nb  Nb134  1  0.59837283  0.40254954  0.79783769  1
  Nb  Nb135  1  0.39663449  0.19862257  0.79660038  1
  Nb  Nb136  1  0.39416164  0.20317409  0.41086284  1
  Nb  Nb137  1  0.39979690  0.80219223  0.79640991  1
  Nb  Nb138  1  0.60382480  0.60233965  0.00193189  1
  Nb  Nb139  1  0.79338627  0.79260176  0.19414140  1
  Nb  Nb140  1  0.78917134  -0.00200860  0.59655829  1
  Nb  Nb141  1  -0.00292766  0.40503448  0.20189343  1
  Nb  Nb142  1  -0.00187693  0.00850199  0.00595009  1
  Nb  Nb143  1  0.80016599  -0.00131440  0.40662692  1
  Nb  Nb144  1  0.40274236  0.39143303  0.19749471  1
  Nb  Nb145  1  0.00235364  0.40254356  0.59995730  1
  Nb  Nb146  1  0.20434584  0.19781102  0.41009976  1
  Nb  Nb147  1  0.40848996  0.00416457  0.19571643  1
  Nb  Nb148  1  -0.00639529  0.00071780  0.39834829  1
  Nb  Nb149  1  0.19910378  0.60443814  0.19314796  1
  Pd  Pd150  1  0.19170000  0.00487643  0.00379919  1
  Pd  Pd151  1  0.59944902  0.79494934  -0.00447164  1
  Pd  Pd152  1  0.19707005  0.79584256  0.39970905  1
  Pd  Pd153  1  0.79916211  -0.00910599  0.20688697  1
  Pd  Pd154  1  0.00590524  0.19547418  0.40383130  1
  Pd  Pd155  1  0.80022792  0.19266759  0.60880399  1
  Pd  Pd156  1  0.40905096  0.00957641  0.01020670  1
  Pd  Pd157  1  0.00616413  0.39615596  0.40013049  1
  Pd  Pd158  1  0.21050944  0.79225821  -0.00354798  1
  Pd  Pd159  1  0.79357713  0.40441350  0.39798661  1
  Pd  Pd160  1  0.39875957  0.81317766  0.20282340  1
  Pd  Pd161  1  0.58874919  -0.00588242  0.79972588  1
  Pd  Pd162  1  0.80081658  0.60598029  -0.00495447  1
  Pd  Pd163  1  0.59595749  0.79066510  0.40256741  1
  Pd  Pd164  1  0.79536505  0.80116222  0.59980829  1
  Pd  Pd165  1  0.59985591  0.39201151  0.20768747  1
  Pd  Pd166  1  0.60312201  0.40952567  -0.01278681  1
  Pd  Pd167  1  0.79691613  0.20607165  0.00325009  1
  Pd  Pd168  1  0.60123514  0.59740543  0.80686238  1
  Pd  Pd169  1  0.59633780  0.01468388  0.00925998  1
  Pd  Pd170  1  0.00126350  0.39829384  0.79338024  1
  Pd  Pd171  1  0.80393917  0.80209720  0.80567852  1
  Pd  Pd172  1  0.00723330  0.80180094  0.40292910  1
  Pd  Pd173  1  0.40381668  0.00738266  0.39996962  1
  Pd  Pd174  1  -0.00648426  0.79485010  0.19815922  1
  Pd  Pd175  1  0.60514951  0.19401293  0.00071855  1
  Pd  Pd176  1  0.79428686  0.59509413  0.40341798  1
  Pd  Pd177  1  -0.00109393  0.39434684  0.00167378  1
  Pd  Pd178  1  0.20695585  0.20371755  0.21180993  1
  Pd  Pd179  1  0.00901492  0.58944597  0.60383815  1
  Pd  Pd180  1  0.19899691  0.39480164  -0.00891519  1
  Pd  Pd181  1  0.79478500  0.80215383  0.38995190  1
  Pd  Pd182  1  -0.00422186  -0.00216478  0.19992666  1
  Pd  Pd183  1  0.59955334  -0.00103717  0.59908347  1
  Pd  Pd184  1  -0.01561772  -0.00577116  0.58842009  1
  Pd  Pd185  1  0.20210816  0.60921465  0.39155509  1
  Pd  Pd186  1  0.20442350  0.58896789  0.59744299  1
  Pd  Pd187  1  0.40702626  0.38657319  0.78681607  1
  Pd  Pd188  1  0.39862199  -0.00042496  0.80127845  1
  Pd  Pd189  1  0.60196986  0.00913997  0.40285349  1
  Pd  Pd190  1  0.20534752  0.59764545  0.00177189  1
  Pd  Pd191  1  0.40996133  0.59717450  0.01512318  1
  Pd  Pd192  1  0.58662004  0.60398383  0.19236824  1
  Pd  Pd193  1  0.40201224  0.58854021  0.20076721  1
  Pd  Pd194  1  0.19336249  0.20706535  -0.00535527  1
  Pd  Pd195  1  0.61114114  0.20637707  0.20026087  1
  Pd  Pd196  1  0.79820128  0.39915909  0.80116939  1
  Pd  Pd197  1  0.21163917  -0.00395257  0.19105728  1
  Pd  Pd198  1  0.59582307  0.19783536  0.59410867  1
  Pd  Pd199  1  0.19629596  0.40946421  0.60410983  1
  Rh  Rh200  1  0.19117305  0.38986559  0.39677850  1
  Rh  Rh201  1  0.40152597  0.40158276  0.39896612  1
  Rh  Rh202  1  0.20008496  0.40647318  0.19789441  1
  Rh  Rh203  1  0.59298086  0.19788485  0.40986293  1
  Rh  Rh204  1  0.20933334  0.60419869  0.80385770  1
  Rh  Rh205  1  0.40417007  0.19450708  -0.01089948  1
  Rh  Rh206  1  0.20338969  0.00274402  0.60240453  1
  Rh  Rh207  1  0.60713811  0.60705031  0.59307615  1
  Rh  Rh208  1  0.00085097  0.19801452  0.00176769  1
  Rh  Rh209  1  0.80868974  0.40340760  0.59714901  1
  Rh  Rh210  1  0.60619849  0.40049459  0.39765203  1
  Rh  Rh211  1  0.79239798  0.21162744  0.19140232  1
  Rh  Rh212  1  0.60326546  0.79366074  0.20083898  1
  Rh  Rh213  1  0.80559318  0.59624807  0.80154842  1
  Rh  Rh214  1  0.38510750  0.58184763  0.58755334  1
  Rh  Rh215  1  0.19732903  0.39827476  0.80331269  1
  Rh  Rh216  1  0.20753968  0.19331776  0.80116254  1
  Rh  Rh217  1  0.80222350  0.60119719  0.20213258  1
  Rh  Rh218  1  0.59673945  0.01436368  0.19612279  1
  Rh  Rh219  1  0.40457928  0.79492857  0.39780918  1
  Rh  Rh220  1  0.80548606  0.39340834  0.00216144  1
  Rh  Rh221  1  0.79486635  0.00512670  0.78773007  1
  Rh  Rh222  1  0.20522146  0.79898120  0.60319051  1
  Rh  Rh223  1  0.59293755  0.39918830  0.60454867  1
  Rh  Rh224  1  -0.00789549  0.20919376  0.79903382  1
  Rh  Rh225  1  0.40007921  0.79919274  0.00053846  1
  Rh  Rh226  1  0.19712188  0.19279558  0.59779717  1
  Rh  Rh227  1  0.39318051  0.20254383  0.21571988  1
  Rh  Rh228  1  0.80541534  -0.00417267  0.00770674  1
  Rh  Rh229  1  0.40092266  -0.00144380  0.58848078  1
  Rh  Rh230  1  0.01044440  0.59673285  0.19872417  1
  Rh  Rh231  1  -0.00092487  0.20957710  0.19701015  1
  Rh  Rh232  1  0.20276095  0.79594991  0.19965966  1
  Rh  Rh233  1  0.59279192  0.59938070  0.40185112  1
  Rh  Rh234  1  0.58996998  0.20713369  0.80330323  1
  Rh  Rh235  1  0.79822036  0.19206367  0.40164396  1
  Rh  Rh236  1  0.39112529  0.61123163  0.79401020  1
  Rh  Rh237  1  0.18869848  0.00838344  0.41026818  1
  Rh  Rh238  1  0.39988847  0.40040464  0.00571337  1
  Rh  Rh239  1  0.40472854  0.80816698  0.60274232  1
  Rh  Rh240  1  0.80189862  0.19681749  0.79655888  1
  Rh  Rh241  1  0.00465690  0.79450548  0.60752764  1
  Rh  Rh242  1  0.00159712  0.59542241  -0.00431976  1
  Rh  Rh243  1  -0.00263727  0.21141570  0.60590403  1
  Rh  Rh244  1  -0.01395488  0.81002471  -0.00698874  1
  Rh  Rh245  1  0.00132419  0.60381810  0.80136223  1
  Rh  Rh246  1  0.00964962  0.60702897  0.40011117  1
  Rh  Rh247  1  0.40003085  0.20531099  0.59969237  1
  Rh  Rh248  1  0.00869033  -0.00966440  0.80894365  1
  Rh  Rh249  1  0.80023617  0.59815106  0.59358623  1
