# generated using pymatgen
data_ZrScNbPdRh
_symmetry_space_group_name_H-M   'P 1'
_cell_length_a   16.56202677
_cell_length_b   16.55973646
_cell_length_c   16.55914860
_cell_angle_alpha   90.00771494
_cell_angle_beta   89.97735777
_cell_angle_gamma   90.00198603
_symmetry_Int_Tables_number   1
_chemical_formula_structural   ZrScNbPdRh
_chemical_formula_sum   'Zr50 Sc50 Nb50 Pd50 Rh50'
_cell_volume   4541.55803926
_cell_formula_units_Z   50
loop_
 _symmetry_equiv_pos_site_id
 _symmetry_equiv_pos_as_xyz
  1  'x, y, z'
loop_
 _atom_site_type_symbol
 _atom_site_label
 _atom_site_symmetry_multiplicity
 _atom_site_fract_x
 _atom_site_fract_y
 _atom_site_fract_z
 _atom_site_occupancy
  Zr  Zr0  1  0.49706640  0.71524854  0.29008859  1
  Zr  Zr1  1  0.10242187  0.90863022  0.50225016  1
  Zr  Zr2  1  0.29416364  0.49948644  0.29927563  1
  Zr  Zr3  1  0.49639285  0.09314618  0.30646389  1
  Zr  Zr4  1  0.69957684  0.70161407  0.89912885  1
  Zr  Zr5  1  0.09562571  0.69465013  0.70766207  1
  Zr  Zr6  1  0.08905851  0.49468630  0.51135630  1
  Zr  Zr7  1  0.90065277  0.69902789  0.49824132  1
  Zr  Zr8  1  0.90597368  0.49086031  0.10215115  1
  Zr  Zr9  1  0.50601264  0.09233732  0.69417471  1
  Zr  Zr10  1  0.69088404  0.70849109  0.69793087  1
  Zr  Zr11  1  0.10008883  0.70182832  0.89913725  1
  Zr  Zr12  1  0.30198252  0.89957303  0.49932665  1
  Zr  Zr13  1  0.49444824  0.89652375  0.10511858  1
  Zr  Zr14  1  0.09945591  0.69938940  0.09991717  1
  Zr  Zr15  1  0.50285548  0.49976140  0.50031162  1
  Zr  Zr16  1  0.69655374  0.69782234  0.10428994  1
  Zr  Zr17  1  0.29637697  0.30080885  0.10016550  1
  Zr  Zr18  1  0.09702283  0.29270897  0.50227096  1
  Zr  Zr19  1  0.70369887  0.29706702  0.89866856  1
  Zr  Zr20  1  0.29561956  0.28955391  0.50448240  1
  Zr  Zr21  1  0.49955357  0.10285988  0.89781517  1
  Zr  Zr22  1  0.69740027  0.09439870  0.90295061  1
  Zr  Zr23  1  0.69983389  0.90280149  0.30523443  1
  Zr  Zr24  1  0.09563381  0.28977504  0.30531501  1
  Zr  Zr25  1  0.09202410  0.09536836  0.30544523  1
  Zr  Zr26  1  0.90754676  0.88654713  0.50522126  1
  Zr  Zr27  1  0.90169570  0.30489229  0.10147528  1
  Zr  Zr28  1  0.10159823  0.89933252  0.30555390  1
  Zr  Zr29  1  0.31265162  0.90006800  0.30160500  1
  Zr  Zr30  1  0.50150404  0.50187679  0.09663007  1
  Zr  Zr31  1  0.90279553  0.49796335  0.29685147  1
  Zr  Zr32  1  0.89946114  0.90472488  0.29280287  1
  Zr  Zr33  1  0.90165570  0.49659290  0.89994986  1
  Zr  Zr34  1  0.30374797  0.50895706  0.49357696  1
  Zr  Zr35  1  0.10420787  0.31061631  0.69130848  1
  Zr  Zr36  1  0.49468523  0.29557026  0.30818358  1
  Zr  Zr37  1  0.49984277  0.49125751  0.89777196  1
  Zr  Zr38  1  0.49955949  0.29429657  0.90120988  1
  Zr  Zr39  1  0.70754589  0.29845805  0.49557972  1
  Zr  Zr40  1  0.70497110  0.49551762  0.10219864  1
  Zr  Zr41  1  0.10772508  0.50443463  0.89418278  1
  Zr  Zr42  1  0.50312363  0.90184429  0.30573909  1
  Zr  Zr43  1  0.70304081  0.70632998  0.30355177  1
  Zr  Zr44  1  0.29370127  0.70576738  0.31054662  1
  Zr  Zr45  1  0.69883743  0.49435570  0.89974955  1
  Zr  Zr46  1  0.50920413  0.89913339  0.69399118  1
  Zr  Zr47  1  0.69942865  0.89784998  0.90388152  1
  Zr  Zr48  1  0.30086492  0.91003518  0.08618397  1
  Zr  Zr49  1  0.70592720  0.09469663  0.09996906  1
  Sc  Sc50  1  0.89526080  0.70495634  0.11550800  1
  Sc  Sc51  1  0.89990214  0.70312338  0.88272173  1
  Sc  Sc52  1  0.89987686  0.10550709  0.70213412  1
  Sc  Sc53  1  0.49186221  0.29654822  0.09777686  1
  Sc  Sc54  1  0.49707501  0.09680740  0.09243048  1
  Sc  Sc55  1  0.28899167  0.69831451  0.90142968  1
  Sc  Sc56  1  0.70314337  0.09812642  0.50341645  1
  Sc  Sc57  1  0.09304519  0.09651770  0.69776490  1
  Sc  Sc58  1  0.90551043  0.71025395  0.69504209  1
  Sc  Sc59  1  0.09480781  0.50543685  0.29587092  1
  Sc  Sc60  1  0.29662710  0.49773912  0.71297255  1
  Sc  Sc61  1  0.10577789  0.91152116  0.89311269  1
  Sc  Sc62  1  0.30485924  0.29588611  0.30250972  1
  Sc  Sc63  1  0.50085230  0.90799304  0.49524598  1
  Sc  Sc64  1  0.90966627  0.10573755  0.89704655  1
  Sc  Sc65  1  0.71233654  0.09398306  0.30407286  1
  Sc  Sc66  1  0.89321567  0.29615818  0.29893470  1
  Sc  Sc67  1  0.89918528  0.10564363  0.50095498  1
  Sc  Sc68  1  0.29357260  0.70656015  0.09515098  1
  Sc  Sc69  1  0.49477589  0.49676652  0.30774509  1
  Sc  Sc70  1  0.49711440  0.69744384  0.90613609  1
  Sc  Sc71  1  0.29893977  0.50116575  0.90569210  1
  Sc  Sc72  1  0.50158851  0.70311291  0.09815957  1
  Sc  Sc73  1  0.49645059  0.28669150  0.70823032  1
  Sc  Sc74  1  0.90078451  0.50204604  0.49062760  1
  Sc  Sc75  1  0.90204024  0.28828049  0.69380125  1
  Sc  Sc76  1  0.91306181  0.51640508  0.69244015  1
  Sc  Sc77  1  0.69687967  0.09902731  0.69835023  1
  Sc  Sc78  1  0.09715473  0.70206601  0.29774544  1
  Sc  Sc79  1  0.10166331  0.49464146  0.10334034  1
  Sc  Sc80  1  0.90132661  0.70104869  0.30416105  1
  Sc  Sc81  1  0.90470200  0.09293335  0.10357580  1
  Sc  Sc82  1  0.50463106  0.90005811  0.90934952  1
  Sc  Sc83  1  0.09338885  0.70828370  0.49198403  1
  Sc  Sc84  1  0.90594400  0.29599367  0.89867014  1
  Sc  Sc85  1  0.30033872  0.09548716  0.50053599  1
  Sc  Sc86  1  0.30574519  0.10037063  0.69322185  1
  Sc  Sc87  1  0.69606240  0.89046893  0.49632552  1
  Sc  Sc88  1  0.49673719  0.69907023  0.50439485  1
  Sc  Sc89  1  0.09546204  0.30105778  0.09236861  1
  Sc  Sc90  1  0.09699185  0.10100712  0.08657782  1
  Sc  Sc91  1  0.70784903  0.90205218  0.09420623  1
  Sc  Sc92  1  0.09790053  0.90516670  0.70009379  1
  Sc  Sc93  1  0.90283240  0.29864302  0.49813268  1
  Sc  Sc94  1  0.71348121  0.30279478  0.10528882  1
  Sc  Sc95  1  0.09624665  0.90605599  0.10276568  1
  Sc  Sc96  1  0.30386629  0.29992679  0.90119225  1
  Sc  Sc97  1  0.70339490  0.50314711  0.31180443  1
  Sc  Sc98  1  0.29649979  0.09845590  0.90992761  1
  Sc  Sc99  1  0.70275458  0.28695592  0.69682768  1
  Nb  Nb100  1  0.29858305  0.49969077  0.10549245  1
  Nb  Nb101  1  0.10211485  0.10408693  0.49509896  1
  Nb  Nb102  1  0.30185209  0.10420940  0.30065105  1
  Nb  Nb103  1  0.50304304  0.29765937  0.50344000  1
  Nb  Nb104  1  0.70224266  0.29565297  0.30055933  1
  Nb  Nb105  1  0.89775445  0.90362778  0.09298643  1
  Nb  Nb106  1  0.30036345  0.90442566  0.89285063  1
  Nb  Nb107  1  0.69615356  0.90340333  0.70295001  1
  Nb  Nb108  1  0.70216368  0.69391816  0.49203270  1
  Nb  Nb109  1  0.09730971  0.29671416  0.89855418  1
  Nb  Nb110  1  0.29509026  0.10240075  0.09719394  1
  Nb  Nb111  1  0.89589948  0.89871898  0.90129171  1
  Nb  Nb112  1  0.10207981  0.50168269  0.70065313  1
  Nb  Nb113  1  0.90220698  0.89871677  0.70305216  1
  Nb  Nb114  1  0.29731241  0.29789301  0.70335281  1
  Nb  Nb115  1  0.49290817  0.69670252  0.70178436  1
  Nb  Nb116  1  0.49938036  0.49922669  0.69994349  1
  Nb  Nb117  1  0.10150301  0.11555356  0.89845006  1
  Nb  Nb118  1  0.69665856  0.50066715  0.69843005  1
  Nb  Nb119  1  0.29992204  0.90392976  0.69640083  1
  Nb  Nb120  1  0.89834623  0.10047931  0.29683237  1
  Nb  Nb121  1  0.29689957  0.70169855  0.50288940  1
  Nb  Nb122  1  0.50477116  0.10237589  0.50420024  1
  Nb  Nb123  1  0.69758232  0.50324613  0.50035564  1
  Nb  Nb124  1  0.30401080  0.70340305  0.69598862  1
  Nb  Nb125  1  0.59907735  0.19990064  0.40018023  1
  Nb  Nb126  1  0.79476242  0.41034531  0.60218881  1
  Nb  Nb127  1  0.00421701  0.40182819  0.79491681  1
  Nb  Nb128  1  0.78841941  0.60064551  0.59622289  1
  Nb  Nb129  1  0.20562529  0.79720793  0.60302092  1
  Nb  Nb130  1  0.39879065  -0.00770516  0.79899352  1
  Nb  Nb131  1  0.59877122  0.40165578  0.60109748  1
  Nb  Nb132  1  0.39260320  0.59874522  0.19846432  1
  Nb  Nb133  1  0.80095828  -0.00807774  0.79880470  1
  Nb  Nb134  1  0.80448365  0.59939574  0.00031691  1
  Nb  Nb135  1  0.80207949  -0.01258834  0.60915203  1
  Nb  Nb136  1  0.80429531  0.40288048  0.78896844  1
  Nb  Nb137  1  0.39498713  0.80293912  0.79351703  1
  Nb  Nb138  1  0.60284772  0.20173042  0.20792694  1
  Nb  Nb139  1  -0.00694927  0.80357430  -0.00215135  1
  Nb  Nb140  1  -0.00477286  0.60607193  0.00054349  1
  Nb  Nb141  1  0.19862132  0.20424709  0.79834993  1
  Nb  Nb142  1  0.20566553  0.00841525  0.20183793  1
  Nb  Nb143  1  0.40317619  0.39622702  0.60381372  1
  Nb  Nb144  1  0.59367267  0.59697389  0.79252331  1
  Nb  Nb145  1  0.19677059  0.39896868  0.40415635  1
  Nb  Nb146  1  0.80292892  0.19777253  0.00117060  1
  Nb  Nb147  1  0.20211033  0.60609164  0.60201479  1
  Nb  Nb148  1  0.60114297  0.39326269  0.20692643  1
  Nb  Nb149  1  0.20184343  0.19175247  0.19946902  1
  Pd  Pd150  1  0.59696520  0.79787245  0.58999949  1
  Pd  Pd151  1  0.79460983  0.79837857  0.60051560  1
  Pd  Pd152  1  0.39031324  0.39334290  0.40940266  1
  Pd  Pd153  1  -0.00484789  0.00030812  0.80445245  1
  Pd  Pd154  1  0.19242930  0.38772855  0.20901329  1
  Pd  Pd155  1  0.58744930  0.79502680  0.80701478  1
  Pd  Pd156  1  0.59145399  0.60871010  0.39217191  1
  Pd  Pd157  1  -0.01109778  0.00192702  0.40624508  1
  Pd  Pd158  1  0.60034747  0.60075176  0.60288364  1
  Pd  Pd159  1  0.20549609  0.01561122  0.79544492  1
  Pd  Pd160  1  0.20512276  0.81229754  0.19851283  1
  Pd  Pd161  1  0.60368013  0.19716275  0.79621090  1
  Pd  Pd162  1  0.80719272  -0.00539411  0.41457758  1
  Pd  Pd163  1  0.60443050  0.39506869  0.79021634  1
  Pd  Pd164  1  0.79936191  0.80419917  0.79419711  1
  Pd  Pd165  1  0.20238084  0.80157952  0.79371030  1
  Pd  Pd166  1  0.39647957  0.00632663  0.19610555  1
  Pd  Pd167  1  0.80262614  0.59612708  0.20053741  1
  Pd  Pd168  1  0.59182917  0.59073444  0.20982920  1
  Pd  Pd169  1  0.00211633  0.39649153  0.39597763  1
  Pd  Pd170  1  0.60164042  0.38788166  0.01219417  1
  Pd  Pd171  1  0.18961035  0.81251255  -0.00258126  1
  Pd  Pd172  1  0.20251407  0.60399131  0.19713347  1
  Pd  Pd173  1  0.39632689  0.39973709  0.00076802  1
  Pd  Pd174  1  0.39747812  0.39479737  0.79708010  1
  Pd  Pd175  1  0.79640636  0.59774427  0.79353296  1
  Pd  Pd176  1  0.39335282  0.60277964  0.00663711  1
  Pd  Pd177  1  -0.00764138  0.00688888  0.59671068  1
  Pd  Pd178  1  0.60444674  0.60002282  -0.00684969  1
  Pd  Pd179  1  0.60951643  0.81119744  0.19464618  1
  Pd  Pd180  1  0.80713608  0.78747214  0.00262282  1
  Pd  Pd181  1  0.19890261  0.39971554  -0.00327095  1
  Pd  Pd182  1  0.00235327  -0.00235972  -0.00871952  1
  Pd  Pd183  1  0.18469660  0.59572381  0.40854323  1
  Pd  Pd184  1  0.60223440  0.00345809  0.19811086  1
  Pd  Pd185  1  0.40626972  0.40460675  0.19899128  1
  Pd  Pd186  1  0.21319454  0.41137996  0.59417590  1
  Pd  Pd187  1  0.40151466  0.80595816  0.59808959  1
  Pd  Pd188  1  0.19447166  0.18797897  0.60782448  1
  Pd  Pd189  1  0.40188023  0.19339723  0.19420749  1
  Pd  Pd190  1  0.39885014  0.60436468  0.80557859  1
  Pd  Pd191  1  0.00440361  0.19700743  0.19310210  1
  Pd  Pd192  1  0.60492112  0.39437905  0.40070282  1
  Pd  Pd193  1  0.60862558  0.20725127  0.01393109  1
  Pd  Pd194  1  0.20709089  0.00378555  0.39561611  1
  Pd  Pd195  1  -0.00131928  0.80525507  0.19632857  1
  Pd  Pd196  1  0.40281691  0.20107579  0.60050864  1
  Pd  Pd197  1  0.40783532  0.61163731  0.39108397  1
  Pd  Pd198  1  0.39284484  0.59064145  0.60595674  1
  Pd  Pd199  1  0.39611595  0.79781210  -0.00923872  1
  Rh  Rh200  1  0.19800827  -0.00014693  0.59970315  1
  Rh  Rh201  1  -0.01027361  0.19350739  0.40052885  1
  Rh  Rh202  1  0.20802936  0.60448463  0.79365240  1
  Rh  Rh203  1  0.59888860  -0.00112306  0.80452116  1
  Rh  Rh204  1  0.38802564  0.79439430  0.19285303  1
  Rh  Rh205  1  0.40309338  0.00231640  -0.00781309  1
  Rh  Rh206  1  0.00466304  0.19466420  0.59735427  1
  Rh  Rh207  1  0.00916565  0.40614240  -0.01085276  1
  Rh  Rh208  1  0.20048779  0.20611114  -0.00151526  1
  Rh  Rh209  1  0.00340603  0.00064480  0.19905830  1
  Rh  Rh210  1  0.80316993  0.39445773  -0.01149961  1
  Rh  Rh211  1  0.80376880  0.60009730  0.40263963  1
  Rh  Rh212  1  0.00535326  0.39348128  0.20700447  1
  Rh  Rh213  1  0.00020692  0.80304139  0.39319164  1
  Rh  Rh214  1  0.39511966  0.19924181  -0.00102436  1
  Rh  Rh215  1  0.80093634  0.19716042  0.39708848  1
  Rh  Rh216  1  0.40460149  -0.00057179  0.60020423  1
  Rh  Rh217  1  -0.00107763  0.60062589  0.19446287  1
  Rh  Rh218  1  0.19466393  0.59367084  0.00794717  1
  Rh  Rh219  1  0.19800542  0.80336209  0.40655401  1
  Rh  Rh220  1  0.38941611  0.18858004  0.80433531  1
  Rh  Rh221  1  0.80293493  0.80228267  0.39768989  1
  Rh  Rh222  1  0.59504058  0.79418630  0.40344535  1
  Rh  Rh223  1  0.20342184  0.20022989  0.39520097  1
  Rh  Rh224  1  0.19633556  0.39234149  0.80633833  1
  Rh  Rh225  1  0.39851065  0.00547824  0.40701647  1
  Rh  Rh226  1  0.79342184  0.40438614  0.21336038  1
  Rh  Rh227  1  0.59402864  -0.00623284  0.00690324  1
  Rh  Rh228  1  0.60362156  0.00861460  0.40540939  1
  Rh  Rh229  1  0.79909419  0.19292345  0.19585444  1
  Rh  Rh230  1  0.80247754  -0.00228966  0.19908317  1
  Rh  Rh231  1  0.61025357  -0.00355172  0.59108493  1
  Rh  Rh232  1  0.79677494  0.80837390  0.20186614  1
  Rh  Rh233  1  -0.00839056  0.20145488  0.00394463  1
  Rh  Rh234  1  0.01226478  0.20902629  0.78981814  1
  Rh  Rh235  1  0.60121109  0.80006887  0.00601506  1
  Rh  Rh236  1  0.81007347  0.00990886  -0.01049355  1
  Rh  Rh237  1  0.01376192  0.79982627  0.60573431  1
  Rh  Rh238  1  0.79815691  0.19431206  0.80809882  1
  Rh  Rh239  1  0.40517573  0.79775065  0.40817014  1
  Rh  Rh240  1  -0.01487650  0.40014032  0.60747841  1
  Rh  Rh241  1  0.00132400  0.60193941  0.39732515  1
  Rh  Rh242  1  0.79931221  0.19488528  0.59817842  1
  Rh  Rh243  1  0.00397462  0.60865965  0.59404420  1
  Rh  Rh244  1  -0.00012409  0.59514041  0.80647901  1
  Rh  Rh245  1  0.60270788  0.20378916  0.59362652  1
  Rh  Rh246  1  0.00542017  0.80934301  0.80482220  1
  Rh  Rh247  1  0.40368104  0.19281677  0.41057988  1
  Rh  Rh248  1  0.80235699  0.40098511  0.40279160  1
  Rh  Rh249  1  0.19341116  0.00140409  -0.00121076  1
