# generated using pymatgen
data_ZrScNbPdRh
_symmetry_space_group_name_H-M   'P 1'
_cell_length_a   16.55973669
_cell_length_b   16.55846632
_cell_length_c   16.55796618
_cell_angle_alpha   90.02335663
_cell_angle_beta   90.01039585
_cell_angle_gamma   89.96721678
_symmetry_Int_Tables_number   1
_chemical_formula_structural   ZrScNbPdRh
_chemical_formula_sum   'Zr50 Sc50 Nb50 Pd50 Rh50'
_cell_volume   4540.25675041
_cell_formula_units_Z   50
loop_
 _symmetry_equiv_pos_site_id
 _symmetry_equiv_pos_as_xyz
  1  'x, y, z'
loop_
 _atom_site_type_symbol
 _atom_site_label
 _atom_site_symmetry_multiplicity
 _atom_site_fract_x
 _atom_site_fract_y
 _atom_site_fract_z
 _atom_site_occupancy
  Zr  Zr0  1  0.70683301  0.10959136  0.29242559  1
  Zr  Zr1  1  0.49247545  0.10377571  0.30951771  1
  Zr  Zr2  1  0.30060241  0.89631913  0.29454564  1
  Zr  Zr3  1  0.10324900  0.50217435  0.10051009  1
  Zr  Zr4  1  0.49806230  0.89075097  0.10276087  1
  Zr  Zr5  1  0.49481799  0.69901869  0.49357725  1
  Zr  Zr6  1  0.50012571  0.89584690  0.89091411  1
  Zr  Zr7  1  0.29400771  0.69909814  0.70143628  1
  Zr  Zr8  1  0.50035359  0.28995958  0.49557688  1
  Zr  Zr9  1  0.29629622  0.09880937  0.09819078  1
  Zr  Zr10  1  0.69470498  0.89207265  0.70873051  1
  Zr  Zr11  1  0.29514231  0.30444164  0.50447869  1
  Zr  Zr12  1  0.29828781  0.89490728  0.70261404  1
  Zr  Zr13  1  0.69692362  0.69594279  0.70265311  1
  Zr  Zr14  1  0.09753308  0.70152651  0.50491077  1
  Zr  Zr15  1  0.69429734  0.29627570  0.11418582  1
  Zr  Zr16  1  0.29998293  0.09594013  0.29621011  1
  Zr  Zr17  1  0.29947667  0.89888598  0.10135102  1
  Zr  Zr18  1  0.49988620  0.88544036  0.30498061  1
  Zr  Zr19  1  0.69943275  0.09424110  0.10080401  1
  Zr  Zr20  1  0.10218495  0.31155634  0.30019621  1
  Zr  Zr21  1  0.10164433  0.71058291  0.29904303  1
  Zr  Zr22  1  0.30647484  0.90427013  0.51086173  1
  Zr  Zr23  1  0.89782945  0.09829399  0.11015322  1
  Zr  Zr24  1  0.69852117  0.69573799  0.30369822  1
  Zr  Zr25  1  0.10116158  0.50698523  0.28852320  1
  Zr  Zr26  1  0.09904785  0.09729546  0.89516457  1
  Zr  Zr27  1  0.69454341  0.90472084  0.50926918  1
  Zr  Zr28  1  0.70581837  0.30258248  0.89919751  1
  Zr  Zr29  1  0.09846983  0.10190927  0.09923948  1
  Zr  Zr30  1  0.49203429  0.30147189  0.90467195  1
  Zr  Zr31  1  0.70467452  0.49393016  0.30501185  1
  Zr  Zr32  1  0.09722312  0.68916352  0.09708000  1
  Zr  Zr33  1  0.90895858  0.29750621  0.49954858  1
  Zr  Zr34  1  0.30297428  0.50437785  0.69850992  1
  Zr  Zr35  1  0.89358065  0.69555059  0.69563828  1
  Zr  Zr36  1  0.29418884  0.10715165  0.90460296  1
  Zr  Zr37  1  0.90260157  0.10780525  0.30031332  1
  Zr  Zr38  1  0.90799132  0.10627563  0.89288968  1
  Zr  Zr39  1  0.49616198  0.50399518  0.29087068  1
  Zr  Zr40  1  0.31031502  0.09844056  0.49186614  1
  Zr  Zr41  1  0.50525556  0.70250308  0.70954197  1
  Zr  Zr42  1  0.89896992  0.10304303  0.70039046  1
  Zr  Zr43  1  0.49568197  0.90293495  0.69811957  1
  Zr  Zr44  1  0.09351828  0.11148372  0.50000966  1
  Zr  Zr45  1  0.49984234  0.09373454  0.90360237  1
  Zr  Zr46  1  0.29749378  0.30481984  0.90684679  1
  Zr  Zr47  1  0.10256934  0.90190788  0.70542748  1
  Zr  Zr48  1  0.90881744  0.50561133  0.10129088  1
  Zr  Zr49  1  0.09372671  0.89447323  0.89203016  1
  Sc  Sc50  1  0.29777009  0.50443739  0.89958286  1
  Sc  Sc51  1  0.68925522  0.89419261  0.30933679  1
  Sc  Sc52  1  0.69901438  0.08745268  0.90044355  1
  Sc  Sc53  1  0.09448485  0.29350341  0.89625980  1
  Sc  Sc54  1  0.88932741  0.50262072  0.29640497  1
  Sc  Sc55  1  0.49593540  0.50987578  0.89850882  1
  Sc  Sc56  1  0.50039558  0.50996974  0.69738537  1
  Sc  Sc57  1  0.10974486  0.50148351  0.49820650  1
  Sc  Sc58  1  0.29751998  0.69798888  0.50482645  1
  Sc  Sc59  1  0.70606767  0.50345283  0.89867951  1
  Sc  Sc60  1  0.09991346  0.09981218  0.70599258  1
  Sc  Sc61  1  0.90082676  0.69682654  0.09387831  1
  Sc  Sc62  1  0.70015761  0.30455994  0.30004392  1
  Sc  Sc63  1  0.49304174  0.30130021  0.68971259  1
  Sc  Sc64  1  0.70662117  0.09520807  0.69293159  1
  Sc  Sc65  1  0.30329537  0.50974924  0.49710292  1
  Sc  Sc66  1  0.08893930  0.09947789  0.29412122  1
  Sc  Sc67  1  0.89927998  0.10801533  0.49838055  1
  Sc  Sc68  1  0.90918623  0.30352215  0.70269291  1
  Sc  Sc69  1  0.30520262  0.70384531  0.08819330  1
  Sc  Sc70  1  0.70917614  0.50150954  0.10468505  1
  Sc  Sc71  1  0.70221784  0.69483247  0.50914859  1
  Sc  Sc72  1  0.09814715  0.50409331  0.69582276  1
  Sc  Sc73  1  0.09595511  0.88887045  0.49536020  1
  Sc  Sc74  1  0.70563427  0.90132248  0.09366747  1
  Sc  Sc75  1  0.70587548  0.69433254  0.09652625  1
  Sc  Sc76  1  0.91807594  0.90282030  0.30127405  1
  Sc  Sc77  1  0.89894773  0.30255956  0.88963910  1
  Sc  Sc78  1  0.70459909  0.69379889  0.89969130  1
  Sc  Sc79  1  0.89184856  0.50941397  0.49654615  1
  Sc  Sc80  1  0.71364646  0.29305306  0.70543791  1
  Sc  Sc81  1  0.10246794  0.70206093  0.70028762  1
  Sc  Sc82  1  0.70257374  0.29525604  0.48865477  1
  Sc  Sc83  1  0.69943531  0.51620296  0.70370836  1
  Sc  Sc84  1  0.11001815  0.89061448  0.10441896  1
  Sc  Sc85  1  0.29495635  0.88877779  0.89971008  1
  Sc  Sc86  1  0.89501192  0.89641706  0.09434678  1
  Sc  Sc87  1  0.10489251  0.69936121  0.90111093  1
  Sc  Sc88  1  0.29163248  0.50127712  0.29664006  1
  Sc  Sc89  1  0.49839673  0.10399485  0.10337423  1
  Sc  Sc90  1  0.10605923  0.50438478  0.90473818  1
  Sc  Sc91  1  0.90461651  0.30793906  0.10407786  1
  Sc  Sc92  1  0.50563797  0.09681813  0.50603743  1
  Sc  Sc93  1  0.09486732  0.31286683  0.10112357  1
  Sc  Sc94  1  0.29437148  0.08793854  0.69432785  1
  Sc  Sc95  1  0.89572015  0.88995527  0.89761390  1
  Sc  Sc96  1  0.89414452  0.49323170  0.90082467  1
  Sc  Sc97  1  0.49185484  0.30519786  0.11028174  1
  Sc  Sc98  1  0.49760296  0.50298637  0.50179056  1
  Sc  Sc99  1  0.89365296  0.89672946  0.70491889  1
  Nb  Nb100  1  0.90465780  0.69742428  0.90172102  1
  Nb  Nb101  1  0.29949045  0.30178879  0.09672468  1
  Nb  Nb102  1  0.69907868  0.49909196  0.49757899  1
  Nb  Nb103  1  0.49221646  0.70177257  0.90992832  1
  Nb  Nb104  1  0.29829257  0.30349093  0.69969425  1
  Nb  Nb105  1  0.70687316  0.09619636  0.49837839  1
  Nb  Nb106  1  0.89576652  0.49951555  0.70248681  1
  Nb  Nb107  1  0.30056858  0.69918812  0.89803682  1
  Nb  Nb108  1  0.50076357  0.30322427  0.29878671  1
  Nb  Nb109  1  0.50438716  0.90155452  0.49609638  1
  Nb  Nb110  1  0.89845767  0.30213123  0.30333368  1
  Nb  Nb111  1  0.49658807  0.10419828  0.70625532  1
  Nb  Nb112  1  0.09950291  0.30308345  0.50232950  1
  Nb  Nb113  1  0.50169837  0.69497644  0.10149288  1
  Nb  Nb114  1  0.50316907  0.50461028  0.10139883  1
  Nb  Nb115  1  0.31672336  0.69542960  0.30634158  1
  Nb  Nb116  1  0.90409610  0.70565525  0.49750108  1
  Nb  Nb117  1  0.49886915  0.69957668  0.29396207  1
  Nb  Nb118  1  0.89985350  0.89908601  0.50168211  1
  Nb  Nb119  1  0.10406288  0.30229212  0.68283963  1
  Nb  Nb120  1  0.30124882  0.30047065  0.30024018  1
  Nb  Nb121  1  0.10908904  0.89853605  0.30112448  1
  Nb  Nb122  1  0.89852488  0.69890982  0.30324010  1
  Nb  Nb123  1  0.69203595  0.89619799  0.90776230  1
  Nb  Nb124  1  0.29057431  0.49041871  0.09336781  1
  Nb  Nb125  1  -0.00674018  0.60005729  0.79927593  1
  Nb  Nb126  1  0.00105185  0.40582979  0.39979335  1
  Nb  Nb127  1  0.00228063  0.00075536  -0.00275727  1
  Nb  Nb128  1  0.79766966  0.19839193  0.00304878  1
  Nb  Nb129  1  0.59500402  0.79350160  -0.00154272  1
  Nb  Nb130  1  0.20366484  0.20784601  0.20144233  1
  Nb  Nb131  1  0.80305782  0.79569688  0.21071324  1
  Nb  Nb132  1  0.59780979  0.59904441  0.39620766  1
  Nb  Nb133  1  0.19592397  -0.00048866  0.39674571  1
  Nb  Nb134  1  0.59348485  0.20109275  0.80122366  1
  Nb  Nb135  1  0.59865986  0.39636995  0.79901592  1
  Nb  Nb136  1  0.20010668  0.20296150  0.39660304  1
  Nb  Nb137  1  0.39816019  -0.00429127  0.00003855  1
  Nb  Nb138  1  0.80661062  0.80245924  0.40369653  1
  Nb  Nb139  1  0.80084613  -0.00287806  0.40471557  1
  Nb  Nb140  1  -0.00118440  0.60588410  0.39702692  1
  Nb  Nb141  1  0.40043318  0.39443150  0.39301627  1
  Nb  Nb142  1  0.39666633  0.20119201  0.79665535  1
  Nb  Nb143  1  0.60930110  0.40063661  0.60103043  1
  Nb  Nb144  1  0.79660999  0.40682475  0.59852400  1
  Nb  Nb145  1  -0.00526334  -0.00236898  0.59839943  1
  Nb  Nb146  1  0.59740061  0.40170547  0.00191937  1
  Nb  Nb147  1  0.59761170  -0.00116778  0.20460467  1
  Nb  Nb148  1  0.60227958  0.20578133  -0.00167329  1
  Nb  Nb149  1  0.20094373  0.39437976  0.79090727  1
  Pd  Pd150  1  0.39926447  0.60525997  0.80016823  1
  Pd  Pd151  1  0.00372835  0.80406832  0.00414632  1
  Pd  Pd152  1  -0.00585448  0.80009798  0.19377123  1
  Pd  Pd153  1  0.19019738  0.21167387  0.00875779  1
  Pd  Pd154  1  0.19516792  0.60711730  0.39830531  1
  Pd  Pd155  1  0.19712557  -0.01034395  -0.00683600  1
  Pd  Pd156  1  0.40551325  0.41275113  0.00419435  1
  Pd  Pd157  1  0.61187122  0.80015151  0.18953297  1
  Pd  Pd158  1  0.81262363  0.00412429  -0.01027543  1
  Pd  Pd159  1  0.60468091  0.00868248  0.39423118  1
  Pd  Pd160  1  0.80037930  -0.00299952  0.80533975  1
  Pd  Pd161  1  0.00168971  -0.00159115  0.40747783  1
  Pd  Pd162  1  0.40968684  -0.00221924  0.19798071  1
  Pd  Pd163  1  0.39652494  0.20296339  0.19784930  1
  Pd  Pd164  1  0.59716135  0.00464791  0.60834015  1
  Pd  Pd165  1  0.59450496  0.79597439  0.59635603  1
  Pd  Pd166  1  0.79623176  0.39516751  0.00950850  1
  Pd  Pd167  1  0.00636443  -0.01342418  0.18903962  1
  Pd  Pd168  1  -0.00870627  0.20094751  0.00622836  1
  Pd  Pd169  1  -0.00789116  0.41288497  0.59124832  1
  Pd  Pd170  1  0.38816524  0.00416149  0.80640297  1
  Pd  Pd171  1  0.60499176  0.00544423  0.79205405  1
  Pd  Pd172  1  0.40558543  0.40348379  0.59237141  1
  Pd  Pd173  1  -0.00182471  0.59465495  0.59803977  1
  Pd  Pd174  1  0.79816786  0.80119243  0.59813982  1
  Pd  Pd175  1  0.40022168  0.39892788  0.79636260  1
  Pd  Pd176  1  0.79551568  0.79446910  0.80759259  1
  Pd  Pd177  1  0.21038379  0.78575247  0.19784061  1
  Pd  Pd178  1  0.60523014  0.19503683  0.39604090  1
  Pd  Pd179  1  0.21186716  0.80165132  0.40618715  1
  Pd  Pd180  1  0.00215043  0.40230400  -0.00992747  1
  Pd  Pd181  1  0.40514889  0.79523202  0.60178717  1
  Pd  Pd182  1  0.39330800  0.59265590  0.00574119  1
  Pd  Pd183  1  0.01206471  0.40675058  0.80113126  1
  Pd  Pd184  1  0.39340832  0.80324110  0.40618860  1
  Pd  Pd185  1  0.20236593  0.41140017  0.60107795  1
  Pd  Pd186  1  -0.00110897  0.80696130  0.61020575  1
  Pd  Pd187  1  0.18565031  -0.00154967  0.58870795  1
  Pd  Pd188  1  0.60402772  0.59719639  -0.00226716  1
  Pd  Pd189  1  0.20523752  0.19278013  0.59776036  1
  Pd  Pd190  1  0.60811462  0.59575121  0.20172194  1
  Pd  Pd191  1  0.20132610  0.20520881  0.79105776  1
  Pd  Pd192  1  0.59087194  0.40517098  0.40402606  1
  Pd  Pd193  1  0.80149468  0.20893865  0.59562435  1
  Pd  Pd194  1  0.39239803  0.40487411  0.20160072  1
  Pd  Pd195  1  0.38956524  0.60040877  0.18860967  1
  Pd  Pd196  1  0.79334898  -0.01761901  0.21598407  1
  Pd  Pd197  1  0.39257553  0.19321255  0.60548761  1
  Pd  Pd198  1  0.60943905  0.20445618  0.60709237  1
  Pd  Pd199  1  0.21369627  0.61061681  0.19528908  1
  Rh  Rh200  1  0.80985813  0.60110960  0.80618320  1
  Rh  Rh201  1  -0.00721177  -0.00534777  0.79722593  1
  Rh  Rh202  1  0.20656318  0.39541747  0.19274248  1
  Rh  Rh203  1  0.40522617  0.59256063  0.39600674  1
  Rh  Rh204  1  0.60057366  0.40757734  0.19566694  1
  Rh  Rh205  1  0.41018520  0.00299230  0.59976465  1
  Rh  Rh206  1  0.80999996  0.39351360  0.40790159  1
  Rh  Rh207  1  0.00352945  0.21017097  0.20069450  1
  Rh  Rh208  1  0.00703446  0.21351593  0.39133203  1
  Rh  Rh209  1  0.79217577  0.18842327  0.80964244  1
  Rh  Rh210  1  0.80117974  0.59728689  0.59702953  1
  Rh  Rh211  1  0.40442626  0.80352117  -0.00193157  1
  Rh  Rh212  1  0.59603362  0.59656937  0.59182525  1
  Rh  Rh213  1  0.20650173  0.60252062  0.00138637  1
  Rh  Rh214  1  -0.00470045  0.60533472  0.20714314  1
  Rh  Rh215  1  -0.00245208  0.79706938  0.39591027  1
  Rh  Rh216  1  0.19391560  0.59484470  0.79936545  1
  Rh  Rh217  1  0.00083914  0.19466140  0.60872515  1
  Rh  Rh218  1  0.19603532  0.79497743  -0.00196993  1
  Rh  Rh219  1  0.79918314  0.60974481  0.40594344  1
  Rh  Rh220  1  -0.00800837  0.40444671  0.21146655  1
  Rh  Rh221  1  0.00954278  0.20922029  0.78854656  1
  Rh  Rh222  1  0.58955004  0.19430151  0.20266314  1
  Rh  Rh223  1  0.79126420  0.40902247  0.78681807  1
  Rh  Rh224  1  -0.00301535  0.78776779  0.79513582  1
  Rh  Rh225  1  0.59571223  0.59998334  0.80972063  1
  Rh  Rh226  1  0.39650176  0.79416119  0.79956423  1
  Rh  Rh227  1  0.80383611  0.60521247  0.19613749  1
  Rh  Rh228  1  0.39544771  0.78811046  0.19892119  1
  Rh  Rh229  1  0.20246944  0.39773620  0.40452801  1
  Rh  Rh230  1  0.58925314  -0.00837916  0.01120326  1
  Rh  Rh231  1  0.39471503  0.20944681  0.39904479  1
  Rh  Rh232  1  0.40015774  -0.01164283  0.40142579  1
  Rh  Rh233  1  -0.00294666  0.59501029  -0.01099905  1
  Rh  Rh234  1  0.40417063  0.19252725  0.00075282  1
  Rh  Rh235  1  0.20062972  0.59980679  0.60184144  1
  Rh  Rh236  1  0.20452823  -0.00287317  0.80580996  1
  Rh  Rh237  1  0.80738417  0.00028016  0.59458381  1
  Rh  Rh238  1  0.40114296  0.60727761  0.60494986  1
  Rh  Rh239  1  0.19805827  0.80296924  0.59869628  1
  Rh  Rh240  1  0.19409749  0.39801651  -0.00635699  1
  Rh  Rh241  1  0.60380576  0.78722715  0.41070033  1
  Rh  Rh242  1  0.79206511  0.79443489  -0.00007770  1
  Rh  Rh243  1  0.81071595  0.21088837  0.19650477  1
  Rh  Rh244  1  0.20079702  0.79401014  0.80284870  1
  Rh  Rh245  1  0.19063084  0.00677243  0.20800364  1
  Rh  Rh246  1  0.80241239  0.39882019  0.19926051  1
  Rh  Rh247  1  0.79873425  0.19762055  0.39986800  1
  Rh  Rh248  1  0.60445425  0.79058324  0.81239929  1
  Rh  Rh249  1  0.80758447  0.59856549  -0.00123180  1
