# generated using pymatgen
data_ZrScNbPdRh
_symmetry_space_group_name_H-M   'P 1'
_cell_length_a   16.56205210
_cell_length_b   16.56231519
_cell_length_c   16.55815849
_cell_angle_alpha   90.03334606
_cell_angle_beta   89.98863822
_cell_angle_gamma   89.99371564
_symmetry_Int_Tables_number   1
_chemical_formula_structural   ZrScNbPdRh
_chemical_formula_sum   'Zr50 Sc50 Nb50 Pd50 Rh50'
_cell_volume   4542.00012958
_cell_formula_units_Z   50
loop_
 _symmetry_equiv_pos_site_id
 _symmetry_equiv_pos_as_xyz
  1  'x, y, z'
loop_
 _atom_site_type_symbol
 _atom_site_label
 _atom_site_symmetry_multiplicity
 _atom_site_fract_x
 _atom_site_fract_y
 _atom_site_fract_z
 _atom_site_occupancy
  Zr  Zr0  1  0.49731174  0.10585523  0.89682164  1
  Zr  Zr1  1  0.30969397  0.70271302  0.69397587  1
  Zr  Zr2  1  0.70895805  0.90694543  0.50247694  1
  Zr  Zr3  1  0.30130070  0.89318261  0.49685922  1
  Zr  Zr4  1  0.70364747  0.89446211  0.29154641  1
  Zr  Zr5  1  0.49447766  0.29350331  0.49990535  1
  Zr  Zr6  1  0.50462713  0.50004962  0.70138260  1
  Zr  Zr7  1  0.30225766  0.11541681  0.49356894  1
  Zr  Zr8  1  0.89567306  0.29828451  0.89220018  1
  Zr  Zr9  1  0.69715066  0.90656803  0.10310956  1
  Zr  Zr10  1  0.10044452  0.49133069  0.69504532  1
  Zr  Zr11  1  0.09653736  0.89996138  0.69890566  1
  Zr  Zr12  1  0.29710513  0.90398168  0.10790448  1
  Zr  Zr13  1  0.89715919  0.10210205  0.49385319  1
  Zr  Zr14  1  0.89833629  0.49478935  0.10141312  1
  Zr  Zr15  1  0.69534287  0.09900846  0.70031249  1
  Zr  Zr16  1  0.29577357  0.50134251  0.29547820  1
  Zr  Zr17  1  0.69585032  0.50010741  0.70235605  1
  Zr  Zr18  1  0.30067778  0.29520343  0.10020601  1
  Zr  Zr19  1  0.50364312  0.10160692  0.10646139  1
  Zr  Zr20  1  0.49835596  0.49850728  0.30076136  1
  Zr  Zr21  1  0.70230457  0.70591444  0.10790896  1
  Zr  Zr22  1  0.49650746  0.90023002  0.89729847  1
  Zr  Zr23  1  0.90101512  0.10506143  0.29811571  1
  Zr  Zr24  1  0.69981380  0.49126196  0.09170660  1
  Zr  Zr25  1  0.50682127  0.90164135  0.10428851  1
  Zr  Zr26  1  0.11289201  0.50137822  0.89528143  1
  Zr  Zr27  1  0.49658705  0.89518016  0.29692184  1
  Zr  Zr28  1  0.50305699  0.10484990  0.49888019  1
  Zr  Zr29  1  0.90384546  0.10680975  0.70834409  1
  Zr  Zr30  1  0.29675485  0.90089869  0.90149702  1
  Zr  Zr31  1  0.89468948  0.49684470  0.90848571  1
  Zr  Zr32  1  0.09619199  0.09986609  0.89441190  1
  Zr  Zr33  1  0.10662934  0.88530347  0.10209118  1
  Zr  Zr34  1  0.50545975  0.29785801  0.69871937  1
  Zr  Zr35  1  0.09497599  0.70455414  0.49111951  1
  Zr  Zr36  1  0.90112224  0.70582456  0.50190624  1
  Zr  Zr37  1  0.69678819  0.09777685  0.50199352  1
  Zr  Zr38  1  0.70222751  0.29752750  0.70862297  1
  Zr  Zr39  1  0.09738074  0.50540749  0.10024491  1
  Zr  Zr40  1  0.70891375  0.69957827  0.69840799  1
  Zr  Zr41  1  0.90708345  0.49462702  0.70662681  1
  Zr  Zr42  1  0.50021343  0.70123007  0.70445579  1
  Zr  Zr43  1  0.09619641  0.69439180  0.69725460  1
  Zr  Zr44  1  0.89499667  0.29541984  0.29464463  1
  Zr  Zr45  1  0.49186637  0.69672314  0.50269925  1
  Zr  Zr46  1  0.10357097  0.89964637  0.90623851  1
  Zr  Zr47  1  0.90540727  0.89595923  0.49787941  1
  Zr  Zr48  1  0.29868484  0.69929204  0.49944073  1
  Zr  Zr49  1  0.90614138  0.69053983  0.09509439  1
  Sc  Sc50  1  0.50012140  0.30034105  0.10302268  1
  Sc  Sc51  1  0.90004462  0.69991507  0.69670183  1
  Sc  Sc52  1  0.50059050  0.69597326  0.10172345  1
  Sc  Sc53  1  0.69936779  0.30318629  0.48844923  1
  Sc  Sc54  1  0.10507750  0.29636016  0.89872356  1
  Sc  Sc55  1  0.70703147  0.90325936  0.90844437  1
  Sc  Sc56  1  0.29347159  0.10744991  0.89296987  1
  Sc  Sc57  1  0.70358679  0.30004591  0.29602366  1
  Sc  Sc58  1  0.29904623  0.68968979  0.10108414  1
  Sc  Sc59  1  0.89589538  0.48969769  0.29886031  1
  Sc  Sc60  1  0.09561527  0.30268897  0.50540711  1
  Sc  Sc61  1  0.29533819  0.50460130  0.50744732  1
  Sc  Sc62  1  0.89350220  0.90131253  0.30238228  1
  Sc  Sc63  1  0.50295142  0.69485257  0.90658866  1
  Sc  Sc64  1  0.69774467  0.69932821  0.90746194  1
  Sc  Sc65  1  0.90705583  0.29921707  0.49071170  1
  Sc  Sc66  1  0.91007098  0.49551029  0.49302474  1
  Sc  Sc67  1  0.69927918  0.48485399  0.30644189  1
  Sc  Sc68  1  0.28691165  0.30532878  0.69356791  1
  Sc  Sc69  1  0.29431430  0.11147605  0.28738541  1
  Sc  Sc70  1  0.30238945  0.49636464  0.10038213  1
  Sc  Sc71  1  0.49365967  0.69569267  0.30245007  1
  Sc  Sc72  1  0.09923729  0.11118760  0.70463438  1
  Sc  Sc73  1  0.29781715  0.29693746  0.29098151  1
  Sc  Sc74  1  0.89264727  0.90260012  0.89691849  1
  Sc  Sc75  1  0.89766750  0.10347113  0.90114275  1
  Sc  Sc76  1  0.49976110  0.29657421  0.90203753  1
  Sc  Sc77  1  0.28792354  0.49998096  0.69847375  1
  Sc  Sc78  1  0.50786695  0.29558852  0.29859502  1
  Sc  Sc79  1  0.50401083  0.91019623  0.50005843  1
  Sc  Sc80  1  0.89838523  0.11040938  0.10244304  1
  Sc  Sc81  1  0.89693936  0.70383563  0.29588178  1
  Sc  Sc82  1  0.89255349  0.89495733  0.10541261  1
  Sc  Sc83  1  0.30467990  0.69768355  0.30665987  1
  Sc  Sc84  1  0.09806063  0.11784476  0.49539399  1
  Sc  Sc85  1  0.49850062  0.10549469  0.69331688  1
  Sc  Sc86  1  0.30572623  0.89850913  0.69997212  1
  Sc  Sc87  1  0.70730651  0.10146917  0.29803547  1
  Sc  Sc88  1  0.09749494  0.30401613  0.09848689  1
  Sc  Sc89  1  0.50690229  0.49582237  0.50495184  1
  Sc  Sc90  1  0.29912204  0.69447422  0.90703705  1
  Sc  Sc91  1  0.48980902  0.90241286  0.69696309  1
  Sc  Sc92  1  0.49708251  0.49929391  0.09230703  1
  Sc  Sc93  1  0.09829728  0.50472331  0.29798095  1
  Sc  Sc94  1  0.88886570  0.89643402  0.70265124  1
  Sc  Sc95  1  0.10225317  0.11156362  0.09961611  1
  Sc  Sc96  1  0.90030619  0.30157326  0.09469216  1
  Sc  Sc97  1  0.70250844  0.30422688  0.90076748  1
  Sc  Sc98  1  0.10116019  0.69466692  0.91945163  1
  Sc  Sc99  1  0.29777295  0.29961441  0.90073670  1
  Nb  Nb100  1  0.30010562  0.90382538  0.30147498  1
  Nb  Nb101  1  0.70021062  0.09649132  0.90391064  1
  Nb  Nb102  1  0.69752700  0.29476172  0.10322673  1
  Nb  Nb103  1  0.09820187  0.70609111  0.29443565  1
  Nb  Nb104  1  0.30829110  0.10588690  0.09572264  1
  Nb  Nb105  1  0.10371656  0.28933854  0.29568991  1
  Nb  Nb106  1  0.89848458  0.69887550  0.89848645  1
  Nb  Nb107  1  0.30563990  0.49942122  0.90151850  1
  Nb  Nb108  1  0.90198412  0.30287015  0.69889734  1
  Nb  Nb109  1  0.29339439  0.09907047  0.69491481  1
  Nb  Nb110  1  0.09870016  0.10427786  0.29787320  1
  Nb  Nb111  1  0.29642141  0.30318791  0.49323940  1
  Nb  Nb112  1  0.50828725  0.50374245  0.90352163  1
  Nb  Nb113  1  0.08914795  0.30399599  0.69881092  1
  Nb  Nb114  1  0.69782933  0.69678091  0.30124702  1
  Nb  Nb115  1  0.70396259  0.50079758  0.50095073  1
  Nb  Nb116  1  0.69083755  0.50012908  0.90045454  1
  Nb  Nb117  1  0.49675723  0.10471873  0.30360558  1
  Nb  Nb118  1  0.10216695  0.50211201  0.49289478  1
  Nb  Nb119  1  0.09928131  0.89730082  0.49759308  1
  Nb  Nb120  1  0.10735818  0.89984523  0.29766140  1
  Nb  Nb121  1  0.69955354  0.09722291  0.09766147  1
  Nb  Nb122  1  0.09646492  0.69891325  0.10374090  1
  Nb  Nb123  1  0.70160933  0.69656442  0.50285984  1
  Nb  Nb124  1  0.70083420  0.90012125  0.70375244  1
  Nb  Nb125  1  0.60709995  0.19516039  0.00520404  1
  Nb  Nb126  1  0.19626504  0.00324479  0.59133947  1
  Nb  Nb127  1  0.00285302  0.79556278  0.80666842  1
  Nb  Nb128  1  0.40088744  0.40719659  0.80228665  1
  Nb  Nb129  1  0.01179606  -0.00247115  0.39674740  1
  Nb  Nb130  1  0.80216170  0.20673293  0.60273068  1
  Nb  Nb131  1  0.60469882  0.80543904  0.79619996  1
  Nb  Nb132  1  0.19563361  0.79628515  0.80154443  1
  Nb  Nb133  1  0.80344074  0.39737145  0.60151591  1
  Nb  Nb134  1  0.40244557  0.59059067  0.80459924  1
  Nb  Nb135  1  0.60726133  0.80107070  0.59930225  1
  Nb  Nb136  1  0.00401985  -0.00198258  0.00771644  1
  Nb  Nb137  1  0.19925654  0.39891479  0.39935128  1
  Nb  Nb138  1  0.60661477  0.79380084  0.40510144  1
  Nb  Nb139  1  0.39352786  0.39541811  0.40303710  1
  Nb  Nb140  1  0.39803336  0.00283935  0.00372613  1
  Nb  Nb141  1  0.79807441  0.59595287  0.80620017  1
  Nb  Nb142  1  0.00509371  0.00129474  0.59348493  1
  Nb  Nb143  1  0.00893117  -0.00157439  0.20212685  1
  Nb  Nb144  1  0.39439400  0.00496340  0.39053238  1
  Nb  Nb145  1  0.19849626  0.00026957  0.39636767  1
  Nb  Nb146  1  0.60211943  -0.00210516  0.80132284  1
  Nb  Nb147  1  0.60658437  0.59680536  0.20397985  1
  Nb  Nb148  1  0.79294493  0.60114202  0.40466041  1
  Nb  Nb149  1  0.39774200  0.80837423  0.00424799  1
  Pd  Pd150  1  0.19681531  0.01022991  0.19835454  1
  Pd  Pd151  1  0.20105779  0.40223167  0.00375958  1
  Pd  Pd152  1  0.19896115  0.60423329  0.20101371  1
  Pd  Pd153  1  0.81224274  0.00346708  0.00715692  1
  Pd  Pd154  1  0.59784830  0.60499885  0.59903574  1
  Pd  Pd155  1  -0.00300063  0.60349052  0.80868712  1
  Pd  Pd156  1  0.39399284  0.40318287  0.60199103  1
  Pd  Pd157  1  0.20094245  0.79751692  0.39272677  1
  Pd  Pd158  1  0.60414699  0.59843628  0.39734539  1
  Pd  Pd159  1  -0.00843870  0.60332213  0.39017349  1
  Pd  Pd160  1  0.59805767  -0.00515950  0.38997279  1
  Pd  Pd161  1  0.01074655  0.39260916  0.38979006  1
  Pd  Pd162  1  -0.00534006  -0.00759713  0.80127147  1
  Pd  Pd163  1  0.20002421  0.80291201  0.60572076  1
  Pd  Pd164  1  0.20284727  -0.00384351  0.78977059  1
  Pd  Pd165  1  0.79571470  0.79441259  0.39917700  1
  Pd  Pd166  1  0.19885125  0.19898457  -0.00138165  1
  Pd  Pd167  1  0.21045233  0.78764943  0.20423587  1
  Pd  Pd168  1  -0.00106546  0.59405713  0.59343616  1
  Pd  Pd169  1  -0.00642139  0.80564655  0.20442970  1
  Pd  Pd170  1  0.00657388  0.39715336  0.81098454  1
  Pd  Pd171  1  0.20831222  0.60770824  0.79935341  1
  Pd  Pd172  1  0.40227290  0.39550733  -0.00529898  1
  Pd  Pd173  1  0.38823118  0.21034192  0.78950122  1
  Pd  Pd174  1  0.19521424  0.20212327  0.60215243  1
  Pd  Pd175  1  0.00566015  0.39828106  -0.00710590  1
  Pd  Pd176  1  0.79515392  0.20416901  0.00043083  1
  Pd  Pd177  1  0.20019879  0.01222740  0.00775805  1
  Pd  Pd178  1  0.60945875  0.39196409  0.59393108  1
  Pd  Pd179  1  0.39477984  0.79127283  0.19482573  1
  Pd  Pd180  1  0.79416948  0.60138955  -0.00245586  1
  Pd  Pd181  1  0.40171039  0.39591224  0.20488974  1
  Pd  Pd182  1  0.39160873  0.00523972  0.59093822  1
  Pd  Pd183  1  0.39939478  0.00910647  0.80022491  1
  Pd  Pd184  1  0.39230857  0.20555202  0.60845883  1
  Pd  Pd185  1  0.39820135  0.00800703  0.20233198  1
  Pd  Pd186  1  0.60718869  0.20157177  0.39384811  1
  Pd  Pd187  1  0.00393705  0.39525261  0.20367140  1
  Pd  Pd188  1  0.81201820  0.58790164  0.59849702  1
  Pd  Pd189  1  0.79456125  0.59057754  0.20964156  1
  Pd  Pd190  1  0.39601301  0.58649716  0.40693473  1
  Pd  Pd191  1  0.19422761  0.60342276  0.59516132  1
  Pd  Pd192  1  0.81093827  0.00736245  0.60648454  1
  Pd  Pd193  1  -0.00961640  0.80547794  -0.00390621  1
  Pd  Pd194  1  0.60383171  0.00845595  0.21212861  1
  Pd  Pd195  1  0.59627812  0.80043825  -0.00381576  1
  Pd  Pd196  1  0.59901415  0.40396441  0.19691242  1
  Pd  Pd197  1  0.59406025  0.39403728  0.80842769  1
  Pd  Pd198  1  0.80330107  0.79945766  0.00226281  1
  Pd  Pd199  1  -0.00481379  0.59863044  0.20827255  1
  Rh  Rh200  1  0.60346492  0.59999999  0.01257251  1
  Rh  Rh201  1  0.59609294  -0.00727948  0.61181023  1
  Rh  Rh202  1  0.00018751  0.20217192  0.19739308  1
  Rh  Rh203  1  0.79651051  0.20124303  0.19432812  1
  Rh  Rh204  1  0.59151570  0.00786436  -0.00796633  1
  Rh  Rh205  1  0.79268610  0.00617849  0.80085667  1
  Rh  Rh206  1  0.40105902  0.60268548  -0.00301584  1
  Rh  Rh207  1  0.19841008  0.20184091  0.18990563  1
  Rh  Rh208  1  0.00220410  0.20314605  0.39408547  1
  Rh  Rh209  1  0.60432741  0.19569053  0.19869493  1
  Rh  Rh210  1  0.60318007  0.61017759  0.80531963  1
  Rh  Rh211  1  0.40798125  0.80745788  0.40296020  1
  Rh  Rh212  1  -0.00169682  0.40232392  0.59509192  1
  Rh  Rh213  1  0.79896968  0.39550661  0.19330044  1
  Rh  Rh214  1  0.79835020  0.80338877  0.59818115  1
  Rh  Rh215  1  0.00224712  0.59475043  -0.00181659  1
  Rh  Rh216  1  0.79603295  0.39314348  0.00041514  1
  Rh  Rh217  1  0.19317136  0.39840001  0.20370107  1
  Rh  Rh218  1  0.19705292  0.20664669  0.39769919  1
  Rh  Rh219  1  0.79577472  0.20066093  0.40512488  1
  Rh  Rh220  1  0.59589064  0.78823271  0.21021680  1
  Rh  Rh221  1  0.39822633  0.20329809  0.38943801  1
  Rh  Rh222  1  0.80321444  0.00223151  0.39498466  1
  Rh  Rh223  1  -0.00704478  0.19826260  0.60333501  1
  Rh  Rh224  1  0.60714719  0.19342135  0.81123554  1
  Rh  Rh225  1  -0.00505188  0.80604437  0.61008680  1
  Rh  Rh226  1  0.59124081  0.39776678  0.40492906  1
  Rh  Rh227  1  0.40125600  0.59091057  0.60622442  1
  Rh  Rh228  1  0.40880061  0.80646671  0.59054522  1
  Rh  Rh229  1  0.79937926  0.79050138  0.80634635  1
  Rh  Rh230  1  0.20085386  0.59329680  0.00905199  1
  Rh  Rh231  1  0.00301078  0.20887278  0.80407505  1
  Rh  Rh232  1  0.00248025  0.80243510  0.38714828  1
  Rh  Rh233  1  0.80349607  0.79614515  0.19819642  1
  Rh  Rh234  1  0.79690209  0.19625333  0.79903131  1
  Rh  Rh235  1  0.80232059  0.40483716  0.40809505  1
  Rh  Rh236  1  0.40865540  0.59689962  0.19773104  1
  Rh  Rh237  1  0.19875947  0.20635492  0.79258495  1
  Rh  Rh238  1  0.59879118  0.39003502  -0.00128713  1
  Rh  Rh239  1  0.20364116  0.39519429  0.80158318  1
  Rh  Rh240  1  0.40481023  0.20456180  0.20172000  1
  Rh  Rh241  1  0.80564592  0.00442601  0.19665233  1
  Rh  Rh242  1  0.19071809  0.39947059  0.59027310  1
  Rh  Rh243  1  0.79709630  0.40953708  0.79774459  1
  Rh  Rh244  1  0.40653545  0.19707899  0.00302391  1
  Rh  Rh245  1  0.39767806  0.78360979  0.81229534  1
  Rh  Rh246  1  0.60881947  0.20695974  0.59445500  1
  Rh  Rh247  1  0.19530807  0.60011911  0.39720438  1
  Rh  Rh248  1  -0.00075997  0.19512310  -0.00479321  1
  Rh  Rh249  1  0.20870303  0.79000700  0.00300618  1
