# generated using pymatgen
data_ZrScNbPdRh
_symmetry_space_group_name_H-M   'P 1'
_cell_length_a   16.55648910
_cell_length_b   16.55641942
_cell_length_c   16.55641637
_cell_angle_alpha   89.99405743
_cell_angle_beta   89.97264743
_cell_angle_gamma   89.98623991
_symmetry_Int_Tables_number   1
_chemical_formula_structural   ZrScNbPdRh
_chemical_formula_sum   'Zr50 Sc50 Nb50 Pd50 Rh50'
_cell_volume   4538.38090078
_cell_formula_units_Z   50
loop_
 _symmetry_equiv_pos_site_id
 _symmetry_equiv_pos_as_xyz
  1  'x, y, z'
loop_
 _atom_site_type_symbol
 _atom_site_label
 _atom_site_symmetry_multiplicity
 _atom_site_fract_x
 _atom_site_fract_y
 _atom_site_fract_z
 _atom_site_occupancy
  Zr  Zr0  1  0.29924528  0.50457224  0.08967938  1
  Zr  Zr1  1  0.29348792  0.49716952  0.70073566  1
  Zr  Zr2  1  0.49790012  0.10313455  0.50698664  1
  Zr  Zr3  1  0.10141338  0.69739315  0.30447618  1
  Zr  Zr4  1  0.09153833  0.08607921  0.69029654  1
  Zr  Zr5  1  0.30225941  0.10844082  0.29532168  1
  Zr  Zr6  1  0.28935174  0.70525206  0.10261664  1
  Zr  Zr7  1  0.10959902  0.88207698  0.09644654  1
  Zr  Zr8  1  0.91412719  0.70328341  0.69229456  1
  Zr  Zr9  1  0.49889270  0.11059329  0.30279869  1
  Zr  Zr10  1  0.49684823  0.90689948  0.89730698  1
  Zr  Zr11  1  0.90737365  0.10306686  0.49505916  1
  Zr  Zr12  1  0.09814614  0.30927271  0.69299819  1
  Zr  Zr13  1  0.70449132  0.70230689  0.09897427  1
  Zr  Zr14  1  0.69073656  0.89285971  0.90524831  1
  Zr  Zr15  1  0.29915116  0.10082083  0.50294080  1
  Zr  Zr16  1  0.89559374  0.90810645  0.30239176  1
  Zr  Zr17  1  0.70283353  0.50069152  0.89572366  1
  Zr  Zr18  1  0.09622530  0.88949601  0.70587915  1
  Zr  Zr19  1  0.11210332  0.91519225  0.50532952  1
  Zr  Zr20  1  0.89418742  0.09036992  0.69856891  1
  Zr  Zr21  1  0.29727417  0.30513117  0.50212223  1
  Zr  Zr22  1  0.30473796  0.09943527  0.09789220  1
  Zr  Zr23  1  0.30141503  0.89841788  0.69317019  1
  Zr  Zr24  1  0.89824645  0.29960651  0.49927157  1
  Zr  Zr25  1  0.11218510  0.11338463  0.08990181  1
  Zr  Zr26  1  0.10393886  0.09299508  0.89715832  1
  Zr  Zr27  1  0.50274772  0.69623507  0.10026868  1
  Zr  Zr28  1  0.29985634  0.09676462  0.89963465  1
  Zr  Zr29  1  0.29733743  0.90320295  0.89660766  1
  Zr  Zr30  1  0.29884247  0.30050007  0.70777715  1
  Zr  Zr31  1  0.08849642  0.70099482  0.49621329  1
  Zr  Zr32  1  0.69459550  0.70753473  0.49892015  1
  Zr  Zr33  1  0.90220825  0.50459002  0.89416799  1
  Zr  Zr34  1  0.89993410  0.50238933  0.70231559  1
  Zr  Zr35  1  0.50096685  0.09148614  0.69712936  1
  Zr  Zr36  1  0.30062598  0.68373030  0.90992762  1
  Zr  Zr37  1  0.49985081  0.29470512  0.49128927  1
  Zr  Zr38  1  0.70222588  0.90342449  0.30055029  1
  Zr  Zr39  1  0.70347814  0.50004661  0.69918319  1
  Zr  Zr40  1  0.10529696  0.49518918  0.30991378  1
  Zr  Zr41  1  0.09140999  0.69537703  0.09879892  1
  Zr  Zr42  1  0.88721069  0.89545763  0.49237523  1
  Zr  Zr43  1  0.90146843  0.88928763  0.10451713  1
  Zr  Zr44  1  0.69285482  0.09053222  0.90846534  1
  Zr  Zr45  1  0.70466342  0.30649551  0.50110773  1
  Zr  Zr46  1  0.09132674  0.50332217  0.70066192  1
  Zr  Zr47  1  0.10272687  0.30587310  0.29507115  1
  Zr  Zr48  1  0.30325891  0.90231004  0.09913939  1
  Zr  Zr49  1  0.70684577  0.69887334  0.89527247  1
  Sc  Sc50  1  0.89388951  0.09849019  0.10066873  1
  Sc  Sc51  1  0.89713686  0.09910144  0.30590292  1
  Sc  Sc52  1  0.69047383  0.69561648  0.29467429  1
  Sc  Sc53  1  0.69502231  0.50123740  0.29381662  1
  Sc  Sc54  1  0.50458914  0.09650056  0.10330165  1
  Sc  Sc55  1  0.31151000  0.70034186  0.49999665  1
  Sc  Sc56  1  0.49231236  0.51638372  0.49600801  1
  Sc  Sc57  1  0.50752999  0.71318473  0.89634196  1
  Sc  Sc58  1  0.10727598  0.28809515  0.90496997  1
  Sc  Sc59  1  0.70500211  0.09652922  0.29440777  1
  Sc  Sc60  1  0.90364704  0.29851003  0.89685572  1
  Sc  Sc61  1  0.28361046  0.29752788  0.10485873  1
  Sc  Sc62  1  0.69993158  0.10717487  0.51558464  1
  Sc  Sc63  1  0.50114316  0.30464742  0.89950770  1
  Sc  Sc64  1  0.30035860  0.70448527  0.69537696  1
  Sc  Sc65  1  0.29980077  0.89154728  0.30099236  1
  Sc  Sc66  1  0.49926377  0.70093845  0.50327869  1
  Sc  Sc67  1  0.10121225  0.49130462  0.10761687  1
  Sc  Sc68  1  0.89836672  0.49752093  0.30009679  1
  Sc  Sc69  1  0.30352875  0.70306223  0.31134672  1
  Sc  Sc70  1  0.30668069  0.30462106  0.30010541  1
  Sc  Sc71  1  0.89805174  0.49283345  0.49418872  1
  Sc  Sc72  1  0.89717016  0.30223928  0.30501386  1
  Sc  Sc73  1  0.50171105  0.49244937  0.09639211  1
  Sc  Sc74  1  0.70278616  0.30293060  0.69556762  1
  Sc  Sc75  1  0.69385517  0.30177752  0.10498157  1
  Sc  Sc76  1  0.69545572  0.30624283  0.30291806  1
  Sc  Sc77  1  0.69351442  0.09581406  0.10315000  1
  Sc  Sc78  1  0.90142930  0.09017850  0.90148270  1
  Sc  Sc79  1  0.68555807  0.30718679  0.90097165  1
  Sc  Sc80  1  0.10165093  0.51117822  0.90148409  1
  Sc  Sc81  1  0.50044232  0.69972397  0.30289208  1
  Sc  Sc82  1  0.49234839  0.29879136  0.70825271  1
  Sc  Sc83  1  0.89664622  0.31113447  0.69277979  1
  Sc  Sc84  1  0.70006815  0.50677313  0.49152628  1
  Sc  Sc85  1  0.90365871  0.69437893  0.90680663  1
  Sc  Sc86  1  0.30878638  0.10433177  0.70087453  1
  Sc  Sc87  1  0.90031156  0.29998841  0.10723298  1
  Sc  Sc88  1  0.70061851  0.89939909  0.10658151  1
  Sc  Sc89  1  0.30096399  0.49087029  0.89980256  1
  Sc  Sc90  1  0.09713255  0.10060786  0.31973016  1
  Sc  Sc91  1  0.10102710  0.89612622  0.31294313  1
  Sc  Sc92  1  0.49944390  0.89568145  0.51089853  1
  Sc  Sc93  1  0.90267129  0.89884616  0.89735350  1
  Sc  Sc94  1  0.90219926  0.50876899  0.10756706  1
  Sc  Sc95  1  0.50601180  0.90031882  0.10374433  1
  Sc  Sc96  1  0.50835099  0.30161171  0.09873626  1
  Sc  Sc97  1  0.50060076  0.89587219  0.29537409  1
  Sc  Sc98  1  0.09957700  0.70401127  0.90330684  1
  Sc  Sc99  1  0.49793546  0.48927020  0.90241535  1
  Nb  Nb100  1  0.91260514  0.70491207  0.30803917  1
  Nb  Nb101  1  0.10938998  0.48775171  0.49912494  1
  Nb  Nb102  1  0.09497056  0.30324850  0.49562878  1
  Nb  Nb103  1  0.70136608  0.90584808  0.69009501  1
  Nb  Nb104  1  0.49268507  0.49393286  0.29218502  1
  Nb  Nb105  1  0.49668877  0.89488748  0.70363612  1
  Nb  Nb106  1  0.89699600  0.70077593  0.49179977  1
  Nb  Nb107  1  0.50110348  0.69390306  0.69161135  1
  Nb  Nb108  1  0.69679221  0.90356563  0.49656214  1
  Nb  Nb109  1  0.50085396  0.30940916  0.30072644  1
  Nb  Nb110  1  0.09673271  0.30023110  0.10278293  1
  Nb  Nb111  1  0.70002078  0.09955080  0.70172251  1
  Nb  Nb112  1  0.29408598  0.50613407  0.49520107  1
  Nb  Nb113  1  0.90733672  0.70171321  0.10714868  1
  Nb  Nb114  1  0.30192147  0.50311297  0.30602682  1
  Nb  Nb115  1  0.30906179  0.29365947  0.88985753  1
  Nb  Nb116  1  0.09865604  0.69667547  0.69291797  1
  Nb  Nb117  1  0.49979104  0.50458399  0.69353096  1
  Nb  Nb118  1  0.89634071  0.90024524  0.70227708  1
  Nb  Nb119  1  0.30662340  0.90207894  0.50046679  1
  Nb  Nb120  1  0.10172271  0.90172354  0.90111285  1
  Nb  Nb121  1  0.70003647  0.69842068  0.69504036  1
  Nb  Nb122  1  0.09891003  0.10689562  0.50219983  1
  Nb  Nb123  1  0.49906164  0.09727120  0.90424186  1
  Nb  Nb124  1  0.69941656  0.50510944  0.10255820  1
  Nb  Nb125  1  0.19169890  0.59864920  0.59494390  1
  Nb  Nb126  1  0.39997448  0.40660210  0.59818121  1
  Nb  Nb127  1  0.19349485  0.00215390  0.19966016  1
  Nb  Nb128  1  -0.00306095  0.19411701  0.79409938  1
  Nb  Nb129  1  0.20514608  0.59676650  0.20711285  1
  Nb  Nb130  1  0.60304420  0.18945924  0.79980056  1
  Nb  Nb131  1  0.39606092  0.59342901  0.20163409  1
  Nb  Nb132  1  0.00618093  0.19632790  0.20000084  1
  Nb  Nb133  1  -0.00173646  0.39746969  0.00298431  1
  Nb  Nb134  1  0.80465623  0.61047197  0.59447089  1
  Nb  Nb135  1  0.39983381  0.19855529  -0.00469586  1
  Nb  Nb136  1  0.80209734  0.40205861  0.00203901  1
  Nb  Nb137  1  0.60628470  0.59922006  -0.00486224  1
  Nb  Nb138  1  0.59778787  0.60126940  0.79410811  1
  Nb  Nb139  1  0.00999688  -0.00655398  0.00695929  1
  Nb  Nb140  1  0.01050100  0.00281346  0.19503907  1
  Nb  Nb141  1  0.59075476  0.40565330  0.59745100  1
  Nb  Nb142  1  0.40903550  0.60051421  0.79481670  1
  Nb  Nb143  1  0.39807058  0.80082170  -0.00010257  1
  Nb  Nb144  1  0.79824599  0.80342652  0.78705010  1
  Nb  Nb145  1  0.79380313  0.20448721  -0.00557628  1
  Nb  Nb146  1  0.40275250  0.00043665  0.40383784  1
  Nb  Nb147  1  0.19100727  0.20097011  0.59577610  1
  Nb  Nb148  1  0.59812918  0.00095486  0.40727709  1
  Nb  Nb149  1  0.79521965  0.19350777  0.80211858  1
  Pd  Pd150  1  0.40126081  0.40584017  0.40736866  1
  Pd  Pd151  1  0.39510443  0.79103357  0.80250564  1
  Pd  Pd152  1  0.60038207  0.20372641  0.20520743  1
  Pd  Pd153  1  0.20341705  0.79023366  0.80394366  1
  Pd  Pd154  1  0.21151317  0.00178620  0.39285446  1
  Pd  Pd155  1  0.79815460  0.40065455  0.19653905  1
  Pd  Pd156  1  0.79287414  -0.00644982  0.80508675  1
  Pd  Pd157  1  0.79975240  0.60340520  0.39595990  1
  Pd  Pd158  1  0.80054780  0.78981720  0.21040884  1
  Pd  Pd159  1  0.20145198  0.20768233  0.40145633  1
  Pd  Pd160  1  0.79267644  0.19694924  0.40008254  1
  Pd  Pd161  1  0.40668777  0.21366778  0.18973410  1
  Pd  Pd162  1  0.80209513  0.20049608  0.19562621  1
  Pd  Pd163  1  0.59668343  0.21285113  0.61020124  1
  Pd  Pd164  1  0.39826050  -0.00317194  0.20949927  1
  Pd  Pd165  1  0.00908016  0.39212660  0.81234076  1
  Pd  Pd166  1  0.59779923  0.80464229  0.60512673  1
  Pd  Pd167  1  -0.00244847  0.58855659  0.40347781  1
  Pd  Pd168  1  -0.00962981  -0.01192792  0.59050287  1
  Pd  Pd169  1  0.80258512  0.59633349  0.00760370  1
  Pd  Pd170  1  0.20308789  -0.00011019  0.78736302  1
  Pd  Pd171  1  0.80378899  -0.00323787  0.00531485  1
  Pd  Pd172  1  0.20259375  0.60691132  0.79289069  1
  Pd  Pd173  1  0.79404363  0.78994251  0.38821664  1
  Pd  Pd174  1  -0.01147833  0.19846436  0.00022283  1
  Pd  Pd175  1  0.61192884  0.19346218  0.39710863  1
  Pd  Pd176  1  0.39367839  0.38446116  0.00625639  1
  Pd  Pd177  1  0.20436138  0.79570907  0.41140393  1
  Pd  Pd178  1  -0.00185645  0.58908024  0.58549716  1
  Pd  Pd179  1  0.20045010  0.79199613  0.59128671  1
  Pd  Pd180  1  -0.00350726  0.20530806  0.60593381  1
  Pd  Pd181  1  0.00463171  0.80690571  0.21190563  1
  Pd  Pd182  1  0.00597514  0.59342006  0.20724498  1
  Pd  Pd183  1  0.59395271  0.80674987  0.39820269  1
  Pd  Pd184  1  0.60209697  -0.00233932  0.79460015  1
  Pd  Pd185  1  0.79833345  0.38731655  0.80642147  1
  Pd  Pd186  1  0.59404856  0.41149041  0.40410711  1
  Pd  Pd187  1  0.80016034  0.00179482  0.59177596  1
  Pd  Pd188  1  0.18939851  0.19424423  0.78851240  1
  Pd  Pd189  1  0.80000806  0.79778382  0.60144993  1
  Pd  Pd190  1  -0.00360402  0.79541076  0.80686561  1
  Pd  Pd191  1  0.60548632  0.79867073  0.78744166  1
  Pd  Pd192  1  0.39391643  0.39850692  0.19014665  1
  Pd  Pd193  1  0.19551465  0.39505061  -0.00745573  1
  Pd  Pd194  1  0.59367595  0.59677302  0.39504650  1
  Pd  Pd195  1  0.80730100  0.80083187  -0.00588321  1
  Pd  Pd196  1  0.40123959  0.79138037  0.19708251  1
  Pd  Pd197  1  -0.00017142  0.81250737  0.58945445  1
  Pd  Pd198  1  0.19074397  0.39999518  0.81155738  1
  Pd  Pd199  1  0.80597930  0.60867979  0.20881328  1
  Rh  Rh200  1  0.41767546  0.60701510  -0.00544738  1
  Rh  Rh201  1  0.39195359  0.21189947  0.60069181  1
  Rh  Rh202  1  0.19078629  0.19432581  0.21045888  1
  Rh  Rh203  1  0.59536174  0.79753768  0.00759929  1
  Rh  Rh204  1  -0.00368603  0.40507186  0.59126925  1
  Rh  Rh205  1  0.80501111  0.61377882  0.78394055  1
  Rh  Rh206  1  0.59600160  0.40046013  0.78706303  1
  Rh  Rh207  1  0.20537647  0.39321448  0.39543262  1
  Rh  Rh208  1  0.20782073  0.40911530  0.20375784  1
  Rh  Rh209  1  0.20356564  0.39996400  0.59836485  1
  Rh  Rh210  1  0.20913960  0.79914371  -0.01352705  1
  Rh  Rh211  1  0.61181100  0.59582496  0.59890658  1
  Rh  Rh212  1  0.40396661  0.60189102  0.39142355  1
  Rh  Rh213  1  0.19531038  -0.00739879  0.00680224  1
  Rh  Rh214  1  0.21519888  0.20882225  -0.00772949  1
  Rh  Rh215  1  0.40367316  0.41008892  0.79394401  1
  Rh  Rh216  1  0.40730784  -0.00057887  0.00318805  1
  Rh  Rh217  1  0.40365062  0.80029063  0.60151640  1
  Rh  Rh218  1  0.00383217  0.60965378  0.80324734  1
  Rh  Rh219  1  0.59931171  -0.00649288  0.59933407  1
  Rh  Rh220  1  0.19621604  0.79632521  0.21146767  1
  Rh  Rh221  1  0.59916986  -0.00041911  0.21141566  1
  Rh  Rh222  1  -0.00167972  0.39889445  0.40078661  1
  Rh  Rh223  1  -0.00052676  -0.00371692  0.40434219  1
  Rh  Rh224  1  0.00010491  0.20869926  0.39409777  1
  Rh  Rh225  1  0.20795168  0.00710936  0.60450306  1
  Rh  Rh226  1  0.41329861  0.19226697  0.80866902  1
  Rh  Rh227  1  -0.00556607  0.80311881  -0.00568384  1
  Rh  Rh228  1  0.60380940  0.80058935  0.20097186  1
  Rh  Rh229  1  0.59705537  0.19805492  -0.00686384  1
  Rh  Rh230  1  0.39814769  0.20053957  0.39869188  1
  Rh  Rh231  1  0.00003373  0.59287556  0.00448002  1
  Rh  Rh232  1  0.79500058  0.40241703  0.39413294  1
  Rh  Rh233  1  0.20005515  0.60500337  0.40488107  1
  Rh  Rh234  1  0.39969857  0.00119447  0.79409887  1
  Rh  Rh235  1  -0.00390090  0.39472737  0.19851048  1
  Rh  Rh236  1  0.18791707  0.59662002  0.00979395  1
  Rh  Rh237  1  0.80697014  0.19991667  0.60719289  1
  Rh  Rh238  1  0.39987992  -0.00537964  0.59922720  1
  Rh  Rh239  1  0.58947973  0.59220891  0.19276644  1
  Rh  Rh240  1  -0.00091861  0.81066241  0.40491469  1
  Rh  Rh241  1  0.61103234  0.40924642  0.00658397  1
  Rh  Rh242  1  0.80657869  0.00015296  0.19484519  1
  Rh  Rh243  1  0.78727465  0.01059067  0.40963932  1
  Rh  Rh244  1  0.38411686  0.59576088  0.60581639  1
  Rh  Rh245  1  0.00136971  -0.00304835  0.80641006  1
  Rh  Rh246  1  0.40570278  0.80867155  0.40521700  1
  Rh  Rh247  1  0.60004743  0.40143968  0.20233259  1
  Rh  Rh248  1  0.79249331  0.41252594  0.59180815  1
  Rh  Rh249  1  0.59615006  -0.00583790  0.00821061  1
