# generated using pymatgen
data_ZrScNbPdRh
_symmetry_space_group_name_H-M   'P 1'
_cell_length_a   16.55220091
_cell_length_b   16.55384874
_cell_length_c   16.55351415
_cell_angle_alpha   90.00101176
_cell_angle_beta   90.02327790
_cell_angle_gamma   90.01662651
_symmetry_Int_Tables_number   1
_chemical_formula_structural   ZrScNbPdRh
_chemical_formula_sum   'Zr50 Sc50 Nb50 Pd50 Rh50'
_cell_volume   4535.70585041
_cell_formula_units_Z   50
loop_
 _symmetry_equiv_pos_site_id
 _symmetry_equiv_pos_as_xyz
  1  'x, y, z'
loop_
 _atom_site_type_symbol
 _atom_site_label
 _atom_site_symmetry_multiplicity
 _atom_site_fract_x
 _atom_site_fract_y
 _atom_site_fract_z
 _atom_site_occupancy
  Zr  Zr0  1  0.49882684  0.30163884  0.50190960  1
  Zr  Zr1  1  0.09911350  0.69635167  0.09401615  1
  Zr  Zr2  1  0.09993337  0.10925455  0.50948750  1
  Zr  Zr3  1  0.09990833  0.10079423  0.29259574  1
  Zr  Zr4  1  0.29942814  0.69969113  0.09963835  1
  Zr  Zr5  1  0.50365262  0.50061672  0.91065939  1
  Zr  Zr6  1  0.29920584  0.08967900  0.90279906  1
  Zr  Zr7  1  0.50009927  0.50361226  0.10114540  1
  Zr  Zr8  1  0.10139802  0.49510306  0.09865696  1
  Zr  Zr9  1  0.69170819  0.30854620  0.50930455  1
  Zr  Zr10  1  0.50487916  0.49413273  0.50307182  1
  Zr  Zr11  1  0.09481090  0.70351988  0.29130015  1
  Zr  Zr12  1  0.49974677  0.10507725  0.50856138  1
  Zr  Zr13  1  0.90420069  0.49295523  0.10351438  1
  Zr  Zr14  1  0.70308423  0.70223924  0.09462877  1
  Zr  Zr15  1  0.09229958  0.70353066  0.70580446  1
  Zr  Zr16  1  0.50755474  0.69168348  0.10030887  1
  Zr  Zr17  1  0.30532235  0.49784367  0.10164712  1
  Zr  Zr18  1  0.50287693  0.89718570  0.30155782  1
  Zr  Zr19  1  0.09662750  0.90254720  0.50111392  1
  Zr  Zr20  1  0.90597381  0.70512759  0.10058061  1
  Zr  Zr21  1  0.09522791  0.29910905  0.89919996  1
  Zr  Zr22  1  0.70517778  0.90196155  0.09959816  1
  Zr  Zr23  1  0.10486379  0.30532176  0.50596226  1
  Zr  Zr24  1  0.90087610  0.50155631  0.30008618  1
  Zr  Zr25  1  0.30054714  0.29913926  0.49657027  1
  Zr  Zr26  1  0.90068994  0.30548890  0.28862642  1
  Zr  Zr27  1  0.70057856  0.89900452  0.30656330  1
  Zr  Zr28  1  0.09314788  0.50596473  0.90134335  1
  Zr  Zr29  1  0.28985309  0.08734247  0.09433237  1
  Zr  Zr30  1  0.70576967  0.49511928  0.90507782  1
  Zr  Zr31  1  0.90378091  0.09853629  0.71351345  1
  Zr  Zr32  1  0.09953486  0.89614810  0.29284969  1
  Zr  Zr33  1  0.90808812  0.29987920  0.50807439  1
  Zr  Zr34  1  0.69811958  0.50170720  0.50490462  1
  Zr  Zr35  1  0.69588358  0.10252278  0.11166763  1
  Zr  Zr36  1  0.50153819  0.29125062  0.69934530  1
  Zr  Zr37  1  0.70418106  0.49289736  0.30246636  1
  Zr  Zr38  1  0.49650501  0.30107420  0.30548893  1
  Zr  Zr39  1  0.69647033  0.70255223  0.29579407  1
  Zr  Zr40  1  0.49244255  0.49731315  0.30133479  1
  Zr  Zr41  1  0.49466701  0.69160056  0.50029882  1
  Zr  Zr42  1  0.30578055  0.09804949  0.69340451  1
  Zr  Zr43  1  0.29948672  0.10278098  0.30322970  1
  Zr  Zr44  1  0.89407948  0.09895591  0.49663604  1
  Zr  Zr45  1  0.50063532  0.29806878  0.89782529  1
  Zr  Zr46  1  0.29492329  0.49665852  0.70373255  1
  Zr  Zr47  1  0.90646608  0.70025186  0.90016025  1
  Zr  Zr48  1  0.89474430  0.30048716  0.88772393  1
  Zr  Zr49  1  0.89980630  0.09539459  0.09694669  1
  Sc  Sc50  1  0.29534511  0.88278952  0.29709503  1
  Sc  Sc51  1  0.51321775  0.09988291  0.29364077  1
  Sc  Sc52  1  0.09201273  0.30105039  0.69177385  1
  Sc  Sc53  1  0.69615231  0.50277583  0.09071169  1
  Sc  Sc54  1  0.10669494  0.89727576  0.09621396  1
  Sc  Sc55  1  0.09787184  0.49691487  0.29699095  1
  Sc  Sc56  1  0.70220027  0.70425025  0.50631922  1
  Sc  Sc57  1  0.89107183  0.50659848  0.50524858  1
  Sc  Sc58  1  0.49281668  0.70021898  0.29927085  1
  Sc  Sc59  1  0.29915098  0.50112400  0.90110777  1
  Sc  Sc60  1  0.50133750  0.08967404  0.89623725  1
  Sc  Sc61  1  0.49754870  0.30664586  0.10081320  1
  Sc  Sc62  1  0.50244562  0.51249698  0.70100877  1
  Sc  Sc63  1  0.50731923  0.08888505  0.09908849  1
  Sc  Sc64  1  0.69910662  0.09040896  0.70033184  1
  Sc  Sc65  1  0.89433233  0.90127821  0.50164302  1
  Sc  Sc66  1  0.29238193  0.70518717  0.89928602  1
  Sc  Sc67  1  0.09628013  0.09300377  0.90383944  1
  Sc  Sc68  1  0.30452923  0.89441881  0.90040735  1
  Sc  Sc69  1  0.70457165  0.09595575  0.30212523  1
  Sc  Sc70  1  0.29852960  0.50218076  0.50308030  1
  Sc  Sc71  1  0.69703129  0.09692282  0.89322596  1
  Sc  Sc72  1  0.09895070  0.70106192  0.89881393  1
  Sc  Sc73  1  0.10152285  0.50326815  0.69315742  1
  Sc  Sc74  1  0.29999081  0.31019830  0.30293072  1
  Sc  Sc75  1  0.89916401  0.49832785  0.89635963  1
  Sc  Sc76  1  0.08741288  0.90031632  0.69586854  1
  Sc  Sc77  1  0.50888681  0.89579057  0.50134123  1
  Sc  Sc78  1  0.50782366  0.89701693  0.70251667  1
  Sc  Sc79  1  0.89540481  0.11279569  0.29922281  1
  Sc  Sc80  1  0.30283622  0.30733776  0.89576974  1
  Sc  Sc81  1  0.69962935  0.51180759  0.69574709  1
  Sc  Sc82  1  0.70642656  0.70106923  0.89746797  1
  Sc  Sc83  1  0.69699474  0.29439229  0.70544404  1
  Sc  Sc84  1  0.29439450  0.30963193  0.09597519  1
  Sc  Sc85  1  0.08897202  0.69824430  0.50355447  1
  Sc  Sc86  1  0.89953618  0.50253263  0.70004713  1
  Sc  Sc87  1  0.29871357  0.69458441  0.70860003  1
  Sc  Sc88  1  0.30020996  0.10605029  0.50533346  1
  Sc  Sc89  1  0.50136076  0.70581406  0.89527731  1
  Sc  Sc90  1  0.70432689  0.90516862  0.50246243  1
  Sc  Sc91  1  0.89498586  0.89337037  0.30117797  1
  Sc  Sc92  1  0.50473316  0.89853397  0.09275507  1
  Sc  Sc93  1  0.50325729  0.10038840  0.70309134  1
  Sc  Sc94  1  0.70159473  0.89652493  0.89995849  1
  Sc  Sc95  1  0.10195298  0.30372750  0.29811422  1
  Sc  Sc96  1  0.29580176  0.89644830  0.09300963  1
  Sc  Sc97  1  0.70608296  0.29299370  0.29140680  1
  Sc  Sc98  1  0.50938172  0.70171684  0.70054134  1
  Sc  Sc99  1  0.90480034  0.70167641  0.30433000  1
  Nb  Nb100  1  0.88656808  0.90480979  0.70366169  1
  Nb  Nb101  1  0.90427766  0.91699722  0.90723912  1
  Nb  Nb102  1  0.90130335  0.10014858  0.90308697  1
  Nb  Nb103  1  0.69909783  0.30409991  0.90596452  1
  Nb  Nb104  1  0.30361192  0.70543208  0.48967103  1
  Nb  Nb105  1  0.10138448  0.09690231  0.09673913  1
  Nb  Nb106  1  0.70270236  0.30320109  0.09688136  1
  Nb  Nb107  1  0.29924786  0.69734858  0.30799856  1
  Nb  Nb108  1  0.10195621  0.49560278  0.50241527  1
  Nb  Nb109  1  0.90284963  0.29528153  0.69985956  1
  Nb  Nb110  1  0.70798101  0.88871255  0.69944900  1
  Nb  Nb111  1  0.89603571  0.69635761  0.50156442  1
  Nb  Nb112  1  0.09390350  0.29707172  0.10020467  1
  Nb  Nb113  1  0.30105626  0.30081145  0.70263435  1
  Nb  Nb114  1  0.29583311  0.89725752  0.69526681  1
  Nb  Nb115  1  0.29641280  0.49879753  0.30003576  1
  Nb  Nb116  1  0.10434751  0.10296086  0.70066974  1
  Nb  Nb117  1  0.70033114  0.71564806  0.70254761  1
  Nb  Nb118  1  0.89439752  0.70344880  0.69783664  1
  Nb  Nb119  1  0.89790811  0.29719441  0.10301599  1
  Nb  Nb120  1  0.50186271  0.90326064  0.90334926  1
  Nb  Nb121  1  0.10294684  0.89388826  0.89249425  1
  Nb  Nb122  1  0.89908402  0.90292897  0.09098737  1
  Nb  Nb123  1  0.70458757  0.10093787  0.50033567  1
  Nb  Nb124  1  0.30058202  0.89903458  0.49757909  1
  Nb  Nb125  1  0.20040240  0.60240043  0.39788630  1
  Nb  Nb126  1  0.19866968  -0.00230547  0.79217870  1
  Nb  Nb127  1  0.80304777  0.19822869  0.60298886  1
  Nb  Nb128  1  0.19916499  0.19510458  0.79568874  1
  Nb  Nb129  1  -0.00133643  -0.00058802  0.19541229  1
  Nb  Nb130  1  0.60145750  0.40037970  0.19770508  1
  Nb  Nb131  1  0.40045132  0.19456582  0.00399234  1
  Nb  Nb132  1  0.20004461  -0.00232355  0.40234338  1
  Nb  Nb133  1  0.39454766  0.19464028  0.19292100  1
  Nb  Nb134  1  0.80078605  0.60061464  0.19838375  1
  Nb  Nb135  1  0.60375795  0.20168851  0.40730529  1
  Nb  Nb136  1  0.39730538  -0.00299787  0.39926552  1
  Nb  Nb137  1  0.19968102  0.19961727  0.19069817  1
  Nb  Nb138  1  0.20570639  0.79950162  0.59765087  1
  Nb  Nb139  1  0.79996921  0.20258525  -0.00119682  1
  Nb  Nb140  1  0.60022300  0.59501401  0.39973378  1
  Nb  Nb141  1  0.39604874  -0.00096002  0.20399773  1
  Nb  Nb142  1  0.00366510  0.00372326  0.39523578  1
  Nb  Nb143  1  0.60193069  0.40069466  0.80644140  1
  Nb  Nb144  1  0.00021507  0.40311749  0.40712243  1
  Nb  Nb145  1  0.20498373  0.59969738  0.20486573  1
  Nb  Nb146  1  0.39151120  0.79964493  0.59744437  1
  Nb  Nb147  1  -0.00548877  0.19897749  0.00193303  1
  Nb  Nb148  1  0.39856563  0.39728285  0.60626691  1
  Nb  Nb149  1  0.60284173  0.20396076  0.00105658  1
  Pd  Pd150  1  0.59755490  0.80397780  0.19515858  1
  Pd  Pd151  1  0.00488664  0.80787951  -0.00302601  1
  Pd  Pd152  1  0.80914973  0.80577348  0.81120309  1
  Pd  Pd153  1  -0.00718017  0.39333723  -0.00322755  1
  Pd  Pd154  1  0.60424461  -0.00354545  0.60355137  1
  Pd  Pd155  1  0.80102319  0.60288941  0.79581255  1
  Pd  Pd156  1  0.59929338  0.78988163  0.40704037  1
  Pd  Pd157  1  0.19983906  0.20504995  -0.00401097  1
  Pd  Pd158  1  0.41021121  0.40881625  0.79513794  1
  Pd  Pd159  1  0.80664053  0.39110522  0.40497115  1
  Pd  Pd160  1  0.19482545  0.60048941  0.80391769  1
  Pd  Pd161  1  0.00481308  0.20527044  0.39673707  1
  Pd  Pd162  1  0.79197350  0.19596811  0.79959012  1
  Pd  Pd163  1  0.80459647  0.79652964  0.19970298  1
  Pd  Pd164  1  0.18893252  0.39522671  0.79774072  1
  Pd  Pd165  1  0.19853208  -0.00454396  0.59937496  1
  Pd  Pd166  1  0.39746128  -0.00980347  0.79618344  1
  Pd  Pd167  1  0.80097966  0.39493550  0.61086590  1
  Pd  Pd168  1  0.40335024  0.79692233  0.00188935  1
  Pd  Pd169  1  0.80766932  -0.00012721  0.20859598  1
  Pd  Pd170  1  0.59723802  0.00855740  0.40488591  1
  Pd  Pd171  1  -0.00511984  0.59754015  0.60252068  1
  Pd  Pd172  1  0.39399909  0.19340634  0.80789687  1
  Pd  Pd173  1  0.19010942  0.79682510  0.40627112  1
  Pd  Pd174  1  0.39500943  0.60355688  0.20473346  1
  Pd  Pd175  1  0.60487561  -0.00955019  0.79812618  1
  Pd  Pd176  1  0.80768249  0.59902387  0.00451832  1
  Pd  Pd177  1  0.00413296  0.40573005  0.78958089  1
  Pd  Pd178  1  0.80461738  0.80038527  0.59440415  1
  Pd  Pd179  1  0.00661026  0.59373899  0.40384945  1
  Pd  Pd180  1  -0.01201027  0.80749854  0.79990220  1
  Pd  Pd181  1  -0.00651775  0.80477291  0.40483712  1
  Pd  Pd182  1  0.39199560  0.60127124  0.60387113  1
  Pd  Pd183  1  0.19971639  0.40173185  -0.00489338  1
  Pd  Pd184  1  -0.00840430  0.80105444  0.60114574  1
  Pd  Pd185  1  0.79251954  0.21154574  0.40748610  1
  Pd  Pd186  1  0.20333590  0.61130381  0.59271358  1
  Pd  Pd187  1  0.79193983  0.40282079  0.78894837  1
  Pd  Pd188  1  0.19386319  0.20061032  0.39380894  1
  Pd  Pd189  1  0.40791526  -0.00930356  0.59545938  1
  Pd  Pd190  1  0.79402517  0.60845199  0.39665783  1
  Pd  Pd191  1  0.60184013  0.79826232  -0.00668649  1
  Pd  Pd192  1  0.00656006  -0.00316108  0.80138539  1
  Pd  Pd193  1  0.39662136  0.60742634  -0.00977694  1
  Pd  Pd194  1  0.40045014  0.60111541  0.80563902  1
  Pd  Pd195  1  0.40299908  0.80224022  0.79278671  1
  Pd  Pd196  1  0.78874508  0.00695432  -0.00591202  1
  Pd  Pd197  1  0.60684414  0.59965158  0.80582982  1
  Pd  Pd198  1  -0.00908720  0.00466078  0.59853829  1
  Pd  Pd199  1  0.40120875  0.80348000  0.19339720  1
  Rh  Rh200  1  0.00874706  -0.00274173  0.00269394  1
  Rh  Rh201  1  0.41363789  0.18590343  0.39229356  1
  Rh  Rh202  1  0.40206283  0.39422873  0.20066321  1
  Rh  Rh203  1  0.60434309  0.00287189  -0.00336699  1
  Rh  Rh204  1  -0.00394674  0.59724725  -0.00080813  1
  Rh  Rh205  1  0.80053772  0.00555728  0.60632864  1
  Rh  Rh206  1  0.39387819  0.20699255  0.60236865  1
  Rh  Rh207  1  0.19531115  0.40861056  0.40137318  1
  Rh  Rh208  1  -0.00325997  0.60039719  0.79487034  1
  Rh  Rh209  1  0.20211265  0.78946783  0.19476584  1
  Rh  Rh210  1  0.80542578  -0.00266226  0.39544123  1
  Rh  Rh211  1  0.19649256  0.80575047  0.79189243  1
  Rh  Rh212  1  0.00617793  0.39865828  0.20422782  1
  Rh  Rh213  1  0.60110069  -0.01318017  0.20080869  1
  Rh  Rh214  1  0.60933970  0.59018520  0.20998988  1
  Rh  Rh215  1  0.60303093  0.20229713  0.80648285  1
  Rh  Rh216  1  0.19219699  -0.01390684  -0.01379996  1
  Rh  Rh217  1  0.80963837  0.39585160  0.00323376  1
  Rh  Rh218  1  0.20792947  0.39654380  0.60280573  1
  Rh  Rh219  1  0.60630069  0.39476045  0.38845710  1
  Rh  Rh220  1  0.60307609  0.60987260  -0.00946021  1
  Rh  Rh221  1  0.39889933  0.59223443  0.39954726  1
  Rh  Rh222  1  0.79874881  0.61084004  0.60699497  1
  Rh  Rh223  1  0.20201648  0.59764867  0.00304791  1
  Rh  Rh224  1  0.80029432  0.19801044  0.19380135  1
  Rh  Rh225  1  0.79071563  0.40826671  0.18858722  1
  Rh  Rh226  1  0.00861963  0.19852217  0.80395651  1
  Rh  Rh227  1  0.80122983  0.79606159  0.40636954  1
  Rh  Rh228  1  -0.00598215  0.81230242  0.19042595  1
  Rh  Rh229  1  0.39804571  0.39586518  -0.00018406  1
  Rh  Rh230  1  0.40801074  0.80730671  0.40521292  1
  Rh  Rh231  1  0.00599794  0.19567354  0.19180267  1
  Rh  Rh232  1  0.20531879  0.20837430  0.60920575  1
  Rh  Rh233  1  0.20026833  0.00040238  0.20603305  1
  Rh  Rh234  1  0.40583297  -0.00212674  0.00585166  1
  Rh  Rh235  1  0.59691041  0.79876014  0.60081751  1
  Rh  Rh236  1  0.19674368  0.39922790  0.19741740  1
  Rh  Rh237  1  0.60170112  0.80426293  0.80328264  1
  Rh  Rh238  1  0.19670469  0.79952774  -0.00486279  1
  Rh  Rh239  1  -0.00016466  0.59823317  0.19721580  1
  Rh  Rh240  1  0.59143683  0.40506472  0.62024420  1
  Rh  Rh241  1  0.61168878  0.19095170  0.59860008  1
  Rh  Rh242  1  0.39168111  0.40887177  0.41069386  1
  Rh  Rh243  1  0.80812649  0.80418006  -0.00600896  1
  Rh  Rh244  1  0.59523902  0.39475814  0.00250355  1
  Rh  Rh245  1  0.59293193  0.21233976  0.19916212  1
  Rh  Rh246  1  -0.00461155  0.40986433  0.59811352  1
  Rh  Rh247  1  -0.00761217  0.19109618  0.60826764  1
  Rh  Rh248  1  0.60706114  0.60996694  0.59627078  1
  Rh  Rh249  1  0.79746912  -0.00522184  0.80363222  1
