# generated using pymatgen
data_ZrScNbPdRh
_symmetry_space_group_name_H-M   'P 1'
_cell_length_a   16.55415316
_cell_length_b   16.55920945
_cell_length_c   16.55771006
_cell_angle_alpha   89.99273694
_cell_angle_beta   89.99874827
_cell_angle_gamma   90.00390781
_symmetry_Int_Tables_number   1
_chemical_formula_structural   ZrScNbPdRh
_chemical_formula_sum   'Zr50 Sc50 Nb50 Pd50 Rh50'
_cell_volume   4538.86052228
_cell_formula_units_Z   50
loop_
 _symmetry_equiv_pos_site_id
 _symmetry_equiv_pos_as_xyz
  1  'x, y, z'
loop_
 _atom_site_type_symbol
 _atom_site_label
 _atom_site_symmetry_multiplicity
 _atom_site_fract_x
 _atom_site_fract_y
 _atom_site_fract_z
 _atom_site_occupancy
  Zr  Zr0  1  0.70409226  0.30470820  0.89718363  1
  Zr  Zr1  1  0.69717127  0.49354418  0.09308501  1
  Zr  Zr2  1  0.29814601  0.70656324  0.89592775  1
  Zr  Zr3  1  0.70620884  0.30004894  0.30651857  1
  Zr  Zr4  1  0.09620642  0.70561350  0.30049842  1
  Zr  Zr5  1  0.10408662  0.49197468  0.89615069  1
  Zr  Zr6  1  0.10266601  0.09986267  0.50154717  1
  Zr  Zr7  1  0.50098953  0.71585938  0.90087955  1
  Zr  Zr8  1  0.89647175  0.70360357  0.69985344  1
  Zr  Zr9  1  0.30582381  0.90279611  0.90368479  1
  Zr  Zr10  1  0.10379208  0.09816579  0.69981437  1
  Zr  Zr11  1  0.70235249  0.70082756  0.50153366  1
  Zr  Zr12  1  0.69947929  0.10746017  0.69432116  1
  Zr  Zr13  1  0.49633940  0.29973045  0.29454055  1
  Zr  Zr14  1  0.90388290  0.09598150  0.50447253  1
  Zr  Zr15  1  0.10447077  0.70341189  0.49187775  1
  Zr  Zr16  1  0.49295215  0.09468442  0.30395449  1
  Zr  Zr17  1  0.90585534  0.29871541  0.89629117  1
  Zr  Zr18  1  0.69356794  0.48955042  0.69614580  1
  Zr  Zr19  1  0.90221086  0.89856766  0.70295176  1
  Zr  Zr20  1  0.49596598  0.50008276  0.10382781  1
  Zr  Zr21  1  0.89182854  0.29265673  0.70283677  1
  Zr  Zr22  1  0.70594953  0.71238211  0.09355005  1
  Zr  Zr23  1  0.10023465  0.49289055  0.29854358  1
  Zr  Zr24  1  0.70854563  0.70369628  0.70851477  1
  Zr  Zr25  1  0.10240666  0.09423125  0.30383166  1
  Zr  Zr26  1  0.09868550  0.30096955  0.71119902  1
  Zr  Zr27  1  0.09797515  0.50041401  0.09519476  1
  Zr  Zr28  1  0.09751723  0.90039836  0.70163516  1
  Zr  Zr29  1  0.69629989  0.29728705  0.50872711  1
  Zr  Zr30  1  0.50122859  0.30692415  0.70380723  1
  Zr  Zr31  1  0.50475787  0.08774718  0.50865233  1
  Zr  Zr32  1  0.50081702  0.30943801  0.09584781  1
  Zr  Zr33  1  0.09324468  0.69711213  0.10947769  1
  Zr  Zr34  1  0.90130297  0.09140885  0.10029393  1
  Zr  Zr35  1  0.29906468  0.49509535  0.09562100  1
  Zr  Zr36  1  0.50216821  0.90523180  0.30457746  1
  Zr  Zr37  1  0.70726984  0.50142398  0.89748441  1
  Zr  Zr38  1  0.11098263  0.29700880  0.49208398  1
  Zr  Zr39  1  0.50183148  0.69562069  0.69440627  1
  Zr  Zr40  1  0.69651767  0.49725589  0.49549184  1
  Zr  Zr41  1  0.30383206  0.29801511  0.31482328  1
  Zr  Zr42  1  0.70004478  0.90729551  0.29631426  1
  Zr  Zr43  1  0.69920991  0.89826997  0.70783451  1
  Zr  Zr44  1  0.09980631  0.90072589  0.89429928  1
  Zr  Zr45  1  0.09406269  0.70229255  0.69499428  1
  Zr  Zr46  1  0.90031037  0.30675020  0.29183732  1
  Zr  Zr47  1  0.30012411  0.09518740  0.09537992  1
  Zr  Zr48  1  0.10426888  0.29179276  0.90083987  1
  Zr  Zr49  1  0.90343222  0.50025042  0.91097594  1
  Sc  Sc50  1  0.29781306  0.29087996  0.70971952  1
  Sc  Sc51  1  0.49580935  0.30478238  0.49871219  1
  Sc  Sc52  1  0.30286834  0.69984097  0.10625622  1
  Sc  Sc53  1  0.70347791  0.90680212  0.09699433  1
  Sc  Sc54  1  0.50466948  0.48261686  0.90026201  1
  Sc  Sc55  1  0.89516352  0.50450224  0.69775227  1
  Sc  Sc56  1  0.30077000  0.90228045  0.50475410  1
  Sc  Sc57  1  0.50376805  0.50313297  0.51686191  1
  Sc  Sc58  1  0.30266236  0.49751541  0.29334419  1
  Sc  Sc59  1  0.30238461  0.49218025  0.49519558  1
  Sc  Sc60  1  0.49841328  0.70704473  0.10537874  1
  Sc  Sc61  1  0.90125955  0.90601103  0.90738186  1
  Sc  Sc62  1  0.69303649  0.49528319  0.29694764  1
  Sc  Sc63  1  0.30467622  0.49920812  0.70112317  1
  Sc  Sc64  1  0.90057199  0.89851753  0.30028905  1
  Sc  Sc65  1  0.50153169  0.50065549  0.29156152  1
  Sc  Sc66  1  0.70083569  0.09500608  0.50446867  1
  Sc  Sc67  1  0.29461423  0.09924232  0.49592260  1
  Sc  Sc68  1  0.49498373  0.29547944  0.90031854  1
  Sc  Sc69  1  0.50059799  0.09840241  0.09007144  1
  Sc  Sc70  1  0.30409207  0.30010209  0.09497929  1
  Sc  Sc71  1  0.70132600  0.30298172  0.09969447  1
  Sc  Sc72  1  0.90194859  0.70522078  0.50519009  1
  Sc  Sc73  1  0.08757120  0.90663543  0.10645291  1
  Sc  Sc74  1  0.89345587  0.89983594  0.49895813  1
  Sc  Sc75  1  0.09883578  0.30110662  0.30114650  1
  Sc  Sc76  1  0.10338679  0.29915788  0.09920024  1
  Sc  Sc77  1  0.28850198  0.70453681  0.29962366  1
  Sc  Sc78  1  0.50152829  0.69817282  0.28863030  1
  Sc  Sc79  1  0.50572591  0.90701613  0.89551983  1
  Sc  Sc80  1  0.30052485  0.09844802  0.70312622  1
  Sc  Sc81  1  0.10372753  0.69260932  0.89482064  1
  Sc  Sc82  1  0.29766891  0.89986573  0.70240942  1
  Sc  Sc83  1  0.89660974  0.10371687  0.29814842  1
  Sc  Sc84  1  0.30371325  0.90169465  0.09981651  1
  Sc  Sc85  1  0.89801537  0.09940728  0.70008211  1
  Sc  Sc86  1  0.69608711  0.70675969  0.29256199  1
  Sc  Sc87  1  0.29878187  0.29805947  0.90204457  1
  Sc  Sc88  1  0.49844040  0.09660675  0.89877590  1
  Sc  Sc89  1  0.09793482  0.89470142  0.30307384  1
  Sc  Sc90  1  0.09622659  0.09861275  0.09794544  1
  Sc  Sc91  1  0.30081415  0.70412049  0.69551869  1
  Sc  Sc92  1  0.89465700  0.90022618  0.10180163  1
  Sc  Sc93  1  0.49670781  0.89734355  0.09347344  1
  Sc  Sc94  1  0.89187915  0.30020650  0.48678928  1
  Sc  Sc95  1  0.49581401  0.91497415  0.69936427  1
  Sc  Sc96  1  0.89745470  0.50137768  0.50192479  1
  Sc  Sc97  1  0.09949010  0.90292173  0.49474475  1
  Sc  Sc98  1  0.50234893  0.69127592  0.50906699  1
  Sc  Sc99  1  0.29783801  0.90853877  0.30389127  1
  Nb  Nb100  1  0.89601238  0.10198990  0.90630861  1
  Nb  Nb101  1  0.90230255  0.49835729  0.29706713  1
  Nb  Nb102  1  0.09776084  0.50014688  0.50199067  1
  Nb  Nb103  1  0.50270087  0.10648117  0.69968052  1
  Nb  Nb104  1  0.50199195  0.50425543  0.70345746  1
  Nb  Nb105  1  0.70169711  0.09746210  0.09917183  1
  Nb  Nb106  1  0.69606346  0.90050563  0.49915502  1
  Nb  Nb107  1  0.50176519  0.90431018  0.50017625  1
  Nb  Nb108  1  0.69493502  0.09421718  0.90755591  1
  Nb  Nb109  1  0.69348561  0.09835373  0.29265940  1
  Nb  Nb110  1  0.90614835  0.69342098  0.09625760  1
  Nb  Nb111  1  0.09547835  0.50105741  0.69851420  1
  Nb  Nb112  1  0.30248946  0.09905448  0.29840108  1
  Nb  Nb113  1  0.29181173  0.10360372  0.90491162  1
  Nb  Nb114  1  0.69929321  0.89693831  0.89811913  1
  Nb  Nb115  1  0.90458722  0.50008459  0.10224025  1
  Nb  Nb116  1  0.09842960  0.09900673  0.90601893  1
  Nb  Nb117  1  0.30260784  0.69704316  0.49961834  1
  Nb  Nb118  1  0.29727628  0.29546973  0.50549708  1
  Nb  Nb119  1  0.90784967  0.69800614  0.29316494  1
  Nb  Nb120  1  0.29767884  0.50751203  0.90445362  1
  Nb  Nb121  1  0.70087108  0.29335957  0.70060471  1
  Nb  Nb122  1  0.89930312  0.30139652  0.10126420  1
  Nb  Nb123  1  0.70316870  0.70795093  0.89481429  1
  Nb  Nb124  1  0.88823131  0.69436253  0.90171081  1
  Nb  Nb125  1  -0.00166653  0.59844515  0.39615242  1
  Nb  Nb126  1  0.80651155  0.60121363  0.38760772  1
  Nb  Nb127  1  0.40466674  0.59962773  -0.00793076  1
  Nb  Nb128  1  0.79431667  0.00517511  0.80934836  1
  Nb  Nb129  1  0.59920831  0.60149154  0.80477777  1
  Nb  Nb130  1  0.00461639  0.20669769  0.59840949  1
  Nb  Nb131  1  -0.00190347  0.78971087  0.00031321  1
  Nb  Nb132  1  0.59898344  0.60579458  -0.00764714  1
  Nb  Nb133  1  0.80935380  0.59890508  0.19636433  1
  Nb  Nb134  1  0.80129075  0.19561088  0.00151076  1
  Nb  Nb135  1  0.40697912  0.59763077  0.80550866  1
  Nb  Nb136  1  0.59910976  0.19446585  0.39507763  1
  Nb  Nb137  1  0.00484490  0.39605326  0.60031312  1
  Nb  Nb138  1  0.19231368  0.80113399  0.00176529  1
  Nb  Nb139  1  0.19593208  0.59552971  0.59471424  1
  Nb  Nb140  1  0.59593325  0.80486728  0.40611312  1
  Nb  Nb141  1  0.60113095  0.80650520  0.59724489  1
  Nb  Nb142  1  -0.00296972  0.59915325  0.79983831  1
  Nb  Nb143  1  0.60281873  0.19485304  0.20064680  1
  Nb  Nb144  1  0.20859624  0.19320220  0.20504185  1
  Nb  Nb145  1  0.40070662  0.19948926  0.60133159  1
  Nb  Nb146  1  0.40487499  0.79630599  0.40709172  1
  Nb  Nb147  1  0.60470143  0.19947989  0.79701957  1
  Nb  Nb148  1  0.19460698  0.40017139  0.60077275  1
  Nb  Nb149  1  0.39948182  0.60688064  0.40232528  1
  Pd  Pd150  1  0.39273215  0.40365068  0.80484669  1
  Pd  Pd151  1  0.40609675  0.80441562  0.59776326  1
  Pd  Pd152  1  0.00286454  0.39244365  0.00461961  1
  Pd  Pd153  1  -0.00465873  0.40369772  0.40567612  1
  Pd  Pd154  1  0.19289616  -0.00750726  0.00459270  1
  Pd  Pd155  1  0.20367936  0.60908399  0.00519081  1
  Pd  Pd156  1  0.20917235  0.40259139  0.79796360  1
  Pd  Pd157  1  0.39233983  0.39588534  0.60471551  1
  Pd  Pd158  1  0.79318559  0.60103420  0.00700656  1
  Pd  Pd159  1  0.79232298  0.18899397  0.40350504  1
  Pd  Pd160  1  0.40466163  -0.00348318  0.19483139  1
  Pd  Pd161  1  0.60153381  0.80597566  0.00239279  1
  Pd  Pd162  1  0.00038299  0.80942334  0.59055941  1
  Pd  Pd163  1  0.80682220  0.40538316  0.79723662  1
  Pd  Pd164  1  0.20187623  0.59765283  0.20075910  1
  Pd  Pd165  1  0.80624564  0.39642452  0.59666659  1
  Pd  Pd166  1  -0.00346800  0.20058752  0.00644873  1
  Pd  Pd167  1  -0.00775460  0.00895928  0.80470397  1
  Pd  Pd168  1  0.19916065  0.79934767  0.59661069  1
  Pd  Pd169  1  0.20523564  0.38655058  0.20067584  1
  Pd  Pd170  1  0.20453018  0.00295535  0.80257197  1
  Pd  Pd171  1  0.19868083  0.81117434  0.19447119  1
  Pd  Pd172  1  0.59135621  0.39737947  0.40062178  1
  Pd  Pd173  1  0.00841295  0.20010897  0.19939375  1
  Pd  Pd174  1  0.40497319  0.80239793  0.78961696  1
  Pd  Pd175  1  0.59185574  0.00078813  0.18740470  1
  Pd  Pd176  1  0.60498469  0.20490275  -0.00071549  1
  Pd  Pd177  1  0.79611523  0.19867571  0.19178766  1
  Pd  Pd178  1  0.79631815  0.59752923  0.59488499  1
  Pd  Pd179  1  0.00075874  0.18858961  0.79674529  1
  Pd  Pd180  1  -0.00284914  -0.00433935  0.39679547  1
  Pd  Pd181  1  -0.00671106  0.78982336  0.81228155  1
  Pd  Pd182  1  0.20332438  -0.00303351  0.59933024  1
  Pd  Pd183  1  0.39601556  0.80427467  0.21087699  1
  Pd  Pd184  1  0.79854464  0.00573577  0.39675914  1
  Pd  Pd185  1  0.39654245  0.00667094  0.80185936  1
  Pd  Pd186  1  0.79799390  0.79430674  0.39459091  1
  Pd  Pd187  1  0.40086958  0.19994653  0.19139998  1
  Pd  Pd188  1  0.59690782  0.60775995  0.39507227  1
  Pd  Pd189  1  0.20227263  0.59146424  0.40100664  1
  Pd  Pd190  1  0.80668249  0.79762482  0.20014904  1
  Pd  Pd191  1  -0.00146037  0.20122870  0.40057624  1
  Pd  Pd192  1  0.39974387  0.19776888  -0.00260608  1
  Pd  Pd193  1  0.19657002  0.00048502  0.19804451  1
  Pd  Pd194  1  0.20250891  0.60093366  0.78727172  1
  Pd  Pd195  1  0.40565958  0.19212004  0.41364756  1
  Pd  Pd196  1  0.79687854  0.40665531  0.19801506  1
  Pd  Pd197  1  0.79828975  -0.00458606  0.60678802  1
  Pd  Pd198  1  0.40920470  0.41286488  0.40077145  1
  Pd  Pd199  1  0.61065728  0.60414523  0.18839674  1
  Rh  Rh200  1  0.79547581  0.80682727  0.59902860  1
  Rh  Rh201  1  0.00195523  0.00107101  0.59997889  1
  Rh  Rh202  1  0.20453683  0.40316792  0.40241009  1
  Rh  Rh203  1  0.59996787  0.39971295  -0.00316015  1
  Rh  Rh204  1  0.39517327  0.40477531  -0.00628236  1
  Rh  Rh205  1  0.60041671  0.81021909  0.20300565  1
  Rh  Rh206  1  0.20137999  -0.00133757  0.39999310  1
  Rh  Rh207  1  0.60649548  0.00967481  0.79788992  1
  Rh  Rh208  1  0.81043125  0.81180285  0.81109008  1
  Rh  Rh209  1  0.39437957  0.00837687  0.60222510  1
  Rh  Rh210  1  0.80287377  0.00257660  0.20373379  1
  Rh  Rh211  1  0.59295391  0.79958440  0.79011310  1
  Rh  Rh212  1  0.79874153  0.41077793  0.39776537  1
  Rh  Rh213  1  0.39243940  -0.00448055  0.40672173  1
  Rh  Rh214  1  0.60186120  0.39595865  0.80028994  1
  Rh  Rh215  1  0.80873651  0.39081167  0.00297104  1
  Rh  Rh216  1  0.59933686  -0.00629723  0.00068121  1
  Rh  Rh217  1  0.38888731  0.79551850  0.00540265  1
  Rh  Rh218  1  0.38776160  0.59285783  0.60012130  1
  Rh  Rh219  1  0.79030946  0.18968778  0.81268256  1
  Rh  Rh220  1  0.81017552  0.20260883  0.59105842  1
  Rh  Rh221  1  0.59736753  0.39513382  0.60145979  1
  Rh  Rh222  1  0.00230571  -0.00404519  -0.00247408  1
  Rh  Rh223  1  0.60813335  0.00260661  0.40128524  1
  Rh  Rh224  1  -0.00573314  0.00025070  0.20741220  1
  Rh  Rh225  1  0.20420267  0.19330987  0.39182484  1
  Rh  Rh226  1  0.00532495  0.60371542  -0.00987589  1
  Rh  Rh227  1  0.00217926  0.39803766  0.19262669  1
  Rh  Rh228  1  0.20147739  0.80421780  0.80165174  1
  Rh  Rh229  1  0.20230783  0.20538730  0.60679364  1
  Rh  Rh230  1  0.20995659  0.80827764  0.40280914  1
  Rh  Rh231  1  0.19937711  0.19104987  0.80660606  1
  Rh  Rh232  1  -0.00620457  0.79561943  0.40146230  1
  Rh  Rh233  1  0.39585737  0.60130995  0.20187909  1
  Rh  Rh234  1  0.60520275  -0.00731800  0.60816167  1
  Rh  Rh235  1  0.80711726  0.80288699  -0.00445024  1
  Rh  Rh236  1  0.00032780  0.59123377  0.20529122  1
  Rh  Rh237  1  0.00406065  0.59591847  0.59892580  1
  Rh  Rh238  1  0.20025997  0.19736071  0.00667554  1
  Rh  Rh239  1  0.61274543  0.60522088  0.61108911  1
  Rh  Rh240  1  0.20061174  0.39510641  -0.00421858  1
  Rh  Rh241  1  0.79557252  0.00156202  -0.00281864  1
  Rh  Rh242  1  0.39408573  0.39675866  0.20073480  1
  Rh  Rh243  1  0.58756187  0.20900330  0.59854337  1
  Rh  Rh244  1  0.80101932  0.59506448  0.79901186  1
  Rh  Rh245  1  -0.00937770  0.41092055  0.79418471  1
  Rh  Rh246  1  0.60342793  0.38944861  0.20282279  1
  Rh  Rh247  1  0.40465182  0.19353525  0.79894355  1
  Rh  Rh248  1  0.40115384  0.00179628  -0.00556203  1
  Rh  Rh249  1  -0.00606456  0.80539142  0.19415846  1
