# generated using pymatgen
data_ZrScNbPdRh
_symmetry_space_group_name_H-M   'P 1'
_cell_length_a   16.55659385
_cell_length_b   16.56045508
_cell_length_c   16.56300428
_cell_angle_alpha   89.99404733
_cell_angle_beta   89.97708803
_cell_angle_gamma   90.01224827
_symmetry_Int_Tables_number   1
_chemical_formula_structural   ZrScNbPdRh
_chemical_formula_sum   'Zr50 Sc50 Nb50 Pd50 Rh50'
_cell_volume   4541.32234431
_cell_formula_units_Z   50
loop_
 _symmetry_equiv_pos_site_id
 _symmetry_equiv_pos_as_xyz
  1  'x, y, z'
loop_
 _atom_site_type_symbol
 _atom_site_label
 _atom_site_symmetry_multiplicity
 _atom_site_fract_x
 _atom_site_fract_y
 _atom_site_fract_z
 _atom_site_occupancy
  Zr  Zr0  1  0.50078362  0.30383234  0.09348732  1
  Zr  Zr1  1  0.69731010  0.50309163  0.69897348  1
  Zr  Zr2  1  0.90768707  0.69615825  0.09314013  1
  Zr  Zr3  1  0.50163599  0.49453523  0.10066431  1
  Zr  Zr4  1  0.69927311  0.49978310  0.30228956  1
  Zr  Zr5  1  0.90032756  0.50731886  0.69944683  1
  Zr  Zr6  1  0.88560761  0.69944721  0.29655675  1
  Zr  Zr7  1  0.69612620  0.90029434  0.49855676  1
  Zr  Zr8  1  0.49528157  0.29833887  0.89510117  1
  Zr  Zr9  1  0.29908051  0.09314524  0.30793056  1
  Zr  Zr10  1  0.69662250  0.90137832  0.90318634  1
  Zr  Zr11  1  0.89874141  0.69810444  0.70211896  1
  Zr  Zr12  1  0.10199081  0.29996110  0.30472376  1
  Zr  Zr13  1  0.69666838  0.30026371  0.49729212  1
  Zr  Zr14  1  0.88966822  0.89177010  0.09341648  1
  Zr  Zr15  1  0.10046455  0.90401264  0.70365065  1
  Zr  Zr16  1  0.28869568  0.51472471  0.50556409  1
  Zr  Zr17  1  0.69742416  0.10048395  0.90143464  1
  Zr  Zr18  1  0.49803338  0.70334482  0.90185961  1
  Zr  Zr19  1  0.10039447  0.29351327  0.70583967  1
  Zr  Zr20  1  0.50566705  0.10701768  0.90396479  1
  Zr  Zr21  1  0.09508110  0.70879605  0.70043738  1
  Zr  Zr22  1  0.50556181  0.10186162  0.70288106  1
  Zr  Zr23  1  0.90392426  0.49872054  0.89726237  1
  Zr  Zr24  1  0.71869047  0.70719445  0.11023892  1
  Zr  Zr25  1  0.09532583  0.09799529  0.89577996  1
  Zr  Zr26  1  0.68377153  0.90701519  0.69195771  1
  Zr  Zr27  1  0.49616558  0.69545344  0.09764819  1
  Zr  Zr28  1  0.69804138  0.48611021  0.09583794  1
  Zr  Zr29  1  0.70004848  0.89863343  0.30636030  1
  Zr  Zr30  1  0.30004249  0.90214560  0.10689482  1
  Zr  Zr31  1  0.49173409  0.50630572  0.49531794  1
  Zr  Zr32  1  0.30341290  0.09934033  0.09962506  1
  Zr  Zr33  1  0.69955929  0.50050146  0.89737390  1
  Zr  Zr34  1  0.90790379  0.30162938  0.49825973  1
  Zr  Zr35  1  0.69624071  0.30423388  0.30376825  1
  Zr  Zr36  1  0.49940243  0.31331925  0.30277991  1
  Zr  Zr37  1  0.69229493  0.09669868  0.50485053  1
  Zr  Zr38  1  0.69686396  0.69089492  0.69108885  1
  Zr  Zr39  1  0.29943466  0.69526283  0.90200580  1
  Zr  Zr40  1  0.90612558  0.70506165  0.49815997  1
  Zr  Zr41  1  0.90635889  0.70152107  0.89779650  1
  Zr  Zr42  1  0.50326582  0.50646958  0.90564848  1
  Zr  Zr43  1  0.10223656  0.29594429  0.89744319  1
  Zr  Zr44  1  0.90392276  0.29861740  0.90024633  1
  Zr  Zr45  1  0.29968069  0.89900111  0.89871459  1
  Zr  Zr46  1  0.90254769  0.48602669  0.09573503  1
  Zr  Zr47  1  0.29745848  0.29924058  0.30666889  1
  Zr  Zr48  1  0.08764602  0.88973368  0.49573267  1
  Zr  Zr49  1  0.50029284  0.29631107  0.49421371  1
  Sc  Sc50  1  0.50221014  0.09680996  0.10178738  1
  Sc  Sc51  1  0.70226043  0.90407937  0.09689686  1
  Sc  Sc52  1  0.10336457  0.70203507  0.08990395  1
  Sc  Sc53  1  0.29690880  0.69663272  0.69386030  1
  Sc  Sc54  1  0.49940921  0.89714625  0.10232240  1
  Sc  Sc55  1  0.09731724  0.09809937  0.70076737  1
  Sc  Sc56  1  0.08824597  0.09955295  0.09948176  1
  Sc  Sc57  1  0.89816054  0.30224659  0.28663505  1
  Sc  Sc58  1  0.10102288  0.49413485  0.09202658  1
  Sc  Sc59  1  0.29730120  0.90054085  0.29974089  1
  Sc  Sc60  1  0.29976893  0.50559633  0.70101042  1
  Sc  Sc61  1  0.29791640  0.29742624  0.70580325  1
  Sc  Sc62  1  0.89815944  0.10323036  0.90564493  1
  Sc  Sc63  1  0.09305011  0.30242676  0.09770207  1
  Sc  Sc64  1  0.29915326  0.49827233  0.09024785  1
  Sc  Sc65  1  0.29731239  0.70877567  0.09801420  1
  Sc  Sc66  1  0.10334090  0.90001676  0.09716508  1
  Sc  Sc67  1  0.50029991  0.70145117  0.69353718  1
  Sc  Sc68  1  0.30005302  0.70969764  0.30988055  1
  Sc  Sc69  1  0.10221865  0.09809129  0.49790449  1
  Sc  Sc70  1  0.30515383  0.10560801  0.69227808  1
  Sc  Sc71  1  0.10272917  0.49617030  0.69505153  1
  Sc  Sc72  1  0.29995721  0.49402406  0.31011432  1
  Sc  Sc73  1  0.11032378  0.71244822  0.30828002  1
  Sc  Sc74  1  0.29912015  0.50035082  0.89655484  1
  Sc  Sc75  1  0.09939842  0.49493961  0.89884550  1
  Sc  Sc76  1  0.49800091  0.90469993  0.29750540  1
  Sc  Sc77  1  0.50152518  0.90249160  0.51225676  1
  Sc  Sc78  1  0.10113766  0.90555520  0.30077438  1
  Sc  Sc79  1  0.29502570  0.10908997  0.90017950  1
  Sc  Sc80  1  0.30203819  0.88993607  0.69973077  1
  Sc  Sc81  1  0.30059580  0.28501178  0.50307503  1
  Sc  Sc82  1  0.69786019  0.50638250  0.49936416  1
  Sc  Sc83  1  0.89716439  0.49244586  0.30311510  1
  Sc  Sc84  1  0.91159066  0.90087253  0.30702609  1
  Sc  Sc85  1  0.90912722  0.09649712  0.51456850  1
  Sc  Sc86  1  0.49432660  0.69892364  0.49677970  1
  Sc  Sc87  1  0.09604732  0.90349016  0.89597919  1
  Sc  Sc88  1  0.90061862  0.90193158  0.90235148  1
  Sc  Sc89  1  0.69874890  0.29232193  0.90363552  1
  Sc  Sc90  1  0.69577435  0.69720975  0.89690419  1
  Sc  Sc91  1  0.11003568  0.48788136  0.30840611  1
  Sc  Sc92  1  0.90452443  0.10197678  0.70103114  1
  Sc  Sc93  1  0.68782046  0.09718647  0.30457788  1
  Sc  Sc94  1  0.91144115  0.90506567  0.69410790  1
  Sc  Sc95  1  0.29644438  0.30206380  0.08900578  1
  Sc  Sc96  1  0.50668240  0.50632863  0.69994333  1
  Sc  Sc97  1  0.90479595  0.28769362  0.70112527  1
  Sc  Sc98  1  0.10305753  0.30672985  0.50417698  1
  Sc  Sc99  1  0.49926622  0.09713785  0.30740916  1
  Nb  Nb100  1  0.49933026  0.69201151  0.30087517  1
  Nb  Nb101  1  0.90954781  0.09973532  0.29415762  1
  Nb  Nb102  1  0.70069293  0.29884093  0.69917541  1
  Nb  Nb103  1  0.09637367  0.50050542  0.49757330  1
  Nb  Nb104  1  0.89530442  0.11074361  0.10615833  1
  Nb  Nb105  1  0.29258629  0.70159325  0.49864936  1
  Nb  Nb106  1  0.10968783  0.69625819  0.49670640  1
  Nb  Nb107  1  0.70558538  0.10704644  0.09575113  1
  Nb  Nb108  1  0.09140302  0.10025343  0.29621107  1
  Nb  Nb109  1  0.50443962  0.90093357  0.89404701  1
  Nb  Nb110  1  0.90074645  0.90067870  0.49915796  1
  Nb  Nb111  1  0.50195133  0.30342166  0.69811775  1
  Nb  Nb112  1  0.70005214  0.70107279  0.30835368  1
  Nb  Nb113  1  0.49613410  0.50289623  0.29925102  1
  Nb  Nb114  1  0.29782048  0.29598425  0.90052172  1
  Nb  Nb115  1  0.31217872  0.09377087  0.49973169  1
  Nb  Nb116  1  0.70241783  0.10617870  0.70347928  1
  Nb  Nb117  1  0.50224200  0.89983469  0.70734330  1
  Nb  Nb118  1  0.30116386  0.90030214  0.49994497  1
  Nb  Nb119  1  0.89161892  0.29270354  0.09614014  1
  Nb  Nb120  1  0.49048951  0.10652682  0.50354956  1
  Nb  Nb121  1  0.70609799  0.29839340  0.10078762  1
  Nb  Nb122  1  0.09223914  0.70150771  0.90225697  1
  Nb  Nb123  1  0.70208980  0.70869769  0.49054287  1
  Nb  Nb124  1  0.91397284  0.49654860  0.50302686  1
  Nb  Nb125  1  0.79643131  0.80553336  0.78974204  1
  Nb  Nb126  1  0.40740494  -0.00370769  0.80351699  1
  Nb  Nb127  1  0.20047213  0.60038433  0.20259824  1
  Nb  Nb128  1  -0.00162033  0.79321855  0.19822286  1
  Nb  Nb129  1  0.59981383  0.60227139  0.20644949  1
  Nb  Nb130  1  0.80397789  0.59585046  -0.00043065  1
  Nb  Nb131  1  0.39966675  0.59800385  0.20499585  1
  Nb  Nb132  1  0.60301672  0.78914815  0.20827912  1
  Nb  Nb133  1  0.80773386  0.19098571  0.39830011  1
  Nb  Nb134  1  0.40220353  -0.00344239  -0.00873800  1
  Nb  Nb135  1  0.39902246  0.20366030  0.20266185  1
  Nb  Nb136  1  0.79836334  0.80139039  0.59652913  1
  Nb  Nb137  1  0.00778118  0.60095166  0.20597116  1
  Nb  Nb138  1  0.80876953  0.00656608  0.40055470  1
  Nb  Nb139  1  0.79813850  0.39699267  0.79205095  1
  Nb  Nb140  1  0.80496282  0.00905182  0.20258811  1
  Nb  Nb141  1  0.20874049  -0.00497813  0.59079755  1
  Nb  Nb142  1  0.80250586  0.40093027  0.60264516  1
  Nb  Nb143  1  0.19981677  0.19693981  0.20509821  1
  Nb  Nb144  1  0.40399161  0.39760875  0.60230245  1
  Nb  Nb145  1  0.59978677  0.20628484  0.19680302  1
  Nb  Nb146  1  0.00479161  0.59829933  0.40055904  1
  Nb  Nb147  1  -0.00288792  0.19678138  0.39371178  1
  Nb  Nb148  1  0.79273588  -0.00046091  0.79533152  1
  Nb  Nb149  1  0.59826465  0.20272007  0.60469547  1
  Pd  Pd150  1  -0.00697772  0.00001910  0.00438858  1
  Pd  Pd151  1  0.21323401  0.00681858  0.78798491  1
  Pd  Pd152  1  0.40012073  0.80716828  0.00007648  1
  Pd  Pd153  1  0.80047193  0.60094858  0.58622974  1
  Pd  Pd154  1  0.19026100  0.19844740  0.00799576  1
  Pd  Pd155  1  0.39804529  0.40501430  0.79475676  1
  Pd  Pd156  1  0.00910738  0.60525035  0.59529982  1
  Pd  Pd157  1  0.80209616  0.58580499  0.19393948  1
  Pd  Pd158  1  0.19739690  0.19005164  0.59754333  1
  Pd  Pd159  1  0.80449121  0.39779997  0.40683636  1
  Pd  Pd160  1  0.40455290  0.80533730  0.40218510  1
  Pd  Pd161  1  0.39943134  -0.00459846  0.61099042  1
  Pd  Pd162  1  0.19415871  0.19397689  0.40176003  1
  Pd  Pd163  1  0.38735107  0.40067689  0.19681521  1
  Pd  Pd164  1  0.19413441  -0.00310135  0.40489394  1
  Pd  Pd165  1  0.38890551  0.40064135  0.41522281  1
  Pd  Pd166  1  0.59988552  0.59940139  0.40103016  1
  Pd  Pd167  1  0.00308867  0.40189567  0.20278816  1
  Pd  Pd168  1  0.39505098  0.40165069  -0.00955457  1
  Pd  Pd169  1  0.60625602  0.00065821  0.19476770  1
  Pd  Pd170  1  -0.00194291  0.39483246  0.61126706  1
  Pd  Pd171  1  0.59811373  0.39992479  0.59397531  1
  Pd  Pd172  1  0.39967928  0.79712402  0.79663859  1
  Pd  Pd173  1  0.58486608  0.80397687  0.39865593  1
  Pd  Pd174  1  0.40714857  -0.00930862  0.40259886  1
  Pd  Pd175  1  0.60473406  0.79237815  0.79517588  1
  Pd  Pd176  1  0.19444466  0.00527999  0.19967064  1
  Pd  Pd177  1  0.19240904  0.60314232  0.79821987  1
  Pd  Pd178  1  0.60319443  0.39605822  0.80518394  1
  Pd  Pd179  1  0.60408848  0.79779997  0.01041434  1
  Pd  Pd180  1  0.19797374  0.59802826  0.00251111  1
  Pd  Pd181  1  -0.00675465  -0.01255436  0.18873805  1
  Pd  Pd182  1  0.40399311  0.79512908  0.20653578  1
  Pd  Pd183  1  0.20476820  0.40031667  0.19271424  1
  Pd  Pd184  1  0.61210037  0.60779294  0.01095412  1
  Pd  Pd185  1  0.20271370  0.00303811  -0.00096422  1
  Pd  Pd186  1  0.80296767  -0.00453884  0.60289617  1
  Pd  Pd187  1  0.21028120  0.39814557  0.59986256  1
  Pd  Pd188  1  0.78939256  0.19495765  0.21218397  1
  Pd  Pd189  1  0.19811446  0.80439780  0.59612596  1
  Pd  Pd190  1  0.01242681  0.59569031  0.79899915  1
  Pd  Pd191  1  0.80910212  0.59318475  0.40911844  1
  Pd  Pd192  1  0.59541015  -0.00208342  0.00763616  1
  Pd  Pd193  1  0.20384267  0.40030319  0.80140250  1
  Pd  Pd194  1  0.40395249  0.60185317  0.79555093  1
  Pd  Pd195  1  0.19543839  0.80417809  -0.00672538  1
  Pd  Pd196  1  0.19808101  0.79388320  0.80585350  1
  Pd  Pd197  1  0.39617000  0.19590749  0.79777166  1
  Pd  Pd198  1  0.79822591  0.20464203  0.59433276  1
  Pd  Pd199  1  0.40111004  0.79695701  0.59739625  1
  Rh  Rh200  1  0.60118105  0.00453668  0.80070116  1
  Rh  Rh201  1  0.40098677  0.19628380  0.00453352  1
  Rh  Rh202  1  0.79543165  0.78990598  -0.01761165  1
  Rh  Rh203  1  0.20569624  0.39699165  0.41642368  1
  Rh  Rh204  1  0.80086762  0.19966923  -0.00434589  1
  Rh  Rh205  1  0.19136015  0.60414429  0.60527870  1
  Rh  Rh206  1  0.79912669  0.19813691  0.80278761  1
  Rh  Rh207  1  0.60262616  0.20670700  0.79451421  1
  Rh  Rh208  1  0.00142979  0.39234035  -0.00289296  1
  Rh  Rh209  1  0.60146628  0.20440907  0.00984284  1
  Rh  Rh210  1  -0.00311115  0.79855781  0.60101426  1
  Rh  Rh211  1  0.01263485  -0.00136331  0.59833957  1
  Rh  Rh212  1  0.00683990  0.20942114  0.20078815  1
  Rh  Rh213  1  0.60199245  0.79230913  0.59437509  1
  Rh  Rh214  1  0.39864136  0.59921179  0.60029651  1
  Rh  Rh215  1  0.01021122  0.20109543  0.59431444  1
  Rh  Rh216  1  0.19418106  0.79690200  0.19742689  1
  Rh  Rh217  1  0.60375930  0.39942945  0.20348179  1
  Rh  Rh218  1  0.19965592  0.39568684  -0.00977013  1
  Rh  Rh219  1  -0.00015569  0.19327116  0.80201033  1
  Rh  Rh220  1  -0.00306123  0.78968605  0.39125246  1
  Rh  Rh221  1  -0.01112543  0.00308065  0.80378778  1
  Rh  Rh222  1  0.19629186  0.59993324  0.39331726  1
  Rh  Rh223  1  -0.00057313  0.39831317  0.39446177  1
  Rh  Rh224  1  0.79943968  0.39791834  -0.00950385  1
  Rh  Rh225  1  0.59294311  -0.00078815  0.40973607  1
  Rh  Rh226  1  0.79802381  0.39918778  0.19893458  1
  Rh  Rh227  1  0.59751455  0.41276595  0.40408406  1
  Rh  Rh228  1  0.80352539  0.01067013  0.00279746  1
  Rh  Rh229  1  0.00121864  0.59146672  0.00250659  1
  Rh  Rh230  1  0.38862224  0.60328388  0.39645189  1
  Rh  Rh231  1  0.80518373  0.80986843  0.40282019  1
  Rh  Rh232  1  0.40650959  0.20889675  0.60331847  1
  Rh  Rh233  1  -0.00472863  0.80685181  0.80253722  1
  Rh  Rh234  1  0.20175291  0.19535745  0.79803235  1
  Rh  Rh235  1  0.80135003  0.81473683  0.21201088  1
  Rh  Rh236  1  0.59141942  0.60591787  0.80045305  1
  Rh  Rh237  1  0.00638775  0.80763916  0.00069844  1
  Rh  Rh238  1  0.20471816  0.81079802  0.40624037  1
  Rh  Rh239  1  0.58959316  0.01051787  0.59855963  1
  Rh  Rh240  1  0.39446819  0.59902446  0.00373032  1
  Rh  Rh241  1  0.59688028  0.60706610  0.58733188  1
  Rh  Rh242  1  -0.00466516  0.39939686  0.79414896  1
  Rh  Rh243  1  0.40165677  0.19780981  0.39158944  1
  Rh  Rh244  1  0.40049473  0.00516702  0.19594142  1
  Rh  Rh245  1  -0.00268211  0.00842406  0.40682128  1
  Rh  Rh246  1  0.59860310  0.19483212  0.40053576  1
  Rh  Rh247  1  -0.00101202  0.20128887  0.00366491  1
  Rh  Rh248  1  0.79941409  0.60155265  0.80968901  1
  Rh  Rh249  1  0.60153155  0.39068110  -0.00926054  1
