# generated using pymatgen
data_ZrScNbPdRh
_symmetry_space_group_name_H-M   'P 1'
_cell_length_a   16.55570727
_cell_length_b   16.55126902
_cell_length_c   16.55241090
_cell_angle_alpha   89.97864667
_cell_angle_beta   90.00535439
_cell_angle_gamma   90.00516560
_symmetry_Int_Tables_number   1
_chemical_formula_structural   ZrScNbPdRh
_chemical_formula_sum   'Zr50 Sc50 Nb50 Pd50 Rh50'
_cell_volume   4535.65759362
_cell_formula_units_Z   50
loop_
 _symmetry_equiv_pos_site_id
 _symmetry_equiv_pos_as_xyz
  1  'x, y, z'
loop_
 _atom_site_type_symbol
 _atom_site_label
 _atom_site_symmetry_multiplicity
 _atom_site_fract_x
 _atom_site_fract_y
 _atom_site_fract_z
 _atom_site_occupancy
  Zr  Zr0  1  0.09950179  0.90817412  0.69148508  1
  Zr  Zr1  1  0.49825502  0.29359945  0.09821251  1
  Zr  Zr2  1  0.70423397  0.89873763  0.30851379  1
  Zr  Zr3  1  0.90027584  0.30246771  0.89860321  1
  Zr  Zr4  1  0.49408502  0.48659066  0.89612348  1
  Zr  Zr5  1  0.90453190  0.11036974  0.49661217  1
  Zr  Zr6  1  0.89213542  0.90423147  0.89684648  1
  Zr  Zr7  1  0.29962007  0.89773573  0.10116643  1
  Zr  Zr8  1  0.49524906  0.49866272  0.50096622  1
  Zr  Zr9  1  0.90512139  0.50522847  0.29903559  1
  Zr  Zr10  1  0.29378773  0.29749905  0.29761549  1
  Zr  Zr11  1  0.30331554  0.30091426  0.50579229  1
  Zr  Zr12  1  0.89190409  0.09938445  0.69208974  1
  Zr  Zr13  1  0.10079164  0.91398013  0.90066418  1
  Zr  Zr14  1  0.09659120  0.49707659  0.89660019  1
  Zr  Zr15  1  0.69508480  0.70541919  0.30782655  1
  Zr  Zr16  1  0.91045882  0.30210294  0.69579694  1
  Zr  Zr17  1  0.11558664  0.10480010  0.70564256  1
  Zr  Zr18  1  0.90040896  0.29887218  0.31302597  1
  Zr  Zr19  1  0.70518350  0.69621273  0.10237289  1
  Zr  Zr20  1  0.70050114  0.90076749  0.09516374  1
  Zr  Zr21  1  0.29465649  0.69980817  0.10364337  1
  Zr  Zr22  1  0.30221623  0.70531840  0.49663673  1
  Zr  Zr23  1  0.69408836  0.29673379  0.89671811  1
  Zr  Zr24  1  0.69804277  0.70381560  0.50143053  1
  Zr  Zr25  1  0.89298230  0.69584159  0.89431689  1
  Zr  Zr26  1  0.10811458  0.90321281  0.09516893  1
  Zr  Zr27  1  0.50038719  0.90540003  0.90439371  1
  Zr  Zr28  1  0.89835488  0.90572128  0.69759487  1
  Zr  Zr29  1  0.28691034  0.08879293  0.11473844  1
  Zr  Zr30  1  0.69557653  0.28268065  0.10723320  1
  Zr  Zr31  1  0.70646312  0.30274320  0.48924305  1
  Zr  Zr32  1  0.10466665  0.90424050  0.50084955  1
  Zr  Zr33  1  0.89633517  0.29804707  0.09646950  1
  Zr  Zr34  1  0.10522145  0.70682506  0.10392297  1
  Zr  Zr35  1  0.90136523  0.49975789  0.89622071  1
  Zr  Zr36  1  0.69934038  0.89426844  0.89656534  1
  Zr  Zr37  1  0.70057211  0.91174586  0.69630818  1
  Zr  Zr38  1  0.49877234  0.10002254  0.89379470  1
  Zr  Zr39  1  0.50340764  0.10755163  0.50449602  1
  Zr  Zr40  1  0.89986254  0.49034538  0.50145169  1
  Zr  Zr41  1  0.29843053  0.49651429  0.89824334  1
  Zr  Zr42  1  0.30133387  0.49547813  0.69801223  1
  Zr  Zr43  1  0.10469267  0.70665513  0.49443780  1
  Zr  Zr44  1  0.09423315  0.29944659  0.50365266  1
  Zr  Zr45  1  0.30211064  0.49350110  0.50291519  1
  Zr  Zr46  1  0.09962624  0.69658964  0.70163464  1
  Zr  Zr47  1  0.69600119  0.09775801  0.70193589  1
  Zr  Zr48  1  0.70114223  0.50591065  0.50476240  1
  Zr  Zr49  1  0.88849919  0.10250278  0.09660351  1
  Sc  Sc50  1  0.49818034  0.89694603  0.50938805  1
  Sc  Sc51  1  0.30609532  0.69655912  0.70132980  1
  Sc  Sc52  1  0.30094041  0.30023865  0.90184045  1
  Sc  Sc53  1  0.70614848  0.10344157  0.50978196  1
  Sc  Sc54  1  0.29852485  0.09791330  0.88791118  1
  Sc  Sc55  1  0.29720572  0.30658919  0.09709867  1
  Sc  Sc56  1  0.90552086  0.10106235  0.90421549  1
  Sc  Sc57  1  0.49685857  0.70186771  0.69271762  1
  Sc  Sc58  1  0.50160917  0.09537957  0.69813144  1
  Sc  Sc59  1  0.29431108  0.29253448  0.69234225  1
  Sc  Sc60  1  0.10236020  0.68606173  0.89794381  1
  Sc  Sc61  1  0.49028157  0.09452117  0.31067563  1
  Sc  Sc62  1  0.10223277  0.31299618  0.09924978  1
  Sc  Sc63  1  0.09936936  0.50257487  0.09823140  1
  Sc  Sc64  1  0.90054849  0.90306189  0.30988433  1
  Sc  Sc65  1  0.71073312  0.10852133  0.29720540  1
  Sc  Sc66  1  0.30287580  0.90249177  0.90369438  1
  Sc  Sc67  1  0.70627213  0.29499189  0.70539123  1
  Sc  Sc68  1  0.49332945  0.29237452  0.90210342  1
  Sc  Sc69  1  0.08955816  0.29909665  0.89748419  1
  Sc  Sc70  1  0.50244704  0.89748489  0.30628141  1
  Sc  Sc71  1  0.29705090  0.70285682  0.90023590  1
  Sc  Sc72  1  0.90110580  0.09973271  0.30749049  1
  Sc  Sc73  1  0.50919842  0.30217761  0.30411670  1
  Sc  Sc74  1  0.30083926  0.90674167  0.69228241  1
  Sc  Sc75  1  0.10197646  0.49482796  0.48850312  1
  Sc  Sc76  1  0.50295628  0.70721876  0.10205292  1
  Sc  Sc77  1  0.69832690  0.09930283  0.90144608  1
  Sc  Sc78  1  0.30257924  0.10074463  0.69523623  1
  Sc  Sc79  1  0.09757799  0.69740912  0.30102212  1
  Sc  Sc80  1  0.50053336  0.71365796  0.89391642  1
  Sc  Sc81  1  0.49094736  0.49125535  0.10752421  1
  Sc  Sc82  1  0.50108167  0.70049996  0.50177571  1
  Sc  Sc83  1  0.89463009  0.69396144  0.69737892  1
  Sc  Sc84  1  0.90634681  0.69410317  0.10725483  1
  Sc  Sc85  1  0.29622139  0.49501970  0.09998571  1
  Sc  Sc86  1  0.90353071  0.50635415  0.10386494  1
  Sc  Sc87  1  0.30554698  0.50518721  0.30155738  1
  Sc  Sc88  1  0.90378228  0.69975852  0.49356194  1
  Sc  Sc89  1  0.10135315  0.89675915  0.30756919  1
  Sc  Sc90  1  0.89577067  0.90312859  0.09474718  1
  Sc  Sc91  1  0.50183858  0.10090060  0.09132660  1
  Sc  Sc92  1  0.89496621  0.49864853  0.69953233  1
  Sc  Sc93  1  0.70119160  0.69172178  0.69385981  1
  Sc  Sc94  1  0.48965965  0.49905454  0.69851872  1
  Sc  Sc95  1  0.10971755  0.09495904  0.29850160  1
  Sc  Sc96  1  0.50030558  0.90167878  0.70441172  1
  Sc  Sc97  1  0.90761529  0.91502431  0.49790263  1
  Sc  Sc98  1  0.30632165  0.09666220  0.49828156  1
  Sc  Sc99  1  0.49756822  0.29564055  0.70490552  1
  Nb  Nb100  1  0.69990504  0.50123722  0.10252154  1
  Nb  Nb101  1  0.70351938  0.89826588  0.49428967  1
  Nb  Nb102  1  0.50105290  0.90176075  0.10107419  1
  Nb  Nb103  1  0.29963637  0.09560552  0.30346691  1
  Nb  Nb104  1  0.70228759  0.10082461  0.10326525  1
  Nb  Nb105  1  0.70373872  0.30500876  0.29851779  1
  Nb  Nb106  1  0.49667795  0.69839529  0.30039713  1
  Nb  Nb107  1  0.50309849  0.29953406  0.50370435  1
  Nb  Nb108  1  0.30376878  0.91558240  0.30792194  1
  Nb  Nb109  1  0.09216739  0.49416266  0.30054664  1
  Nb  Nb110  1  0.70099479  0.69274305  0.89969857  1
  Nb  Nb111  1  0.69630213  0.50295772  0.69779312  1
  Nb  Nb112  1  0.50417524  0.50652797  0.30098123  1
  Nb  Nb113  1  0.30459927  0.70729368  0.30078226  1
  Nb  Nb114  1  0.89842836  0.69676944  0.29718388  1
  Nb  Nb115  1  0.69865584  0.49728249  0.30153957  1
  Nb  Nb116  1  0.09906311  0.50097099  0.70012860  1
  Nb  Nb117  1  0.70032839  0.49944746  0.89929532  1
  Nb  Nb118  1  0.09603623  0.30051351  0.30064716  1
  Nb  Nb119  1  0.90213388  0.29845164  0.50178324  1
  Nb  Nb120  1  0.10375831  0.09791084  0.90445393  1
  Nb  Nb121  1  0.10554405  0.30311828  0.69834449  1
  Nb  Nb122  1  0.09613140  0.09302574  0.09620510  1
  Nb  Nb123  1  0.09969401  0.09783330  0.49831354  1
  Nb  Nb124  1  0.29607375  0.89935733  0.49248788  1
  Nb  Nb125  1  0.60550088  0.40298935  0.00285473  1
  Nb  Nb126  1  0.39777038  0.80270807  0.20705051  1
  Nb  Nb127  1  0.60329902  0.59552201  0.80667392  1
  Nb  Nb128  1  0.60348403  -0.00073264  0.19919994  1
  Nb  Nb129  1  0.79874020  0.80678708  0.59292674  1
  Nb  Nb130  1  0.19952733  0.20016455  0.39834864  1
  Nb  Nb131  1  0.19671052  0.59697994  0.59770707  1
  Nb  Nb132  1  0.79105723  0.40251673  0.00416631  1
  Nb  Nb133  1  0.00569312  0.19781417  0.19910896  1
  Nb  Nb134  1  0.00163381  0.80253001  0.80140260  1
  Nb  Nb135  1  0.59971073  0.59395255  -0.00085841  1
  Nb  Nb136  1  0.80089861  0.79635191  0.20646759  1
  Nb  Nb137  1  0.79843756  0.59860974  0.39459024  1
  Nb  Nb138  1  0.40561711  0.59954305  -0.00057518  1
  Nb  Nb139  1  0.19417631  0.39966395  0.79428154  1
  Nb  Nb140  1  0.59825332  0.59561052  0.20401124  1
  Nb  Nb141  1  0.19171964  0.80500763  0.79782395  1
  Nb  Nb142  1  0.00721722  0.59602941  0.59686814  1
  Nb  Nb143  1  0.00185120  0.80030098  -0.00766494  1
  Nb  Nb144  1  0.60078329  0.39894873  0.59821819  1
  Nb  Nb145  1  0.39339328  0.19490404  0.20365998  1
  Nb  Nb146  1  0.00163562  0.00443568  0.19482773  1
  Nb  Nb147  1  0.19207643  0.19204073  0.00173089  1
  Nb  Nb148  1  0.79257118  0.40043883  0.20199388  1
  Nb  Nb149  1  0.60642061  -0.00100712  0.40321096  1
  Pd  Pd150  1  0.40093547  0.79472546  0.00659607  1
  Pd  Pd151  1  0.60074238  0.40290977  0.19644670  1
  Pd  Pd152  1  0.80499241  0.19444354  0.80343184  1
  Pd  Pd153  1  0.79329451  0.39304212  0.60613622  1
  Pd  Pd154  1  0.19840817  0.40969739  0.20476677  1
  Pd  Pd155  1  0.40401382  0.39509696  0.39209009  1
  Pd  Pd156  1  0.79977140  0.40178257  0.79982189  1
  Pd  Pd157  1  0.19939284  0.39565770  0.39627654  1
  Pd  Pd158  1  0.20797261  0.79515548  0.60729167  1
  Pd  Pd159  1  -0.00666684  0.39598596  0.19640261  1
  Pd  Pd160  1  0.38983702  0.80764532  0.79520931  1
  Pd  Pd161  1  0.00083848  0.60499012  0.00309045  1
  Pd  Pd162  1  0.59718670  0.40226764  0.40550071  1
  Pd  Pd163  1  0.60005385  0.60016668  0.40002747  1
  Pd  Pd164  1  0.60701915  0.79262368  0.78990816  1
  Pd  Pd165  1  0.00255085  0.19301397  0.79503547  1
  Pd  Pd166  1  0.60372149  0.00468289  0.00152931  1
  Pd  Pd167  1  0.20601227  0.59825671  0.00005491  1
  Pd  Pd168  1  0.40062724  0.39234257  0.20809858  1
  Pd  Pd169  1  0.41199224  -0.00076619  0.20043186  1
  Pd  Pd170  1  0.39942329  0.60131032  0.40296461  1
  Pd  Pd171  1  0.40481911  0.80469943  0.39920285  1
  Pd  Pd172  1  -0.00902215  0.81039755  0.19608884  1
  Pd  Pd173  1  -0.00239007  0.00656083  0.79521662  1
  Pd  Pd174  1  -0.01026347  0.79431933  0.60276766  1
  Pd  Pd175  1  0.00769794  0.19440106  0.60697032  1
  Pd  Pd176  1  0.59848099  0.40129012  0.79374616  1
  Pd  Pd177  1  0.39545624  0.20595867  0.39749562  1
  Pd  Pd178  1  0.39494540  0.19999477  0.79307793  1
  Pd  Pd179  1  0.58774593  0.18500101  0.21168331  1
  Pd  Pd180  1  0.60421867  0.21001596  0.60625173  1
  Pd  Pd181  1  0.80323760  -0.00685953  0.20414937  1
  Pd  Pd182  1  0.19530233  0.20222521  0.19751831  1
  Pd  Pd183  1  0.20665113  0.80825254  0.21334293  1
  Pd  Pd184  1  0.40107511  -0.00085598  0.59683329  1
  Pd  Pd185  1  0.60480021  0.80439156  0.60525696  1
  Pd  Pd186  1  0.00646792  0.20263431  0.00643676  1
  Pd  Pd187  1  0.60020032  0.79340472  -0.00074308  1
  Pd  Pd188  1  0.59919471  0.80257598  0.20222770  1
  Pd  Pd189  1  0.80811024  0.79257716  0.00708041  1
  Pd  Pd190  1  -0.00308663  0.80185956  0.39946810  1
  Pd  Pd191  1  0.39393097  0.00779119  0.00229135  1
  Pd  Pd192  1  0.60713309  0.19178567  0.39466164  1
  Pd  Pd193  1  0.19669567  0.59296359  0.20977294  1
  Pd  Pd194  1  0.20128227  0.59904040  0.39708388  1
  Pd  Pd195  1  0.40750102  0.60574329  0.80757643  1
  Pd  Pd196  1  0.79636804  0.79604418  0.78701291  1
  Pd  Pd197  1  0.38221541  0.18931909  0.00932438  1
  Pd  Pd198  1  0.40448052  0.60635838  0.19324075  1
  Pd  Pd199  1  0.80141781  0.59508691  0.00109174  1
  Rh  Rh200  1  0.00364565  0.40139167  0.79304386  1
  Rh  Rh201  1  0.19396573  0.39304332  -0.01265199  1
  Rh  Rh202  1  0.40289704  0.20054887  0.60109916  1
  Rh  Rh203  1  0.19877516  0.19381819  0.58766298  1
  Rh  Rh204  1  0.40143668  -0.00262046  0.79769505  1
  Rh  Rh205  1  0.79406622  0.20218945  -0.00777941  1
  Rh  Rh206  1  -0.00778456  0.40462642  0.00256219  1
  Rh  Rh207  1  0.19134151  -0.01070549  0.20972841  1
  Rh  Rh208  1  0.79225584  0.60118736  0.21032167  1
  Rh  Rh209  1  -0.00293106  0.59746744  0.40259442  1
  Rh  Rh210  1  0.19605484  0.21063489  0.81161975  1
  Rh  Rh211  1  0.79432403  0.00529123  -0.00592352  1
  Rh  Rh212  1  0.20550507  0.00639504  0.59131469  1
  Rh  Rh213  1  0.80075568  -0.00291337  0.59125866  1
  Rh  Rh214  1  0.60163856  0.20041478  -0.00536728  1
  Rh  Rh215  1  0.01200504  0.19575572  0.39404758  1
  Rh  Rh216  1  0.59766963  -0.00136030  0.80385858  1
  Rh  Rh217  1  0.00694108  0.00555946  0.39308671  1
  Rh  Rh218  1  0.39450280  0.80225862  0.60008314  1
  Rh  Rh219  1  0.58868769  0.59076562  0.60937065  1
  Rh  Rh220  1  0.19366866  0.40545079  0.60319107  1
  Rh  Rh221  1  0.81115051  0.20688510  0.20764266  1
  Rh  Rh222  1  0.79902910  0.00828781  0.80574113  1
  Rh  Rh223  1  0.20621798  -0.00503843  0.79821378  1
  Rh  Rh224  1  0.59570126  0.19618785  0.79824426  1
  Rh  Rh225  1  0.40996468  0.38915457  0.60352758  1
  Rh  Rh226  1  0.79542128  0.00950994  0.40601871  1
  Rh  Rh227  1  0.19898066  0.00468902  0.40508151  1
  Rh  Rh228  1  0.80005412  0.20852079  0.59848370  1
  Rh  Rh229  1  0.00437881  0.01212868  0.60110297  1
  Rh  Rh230  1  0.81077292  0.79389084  0.40204706  1
  Rh  Rh231  1  0.39292842  0.60437158  0.59301541  1
  Rh  Rh232  1  0.18984622  0.79713250  -0.01387683  1
  Rh  Rh233  1  0.01207592  0.60057300  0.20251602  1
  Rh  Rh234  1  0.80990177  0.60620342  0.58975921  1
  Rh  Rh235  1  0.21107687  0.00765263  -0.00595543  1
  Rh  Rh236  1  0.00000793  0.39893775  0.40196457  1
  Rh  Rh237  1  0.20879796  0.59731414  0.79323707  1
  Rh  Rh238  1  0.00467603  0.40536700  0.60035364  1
  Rh  Rh239  1  -0.00934330  0.60043071  0.79134816  1
  Rh  Rh240  1  0.60060420  -0.00149446  0.59076340  1
  Rh  Rh241  1  0.58864387  0.80532308  0.40653108  1
  Rh  Rh242  1  0.80378127  0.40649132  0.39403525  1
  Rh  Rh243  1  0.40779487  -0.00510237  0.41127546  1
  Rh  Rh244  1  0.79362993  0.59527291  0.79542962  1
  Rh  Rh245  1  0.20496661  0.80338306  0.39331799  1
  Rh  Rh246  1  0.38641534  0.38753867  0.79301287  1
  Rh  Rh247  1  -0.00718090  -0.00422333  0.00443697  1
  Rh  Rh248  1  0.40384294  0.40215760  0.00449393  1
  Rh  Rh249  1  0.79773332  0.19880473  0.40159985  1
