# generated using pymatgen
data_ZrScNbPdRh
_symmetry_space_group_name_H-M   'P 1'
_cell_length_a   16.56411082
_cell_length_b   16.55894815
_cell_length_c   16.56300220
_cell_angle_alpha   90.03871572
_cell_angle_beta   89.99864217
_cell_angle_gamma   89.98329331
_symmetry_Int_Tables_number   1
_chemical_formula_structural   ZrScNbPdRh
_chemical_formula_sum   'Zr50 Sc50 Nb50 Pd50 Rh50'
_cell_volume   4542.96944149
_cell_formula_units_Z   50
loop_
 _symmetry_equiv_pos_site_id
 _symmetry_equiv_pos_as_xyz
  1  'x, y, z'
loop_
 _atom_site_type_symbol
 _atom_site_label
 _atom_site_symmetry_multiplicity
 _atom_site_fract_x
 _atom_site_fract_y
 _atom_site_fract_z
 _atom_site_occupancy
  Zr  Zr0  1  0.89930689  0.89484672  0.10377151  1
  Zr  Zr1  1  0.30543290  0.50124420  0.29997953  1
  Zr  Zr2  1  0.29605117  0.69608569  0.70537673  1
  Zr  Zr3  1  0.30934001  0.49723447  0.49446067  1
  Zr  Zr4  1  0.31228471  0.49053222  0.10416995  1
  Zr  Zr5  1  0.09887167  0.49458910  0.29724888  1
  Zr  Zr6  1  0.09793333  0.29803243  0.69663732  1
  Zr  Zr7  1  0.89041516  0.09383704  0.29180852  1
  Zr  Zr8  1  0.10089718  0.90790876  0.69929924  1
  Zr  Zr9  1  0.10635098  0.50560389  0.70041264  1
  Zr  Zr10  1  0.49657736  0.09857315  0.89446871  1
  Zr  Zr11  1  0.90207609  0.70402644  0.49787056  1
  Zr  Zr12  1  0.69110649  0.70849762  0.70107785  1
  Zr  Zr13  1  0.50071597  0.29895148  0.70665867  1
  Zr  Zr14  1  0.89947729  0.28911948  0.08807661  1
  Zr  Zr15  1  0.49792457  0.49759275  0.91396019  1
  Zr  Zr16  1  0.90112546  0.49645500  0.49147401  1
  Zr  Zr17  1  0.30220234  0.50248717  0.70236654  1
  Zr  Zr18  1  0.09101755  0.89249811  0.30585283  1
  Zr  Zr19  1  0.31085154  0.10008516  0.50456074  1
  Zr  Zr20  1  0.29678397  0.30462031  0.30167697  1
  Zr  Zr21  1  0.48513948  0.90084295  0.29836810  1
  Zr  Zr22  1  0.09862157  0.09675757  0.50279324  1
  Zr  Zr23  1  0.70080058  0.11466446  0.50050491  1
  Zr  Zr24  1  0.10151473  0.89478385  0.10118664  1
  Zr  Zr25  1  0.69841411  0.10659592  0.30223536  1
  Zr  Zr26  1  0.09734666  0.10432871  0.30007754  1
  Zr  Zr27  1  0.70182565  0.09949200  0.69464192  1
  Zr  Zr28  1  0.10718207  0.69567787  0.89382968  1
  Zr  Zr29  1  0.48979460  0.90359921  0.49947726  1
  Zr  Zr30  1  0.49743552  0.29665699  0.50375411  1
  Zr  Zr31  1  0.29976008  0.10013241  0.29860073  1
  Zr  Zr32  1  0.70154251  0.90065369  0.51263981  1
  Zr  Zr33  1  0.69213888  0.50008814  0.50197079  1
  Zr  Zr34  1  0.69961058  0.50058290  0.91134500  1
  Zr  Zr35  1  0.50327437  0.69390542  0.49636174  1
  Zr  Zr36  1  0.89231581  0.91337537  0.70480519  1
  Zr  Zr37  1  0.10402953  0.69617696  0.70054621  1
  Zr  Zr38  1  0.90173832  0.30404890  0.89602610  1
  Zr  Zr39  1  0.90816461  0.89961632  0.49722960  1
  Zr  Zr40  1  0.50291042  0.90492863  0.70449005  1
  Zr  Zr41  1  0.50066098  0.10622685  0.70126100  1
  Zr  Zr42  1  0.09851703  0.10481899  0.10034445  1
  Zr  Zr43  1  0.90414087  0.49570552  0.89968746  1
  Zr  Zr44  1  0.70170742  0.88147800  0.90342790  1
  Zr  Zr45  1  0.09429079  0.29725379  0.90419016  1
  Zr  Zr46  1  0.10653447  0.29516528  0.29320343  1
  Zr  Zr47  1  0.69226473  0.69513829  0.29525867  1
  Zr  Zr48  1  0.70255569  0.10208679  0.11097082  1
  Zr  Zr49  1  0.49811477  0.89656031  0.90361380  1
  Sc  Sc50  1  0.89816657  0.49549077  0.10302279  1
  Sc  Sc51  1  0.09277384  0.10220441  0.69919958  1
  Sc  Sc52  1  0.30469530  0.09588334  0.70261930  1
  Sc  Sc53  1  0.30401900  0.89878505  0.09875134  1
  Sc  Sc54  1  0.10384188  0.29769827  0.09786820  1
  Sc  Sc55  1  0.90304114  0.10523532  0.89676038  1
  Sc  Sc56  1  0.69448586  0.11107505  0.90048681  1
  Sc  Sc57  1  0.69344107  0.49766787  0.69284692  1
  Sc  Sc58  1  0.29731528  0.08929442  0.90197962  1
  Sc  Sc59  1  0.69815647  0.29979681  0.09941398  1
  Sc  Sc60  1  0.70080336  0.49662947  0.29028601  1
  Sc  Sc61  1  0.49648338  0.50332348  0.69041200  1
  Sc  Sc62  1  0.69638239  0.91621767  0.28979458  1
  Sc  Sc63  1  0.50369557  0.29643218  0.89821280  1
  Sc  Sc64  1  0.11184265  0.90406471  0.90265658  1
  Sc  Sc65  1  0.10627980  0.49486341  0.09775015  1
  Sc  Sc66  1  0.10712981  0.70112949  0.09963424  1
  Sc  Sc67  1  0.31349133  0.29882124  0.70181200  1
  Sc  Sc68  1  0.29528404  0.09005799  0.09559708  1
  Sc  Sc69  1  0.30191406  0.90221976  0.89739376  1
  Sc  Sc70  1  0.50262324  0.09791070  0.29403724  1
  Sc  Sc71  1  0.90432895  0.70159890  0.70639491  1
  Sc  Sc72  1  0.29678563  0.69334171  0.49167175  1
  Sc  Sc73  1  0.69751531  0.30185055  0.68417752  1
  Sc  Sc74  1  0.30699764  0.30804808  0.89715793  1
  Sc  Sc75  1  0.69192879  0.70105837  0.50735363  1
  Sc  Sc76  1  0.09496402  0.28816411  0.49938956  1
  Sc  Sc77  1  0.49525628  0.70160393  0.70282658  1
  Sc  Sc78  1  0.10683255  0.50918516  0.49156266  1
  Sc  Sc79  1  0.30496552  0.50151095  0.90145946  1
  Sc  Sc80  1  0.10475045  0.69534817  0.30303926  1
  Sc  Sc81  1  0.49511763  0.90185705  0.10628511  1
  Sc  Sc82  1  0.70567708  0.29534715  0.30207684  1
  Sc  Sc83  1  0.49938409  0.70176423  0.10225958  1
  Sc  Sc84  1  0.90057775  0.69694249  0.09914449  1
  Sc  Sc85  1  0.89790087  0.30525295  0.30119677  1
  Sc  Sc86  1  0.90952011  0.30254290  0.69145112  1
  Sc  Sc87  1  0.89453191  0.10254296  0.49958403  1
  Sc  Sc88  1  0.49330110  0.69870431  0.29762365  1
  Sc  Sc89  1  0.30100948  0.69321994  0.10190499  1
  Sc  Sc90  1  0.91033138  0.49384545  0.70708929  1
  Sc  Sc91  1  0.89142986  0.70536868  0.90581022  1
  Sc  Sc92  1  0.10337081  0.49398481  0.89295309  1
  Sc  Sc93  1  0.70335583  0.30257770  0.90549852  1
  Sc  Sc94  1  0.90704010  0.69113433  0.29703134  1
  Sc  Sc95  1  0.89202853  0.30097724  0.49833816  1
  Sc  Sc96  1  0.50196933  0.29953393  0.30005410  1
  Sc  Sc97  1  0.10266228  0.09849063  0.90013826  1
  Sc  Sc98  1  0.90309895  0.49565041  0.29798654  1
  Sc  Sc99  1  0.69778481  0.90240287  0.70378980  1
  Nb  Nb100  1  0.50561489  0.48745801  0.10803194  1
  Nb  Nb101  1  0.69601276  0.89702165  0.09806415  1
  Nb  Nb102  1  0.09903493  0.89488862  0.49963738  1
  Nb  Nb103  1  0.09517840  0.70654601  0.49992700  1
  Nb  Nb104  1  0.89792149  0.90023923  0.90391110  1
  Nb  Nb105  1  0.69723776  0.30376439  0.49509367  1
  Nb  Nb106  1  0.89418073  0.89609139  0.30042271  1
  Nb  Nb107  1  0.68554860  0.50844331  0.09560229  1
  Nb  Nb108  1  0.30762665  0.70532259  0.29628927  1
  Nb  Nb109  1  0.30254462  0.90390199  0.49726232  1
  Nb  Nb110  1  0.49383983  0.30756423  0.09787739  1
  Nb  Nb111  1  0.69812453  0.70251136  0.09138978  1
  Nb  Nb112  1  0.49889962  0.69968006  0.90079407  1
  Nb  Nb113  1  0.29942158  0.90231060  0.69488247  1
  Nb  Nb114  1  0.49895072  0.09879073  0.09832391  1
  Nb  Nb115  1  0.50124654  0.50346507  0.49116575  1
  Nb  Nb116  1  0.31308724  0.69650740  0.89664568  1
  Nb  Nb117  1  0.89649500  0.09768777  0.09694963  1
  Nb  Nb118  1  0.30138472  0.29966473  0.10534915  1
  Nb  Nb119  1  0.50076364  0.10171959  0.49895127  1
  Nb  Nb120  1  0.69128571  0.69623881  0.90987730  1
  Nb  Nb121  1  0.30284383  0.89787678  0.30680551  1
  Nb  Nb122  1  0.89560211  0.10594938  0.70168199  1
  Nb  Nb123  1  0.49939668  0.50134360  0.30310310  1
  Nb  Nb124  1  0.30354603  0.30050747  0.49861770  1
  Nb  Nb125  1  0.20028383  0.80585805  0.59292385  1
  Nb  Nb126  1  0.20750331  0.39730656  0.59477666  1
  Nb  Nb127  1  0.80536601  0.59990079  0.60227608  1
  Nb  Nb128  1  0.00331823  0.59856659  -0.00513497  1
  Nb  Nb129  1  0.60134131  0.80915220  0.39799295  1
  Nb  Nb130  1  0.40118331  0.20138493  0.00759644  1
  Nb  Nb131  1  -0.00071528  0.80938020  0.80535502  1
  Nb  Nb132  1  0.60039354  0.40740954  0.80281690  1
  Nb  Nb133  1  0.79867394  -0.00263975  0.00211191  1
  Nb  Nb134  1  0.79584436  0.60251811  0.40338123  1
  Nb  Nb135  1  0.00067033  0.60335007  0.59570140  1
  Nb  Nb136  1  0.19753825  -0.00722443  0.21086388  1
  Nb  Nb137  1  0.19991279  0.20257425  0.79961825  1
  Nb  Nb138  1  0.20038898  -0.00761399  0.40351262  1
  Nb  Nb139  1  0.79396803  0.79985104  0.20048834  1
  Nb  Nb140  1  0.80312724  0.20314313  0.79232535  1
  Nb  Nb141  1  0.79043091  0.59941958  0.80142037  1
  Nb  Nb142  1  0.59641081  0.00185367  0.40620448  1
  Nb  Nb143  1  0.39924530  0.20243824  0.18998050  1
  Nb  Nb144  1  -0.00734050  -0.00319162  0.00338866  1
  Nb  Nb145  1  0.60427721  -0.00129496  0.00597943  1
  Nb  Nb146  1  0.60009145  0.60044508  0.80982962  1
  Nb  Nb147  1  0.38996656  0.80487901  0.59858221  1
  Nb  Nb148  1  0.79493286  0.80109607  0.39205120  1
  Nb  Nb149  1  0.59735113  0.40253423  0.40350014  1
  Pd  Pd150  1  0.19946583  0.80533194  0.79811436  1
  Pd  Pd151  1  0.40504970  0.59940122  0.01066938  1
  Pd  Pd152  1  0.00276445  -0.00095459  0.19743509  1
  Pd  Pd153  1  0.80352266  0.40541088  0.60277227  1
  Pd  Pd154  1  0.39870009  0.80343803  0.79523294  1
  Pd  Pd155  1  0.80529091  0.79733193  0.60303832  1
  Pd  Pd156  1  0.79107037  0.39802399  0.78881307  1
  Pd  Pd157  1  0.00037202  0.00347008  0.39890258  1
  Pd  Pd158  1  0.80777833  0.59720196  0.00097443  1
  Pd  Pd159  1  0.00034260  0.39181394  0.19127960  1
  Pd  Pd160  1  0.79642993  0.39720723  0.19303091  1
  Pd  Pd161  1  0.39824628  0.60865994  0.59753297  1
  Pd  Pd162  1  0.00868375  0.39248736  0.40257992  1
  Pd  Pd163  1  0.01349912  0.40940752  0.58913218  1
  Pd  Pd164  1  0.20190086  0.39271753  0.79236114  1
  Pd  Pd165  1  0.20481641  0.39824862  0.00003716  1
  Pd  Pd166  1  0.61018305  -0.00228411  0.81122714  1
  Pd  Pd167  1  -0.00787545  0.00576284  0.59940951  1
  Pd  Pd168  1  0.21044643  0.20503238  0.60605952  1
  Pd  Pd169  1  0.40534140  0.19878959  0.39069917  1
  Pd  Pd170  1  0.40113789  0.40055313  0.59946793  1
  Pd  Pd171  1  -0.00843036  0.20523904  0.20078683  1
  Pd  Pd172  1  0.00411958  0.79645714  -0.00759801  1
  Pd  Pd173  1  0.20297586  0.59571566  0.20192112  1
  Pd  Pd174  1  0.79157693  -0.00429882  0.40533533  1
  Pd  Pd175  1  -0.01100159  0.19984493  0.39727438  1
  Pd  Pd176  1  0.19977881  0.59620760  -0.00351248  1
  Pd  Pd177  1  0.59699029  0.00516790  0.59627267  1
  Pd  Pd178  1  0.20234534  0.60252975  0.39335146  1
  Pd  Pd179  1  0.59467087  0.19880611  0.00370852  1
  Pd  Pd180  1  0.20701593  0.80252040  0.20304936  1
  Pd  Pd181  1  0.00247729  0.79946305  0.61251338  1
  Pd  Pd182  1  0.19247863  0.39516919  0.40829751  1
  Pd  Pd183  1  0.79815032  0.60245130  0.19994438  1
  Pd  Pd184  1  0.21361762  0.79485312  -0.00418602  1
  Pd  Pd185  1  0.79706612  0.40259805  0.01125366  1
  Pd  Pd186  1  0.20078742  0.00049517  0.59721065  1
  Pd  Pd187  1  0.00819003  0.59797260  0.18884583  1
  Pd  Pd188  1  -0.00361907  0.79023882  0.20329067  1
  Pd  Pd189  1  0.59388665  0.20717306  0.19818482  1
  Pd  Pd190  1  0.20325881  0.19446078  0.40772254  1
  Pd  Pd191  1  0.20412563  0.79929426  0.40272271  1
  Pd  Pd192  1  0.59164276  0.60078398  0.19533620  1
  Pd  Pd193  1  0.00159928  -0.00067040  0.81012305  1
  Pd  Pd194  1  0.80295915  0.79304923  0.79748414  1
  Pd  Pd195  1  0.21175536  0.20306002  -0.00770032  1
  Pd  Pd196  1  0.60008093  0.80396383  0.20397237  1
  Pd  Pd197  1  0.39747160  0.79826001  0.00436111  1
  Pd  Pd198  1  0.79168699  0.01029345  0.81294364  1
  Pd  Pd199  1  0.60394325  0.39315779  0.20674454  1
  Rh  Rh200  1  -0.00097792  0.19126666  -0.00259935  1
  Rh  Rh201  1  0.80408091  0.00309807  0.59649653  1
  Rh  Rh202  1  0.39854720  0.60373695  0.39328360  1
  Rh  Rh203  1  0.80348569  0.20359409  0.39767331  1
  Rh  Rh204  1  0.58327727  0.80150510  0.59580248  1
  Rh  Rh205  1  0.40133368  0.19931171  0.60256189  1
  Rh  Rh206  1  0.79923646  0.79947820  0.00948084  1
  Rh  Rh207  1  0.00047167  0.20250503  0.79871002  1
  Rh  Rh208  1  0.40209510  0.79071546  0.40542144  1
  Rh  Rh209  1  0.79984622  -0.00596238  0.19308155  1
  Rh  Rh210  1  0.39118744  0.00505950  0.19793589  1
  Rh  Rh211  1  0.00737559  0.39482086  0.79926430  1
  Rh  Rh212  1  0.58964613  0.80185059  0.00484794  1
  Rh  Rh213  1  0.59974511  0.60340347  0.60987096  1
  Rh  Rh214  1  0.41188014  0.40860060  0.80151747  1
  Rh  Rh215  1  0.59647916  0.20149610  0.59965798  1
  Rh  Rh216  1  0.40882971  0.39734312  0.39597650  1
  Rh  Rh217  1  0.60317530  0.59657528  0.39328290  1
  Rh  Rh218  1  0.61530511  0.21487272  0.79290204  1
  Rh  Rh219  1  0.19509935  0.60053381  0.59269967  1
  Rh  Rh220  1  -0.00655361  0.79455901  0.39240297  1
  Rh  Rh221  1  0.20153144  0.00897933  0.79358506  1
  Rh  Rh222  1  0.59503355  0.79429022  0.80454271  1
  Rh  Rh223  1  -0.00256581  0.60143017  0.40266497  1
  Rh  Rh224  1  0.59644113  0.20177825  0.40141211  1
  Rh  Rh225  1  -0.00784870  0.19395872  0.59645460  1
  Rh  Rh226  1  0.60196593  0.39510876  0.00032919  1
  Rh  Rh227  1  0.21208130  0.59634559  0.81081056  1
  Rh  Rh228  1  0.58855053  0.60524863  0.00561364  1
  Rh  Rh229  1  0.78865768  0.40763650  0.39875704  1
  Rh  Rh230  1  0.80598750  0.20598207  0.20032077  1
  Rh  Rh231  1  0.19970689  0.40333170  0.19806989  1
  Rh  Rh232  1  0.39935691  0.39422792  -0.00105519  1
  Rh  Rh233  1  0.58902576  0.39805311  0.59586524  1
  Rh  Rh234  1  0.40411346  0.59665277  0.19905204  1
  Rh  Rh235  1  0.40500519  0.00020562  0.60723660  1
  Rh  Rh236  1  0.40379529  0.39465355  0.20946488  1
  Rh  Rh237  1  0.59450808  0.00024979  0.19825467  1
  Rh  Rh238  1  0.20809957  0.19297228  0.19357279  1
  Rh  Rh239  1  0.40081606  0.01013600  0.39657777  1
  Rh  Rh240  1  0.40886319  0.00254674  -0.00106541  1
  Rh  Rh241  1  0.39330906  0.79850116  0.19555568  1
  Rh  Rh242  1  0.19035140  -0.00321775  0.01082108  1
  Rh  Rh243  1  -0.01123291  0.60992925  0.80872575  1
  Rh  Rh244  1  0.38823488  0.19351936  0.81273130  1
  Rh  Rh245  1  0.39758734  -0.00396709  0.79851035  1
  Rh  Rh246  1  0.80226137  0.19322699  -0.00909943  1
  Rh  Rh247  1  0.40697372  0.59595660  0.80358442  1
  Rh  Rh248  1  0.00342218  0.40691074  0.00346374  1
  Rh  Rh249  1  0.80431020  0.20627472  0.60251465  1
