# generated using pymatgen
data_ZrScNbPdRh
_symmetry_space_group_name_H-M   'P 1'
_cell_length_a   16.55887220
_cell_length_b   16.55866486
_cell_length_c   16.56070708
_cell_angle_alpha   89.98569766
_cell_angle_beta   89.95588679
_cell_angle_gamma   89.99325628
_symmetry_Int_Tables_number   1
_chemical_formula_structural   ZrScNbPdRh
_chemical_formula_sum   'Zr50 Sc50 Nb50 Pd50 Rh50'
_cell_volume   4540.82537728
_cell_formula_units_Z   50
loop_
 _symmetry_equiv_pos_site_id
 _symmetry_equiv_pos_as_xyz
  1  'x, y, z'
loop_
 _atom_site_type_symbol
 _atom_site_label
 _atom_site_symmetry_multiplicity
 _atom_site_fract_x
 _atom_site_fract_y
 _atom_site_fract_z
 _atom_site_occupancy
  Zr  Zr0  1  0.70506449  0.09610378  0.90553813  1
  Zr  Zr1  1  0.50582224  0.89589619  0.69878291  1
  Zr  Zr2  1  0.29754697  0.69569830  0.30617258  1
  Zr  Zr3  1  0.90097397  0.50241657  0.69716653  1
  Zr  Zr4  1  0.09152646  0.29966369  0.89766603  1
  Zr  Zr5  1  0.50224064  0.49890582  0.09274172  1
  Zr  Zr6  1  0.90149269  0.49481010  0.49978002  1
  Zr  Zr7  1  0.70141685  0.09700831  0.70254571  1
  Zr  Zr8  1  0.89559697  0.89856093  0.11464586  1
  Zr  Zr9  1  0.28532470  0.89368467  0.90178629  1
  Zr  Zr10  1  0.10780661  0.50111073  0.90390449  1
  Zr  Zr11  1  0.49944399  0.69166026  0.09648469  1
  Zr  Zr12  1  0.10312833  0.31202136  0.10232919  1
  Zr  Zr13  1  0.90655198  0.70154299  0.28776227  1
  Zr  Zr14  1  0.10200511  0.70612284  0.88858184  1
  Zr  Zr15  1  0.90050798  0.29783782  0.89671451  1
  Zr  Zr16  1  0.70153570  0.89543298  0.50336734  1
  Zr  Zr17  1  0.90805024  0.89370284  0.49767701  1
  Zr  Zr18  1  0.50070295  0.10958355  0.09209584  1
  Zr  Zr19  1  0.70675302  0.89917565  0.29227316  1
  Zr  Zr20  1  0.29699663  0.69850218  0.51027831  1
  Zr  Zr21  1  0.49704905  0.10206845  0.71739836  1
  Zr  Zr22  1  0.70030334  0.49623878  0.90331933  1
  Zr  Zr23  1  0.49548545  0.10181526  0.49641280  1
  Zr  Zr24  1  0.29408011  0.30097215  0.49656624  1
  Zr  Zr25  1  0.69758806  0.10587509  0.09854573  1
  Zr  Zr26  1  0.10422703  0.69931416  0.49153962  1
  Zr  Zr27  1  0.69409904  0.30579519  0.70563561  1
  Zr  Zr28  1  0.69822693  0.69624294  0.29969235  1
  Zr  Zr29  1  0.09256480  0.90076022  0.30962640  1
  Zr  Zr30  1  0.70262786  0.49980396  0.69795297  1
  Zr  Zr31  1  0.90523175  0.90035081  0.89232178  1
  Zr  Zr32  1  0.70818625  0.50284089  0.29269141  1
  Zr  Zr33  1  0.69636465  0.89581219  0.69335220  1
  Zr  Zr34  1  0.69091243  0.29715090  0.09904303  1
  Zr  Zr35  1  0.90110005  0.49752772  0.89585063  1
  Zr  Zr36  1  0.29664143  0.10146897  0.70670264  1
  Zr  Zr37  1  0.10950529  0.10276485  0.50026320  1
  Zr  Zr38  1  0.49491385  0.90155213  0.30481616  1
  Zr  Zr39  1  0.48483954  0.50709619  0.90427980  1
  Zr  Zr40  1  0.69950530  0.89704057  0.89837466  1
  Zr  Zr41  1  0.70401741  0.30510848  0.49741515  1
  Zr  Zr42  1  0.90313651  0.10335108  0.70576517  1
  Zr  Zr43  1  0.50570173  0.89304575  0.89559002  1
  Zr  Zr44  1  0.29883147  0.10230798  0.09134814  1
  Zr  Zr45  1  0.28856385  0.49252072  0.08894755  1
  Zr  Zr46  1  0.29997652  0.68156046  0.89137360  1
  Zr  Zr47  1  0.89833480  0.50192403  0.10861127  1
  Zr  Zr48  1  0.50103884  0.69417316  0.49633561  1
  Zr  Zr49  1  0.09720793  0.10246564  0.69637884  1
  Sc  Sc50  1  0.29640930  0.90346661  0.50366569  1
  Sc  Sc51  1  0.29273458  0.30684289  0.31027433  1
  Sc  Sc52  1  0.70949804  0.50801161  0.50331593  1
  Sc  Sc53  1  0.09783613  0.49421035  0.69618443  1
  Sc  Sc54  1  0.49435357  0.30753833  0.50234192  1
  Sc  Sc55  1  0.29603003  0.30880907  0.71074759  1
  Sc  Sc56  1  0.70791727  0.29677562  0.30320139  1
  Sc  Sc57  1  0.10447534  0.69462581  0.12028660  1
  Sc  Sc58  1  0.49620282  0.48938775  0.69537741  1
  Sc  Sc59  1  0.29770200  0.09914818  0.89945594  1
  Sc  Sc60  1  0.69819087  0.11434205  0.30176203  1
  Sc  Sc61  1  0.09849738  0.89775252  0.70661531  1
  Sc  Sc62  1  0.30270275  0.10220937  0.32159704  1
  Sc  Sc63  1  0.49423417  0.89631140  0.09552417  1
  Sc  Sc64  1  0.89858938  0.30994966  0.49762162  1
  Sc  Sc65  1  0.29963184  0.89504199  0.10236714  1
  Sc  Sc66  1  0.90612312  0.69134944  0.88815065  1
  Sc  Sc67  1  0.69122989  0.70076607  0.90239814  1
  Sc  Sc68  1  0.49392081  0.51410786  0.29979950  1
  Sc  Sc69  1  0.70081711  0.69976351  0.68723808  1
  Sc  Sc70  1  0.29503844  0.09973121  0.50204402  1
  Sc  Sc71  1  0.11180447  0.89409640  0.10282759  1
  Sc  Sc72  1  0.69526038  0.09870383  0.49806657  1
  Sc  Sc73  1  0.70279536  0.49736369  0.09320626  1
  Sc  Sc74  1  0.50106886  0.10388213  0.31068437  1
  Sc  Sc75  1  0.70596440  0.68785890  0.10299145  1
  Sc  Sc76  1  0.90568074  0.69660491  0.69750711  1
  Sc  Sc77  1  0.29415554  0.89411510  0.69415090  1
  Sc  Sc78  1  0.90375575  0.30000523  0.09846136  1
  Sc  Sc79  1  0.29467172  0.30559447  0.90095860  1
  Sc  Sc80  1  0.30025208  0.50020044  0.49509418  1
  Sc  Sc81  1  0.89914292  0.10028968  0.10039298  1
  Sc  Sc82  1  0.89867313  0.10270475  0.89665482  1
  Sc  Sc83  1  0.09175611  0.11179816  0.09562451  1
  Sc  Sc84  1  0.90886028  0.09888516  0.50861751  1
  Sc  Sc85  1  0.70545822  0.90826536  0.09209691  1
  Sc  Sc86  1  0.49598976  0.69763236  0.68878846  1
  Sc  Sc87  1  0.10277187  0.90318497  0.50679936  1
  Sc  Sc88  1  0.29916053  0.89770720  0.29985038  1
  Sc  Sc89  1  0.29895539  0.50342532  0.70496904  1
  Sc  Sc90  1  0.90922597  0.30463033  0.70292123  1
  Sc  Sc91  1  0.70338300  0.30417057  0.90281199  1
  Sc  Sc92  1  0.49535973  0.69569044  0.29288217  1
  Sc  Sc93  1  0.29907448  0.70569289  0.11395317  1
  Sc  Sc94  1  0.90367811  0.90380740  0.69160615  1
  Sc  Sc95  1  0.50799946  0.90144675  0.50412091  1
  Sc  Sc96  1  0.90354872  0.69481592  0.50248772  1
  Sc  Sc97  1  0.10168137  0.50104317  0.49663088  1
  Sc  Sc98  1  0.50256968  0.29016063  0.30793058  1
  Sc  Sc99  1  0.10421118  0.69832425  0.69520608  1
  Nb  Nb100  1  0.49669067  0.29976514  0.89375144  1
  Nb  Nb101  1  0.29913089  0.49899215  0.89604334  1
  Nb  Nb102  1  0.09886666  0.30257568  0.69763161  1
  Nb  Nb103  1  0.09911057  0.30637465  0.30312812  1
  Nb  Nb104  1  0.90082305  0.90342402  0.30056125  1
  Nb  Nb105  1  0.90368047  0.30449028  0.30562925  1
  Nb  Nb106  1  0.70568069  0.70400247  0.49742594  1
  Nb  Nb107  1  0.90566206  0.70023086  0.09788012  1
  Nb  Nb108  1  0.91113476  0.09945754  0.29830265  1
  Nb  Nb109  1  0.49810074  0.30062510  0.09852907  1
  Nb  Nb110  1  0.10420624  0.69499168  0.30571704  1
  Nb  Nb111  1  0.49182393  0.10190530  0.90010961  1
  Nb  Nb112  1  0.09566550  0.09397035  0.89798627  1
  Nb  Nb113  1  0.90530529  0.48725039  0.30219768  1
  Nb  Nb114  1  0.49889740  0.69582740  0.89866814  1
  Nb  Nb115  1  0.10207579  0.30305211  0.50044290  1
  Nb  Nb116  1  0.29667490  0.29972596  0.10470910  1
  Nb  Nb117  1  0.29620200  0.49688069  0.30361064  1
  Nb  Nb118  1  0.09642663  0.49726947  0.29109763  1
  Nb  Nb119  1  0.10049688  0.10308681  0.30037125  1
  Nb  Nb120  1  0.49673863  0.29750317  0.70770577  1
  Nb  Nb121  1  0.09691995  0.89579085  0.90014879  1
  Nb  Nb122  1  0.30189202  0.70266073  0.69488728  1
  Nb  Nb123  1  0.50008688  0.49908241  0.49546160  1
  Nb  Nb124  1  0.09769162  0.49742123  0.10362773  1
  Nb  Nb125  1  0.20080249  0.01306820  0.20516127  1
  Nb  Nb126  1  0.80468223  0.80169197  0.39638133  1
  Nb  Nb127  1  0.00047351  0.79655851  0.00228651  1
  Nb  Nb128  1  0.59464199  0.00241358  0.19824608  1
  Nb  Nb129  1  0.20037409  0.20190636  0.20554452  1
  Nb  Nb130  1  0.60083354  0.80369211  0.19840329  1
  Nb  Nb131  1  0.79570261  0.20348397  0.60465662  1
  Nb  Nb132  1  0.00484941  0.60165645  0.00669169  1
  Nb  Nb133  1  0.40245413  0.00721022  0.60677893  1
  Nb  Nb134  1  0.59373772  0.59864878  0.80039311  1
  Nb  Nb135  1  0.80950387  -0.00182022  0.39334695  1
  Nb  Nb136  1  0.00372822  0.20522451  0.39454150  1
  Nb  Nb137  1  0.39862594  0.01043967  0.19909843  1
  Nb  Nb138  1  0.39999367  0.79486693  0.40575278  1
  Nb  Nb139  1  0.79765713  0.80095522  0.79919591  1
  Nb  Nb140  1  0.59568037  0.20437138  0.60733022  1
  Nb  Nb141  1  0.39918546  0.79044926  -0.01125201  1
  Nb  Nb142  1  0.59245193  0.39812785  0.20254398  1
  Nb  Nb143  1  0.60009026  0.40926148  0.39779525  1
  Nb  Nb144  1  0.40172303  0.20236037  0.61010242  1
  Nb  Nb145  1  0.39939301  0.39497120  0.19732584  1
  Nb  Nb146  1  0.81087997  0.79639240  -0.00240039  1
  Nb  Nb147  1  0.00359361  -0.00917572  -0.00351141  1
  Nb  Nb148  1  0.39286597  0.20353627  0.19734553  1
  Nb  Nb149  1  0.39809598  0.79169798  0.80051052  1
  Pd  Pd150  1  0.60347982  0.59438211  0.40126817  1
  Pd  Pd151  1  0.60009011  0.59775912  0.60073359  1
  Pd  Pd152  1  0.78809430  0.61019119  0.79780359  1
  Pd  Pd153  1  -0.00609478  0.21105389  0.59235528  1
  Pd  Pd154  1  0.39211875  -0.01482187  0.80153058  1
  Pd  Pd155  1  0.80768139  0.60526742  -0.00505346  1
  Pd  Pd156  1  0.59927539  0.39955755  0.59210763  1
  Pd  Pd157  1  0.80587143  0.20330069  0.00269702  1
  Pd  Pd158  1  0.80710432  0.20257234  0.19998685  1
  Pd  Pd159  1  0.20745429  0.20726428  0.60676416  1
  Pd  Pd160  1  0.81474114  0.19012558  0.40839207  1
  Pd  Pd161  1  0.19656168  -0.00327243  0.79729060  1
  Pd  Pd162  1  0.81128183  0.60445625  0.39608063  1
  Pd  Pd163  1  0.80437069  0.39697446  0.79612947  1
  Pd  Pd164  1  0.40773318  0.40096707  0.39057963  1
  Pd  Pd165  1  0.59919937  0.79806640  0.39490006  1
  Pd  Pd166  1  -0.00333869  0.59727140  0.39416150  1
  Pd  Pd167  1  0.20539246  0.59150841  0.20411989  1
  Pd  Pd168  1  0.20596734  0.80592354  0.40217885  1
  Pd  Pd169  1  0.61120299  0.00135394  0.39163793  1
  Pd  Pd170  1  0.59006890  0.40967408  0.80933469  1
  Pd  Pd171  1  0.19392518  0.59497872  0.78775457  1
  Pd  Pd172  1  0.60391113  0.79414715  0.01118787  1
  Pd  Pd173  1  0.79543400  0.39022555  0.19609446  1
  Pd  Pd174  1  0.20001115  0.78548970  0.00340482  1
  Pd  Pd175  1  0.80202699  0.00607639  0.59128007  1
  Pd  Pd176  1  0.39507508  0.20942157  -0.00593685  1
  Pd  Pd177  1  0.20300981  0.40504840  0.60021351  1
  Pd  Pd178  1  0.59270576  0.00036468  0.00161256  1
  Pd  Pd179  1  0.19408578  0.20236567  0.80474796  1
  Pd  Pd180  1  0.40012469  -0.01062862  -0.00269767  1
  Pd  Pd181  1  0.00605773  0.79642712  0.60287302  1
  Pd  Pd182  1  0.80103370  -0.00703003  0.79647133  1
  Pd  Pd183  1  0.79367810  0.01688498  0.20669257  1
  Pd  Pd184  1  0.39144089  0.39756656  0.60281727  1
  Pd  Pd185  1  0.00735306  0.59770383  0.59796176  1
  Pd  Pd186  1  0.38860839  0.58820348  0.19276840  1
  Pd  Pd187  1  0.19494523  0.60999314  0.00755322  1
  Pd  Pd188  1  0.19339600  0.20506056  -0.00164986  1
  Pd  Pd189  1  0.00234102  0.20874326  0.20362829  1
  Pd  Pd190  1  0.01131573  -0.00210389  0.19000361  1
  Pd  Pd191  1  0.01045392  0.80306867  0.19896983  1
  Pd  Pd192  1  -0.00424916  0.40683034  0.00146527  1
  Pd  Pd193  1  0.00064326  0.00867821  0.40714628  1
  Pd  Pd194  1  0.39727929  0.39213124  -0.00157009  1
  Pd  Pd195  1  0.60192200  0.00239905  0.80557790  1
  Pd  Pd196  1  0.19008568  0.00289222  0.00720751  1
  Pd  Pd197  1  0.60665977  0.19963131  0.80835529  1
  Pd  Pd198  1  0.59759416  0.20547884  -0.01470833  1
  Pd  Pd199  1  0.39791436  0.58829779  0.59972030  1
  Rh  Rh200  1  0.39882258  0.40191540  0.80423419  1
  Rh  Rh201  1  0.59852073  0.21120208  0.41391917  1
  Rh  Rh202  1  0.39370352  0.60366578  0.40467021  1
  Rh  Rh203  1  0.38437158  0.60583162  0.00948049  1
  Rh  Rh204  1  0.19721955  0.39514157  -0.00650472  1
  Rh  Rh205  1  0.00364493  0.39754272  0.59707234  1
  Rh  Rh206  1  -0.00294201  0.19222452  -0.00802844  1
  Rh  Rh207  1  0.59826796  0.78976166  0.59447094  1
  Rh  Rh208  1  0.59084395  0.20115298  0.20222869  1
  Rh  Rh209  1  0.80720749  0.59945049  0.20264416  1
  Rh  Rh210  1  0.19450809  0.80750056  0.21519110  1
  Rh  Rh211  1  0.40683411  0.60087033  0.78691458  1
  Rh  Rh212  1  0.40267944  0.81122326  0.59768525  1
  Rh  Rh213  1  0.19403245  0.40185477  0.80127960  1
  Rh  Rh214  1  0.79415623  0.40770978  0.39613932  1
  Rh  Rh215  1  0.20439017  0.40056550  0.20840032  1
  Rh  Rh216  1  0.80538136  0.79549715  0.59808220  1
  Rh  Rh217  1  0.19208144  0.20461201  0.39683711  1
  Rh  Rh218  1  0.79780243  0.20527273  0.79470306  1
  Rh  Rh219  1  -0.00538678  0.79755664  0.79575860  1
  Rh  Rh220  1  0.58971116  0.01457084  0.60451579  1
  Rh  Rh221  1  0.19783598  0.59129866  0.39577734  1
  Rh  Rh222  1  0.20660308  0.79714568  0.79288855  1
  Rh  Rh223  1  0.59538167  0.39616448  -0.00145899  1
  Rh  Rh224  1  0.00683308  -0.00087770  0.60184209  1
  Rh  Rh225  1  0.00447676  0.40499617  0.79869051  1
  Rh  Rh226  1  0.20064841  0.59714178  0.60020893  1
  Rh  Rh227  1  0.80394504  0.39565603  0.60693081  1
  Rh  Rh228  1  0.19859404  -0.00359550  0.39547628  1
  Rh  Rh229  1  0.39189340  0.20713709  0.80644237  1
  Rh  Rh230  1  0.00054115  0.59473870  0.20137376  1
  Rh  Rh231  1  0.80366279  0.39682784  0.00391153  1
  Rh  Rh232  1  0.39684745  0.20736903  0.40680394  1
  Rh  Rh233  1  0.19340182  0.79872372  0.59948462  1
  Rh  Rh234  1  0.79250941  0.79149740  0.19631109  1
  Rh  Rh235  1  0.60129994  0.59700933  0.19385861  1
  Rh  Rh236  1  -0.00290020  0.39827770  0.20070585  1
  Rh  Rh237  1  0.80484477  0.60325685  0.59825939  1
  Rh  Rh238  1  -0.00361388  0.79121215  0.39694894  1
  Rh  Rh239  1  0.40778298  0.80830815  0.20224414  1
  Rh  Rh240  1  0.39684818  -0.01107077  0.40845225  1
  Rh  Rh241  1  0.81353206  -0.00544530  0.00019943  1
  Rh  Rh242  1  0.00546813  0.19893326  0.79967778  1
  Rh  Rh243  1  0.00381889  0.00252144  0.80042521  1
  Rh  Rh244  1  0.20278914  0.00033065  0.60616552  1
  Rh  Rh245  1  0.00774530  0.59294343  0.80123589  1
  Rh  Rh246  1  0.60440588  0.59676744  -0.00605418  1
  Rh  Rh247  1  0.19170553  0.40803582  0.39877225  1
  Rh  Rh248  1  0.00821034  0.39793659  0.40318575  1
  Rh  Rh249  1  0.60020157  0.78473901  0.78700278  1
