# generated using pymatgen
data_ZrScNbPdRh
_symmetry_space_group_name_H-M   'P 1'
_cell_length_a   16.55409415
_cell_length_b   16.55371516
_cell_length_c   16.55505292
_cell_angle_alpha   90.00709172
_cell_angle_beta   90.00043917
_cell_angle_gamma   89.99559584
_symmetry_Int_Tables_number   1
_chemical_formula_structural   ZrScNbPdRh
_chemical_formula_sum   'Zr50 Sc50 Nb50 Pd50 Rh50'
_cell_volume   4536.61022877
_cell_formula_units_Z   50
loop_
 _symmetry_equiv_pos_site_id
 _symmetry_equiv_pos_as_xyz
  1  'x, y, z'
loop_
 _atom_site_type_symbol
 _atom_site_label
 _atom_site_symmetry_multiplicity
 _atom_site_fract_x
 _atom_site_fract_y
 _atom_site_fract_z
 _atom_site_occupancy
  Zr  Zr0  1  0.09497987  0.69497642  0.70592449  1
  Zr  Zr1  1  0.70751792  0.69301873  0.90495855  1
  Zr  Zr2  1  0.09467872  0.50175501  0.30186491  1
  Zr  Zr3  1  0.49792813  0.69702018  0.49861080  1
  Zr  Zr4  1  0.70656451  0.09328459  0.30579984  1
  Zr  Zr5  1  0.30310506  0.70102735  0.90388385  1
  Zr  Zr6  1  0.10114633  0.90306370  0.10514263  1
  Zr  Zr7  1  0.10409502  0.90380304  0.90811259  1
  Zr  Zr8  1  0.50124458  0.10096448  0.71168900  1
  Zr  Zr9  1  0.70011760  0.90153574  0.69419392  1
  Zr  Zr10  1  0.10007002  0.90238272  0.49234078  1
  Zr  Zr11  1  0.30087744  0.29689446  0.28974682  1
  Zr  Zr12  1  0.29694992  0.29820224  0.51158180  1
  Zr  Zr13  1  0.70365145  0.90430239  0.09094229  1
  Zr  Zr14  1  0.09669346  0.70232087  0.09454578  1
  Zr  Zr15  1  0.70928033  0.90263352  0.50100614  1
  Zr  Zr16  1  0.70555062  0.30088324  0.50809273  1
  Zr  Zr17  1  0.11213594  0.30356563  0.69997547  1
  Zr  Zr18  1  0.09085491  0.30011259  0.49674129  1
  Zr  Zr19  1  0.90910233  0.70153195  0.90215002  1
  Zr  Zr20  1  0.69512071  0.49991548  0.89683999  1
  Zr  Zr21  1  0.70034297  0.69339028  0.69707019  1
  Zr  Zr22  1  0.31305763  0.90037904  0.70297362  1
  Zr  Zr23  1  0.08796317  0.50283404  0.49923612  1
  Zr  Zr24  1  0.10394542  0.29337558  0.09755457  1
  Zr  Zr25  1  0.89980896  0.49652648  0.50367626  1
  Zr  Zr26  1  0.09534977  0.89985295  0.30026567  1
  Zr  Zr27  1  0.29652840  0.11203045  0.69893212  1
  Zr  Zr28  1  0.70997793  0.89841505  0.30505465  1
  Zr  Zr29  1  0.29705815  0.09720502  0.49755421  1
  Zr  Zr30  1  0.90293650  0.90772507  0.30668777  1
  Zr  Zr31  1  0.69357146  0.89915492  0.90286289  1
  Zr  Zr32  1  0.89909745  0.90004694  0.69714193  1
  Zr  Zr33  1  0.10181680  0.70123363  0.50019283  1
  Zr  Zr34  1  0.90203388  0.89769032  0.10139070  1
  Zr  Zr35  1  0.90417795  0.30594095  0.50434716  1
  Zr  Zr36  1  0.89971444  0.89786567  0.90216108  1
  Zr  Zr37  1  0.50008569  0.29767661  0.29347935  1
  Zr  Zr38  1  0.10062438  0.49311025  0.09100374  1
  Zr  Zr39  1  0.50550978  0.50311263  0.70384512  1
  Zr  Zr40  1  0.69522343  0.09288353  0.50609935  1
  Zr  Zr41  1  0.10139990  0.30180850  0.90425512  1
  Zr  Zr42  1  0.30359992  0.31023505  0.09402374  1
  Zr  Zr43  1  0.49679968  0.70347662  0.70484643  1
  Zr  Zr44  1  0.89286889  0.29804867  0.70515177  1
  Zr  Zr45  1  0.29382457  0.90048225  0.09348804  1
  Zr  Zr46  1  0.90740283  0.29704720  0.09898117  1
  Zr  Zr47  1  0.30024382  0.49833815  0.91012375  1
  Zr  Zr48  1  0.10208486  0.10470915  0.89602237  1
  Zr  Zr49  1  0.70491715  0.30622489  0.29580289  1
  Sc  Sc50  1  0.09956056  0.09747768  0.50347558  1
  Sc  Sc51  1  0.69940286  0.29507618  0.70438331  1
  Sc  Sc52  1  0.49210752  0.89659413  0.29295451  1
  Sc  Sc53  1  0.49857501  0.50627585  0.90221856  1
  Sc  Sc54  1  0.29597480  0.90024602  0.30187467  1
  Sc  Sc55  1  0.50104448  0.50426411  0.49956293  1
  Sc  Sc56  1  0.69690234  0.09821821  0.90233733  1
  Sc  Sc57  1  0.70645598  0.51060097  0.50375877  1
  Sc  Sc58  1  0.69706030  0.70155826  0.09622180  1
  Sc  Sc59  1  0.89763148  0.69821576  0.09204047  1
  Sc  Sc60  1  0.50243552  0.29674811  0.88685232  1
  Sc  Sc61  1  0.29682242  0.90064847  0.50099838  1
  Sc  Sc62  1  0.70196236  0.29762550  0.88594066  1
  Sc  Sc63  1  0.30505464  0.09419192  0.29768654  1
  Sc  Sc64  1  0.50003410  0.69873234  0.90413232  1
  Sc  Sc65  1  0.10451651  0.70308028  0.30580362  1
  Sc  Sc66  1  0.49302711  0.09383256  0.30114716  1
  Sc  Sc67  1  0.30835062  0.70198274  0.30707001  1
  Sc  Sc68  1  0.70827399  0.30008625  0.10583918  1
  Sc  Sc69  1  0.89616221  0.50129719  0.30163214  1
  Sc  Sc70  1  0.50105117  0.89055107  0.09659825  1
  Sc  Sc71  1  0.89575810  0.50823541  0.89966811  1
  Sc  Sc72  1  0.09487811  0.09940569  0.70300307  1
  Sc  Sc73  1  0.08918655  0.29534503  0.29107309  1
  Sc  Sc74  1  0.70390790  0.49866023  0.70745378  1
  Sc  Sc75  1  0.91156280  0.10044841  0.50483481  1
  Sc  Sc76  1  0.50109719  0.09540271  0.50134770  1
  Sc  Sc77  1  0.90806131  0.50591360  0.09933094  1
  Sc  Sc78  1  0.09159106  0.09452798  0.30101677  1
  Sc  Sc79  1  0.09814815  0.90845707  0.69977097  1
  Sc  Sc80  1  0.29965031  0.71386960  0.49803673  1
  Sc  Sc81  1  0.90369287  0.30243252  0.29630733  1
  Sc  Sc82  1  0.88911506  0.69050771  0.50420496  1
  Sc  Sc83  1  0.29338020  0.29657979  0.89626362  1
  Sc  Sc84  1  0.69736345  0.50584607  0.10019935  1
  Sc  Sc85  1  0.30454689  0.70592698  0.09275503  1
  Sc  Sc86  1  0.89463802  0.69947391  0.29543716  1
  Sc  Sc87  1  0.29538258  0.09945124  0.89166989  1
  Sc  Sc88  1  0.90066006  0.50291242  0.69663505  1
  Sc  Sc89  1  0.49198963  0.29803720  0.50471818  1
  Sc  Sc90  1  0.30090294  0.49563219  0.50010406  1
  Sc  Sc91  1  0.29184891  0.10001394  0.10073416  1
  Sc  Sc92  1  0.70182795  0.68980057  0.29604317  1
  Sc  Sc93  1  0.30260617  0.70914043  0.70217903  1
  Sc  Sc94  1  0.49115011  0.50203721  0.09436023  1
  Sc  Sc95  1  0.89728213  0.69726595  0.70581583  1
  Sc  Sc96  1  0.09769557  0.50105346  0.70441917  1
  Sc  Sc97  1  0.49431630  0.90330936  0.50621930  1
  Sc  Sc98  1  0.49922671  0.51495744  0.29441453  1
  Sc  Sc99  1  0.49585605  0.08686359  0.10327634  1
  Nb  Nb100  1  0.10332659  0.50488407  0.89523224  1
  Nb  Nb101  1  0.29799135  0.49651707  0.29449183  1
  Nb  Nb102  1  0.49925428  0.09882286  0.90132519  1
  Nb  Nb103  1  0.69876592  0.49363186  0.30117143  1
  Nb  Nb104  1  0.90512322  0.09897551  0.71225675  1
  Nb  Nb105  1  0.50081401  0.69919493  0.10536189  1
  Nb  Nb106  1  0.90297329  0.10326855  0.30073729  1
  Nb  Nb107  1  0.30081650  0.89687137  0.90526596  1
  Nb  Nb108  1  0.89749340  0.29622348  0.89607166  1
  Nb  Nb109  1  0.89472179  0.10228838  0.09835857  1
  Nb  Nb110  1  0.49709560  0.30095412  0.70088546  1
  Nb  Nb111  1  0.50181214  0.89780404  0.70780318  1
  Nb  Nb112  1  0.90148645  0.89693296  0.50205412  1
  Nb  Nb113  1  0.10032500  0.69476462  0.89759101  1
  Nb  Nb114  1  0.49753997  0.90736331  0.89107704  1
  Nb  Nb115  1  0.69579742  0.70092151  0.50464680  1
  Nb  Nb116  1  0.90337493  0.11014070  0.89249956  1
  Nb  Nb117  1  0.30062600  0.49826019  0.10220079  1
  Nb  Nb118  1  0.70041470  0.09794954  0.09937943  1
  Nb  Nb119  1  0.70355433  0.10074590  0.69640029  1
  Nb  Nb120  1  0.50225383  0.70671244  0.30105658  1
  Nb  Nb121  1  0.50057864  0.29903628  0.09556817  1
  Nb  Nb122  1  0.29698944  0.49056444  0.69642019  1
  Nb  Nb123  1  0.09486519  0.09738195  0.09705011  1
  Nb  Nb124  1  0.30472440  0.30580782  0.69561711  1
  Nb  Nb125  1  0.20061737  0.20535576  0.39950781  1
  Nb  Nb126  1  0.39525676  0.39934102  0.79212933  1
  Nb  Nb127  1  0.80191340  0.00481172  0.79724320  1
  Nb  Nb128  1  0.60089102  0.39126017  0.00035844  1
  Nb  Nb129  1  0.20207216  0.39640168  0.39460025  1
  Nb  Nb130  1  0.59713365  0.19935158  0.00632629  1
  Nb  Nb131  1  0.00050351  0.39765858  0.80749168  1
  Nb  Nb132  1  0.60575687  0.20469581  0.39698997  1
  Nb  Nb133  1  0.40645469  0.19631389  -0.00322820  1
  Nb  Nb134  1  0.79987633  0.39629513  -0.00472554  1
  Nb  Nb135  1  0.20424208  0.59943471  0.60124929  1
  Nb  Nb136  1  -0.00386447  0.80170795  0.59613576  1
  Nb  Nb137  1  0.80095597  0.19832149  0.40223538  1
  Nb  Nb138  1  0.60945830  -0.00076189  0.19822870  1
  Nb  Nb139  1  0.39986558  -0.00273533  -0.00966141  1
  Nb  Nb140  1  0.60280722  0.19289294  0.19790853  1
  Nb  Nb141  1  0.59898010  0.39887351  0.60036762  1
  Nb  Nb142  1  0.20601565  0.59323890  0.19781673  1
  Nb  Nb143  1  0.60088472  0.80005108  0.59847515  1
  Nb  Nb144  1  -0.00392870  0.00905492  0.00177415  1
  Nb  Nb145  1  0.39786310  0.39982864  0.39295404  1
  Nb  Nb146  1  0.39377080  0.59787742  0.60464388  1
  Nb  Nb147  1  0.60008077  0.40023684  0.39986515  1
  Nb  Nb148  1  0.19879605  0.80123895  0.80816326  1
  Nb  Nb149  1  0.60062708  0.79506094  0.40208553  1
  Pd  Pd150  1  0.80289570  -0.00032806  0.19897876  1
  Pd  Pd151  1  0.20549137  0.78850984  0.20426448  1
  Pd  Pd152  1  -0.00922318  0.79112545  0.40579502  1
  Pd  Pd153  1  0.80788158  0.00830030  -0.01049516  1
  Pd  Pd154  1  0.20964914  0.59568041  0.40130257  1
  Pd  Pd155  1  0.81105807  0.01025831  0.60183252  1
  Pd  Pd156  1  0.39269931  0.59551495  0.40520855  1
  Pd  Pd157  1  -0.01086240  0.60830257  0.39728356  1
  Pd  Pd158  1  0.00634951  0.60441982  0.20057588  1
  Pd  Pd159  1  0.00221063  0.20110788  0.60993569  1
  Pd  Pd160  1  0.40682668  0.19136948  0.60099487  1
  Pd  Pd161  1  0.59378994  0.40351327  0.19534767  1
  Pd  Pd162  1  0.20519824  -0.00545362  0.79558517  1
  Pd  Pd163  1  0.59996227  0.59948089  0.19608348  1
  Pd  Pd164  1  0.79879492  0.39932431  0.40265117  1
  Pd  Pd165  1  0.79159496  0.20474530  -0.00537896  1
  Pd  Pd166  1  -0.00399113  0.79343745  0.20217994  1
  Pd  Pd167  1  0.80819689  0.41054429  0.18921458  1
  Pd  Pd168  1  -0.00027379  0.19566950  -0.00027313  1
  Pd  Pd169  1  0.40312195  0.00567610  0.60554137  1
  Pd  Pd170  1  0.79544930  0.80212192  0.80243943  1
  Pd  Pd171  1  0.60635837  0.59841522  0.39632852  1
  Pd  Pd172  1  0.39255148  0.79993814  0.19848186  1
  Pd  Pd173  1  0.40982806  0.40694426  0.20219432  1
  Pd  Pd174  1  0.59426237  0.79658677  -0.00371814  1
  Pd  Pd175  1  0.79882675  0.59537633  0.19526109  1
  Pd  Pd176  1  0.39089252  0.59300265  0.79577131  1
  Pd  Pd177  1  0.39981572  -0.00750307  0.39976318  1
  Pd  Pd178  1  0.60991950  0.00559158  0.79689939  1
  Pd  Pd179  1  0.40371856  0.19217662  0.18789725  1
  Pd  Pd180  1  0.59013100  -0.00884834  0.39323283  1
  Pd  Pd181  1  0.19219798  0.79891543  0.61047894  1
  Pd  Pd182  1  0.19370615  0.18968414  0.20599199  1
  Pd  Pd183  1  0.18946029  0.40865939  0.59038239  1
  Pd  Pd184  1  0.21040397  0.60292676  0.79331603  1
  Pd  Pd185  1  0.19035170  0.40214879  0.20223498  1
  Pd  Pd186  1  0.20167846  0.60200447  0.00741963  1
  Pd  Pd187  1  0.60398371  0.79391583  0.80023312  1
  Pd  Pd188  1  0.39412481  0.60734037  0.19599630  1
  Pd  Pd189  1  0.39897526  0.20302302  0.40265440  1
  Pd  Pd190  1  -0.00905110  0.40551829  -0.00918959  1
  Pd  Pd191  1  0.79847710  0.78926019  0.40252097  1
  Pd  Pd192  1  0.19989399  0.00520822  0.20507790  1
  Pd  Pd193  1  0.80848565  0.19288186  0.59810657  1
  Pd  Pd194  1  0.00743700  0.80702015  0.79578275  1
  Pd  Pd195  1  0.79802659  0.79641485  0.19473891  1
  Pd  Pd196  1  0.80138187  0.19735988  0.20553569  1
  Pd  Pd197  1  0.20028878  0.00014948  0.60459336  1
  Pd  Pd198  1  0.60682829  0.80481561  0.20663007  1
  Pd  Pd199  1  0.59302451  0.20364432  0.59864372  1
  Rh  Rh200  1  -0.00887929  0.00750982  0.19318884  1
  Rh  Rh201  1  0.20147328  0.40007992  -0.00286127  1
  Rh  Rh202  1  0.00541454  0.80443368  0.00141765  1
  Rh  Rh203  1  0.00440827  0.59818613  -0.00552441  1
  Rh  Rh204  1  0.79830961  0.79612539  0.00135956  1
  Rh  Rh205  1  0.39719235  0.80324626  0.81014121  1
  Rh  Rh206  1  0.20165612  0.80587813  0.39486683  1
  Rh  Rh207  1  0.80961037  0.40380590  0.80490385  1
  Rh  Rh208  1  -0.00134865  -0.00609724  0.59898129  1
  Rh  Rh209  1  0.00406434  0.60814827  0.59967555  1
  Rh  Rh210  1  0.80079893  0.79464532  0.59833796  1
  Rh  Rh211  1  0.60388478  0.19428079  0.80049658  1
  Rh  Rh212  1  0.41288175  0.40902926  0.60238521  1
  Rh  Rh213  1  0.39531341  0.00231253  0.80239765  1
  Rh  Rh214  1  0.39576688  0.20677321  0.80321162  1
  Rh  Rh215  1  0.00775678  0.21145932  0.79444520  1
  Rh  Rh216  1  0.40724713  0.39000962  -0.01360702  1
  Rh  Rh217  1  0.00050195  0.39828566  0.39182218  1
  Rh  Rh218  1  0.19946329  0.20406000  0.79581676  1
  Rh  Rh219  1  0.79551543  0.59780853  0.39776954  1
  Rh  Rh220  1  0.59442820  0.59706979  0.00451756  1
  Rh  Rh221  1  0.40680363  0.80608667  0.40078757  1
  Rh  Rh222  1  -0.00431079  0.59010779  0.80393791  1
  Rh  Rh223  1  0.80289107  0.60160759  0.80043007  1
  Rh  Rh224  1  0.19873547  0.00720890  0.39681164  1
  Rh  Rh225  1  0.20169887  0.40272201  0.80648701  1
  Rh  Rh226  1  -0.00612505  -0.00145606  0.81033740  1
  Rh  Rh227  1  0.20015107  0.00916862  -0.00086767  1
  Rh  Rh228  1  -0.00167012  0.19297732  0.19644397  1
  Rh  Rh229  1  0.19278579  0.79327540  -0.00535688  1
  Rh  Rh230  1  0.40932200  0.79708537  0.59788941  1
  Rh  Rh231  1  0.40218853  0.60555421  0.00823256  1
  Rh  Rh232  1  0.59162200  0.39961000  0.79804109  1
  Rh  Rh233  1  0.79973330  0.59754471  0.60414399  1
  Rh  Rh234  1  0.41099960  0.80396897  -0.00398130  1
  Rh  Rh235  1  0.79233707  0.18925482  0.80069170  1
  Rh  Rh236  1  -0.00181043  0.19918764  0.39661277  1
  Rh  Rh237  1  0.79271849  0.40481800  0.60727823  1
  Rh  Rh238  1  -0.00065956  0.40218727  0.19787542  1
  Rh  Rh239  1  0.81492176  0.00990320  0.41054451  1
  Rh  Rh240  1  0.60334727  0.60647503  0.80503084  1
  Rh  Rh241  1  0.20633452  0.19723535  0.00272197  1
  Rh  Rh242  1  0.59112593  -0.00540203  0.60928956  1
  Rh  Rh243  1  0.59537906  0.60014648  0.60488601  1
  Rh  Rh244  1  0.39814023  -0.00975773  0.18896479  1
  Rh  Rh245  1  0.19379400  0.19610469  0.59656766  1
  Rh  Rh246  1  -0.00137694  0.00251144  0.40384351  1
  Rh  Rh247  1  0.59039371  0.00221043  0.00527536  1
  Rh  Rh248  1  0.79942798  0.59405007  0.00336684  1
  Rh  Rh249  1  -0.00026532  0.39802208  0.61599773  1
