# generated using pymatgen
data_ZrScNbPdRh
_symmetry_space_group_name_H-M   'P 1'
_cell_length_a   16.55878580
_cell_length_b   16.56010020
_cell_length_c   16.56195498
_cell_angle_alpha   89.96341830
_cell_angle_beta   89.97526705
_cell_angle_gamma   89.98821063
_symmetry_Int_Tables_number   1
_chemical_formula_structural   ZrScNbPdRh
_chemical_formula_sum   'Zr50 Sc50 Nb50 Pd50 Rh50'
_cell_volume   4541.53755954
_cell_formula_units_Z   50
loop_
 _symmetry_equiv_pos_site_id
 _symmetry_equiv_pos_as_xyz
  1  'x, y, z'
loop_
 _atom_site_type_symbol
 _atom_site_label
 _atom_site_symmetry_multiplicity
 _atom_site_fract_x
 _atom_site_fract_y
 _atom_site_fract_z
 _atom_site_occupancy
  Zr  Zr0  1  0.49689090  0.49459629  0.50314452  1
  Zr  Zr1  1  0.69167808  0.49880228  0.51299698  1
  Zr  Zr2  1  0.30124813  0.69941742  0.68935009  1
  Zr  Zr3  1  0.50500760  0.48977143  0.89456178  1
  Zr  Zr4  1  0.29975365  0.09719309  0.10012279  1
  Zr  Zr5  1  0.69824639  0.11395528  0.30404446  1
  Zr  Zr6  1  0.69191012  0.88749077  0.69466036  1
  Zr  Zr7  1  0.11322841  0.89904564  0.29973261  1
  Zr  Zr8  1  0.09969319  0.49734253  0.89915958  1
  Zr  Zr9  1  0.69710795  0.49739840  0.29304060  1
  Zr  Zr10  1  0.89665271  0.70547781  0.10256472  1
  Zr  Zr11  1  0.50038246  0.29787360  0.70324153  1
  Zr  Zr12  1  0.50227603  0.29640535  0.09694906  1
  Zr  Zr13  1  0.09770387  0.90362290  0.09983478  1
  Zr  Zr14  1  0.50999498  0.49552435  0.69312638  1
  Zr  Zr15  1  0.89506064  0.70385858  0.70919038  1
  Zr  Zr16  1  0.90788266  0.50833988  0.49263808  1
  Zr  Zr17  1  0.09870605  0.70458173  0.29901972  1
  Zr  Zr18  1  0.90031563  0.89418233  0.29666431  1
  Zr  Zr19  1  0.70554602  0.10190178  0.89877725  1
  Zr  Zr20  1  0.48297209  0.70440037  0.50093683  1
  Zr  Zr21  1  0.10013513  0.30418938  0.89208931  1
  Zr  Zr22  1  0.69912943  0.49691887  0.09868301  1
  Zr  Zr23  1  0.29549894  0.29764655  0.10539089  1
  Zr  Zr24  1  0.10611335  0.10439412  0.50115570  1
  Zr  Zr25  1  0.10009991  0.70222337  0.90224966  1
  Zr  Zr26  1  0.29399606  0.49896371  0.90304944  1
  Zr  Zr27  1  0.89248373  0.70005227  0.49704584  1
  Zr  Zr28  1  0.70415429  0.30050573  0.11309551  1
  Zr  Zr29  1  0.49559881  0.69609403  0.09961413  1
  Zr  Zr30  1  0.29401001  0.71645270  0.31394561  1
  Zr  Zr31  1  0.89369697  0.50454396  0.90815130  1
  Zr  Zr32  1  0.90609808  0.09836118  0.09289615  1
  Zr  Zr33  1  0.30210000  0.89591188  0.48400524  1
  Zr  Zr34  1  0.70421065  0.49894862  0.89919496  1
  Zr  Zr35  1  0.29595664  0.29891322  0.30285298  1
  Zr  Zr36  1  0.49964524  0.90064781  0.08796135  1
  Zr  Zr37  1  0.29672712  0.70580299  0.90387680  1
  Zr  Zr38  1  0.10329840  0.49809684  0.70019004  1
  Zr  Zr39  1  0.90064313  0.10804870  0.29786294  1
  Zr  Zr40  1  0.51008596  0.29958963  0.30669118  1
  Zr  Zr41  1  0.29744508  0.70236972  0.09615129  1
  Zr  Zr42  1  0.09681537  0.10333733  0.90353278  1
  Zr  Zr43  1  0.10750105  0.30083964  0.49568612  1
  Zr  Zr44  1  0.49796928  0.29120250  0.89596104  1
  Zr  Zr45  1  0.09808206  0.68079748  0.50252222  1
  Zr  Zr46  1  0.50353676  0.50157930  0.29530366  1
  Zr  Zr47  1  0.90816051  0.09768269  0.50223508  1
  Zr  Zr48  1  0.49833810  0.69864461  0.29588506  1
  Zr  Zr49  1  0.30413281  0.29610322  0.50106452  1
  Sc  Sc50  1  0.89539683  0.90386286  0.90590897  1
  Sc  Sc51  1  0.10960155  0.09811691  0.69349585  1
  Sc  Sc52  1  0.70412248  0.89184521  0.09357437  1
  Sc  Sc53  1  0.50004031  0.10207898  0.69624892  1
  Sc  Sc54  1  0.69739054  0.30104038  0.89920379  1
  Sc  Sc55  1  0.09692407  0.91624902  0.49688629  1
  Sc  Sc56  1  0.29491391  0.50478047  0.10054188  1
  Sc  Sc57  1  0.49789725  0.29668775  0.50339355  1
  Sc  Sc58  1  0.69726454  0.71233053  0.50341512  1
  Sc  Sc59  1  0.49782331  0.10208583  0.08817721  1
  Sc  Sc60  1  0.69737332  0.70350091  0.10231078  1
  Sc  Sc61  1  0.29621067  0.89930726  0.69866556  1
  Sc  Sc62  1  0.89434036  0.10167563  0.90745035  1
  Sc  Sc63  1  0.30517723  0.48967445  0.69382455  1
  Sc  Sc64  1  0.29192669  0.50279305  0.50107790  1
  Sc  Sc65  1  0.50247832  0.71254861  0.69233317  1
  Sc  Sc66  1  0.10610784  0.89319221  0.89645086  1
  Sc  Sc67  1  0.09826676  0.70498296  0.70526408  1
  Sc  Sc68  1  0.50437296  0.09995301  0.31218918  1
  Sc  Sc69  1  0.50728542  0.10322589  0.89688727  1
  Sc  Sc70  1  0.89356872  0.30081197  0.89911277  1
  Sc  Sc71  1  0.11382755  0.29866798  0.70174933  1
  Sc  Sc72  1  0.50121215  0.90456301  0.30404197  1
  Sc  Sc73  1  0.69787688  0.10566757  0.70311359  1
  Sc  Sc74  1  0.09949155  0.50022818  0.10173338  1
  Sc  Sc75  1  0.10165546  0.10309804  0.30121685  1
  Sc  Sc76  1  0.69695042  0.90453392  0.89996733  1
  Sc  Sc77  1  0.50728323  0.90481104  0.50576454  1
  Sc  Sc78  1  0.90121468  0.70233739  0.90726201  1
  Sc  Sc79  1  0.90386459  0.30216984  0.29121648  1
  Sc  Sc80  1  0.71228082  0.69841870  0.90260274  1
  Sc  Sc81  1  0.89729727  0.29243195  0.50700015  1
  Sc  Sc82  1  0.09106121  0.49025205  0.30504833  1
  Sc  Sc83  1  0.69609229  0.89274658  0.30384149  1
  Sc  Sc84  1  0.89286267  0.49189823  0.70901307  1
  Sc  Sc85  1  0.30138903  0.10104241  0.69544544  1
  Sc  Sc86  1  0.29949040  0.10437976  0.89939180  1
  Sc  Sc87  1  0.29792444  0.29546383  0.89132679  1
  Sc  Sc88  1  0.09457767  0.70417691  0.09458725  1
  Sc  Sc89  1  0.10240011  0.90013964  0.70519840  1
  Sc  Sc90  1  0.69937153  0.29473433  0.50488904  1
  Sc  Sc91  1  0.10314777  0.30224964  0.29359856  1
  Sc  Sc92  1  0.89742923  0.50265604  0.10580083  1
  Sc  Sc93  1  0.09675302  0.10608267  0.09646274  1
  Sc  Sc94  1  0.09829830  0.29875373  0.10722286  1
  Sc  Sc95  1  0.90300624  0.29795286  0.10249835  1
  Sc  Sc96  1  0.70187718  0.70277135  0.29823716  1
  Sc  Sc97  1  0.29514335  0.49749368  0.30279241  1
  Sc  Sc98  1  0.89717342  0.89665240  0.70569003  1
  Sc  Sc99  1  0.89315730  0.10617105  0.69665529  1
  Nb  Nb100  1  0.09487385  0.49503721  0.50496827  1
  Nb  Nb101  1  0.50001748  0.50144269  0.10395238  1
  Nb  Nb102  1  0.29525849  0.70280461  0.49912456  1
  Nb  Nb103  1  0.89717543  0.90592722  0.10068409  1
  Nb  Nb104  1  0.69664148  0.50180079  0.70119950  1
  Nb  Nb105  1  0.71229294  0.30220677  0.69698160  1
  Nb  Nb106  1  0.49894623  0.89843990  0.70488269  1
  Nb  Nb107  1  0.30616272  0.09375894  0.30079515  1
  Nb  Nb108  1  0.49346650  0.70098088  0.90058444  1
  Nb  Nb109  1  0.49604051  0.89063176  0.89414513  1
  Nb  Nb110  1  0.69909518  0.69561415  0.69927527  1
  Nb  Nb111  1  0.31067014  0.10181657  0.49355518  1
  Nb  Nb112  1  0.70664659  0.09898716  0.10213719  1
  Nb  Nb113  1  0.50566966  0.10065683  0.49960207  1
  Nb  Nb114  1  0.69669308  0.09301101  0.49883960  1
  Nb  Nb115  1  0.70472934  0.30083691  0.30049207  1
  Nb  Nb116  1  0.30010793  0.90473775  0.10127583  1
  Nb  Nb117  1  0.89798597  0.69154097  0.30469642  1
  Nb  Nb118  1  0.30320936  0.89407890  0.90551062  1
  Nb  Nb119  1  0.30829704  0.28891573  0.69894323  1
  Nb  Nb120  1  0.89422857  0.89693419  0.49894746  1
  Nb  Nb121  1  0.70615428  0.90038662  0.49724914  1
  Nb  Nb122  1  0.89531024  0.50271872  0.30192581  1
  Nb  Nb123  1  0.29867610  0.90757011  0.29090148  1
  Nb  Nb124  1  0.89938073  0.29685393  0.69986114  1
  Nb  Nb125  1  0.39843851  0.19901083  0.20659134  1
  Nb  Nb126  1  0.20352433  0.59957794  0.79972184  1
  Nb  Nb127  1  -0.00157224  0.80071158  0.59250391  1
  Nb  Nb128  1  0.19588124  0.79646966  0.58918269  1
  Nb  Nb129  1  0.40483726  -0.01112300  0.80365375  1
  Nb  Nb130  1  0.40241071  0.39941520  0.00452092  1
  Nb  Nb131  1  0.79913028  0.00029990  0.40142780  1
  Nb  Nb132  1  0.39247316  0.81077875  0.19834496  1
  Nb  Nb133  1  0.79462628  0.60084843  0.60634319  1
  Nb  Nb134  1  0.79533788  -0.00446953  0.59262547  1
  Nb  Nb135  1  -0.00355141  0.79773802  0.40390180  1
  Nb  Nb136  1  0.19736883  0.60844542  0.20509451  1
  Nb  Nb137  1  0.00164709  0.59617230  0.80463944  1
  Nb  Nb138  1  0.79925210  0.40242160  0.39561469  1
  Nb  Nb139  1  0.40462582  0.60219550  0.80128116  1
  Nb  Nb140  1  0.60806702  0.00481163  0.19486841  1
  Nb  Nb141  1  -0.00105646  0.40124136  -0.00409995  1
  Nb  Nb142  1  -0.00015695  0.00756627  0.80262924  1
  Nb  Nb143  1  -0.00096552  0.19943628  0.79750208  1
  Nb  Nb144  1  0.59272211  0.59871083  -0.00495760  1
  Nb  Nb145  1  0.00167410  0.39985205  0.60138834  1
  Nb  Nb146  1  0.59498514  0.59963735  0.40414276  1
  Nb  Nb147  1  0.59847489  0.60433341  0.79999077  1
  Nb  Nb148  1  0.40395167  0.39794264  0.19695910  1
  Nb  Nb149  1  0.79749778  0.00173308  0.20075232  1
  Pd  Pd150  1  0.19753263  0.39383126  0.00582720  1
  Pd  Pd151  1  0.60473420  0.00142150  0.00005815  1
  Pd  Pd152  1  0.39464914  0.40111681  0.80268382  1
  Pd  Pd153  1  -0.00214477  0.79936315  0.20202339  1
  Pd  Pd154  1  0.79604818  0.60495528  0.19784959  1
  Pd  Pd155  1  -0.00839677  0.38936455  0.40479644  1
  Pd  Pd156  1  0.39932920  0.59456033  0.39928793  1
  Pd  Pd157  1  -0.00525566  0.80864277  -0.00261583  1
  Pd  Pd158  1  0.00456970  0.59656039  0.20195085  1
  Pd  Pd159  1  0.20217875  0.39486845  0.60120906  1
  Pd  Pd160  1  0.39307266  0.79824773  0.79290698  1
  Pd  Pd161  1  0.39636608  0.40267974  0.39765151  1
  Pd  Pd162  1  0.60555528  0.79133854  0.80834329  1
  Pd  Pd163  1  0.39946755  0.00331120  -0.01318653  1
  Pd  Pd164  1  -0.00315419  -0.00393580  0.39222725  1
  Pd  Pd165  1  0.59091202  0.19165857  0.19780066  1
  Pd  Pd166  1  0.79499033  0.80576443  0.80736467  1
  Pd  Pd167  1  0.40674864  -0.00210371  0.40264376  1
  Pd  Pd168  1  0.60317818  0.20142461  0.60171534  1
  Pd  Pd169  1  0.78222349  0.59553283  0.40736547  1
  Pd  Pd170  1  0.19780291  -0.00310699  -0.00499805  1
  Pd  Pd171  1  0.60361010  0.79089717  -0.00897458  1
  Pd  Pd172  1  0.39886058  -0.00306876  0.60380438  1
  Pd  Pd173  1  0.79801240  0.20733739  0.00322944  1
  Pd  Pd174  1  0.40414077  0.59043257  -0.00612009  1
  Pd  Pd175  1  0.59529140  0.00068379  0.79713594  1
  Pd  Pd176  1  0.39966069  0.59450041  0.60374348  1
  Pd  Pd177  1  0.79764292  0.39636349  0.80266176  1
  Pd  Pd178  1  0.20404749  0.19354694  0.39539287  1
  Pd  Pd179  1  0.61073742  0.19911860  0.00095796  1
  Pd  Pd180  1  0.20385886  0.00166589  0.80511381  1
  Pd  Pd181  1  0.80158304  0.20351726  0.40744153  1
  Pd  Pd182  1  0.59877986  0.39956907  0.00356346  1
  Pd  Pd183  1  0.41529487  0.00381999  0.19817531  1
  Pd  Pd184  1  0.38515273  0.60154404  0.20730425  1
  Pd  Pd185  1  0.80900421  0.40649467  0.59217294  1
  Pd  Pd186  1  0.19942792  0.20537607  -0.00036136  1
  Pd  Pd187  1  0.59348991  0.79474818  0.40518361  1
  Pd  Pd188  1  0.60815847  0.40014875  0.40537629  1
  Pd  Pd189  1  0.00133253  0.20961912  0.39631690  1
  Pd  Pd190  1  -0.01135961  0.59803862  0.61563494  1
  Pd  Pd191  1  0.59196738  0.80974155  0.19740408  1
  Pd  Pd192  1  0.60394077  -0.00062549  0.60441176  1
  Pd  Pd193  1  0.00894383  0.20698572  0.60955732  1
  Pd  Pd194  1  0.19380204  0.59066789  0.39431782  1
  Pd  Pd195  1  -0.00768825  -0.00741629  0.61278371  1
  Pd  Pd196  1  0.00038511  0.00492550  0.20310889  1
  Pd  Pd197  1  0.21023958  -0.00615581  0.59192546  1
  Pd  Pd198  1  0.19319659  0.00967889  0.19689406  1
  Pd  Pd199  1  0.80275983  0.00026038  0.79121262  1
  Rh  Rh200  1  0.00087653  0.21360529  -0.00837882  1
  Rh  Rh201  1  0.00106140  0.59396001  -0.00325721  1
  Rh  Rh202  1  0.60662071  0.20614231  0.79428613  1
  Rh  Rh203  1  0.79471480  0.19004307  0.59853478  1
  Rh  Rh204  1  0.39994771  0.18584614  0.79740357  1
  Rh  Rh205  1  0.60154144  0.61098567  0.59910834  1
  Rh  Rh206  1  0.80253398  0.80203680  0.00110600  1
  Rh  Rh207  1  -0.00382328  0.40497839  0.19293802  1
  Rh  Rh208  1  0.80354665  0.79965407  0.60643106  1
  Rh  Rh209  1  0.79244241  0.60432548  0.01128474  1
  Rh  Rh210  1  0.60130936  0.38480590  0.60676012  1
  Rh  Rh211  1  0.80292012  0.80090438  0.20122072  1
  Rh  Rh212  1  0.79536325  -0.00234729  0.00696565  1
  Rh  Rh213  1  0.40355946  0.19651147  0.39920663  1
  Rh  Rh214  1  -0.00361704  0.80492457  0.79958019  1
  Rh  Rh215  1  0.20952665  0.19836423  0.59668491  1
  Rh  Rh216  1  0.39806063  0.39421468  0.59762147  1
  Rh  Rh217  1  0.18305769  0.80270727  0.41310896  1
  Rh  Rh218  1  0.60622970  0.60378140  0.19724765  1
  Rh  Rh219  1  0.80595816  0.19649186  0.19553664  1
  Rh  Rh220  1  0.19968782  0.80957329  0.00690195  1
  Rh  Rh221  1  0.80626428  0.39623199  0.00851061  1
  Rh  Rh222  1  0.19850423  0.19523459  0.79516364  1
  Rh  Rh223  1  0.59624738  0.80042415  0.59422245  1
  Rh  Rh224  1  0.21353465  0.39993224  0.79209859  1
  Rh  Rh225  1  0.20173549  0.60082878  0.60449566  1
  Rh  Rh226  1  0.20223093  0.41128591  0.20109980  1
  Rh  Rh227  1  0.60784313  0.00028063  0.39520809  1
  Rh  Rh228  1  0.79927214  0.59979238  0.79467396  1
  Rh  Rh229  1  0.80282025  0.20286459  0.79915762  1
  Rh  Rh230  1  0.60141579  0.20386715  0.41088884  1
  Rh  Rh231  1  0.40341479  0.19437911  0.59677948  1
  Rh  Rh232  1  0.40710267  0.80967914  0.39294673  1
  Rh  Rh233  1  0.20734721  0.79432846  0.79224943  1
  Rh  Rh234  1  0.19143887  0.60479512  0.00452075  1
  Rh  Rh235  1  0.20619662  0.19064442  0.20471136  1
  Rh  Rh236  1  0.39287712  0.20590959  0.00167854  1
  Rh  Rh237  1  0.39258552  0.81205344  0.59654611  1
  Rh  Rh238  1  0.00582891  0.60185325  0.39010757  1
  Rh  Rh239  1  0.00403709  -0.00627056  -0.00756267  1
  Rh  Rh240  1  0.20542502  0.79927348  0.19077671  1
  Rh  Rh241  1  0.20446167  0.00877902  0.39989743  1
  Rh  Rh242  1  0.00259734  0.19815352  0.19914315  1
  Rh  Rh243  1  0.61010233  0.39411071  0.79150000  1
  Rh  Rh244  1  0.80609278  0.40036077  0.20594753  1
  Rh  Rh245  1  -0.00797070  0.39460265  0.79812515  1
  Rh  Rh246  1  0.39714836  0.80381840  0.00680939  1
  Rh  Rh247  1  0.59540678  0.39534307  0.19833788  1
  Rh  Rh248  1  0.19877023  0.40221271  0.40253755  1
  Rh  Rh249  1  0.80320333  0.80103071  0.38982908  1
