# generated using pymatgen
data_ZrScNbPdRh
_symmetry_space_group_name_H-M   'P 1'
_cell_length_a   16.55656570
_cell_length_b   16.55799720
_cell_length_c   16.56140393
_cell_angle_alpha   89.97049062
_cell_angle_beta   90.01274849
_cell_angle_gamma   89.99799478
_symmetry_Int_Tables_number   1
_chemical_formula_structural   ZrScNbPdRh
_chemical_formula_sum   'Zr50 Sc50 Nb50 Pd50 Rh50'
_cell_volume   4540.20165645
_cell_formula_units_Z   50
loop_
 _symmetry_equiv_pos_site_id
 _symmetry_equiv_pos_as_xyz
  1  'x, y, z'
loop_
 _atom_site_type_symbol
 _atom_site_label
 _atom_site_symmetry_multiplicity
 _atom_site_fract_x
 _atom_site_fract_y
 _atom_site_fract_z
 _atom_site_occupancy
  Zr  Zr0  1  0.10445977  0.30372423  0.31211006  1
  Zr  Zr1  1  0.91147823  0.90110505  0.89509345  1
  Zr  Zr2  1  0.30124163  0.10203010  0.70363135  1
  Zr  Zr3  1  0.89508903  0.29755642  0.70161746  1
  Zr  Zr4  1  0.50734187  0.30275541  0.90308835  1
  Zr  Zr5  1  0.09887644  0.70492595  0.30077228  1
  Zr  Zr6  1  0.30650370  0.50406528  0.30712451  1
  Zr  Zr7  1  0.50231150  0.50201029  0.68646296  1
  Zr  Zr8  1  0.29760126  0.10046625  0.10522049  1
  Zr  Zr9  1  0.70628289  0.69971252  0.50250543  1
  Zr  Zr10  1  0.10183413  0.30093466  0.50369593  1
  Zr  Zr11  1  0.10028992  0.10139234  0.09134835  1
  Zr  Zr12  1  0.70513661  0.30127028  0.29989844  1
  Zr  Zr13  1  0.70252769  0.70257755  0.90028935  1
  Zr  Zr14  1  0.69372269  0.70265734  0.30138738  1
  Zr  Zr15  1  0.29095026  0.10492303  0.90772846  1
  Zr  Zr16  1  0.09781461  0.10739969  0.70205344  1
  Zr  Zr17  1  0.69785349  0.29723042  0.89596923  1
  Zr  Zr18  1  0.09516507  0.30034504  0.09944800  1
  Zr  Zr19  1  0.70878331  0.49877474  0.90210641  1
  Zr  Zr20  1  0.90249990  0.29375378  0.10791238  1
  Zr  Zr21  1  0.08141516  0.50051784  0.90244396  1
  Zr  Zr22  1  0.50312064  0.10737869  0.49997090  1
  Zr  Zr23  1  0.50668540  0.70135066  0.90289522  1
  Zr  Zr24  1  0.50218433  0.30384997  0.49367788  1
  Zr  Zr25  1  0.30083734  0.90025987  0.10977406  1
  Zr  Zr26  1  0.28623393  0.30132918  0.70076499  1
  Zr  Zr27  1  0.69819742  0.90338565  0.29815741  1
  Zr  Zr28  1  0.28753443  0.30371399  0.49351779  1
  Zr  Zr29  1  0.50492782  0.70448583  0.10437714  1
  Zr  Zr30  1  0.69954866  0.51022478  0.29904037  1
  Zr  Zr31  1  0.89147916  0.69924946  0.29215015  1
  Zr  Zr32  1  0.49105642  0.09852867  0.69476850  1
  Zr  Zr33  1  0.90104077  0.49190284  0.70146340  1
  Zr  Zr34  1  0.89853972  0.90881647  0.30202445  1
  Zr  Zr35  1  0.29899939  0.28926711  0.09623414  1
  Zr  Zr36  1  0.09791466  0.70833296  0.88370012  1
  Zr  Zr37  1  0.09437021  0.29857883  0.69765611  1
  Zr  Zr38  1  0.30288890  0.29122964  0.30009788  1
  Zr  Zr39  1  0.49974100  0.29611068  0.09131994  1
  Zr  Zr40  1  0.90283982  0.50465181  0.09178002  1
  Zr  Zr41  1  0.09449880  0.50314686  0.10079257  1
  Zr  Zr42  1  0.90686972  0.31839533  0.50449676  1
  Zr  Zr43  1  0.29523267  0.69938069  0.50362885  1
  Zr  Zr44  1  0.50666100  0.89733828  0.89995671  1
  Zr  Zr45  1  0.89817866  0.29832953  0.29901615  1
  Zr  Zr46  1  0.89136454  0.49561110  0.30549485  1
  Zr  Zr47  1  0.29458160  0.90179923  0.89870287  1
  Zr  Zr48  1  0.10362580  0.09799467  0.49899341  1
  Zr  Zr49  1  0.90597215  0.90223846  0.69697607  1
  Sc  Sc50  1  0.71360811  0.10847659  0.69656378  1
  Sc  Sc51  1  0.09863185  0.90025270  0.30225237  1
  Sc  Sc52  1  0.30467436  0.50480183  0.89958052  1
  Sc  Sc53  1  0.49375099  0.69607355  0.69074612  1
  Sc  Sc54  1  0.29845620  0.89953433  0.29931801  1
  Sc  Sc55  1  0.69867853  0.69408263  0.10717551  1
  Sc  Sc56  1  0.49918183  0.69527184  0.49411891  1
  Sc  Sc57  1  0.69976323  0.09363672  0.10305915  1
  Sc  Sc58  1  0.70416126  0.50367378  0.50501746  1
  Sc  Sc59  1  0.09557480  0.50271189  0.29702896  1
  Sc  Sc60  1  0.69696658  0.29685107  0.51079742  1
  Sc  Sc61  1  0.90526901  0.90400359  0.10741473  1
  Sc  Sc62  1  0.30334000  0.49841620  0.50792654  1
  Sc  Sc63  1  0.29745613  0.89566658  0.49102077  1
  Sc  Sc64  1  0.09940009  0.89897519  0.10592320  1
  Sc  Sc65  1  0.71241430  0.89295383  0.70391200  1
  Sc  Sc66  1  0.50271865  0.50917210  0.09453857  1
  Sc  Sc67  1  0.89995265  0.30840687  0.89502107  1
  Sc  Sc68  1  0.50985660  0.29908535  0.69408186  1
  Sc  Sc69  1  0.30405311  0.70246821  0.30075406  1
  Sc  Sc70  1  0.29977009  0.69536804  0.88883409  1
  Sc  Sc71  1  0.30712699  0.50762864  0.10141943  1
  Sc  Sc72  1  0.49907914  0.11032235  0.89887288  1
  Sc  Sc73  1  0.50386271  0.50230505  0.90575862  1
  Sc  Sc74  1  0.89902106  0.09596134  0.28650198  1
  Sc  Sc75  1  0.70083466  0.09947337  0.89847343  1
  Sc  Sc76  1  0.69928523  0.89941504  0.90305139  1
  Sc  Sc77  1  0.09674421  0.89624732  0.49137855  1
  Sc  Sc78  1  0.90137316  0.09702053  0.70673863  1
  Sc  Sc79  1  0.90332173  0.89259099  0.50522921  1
  Sc  Sc80  1  0.71413890  0.90110769  0.49458448  1
  Sc  Sc81  1  0.68561184  0.90351764  0.10240498  1
  Sc  Sc82  1  0.48975798  0.89800719  0.49728272  1
  Sc  Sc83  1  0.90136323  0.69012934  0.89594467  1
  Sc  Sc84  1  0.49666795  0.49833503  0.49843855  1
  Sc  Sc85  1  0.30169536  0.29672316  0.90223687  1
  Sc  Sc86  1  0.69939143  0.29822923  0.09436309  1
  Sc  Sc87  1  0.29988122  0.70170279  0.11393489  1
  Sc  Sc88  1  0.30000344  0.10031968  0.49357757  1
  Sc  Sc89  1  0.89772908  0.07945383  0.50771879  1
  Sc  Sc90  1  0.08913300  0.70319660  0.11418081  1
  Sc  Sc91  1  0.10802605  0.50000438  0.70405209  1
  Sc  Sc92  1  0.89470818  0.70777336  0.69514052  1
  Sc  Sc93  1  0.50118423  0.09562424  0.10403035  1
  Sc  Sc94  1  0.10249922  0.09056960  0.30519405  1
  Sc  Sc95  1  0.70675964  0.09503358  0.29476461  1
  Sc  Sc96  1  0.70063007  0.50399846  0.09329277  1
  Sc  Sc97  1  0.49749551  0.89658358  0.28995786  1
  Sc  Sc98  1  0.69937395  0.49511309  0.69366505  1
  Sc  Sc99  1  0.10063778  0.29843265  0.89191236  1
  Nb  Nb100  1  0.90348847  0.50472187  0.50247305  1
  Nb  Nb101  1  0.09433567  0.49548423  0.49614552  1
  Nb  Nb102  1  0.90367866  0.09292923  0.90670011  1
  Nb  Nb103  1  0.49554062  0.10710212  0.30158623  1
  Nb  Nb104  1  0.89610514  0.70332195  0.10263008  1
  Nb  Nb105  1  0.70205227  0.09446432  0.49900548  1
  Nb  Nb106  1  0.11062278  0.70244629  0.69099498  1
  Nb  Nb107  1  0.90351329  0.69771326  0.50289077  1
  Nb  Nb108  1  0.49800807  0.89840597  0.09806130  1
  Nb  Nb109  1  0.89885182  0.50134913  0.90075298  1
  Nb  Nb110  1  0.30697329  0.09747935  0.29581447  1
  Nb  Nb111  1  0.50226377  0.68722750  0.29795762  1
  Nb  Nb112  1  0.50162699  0.30258932  0.30435576  1
  Nb  Nb113  1  0.28956211  0.69547094  0.69690435  1
  Nb  Nb114  1  0.69522770  0.70010050  0.69713727  1
  Nb  Nb115  1  0.70951215  0.30342118  0.70587424  1
  Nb  Nb116  1  0.30240121  0.89856896  0.69839790  1
  Nb  Nb117  1  0.09735461  0.08927287  0.90058325  1
  Nb  Nb118  1  0.49476423  0.90375693  0.69527400  1
  Nb  Nb119  1  0.90219474  0.10206774  0.09868075  1
  Nb  Nb120  1  0.49770476  0.49898339  0.30453970  1
  Nb  Nb121  1  0.30664195  0.50972914  0.70073160  1
  Nb  Nb122  1  0.09860712  0.69955216  0.50067756  1
  Nb  Nb123  1  0.10014773  0.89801540  0.89605868  1
  Nb  Nb124  1  0.10129135  0.88840400  0.71063368  1
  Nb  Nb125  1  0.20104618  -0.00667240  0.60969126  1
  Nb  Nb126  1  0.59802070  0.00577300  0.40301568  1
  Nb  Nb127  1  0.20676539  0.39898907  0.19776260  1
  Nb  Nb128  1  0.60492414  0.60388043  0.79500459  1
  Nb  Nb129  1  -0.00811961  0.19885300  0.40366510  1
  Nb  Nb130  1  -0.00359567  0.60165809  0.40655753  1
  Nb  Nb131  1  0.19635260  0.40677621  0.00463446  1
  Nb  Nb132  1  0.59504755  0.20520062  0.20773365  1
  Nb  Nb133  1  0.39818292  0.80300260  0.79328222  1
  Nb  Nb134  1  0.59503860  -0.00196444  0.78721997  1
  Nb  Nb135  1  0.81043567  0.19209043  -0.00007316  1
  Nb  Nb136  1  0.60224667  -0.00345045  0.59917097  1
  Nb  Nb137  1  0.19490681  -0.00462674  0.79785294  1
  Nb  Nb138  1  0.39961554  0.40437076  0.79194664  1
  Nb  Nb139  1  0.60033666  0.80570953  0.60084213  1
  Nb  Nb140  1  0.00558241  0.60243080  0.59478868  1
  Nb  Nb141  1  0.40543434  0.39601834  0.20357352  1
  Nb  Nb142  1  0.80562828  0.19694756  0.40594320  1
  Nb  Nb143  1  0.59248095  0.39965585  0.20519242  1
  Nb  Nb144  1  0.19095109  0.60084284  0.40825263  1
  Nb  Nb145  1  0.80586472  0.79838323  0.00421594  1
  Nb  Nb146  1  0.39960040  -0.00566440  0.00286941  1
  Nb  Nb147  1  0.19832860  0.79648945  -0.00213049  1
  Nb  Nb148  1  0.39688105  0.80414237  -0.00198397  1
  Nb  Nb149  1  0.19240068  0.60511613  -0.00011409  1
  Pd  Pd150  1  0.01052398  0.19174480  0.21102402  1
  Pd  Pd151  1  0.19653024  0.81008011  0.59382261  1
  Pd  Pd152  1  0.20566771  0.40908056  0.81009906  1
  Pd  Pd153  1  0.40045539  -0.00191090  0.80957807  1
  Pd  Pd154  1  0.39117469  0.61416547  0.00329709  1
  Pd  Pd155  1  0.20126187  0.59646163  0.20350262  1
  Pd  Pd156  1  -0.00779773  0.79702133  0.39563260  1
  Pd  Pd157  1  0.40406899  0.79436862  0.39177410  1
  Pd  Pd158  1  0.81004520  0.19970291  0.59137514  1
  Pd  Pd159  1  0.01306146  -0.00805372  0.60301782  1
  Pd  Pd160  1  0.00196246  0.40306077  0.20580548  1
  Pd  Pd161  1  0.19511686  -0.00060160  0.20493806  1
  Pd  Pd162  1  0.39344516  -0.00074133  0.58850107  1
  Pd  Pd163  1  0.79144201  0.40585262  0.18889832  1
  Pd  Pd164  1  0.19104769  0.19901492  0.20750846  1
  Pd  Pd165  1  0.59607274  0.41071452  0.79737091  1
  Pd  Pd166  1  0.39605887  0.20267674  0.40578265  1
  Pd  Pd167  1  0.61326763  0.19353506  0.39330166  1
  Pd  Pd168  1  0.40145687  0.21449493  0.79916502  1
  Pd  Pd169  1  0.40382926  -0.00056018  0.39503790  1
  Pd  Pd170  1  0.39134282  0.21089848  0.59467045  1
  Pd  Pd171  1  0.39709964  0.39161066  0.60403335  1
  Pd  Pd172  1  0.59297448  0.00901638  -0.00818833  1
  Pd  Pd173  1  0.60686538  0.19628950  0.60742287  1
  Pd  Pd174  1  0.00319706  -0.00814202  0.00641688  1
  Pd  Pd175  1  0.39999822  0.79417559  0.60088063  1
  Pd  Pd176  1  -0.01158272  0.19534146  0.59113704  1
  Pd  Pd177  1  0.39355057  0.40378420  -0.00137110  1
  Pd  Pd178  1  0.78975962  0.39689243  0.41117495  1
  Pd  Pd179  1  0.80473259  0.39045734  0.00336751  1
  Pd  Pd180  1  0.19559191  0.59206658  0.80629730  1
  Pd  Pd181  1  0.19736796  0.40967113  0.60200925  1
  Pd  Pd182  1  0.80089959  -0.00559516  0.00543541  1
  Pd  Pd183  1  0.00300987  0.61676869  0.00116771  1
  Pd  Pd184  1  0.59998574  0.59508452  0.40847584  1
  Pd  Pd185  1  -0.00172717  0.60535429  0.78375366  1
  Pd  Pd186  1  0.59417721  0.80874448  0.40577288  1
  Pd  Pd187  1  0.80617879  0.59838339  0.60718538  1
  Pd  Pd188  1  0.60307280  0.19074965  0.78973482  1
  Pd  Pd189  1  0.59389944  0.79997557  0.78690316  1
  Pd  Pd190  1  0.79505046  0.59724124  0.79024576  1
  Pd  Pd191  1  0.80697244  0.79811088  0.39998823  1
  Pd  Pd192  1  0.79183182  0.80916743  0.19123010  1
  Pd  Pd193  1  0.79508585  0.00086158  0.80045860  1
  Pd  Pd194  1  0.80738200  0.80030159  0.80767361  1
  Pd  Pd195  1  0.60841852  0.40708141  0.40238829  1
  Pd  Pd196  1  0.41105645  0.60068239  0.79662769  1
  Pd  Pd197  1  -0.00722387  0.19755038  0.80860528  1
  Pd  Pd198  1  0.00000816  0.79701588  0.00231683  1
  Pd  Pd199  1  -0.00180648  0.20471979  -0.01140946  1
  Rh  Rh200  1  0.00576873  0.00235423  0.79632320  1
  Rh  Rh201  1  0.79959295  0.00593576  0.39673257  1
  Rh  Rh202  1  -0.00089547  0.40220731  0.39451999  1
  Rh  Rh203  1  0.40804263  0.59658282  0.20135548  1
  Rh  Rh204  1  0.79566053  0.80137240  0.59759559  1
  Rh  Rh205  1  -0.00186817  0.39271851  -0.00307462  1
  Rh  Rh206  1  0.61071057  0.19418576  0.00797432  1
  Rh  Rh207  1  0.79639360  0.40038706  0.60015271  1
  Rh  Rh208  1  0.40548604  0.79461627  0.20237257  1
  Rh  Rh209  1  0.19598778  0.59282059  0.59615649  1
  Rh  Rh210  1  0.39530770  0.60311598  0.40470439  1
  Rh  Rh211  1  0.19699449  0.18929818  0.39579772  1
  Rh  Rh212  1  0.40352467  0.18768710  0.00177692  1
  Rh  Rh213  1  -0.00686667  0.79259563  0.79112616  1
  Rh  Rh214  1  0.80199581  0.59462821  0.19386043  1
  Rh  Rh215  1  0.20524912  0.19165748  0.59728819  1
  Rh  Rh216  1  0.60525954  0.39594166  0.59757869  1
  Rh  Rh217  1  0.59575987  0.59260355  0.20055770  1
  Rh  Rh218  1  0.79080724  0.19584872  0.19373809  1
  Rh  Rh219  1  0.39653449  0.60457318  0.59401618  1
  Rh  Rh220  1  0.80373470  0.60535838  0.40269424  1
  Rh  Rh221  1  0.19523874  0.19352840  0.80617170  1
  Rh  Rh222  1  0.00745046  0.40837481  0.60885943  1
  Rh  Rh223  1  0.80574661  0.19747343  0.81221330  1
  Rh  Rh224  1  0.59840375  0.79798599  0.20335633  1
  Rh  Rh225  1  0.18820742  0.20790390  -0.00684990  1
  Rh  Rh226  1  0.00643472  0.79667482  0.60502765  1
  Rh  Rh227  1  0.19761037  0.80145069  0.20005484  1
  Rh  Rh228  1  0.20955796  0.80064793  0.79917716  1
  Rh  Rh229  1  0.20385197  0.41226575  0.39479463  1
  Rh  Rh230  1  -0.00092643  0.39952941  0.79788258  1
  Rh  Rh231  1  0.60041789  0.60694284  0.59867916  1
  Rh  Rh232  1  0.39501483  0.39799855  0.39997553  1
  Rh  Rh233  1  0.00569048  0.00416842  0.19681318  1
  Rh  Rh234  1  0.79480506  -0.00648461  0.60766717  1
  Rh  Rh235  1  0.59113654  0.00723493  0.21222557  1
  Rh  Rh236  1  0.79976769  0.40297590  0.80066658  1
  Rh  Rh237  1  0.60879636  0.79523036  0.01061514  1
  Rh  Rh238  1  -0.00429528  0.80503127  0.20739035  1
  Rh  Rh239  1  0.60250037  0.40435271  0.00393037  1
  Rh  Rh240  1  0.20000490  0.79479068  0.39643470  1
  Rh  Rh241  1  0.80345894  0.60833578  0.00274004  1
  Rh  Rh242  1  0.80046295  -0.00358581  0.19129093  1
  Rh  Rh243  1  0.40324401  0.00274246  0.19887549  1
  Rh  Rh244  1  -0.00565619  0.00371714  0.39965467  1
  Rh  Rh245  1  0.60817482  0.60188242  -0.00702891  1
  Rh  Rh246  1  0.20646530  -0.00079727  0.40228223  1
  Rh  Rh247  1  0.19731606  -0.00786855  -0.00276019  1
  Rh  Rh248  1  -0.01236618  0.59707134  0.20795880  1
  Rh  Rh249  1  0.40829854  0.20132883  0.19851940  1
