# generated using pymatgen
data_ZrScNbPdRh
_symmetry_space_group_name_H-M   'P 1'
_cell_length_a   16.55601256
_cell_length_b   16.55843857
_cell_length_c   16.55344761
_cell_angle_alpha   90.03390849
_cell_angle_beta   90.00410689
_cell_angle_gamma   89.98539933
_symmetry_Int_Tables_number   1
_chemical_formula_structural   ZrScNbPdRh
_chemical_formula_sum   'Zr50 Sc50 Nb50 Pd50 Rh50'
_cell_volume   4537.98959589
_cell_formula_units_Z   50
loop_
 _symmetry_equiv_pos_site_id
 _symmetry_equiv_pos_as_xyz
  1  'x, y, z'
loop_
 _atom_site_type_symbol
 _atom_site_label
 _atom_site_symmetry_multiplicity
 _atom_site_fract_x
 _atom_site_fract_y
 _atom_site_fract_z
 _atom_site_occupancy
  Zr  Zr0  1  0.10501002  0.91291383  0.90374295  1
  Zr  Zr1  1  0.29524694  0.49256520  0.50338270  1
  Zr  Zr2  1  0.71420334  0.90183377  0.69100286  1
  Zr  Zr3  1  0.49631656  0.89957836  0.90036600  1
  Zr  Zr4  1  0.10247082  0.69587180  0.89301528  1
  Zr  Zr5  1  0.70027332  0.70085003  0.49501362  1
  Zr  Zr6  1  0.89975171  0.09843119  0.09233455  1
  Zr  Zr7  1  0.90678259  0.09983352  0.30838596  1
  Zr  Zr8  1  0.49538972  0.30456981  0.69824436  1
  Zr  Zr9  1  0.90488699  0.70610750  0.70475458  1
  Zr  Zr10  1  0.49962277  0.29101631  0.50042119  1
  Zr  Zr11  1  0.29837506  0.29856597  0.89894103  1
  Zr  Zr12  1  0.50064188  0.10095232  0.09723391  1
  Zr  Zr13  1  0.09789342  0.09852199  0.09366092  1
  Zr  Zr14  1  0.30535184  0.50101546  0.09830191  1
  Zr  Zr15  1  0.90185390  0.71081316  0.30005441  1
  Zr  Zr16  1  0.30802391  0.70052161  0.90075688  1
  Zr  Zr17  1  0.30095487  0.49491508  0.69542532  1
  Zr  Zr18  1  0.09734060  0.29926963  0.09279282  1
  Zr  Zr19  1  0.70438946  0.29774258  0.29266734  1
  Zr  Zr20  1  0.89770093  0.30380455  0.30024302  1
  Zr  Zr21  1  0.70449279  0.89498560  0.90502176  1
  Zr  Zr22  1  0.89827244  0.71023965  0.90273731  1
  Zr  Zr23  1  0.50696978  0.50248844  0.30170722  1
  Zr  Zr24  1  0.29717476  0.90824470  0.50373300  1
  Zr  Zr25  1  0.70410848  0.49097420  0.49971318  1
  Zr  Zr26  1  0.49904210  0.49855961  0.49878422  1
  Zr  Zr27  1  0.29957257  0.09672320  0.49736431  1
  Zr  Zr28  1  0.31622241  0.29909737  0.09742706  1
  Zr  Zr29  1  0.49561355  0.09748387  0.49514325  1
  Zr  Zr30  1  0.30109558  0.89255241  0.69366593  1
  Zr  Zr31  1  0.09133484  0.30100714  0.89696470  1
  Zr  Zr32  1  0.69686062  0.30377136  0.69617796  1
  Zr  Zr33  1  0.70222694  0.31016006  0.90103160  1
  Zr  Zr34  1  0.10859332  0.90084790  0.70136980  1
  Zr  Zr35  1  0.30354920  0.09865109  0.30111868  1
  Zr  Zr36  1  0.69456812  0.90485739  0.09938223  1
  Zr  Zr37  1  0.68993454  0.09527916  0.30441737  1
  Zr  Zr38  1  0.49828207  0.90567679  0.70378231  1
  Zr  Zr39  1  0.29183462  0.09739175  0.69392145  1
  Zr  Zr40  1  0.50102960  0.09608763  0.89625975  1
  Zr  Zr41  1  0.68501349  0.70167254  0.29752077  1
  Zr  Zr42  1  0.29852538  0.90299972  0.29775760  1
  Zr  Zr43  1  0.90505036  0.50224464  0.09949467  1
  Zr  Zr44  1  0.09649084  0.10148946  0.89696608  1
  Zr  Zr45  1  0.10598360  0.50395442  0.08992006  1
  Zr  Zr46  1  0.90433746  0.50209668  0.49923751  1
  Zr  Zr47  1  0.30535369  0.90467187  0.90142032  1
  Zr  Zr48  1  0.70756860  0.09558006  0.90012650  1
  Zr  Zr49  1  0.30576057  0.70889023  0.50422455  1
  Sc  Sc50  1  0.48941912  0.89835867  0.49685919  1
  Sc  Sc51  1  0.68966359  0.49227220  0.09610818  1
  Sc  Sc52  1  0.10017560  0.49796652  0.50400282  1
  Sc  Sc53  1  0.88945891  0.29745816  0.09901917  1
  Sc  Sc54  1  0.90524097  0.30536584  0.70789403  1
  Sc  Sc55  1  0.89538903  0.49699632  0.30617491  1
  Sc  Sc56  1  0.90758362  0.48422725  0.89480150  1
  Sc  Sc57  1  0.50245469  0.89594617  0.30154307  1
  Sc  Sc58  1  0.29771291  0.69726931  0.10281674  1
  Sc  Sc59  1  0.91184233  0.30511103  0.50018008  1
  Sc  Sc60  1  0.89828710  0.88819900  0.09346145  1
  Sc  Sc61  1  0.09653071  0.70550749  0.29558915  1
  Sc  Sc62  1  0.29890147  0.29724057  0.69500140  1
  Sc  Sc63  1  0.89826778  0.90363167  0.89683829  1
  Sc  Sc64  1  0.30483250  0.49170059  0.30417616  1
  Sc  Sc65  1  0.09143967  0.69650574  0.10210732  1
  Sc  Sc66  1  0.09683412  0.10363128  0.70295126  1
  Sc  Sc67  1  0.29997784  0.09792092  0.90173380  1
  Sc  Sc68  1  0.70285719  0.70574449  0.70741326  1
  Sc  Sc69  1  0.09747410  0.28873561  0.70323420  1
  Sc  Sc70  1  0.09692596  0.90472522  0.10234814  1
  Sc  Sc71  1  0.50710136  0.69783587  0.09941606  1
  Sc  Sc72  1  0.69990232  0.09729530  0.10101047  1
  Sc  Sc73  1  0.69668112  0.09481626  0.70265912  1
  Sc  Sc74  1  0.89967133  0.29584902  0.89913958  1
  Sc  Sc75  1  0.09574682  0.10232549  0.49946903  1
  Sc  Sc76  1  0.31032692  0.29850403  0.29585093  1
  Sc  Sc77  1  0.49016143  0.29459786  0.90046792  1
  Sc  Sc78  1  0.70610945  0.49905303  0.29832306  1
  Sc  Sc79  1  0.30640519  0.70890615  0.29685814  1
  Sc  Sc80  1  0.50449166  0.70627474  0.71320645  1
  Sc  Sc81  1  0.69435610  0.71041787  0.09558676  1
  Sc  Sc82  1  0.09806284  0.09568804  0.29877751  1
  Sc  Sc83  1  0.50574501  0.51444781  0.91116116  1
  Sc  Sc84  1  0.88765866  0.89732478  0.49382735  1
  Sc  Sc85  1  0.09749896  0.51396863  0.70121488  1
  Sc  Sc86  1  0.09830783  0.29781186  0.50663624  1
  Sc  Sc87  1  0.89363961  0.09733989  0.70611782  1
  Sc  Sc88  1  0.49835719  0.10103026  0.30246467  1
  Sc  Sc89  1  0.69793301  0.90402709  0.49459177  1
  Sc  Sc90  1  0.09450319  0.69539091  0.50373178  1
  Sc  Sc91  1  0.29801833  0.50545624  0.91360829  1
  Sc  Sc92  1  0.30551374  0.09581762  0.10559115  1
  Sc  Sc93  1  0.69886184  0.49385400  0.69757717  1
  Sc  Sc94  1  0.68979566  0.09438921  0.50168008  1
  Sc  Sc95  1  0.08961197  0.90211439  0.29986426  1
  Sc  Sc96  1  0.50821032  0.70428069  0.90322544  1
  Sc  Sc97  1  0.09858983  0.29072452  0.30037245  1
  Sc  Sc98  1  0.49974961  0.90435225  0.09426575  1
  Sc  Sc99  1  0.10345535  0.50454839  0.30031489  1
  Nb  Nb100  1  0.29829002  0.89922739  0.09824147  1
  Nb  Nb101  1  0.50590969  0.30696528  0.10297747  1
  Nb  Nb102  1  0.89583982  0.89764342  0.69306371  1
  Nb  Nb103  1  0.89828417  0.69949524  0.50098204  1
  Nb  Nb104  1  0.69413242  0.30140424  0.09906615  1
  Nb  Nb105  1  0.70012443  0.90118378  0.29896422  1
  Nb  Nb106  1  0.10810150  0.70339549  0.70054195  1
  Nb  Nb107  1  0.89651737  0.50236874  0.70228612  1
  Nb  Nb108  1  0.90146116  0.10505553  0.50405966  1
  Nb  Nb109  1  0.69615468  0.50421053  0.89837806  1
  Nb  Nb110  1  0.90008633  0.09789582  0.90252361  1
  Nb  Nb111  1  0.49914108  0.50025088  0.69892727  1
  Nb  Nb112  1  0.49889342  0.49797348  0.10328289  1
  Nb  Nb113  1  0.89568534  0.89964854  0.29818878  1
  Nb  Nb114  1  0.29169991  0.69617792  0.69916407  1
  Nb  Nb115  1  0.50393446  0.69933568  0.48734223  1
  Nb  Nb116  1  0.50210012  0.10233259  0.69956505  1
  Nb  Nb117  1  0.10407602  0.49215059  0.90703713  1
  Nb  Nb118  1  0.69781402  0.29764611  0.50058924  1
  Nb  Nb119  1  0.10615650  0.90206247  0.50544007  1
  Nb  Nb120  1  0.50175270  0.29765428  0.29619022  1
  Nb  Nb121  1  0.89794335  0.69718798  0.09941870  1
  Nb  Nb122  1  0.69610478  0.69181454  0.89930865  1
  Nb  Nb123  1  0.50253396  0.69565743  0.31116392  1
  Nb  Nb124  1  0.29653431  0.29714236  0.50048341  1
  Nb  Nb125  1  0.79886071  0.20002500  0.40705877  1
  Nb  Nb126  1  -0.00612339  -0.00776650  0.59915256  1
  Nb  Nb127  1  0.80360971  0.60096416  0.60326743  1
  Nb  Nb128  1  0.19913339  0.39790667  0.19243608  1
  Nb  Nb129  1  0.19996069  0.20048926  0.00168333  1
  Nb  Nb130  1  0.59485808  0.40543011  0.80269531  1
  Nb  Nb131  1  0.40550432  0.60510697  0.60297829  1
  Nb  Nb132  1  0.41078651  0.59783309  0.20397227  1
  Nb  Nb133  1  0.20508242  0.60798358  0.40327142  1
  Nb  Nb134  1  0.60243242  0.20758473  0.00282363  1
  Nb  Nb135  1  0.60158196  0.38983777  0.39899610  1
  Nb  Nb136  1  0.19720845  0.40319261  0.80540267  1
  Nb  Nb137  1  0.59793753  0.79550131  0.59557007  1
  Nb  Nb138  1  0.20251365  0.80445390  0.00121710  1
  Nb  Nb139  1  0.20677684  0.20058912  0.40246085  1
  Nb  Nb140  1  0.79964800  0.59549357  0.80335997  1
  Nb  Nb141  1  0.80077649  0.60724054  0.19221898  1
  Nb  Nb142  1  0.00457548  0.40089435  0.19592388  1
  Nb  Nb143  1  0.19816502  0.80326375  0.40540353  1
  Nb  Nb144  1  0.80259805  -0.00610894  0.20837831  1
  Nb  Nb145  1  -0.00054040  0.80285625  0.60121404  1
  Nb  Nb146  1  0.39912711  0.59941492  0.79284331  1
  Nb  Nb147  1  0.59827510  0.60385704  0.59965977  1
  Nb  Nb148  1  0.79783883  0.60140926  -0.00405533  1
  Nb  Nb149  1  0.80004855  0.20144977  0.59407196  1
  Pd  Pd150  1  0.41243850  0.79215619  0.60661638  1
  Pd  Pd151  1  0.39035590  0.60067924  0.39948757  1
  Pd  Pd152  1  0.39889555  0.79556755  0.00986796  1
  Pd  Pd153  1  0.40853242  -0.00385609  0.20143120  1
  Pd  Pd154  1  0.59037551  0.80469159  0.19926462  1
  Pd  Pd155  1  0.20578302  0.80404170  0.80862048  1
  Pd  Pd156  1  0.01077068  0.80370216  0.00053734  1
  Pd  Pd157  1  0.00706839  0.60154814  0.39556677  1
  Pd  Pd158  1  0.41010591  0.79414816  0.19667463  1
  Pd  Pd159  1  0.40896676  0.40475991  -0.00824341  1
  Pd  Pd160  1  0.00045771  -0.00755903  0.41019909  1
  Pd  Pd161  1  0.80099720  0.18732294  0.20518030  1
  Pd  Pd162  1  0.00447538  0.80611998  0.40905323  1
  Pd  Pd163  1  -0.00530873  0.59947715  -0.01239947  1
  Pd  Pd164  1  0.18842832  0.39396903  0.61257582  1
  Pd  Pd165  1  0.79448123  0.79870761  0.39615488  1
  Pd  Pd166  1  0.19213006  0.80364594  0.19802797  1
  Pd  Pd167  1  0.19463988  0.39402424  0.39122501  1
  Pd  Pd168  1  0.59435127  -0.00803353  0.59583409  1
  Pd  Pd169  1  0.60790690  0.80949228  0.79685128  1
  Pd  Pd170  1  0.20416038  0.20430833  0.20019571  1
  Pd  Pd171  1  0.39284204  0.00591008  0.79400602  1
  Pd  Pd172  1  0.79835820  0.60437286  0.39515585  1
  Pd  Pd173  1  0.01093174  0.40048796  0.39324245  1
  Pd  Pd174  1  -0.00976917  -0.00437574  0.19300355  1
  Pd  Pd175  1  0.40001476  0.41285665  0.81174191  1
  Pd  Pd176  1  0.80079605  0.20331824  0.79303949  1
  Pd  Pd177  1  0.20643511  0.59050045  0.80420203  1
  Pd  Pd178  1  0.81137105  0.39584438  0.59929220  1
  Pd  Pd179  1  0.21241034  0.59584757  0.21067596  1
  Pd  Pd180  1  0.79285802  0.20100111  -0.00093753  1
  Pd  Pd181  1  -0.00655205  0.59531397  0.21076074  1
  Pd  Pd182  1  0.39773917  0.19630138  0.60302336  1
  Pd  Pd183  1  -0.00455986  0.59498712  0.80736469  1
  Pd  Pd184  1  0.60814898  -0.00743086  0.80093777  1
  Pd  Pd185  1  0.79874268  0.00687666  0.40072833  1
  Pd  Pd186  1  -0.00661380  -0.00189708  0.79322419  1
  Pd  Pd187  1  -0.00319089  0.60629031  0.60301874  1
  Pd  Pd188  1  0.60072034  0.20852358  0.80580779  1
  Pd  Pd189  1  0.60286822  0.40277253  0.20698416  1
  Pd  Pd190  1  0.80221830  0.40695053  0.00304828  1
  Pd  Pd191  1  0.00495343  0.40176037  0.61020889  1
  Pd  Pd192  1  0.60352536  0.19360940  0.60403419  1
  Pd  Pd193  1  -0.00446848  0.20413537  0.19729313  1
  Pd  Pd194  1  0.39524662  0.19289020  0.79266984  1
  Pd  Pd195  1  0.40639518  0.39110365  0.40132078  1
  Pd  Pd196  1  0.19581652  -0.00051746  0.20017242  1
  Pd  Pd197  1  0.79714757  0.80000566  0.19735263  1
  Pd  Pd198  1  0.00501557  0.81044041  0.79803569  1
  Pd  Pd199  1  0.59668542  0.19660354  0.19549151  1
  Rh  Rh200  1  0.60469385  0.20578191  0.39583930  1
  Rh  Rh201  1  0.20323173  0.38884308  -0.00055075  1
  Rh  Rh202  1  0.19132132  0.79163133  0.59359455  1
  Rh  Rh203  1  0.59163157  -0.00629512  0.40041080  1
  Rh  Rh204  1  -0.00765384  -0.00419250  -0.00091863  1
  Rh  Rh205  1  -0.00866278  0.19254364  0.60689474  1
  Rh  Rh206  1  0.20405749  0.60439310  0.59172304  1
  Rh  Rh207  1  0.39422809  0.79357501  0.79434491  1
  Rh  Rh208  1  0.39836835  0.00270298  0.00257583  1
  Rh  Rh209  1  0.79614400  0.79901344  0.80405283  1
  Rh  Rh210  1  0.01328564  0.40690480  0.79246274  1
  Rh  Rh211  1  0.60596925  0.60131121  0.00972539  1
  Rh  Rh212  1  -0.00966334  0.19257280  0.80174813  1
  Rh  Rh213  1  0.60096969  -0.00373016  0.20299852  1
  Rh  Rh214  1  0.61011929  0.58864740  0.40453121  1
  Rh  Rh215  1  0.80418785  -0.00405330  0.00701898  1
  Rh  Rh216  1  0.40943389  0.19914361  0.20032857  1
  Rh  Rh217  1  0.59141996  0.39452191  -0.00774108  1
  Rh  Rh218  1  0.18812115  0.01064029  0.60236797  1
  Rh  Rh219  1  0.59991620  0.80847987  0.40394527  1
  Rh  Rh220  1  0.59995749  0.59208786  0.79229906  1
  Rh  Rh221  1  0.39443637  0.80586830  0.39527241  1
  Rh  Rh222  1  0.40193216  -0.00506948  0.39378276  1
  Rh  Rh223  1  0.40683010  0.60567206  0.00599251  1
  Rh  Rh224  1  0.20573292  0.00121634  0.79595072  1
  Rh  Rh225  1  0.19585859  0.61453468  -0.00054235  1
  Rh  Rh226  1  0.00363080  0.20226013  0.40135771  1
  Rh  Rh227  1  0.40106016  0.40563761  0.20045661  1
  Rh  Rh228  1  0.40345773  0.19386800  0.00254708  1
  Rh  Rh229  1  0.79982407  0.79194607  0.59482502  1
  Rh  Rh230  1  0.39438597  0.20311742  0.39798530  1
  Rh  Rh231  1  0.20669093  0.00291265  0.00746110  1
  Rh  Rh232  1  0.80232336  -0.00281432  0.80111377  1
  Rh  Rh233  1  0.20099670  0.20414210  0.80798472  1
  Rh  Rh234  1  0.79565174  0.38874913  0.40362300  1
  Rh  Rh235  1  0.80476804  0.41018429  0.19003019  1
  Rh  Rh236  1  0.40691040  0.00781906  0.60655068  1
  Rh  Rh237  1  0.60212796  0.59902534  0.19576145  1
  Rh  Rh238  1  -0.00299540  0.80197044  0.19576248  1
  Rh  Rh239  1  0.80493671  0.01004840  0.59435095  1
  Rh  Rh240  1  0.19468350  0.00072658  0.39598313  1
  Rh  Rh241  1  0.59224961  0.40171605  0.59828052  1
  Rh  Rh242  1  -0.00889358  0.39568779  0.00580264  1
  Rh  Rh243  1  0.59998513  0.00642157  -0.00647103  1
  Rh  Rh244  1  0.40149807  0.39875584  0.59305002  1
  Rh  Rh245  1  0.79220091  0.40529239  0.79873404  1
  Rh  Rh246  1  0.59873161  0.80348208  -0.00417760  1
  Rh  Rh247  1  0.79514038  0.79529065  -0.00091127  1
  Rh  Rh248  1  0.19722137  0.19847423  0.59080405  1
  Rh  Rh249  1  -0.00153768  0.19903370  -0.00421994  1
