# generated using pymatgen
data_ZrScNbPdRh
_symmetry_space_group_name_H-M   'P 1'
_cell_length_a   16.56217148
_cell_length_b   16.56173779
_cell_length_c   16.56230195
_cell_angle_alpha   90.01656559
_cell_angle_beta   90.03952068
_cell_angle_gamma   90.01564287
_symmetry_Int_Tables_number   1
_chemical_formula_structural   ZrScNbPdRh
_chemical_formula_sum   'Zr50 Sc50 Nb50 Pd50 Rh50'
_cell_volume   4543.01051219
_cell_formula_units_Z   50
loop_
 _symmetry_equiv_pos_site_id
 _symmetry_equiv_pos_as_xyz
  1  'x, y, z'
loop_
 _atom_site_type_symbol
 _atom_site_label
 _atom_site_symmetry_multiplicity
 _atom_site_fract_x
 _atom_site_fract_y
 _atom_site_fract_z
 _atom_site_occupancy
  Zr  Zr0  1  0.10077853  0.90867412  0.69692851  1
  Zr  Zr1  1  0.89543548  0.70754258  0.30742769  1
  Zr  Zr2  1  0.89292685  0.50188362  0.69198980  1
  Zr  Zr3  1  0.88284001  0.70072233  0.50066747  1
  Zr  Zr4  1  0.50153667  0.30108615  0.10857323  1
  Zr  Zr5  1  0.49889486  0.89516709  0.69906677  1
  Zr  Zr6  1  0.10207837  0.49491535  0.29937027  1
  Zr  Zr7  1  0.70014562  0.90493043  0.29732457  1
  Zr  Zr8  1  0.09754324  0.90300779  0.49484699  1
  Zr  Zr9  1  0.10658449  0.29668690  0.90857003  1
  Zr  Zr10  1  0.50666270  0.30489576  0.30573022  1
  Zr  Zr11  1  0.30120738  0.49513627  0.49158362  1
  Zr  Zr12  1  0.69747078  0.29851131  0.90823957  1
  Zr  Zr13  1  0.71106976  0.09801873  0.10122320  1
  Zr  Zr14  1  0.29399735  0.89264085  0.49899491  1
  Zr  Zr15  1  0.29639002  0.09553147  0.70714331  1
  Zr  Zr16  1  0.09966650  0.69827366  0.29223971  1
  Zr  Zr17  1  0.50324608  0.69903711  0.50322256  1
  Zr  Zr18  1  0.10467191  0.51513691  0.10914243  1
  Zr  Zr19  1  0.09286786  0.90381560  0.10852199  1
  Zr  Zr20  1  0.29894267  0.30140433  0.09658417  1
  Zr  Zr21  1  0.29839973  0.10587606  0.11448669  1
  Zr  Zr22  1  0.69659461  0.49967137  0.10130514  1
  Zr  Zr23  1  0.08686850  0.10729958  0.50481671  1
  Zr  Zr24  1  0.10778083  0.29687919  0.49977791  1
  Zr  Zr25  1  0.49593083  0.48855476  0.50241938  1
  Zr  Zr26  1  0.89289353  0.90497727  0.09913679  1
  Zr  Zr27  1  0.50519594  0.89838878  0.10021589  1
  Zr  Zr28  1  0.50311786  0.49920110  0.09935070  1
  Zr  Zr29  1  0.10878912  0.10028923  0.29862514  1
  Zr  Zr30  1  0.09911411  0.49451535  0.49687852  1
  Zr  Zr31  1  0.89766824  0.09329229  0.89788164  1
  Zr  Zr32  1  0.30175981  0.90226359  0.69723087  1
  Zr  Zr33  1  0.29222398  0.90948963  0.29796979  1
  Zr  Zr34  1  0.30346692  0.49863163  0.90349776  1
  Zr  Zr35  1  0.89606762  0.49579710  0.10153988  1
  Zr  Zr36  1  0.30729989  0.70350674  0.69989483  1
  Zr  Zr37  1  0.69916981  0.69907380  0.69526736  1
  Zr  Zr38  1  0.71422621  0.09000508  0.68993703  1
  Zr  Zr39  1  0.50293078  0.09695359  0.89999325  1
  Zr  Zr40  1  0.30391642  0.69220540  0.90054072  1
  Zr  Zr41  1  0.09051794  0.50127535  0.69988538  1
  Zr  Zr42  1  0.70293338  0.89628253  0.50823801  1
  Zr  Zr43  1  0.10462256  0.30526007  0.70301880  1
  Zr  Zr44  1  0.49979012  0.69001746  0.89357642  1
  Zr  Zr45  1  0.09401515  0.69478689  0.90179497  1
  Zr  Zr46  1  0.90150411  0.09955280  0.10808315  1
  Zr  Zr47  1  0.10240261  0.11337161  0.10028993  1
  Zr  Zr48  1  0.30490140  0.29115498  0.69649716  1
  Zr  Zr49  1  0.90609652  0.29594362  0.49303143  1
  Sc  Sc50  1  0.69713099  0.70110120  0.30529759  1
  Sc  Sc51  1  0.69522547  0.69333740  0.09012706  1
  Sc  Sc52  1  0.89694169  0.10254943  0.30451229  1
  Sc  Sc53  1  0.50340472  0.90066688  0.50211732  1
  Sc  Sc54  1  0.91019894  0.69974614  0.09119128  1
  Sc  Sc55  1  0.10117020  0.30353106  0.10569252  1
  Sc  Sc56  1  0.70337430  0.09357168  0.49369417  1
  Sc  Sc57  1  0.88968460  0.89276502  0.89937978  1
  Sc  Sc58  1  0.70358187  0.10444856  0.90791517  1
  Sc  Sc59  1  0.50737795  0.10807187  0.29463903  1
  Sc  Sc60  1  0.89931973  0.30397724  0.10679096  1
  Sc  Sc61  1  0.70817624  0.30982340  0.69013701  1
  Sc  Sc62  1  0.69974469  0.30202382  0.29906770  1
  Sc  Sc63  1  0.31099151  0.09991693  0.90392539  1
  Sc  Sc64  1  0.69867254  0.49036166  0.30299034  1
  Sc  Sc65  1  0.90086940  0.30510076  0.69147932  1
  Sc  Sc66  1  0.08696816  0.69979896  0.70070960  1
  Sc  Sc67  1  0.30922708  0.90578779  0.89574541  1
  Sc  Sc68  1  0.30112248  0.69344315  0.30719803  1
  Sc  Sc69  1  0.50689133  0.68669711  0.10261636  1
  Sc  Sc70  1  0.09918096  0.49000244  0.89611112  1
  Sc  Sc71  1  0.48735090  0.09535046  0.69951220  1
  Sc  Sc72  1  0.50022237  0.89093481  0.89747979  1
  Sc  Sc73  1  0.89669543  0.50314110  0.90053870  1
  Sc  Sc74  1  0.29893039  0.30439836  0.29296642  1
  Sc  Sc75  1  0.08769972  0.90191515  0.89094198  1
  Sc  Sc76  1  0.69939789  0.30357458  0.48995291  1
  Sc  Sc77  1  0.30551659  0.91730267  0.09850204  1
  Sc  Sc78  1  0.10197651  0.70790289  0.49072281  1
  Sc  Sc79  1  0.28840135  0.11207104  0.50846997  1
  Sc  Sc80  1  0.88925777  0.91216684  0.70896912  1
  Sc  Sc81  1  0.70193749  0.10054738  0.30265103  1
  Sc  Sc82  1  0.70806630  0.49585446  0.50586722  1
  Sc  Sc83  1  0.90068851  0.30978013  0.90814769  1
  Sc  Sc84  1  0.09600461  0.89933059  0.30644238  1
  Sc  Sc85  1  0.49886745  0.49686308  0.29367248  1
  Sc  Sc86  1  0.90384394  0.90520922  0.30099963  1
  Sc  Sc87  1  0.50360970  0.69018433  0.70276790  1
  Sc  Sc88  1  0.50137331  0.69738159  0.29840230  1
  Sc  Sc89  1  0.30283151  0.49129856  0.69839696  1
  Sc  Sc90  1  0.89529004  0.69957297  0.89859920  1
  Sc  Sc91  1  0.50534739  0.89785103  0.29940817  1
  Sc  Sc92  1  0.30244856  0.50005739  0.10180546  1
  Sc  Sc93  1  0.09638244  0.30429249  0.30474922  1
  Sc  Sc94  1  0.89724064  0.69333616  0.70339305  1
  Sc  Sc95  1  0.50067996  0.28893975  0.91059872  1
  Sc  Sc96  1  0.30448251  0.70056845  0.49600624  1
  Sc  Sc97  1  0.49524115  0.10406398  0.09834904  1
  Sc  Sc98  1  0.70365930  0.50468701  0.90680066  1
  Sc  Sc99  1  0.89908360  0.30732558  0.29951462  1
  Nb  Nb100  1  0.09398766  0.09929479  0.70599804  1
  Nb  Nb101  1  0.69844896  0.90031204  0.70458443  1
  Nb  Nb102  1  0.90272439  0.10485623  0.69640524  1
  Nb  Nb103  1  0.70413354  0.89285450  0.90067854  1
  Nb  Nb104  1  0.69770525  0.30428944  0.09564655  1
  Nb  Nb105  1  0.10766500  0.70099113  0.09736858  1
  Nb  Nb106  1  0.50337105  0.10519118  0.49304532  1
  Nb  Nb107  1  0.89925783  0.49676907  0.29913435  1
  Nb  Nb108  1  0.29604105  0.49502016  0.29843667  1
  Nb  Nb109  1  0.29216347  0.69158535  0.09314451  1
  Nb  Nb110  1  0.89961291  0.50046737  0.49482748  1
  Nb  Nb111  1  0.09791716  0.10236984  0.90079800  1
  Nb  Nb112  1  0.49650215  0.29906029  0.50054309  1
  Nb  Nb113  1  0.50652358  0.49604194  0.70267907  1
  Nb  Nb114  1  0.30812801  0.30627365  0.50201234  1
  Nb  Nb115  1  0.69813781  0.49817011  0.70174721  1
  Nb  Nb116  1  0.70165081  0.70431545  0.89931835  1
  Nb  Nb117  1  0.69921880  0.70129684  0.50063059  1
  Nb  Nb118  1  0.50039395  0.29861068  0.69794437  1
  Nb  Nb119  1  0.70389971  0.89783715  0.09646358  1
  Nb  Nb120  1  0.29682148  0.30288244  0.89588917  1
  Nb  Nb121  1  0.49826255  0.50642209  0.88934313  1
  Nb  Nb122  1  0.90032168  0.89863123  0.49092303  1
  Nb  Nb123  1  0.89722037  0.09996775  0.50864996  1
  Nb  Nb124  1  0.30467138  0.10267887  0.30039927  1
  Nb  Nb125  1  0.39963605  0.20206369  0.40302777  1
  Nb  Nb126  1  0.40975077  0.39453638  0.80080007  1
  Nb  Nb127  1  0.20072907  0.80431804  0.00016613  1
  Nb  Nb128  1  0.39501441  0.79237432  0.00831178  1
  Nb  Nb129  1  0.19111234  0.00345901  -0.00105128  1
  Nb  Nb130  1  0.20618327  0.79705138  0.18986482  1
  Nb  Nb131  1  0.59503506  0.20063420  0.59882200  1
  Nb  Nb132  1  0.19824418  0.59955251  0.60168956  1
  Nb  Nb133  1  0.20024413  0.79685893  0.80207650  1
  Nb  Nb134  1  -0.00070823  0.19712692  0.79911903  1
  Nb  Nb135  1  -0.00831865  0.59531737  0.39797605  1
  Nb  Nb136  1  0.60594642  0.19971155  0.78760311  1
  Nb  Nb137  1  0.19967215  0.60053715  0.79478842  1
  Nb  Nb138  1  0.39759977  0.01148141  0.40156565  1
  Nb  Nb139  1  0.79663730  0.79890897  0.19467152  1
  Nb  Nb140  1  0.80230929  0.20048591  0.79569880  1
  Nb  Nb141  1  -0.00849044  0.80834277  0.59415901  1
  Nb  Nb142  1  0.60824350  -0.00787676  -0.00118373  1
  Nb  Nb143  1  0.39207383  0.79607616  0.19172062  1
  Nb  Nb144  1  0.19660903  0.19683591  0.80521681  1
  Nb  Nb145  1  0.60142411  0.59868666  0.40950839  1
  Nb  Nb146  1  0.60851361  -0.00204989  0.80103268  1
  Nb  Nb147  1  0.00102649  0.00533124  0.00140151  1
  Nb  Nb148  1  0.80277054  0.60174254  0.20273328  1
  Nb  Nb149  1  0.59730382  0.39866260  0.79720966  1
  Pd  Pd150  1  0.79529570  0.39564031  0.80428372  1
  Pd  Pd151  1  0.60437351  0.59425223  0.59506470  1
  Pd  Pd152  1  0.41023934  0.59406641  0.39604173  1
  Pd  Pd153  1  0.59583409  -0.00062620  0.39883647  1
  Pd  Pd154  1  0.60344662  0.79055478  0.19645044  1
  Pd  Pd155  1  0.39615584  0.00262663  0.58747172  1
  Pd  Pd156  1  0.79932927  0.20119462  0.39861181  1
  Pd  Pd157  1  0.00636006  0.40611871  0.00905427  1
  Pd  Pd158  1  0.60213289  0.79900543  0.79775518  1
  Pd  Pd159  1  0.59975584  0.00745496  0.19256867  1
  Pd  Pd160  1  0.60867955  0.19851730  0.19603406  1
  Pd  Pd161  1  0.19629301  0.40838405  0.00812382  1
  Pd  Pd162  1  -0.00500900  0.80394996  0.79079029  1
  Pd  Pd163  1  0.40424148  0.19302987  0.59494452  1
  Pd  Pd164  1  0.00217442  0.61221973  0.58589228  1
  Pd  Pd165  1  -0.00426913  0.79835851  0.19926419  1
  Pd  Pd166  1  0.79728662  0.20787797  0.20457346  1
  Pd  Pd167  1  -0.00252791  0.39605075  0.59430727  1
  Pd  Pd168  1  0.39415592  0.60192779  0.19930602  1
  Pd  Pd169  1  0.80686016  0.80645049  0.61035112  1
  Pd  Pd170  1  0.00225163  0.80791528  -0.00261299  1
  Pd  Pd171  1  0.39498059  0.59426822  0.60211235  1
  Pd  Pd172  1  -0.00992634  0.60282159  0.20468481  1
  Pd  Pd173  1  0.39610532  0.20103581  0.00240864  1
  Pd  Pd174  1  0.59545960  0.00660746  0.60504639  1
  Pd  Pd175  1  0.40817283  0.39994344  -0.00528510  1
  Pd  Pd176  1  0.39952632  0.80869426  0.39078240  1
  Pd  Pd177  1  0.18885788  0.79076041  0.60733055  1
  Pd  Pd178  1  0.20018011  -0.00062836  0.81098875  1
  Pd  Pd179  1  0.40657916  0.79830035  0.59702575  1
  Pd  Pd180  1  -0.01061402  0.19946739  -0.00262740  1
  Pd  Pd181  1  0.59407815  0.79656002  -0.00122851  1
  Pd  Pd182  1  -0.00016875  0.59182177  -0.00359521  1
  Pd  Pd183  1  0.20404119  0.40454576  0.60054154  1
  Pd  Pd184  1  -0.00494331  0.00957558  0.39700138  1
  Pd  Pd185  1  0.60241792  0.39345087  0.59853386  1
  Pd  Pd186  1  0.79356961  0.20587781  0.59529571  1
  Pd  Pd187  1  0.19804244  0.00677043  0.59348115  1
  Pd  Pd188  1  0.79501983  0.60028218  0.80158150  1
  Pd  Pd189  1  0.41201528  -0.00129873  0.20945421  1
  Pd  Pd190  1  -0.01013898  -0.00607876  0.60097896  1
  Pd  Pd191  1  -0.01003699  0.39578261  0.80088535  1
  Pd  Pd192  1  0.60132287  0.79756121  0.40202490  1
  Pd  Pd193  1  0.59200945  0.40593846  -0.00891560  1
  Pd  Pd194  1  0.20307211  0.00874549  0.40968564  1
  Pd  Pd195  1  0.80979809  0.20695936  0.00041459  1
  Pd  Pd196  1  0.00014245  0.20529494  0.21067939  1
  Pd  Pd197  1  0.19489906  0.60114333  0.40402105  1
  Pd  Pd198  1  0.20817385  0.20730306  0.39513448  1
  Pd  Pd199  1  0.79300075  0.59133442  0.39433583  1
  Rh  Rh200  1  0.21291441  0.19268027  -0.00632181  1
  Rh  Rh201  1  0.40955830  -0.00656653  -0.00280408  1
  Rh  Rh202  1  -0.00264904  0.79371839  0.40537744  1
  Rh  Rh203  1  0.20899184  0.60256235  0.20765595  1
  Rh  Rh204  1  0.79966782  -0.00434095  -0.00512842  1
  Rh  Rh205  1  0.61171035  0.59681670  0.21386102  1
  Rh  Rh206  1  0.00285605  0.40121440  0.19920990  1
  Rh  Rh207  1  -0.00348335  0.40375233  0.40052152  1
  Rh  Rh208  1  0.60363155  0.19023968  0.01032698  1
  Rh  Rh209  1  -0.00335108  0.19659369  0.39703668  1
  Rh  Rh210  1  0.79863588  0.39956721  0.00407614  1
  Rh  Rh211  1  0.80872027  -0.00836832  0.59181481  1
  Rh  Rh212  1  0.59876032  0.59689227  -0.01087205  1
  Rh  Rh213  1  0.41051743  -0.00504484  0.80245969  1
  Rh  Rh214  1  0.79799158  0.79172174  0.00447821  1
  Rh  Rh215  1  0.79624900  0.79345621  0.79632675  1
  Rh  Rh216  1  0.40148373  0.20706688  0.20826711  1
  Rh  Rh217  1  -0.00539484  0.00273917  0.80330558  1
  Rh  Rh218  1  0.80289498  -0.00036510  0.40384051  1
  Rh  Rh219  1  0.79166872  0.00539285  0.80783464  1
  Rh  Rh220  1  0.39889358  0.40187976  0.20102432  1
  Rh  Rh221  1  0.59942384  0.40650483  0.40436773  1
  Rh  Rh222  1  0.80169846  0.60496819  0.00513493  1
  Rh  Rh223  1  0.20650511  0.39298042  0.39816067  1
  Rh  Rh224  1  0.19400539  -0.00110490  0.19615192  1
  Rh  Rh225  1  0.39579611  0.80141161  0.80373120  1
  Rh  Rh226  1  0.20373731  0.79897689  0.38755609  1
  Rh  Rh227  1  0.40027469  0.40042893  0.60606209  1
  Rh  Rh228  1  0.40907065  0.59911949  0.00682840  1
  Rh  Rh229  1  0.59887897  0.79822636  0.60318844  1
  Rh  Rh230  1  0.39943414  0.20706292  0.80646616  1
  Rh  Rh231  1  0.00250687  0.20613712  0.60639113  1
  Rh  Rh232  1  0.19139700  0.19750101  0.61117114  1
  Rh  Rh233  1  0.21037458  0.39918826  0.79825364  1
  Rh  Rh234  1  0.80067189  -0.00503591  0.20740698  1
  Rh  Rh235  1  0.79401724  0.59602743  0.60040952  1
  Rh  Rh236  1  0.00194111  0.00829894  0.20299645  1
  Rh  Rh237  1  0.79485788  0.40292991  0.19827493  1
  Rh  Rh238  1  0.60440744  0.39791740  0.19886132  1
  Rh  Rh239  1  0.61260445  0.59510349  0.80171407  1
  Rh  Rh240  1  0.39311145  0.58853042  0.78832515  1
  Rh  Rh241  1  0.59926366  0.20341334  0.40515859  1
  Rh  Rh242  1  0.19202288  0.59425014  -0.01097096  1
  Rh  Rh243  1  0.80524147  0.40097786  0.59226903  1
  Rh  Rh244  1  0.19932465  0.40164602  0.19751183  1
  Rh  Rh245  1  0.79056860  0.81101189  0.39394930  1
  Rh  Rh246  1  0.80446464  0.39846500  0.40135353  1
  Rh  Rh247  1  0.19977708  0.20832157  0.20760625  1
  Rh  Rh248  1  -0.00092333  0.59286560  0.80555272  1
  Rh  Rh249  1  0.39630170  0.39393932  0.39185992  1
