# generated using pymatgen
data_ZrScNbPdRh
_symmetry_space_group_name_H-M   'P 1'
_cell_length_a   16.56186781
_cell_length_b   16.55809002
_cell_length_c   16.56159543
_cell_angle_alpha   90.00064857
_cell_angle_beta   90.01864333
_cell_angle_gamma   89.98139733
_symmetry_Int_Tables_number   1
_chemical_formula_structural   ZrScNbPdRh
_chemical_formula_sum   'Zr50 Sc50 Nb50 Pd50 Rh50'
_cell_volume   4541.73383147
_cell_formula_units_Z   50
loop_
 _symmetry_equiv_pos_site_id
 _symmetry_equiv_pos_as_xyz
  1  'x, y, z'
loop_
 _atom_site_type_symbol
 _atom_site_label
 _atom_site_symmetry_multiplicity
 _atom_site_fract_x
 _atom_site_fract_y
 _atom_site_fract_z
 _atom_site_occupancy
  Zr  Zr0  1  0.10267987  0.10586245  0.90785412  1
  Zr  Zr1  1  0.51006968  0.51061546  0.50336631  1
  Zr  Zr2  1  0.10839053  0.69873977  0.49511536  1
  Zr  Zr3  1  0.89301439  0.09182758  0.70558709  1
  Zr  Zr4  1  0.49192863  0.09229201  0.89844294  1
  Zr  Zr5  1  0.69707766  0.29602770  0.30219053  1
  Zr  Zr6  1  0.28725914  0.29463963  0.90047091  1
  Zr  Zr7  1  0.09874139  0.89538241  0.30104212  1
  Zr  Zr8  1  0.49075086  0.70929186  0.49873499  1
  Zr  Zr9  1  0.90448661  0.70293268  0.30085071  1
  Zr  Zr10  1  0.70310594  0.89913083  0.30079535  1
  Zr  Zr11  1  0.89741174  0.29613439  0.29208217  1
  Zr  Zr12  1  0.69999542  0.09176854  0.51527154  1
  Zr  Zr13  1  0.48554872  0.49735113  0.30129309  1
  Zr  Zr14  1  0.30316389  0.09032389  0.29944273  1
  Zr  Zr15  1  0.30131366  0.50467455  0.70051399  1
  Zr  Zr16  1  0.50237513  0.70362138  0.30162417  1
  Zr  Zr17  1  0.90277093  0.10196105  0.10668370  1
  Zr  Zr18  1  0.10089173  0.70889272  0.90392520  1
  Zr  Zr19  1  0.50201913  0.50108134  0.10085743  1
  Zr  Zr20  1  0.09173538  0.70361101  0.68961025  1
  Zr  Zr21  1  0.11000909  0.91230328  0.49965838  1
  Zr  Zr22  1  0.50909634  0.29695669  0.49712089  1
  Zr  Zr23  1  0.31145995  0.09812052  0.70070127  1
  Zr  Zr24  1  0.90012799  0.89894767  0.90789365  1
  Zr  Zr25  1  0.50406417  0.69639900  0.69827157  1
  Zr  Zr26  1  0.50026863  0.49906266  0.89853268  1
  Zr  Zr27  1  0.90998625  0.29611752  0.89860735  1
  Zr  Zr28  1  0.30012348  0.90111030  0.70124563  1
  Zr  Zr29  1  0.29956235  0.09632061  0.89945180  1
  Zr  Zr30  1  0.29452118  0.50435028  0.29809042  1
  Zr  Zr31  1  0.70393238  0.09272968  0.90012010  1
  Zr  Zr32  1  0.10152357  0.30716142  0.29777492  1
  Zr  Zr33  1  0.70445995  0.30121632  0.90630057  1
  Zr  Zr34  1  0.70060763  0.71003965  0.90663865  1
  Zr  Zr35  1  0.89268285  0.50740833  0.69951765  1
  Zr  Zr36  1  0.09155926  0.30663328  0.50221651  1
  Zr  Zr37  1  0.29700663  0.69687787  0.10074016  1
  Zr  Zr38  1  0.50432552  0.09962897  0.29005099  1
  Zr  Zr39  1  0.49848971  0.29488636  0.30094369  1
  Zr  Zr40  1  0.49430076  0.49972165  0.70756699  1
  Zr  Zr41  1  0.09394560  0.89912041  0.09470736  1
  Zr  Zr42  1  0.50590262  0.11027964  0.69503207  1
  Zr  Zr43  1  0.29989228  0.70546236  0.69329040  1
  Zr  Zr44  1  0.09957861  0.49667233  0.90130225  1
  Zr  Zr45  1  0.91167715  0.69507937  0.50298420  1
  Zr  Zr46  1  0.68510552  0.28630143  0.69263918  1
  Zr  Zr47  1  0.89390060  0.71215561  0.89103614  1
  Zr  Zr48  1  0.29935084  0.08889443  0.49602093  1
  Zr  Zr49  1  0.09914679  0.29663458  0.70955564  1
  Sc  Sc50  1  0.89412348  0.90165170  0.49231847  1
  Sc  Sc51  1  0.50826480  0.70991894  0.10560650  1
  Sc  Sc52  1  0.89914438  0.51008892  0.29480526  1
  Sc  Sc53  1  0.30260792  0.90300178  0.10184532  1
  Sc  Sc54  1  0.49856871  0.89523944  0.90361742  1
  Sc  Sc55  1  0.50070260  0.30081279  0.88765167  1
  Sc  Sc56  1  0.70698737  0.29756419  0.10210272  1
  Sc  Sc57  1  0.30543181  0.90087477  0.30467272  1
  Sc  Sc58  1  0.29914934  0.90147106  0.89361799  1
  Sc  Sc59  1  0.49864385  0.89050603  0.69959561  1
  Sc  Sc60  1  0.10040874  0.50230883  0.69091881  1
  Sc  Sc61  1  0.29863660  0.49738282  0.89813360  1
  Sc  Sc62  1  0.50321510  0.70682928  0.89856987  1
  Sc  Sc63  1  0.70263059  0.09556535  0.29787681  1
  Sc  Sc64  1  0.70195239  0.09108601  0.10770297  1
  Sc  Sc65  1  0.68786355  0.50764949  0.70145086  1
  Sc  Sc66  1  0.90172955  0.09379711  0.51003835  1
  Sc  Sc67  1  0.89744959  0.89811173  0.30065213  1
  Sc  Sc68  1  0.89328591  0.09601663  0.29690214  1
  Sc  Sc69  1  0.89792754  0.29695719  0.09546319  1
  Sc  Sc70  1  0.09949640  0.50654663  0.49420828  1
  Sc  Sc71  1  0.89764394  0.49515689  0.90448298  1
  Sc  Sc72  1  0.69616103  0.49571751  0.90676489  1
  Sc  Sc73  1  0.09833390  0.29592354  0.09280910  1
  Sc  Sc74  1  0.90590120  0.70148753  0.11167127  1
  Sc  Sc75  1  0.70043666  0.89525101  0.10056269  1
  Sc  Sc76  1  0.29373227  0.49799471  0.10713356  1
  Sc  Sc77  1  0.09729894  0.09319169  0.69291345  1
  Sc  Sc78  1  0.10607977  0.89567742  0.70003703  1
  Sc  Sc79  1  0.90070779  0.89150393  0.70863214  1
  Sc  Sc80  1  0.69382645  0.90400356  0.49689076  1
  Sc  Sc81  1  0.30667179  0.29338399  0.70837560  1
  Sc  Sc82  1  0.50042932  0.90278835  0.29658569  1
  Sc  Sc83  1  0.29934274  0.51199685  0.49290890  1
  Sc  Sc84  1  0.70225631  0.49688978  0.29760373  1
  Sc  Sc85  1  0.70872133  0.89671878  0.90923146  1
  Sc  Sc86  1  0.10111209  0.51027464  0.09405976  1
  Sc  Sc87  1  0.29791727  0.29943238  0.10194378  1
  Sc  Sc88  1  0.09258785  0.09162528  0.29626696  1
  Sc  Sc89  1  0.30656204  0.31592092  0.29798294  1
  Sc  Sc90  1  0.91030388  0.29293902  0.69527768  1
  Sc  Sc91  1  0.90009548  0.09779687  0.90993534  1
  Sc  Sc92  1  0.09999646  0.09595941  0.09942585  1
  Sc  Sc93  1  0.90829596  0.49817988  0.49532043  1
  Sc  Sc94  1  0.09558584  0.69881655  0.09625050  1
  Sc  Sc95  1  0.30248300  0.09959102  0.09295767  1
  Sc  Sc96  1  0.29889382  0.71110034  0.90196753  1
  Sc  Sc97  1  0.31356275  0.29654100  0.49295144  1
  Sc  Sc98  1  0.70090518  0.49746171  0.10013919  1
  Sc  Sc99  1  0.67772341  0.70180234  0.49495021  1
  Nb  Nb100  1  0.09697010  0.29609343  0.89711275  1
  Nb  Nb101  1  0.09748504  0.89988856  0.90199827  1
  Nb  Nb102  1  0.10269885  0.49983124  0.29679864  1
  Nb  Nb103  1  0.50146542  0.09992478  0.10017763  1
  Nb  Nb104  1  0.29946091  0.70819582  0.48944118  1
  Nb  Nb105  1  0.49695601  0.09504999  0.49783666  1
  Nb  Nb106  1  0.49284138  0.29715294  0.69353897  1
  Nb  Nb107  1  0.89837258  0.30037514  0.49831561  1
  Nb  Nb108  1  0.70237595  0.30679355  0.49668446  1
  Nb  Nb109  1  0.49704762  0.29172969  0.10639293  1
  Nb  Nb110  1  0.89460338  0.70048169  0.70184164  1
  Nb  Nb111  1  0.09654808  0.69950570  0.29988149  1
  Nb  Nb112  1  0.70419095  0.90955833  0.69456501  1
  Nb  Nb113  1  0.70241442  0.49996797  0.50062227  1
  Nb  Nb114  1  0.30664356  0.89579618  0.49628216  1
  Nb  Nb115  1  0.29749701  0.70022093  0.30878312  1
  Nb  Nb116  1  0.10439774  0.10034026  0.49676294  1
  Nb  Nb117  1  0.70244743  0.70406417  0.29212893  1
  Nb  Nb118  1  0.70195782  0.09088415  0.69970932  1
  Nb  Nb119  1  0.70160157  0.69948889  0.10569452  1
  Nb  Nb120  1  0.49902805  0.90016227  0.49773585  1
  Nb  Nb121  1  0.70544818  0.70569271  0.70630007  1
  Nb  Nb122  1  0.89871699  0.50723367  0.10192342  1
  Nb  Nb123  1  0.50563702  0.90820522  0.10489624  1
  Nb  Nb124  1  0.90047820  0.90182914  0.09566584  1
  Nb  Nb125  1  0.80094120  0.20498624  0.41154342  1
  Nb  Nb126  1  0.00337635  -0.00478018  0.80912417  1
  Nb  Nb127  1  0.19325637  0.60654208  0.79902397  1
  Nb  Nb128  1  0.59200076  0.39231542  0.20073823  1
  Nb  Nb129  1  0.60537827  -0.00097928  0.79425416  1
  Nb  Nb130  1  0.40425872  -0.00374654  0.59277350  1
  Nb  Nb131  1  0.79666986  0.39083487  0.79118131  1
  Nb  Nb132  1  0.79634218  0.19992420  0.79766292  1
  Nb  Nb133  1  0.79602098  0.79197707  0.60297969  1
  Nb  Nb134  1  0.80013035  0.60635823  0.00748448  1
  Nb  Nb135  1  0.79497259  0.39917245  0.59657752  1
  Nb  Nb136  1  0.20022424  0.20111032  0.59320154  1
  Nb  Nb137  1  0.19455191  0.19855493  0.39938584  1
  Nb  Nb138  1  0.20715744  0.39291181  0.59896574  1
  Nb  Nb139  1  0.40293629  0.59782390  0.00234870  1
  Nb  Nb140  1  0.19953552  0.19857200  0.20808977  1
  Nb  Nb141  1  0.59338238  0.19416569  0.00511819  1
  Nb  Nb142  1  0.79332059  0.60369631  0.59458123  1
  Nb  Nb143  1  -0.00042788  0.60625334  0.79920025  1
  Nb  Nb144  1  0.19856084  0.79482299  0.20663862  1
  Nb  Nb145  1  0.00027165  0.40773643  0.19603343  1
  Nb  Nb146  1  0.79437247  0.60496037  0.40354183  1
  Nb  Nb147  1  0.40350767  0.39936078  0.60155306  1
  Nb  Nb148  1  0.40414725  0.39963076  0.00183597  1
  Nb  Nb149  1  -0.00189454  0.20163686  0.40371576  1
  Pd  Pd150  1  0.60668055  0.81091286  0.80117071  1
  Pd  Pd151  1  0.80083451  0.40238020  0.19504093  1
  Pd  Pd152  1  0.60308977  0.19267039  0.80977247  1
  Pd  Pd153  1  0.60292107  0.59263616  0.20597171  1
  Pd  Pd154  1  0.60633403  0.60427926  0.80842215  1
  Pd  Pd155  1  0.79624367  0.59209877  0.80910632  1
  Pd  Pd156  1  0.59687988  0.40709034  0.39260663  1
  Pd  Pd157  1  0.20243474  0.80359782  0.59340788  1
  Pd  Pd158  1  0.40457751  0.79918908  0.00603035  1
  Pd  Pd159  1  0.38795828  0.19715705  0.20196218  1
  Pd  Pd160  1  0.60484220  0.39669021  0.79344070  1
  Pd  Pd161  1  -0.00601004  -0.00639082  0.20130168  1
  Pd  Pd162  1  0.80125286  0.20485487  0.60151339  1
  Pd  Pd163  1  0.39148240  0.61079412  0.81113257  1
  Pd  Pd164  1  0.19738962  0.18758065  0.79080785  1
  Pd  Pd165  1  0.59974148  0.00214638  0.39641610  1
  Pd  Pd166  1  0.39806485  -0.00858393  0.00305028  1
  Pd  Pd167  1  0.20053017  -0.00259082  0.19818960  1
  Pd  Pd168  1  0.19901854  0.40567718  0.79336755  1
  Pd  Pd169  1  0.00437999  0.80434225  0.40826155  1
  Pd  Pd170  1  0.59779880  0.40325204  0.60576144  1
  Pd  Pd171  1  0.79537438  0.19333928  0.00089322  1
  Pd  Pd172  1  0.00375662  0.19387282  0.59735455  1
  Pd  Pd173  1  0.39448888  0.80259178  0.20191609  1
  Pd  Pd174  1  0.79216913  0.78995404  0.41079615  1
  Pd  Pd175  1  0.19144479  0.00358943  0.80031514  1
  Pd  Pd176  1  0.20393518  0.80775028  0.00772510  1
  Pd  Pd177  1  0.39616419  0.19462138  0.39413046  1
  Pd  Pd178  1  -0.01246439  0.60800457  -0.00859890  1
  Pd  Pd179  1  -0.00601200  0.40921175  0.79422407  1
  Pd  Pd180  1  0.39645921  0.60007224  0.59285693  1
  Pd  Pd181  1  0.61002414  0.18616989  0.40598468  1
  Pd  Pd182  1  -0.00464213  -0.01042598  0.60870972  1
  Pd  Pd183  1  0.60480580  0.59691067  0.38794650  1
  Pd  Pd184  1  0.20663807  0.39784323  0.40864072  1
  Pd  Pd185  1  0.60583979  0.80399457  0.60214451  1
  Pd  Pd186  1  0.80501383  0.80470747  0.19603614  1
  Pd  Pd187  1  0.40386946  0.20868868  -0.00595907  1
  Pd  Pd188  1  0.20154509  0.40004608  0.00498173  1
  Pd  Pd189  1  0.59353891  0.38653639  0.00991649  1
  Pd  Pd190  1  0.60144830  0.60765682  0.00025071  1
  Pd  Pd191  1  -0.00601674  0.81263962  0.59315970  1
  Pd  Pd192  1  -0.00131749  0.39955158  0.00880827  1
  Pd  Pd193  1  0.80687844  0.40563217  0.40063858  1
  Pd  Pd194  1  0.40001972  0.60616559  0.19606964  1
  Pd  Pd195  1  0.60171094  -0.00138367  -0.00283471  1
  Pd  Pd196  1  -0.00195636  0.40595176  0.60470167  1
  Pd  Pd197  1  -0.00678973  0.00675731  0.39832852  1
  Pd  Pd198  1  -0.00834840  0.40290770  0.38786085  1
  Pd  Pd199  1  0.19316484  0.60733013  0.20218084  1
  Rh  Rh200  1  0.80908847  -0.01435497  0.59819357  1
  Rh  Rh201  1  0.18946251  0.39677571  0.19198336  1
  Rh  Rh202  1  0.00723931  0.20774092  0.20382916  1
  Rh  Rh203  1  0.00112857  0.00285521  -0.00178527  1
  Rh  Rh204  1  0.59854819  0.80404214  0.00739721  1
  Rh  Rh205  1  0.39968765  0.20260549  0.80894831  1
  Rh  Rh206  1  0.19847724  0.19949814  0.00768874  1
  Rh  Rh207  1  -0.00612259  0.79614374  0.00423010  1
  Rh  Rh208  1  0.79483960  0.60289582  0.20112245  1
  Rh  Rh209  1  0.60327081  0.80563592  0.20223925  1
  Rh  Rh210  1  0.80264662  0.00004361  0.01090652  1
  Rh  Rh211  1  0.59700577  0.80582381  0.39223802  1
  Rh  Rh212  1  0.20502856  0.59821257  0.59977139  1
  Rh  Rh213  1  0.41294486  -0.00605236  0.78961810  1
  Rh  Rh214  1  0.00114321  0.59833286  0.39186697  1
  Rh  Rh215  1  0.79906196  0.01069111  0.40320677  1
  Rh  Rh216  1  0.20327167  -0.00450306  -0.00159090  1
  Rh  Rh217  1  0.40320691  0.80362574  0.39241116  1
  Rh  Rh218  1  0.00484037  0.80374821  0.19766183  1
  Rh  Rh219  1  0.40272208  0.00000686  0.19459738  1
  Rh  Rh220  1  0.40934334  -0.00409175  0.40069034  1
  Rh  Rh221  1  0.39714607  0.80431542  0.59881501  1
  Rh  Rh222  1  0.00749026  0.59460095  0.20367723  1
  Rh  Rh223  1  -0.00441419  0.18532442  0.80475169  1
  Rh  Rh224  1  0.00130763  0.19902764  0.00315715  1
  Rh  Rh225  1  0.80258741  -0.00256764  0.80541396  1
  Rh  Rh226  1  0.21157569  0.59833585  -0.01084916  1
  Rh  Rh227  1  0.19581482  0.60121119  0.39470247  1
  Rh  Rh228  1  0.40381471  0.41015564  0.41459660  1
  Rh  Rh229  1  0.00781912  0.80212989  0.79973125  1
  Rh  Rh230  1  0.20030075  0.80378928  0.39570446  1
  Rh  Rh231  1  0.20949032  0.00194780  0.60175684  1
  Rh  Rh232  1  0.60333278  0.60706780  0.60422097  1
  Rh  Rh233  1  0.79125008  0.81190608  0.79410403  1
  Rh  Rh234  1  -0.00498902  0.59511225  0.60450886  1
  Rh  Rh235  1  0.40405768  0.39961077  0.19041715  1
  Rh  Rh236  1  0.59820723  0.19609092  0.58872342  1
  Rh  Rh237  1  0.39855129  0.19828178  0.59212174  1
  Rh  Rh238  1  0.40008212  0.79775368  0.79886588  1
  Rh  Rh239  1  0.39668658  0.39234094  0.80055673  1
  Rh  Rh240  1  0.60217421  -0.00282859  0.20047207  1
  Rh  Rh241  1  0.39982100  0.60426084  0.40098362  1
  Rh  Rh242  1  0.80426422  0.40819372  0.00002573  1
  Rh  Rh243  1  0.19989607  -0.00152322  0.39361310  1
  Rh  Rh244  1  0.60707190  0.20161162  0.19160041  1
  Rh  Rh245  1  0.19668258  0.79633685  0.79803449  1
  Rh  Rh246  1  0.80581059  0.79117606  0.01484675  1
  Rh  Rh247  1  0.58763450  -0.00488781  0.60549490  1
  Rh  Rh248  1  0.80274578  -0.00829364  0.19731617  1
  Rh  Rh249  1  0.79636078  0.19580246  0.20530649  1
