# generated using pymatgen
data_ZrScNbPdRh
_symmetry_space_group_name_H-M   'P 1'
_cell_length_a   16.56127042
_cell_length_b   16.56088628
_cell_length_c   16.56038321
_cell_angle_alpha   90.01452333
_cell_angle_beta   90.03995559
_cell_angle_gamma   89.96198934
_symmetry_Int_Tables_number   1
_chemical_formula_structural   ZrScNbPdRh
_chemical_formula_sum   'Zr50 Sc50 Nb50 Pd50 Rh50'
_cell_volume   4542.00272915
_cell_formula_units_Z   50
loop_
 _symmetry_equiv_pos_site_id
 _symmetry_equiv_pos_as_xyz
  1  'x, y, z'
loop_
 _atom_site_type_symbol
 _atom_site_label
 _atom_site_symmetry_multiplicity
 _atom_site_fract_x
 _atom_site_fract_y
 _atom_site_fract_z
 _atom_site_occupancy
  Zr  Zr0  1  0.89912382  0.09930000  0.70198928  1
  Zr  Zr1  1  0.89698307  0.70314780  0.50106199  1
  Zr  Zr2  1  0.89568610  0.30083670  0.68847577  1
  Zr  Zr3  1  0.29785879  0.10130531  0.30869137  1
  Zr  Zr4  1  0.49608895  0.30040861  0.89639171  1
  Zr  Zr5  1  0.70044466  0.30775342  0.69548839  1
  Zr  Zr6  1  0.29761748  0.09530578  0.10034387  1
  Zr  Zr7  1  0.89183687  0.50013046  0.70031400  1
  Zr  Zr8  1  0.29423242  0.10484405  0.90224479  1
  Zr  Zr9  1  0.69166494  0.29895224  0.89443122  1
  Zr  Zr10  1  0.90425515  0.50062954  0.89293217  1
  Zr  Zr11  1  0.09708075  0.29899830  0.50594249  1
  Zr  Zr12  1  0.90327909  0.89984729  0.09958268  1
  Zr  Zr13  1  0.49920657  0.49568985  0.48879684  1
  Zr  Zr14  1  0.09483420  0.50326414  0.29841210  1
  Zr  Zr15  1  0.69725405  0.29351714  0.09571913  1
  Zr  Zr16  1  0.29365777  0.30647071  0.49201192  1
  Zr  Zr17  1  0.50695349  0.91253929  0.49609904  1
  Zr  Zr18  1  0.09884503  0.09602486  0.30573021  1
  Zr  Zr19  1  0.31248080  0.70152221  0.09647773  1
  Zr  Zr20  1  0.30799050  0.70895386  0.29846771  1
  Zr  Zr21  1  0.09937762  0.90165291  0.09576276  1
  Zr  Zr22  1  0.49767937  0.09356710  0.90194801  1
  Zr  Zr23  1  0.89636847  0.09278609  0.11433806  1
  Zr  Zr24  1  0.89965840  0.90868747  0.29774385  1
  Zr  Zr25  1  0.49616065  0.69954611  0.90843210  1
  Zr  Zr26  1  0.70652643  0.69499298  0.69152295  1
  Zr  Zr27  1  0.10500903  0.09904695  0.50021468  1
  Zr  Zr28  1  0.49650327  0.89646012  0.09558648  1
  Zr  Zr29  1  0.70171928  0.89836199  0.50015521  1
  Zr  Zr30  1  0.50142431  0.30174768  0.70222712  1
  Zr  Zr31  1  0.69765292  0.50287569  0.10584951  1
  Zr  Zr32  1  0.90330825  0.29872802  0.09642263  1
  Zr  Zr33  1  0.29957522  0.69356640  0.89957352  1
  Zr  Zr34  1  0.50426652  0.69855961  0.10450416  1
  Zr  Zr35  1  0.11156150  0.29576241  0.30959569  1
  Zr  Zr36  1  0.69192341  0.50056637  0.50790649  1
  Zr  Zr37  1  0.50016108  0.50414141  0.11079218  1
  Zr  Zr38  1  0.69517890  0.09905558  0.09997220  1
  Zr  Zr39  1  0.09366530  0.30259987  0.09354465  1
  Zr  Zr40  1  0.70244879  0.10024264  0.29641660  1
  Zr  Zr41  1  0.29835602  0.70764321  0.70192654  1
  Zr  Zr42  1  0.90098572  0.10198521  0.30712499  1
  Zr  Zr43  1  0.70546558  0.49580221  0.88920201  1
  Zr  Zr44  1  0.49938508  0.30081314  0.50482068  1
  Zr  Zr45  1  0.90136500  0.90556110  0.70376291  1
  Zr  Zr46  1  0.91286930  0.30182422  0.89792314  1
  Zr  Zr47  1  0.10228661  0.49917905  0.50069425  1
  Zr  Zr48  1  0.09824904  0.89973528  0.90730025  1
  Zr  Zr49  1  0.29563191  0.50607052  0.70373124  1
  Sc  Sc50  1  0.90288254  0.11475629  0.49976605  1
  Sc  Sc51  1  0.90659585  0.50690983  0.29651270  1
  Sc  Sc52  1  0.49211710  0.09275918  0.68196666  1
  Sc  Sc53  1  0.90440812  0.90046242  0.89770156  1
  Sc  Sc54  1  0.11328419  0.70901341  0.08850091  1
  Sc  Sc55  1  0.30481660  0.90309055  0.89482340  1
  Sc  Sc56  1  0.30897375  0.50690703  0.09658555  1
  Sc  Sc57  1  0.69246816  0.10515333  0.90334534  1
  Sc  Sc58  1  0.91035105  0.49607952  0.10448577  1
  Sc  Sc59  1  0.10158956  0.90230270  0.31056340  1
  Sc  Sc60  1  0.48861523  0.69854760  0.70243195  1
  Sc  Sc61  1  0.49592123  0.49447981  0.89628979  1
  Sc  Sc62  1  0.10575282  0.09609879  0.69737262  1
  Sc  Sc63  1  0.30400714  0.49997704  0.89364548  1
  Sc  Sc64  1  0.09123093  0.70473258  0.49787884  1
  Sc  Sc65  1  0.09408760  0.50596928  0.69712432  1
  Sc  Sc66  1  0.49891786  0.70106076  0.49207834  1
  Sc  Sc67  1  0.70445927  0.89652362  0.90563136  1
  Sc  Sc68  1  0.90087989  0.89300026  0.49922763  1
  Sc  Sc69  1  0.10383542  0.90551051  0.69945223  1
  Sc  Sc70  1  0.10356359  0.10409328  0.89630181  1
  Sc  Sc71  1  0.31387929  0.49338463  0.30263231  1
  Sc  Sc72  1  0.30485702  0.89963209  0.30122770  1
  Sc  Sc73  1  0.49929381  0.09970084  0.09398202  1
  Sc  Sc74  1  0.90337631  0.69765499  0.69624477  1
  Sc  Sc75  1  0.10167746  0.69842712  0.70148064  1
  Sc  Sc76  1  0.29590597  0.89452853  0.09977129  1
  Sc  Sc77  1  0.69362906  0.29416965  0.30133885  1
  Sc  Sc78  1  0.70036392  0.70623509  0.49705041  1
  Sc  Sc79  1  0.90814229  0.69712906  0.30751535  1
  Sc  Sc80  1  0.71119750  0.90785845  0.69422358  1
  Sc  Sc81  1  0.90329000  0.10163799  0.89352119  1
  Sc  Sc82  1  0.10414079  0.29928623  0.70341804  1
  Sc  Sc83  1  0.30168523  0.29243944  0.09388735  1
  Sc  Sc84  1  0.90041335  0.69711348  0.10007746  1
  Sc  Sc85  1  0.90280551  0.71002213  0.89632193  1
  Sc  Sc86  1  0.30061455  0.89448312  0.49922390  1
  Sc  Sc87  1  0.49942064  0.49559674  0.69833300  1
  Sc  Sc88  1  0.50328523  0.30420312  0.09939295  1
  Sc  Sc89  1  0.10464179  0.09527556  0.09788423  1
  Sc  Sc90  1  0.90598639  0.50215386  0.51135066  1
  Sc  Sc91  1  0.10366490  0.70359002  0.89547268  1
  Sc  Sc92  1  0.29680499  0.30603785  0.70019348  1
  Sc  Sc93  1  0.10274031  0.50151578  0.88756688  1
  Sc  Sc94  1  0.69454885  0.89683613  0.10284037  1
  Sc  Sc95  1  0.70443720  0.10349951  0.69585889  1
  Sc  Sc96  1  0.29546637  0.70891283  0.49607399  1
  Sc  Sc97  1  0.68697307  0.50007693  0.30081992  1
  Sc  Sc98  1  0.09771671  0.89827777  0.49868234  1
  Sc  Sc99  1  0.69288951  0.89104411  0.30862833  1
  Nb  Nb100  1  0.29134730  0.29760784  0.89401294  1
  Nb  Nb101  1  0.49288782  0.30565038  0.30671802  1
  Nb  Nb102  1  0.10087837  0.69883334  0.30442733  1
  Nb  Nb103  1  0.70334299  0.50141475  0.70007677  1
  Nb  Nb104  1  0.69871983  0.70221015  0.29640782  1
  Nb  Nb105  1  0.31173516  0.90708784  0.69975560  1
  Nb  Nb106  1  0.50512124  0.70734820  0.29756564  1
  Nb  Nb107  1  0.30173937  0.08868109  0.70244553  1
  Nb  Nb108  1  0.89489174  0.29999316  0.49843759  1
  Nb  Nb109  1  0.69640716  0.69494850  0.10400190  1
  Nb  Nb110  1  0.29923488  0.29706913  0.30086729  1
  Nb  Nb111  1  0.89739568  0.29279357  0.31047730  1
  Nb  Nb112  1  0.50075761  0.89762020  0.30261943  1
  Nb  Nb113  1  0.69680748  0.69822842  0.90535768  1
  Nb  Nb114  1  0.49903620  0.49742465  0.30146226  1
  Nb  Nb115  1  0.70028706  0.29848090  0.50108219  1
  Nb  Nb116  1  0.31641155  0.10215090  0.50429238  1
  Nb  Nb117  1  0.10982141  0.29845653  0.89923984  1
  Nb  Nb118  1  0.68949350  0.09488255  0.50037847  1
  Nb  Nb119  1  0.10059276  0.49646684  0.09982635  1
  Nb  Nb120  1  0.49228141  0.89917011  0.70163690  1
  Nb  Nb121  1  0.49645591  0.09970419  0.49431515  1
  Nb  Nb122  1  0.50477606  0.90126189  0.89742985  1
  Nb  Nb123  1  0.29641710  0.50319860  0.49873043  1
  Nb  Nb124  1  0.49233713  0.09422989  0.31264099  1
  Nb  Nb125  1  0.59146476  0.19603424  0.40461250  1
  Nb  Nb126  1  0.80291098  0.39483923  0.20361400  1
  Nb  Nb127  1  -0.00598731  0.39292635  0.40292798  1
  Nb  Nb128  1  0.80125074  0.00221961  0.00679865  1
  Nb  Nb129  1  0.39337730  0.19523557  0.79780564  1
  Nb  Nb130  1  0.20176073  0.59937297  0.20267918  1
  Nb  Nb131  1  0.40048257  0.19942206  0.21227709  1
  Nb  Nb132  1  0.19669098  0.39888590  -0.00161483  1
  Nb  Nb133  1  0.79673800  0.59610476  0.39942937  1
  Nb  Nb134  1  0.79775241  0.59923064  0.00038190  1
  Nb  Nb135  1  0.59992149  0.80026440  0.79836191  1
  Nb  Nb136  1  0.80160428  0.39971377  0.40071784  1
  Nb  Nb137  1  0.80113374  0.40159446  0.00155901  1
  Nb  Nb138  1  0.79839343  0.79210633  0.20209802  1
  Nb  Nb139  1  0.20087893  0.40330481  0.19597311  1
  Nb  Nb140  1  0.00017129  0.20186098  0.20649946  1
  Nb  Nb141  1  0.39248674  0.59641961  0.59250673  1
  Nb  Nb142  1  0.79580601  0.00485936  0.40237780  1
  Nb  Nb143  1  0.00190068  0.80078855  0.20106036  1
  Nb  Nb144  1  0.60533107  0.60515194  0.79910314  1
  Nb  Nb145  1  0.00128194  0.59661742  -0.00169688  1
  Nb  Nb146  1  0.59479287  0.80599204  0.60915799  1
  Nb  Nb147  1  0.59335095  -0.00932108  0.79646747  1
  Nb  Nb148  1  0.58977177  -0.00191563  0.20857808  1
  Nb  Nb149  1  0.20103014  0.60072919  0.39403011  1
  Pd  Pd150  1  0.80428142  0.20772970  0.20050275  1
  Pd  Pd151  1  -0.00588201  0.00823948  -0.00551599  1
  Pd  Pd152  1  0.01303741  0.61504421  0.18657135  1
  Pd  Pd153  1  0.80096496  0.59909652  0.20356643  1
  Pd  Pd154  1  0.60215692  0.40609772  -0.00093937  1
  Pd  Pd155  1  0.79928999  0.20443565  0.80267239  1
  Pd  Pd156  1  0.00231913  0.19842154  0.60603614  1
  Pd  Pd157  1  0.60333952  0.60624686  0.39554551  1
  Pd  Pd158  1  0.40309145  0.20274607  -0.00029006  1
  Pd  Pd159  1  0.19922572  0.20419585  0.19351828  1
  Pd  Pd160  1  0.58844209  0.18455246  0.78887600  1
  Pd  Pd161  1  0.60119463  0.58933080  -0.00688206  1
  Pd  Pd162  1  0.40265409  0.00277065  0.19994754  1
  Pd  Pd163  1  0.39523061  0.60432598  0.39908244  1
  Pd  Pd164  1  0.79487379  0.79856374  0.79644052  1
  Pd  Pd165  1  0.19532158  0.80492078  0.60203683  1
  Pd  Pd166  1  0.60355927  0.39467233  0.20528714  1
  Pd  Pd167  1  0.39607542  0.40640428  0.59756358  1
  Pd  Pd168  1  0.00694127  0.19847086  0.79150491  1
  Pd  Pd169  1  0.20143491  0.60959762  0.59277072  1
  Pd  Pd170  1  0.20847639  -0.00118365  0.40989206  1
  Pd  Pd171  1  0.20970064  0.19780741  0.60253056  1
  Pd  Pd172  1  0.60156913  0.19730476  0.59911456  1
  Pd  Pd173  1  0.80115987  0.61242418  0.80484332  1
  Pd  Pd174  1  0.78935147  0.00329754  0.81294432  1
  Pd  Pd175  1  0.39295019  -0.00613161  0.00021967  1
  Pd  Pd176  1  0.20129241  0.80862128  0.79942061  1
  Pd  Pd177  1  0.00244579  0.18738976  0.00501121  1
  Pd  Pd178  1  0.19712500  -0.00387255  0.80395303  1
  Pd  Pd179  1  0.80393334  0.19716857  -0.00817613  1
  Pd  Pd180  1  0.00010348  0.38857666  0.21347229  1
  Pd  Pd181  1  0.00300760  0.80257608  0.60648060  1
  Pd  Pd182  1  0.80966697  0.00764619  0.58743266  1
  Pd  Pd183  1  0.19890938  -0.00749981  0.20411566  1
  Pd  Pd184  1  0.58673589  0.60662451  0.60574036  1
  Pd  Pd185  1  0.80062921  0.79763345  0.00842246  1
  Pd  Pd186  1  0.40591064  0.79684586  0.59123189  1
  Pd  Pd187  1  0.40118100  0.79922856  0.80749183  1
  Pd  Pd188  1  0.00539607  0.80212295  0.79444048  1
  Pd  Pd189  1  0.39329238  0.39141451  0.19503894  1
  Pd  Pd190  1  0.19613882  0.59134495  0.00097037  1
  Pd  Pd191  1  0.19462810  0.79873128  0.20542509  1
  Pd  Pd192  1  0.39218427  0.39999736  -0.00014553  1
  Pd  Pd193  1  0.60165571  0.80217475  -0.00115970  1
  Pd  Pd194  1  0.19742794  0.40242314  0.60764348  1
  Pd  Pd195  1  0.39143818  0.20593634  0.60676948  1
  Pd  Pd196  1  -0.00459446  0.00167230  0.59536915  1
  Pd  Pd197  1  0.58409092  0.19311754  0.20782812  1
  Pd  Pd198  1  0.20903802  -0.00514993  0.59386741  1
  Pd  Pd199  1  0.00592003  0.39745109  0.79086851  1
  Rh  Rh200  1  0.40463405  0.00691472  0.80031907  1
  Rh  Rh201  1  0.60106364  0.80308400  0.19964740  1
  Rh  Rh202  1  0.60242832  0.39024430  0.39879694  1
  Rh  Rh203  1  0.80130674  0.59757442  0.59016941  1
  Rh  Rh204  1  0.00609005  0.40944269  -0.01319739  1
  Rh  Rh205  1  0.60069271  0.40950301  0.79285544  1
  Rh  Rh206  1  0.19909609  0.41207567  0.39057132  1
  Rh  Rh207  1  0.79651081  0.40475046  0.59245349  1
  Rh  Rh208  1  0.60842251  -0.00348005  -0.00174404  1
  Rh  Rh209  1  -0.00145376  0.79012311  0.00591356  1
  Rh  Rh210  1  0.00026034  0.60418028  0.60160283  1
  Rh  Rh211  1  0.39644675  -0.00658722  0.59127603  1
  Rh  Rh212  1  0.20624615  0.19537780  0.79025011  1
  Rh  Rh213  1  0.39504383  0.39283262  0.79947033  1
  Rh  Rh214  1  0.40295778  0.60361038  0.20927410  1
  Rh  Rh215  1  0.00878102  0.20413303  0.40087358  1
  Rh  Rh216  1  0.80519837  0.79669647  0.38969491  1
  Rh  Rh217  1  0.78471153  0.19714284  0.41040088  1
  Rh  Rh218  1  0.59257103  0.60209847  0.21039051  1
  Rh  Rh219  1  -0.00077895  0.60668877  0.80334589  1
  Rh  Rh220  1  -0.00887062  0.00014176  0.41073405  1
  Rh  Rh221  1  0.01355108  0.00002810  0.20265093  1
  Rh  Rh222  1  0.19609029  0.20430009  0.00428104  1
  Rh  Rh223  1  0.00567546  0.00224371  0.79894572  1
  Rh  Rh224  1  0.40036746  0.20761029  0.39996649  1
  Rh  Rh225  1  0.78184579  -0.01498214  0.20480757  1
  Rh  Rh226  1  0.39727615  0.39722366  0.40278778  1
  Rh  Rh227  1  0.39733125  0.80423944  -0.00466644  1
  Rh  Rh228  1  0.40811426  0.59203115  -0.00181087  1
  Rh  Rh229  1  0.19849874  0.40365617  0.80146424  1
  Rh  Rh230  1  0.59563332  0.79515969  0.40681855  1
  Rh  Rh231  1  0.80207164  0.38776096  0.80245335  1
  Rh  Rh232  1  0.19966320  0.60291776  0.79852924  1
  Rh  Rh233  1  0.40730449  0.80326481  0.20056919  1
  Rh  Rh234  1  0.19669362  0.79584048  0.39873249  1
  Rh  Rh235  1  -0.00140681  0.59310605  0.40976067  1
  Rh  Rh236  1  0.39276501  -0.00807819  0.40488644  1
  Rh  Rh237  1  -0.00088982  0.80356132  0.39297910  1
  Rh  Rh238  1  0.20330600  -0.00278030  -0.00413776  1
  Rh  Rh239  1  0.20554667  0.19193455  0.41220305  1
  Rh  Rh240  1  0.60608229  0.00594027  0.39276105  1
  Rh  Rh241  1  0.59907734  -0.00627277  0.60965964  1
  Rh  Rh242  1  0.59975594  0.40196285  0.60275898  1
  Rh  Rh243  1  0.40536524  0.59712012  0.79311037  1
  Rh  Rh244  1  0.40626220  0.80539473  0.40125082  1
  Rh  Rh245  1  0.79918198  0.80197108  0.60623260  1
  Rh  Rh246  1  0.59118188  0.20338914  -0.00073807  1
  Rh  Rh247  1  0.79477407  0.19629684  0.59614966  1
  Rh  Rh248  1  0.00047332  0.39681898  0.59994789  1
  Rh  Rh249  1  0.21051642  0.80373216  -0.01001475  1
