# generated using pymatgen
data_ZrScNbPdRh
_symmetry_space_group_name_H-M   'P 1'
_cell_length_a   16.55961835
_cell_length_b   16.56414684
_cell_length_c   16.55815007
_cell_angle_alpha   89.99902230
_cell_angle_beta   90.00517560
_cell_angle_gamma   89.97835418
_symmetry_Int_Tables_number   1
_chemical_formula_structural   ZrScNbPdRh
_chemical_formula_sum   'Zr50 Sc50 Nb50 Pd50 Rh50'
_cell_volume   4541.83315995
_cell_formula_units_Z   50
loop_
 _symmetry_equiv_pos_site_id
 _symmetry_equiv_pos_as_xyz
  1  'x, y, z'
loop_
 _atom_site_type_symbol
 _atom_site_label
 _atom_site_symmetry_multiplicity
 _atom_site_fract_x
 _atom_site_fract_y
 _atom_site_fract_z
 _atom_site_occupancy
  Zr  Zr0  1  0.70620511  0.29912094  0.29603027  1
  Zr  Zr1  1  0.10546847  0.89209823  0.70642351  1
  Zr  Zr2  1  0.29900892  0.10388578  0.70125460  1
  Zr  Zr3  1  0.30218753  0.89869274  0.50864810  1
  Zr  Zr4  1  0.50707903  0.29964013  0.30110477  1
  Zr  Zr5  1  0.50469025  0.10162202  0.29873618  1
  Zr  Zr6  1  0.89895864  0.70156773  0.69555734  1
  Zr  Zr7  1  0.10545123  0.68987676  0.50344362  1
  Zr  Zr8  1  0.70074447  0.49512598  0.10400460  1
  Zr  Zr9  1  0.30184308  0.70347612  0.10597328  1
  Zr  Zr10  1  0.49661330  0.30191055  0.69468641  1
  Zr  Zr11  1  0.90016617  0.09580376  0.69743545  1
  Zr  Zr12  1  0.29992864  0.09961904  0.30658775  1
  Zr  Zr13  1  0.89867250  0.90031676  0.49109840  1
  Zr  Zr14  1  0.29477764  0.10313605  0.49393175  1
  Zr  Zr15  1  0.09910179  0.49819351  0.31497608  1
  Zr  Zr16  1  0.89348379  0.69845120  0.89125493  1
  Zr  Zr17  1  0.70671718  0.50026830  0.30511716  1
  Zr  Zr18  1  0.51148367  0.29877886  0.09682339  1
  Zr  Zr19  1  0.90552291  0.89797568  0.69206410  1
  Zr  Zr20  1  0.50566771  0.30093331  0.89985737  1
  Zr  Zr21  1  0.30350976  0.49843453  0.29574233  1
  Zr  Zr22  1  0.90008235  0.69635287  0.10263659  1
  Zr  Zr23  1  0.29924260  0.29483851  0.50700959  1
  Zr  Zr24  1  0.10406352  0.09222205  0.90807469  1
  Zr  Zr25  1  0.50543301  0.69181897  0.49347067  1
  Zr  Zr26  1  0.70214198  0.50295211  0.49841433  1
  Zr  Zr27  1  0.50002104  0.50292916  0.88693639  1
  Zr  Zr28  1  0.49789848  0.50007104  0.50086428  1
  Zr  Zr29  1  0.29938900  0.09790720  0.89817766  1
  Zr  Zr30  1  0.49441693  0.90638734  0.68905736  1
  Zr  Zr31  1  0.09342826  0.69804901  0.89924663  1
  Zr  Zr32  1  0.88734557  0.30064094  0.10254234  1
  Zr  Zr33  1  0.69610898  0.69923088  0.10947847  1
  Zr  Zr34  1  0.09863572  0.29550313  0.10224639  1
  Zr  Zr35  1  0.50049709  0.10734937  0.69992523  1
  Zr  Zr36  1  0.69864386  0.90181662  0.10968381  1
  Zr  Zr37  1  0.90294114  0.30420704  0.90250895  1
  Zr  Zr38  1  0.91089302  0.10172501  0.50820531  1
  Zr  Zr39  1  0.29809426  0.69765689  0.50244584  1
  Zr  Zr40  1  0.50527077  0.70997445  0.10509854  1
  Zr  Zr41  1  0.30387236  0.50496911  0.10456108  1
  Zr  Zr42  1  0.89866416  0.09573123  0.90215869  1
  Zr  Zr43  1  0.30352127  0.49840890  0.89501690  1
  Zr  Zr44  1  0.09865437  0.49845767  0.89769374  1
  Zr  Zr45  1  0.71083947  0.69312176  0.69999940  1
  Zr  Zr46  1  0.28784922  0.50199422  0.49381640  1
  Zr  Zr47  1  0.28641753  0.70675834  0.69140929  1
  Zr  Zr48  1  0.09000199  0.49268782  0.50058211  1
  Zr  Zr49  1  0.71115534  0.90366960  0.30691565  1
  Sc  Sc50  1  0.30534325  0.29767417  0.30730693  1
  Sc  Sc51  1  0.70341294  0.10079242  0.89807182  1
  Sc  Sc52  1  0.69865657  0.50022124  0.69407743  1
  Sc  Sc53  1  0.90645813  0.10049868  0.29808196  1
  Sc  Sc54  1  0.90420036  0.70273769  0.50519268  1
  Sc  Sc55  1  0.49919168  0.29833695  0.49832239  1
  Sc  Sc56  1  0.30078354  0.29891804  0.89542527  1
  Sc  Sc57  1  0.70767663  0.30067185  0.49247591  1
  Sc  Sc58  1  0.49547274  0.49853134  0.30390648  1
  Sc  Sc59  1  0.69482592  0.30366762  0.91317070  1
  Sc  Sc60  1  0.09821617  0.49485190  0.69524942  1
  Sc  Sc61  1  0.30879871  0.49325465  0.69997843  1
  Sc  Sc62  1  0.70748274  0.90479980  0.69426314  1
  Sc  Sc63  1  0.90106058  0.91066515  0.89376466  1
  Sc  Sc64  1  0.10281787  0.09566499  0.30838501  1
  Sc  Sc65  1  0.70784936  0.10316769  0.10902677  1
  Sc  Sc66  1  0.29937063  0.69733144  0.89483817  1
  Sc  Sc67  1  0.49772987  0.49433496  0.10506651  1
  Sc  Sc68  1  0.10086276  0.09749242  0.10919640  1
  Sc  Sc69  1  0.50183889  0.09426607  0.49939507  1
  Sc  Sc70  1  0.08977560  0.51287968  0.09724299  1
  Sc  Sc71  1  0.68802227  0.50137840  0.88968414  1
  Sc  Sc72  1  0.90028987  0.29772595  0.50138130  1
  Sc  Sc73  1  0.10394061  0.91314260  0.10515177  1
  Sc  Sc74  1  0.30065724  0.70211031  0.28858191  1
  Sc  Sc75  1  0.89777490  0.50223284  0.30772447  1
  Sc  Sc76  1  0.89418773  0.50547058  0.69149225  1
  Sc  Sc77  1  0.70337264  0.90187533  0.89656040  1
  Sc  Sc78  1  0.09469484  0.28802029  0.30931592  1
  Sc  Sc79  1  0.88994617  0.70272054  0.30370267  1
  Sc  Sc80  1  0.90571190  0.50366585  0.89851289  1
  Sc  Sc81  1  0.30864435  0.30129070  0.09994934  1
  Sc  Sc82  1  0.49630562  0.68385763  0.69704590  1
  Sc  Sc83  1  0.08898417  0.90251274  0.49462884  1
  Sc  Sc84  1  0.50056836  0.89937566  0.89812850  1
  Sc  Sc85  1  0.69501881  0.29952220  0.68668828  1
  Sc  Sc86  1  0.09633319  0.69932036  0.30262841  1
  Sc  Sc87  1  0.50456858  0.49320978  0.70010183  1
  Sc  Sc88  1  0.10227635  0.70039956  0.10503434  1
  Sc  Sc89  1  0.10762449  0.29911903  0.69795433  1
  Sc  Sc90  1  0.09327421  0.70154190  0.69165919  1
  Sc  Sc91  1  0.89518283  0.50093770  0.10270399  1
  Sc  Sc92  1  0.69973140  0.10181179  0.69056031  1
  Sc  Sc93  1  0.50174938  0.90916261  0.29254141  1
  Sc  Sc94  1  0.69859292  0.10066001  0.30298136  1
  Sc  Sc95  1  0.29713306  0.90462938  0.29812654  1
  Sc  Sc96  1  0.10444779  0.30376600  0.89177415  1
  Sc  Sc97  1  0.29836555  0.89841695  0.11294875  1
  Sc  Sc98  1  0.30000343  0.29898603  0.70148731  1
  Sc  Sc99  1  0.28982068  0.10143887  0.09895933  1
  Nb  Nb100  1  0.90548987  0.08967442  0.09742905  1
  Nb  Nb101  1  0.89808592  0.90823133  0.10569429  1
  Nb  Nb102  1  0.10599971  0.89921243  0.90523699  1
  Nb  Nb103  1  0.29397094  0.90135251  0.89236356  1
  Nb  Nb104  1  0.69229340  0.69883337  0.49554684  1
  Nb  Nb105  1  0.89228729  0.29256684  0.69500202  1
  Nb  Nb106  1  0.50065962  0.70037622  0.30044390  1
  Nb  Nb107  1  0.50329275  0.09781713  0.10162299  1
  Nb  Nb108  1  0.90066248  0.30156916  0.30395518  1
  Nb  Nb109  1  0.69080674  0.69616067  0.30698859  1
  Nb  Nb110  1  0.70060284  0.08810187  0.49861285  1
  Nb  Nb111  1  0.89669836  0.49370986  0.50157154  1
  Nb  Nb112  1  0.09818355  0.29167204  0.50103186  1
  Nb  Nb113  1  0.50456382  0.89776093  0.50070367  1
  Nb  Nb114  1  0.70179202  0.30707510  0.10643571  1
  Nb  Nb115  1  0.69109896  0.90553834  0.49628353  1
  Nb  Nb116  1  0.49952617  0.90503780  0.09903787  1
  Nb  Nb117  1  0.09535470  0.10139869  0.69338750  1
  Nb  Nb118  1  0.29721287  0.89784954  0.70176963  1
  Nb  Nb119  1  0.50209860  0.10268513  0.90300515  1
  Nb  Nb120  1  0.09786464  0.90008467  0.30441849  1
  Nb  Nb121  1  0.10149716  0.10299867  0.50503569  1
  Nb  Nb122  1  0.69421606  0.70003405  0.90007799  1
  Nb  Nb123  1  0.90846870  0.90084843  0.30219453  1
  Nb  Nb124  1  0.50362497  0.69988825  0.89725528  1
  Nb  Nb125  1  0.19974429  0.80470356  -0.00367099  1
  Nb  Nb126  1  0.20008047  0.40556352  0.00616709  1
  Nb  Nb127  1  0.40404774  0.79987274  0.40057468  1
  Nb  Nb128  1  0.39913668  0.80381357  -0.00463419  1
  Nb  Nb129  1  0.80181543  0.39208217  0.79524536  1
  Nb  Nb130  1  0.59420643  0.00171312  0.80031099  1
  Nb  Nb131  1  0.00024846  0.39585779  0.20663852  1
  Nb  Nb132  1  -0.00508656  0.81044628  0.20033382  1
  Nb  Nb133  1  0.59679337  0.79867894  0.79308954  1
  Nb  Nb134  1  0.79007309  0.60793367  -0.00301273  1
  Nb  Nb135  1  0.59390494  0.00341747  0.00093407  1
  Nb  Nb136  1  -0.00238635  0.80897205  0.00437934  1
  Nb  Nb137  1  -0.00436247  0.19654897  -0.00032449  1
  Nb  Nb138  1  0.40739572  0.60873781  -0.00237939  1
  Nb  Nb139  1  -0.00311317  0.19669192  0.79881948  1
  Nb  Nb140  1  0.39909668  0.80193733  0.79679223  1
  Nb  Nb141  1  0.80158797  0.79916504  0.00321708  1
  Nb  Nb142  1  0.60327105  0.79855482  0.59495300  1
  Nb  Nb143  1  0.40314996  -0.00159941  -0.00028024  1
  Nb  Nb144  1  0.20263577  0.80118047  0.40134257  1
  Nb  Nb145  1  0.19261949  0.40021853  0.19927405  1
  Nb  Nb146  1  0.40934524  0.19624960  0.19813782  1
  Nb  Nb147  1  0.80459549  0.20621757  0.79764970  1
  Nb  Nb148  1  0.19679071  0.00175887  0.60328354  1
  Nb  Nb149  1  0.19832102  0.59915449  0.79713976  1
  Pd  Pd150  1  0.19055192  0.59356389  0.20656183  1
  Pd  Pd151  1  0.20680699  0.60218390  -0.00539889  1
  Pd  Pd152  1  0.79882040  0.19792077  -0.00101086  1
  Pd  Pd153  1  0.19591411  0.20913840  -0.00446585  1
  Pd  Pd154  1  0.79129794  -0.00536135  0.00219932  1
  Pd  Pd155  1  0.00688856  0.00101768  0.79849870  1
  Pd  Pd156  1  0.60200489  0.39958311  0.59100795  1
  Pd  Pd157  1  0.60412494  0.19735178  0.40810331  1
  Pd  Pd158  1  0.60003435  0.80740426  0.21458405  1
  Pd  Pd159  1  0.80634546  0.19331118  0.20304178  1
  Pd  Pd160  1  0.40480126  -0.00268212  0.80418825  1
  Pd  Pd161  1  0.39344966  0.01027316  0.59675116  1
  Pd  Pd162  1  0.61260244  0.19231764  0.00718375  1
  Pd  Pd163  1  0.19354854  0.00660212  0.79254867  1
  Pd  Pd164  1  -0.00317404  0.59868968  0.21023040  1
  Pd  Pd165  1  0.59489336  0.80737301  0.39511798  1
  Pd  Pd166  1  0.39725044  0.19383851  0.00503934  1
  Pd  Pd167  1  0.60012489  0.40597764  0.20763406  1
  Pd  Pd168  1  0.00522490  0.39745894  0.01072119  1
  Pd  Pd169  1  0.79363711  0.41493746  -0.01243637  1
  Pd  Pd170  1  -0.01046569  0.60522866  0.40251709  1
  Pd  Pd171  1  -0.00599132  0.39246890  0.60366501  1
  Pd  Pd172  1  0.39523388  0.59312331  0.60211894  1
  Pd  Pd173  1  -0.00650416  0.39496938  0.78596949  1
  Pd  Pd174  1  0.39269839  0.00814470  0.19385041  1
  Pd  Pd175  1  0.80501896  0.60705141  0.40762857  1
  Pd  Pd176  1  0.20962641  0.20599308  0.20728763  1
  Pd  Pd177  1  0.80301286  0.80035667  0.20254613  1
  Pd  Pd178  1  0.80823098  0.01082846  0.39852571  1
  Pd  Pd179  1  0.39342110  0.60623070  0.39247412  1
  Pd  Pd180  1  0.80530599  0.19240824  0.40424302  1
  Pd  Pd181  1  0.61136870  0.20050396  0.79863053  1
  Pd  Pd182  1  0.80137936  -0.00105415  0.59561340  1
  Pd  Pd183  1  0.41044542  0.79128766  0.60010992  1
  Pd  Pd184  1  0.20245907  0.39990723  0.60168996  1
  Pd  Pd185  1  0.60297858  0.19888661  0.58656123  1
  Pd  Pd186  1  0.39996478  0.20497725  0.80178664  1
  Pd  Pd187  1  0.40072828  0.40599466  -0.00212027  1
  Pd  Pd188  1  0.79289082  0.80108361  0.58660025  1
  Pd  Pd189  1  -0.00699621  0.20067144  0.19507097  1
  Pd  Pd190  1  0.79600181  0.80731459  0.80234250  1
  Pd  Pd191  1  0.00343195  0.59648456  0.78728877  1
  Pd  Pd192  1  0.19787695  0.38818615  0.39628919  1
  Pd  Pd193  1  0.60280772  0.80971274  -0.00676405  1
  Pd  Pd194  1  -0.00281465  0.80418434  0.80583451  1
  Pd  Pd195  1  0.59466431  0.59217762  0.20783204  1
  Pd  Pd196  1  0.39981354  0.39627701  0.40507642  1
  Pd  Pd197  1  0.79711600  0.79498088  0.40604825  1
  Pd  Pd198  1  0.59739134  0.59273762  0.00245731  1
  Pd  Pd199  1  0.40599970  -0.00691590  0.40184125  1
  Rh  Rh200  1  0.19696663  0.20309674  0.40174255  1
  Rh  Rh201  1  -0.01108045  0.60816471  -0.00175452  1
  Rh  Rh202  1  0.59946362  0.59081641  0.39403046  1
  Rh  Rh203  1  0.59783829  -0.00103129  0.39636716  1
  Rh  Rh204  1  0.40127728  0.19714027  0.59622225  1
  Rh  Rh205  1  0.39779975  0.40053244  0.59428546  1
  Rh  Rh206  1  0.60742130  0.00211398  0.19892695  1
  Rh  Rh207  1  0.80850994  0.40213005  0.20917605  1
  Rh  Rh208  1  0.19793076  0.19689420  0.60240952  1
  Rh  Rh209  1  0.79391314  0.19488159  0.59440654  1
  Rh  Rh210  1  0.60148345  0.40196730  0.40108145  1
  Rh  Rh211  1  0.00279953  -0.00232676  0.20624128  1
  Rh  Rh212  1  0.59992977  0.40682368  0.00174871  1
  Rh  Rh213  1  0.19845761  0.58671254  0.60809208  1
  Rh  Rh214  1  0.19643158  -0.00763318  0.40825154  1
  Rh  Rh215  1  0.79554321  0.58698021  0.80672709  1
  Rh  Rh216  1  0.79545711  0.60016005  0.20064184  1
  Rh  Rh217  1  0.00536152  0.79542340  0.39435289  1
  Rh  Rh218  1  0.80115738  0.60068751  0.58988611  1
  Rh  Rh219  1  0.18517079  0.80508614  0.20399380  1
  Rh  Rh220  1  0.79109021  0.00709148  0.79277031  1
  Rh  Rh221  1  0.21261464  -0.00908650  0.00687171  1
  Rh  Rh222  1  0.18724721  0.81236997  0.58829676  1
  Rh  Rh223  1  -0.00039914  0.00761246  0.40036669  1
  Rh  Rh224  1  0.39279357  0.60637363  0.80017537  1
  Rh  Rh225  1  0.60242432  -0.00262720  0.60285645  1
  Rh  Rh226  1  0.39748474  0.38765279  0.20485899  1
  Rh  Rh227  1  0.20768253  0.61090611  0.39059854  1
  Rh  Rh228  1  0.40607602  0.19924579  0.39684807  1
  Rh  Rh229  1  0.60463932  0.60174255  0.60117710  1
  Rh  Rh230  1  0.60604726  0.38840701  0.79511988  1
  Rh  Rh231  1  0.19278765  0.19484395  0.80070688  1
  Rh  Rh232  1  0.60359052  0.60779042  0.79073751  1
  Rh  Rh233  1  -0.00390428  0.59528354  0.59682269  1
  Rh  Rh234  1  0.19951144  0.00383262  0.20809587  1
  Rh  Rh235  1  0.20213905  0.40738792  0.80314897  1
  Rh  Rh236  1  0.41079972  0.60591367  0.19505041  1
  Rh  Rh237  1  0.00203503  0.80247795  0.59503939  1
  Rh  Rh238  1  -0.00504140  0.39211610  0.40078041  1
  Rh  Rh239  1  0.80462165  0.00445042  0.20830176  1
  Rh  Rh240  1  0.80527099  0.39785876  0.40088491  1
  Rh  Rh241  1  0.60164882  0.19982572  0.19598768  1
  Rh  Rh242  1  0.00304320  -0.00112697  0.00297154  1
  Rh  Rh243  1  -0.00137038  0.19728255  0.40540495  1
  Rh  Rh244  1  0.80038217  0.40117085  0.60051143  1
  Rh  Rh245  1  0.00790524  -0.00776199  0.60086254  1
  Rh  Rh246  1  0.20241477  0.79041344  0.80712182  1
  Rh  Rh247  1  0.40903879  0.80208032  0.20552245  1
  Rh  Rh248  1  0.40535214  0.39098414  0.79908340  1
  Rh  Rh249  1  0.00588201  0.20799958  0.60462071  1
