# generated using pymatgen
data_ZrScNbPdRh
_symmetry_space_group_name_H-M   'P 1'
_cell_length_a   16.56002211
_cell_length_b   16.56836981
_cell_length_c   16.56038312
_cell_angle_alpha   89.99373833
_cell_angle_beta   89.97778590
_cell_angle_gamma   90.03129938
_symmetry_Int_Tables_number   1
_chemical_formula_structural   ZrScNbPdRh
_chemical_formula_sum   'Zr50 Sc50 Nb50 Pd50 Rh50'
_cell_volume   4543.71383712
_cell_formula_units_Z   50
loop_
 _symmetry_equiv_pos_site_id
 _symmetry_equiv_pos_as_xyz
  1  'x, y, z'
loop_
 _atom_site_type_symbol
 _atom_site_label
 _atom_site_symmetry_multiplicity
 _atom_site_fract_x
 _atom_site_fract_y
 _atom_site_fract_z
 _atom_site_occupancy
  Zr  Zr0  1  0.09238260  0.28613979  0.49494367  1
  Zr  Zr1  1  0.09348032  0.50382146  0.49918498  1
  Zr  Zr2  1  0.28843373  0.09463582  0.50081323  1
  Zr  Zr3  1  0.49375178  0.70323056  0.90448630  1
  Zr  Zr4  1  0.69835588  0.10557624  0.29734751  1
  Zr  Zr5  1  0.09494918  0.09724264  0.69522841  1
  Zr  Zr6  1  0.09738711  0.10840035  0.30146143  1
  Zr  Zr7  1  0.29835161  0.50679545  0.49563733  1
  Zr  Zr8  1  0.69873872  0.69602511  0.29985607  1
  Zr  Zr9  1  0.50898805  0.49820267  0.49603136  1
  Zr  Zr10  1  0.89807568  0.49871943  0.89917470  1
  Zr  Zr11  1  0.50363543  0.69669492  0.70354093  1
  Zr  Zr12  1  0.70138458  0.29926104  0.30262801  1
  Zr  Zr13  1  0.70827341  0.49573908  0.90132016  1
  Zr  Zr14  1  0.50532185  0.90126613  0.89866326  1
  Zr  Zr15  1  0.50122479  0.09982496  0.50226100  1
  Zr  Zr16  1  0.90622774  0.90143444  0.29791799  1
  Zr  Zr17  1  0.50118775  0.69812874  0.09789134  1
  Zr  Zr18  1  0.49293366  0.29574298  0.89955265  1
  Zr  Zr19  1  0.30145030  0.70696980  0.09534530  1
  Zr  Zr20  1  0.29652601  0.28776903  0.49940853  1
  Zr  Zr21  1  0.50592030  0.50007118  0.69307301  1
  Zr  Zr22  1  0.09650721  0.29647236  0.08975681  1
  Zr  Zr23  1  0.29877208  0.49860510  0.29331704  1
  Zr  Zr24  1  0.49961373  0.09429492  0.70230073  1
  Zr  Zr25  1  0.09874324  0.10335531  0.10202191  1
  Zr  Zr26  1  0.70570216  0.09694436  0.69984808  1
  Zr  Zr27  1  0.30441043  0.29654573  0.29017321  1
  Zr  Zr28  1  0.49155480  0.50310314  0.10458205  1
  Zr  Zr29  1  0.89975919  0.29689377  0.69251366  1
  Zr  Zr30  1  0.30508996  0.90561751  0.10944041  1
  Zr  Zr31  1  0.30389673  0.89686289  0.31174366  1
  Zr  Zr32  1  0.90791402  0.11088071  0.51600334  1
  Zr  Zr33  1  0.50069695  0.90148242  0.69943211  1
  Zr  Zr34  1  0.10116190  0.49552320  0.29889732  1
  Zr  Zr35  1  0.29764109  0.69960894  0.90198297  1
  Zr  Zr36  1  0.29318164  0.10189683  0.70652885  1
  Zr  Zr37  1  0.49922770  0.09537336  0.89862626  1
  Zr  Zr38  1  0.50853047  0.10113120  0.30406117  1
  Zr  Zr39  1  0.70007956  0.50247127  0.69627016  1
  Zr  Zr40  1  0.29376207  0.70367716  0.49406091  1
  Zr  Zr41  1  0.10101026  0.90315840  0.10748575  1
  Zr  Zr42  1  0.89613495  0.90529005  0.69893257  1
  Zr  Zr43  1  0.90750387  0.70075438  0.90881784  1
  Zr  Zr44  1  0.70231908  0.69762507  0.69456408  1
  Zr  Zr45  1  0.10281916  0.49242462  0.09878336  1
  Zr  Zr46  1  0.10862641  0.91165315  0.50207974  1
  Zr  Zr47  1  0.69722424  0.09735058  0.10845748  1
  Zr  Zr48  1  0.49592954  0.50601066  0.90484467  1
  Zr  Zr49  1  0.69923183  0.89685172  0.90277838  1
  Sc  Sc50  1  0.89501148  0.49485175  0.08328652  1
  Sc  Sc51  1  0.69957822  0.10149849  0.49623711  1
  Sc  Sc52  1  0.49077205  0.69693367  0.50129421  1
  Sc  Sc53  1  0.30739408  0.89897523  0.90433068  1
  Sc  Sc54  1  0.49913098  0.09052646  0.10826505  1
  Sc  Sc55  1  0.89469674  0.29994272  0.30244922  1
  Sc  Sc56  1  0.29942169  0.91029626  0.69670792  1
  Sc  Sc57  1  0.89750327  0.70060896  0.31001506  1
  Sc  Sc58  1  0.09386819  0.68983187  0.70227410  1
  Sc  Sc59  1  0.89486253  0.49444610  0.30869935  1
  Sc  Sc60  1  0.70474508  0.91190459  0.30332728  1
  Sc  Sc61  1  0.29457253  0.69958958  0.30514518  1
  Sc  Sc62  1  0.70613038  0.69146765  0.49661673  1
  Sc  Sc63  1  0.89841624  0.10471251  0.29299115  1
  Sc  Sc64  1  0.09422586  0.29805714  0.30079587  1
  Sc  Sc65  1  0.50894409  0.68907115  0.29440004  1
  Sc  Sc66  1  0.50977614  0.90110718  0.09449462  1
  Sc  Sc67  1  0.70263785  0.30022192  0.69395563  1
  Sc  Sc68  1  0.70746236  0.29496763  0.89316946  1
  Sc  Sc69  1  0.91352615  0.10405493  0.10383231  1
  Sc  Sc70  1  0.09413413  0.91094971  0.70777654  1
  Sc  Sc71  1  0.70897623  0.29893620  0.11100172  1
  Sc  Sc72  1  0.70569035  0.90996033  0.49892185  1
  Sc  Sc73  1  0.10613088  0.89547590  0.29503229  1
  Sc  Sc74  1  0.29105849  0.50148461  0.90175973  1
  Sc  Sc75  1  0.89225374  0.90745387  0.50371029  1
  Sc  Sc76  1  0.50165074  0.29077617  0.69465172  1
  Sc  Sc77  1  0.10109137  0.71054084  0.09789935  1
  Sc  Sc78  1  0.89859469  0.69930695  0.70244784  1
  Sc  Sc79  1  0.89736656  0.68557779  0.50323862  1
  Sc  Sc80  1  0.09488676  0.49808397  0.70467654  1
  Sc  Sc81  1  0.09640158  0.90827730  0.89658133  1
  Sc  Sc82  1  0.28938120  0.50204056  0.70444226  1
  Sc  Sc83  1  0.30275250  0.69367389  0.69918530  1
  Sc  Sc84  1  0.29392265  0.29035155  0.70655937  1
  Sc  Sc85  1  0.09888902  0.50004021  0.89811326  1
  Sc  Sc86  1  0.29720819  0.49544516  0.10275866  1
  Sc  Sc87  1  0.10396986  0.70372267  0.29858944  1
  Sc  Sc88  1  0.90290532  0.49542153  0.50006991  1
  Sc  Sc89  1  0.69485621  0.09705132  0.89140664  1
  Sc  Sc90  1  0.48325144  0.90510351  0.50048866  1
  Sc  Sc91  1  0.91197972  0.89900661  0.09842844  1
  Sc  Sc92  1  0.69646731  0.49854988  0.49946318  1
  Sc  Sc93  1  0.90406043  0.89457411  0.89587331  1
  Sc  Sc94  1  0.70711310  0.49327346  0.09945261  1
  Sc  Sc95  1  0.69132751  0.70571993  0.09536710  1
  Sc  Sc96  1  0.51153114  0.29540095  0.49803388  1
  Sc  Sc97  1  0.09315711  0.10563733  0.89657506  1
  Sc  Sc98  1  0.70089589  0.70342590  0.90167524  1
  Sc  Sc99  1  0.90669390  0.30284105  0.89909038  1
  Nb  Nb100  1  0.70643025  0.29978237  0.49983738  1
  Nb  Nb101  1  0.49465891  0.30427491  0.10085441  1
  Nb  Nb102  1  0.29945331  0.10439242  0.89984267  1
  Nb  Nb103  1  0.89860816  0.10086972  0.70620415  1
  Nb  Nb104  1  0.29590902  0.29349364  0.89479867  1
  Nb  Nb105  1  0.10478956  0.30225279  0.70622830  1
  Nb  Nb106  1  0.89885177  0.30299676  0.09835576  1
  Nb  Nb107  1  0.09962221  0.10311787  0.49968141  1
  Nb  Nb108  1  0.70541264  0.89888272  0.09276561  1
  Nb  Nb109  1  0.90115973  0.70313050  0.10401536  1
  Nb  Nb110  1  0.29773499  0.89546149  0.49937874  1
  Nb  Nb111  1  0.10660899  0.30463694  0.89322506  1
  Nb  Nb112  1  0.09694903  0.69971465  0.50265136  1
  Nb  Nb113  1  0.49827508  0.89838105  0.30791076  1
  Nb  Nb114  1  0.50328050  0.30038573  0.29869727  1
  Nb  Nb115  1  0.30188840  0.29927694  0.09866707  1
  Nb  Nb116  1  0.89848719  0.50138070  0.69730243  1
  Nb  Nb117  1  0.30632919  0.09893021  0.28759426  1
  Nb  Nb118  1  0.89914841  0.29938790  0.49921084  1
  Nb  Nb119  1  0.29866921  0.10273185  0.10589294  1
  Nb  Nb120  1  0.69216425  0.50170457  0.29975597  1
  Nb  Nb121  1  0.50689719  0.49554573  0.30074703  1
  Nb  Nb122  1  0.10060348  0.70547422  0.89251845  1
  Nb  Nb123  1  0.89464804  0.10430323  0.89731984  1
  Nb  Nb124  1  0.70220457  0.89691250  0.69691946  1
  Nb  Nb125  1  0.00428939  0.80085624  0.59588429  1
  Nb  Nb126  1  0.80293418  0.00388405  -0.00040900  1
  Nb  Nb127  1  0.60291450  0.80314383  0.59760685  1
  Nb  Nb128  1  0.19820949  0.39433578  0.59517495  1
  Nb  Nb129  1  0.59494458  0.40200739  0.80389558  1
  Nb  Nb130  1  0.39401885  0.39833254  0.59699905  1
  Nb  Nb131  1  0.00410837  0.00437226  0.40495844  1
  Nb  Nb132  1  0.39301172  0.19995447  0.00589860  1
  Nb  Nb133  1  -0.00541036  0.40285931  0.19394116  1
  Nb  Nb134  1  0.00355240  0.80471024  0.41149548  1
  Nb  Nb135  1  0.20628066  0.01022339  0.00413367  1
  Nb  Nb136  1  0.19715223  0.79854062  0.79755907  1
  Nb  Nb137  1  0.19512951  0.80126122  0.60105722  1
  Nb  Nb138  1  0.59728269  0.80402172  0.40383942  1
  Nb  Nb139  1  0.40691455  0.80374243  0.20541581  1
  Nb  Nb140  1  0.40205867  0.39779928  0.39850961  1
  Nb  Nb141  1  0.80172575  0.19354122  0.00099669  1
  Nb  Nb142  1  -0.00769613  0.59752774  0.19485117  1
  Nb  Nb143  1  0.40002961  0.39803293  0.79687176  1
  Nb  Nb144  1  0.59413244  0.39880637  0.20068546  1
  Nb  Nb145  1  0.80283025  0.60260601  0.19867439  1
  Nb  Nb146  1  0.80027998  0.79897056  0.19600682  1
  Nb  Nb147  1  0.59670957  0.39257666  0.00155068  1
  Nb  Nb148  1  0.20373705  0.39603650  0.40369429  1
  Nb  Nb149  1  0.59697648  0.20317180  0.00608415  1
  Pd  Pd150  1  0.81172348  0.01534998  0.40318086  1
  Pd  Pd151  1  0.19481400  0.20672787  0.20125025  1
  Pd  Pd152  1  0.60379775  0.81028708  0.20844509  1
  Pd  Pd153  1  0.39482915  0.60796494  0.20404329  1
  Pd  Pd154  1  0.39293140  0.39771019  -0.00755698  1
  Pd  Pd155  1  0.19810233  0.00619726  0.38830461  1
  Pd  Pd156  1  0.00571924  0.39616439  0.60038969  1
  Pd  Pd157  1  0.79931958  0.39470104  0.79442409  1
  Pd  Pd158  1  0.60394192  0.79868092  0.79586206  1
  Pd  Pd159  1  -0.00478109  0.59715371  0.79934201  1
  Pd  Pd160  1  0.41055169  0.19650204  0.19513890  1
  Pd  Pd161  1  0.39821289  0.19837071  0.60217692  1
  Pd  Pd162  1  0.60243662  0.20480721  0.80035913  1
  Pd  Pd163  1  0.80326288  0.60683360  0.80164322  1
  Pd  Pd164  1  0.40544467  0.59874208  0.39110303  1
  Pd  Pd165  1  0.20167616  0.19719019  -0.00469958  1
  Pd  Pd166  1  0.79517029  0.60998036  0.00663315  1
  Pd  Pd167  1  0.60225478  -0.00623022  0.59613491  1
  Pd  Pd168  1  0.00891423  0.60126617  0.00504278  1
  Pd  Pd169  1  -0.00257399  0.40105259  0.79951304  1
  Pd  Pd170  1  0.00737884  0.80454140  -0.00094392  1
  Pd  Pd171  1  0.19901384  0.00185032  0.20512992  1
  Pd  Pd172  1  0.80872819  -0.00560209  0.18910165  1
  Pd  Pd173  1  0.39632892  0.80032827  0.60432500  1
  Pd  Pd174  1  0.20481043  0.39658082  -0.00418724  1
  Pd  Pd175  1  0.40027126  0.19826063  0.39887264  1
  Pd  Pd176  1  0.39688970  0.01016619  0.40004243  1
  Pd  Pd177  1  0.39849045  0.59356609  0.60158830  1
  Pd  Pd178  1  0.79610444  0.40310603  0.40529073  1
  Pd  Pd179  1  0.79845398  0.80205955  0.39993396  1
  Pd  Pd180  1  0.59869234  -0.01161129  0.20396003  1
  Pd  Pd181  1  0.79979606  -0.00456580  0.80682684  1
  Pd  Pd182  1  0.80464803  0.19473999  0.40364139  1
  Pd  Pd183  1  0.39706506  0.00580562  0.00274877  1
  Pd  Pd184  1  0.39461502  0.59219326  0.79963901  1
  Pd  Pd185  1  0.79946501  0.40430513  0.59471171  1
  Pd  Pd186  1  0.00276435  0.60658408  0.39128729  1
  Pd  Pd187  1  0.60859041  0.19850386  0.59984739  1
  Pd  Pd188  1  0.80323461  0.79562789  0.80254525  1
  Pd  Pd189  1  0.38976144  0.80333074  0.79308740  1
  Pd  Pd190  1  0.19438936  0.59992477  0.60373313  1
  Pd  Pd191  1  0.19297216  0.60836065  0.19413097  1
  Pd  Pd192  1  0.39482671  -0.00274752  0.80109360  1
  Pd  Pd193  1  0.19371385  0.60153008  0.00311538  1
  Pd  Pd194  1  0.00077311  0.20328201  0.79825682  1
  Pd  Pd195  1  0.19466987  0.81499812  -0.00762001  1
  Pd  Pd196  1  0.60556091  0.59740534  0.80727820  1
  Pd  Pd197  1  -0.00023855  0.00367502  -0.00472725  1
  Pd  Pd198  1  0.80124752  0.79656147  0.59195750  1
  Pd  Pd199  1  0.60815407  0.59249256  0.00330135  1
  Rh  Rh200  1  0.00262590  0.39790644  -0.00290845  1
  Rh  Rh201  1  -0.01167272  0.19454760  0.39700373  1
  Rh  Rh202  1  0.19149229  0.59639193  0.39785326  1
  Rh  Rh203  1  0.00672674  0.79949168  0.79148605  1
  Rh  Rh204  1  0.61034573  0.00724987  -0.00054078  1
  Rh  Rh205  1  0.80597027  0.80536170  0.00509940  1
  Rh  Rh206  1  -0.00460468  0.21383564  0.20029103  1
  Rh  Rh207  1  0.40955591  0.78902961  0.39254410  1
  Rh  Rh208  1  -0.00773936  0.78951572  0.21227022  1
  Rh  Rh209  1  0.19107660  0.79896510  0.40748688  1
  Rh  Rh210  1  0.19030354  0.20185612  0.60822376  1
  Rh  Rh211  1  0.40753516  -0.00602908  0.20746267  1
  Rh  Rh212  1  0.59876719  0.60740947  0.40504740  1
  Rh  Rh213  1  0.20522583  -0.00239801  0.81324779  1
  Rh  Rh214  1  0.00259321  0.39342448  0.39661534  1
  Rh  Rh215  1  0.60076757  0.39274858  0.39581131  1
  Rh  Rh216  1  0.20535358  0.39789303  0.79642744  1
  Rh  Rh217  1  0.80181398  0.40906178  0.20351689  1
  Rh  Rh218  1  0.80416592  0.20220431  0.79942940  1
  Rh  Rh219  1  0.00585776  0.20604370  0.60959833  1
  Rh  Rh220  1  0.60497639  0.20294953  0.40265001  1
  Rh  Rh221  1  0.79510932  0.58987321  0.39481210  1
  Rh  Rh222  1  0.20850696  0.19711532  0.38748134  1
  Rh  Rh223  1  0.18937966  0.19475406  0.80182774  1
  Rh  Rh224  1  0.79334429  0.38343976  -0.00322329  1
  Rh  Rh225  1  0.79564080  0.19966658  0.59963280  1
  Rh  Rh226  1  0.39280233  0.00688982  0.59753729  1
  Rh  Rh227  1  0.38858385  0.59786759  0.00293353  1
  Rh  Rh228  1  0.60096342  0.61184204  0.59172921  1
  Rh  Rh229  1  0.59645507  0.80030285  -0.00416276  1
  Rh  Rh230  1  0.40758027  0.80409889  0.00902461  1
  Rh  Rh231  1  0.00536738  0.00229201  0.20956651  1
  Rh  Rh232  1  0.59798236  0.39179750  0.60358744  1
  Rh  Rh233  1  0.80809394  0.20036297  0.19294978  1
  Rh  Rh234  1  -0.00631920  0.60104907  0.60580364  1
  Rh  Rh235  1  0.40433211  0.40098567  0.20596350  1
  Rh  Rh236  1  0.60542016  -0.00602196  0.79418852  1
  Rh  Rh237  1  -0.00487977  0.20549499  -0.00723567  1
  Rh  Rh238  1  0.39976630  0.19928860  0.80186421  1
  Rh  Rh239  1  0.59468309  0.20828426  0.19558651  1
  Rh  Rh240  1  0.60875749  0.58703864  0.18946875  1
  Rh  Rh241  1  -0.00486047  -0.00310528  0.59795863  1
  Rh  Rh242  1  0.80037190  0.00767406  0.60227427  1
  Rh  Rh243  1  0.20257711  -0.00108929  0.60410790  1
  Rh  Rh244  1  0.21322055  0.79884463  0.20093124  1
  Rh  Rh245  1  0.19669616  0.60674108  0.80317412  1
  Rh  Rh246  1  0.59594928  -0.00604995  0.40504891  1
  Rh  Rh247  1  0.19212890  0.38907338  0.20180104  1
  Rh  Rh248  1  0.80415545  0.59098999  0.59980391  1
  Rh  Rh249  1  -0.01006405  0.00487933  0.80286924  1
