# generated using pymatgen
data_ZrScNbPdRh
_symmetry_space_group_name_H-M   'P 1'
_cell_length_a   16.54981552
_cell_length_b   16.55644736
_cell_length_c   16.55623365
_cell_angle_alpha   90.00806990
_cell_angle_beta   90.00924468
_cell_angle_gamma   90.02695061
_symmetry_Int_Tables_number   1
_chemical_formula_structural   ZrScNbPdRh
_chemical_formula_sum   'Zr50 Sc50 Nb50 Pd50 Rh50'
_cell_volume   4536.50922629
_cell_formula_units_Z   50
loop_
 _symmetry_equiv_pos_site_id
 _symmetry_equiv_pos_as_xyz
  1  'x, y, z'
loop_
 _atom_site_type_symbol
 _atom_site_label
 _atom_site_symmetry_multiplicity
 _atom_site_fract_x
 _atom_site_fract_y
 _atom_site_fract_z
 _atom_site_occupancy
  Zr  Zr0  1  0.90046847  0.10602464  0.29628048  1
  Zr  Zr1  1  0.30200215  0.30232921  0.69734163  1
  Zr  Zr2  1  0.10555410  0.70052010  0.29262724  1
  Zr  Zr3  1  0.89709849  0.29953382  0.49436680  1
  Zr  Zr4  1  0.50128199  0.10031380  0.89633015  1
  Zr  Zr5  1  0.30397435  0.70197720  0.10009211  1
  Zr  Zr6  1  0.49120196  0.69847574  0.29517176  1
  Zr  Zr7  1  0.68676420  0.89686161  0.09688203  1
  Zr  Zr8  1  0.69870929  0.50157333  0.70211468  1
  Zr  Zr9  1  0.90659312  0.90112219  0.09795144  1
  Zr  Zr10  1  0.69120553  0.10338257  0.29848396  1
  Zr  Zr11  1  0.90359145  0.09901334  0.90546728  1
  Zr  Zr12  1  0.89651858  0.09437420  0.70500286  1
  Zr  Zr13  1  0.89283795  0.29895862  0.69720028  1
  Zr  Zr14  1  0.29444553  0.89923219  0.09263741  1
  Zr  Zr15  1  0.09863907  0.50030053  0.89952446  1
  Zr  Zr16  1  0.49632759  0.69824983  0.90758105  1
  Zr  Zr17  1  0.69778638  0.30617320  0.10671095  1
  Zr  Zr18  1  0.50430102  0.30312616  0.29439748  1
  Zr  Zr19  1  0.50620560  0.30847291  0.49571518  1
  Zr  Zr20  1  0.09803242  0.10069700  0.90515795  1
  Zr  Zr21  1  0.89249331  0.10692759  0.50587347  1
  Zr  Zr22  1  0.49069731  0.50033789  0.49683443  1
  Zr  Zr23  1  0.30410733  0.30380074  0.50081076  1
  Zr  Zr24  1  0.89982684  0.90137212  0.69726651  1
  Zr  Zr25  1  0.70091561  0.30957622  0.90036940  1
  Zr  Zr26  1  0.50997892  0.90067981  0.90774836  1
  Zr  Zr27  1  0.10342393  0.89502136  0.70136414  1
  Zr  Zr28  1  0.90300618  0.69614529  0.10646556  1
  Zr  Zr29  1  0.90032274  0.89288832  0.30338871  1
  Zr  Zr30  1  0.30943678  0.90025657  0.50104044  1
  Zr  Zr31  1  0.31364085  0.10123148  0.50071127  1
  Zr  Zr32  1  0.10253516  0.49774662  0.69052882  1
  Zr  Zr33  1  0.70008315  0.50650530  0.10692030  1
  Zr  Zr34  1  0.30463056  0.70082987  0.88951755  1
  Zr  Zr35  1  0.89594050  0.89794618  0.50060659  1
  Zr  Zr36  1  0.29517468  0.09979674  0.10551616  1
  Zr  Zr37  1  0.68806907  0.49809648  0.50072109  1
  Zr  Zr38  1  0.89899374  0.69981758  0.30150489  1
  Zr  Zr39  1  0.29832829  0.10390600  0.29968620  1
  Zr  Zr40  1  0.10422288  0.10234628  0.70822599  1
  Zr  Zr41  1  0.11143289  0.50146999  0.30534489  1
  Zr  Zr42  1  0.30543162  0.88527399  0.70224638  1
  Zr  Zr43  1  0.09663846  0.29819460  0.90242199  1
  Zr  Zr44  1  0.30894436  0.50864126  0.69836010  1
  Zr  Zr45  1  0.50277594  0.89890671  0.69290409  1
  Zr  Zr46  1  0.69504127  0.89176930  0.50473920  1
  Zr  Zr47  1  0.70049578  0.70126270  0.69686092  1
  Zr  Zr48  1  0.09840601  0.32086037  0.50937735  1
  Zr  Zr49  1  0.70213496  0.69795311  0.50049573  1
  Sc  Sc50  1  0.50004176  0.49696731  0.69372442  1
  Sc  Sc51  1  0.50226920  0.50411611  0.30357424  1
  Sc  Sc52  1  0.29854088  0.69870817  0.29814321  1
  Sc  Sc53  1  0.49916314  0.90194307  0.49770889  1
  Sc  Sc54  1  0.49799531  0.50237509  0.10172300  1
  Sc  Sc55  1  0.30204032  0.69855681  0.49754824  1
  Sc  Sc56  1  0.49594765  0.89395982  0.10058701  1
  Sc  Sc57  1  0.09676362  0.69271410  0.88471838  1
  Sc  Sc58  1  0.70164175  0.50009240  0.89595753  1
  Sc  Sc59  1  0.89563805  0.89701107  0.88986448  1
  Sc  Sc60  1  0.30807700  0.29470806  0.29999483  1
  Sc  Sc61  1  0.10435324  0.10333325  0.29280935  1
  Sc  Sc62  1  0.68967144  0.30521587  0.70318185  1
  Sc  Sc63  1  0.89652260  0.30007541  0.30250224  1
  Sc  Sc64  1  0.09577179  0.31028995  0.09738076  1
  Sc  Sc65  1  0.10065033  0.49871317  0.10521685  1
  Sc  Sc66  1  0.90005744  0.69563707  0.70977908  1
  Sc  Sc67  1  0.89574668  0.29762117  0.09693565  1
  Sc  Sc68  1  0.89574260  0.71290297  0.50420995  1
  Sc  Sc69  1  0.89674060  0.50525651  0.89122135  1
  Sc  Sc70  1  0.68970517  0.69458583  0.29665250  1
  Sc  Sc71  1  0.49552777  0.30558452  0.71138398  1
  Sc  Sc72  1  0.30538761  0.30418234  0.11121424  1
  Sc  Sc73  1  0.10221838  0.89624037  0.29125102  1
  Sc  Sc74  1  0.89956733  0.50070579  0.10532767  1
  Sc  Sc75  1  0.89663536  0.49439338  0.29954566  1
  Sc  Sc76  1  0.50209160  0.69545594  0.49233337  1
  Sc  Sc77  1  0.30000827  0.88741605  0.29885479  1
  Sc  Sc78  1  0.90499476  0.10488506  0.09739445  1
  Sc  Sc79  1  0.10533371  0.89992778  0.09782152  1
  Sc  Sc80  1  0.89181079  0.50431343  0.70462447  1
  Sc  Sc81  1  0.69267087  0.10460160  0.69669873  1
  Sc  Sc82  1  0.49364970  0.49584585  0.90402133  1
  Sc  Sc83  1  0.10168573  0.10660293  0.50147331  1
  Sc  Sc84  1  0.09728575  0.09121639  0.09770814  1
  Sc  Sc85  1  0.29762621  0.09434962  0.89916745  1
  Sc  Sc86  1  0.30057580  0.49997739  0.10622686  1
  Sc  Sc87  1  0.31085661  0.30747116  0.89391935  1
  Sc  Sc88  1  0.90669599  0.48598099  0.49572463  1
  Sc  Sc89  1  0.49901336  0.10392228  0.69566888  1
  Sc  Sc90  1  0.69671537  0.49606063  0.29671497  1
  Sc  Sc91  1  0.50504979  0.09323625  0.10424008  1
  Sc  Sc92  1  0.09413609  0.89016049  0.50766106  1
  Sc  Sc93  1  0.11034389  0.90197634  0.90040416  1
  Sc  Sc94  1  0.50062157  0.10139684  0.30493334  1
  Sc  Sc95  1  0.09740604  0.29978975  0.30441797  1
  Sc  Sc96  1  0.50497893  0.89444733  0.29659154  1
  Sc  Sc97  1  0.69969844  0.10446470  0.10396076  1
  Sc  Sc98  1  0.50183776  0.69558098  0.10198145  1
  Sc  Sc99  1  0.30690142  0.10743340  0.69983413  1
  Nb  Nb100  1  0.70124738  0.89974428  0.29737306  1
  Nb  Nb101  1  0.48296128  0.69606461  0.70727848  1
  Nb  Nb102  1  0.29671946  0.50599940  0.89861798  1
  Nb  Nb103  1  0.10339164  0.30256682  0.69954528  1
  Nb  Nb104  1  0.30679869  0.89549626  0.90210134  1
  Nb  Nb105  1  0.89873683  0.29737355  0.90055745  1
  Nb  Nb106  1  0.70210402  0.29585556  0.49712914  1
  Nb  Nb107  1  0.30422346  0.69792559  0.70556430  1
  Nb  Nb108  1  0.69555005  0.30061913  0.30566509  1
  Nb  Nb109  1  0.50040160  0.30120990  0.90165800  1
  Nb  Nb110  1  0.30227941  0.50809000  0.30557964  1
  Nb  Nb111  1  0.11465011  0.69632701  0.69664488  1
  Nb  Nb112  1  0.10151319  0.69282944  0.50005635  1
  Nb  Nb113  1  0.69728272  0.90140411  0.89733201  1
  Nb  Nb114  1  0.50915585  0.09379598  0.50371476  1
  Nb  Nb115  1  0.10578332  0.50128789  0.49746703  1
  Nb  Nb116  1  0.89936449  0.69667637  0.90108604  1
  Nb  Nb117  1  0.49841210  0.30150748  0.09611591  1
  Nb  Nb118  1  0.70034266  0.69989210  0.10003837  1
  Nb  Nb119  1  0.69828069  0.71384185  0.90480862  1
  Nb  Nb120  1  0.29738613  0.49742848  0.49319256  1
  Nb  Nb121  1  0.10036600  0.69640406  0.09865404  1
  Nb  Nb122  1  0.69826178  0.09381725  0.90040445  1
  Nb  Nb123  1  0.69234791  0.10418654  0.50124817  1
  Nb  Nb124  1  0.70079386  0.90096112  0.70454526  1
  Nb  Nb125  1  0.79442372  0.80121620  0.19625402  1
  Nb  Nb126  1  0.40184215  -0.00858963  0.80262989  1
  Nb  Nb127  1  0.79750495  0.19816567  0.80903619  1
  Nb  Nb128  1  0.00212918  0.39376657  0.79754441  1
  Nb  Nb129  1  0.40445443  0.20366256  0.00234804  1
  Nb  Nb130  1  0.19891722  -0.00169490  0.40589624  1
  Nb  Nb131  1  0.20565552  -0.00123078  0.59842592  1
  Nb  Nb132  1  0.78911175  -0.00039461  0.59640094  1
  Nb  Nb133  1  0.59719609  0.60827648  0.80137923  1
  Nb  Nb134  1  0.00296763  0.20604367  0.60592643  1
  Nb  Nb135  1  -0.00122188  0.79009326  -0.00363540  1
  Nb  Nb136  1  -0.00142442  0.00138674  0.40094537  1
  Nb  Nb137  1  0.00391336  0.60123961  0.40587689  1
  Nb  Nb138  1  0.00766300  0.60002993  0.59436032  1
  Nb  Nb139  1  0.79729503  -0.00546680  0.20141773  1
  Nb  Nb140  1  0.59674703  0.20635130  -0.00356989  1
  Nb  Nb141  1  0.79780966  0.61226753  -0.00095498  1
  Nb  Nb142  1  0.19835377  0.40330480  0.79743454  1
  Nb  Nb143  1  0.80216147  0.59883978  0.40205228  1
  Nb  Nb144  1  0.20009719  0.60185005  -0.00175654  1
  Nb  Nb145  1  0.79544112  0.00110509  0.40034620  1
  Nb  Nb146  1  0.20542573  0.20436022  0.00099064  1
  Nb  Nb147  1  0.39455269  -0.00073219  0.20110023  1
  Nb  Nb148  1  0.79255426  0.39561171  0.59398674  1
  Nb  Nb149  1  0.79322262  -0.00478125  -0.00183423  1
  Pd  Pd150  1  0.00497832  0.79892168  0.80096983  1
  Pd  Pd151  1  0.59992757  0.40401249  0.00205942  1
  Pd  Pd152  1  0.20742132  0.59920168  0.59500555  1
  Pd  Pd153  1  0.19002305  0.21008966  0.19062707  1
  Pd  Pd154  1  0.80033377  0.79709153  0.79727633  1
  Pd  Pd155  1  0.00635416  0.19905239  0.40598686  1
  Pd  Pd156  1  0.39948898  0.00692761  0.00208964  1
  Pd  Pd157  1  0.58793829  0.60678133  0.60614405  1
  Pd  Pd158  1  0.00006830  0.59967702  -0.00075261  1
  Pd  Pd159  1  0.59289289  0.79377881  0.79668420  1
  Pd  Pd160  1  -0.00266956  0.39887117  0.20537738  1
  Pd  Pd161  1  0.20501184  0.79977295  0.59541344  1
  Pd  Pd162  1  0.39870362  -0.00502498  0.38811090  1
  Pd  Pd163  1  0.20343367  0.39655961  0.20803093  1
  Pd  Pd164  1  0.20840826  0.39159819  0.39185650  1
  Pd  Pd165  1  0.00427240  -0.00710974  0.80654200  1
  Pd  Pd166  1  0.19737178  0.19755483  0.59606209  1
  Pd  Pd167  1  -0.00143721  0.00016848  0.20648976  1
  Pd  Pd168  1  0.59289142  0.20919873  0.60064397  1
  Pd  Pd169  1  0.20980480  0.20804714  0.80929266  1
  Pd  Pd170  1  0.01035420  0.79832123  0.39901244  1
  Pd  Pd171  1  0.79381758  0.19644266  0.39257854  1
  Pd  Pd172  1  0.79117136  0.19435966  -0.00195409  1
  Pd  Pd173  1  0.60494367  0.20197577  0.80495367  1
  Pd  Pd174  1  0.40389859  0.40864544  0.20648338  1
  Pd  Pd175  1  0.80090065  0.39477099  0.20457278  1
  Pd  Pd176  1  0.00420875  0.20688934  0.19282184  1
  Pd  Pd177  1  0.60177046  -0.00430097  0.39870554  1
  Pd  Pd178  1  0.59609933  0.00175320  0.79087030  1
  Pd  Pd179  1  0.00563530  0.00852106  0.59429090  1
  Pd  Pd180  1  0.20974401  0.40093215  -0.00316907  1
  Pd  Pd181  1  0.19670376  0.20064378  0.40598231  1
  Pd  Pd182  1  0.59506191  0.20146609  0.19414460  1
  Pd  Pd183  1  0.40664037  0.78901076  0.59149580  1
  Pd  Pd184  1  -0.00650623  0.20444695  0.79591717  1
  Pd  Pd185  1  0.81327331  0.59034170  0.58725634  1
  Pd  Pd186  1  0.00366434  0.59071904  0.20981273  1
  Pd  Pd187  1  0.41303185  0.20761870  0.59797980  1
  Pd  Pd188  1  0.80550043  0.80288848  0.00344974  1
  Pd  Pd189  1  0.80642533  0.41381381  -0.00032082  1
  Pd  Pd190  1  0.19660715  0.80337959  0.40470628  1
  Pd  Pd191  1  -0.01251809  0.40666273  -0.00463630  1
  Pd  Pd192  1  -0.00043401  0.78582645  0.61137697  1
  Pd  Pd193  1  0.60684639  0.59804682  -0.00557220  1
  Pd  Pd194  1  0.59872922  0.79697541  0.39575898  1
  Pd  Pd195  1  0.59036433  0.79059587  0.60128474  1
  Pd  Pd196  1  0.19134914  0.78818369  -0.00955343  1
  Pd  Pd197  1  0.39366635  0.40055233  0.00291085  1
  Pd  Pd198  1  0.41100734  0.20148076  0.40269013  1
  Pd  Pd199  1  0.21176604  -0.00415146  0.79335648  1
  Rh  Rh200  1  0.39788579  0.60153620  0.59276702  1
  Rh  Rh201  1  0.79584669  0.20017491  0.60800494  1
  Rh  Rh202  1  0.20198547  0.60442302  0.40095036  1
  Rh  Rh203  1  0.20062876  0.00527188  -0.00379105  1
  Rh  Rh204  1  0.40824295  0.19148693  0.19424159  1
  Rh  Rh205  1  0.39787818  0.00258059  0.60902938  1
  Rh  Rh206  1  0.60196846  0.40018289  0.39597674  1
  Rh  Rh207  1  0.00557503  0.40688736  0.39056555  1
  Rh  Rh208  1  0.79646706  0.60543753  0.20276137  1
  Rh  Rh209  1  0.39827697  0.80378995  0.19670692  1
  Rh  Rh210  1  0.39832298  0.59663293  0.20212301  1
  Rh  Rh211  1  0.39936559  0.40063518  0.59818884  1
  Rh  Rh212  1  0.40872502  0.59153481  0.80428036  1
  Rh  Rh213  1  0.39597397  0.40225394  0.39285453  1
  Rh  Rh214  1  0.59603216  0.59862620  0.20003348  1
  Rh  Rh215  1  0.59403513  0.79486762  0.00498292  1
  Rh  Rh216  1  0.59174963  0.41256075  0.80216248  1
  Rh  Rh217  1  0.21384994  0.40655829  0.60400804  1
  Rh  Rh218  1  -0.01173986  0.40196038  0.60956313  1
  Rh  Rh219  1  0.39755548  0.40762123  0.79981250  1
  Rh  Rh220  1  0.59538974  -0.00285120  0.20137386  1
  Rh  Rh221  1  0.78689804  0.79264964  0.38923154  1
  Rh  Rh222  1  0.80019427  0.80495560  0.61132080  1
  Rh  Rh223  1  0.40335018  0.79781002  0.00120211  1
  Rh  Rh224  1  0.79041743  0.00480392  0.79944841  1
  Rh  Rh225  1  0.60406464  0.59777964  0.39718266  1
  Rh  Rh226  1  0.60110614  0.79501533  0.19887094  1
  Rh  Rh227  1  0.00758876  0.20377162  0.00831445  1
  Rh  Rh228  1  0.59536277  0.20157277  0.40419430  1
  Rh  Rh229  1  0.60645323  0.00712247  0.00583044  1
  Rh  Rh230  1  0.78448040  0.61236288  0.81161230  1
  Rh  Rh231  1  0.39858337  0.19382893  0.80688103  1
  Rh  Rh232  1  0.78832135  0.40466711  0.40342291  1
  Rh  Rh233  1  0.20379292  0.59979108  0.19164230  1
  Rh  Rh234  1  0.59624593  0.40286443  0.19937390  1
  Rh  Rh235  1  0.00416842  0.80000430  0.18907397  1
  Rh  Rh236  1  0.41037726  0.80796417  0.80730643  1
  Rh  Rh237  1  0.00504982  0.59466424  0.78562580  1
  Rh  Rh238  1  -0.00439274  -0.01242262  -0.00802662  1
  Rh  Rh239  1  0.19997626  0.79795996  0.19331052  1
  Rh  Rh240  1  0.80477469  0.39206580  0.79689230  1
  Rh  Rh241  1  0.20753902  -0.00701503  0.21101664  1
  Rh  Rh242  1  0.60411243  -0.00076125  0.60102673  1
  Rh  Rh243  1  0.38978702  0.59730645  0.00199358  1
  Rh  Rh244  1  0.40401835  0.79719170  0.39868218  1
  Rh  Rh245  1  0.19904459  0.79741069  0.80332762  1
  Rh  Rh246  1  0.39478774  0.60152159  0.39999503  1
  Rh  Rh247  1  0.20048113  0.59572963  0.80090166  1
  Rh  Rh248  1  0.79864071  0.20128169  0.20330597  1
  Rh  Rh249  1  0.60159850  0.39528794  0.60092674  1
