# generated using pymatgen
data_ZrScNbPdRh
_symmetry_space_group_name_H-M   'P 1'
_cell_length_a   16.56565950
_cell_length_b   16.56407363
_cell_length_c   16.56497744
_cell_angle_alpha   90.00283615
_cell_angle_beta   90.01129567
_cell_angle_gamma   89.99556787
_symmetry_Int_Tables_number   1
_chemical_formula_structural   ZrScNbPdRh
_chemical_formula_sum   'Zr50 Sc50 Nb50 Pd50 Rh50'
_cell_volume   4545.34362730
_cell_formula_units_Z   50
loop_
 _symmetry_equiv_pos_site_id
 _symmetry_equiv_pos_as_xyz
  1  'x, y, z'
loop_
 _atom_site_type_symbol
 _atom_site_label
 _atom_site_symmetry_multiplicity
 _atom_site_fract_x
 _atom_site_fract_y
 _atom_site_fract_z
 _atom_site_occupancy
  Zr  Zr0  1  0.89335577  0.89660490  0.29472767  1
  Zr  Zr1  1  0.30239740  0.30649548  0.90310593  1
  Zr  Zr2  1  0.90012342  0.69561059  0.50368603  1
  Zr  Zr3  1  0.89835040  0.28800719  0.09622458  1
  Zr  Zr4  1  0.89156714  0.10763521  0.30640963  1
  Zr  Zr5  1  0.50385390  0.10930701  0.10246701  1
  Zr  Zr6  1  0.09071025  0.90748675  0.70553428  1
  Zr  Zr7  1  0.70101039  0.09827915  0.50010851  1
  Zr  Zr8  1  0.09683272  0.29781427  0.49681980  1
  Zr  Zr9  1  0.50089724  0.90066692  0.88747088  1
  Zr  Zr10  1  0.09649975  0.50442145  0.50108047  1
  Zr  Zr11  1  0.29555941  0.50756335  0.09858309  1
  Zr  Zr12  1  0.90541651  0.49865194  0.69400767  1
  Zr  Zr13  1  0.50453283  0.29554936  0.69098935  1
  Zr  Zr14  1  0.50013536  0.69678553  0.09930928  1
  Zr  Zr15  1  0.30412361  0.49495237  0.29406732  1
  Zr  Zr16  1  0.50964938  0.48642400  0.50419376  1
  Zr  Zr17  1  0.88751475  0.49990353  0.30093299  1
  Zr  Zr18  1  0.50925251  0.29199747  0.89358959  1
  Zr  Zr19  1  0.29264753  0.50810625  0.70510918  1
  Zr  Zr20  1  0.50826990  0.11352496  0.50259089  1
  Zr  Zr21  1  0.70363724  0.49540564  0.90147526  1
  Zr  Zr22  1  0.29673609  0.69813756  0.50582402  1
  Zr  Zr23  1  0.30159465  0.09605685  0.90247265  1
  Zr  Zr24  1  0.29830092  0.90299884  0.50406836  1
  Zr  Zr25  1  0.69243123  0.69816372  0.29900775  1
  Zr  Zr26  1  0.69839565  0.30253230  0.29883158  1
  Zr  Zr27  1  0.69584912  0.90800678  0.49886451  1
  Zr  Zr28  1  0.71168895  0.89678913  0.89308835  1
  Zr  Zr29  1  0.29280669  0.70242980  0.69664127  1
  Zr  Zr30  1  0.88984858  0.50296300  0.49964001  1
  Zr  Zr31  1  0.29914866  0.08353983  0.10220084  1
  Zr  Zr32  1  0.69708992  0.49797020  0.30053375  1
  Zr  Zr33  1  0.30320234  0.29560295  0.29757165  1
  Zr  Zr34  1  0.29985315  0.90227986  0.28826361  1
  Zr  Zr35  1  0.09635372  0.89473428  0.29663207  1
  Zr  Zr36  1  0.69174661  0.29816506  0.50817237  1
  Zr  Zr37  1  0.29625721  0.90333834  0.91408954  1
  Zr  Zr38  1  0.30207711  0.10462207  0.29700373  1
  Zr  Zr39  1  0.90199336  0.70144870  0.08982554  1
  Zr  Zr40  1  0.10219446  0.49729721  0.89588307  1
  Zr  Zr41  1  0.89358660  0.49958770  0.09410952  1
  Zr  Zr42  1  0.69758509  0.70375606  0.70086912  1
  Zr  Zr43  1  0.49845765  0.69933686  0.29930848  1
  Zr  Zr44  1  0.31356191  0.29822682  0.50325012  1
  Zr  Zr45  1  0.69997337  0.90876125  0.70305543  1
  Zr  Zr46  1  0.30083367  0.89996130  0.70381338  1
  Zr  Zr47  1  0.09668507  0.10189137  0.09648100  1
  Zr  Zr48  1  0.90431211  0.70646740  0.89766382  1
  Zr  Zr49  1  0.09939913  0.70267379  0.49911421  1
  Sc  Sc50  1  0.70115225  0.69109148  0.09260062  1
  Sc  Sc51  1  0.30803028  0.29965428  0.70042131  1
  Sc  Sc52  1  0.10501280  0.69904765  0.09905902  1
  Sc  Sc53  1  0.89076807  0.29817649  0.69690616  1
  Sc  Sc54  1  0.90171673  0.09615887  0.91064818  1
  Sc  Sc55  1  0.10451365  0.50855479  0.29219200  1
  Sc  Sc56  1  0.50315402  0.30294271  0.29272890  1
  Sc  Sc57  1  0.71947660  0.89967269  0.09854085  1
  Sc  Sc58  1  0.29887466  0.69435965  0.90314309  1
  Sc  Sc59  1  0.31037970  0.50893870  0.49873521  1
  Sc  Sc60  1  0.09031682  0.89359693  0.50662784  1
  Sc  Sc61  1  0.50070780  0.90426416  0.30638553  1
  Sc  Sc62  1  0.50349126  0.68429927  0.49984509  1
  Sc  Sc63  1  0.50785267  0.69142853  0.89972150  1
  Sc  Sc64  1  0.50253602  0.92501228  0.49814144  1
  Sc  Sc65  1  0.09468957  0.69853958  0.69790156  1
  Sc  Sc66  1  0.70065850  0.69789195  0.90203544  1
  Sc  Sc67  1  0.10800201  0.10382364  0.29014593  1
  Sc  Sc68  1  0.70276995  0.11016653  0.89533007  1
  Sc  Sc69  1  0.10438757  0.28824636  0.29684514  1
  Sc  Sc70  1  0.51166255  0.50494502  0.69701383  1
  Sc  Sc71  1  0.70574098  0.10762394  0.09636579  1
  Sc  Sc72  1  0.47482361  0.89781027  0.09636774  1
  Sc  Sc73  1  0.89326122  0.10926931  0.50449616  1
  Sc  Sc74  1  0.89518436  0.90004218  0.71149253  1
  Sc  Sc75  1  0.50073706  0.70033224  0.71248357  1
  Sc  Sc76  1  0.31507167  0.10424515  0.49427222  1
  Sc  Sc77  1  0.49931073  0.10785953  0.30349939  1
  Sc  Sc78  1  0.89686872  0.89191034  0.49455425  1
  Sc  Sc79  1  0.49810648  0.49819141  0.10085942  1
  Sc  Sc80  1  0.70222941  0.90130598  0.30765205  1
  Sc  Sc81  1  0.09647943  0.08262564  0.90200597  1
  Sc  Sc82  1  0.09019852  0.31097791  0.70282155  1
  Sc  Sc83  1  0.69709487  0.10209289  0.30434082  1
  Sc  Sc84  1  0.69715338  0.50186321  0.10075706  1
  Sc  Sc85  1  0.30826759  0.10129948  0.70199238  1
  Sc  Sc86  1  0.09788023  0.50738641  0.09577441  1
  Sc  Sc87  1  0.69778686  0.29583953  0.09759087  1
  Sc  Sc88  1  0.70113600  0.69726246  0.50043540  1
  Sc  Sc89  1  0.90586633  0.50062527  0.90738833  1
  Sc  Sc90  1  0.89823266  0.70077270  0.30373730  1
  Sc  Sc91  1  0.30017167  0.69228527  0.29455318  1
  Sc  Sc92  1  0.29562203  0.50074091  0.90829475  1
  Sc  Sc93  1  0.09638476  0.69926994  0.29464908  1
  Sc  Sc94  1  0.30507656  0.31197186  0.10540906  1
  Sc  Sc95  1  0.89634538  0.30045288  0.90660353  1
  Sc  Sc96  1  0.10740903  0.89260696  0.09686034  1
  Sc  Sc97  1  0.08400073  0.10756428  0.49771734  1
  Sc  Sc98  1  0.09709134  0.29470485  0.10183750  1
  Sc  Sc99  1  0.50381373  0.49888533  0.29812372  1
  Nb  Nb100  1  0.10063172  0.29522985  0.90015728  1
  Nb  Nb101  1  0.30169989  0.71529849  0.09999992  1
  Nb  Nb102  1  0.89179892  0.69754864  0.70052801  1
  Nb  Nb103  1  0.49972325  0.49589839  0.90333680  1
  Nb  Nb104  1  0.29467754  0.88939213  0.10060869  1
  Nb  Nb105  1  0.70571057  0.29919990  0.71602386  1
  Nb  Nb106  1  0.69574791  0.50253645  0.50976564  1
  Nb  Nb107  1  0.70846130  0.49596664  0.69237247  1
  Nb  Nb108  1  0.10031439  0.49569891  0.70080063  1
  Nb  Nb109  1  0.50326546  0.30016498  0.50304309  1
  Nb  Nb110  1  0.50584423  0.09076024  0.70365157  1
  Nb  Nb111  1  0.90816281  0.89757077  0.90582690  1
  Nb  Nb112  1  0.72333079  0.10218695  0.69873662  1
  Nb  Nb113  1  0.09278814  0.89395022  0.89767047  1
  Nb  Nb114  1  0.89536998  0.30309073  0.30387003  1
  Nb  Nb115  1  0.90309496  0.09561167  0.09774797  1
  Nb  Nb116  1  0.89885215  0.90370136  0.09205576  1
  Nb  Nb117  1  0.09405122  0.70485879  0.90538127  1
  Nb  Nb118  1  0.70255354  0.29865568  0.89564149  1
  Nb  Nb119  1  0.50137526  0.09999033  0.90438531  1
  Nb  Nb120  1  0.90025928  0.10013342  0.70493758  1
  Nb  Nb121  1  0.90118017  0.29471928  0.48714548  1
  Nb  Nb122  1  0.09176631  0.09948559  0.70001166  1
  Nb  Nb123  1  0.50327899  0.29985484  0.09796351  1
  Nb  Nb124  1  0.50396541  0.90162898  0.70010424  1
  Nb  Nb125  1  0.59853632  0.80688574  0.19037386  1
  Nb  Nb126  1  0.19181224  0.19901080  0.79984972  1
  Nb  Nb127  1  0.60071006  -0.00590415  0.18992133  1
  Nb  Nb128  1  0.19513698  -0.00154574  0.40325141  1
  Nb  Nb129  1  -0.00208661  0.39846097  0.39382895  1
  Nb  Nb130  1  0.59822735  0.39364793  -0.00782135  1
  Nb  Nb131  1  0.59990014  0.81152245  0.00311427  1
  Nb  Nb132  1  -0.01004924  0.39711538  0.20592984  1
  Nb  Nb133  1  0.19966782  0.39892209  0.40286494  1
  Nb  Nb134  1  0.20400217  0.19977619  -0.00585690  1
  Nb  Nb135  1  0.40744639  0.40421887  0.80391587  1
  Nb  Nb136  1  0.80373425  0.59714409  0.79289497  1
  Nb  Nb137  1  -0.00157963  0.00004865  0.39042206  1
  Nb  Nb138  1  0.19209596  0.80329790  0.80676439  1
  Nb  Nb139  1  0.59294868  0.80832309  0.60236316  1
  Nb  Nb140  1  0.39628171  0.80001476  0.40749612  1
  Nb  Nb141  1  0.19473561  0.19949971  0.60636808  1
  Nb  Nb142  1  0.20376472  0.80272729  0.40086542  1
  Nb  Nb143  1  0.40165345  0.20000382  -0.00003059  1
  Nb  Nb144  1  0.19384288  0.00997187  0.59885848  1
  Nb  Nb145  1  0.19887250  0.40082588  0.59743872  1
  Nb  Nb146  1  0.40920958  0.80469649  0.59909692  1
  Nb  Nb147  1  0.00277234  0.19595697  0.80107980  1
  Nb  Nb148  1  0.59805730  -0.00294167  0.00055891  1
  Nb  Nb149  1  -0.00943572  0.00000162  0.19637700  1
  Pd  Pd150  1  0.39834463  0.00416091  0.60225775  1
  Pd  Pd151  1  0.19932026  0.00110986  0.79583399  1
  Pd  Pd152  1  0.81224827  -0.00537419  0.59588999  1
  Pd  Pd153  1  0.79589275  0.79439158  0.40249313  1
  Pd  Pd154  1  -0.00988621  0.39359836  0.80453132  1
  Pd  Pd155  1  0.00252197  0.60252915  0.60279903  1
  Pd  Pd156  1  0.79667951  0.00733793  0.20011511  1
  Pd  Pd157  1  0.39941710  0.20146035  0.80070130  1
  Pd  Pd158  1  0.19106574  0.39562937  0.00812399  1
  Pd  Pd159  1  0.79933982  0.39531791  0.18870042  1
  Pd  Pd160  1  -0.00820992  0.80008496  0.60900081  1
  Pd  Pd161  1  0.79627763  0.19791779  0.19990635  1
  Pd  Pd162  1  0.20597018  0.39264149  0.79329987  1
  Pd  Pd163  1  0.59794071  0.40449285  0.79712354  1
  Pd  Pd164  1  0.18798577  0.39807518  0.20234072  1
  Pd  Pd165  1  0.20180119  0.19549804  0.41117804  1
  Pd  Pd166  1  -0.00233671  0.59637772  0.39270285  1
  Pd  Pd167  1  -0.00655912  0.59518967  0.19787796  1
  Pd  Pd168  1  0.39994729  0.59825882  0.19623842  1
  Pd  Pd169  1  -0.00276373  0.39528559  0.59150015  1
  Pd  Pd170  1  -0.00434806  0.80183431  0.19002634  1
  Pd  Pd171  1  0.81094140  0.40553834  0.80391289  1
  Pd  Pd172  1  -0.00548021  0.19890953  0.20548003  1
  Pd  Pd173  1  0.00556194  0.39751154  0.00832663  1
  Pd  Pd174  1  0.79382904  0.79062322  0.19614832  1
  Pd  Pd175  1  -0.00312943  0.20796406  0.60897058  1
  Pd  Pd176  1  0.20325809  0.59973644  0.39582944  1
  Pd  Pd177  1  0.79211093  0.00644039  -0.00683522  1
  Pd  Pd178  1  0.40931854  0.60361173  0.60811306  1
  Pd  Pd179  1  -0.00719133  0.00002831  0.59045409  1
  Pd  Pd180  1  0.60968869  0.00978823  0.80424969  1
  Pd  Pd181  1  0.39955953  0.00111265  0.80139376  1
  Pd  Pd182  1  0.79221313  0.39751157  0.41054392  1
  Pd  Pd183  1  0.18971670  0.60989728  0.80585586  1
  Pd  Pd184  1  0.80042541  0.39071166  0.59510277  1
  Pd  Pd185  1  0.39321015  0.79506956  0.80195197  1
  Pd  Pd186  1  0.79293457  0.80593825  0.59993989  1
  Pd  Pd187  1  0.61043975  0.59285262  0.79978503  1
  Pd  Pd188  1  0.58850305  0.80412739  0.40926795  1
  Pd  Pd189  1  0.40072245  0.59325479  0.80278522  1
  Pd  Pd190  1  0.60081219  0.59180987  0.40165339  1
  Pd  Pd191  1  0.41067519  0.00230098  0.20471188  1
  Pd  Pd192  1  0.40199736  0.39814281  0.39585257  1
  Pd  Pd193  1  0.79979108  0.60737549  0.19845603  1
  Pd  Pd194  1  0.61203824  0.19181925  0.61456107  1
  Pd  Pd195  1  -0.00141419  0.60010925  0.80001889  1
  Pd  Pd196  1  0.60541561  0.18897709  0.79033713  1
  Pd  Pd197  1  0.39913758  0.60233362  0.00118916  1
  Pd  Pd198  1  0.40676854  0.79305205  -0.01345628  1
  Pd  Pd199  1  0.39516189  0.41091294  0.61112979  1
  Rh  Rh200  1  0.19942883  0.81178860  0.60687287  1
  Rh  Rh201  1  0.20163641  0.79270071  0.20637885  1
  Rh  Rh202  1  0.39192266  -0.00100725  0.39136611  1
  Rh  Rh203  1  0.19185771  -0.00329628  0.00553449  1
  Rh  Rh204  1  0.00527993  -0.00988587  0.00669253  1
  Rh  Rh205  1  0.00363542  0.79905448  0.40015338  1
  Rh  Rh206  1  0.79838837  0.79664133  -0.00219126  1
  Rh  Rh207  1  0.39757002  0.20362431  0.19209895  1
  Rh  Rh208  1  0.60289848  0.39799447  0.40138643  1
  Rh  Rh209  1  0.00590063  0.19693292  -0.00888267  1
  Rh  Rh210  1  0.78861716  0.20677567  0.40491609  1
  Rh  Rh211  1  0.41253904  0.39232973  -0.00493998  1
  Rh  Rh212  1  0.40195125  0.60072757  0.39574357  1
  Rh  Rh213  1  0.19803025  0.79475008  -0.00752096  1
  Rh  Rh214  1  0.60323818  0.80104104  0.80114509  1
  Rh  Rh215  1  0.79976570  0.20647244  0.59918226  1
  Rh  Rh216  1  -0.00132708  0.19789759  0.38956903  1
  Rh  Rh217  1  0.80238623  0.60043407  -0.01045705  1
  Rh  Rh218  1  0.79133150  0.60271591  0.40228766  1
  Rh  Rh219  1  0.60100300  0.39970046  0.18956352  1
  Rh  Rh220  1  0.59956644  0.20084618  -0.00111602  1
  Rh  Rh221  1  0.80810405  0.00489322  0.80863480  1
  Rh  Rh222  1  0.40462240  0.19178153  0.60474240  1
  Rh  Rh223  1  0.19089655  0.59106481  0.60256469  1
  Rh  Rh224  1  0.80044183  0.19905734  -0.00366047  1
  Rh  Rh225  1  0.78984597  0.39379725  0.00235542  1
  Rh  Rh226  1  0.40392556  0.79881421  0.20822413  1
  Rh  Rh227  1  0.41223371  0.21055450  0.39793645  1
  Rh  Rh228  1  0.80565746  0.00127582  0.40495027  1
  Rh  Rh229  1  0.00365039  0.60035306  -0.00296904  1
  Rh  Rh230  1  0.20426749  0.60610584  0.19262993  1
  Rh  Rh231  1  0.80365189  0.79438342  0.80103164  1
  Rh  Rh232  1  0.60572848  0.00718425  0.60884231  1
  Rh  Rh233  1  0.00176148  0.80365507  0.00682484  1
  Rh  Rh234  1  0.59930254  0.59210815  0.00034748  1
  Rh  Rh235  1  0.40570488  0.40301387  0.19837918  1
  Rh  Rh236  1  0.40841931  0.00535259  -0.00121065  1
  Rh  Rh237  1  0.60357406  0.60629122  0.60445008  1
  Rh  Rh238  1  0.59995372  0.60304156  0.19815980  1
  Rh  Rh239  1  0.00078950  0.79654627  0.79531057  1
  Rh  Rh240  1  -0.01068821  0.00428290  0.80616813  1
  Rh  Rh241  1  0.60444808  0.19664343  0.20322555  1
  Rh  Rh242  1  0.79492360  0.60167337  0.60355588  1
  Rh  Rh243  1  0.81194284  0.19784122  0.80597885  1
  Rh  Rh244  1  0.60848830  0.39548102  0.61001002  1
  Rh  Rh245  1  0.59829027  0.20816295  0.39660376  1
  Rh  Rh246  1  0.19958654  0.60685474  0.00133083  1
  Rh  Rh247  1  0.21133332  0.20206497  0.18292366  1
  Rh  Rh248  1  0.60083447  0.00745989  0.38976849  1
  Rh  Rh249  1  0.19106371  -0.00363145  0.19837852  1
