# generated using pymatgen
data_ZrScNbPdRh
_symmetry_space_group_name_H-M   'P 1'
_cell_length_a   16.56290667
_cell_length_b   16.56863507
_cell_length_c   16.56929574
_cell_angle_alpha   90.00721919
_cell_angle_beta   90.02573504
_cell_angle_gamma   89.93697122
_symmetry_Int_Tables_number   1
_chemical_formula_structural   ZrScNbPdRh
_chemical_formula_sum   'Zr50 Sc50 Nb50 Pd50 Rh50'
_cell_volume   4547.02169883
_cell_formula_units_Z   50
loop_
 _symmetry_equiv_pos_site_id
 _symmetry_equiv_pos_as_xyz
  1  'x, y, z'
loop_
 _atom_site_type_symbol
 _atom_site_label
 _atom_site_symmetry_multiplicity
 _atom_site_fract_x
 _atom_site_fract_y
 _atom_site_fract_z
 _atom_site_occupancy
  Zr  Zr0  1  0.69998315  0.70792545  0.30548896  1
  Zr  Zr1  1  0.09531275  0.30138929  0.49660240  1
  Zr  Zr2  1  0.88909401  0.29269381  0.49982537  1
  Zr  Zr3  1  0.08454727  0.50882381  0.09898333  1
  Zr  Zr4  1  0.29949190  0.29786541  0.29994825  1
  Zr  Zr5  1  0.89421657  0.70046540  0.30592713  1
  Zr  Zr6  1  0.90999984  0.69058359  0.10244082  1
  Zr  Zr7  1  0.30005531  0.89695610  0.50373789  1
  Zr  Zr8  1  0.70058284  0.49562779  0.50010000  1
  Zr  Zr9  1  0.30781794  0.27709572  0.49725923  1
  Zr  Zr10  1  0.29915591  0.69873484  0.70679632  1
  Zr  Zr11  1  0.49739403  0.90301529  0.89121516  1
  Zr  Zr12  1  0.09664432  0.90109973  0.89514377  1
  Zr  Zr13  1  0.49634870  0.71086070  0.50086770  1
  Zr  Zr14  1  0.11484358  0.50016242  0.90313288  1
  Zr  Zr15  1  0.30219674  0.49998290  0.30389312  1
  Zr  Zr16  1  0.30839594  0.30035154  0.69935657  1
  Zr  Zr17  1  0.90009214  0.31526453  0.09570521  1
  Zr  Zr18  1  0.69309664  0.09852419  0.89260150  1
  Zr  Zr19  1  0.50272956  0.10570736  0.49328603  1
  Zr  Zr20  1  0.70383979  0.90267472  0.69893695  1
  Zr  Zr21  1  0.30052365  0.70918134  0.09232392  1
  Zr  Zr22  1  0.10553957  0.29818332  0.30090678  1
  Zr  Zr23  1  0.90334913  0.30025591  0.90387603  1
  Zr  Zr24  1  0.49943300  0.09458428  0.90207906  1
  Zr  Zr25  1  0.70248548  0.69888690  0.50670258  1
  Zr  Zr26  1  0.90135518  0.70488099  0.90221486  1
  Zr  Zr27  1  0.10382531  0.50195515  0.31007767  1
  Zr  Zr28  1  0.89395779  0.49485468  0.50170681  1
  Zr  Zr29  1  0.09261445  0.69796727  0.70094200  1
  Zr  Zr30  1  0.70044397  0.70177110  0.70315742  1
  Zr  Zr31  1  0.89875242  0.49457572  0.90514098  1
  Zr  Zr32  1  0.68649918  0.50913904  0.89487601  1
  Zr  Zr33  1  0.09858683  0.89833717  0.30294946  1
  Zr  Zr34  1  0.10026495  0.70546800  0.09452969  1
  Zr  Zr35  1  0.29098061  0.89915059  0.09610364  1
  Zr  Zr36  1  0.09822453  0.50002557  0.50499773  1
  Zr  Zr37  1  0.70736801  0.10472624  0.50192430  1
  Zr  Zr38  1  0.89875253  0.10502450  0.50537811  1
  Zr  Zr39  1  0.50914944  0.49569761  0.09261508  1
  Zr  Zr40  1  0.10515413  0.49815401  0.69527499  1
  Zr  Zr41  1  0.89361997  0.89079354  0.09592252  1
  Zr  Zr42  1  0.50630650  0.30276642  0.10262641  1
  Zr  Zr43  1  0.50340522  0.90099642  0.70064676  1
  Zr  Zr44  1  0.70484302  0.89599454  0.28953591  1
  Zr  Zr45  1  0.90692760  0.89954173  0.70565793  1
  Zr  Zr46  1  0.89145219  0.09730197  0.69525772  1
  Zr  Zr47  1  0.88870449  0.70487106  0.70745798  1
  Zr  Zr48  1  0.50015235  0.50071530  0.50361118  1
  Zr  Zr49  1  0.70146379  0.70108643  0.89449421  1
  Sc  Sc50  1  0.29400658  0.11251034  0.30157731  1
  Sc  Sc51  1  0.31155376  0.30320598  0.08948696  1
  Sc  Sc52  1  0.89244247  0.49965013  0.69571746  1
  Sc  Sc53  1  0.11037745  0.09569918  0.10139434  1
  Sc  Sc54  1  0.51281052  0.70593753  0.89603070  1
  Sc  Sc55  1  0.49662483  0.49191225  0.69694959  1
  Sc  Sc56  1  0.30321562  0.70201943  0.30972417  1
  Sc  Sc57  1  0.89447900  0.70476458  0.50836797  1
  Sc  Sc58  1  0.10473051  0.10982714  0.29292901  1
  Sc  Sc59  1  0.08862925  0.90184873  0.50103726  1
  Sc  Sc60  1  0.30500293  0.69810649  0.50110249  1
  Sc  Sc61  1  0.89516608  0.09874015  0.30667096  1
  Sc  Sc62  1  0.49767552  0.89536002  0.08387473  1
  Sc  Sc63  1  0.30863987  0.09234567  0.89929329  1
  Sc  Sc64  1  0.69358136  0.30432138  0.30309570  1
  Sc  Sc65  1  0.70675898  0.50032162  0.30303027  1
  Sc  Sc66  1  0.10578621  0.69707242  0.90430326  1
  Sc  Sc67  1  0.29953994  0.49548046  0.08857333  1
  Sc  Sc68  1  0.50376647  0.70516912  0.09206923  1
  Sc  Sc69  1  0.50500877  0.88688418  0.30663208  1
  Sc  Sc70  1  0.70004997  0.71242756  0.09611693  1
  Sc  Sc71  1  0.09144463  0.29413607  0.10192370  1
  Sc  Sc72  1  0.50222068  0.70393665  0.69730579  1
  Sc  Sc73  1  0.10005752  0.09860418  0.51306007  1
  Sc  Sc74  1  0.90137107  0.09497009  0.89666371  1
  Sc  Sc75  1  0.89744203  0.50752206  0.28897945  1
  Sc  Sc76  1  0.69933852  0.09991257  0.30423314  1
  Sc  Sc77  1  0.49968789  0.48846741  0.30199063  1
  Sc  Sc78  1  0.49516892  0.30916791  0.89919164  1
  Sc  Sc79  1  0.11896435  0.29842373  0.69691067  1
  Sc  Sc80  1  0.90211099  0.09639762  0.09428152  1
  Sc  Sc81  1  0.30011552  0.89086252  0.29780544  1
  Sc  Sc82  1  0.29977914  0.31183937  0.89503235  1
  Sc  Sc83  1  0.30034448  0.50744039  0.49905353  1
  Sc  Sc84  1  0.50263352  0.29981509  0.30689710  1
  Sc  Sc85  1  0.30124264  0.90255771  0.71198119  1
  Sc  Sc86  1  0.29953782  0.49547636  0.69866442  1
  Sc  Sc87  1  0.69730051  0.30486878  0.88412301  1
  Sc  Sc88  1  0.69137952  0.90067953  0.49977069  1
  Sc  Sc89  1  0.88566916  0.29694729  0.69805712  1
  Sc  Sc90  1  0.69903058  0.08987421  0.09826046  1
  Sc  Sc91  1  0.90675349  0.29491822  0.30192899  1
  Sc  Sc92  1  0.29077417  0.10046872  0.69183067  1
  Sc  Sc93  1  0.10215907  0.09307658  0.70042128  1
  Sc  Sc94  1  0.09900167  0.09545878  0.89949022  1
  Sc  Sc95  1  0.09735302  0.70481526  0.30384377  1
  Sc  Sc96  1  0.69637746  0.50245025  0.70236738  1
  Sc  Sc97  1  0.90015182  0.89839202  0.89911074  1
  Sc  Sc98  1  0.90007814  0.89611171  0.30669612  1
  Sc  Sc99  1  0.89906805  0.90906723  0.50635599  1
  Nb  Nb100  1  0.50073176  0.09683836  0.29362089  1
  Nb  Nb101  1  0.50401486  0.69668972  0.29797227  1
  Nb  Nb102  1  0.50310304  0.29662587  0.69664142  1
  Nb  Nb103  1  0.10092848  0.29913006  0.89777493  1
  Nb  Nb104  1  0.49614811  0.90200224  0.50233950  1
  Nb  Nb105  1  0.30462119  0.88637646  0.89802346  1
  Nb  Nb106  1  0.49518609  0.10187648  0.09311713  1
  Nb  Nb107  1  0.50018720  0.50545714  0.89684984  1
  Nb  Nb108  1  0.51122653  0.30237684  0.51024249  1
  Nb  Nb109  1  0.69741672  0.30381886  0.10370613  1
  Nb  Nb110  1  0.30359274  0.10430040  0.09770067  1
  Nb  Nb111  1  0.69368801  0.10583536  0.70337167  1
  Nb  Nb112  1  0.29704259  0.69697251  0.90049726  1
  Nb  Nb113  1  0.69657806  0.89800950  0.91101508  1
  Nb  Nb114  1  0.51251521  0.09969042  0.70862806  1
  Nb  Nb115  1  0.09788656  0.69670915  0.50168343  1
  Nb  Nb116  1  0.10069579  0.89929071  0.10218471  1
  Nb  Nb117  1  0.89366524  0.50094834  0.09733128  1
  Nb  Nb118  1  0.09975901  0.90202569  0.69981360  1
  Nb  Nb119  1  0.70049912  0.49520385  0.10247578  1
  Nb  Nb120  1  0.68093355  0.28900920  0.69763976  1
  Nb  Nb121  1  0.30350661  0.50219461  0.89751764  1
  Nb  Nb122  1  0.30195802  0.09360637  0.49840449  1
  Nb  Nb123  1  0.70133938  0.90163140  0.09650111  1
  Nb  Nb124  1  0.69193916  0.30142097  0.50117556  1
  Nb  Nb125  1  0.00106020  0.59284751  0.80100043  1
  Nb  Nb126  1  0.59130648  -0.00178019  0.19464090  1
  Nb  Nb127  1  0.19204608  0.80060344  0.60481044  1
  Nb  Nb128  1  0.40645069  0.00226227  0.59638339  1
  Nb  Nb129  1  0.39988291  0.00168117  0.39795207  1
  Nb  Nb130  1  0.20456144  0.00156186  0.40350340  1
  Nb  Nb131  1  0.00356346  -0.00743077  0.19743481  1
  Nb  Nb132  1  0.40591225  0.19911370  0.79347791  1
  Nb  Nb133  1  -0.00101972  0.60159918  0.40831030  1
  Nb  Nb134  1  0.79103720  0.20608919  0.00320277  1
  Nb  Nb135  1  0.00591557  0.39734260  0.80035283  1
  Nb  Nb136  1  0.19868324  0.40418697  0.19969910  1
  Nb  Nb137  1  0.20454513  0.19979215  -0.00310261  1
  Nb  Nb138  1  0.40211955  0.60056168  -0.00672036  1
  Nb  Nb139  1  0.40624622  0.19400344  0.19442512  1
  Nb  Nb140  1  0.59864853  0.60133414  0.20205836  1
  Nb  Nb141  1  0.20475991  0.59822485  0.19855957  1
  Nb  Nb142  1  0.79576215  0.20483514  0.18980589  1
  Nb  Nb143  1  0.40232625  0.60099070  0.19473163  1
  Nb  Nb144  1  0.79754060  0.59356195  0.00568960  1
  Nb  Nb145  1  0.60197689  0.20152649  0.00341363  1
  Nb  Nb146  1  0.40204287  0.00450294  0.19903996  1
  Nb  Nb147  1  0.59829873  0.60440785  0.39818200  1
  Nb  Nb148  1  0.39915563  0.59900999  0.80725531  1
  Nb  Nb149  1  0.00328274  0.20679447  0.80041436  1
  Pd  Pd150  1  0.40616127  0.80036513  0.20005142  1
  Pd  Pd151  1  0.39302224  -0.00842493  0.00279974  1
  Pd  Pd152  1  0.79668527  -0.00432120  0.80465797  1
  Pd  Pd153  1  0.20935461  0.39579322  0.40652821  1
  Pd  Pd154  1  0.20363584  0.00073523  0.20974529  1
  Pd  Pd155  1  0.59594611  0.60093405  0.60003330  1
  Pd  Pd156  1  0.59783473  -0.00553900  0.39178085  1
  Pd  Pd157  1  0.78439475  0.40101653  -0.00712566  1
  Pd  Pd158  1  0.40832974  0.18760086  0.60818432  1
  Pd  Pd159  1  0.39670147  0.39920414  0.19669906  1
  Pd  Pd160  1  -0.00356570  0.38773452  0.61043710  1
  Pd  Pd161  1  0.40903909  0.60045160  0.39518399  1
  Pd  Pd162  1  0.78648772  0.39254398  0.60824862  1
  Pd  Pd163  1  0.80357499  0.00590595  0.20031633  1
  Pd  Pd164  1  0.79795858  0.40248026  0.79429869  1
  Pd  Pd165  1  0.59439657  0.80469005  0.19149300  1
  Pd  Pd166  1  0.79984703  0.39281582  0.20902123  1
  Pd  Pd167  1  0.20429462  0.00060615  -0.00845083  1
  Pd  Pd168  1  0.60044044  0.00595032  0.59876550  1
  Pd  Pd169  1  0.19356958  0.79913132  0.79956052  1
  Pd  Pd170  1  0.20557822  0.00136740  0.80491437  1
  Pd  Pd171  1  0.39574229  0.39890605  0.59058538  1
  Pd  Pd172  1  0.19266106  0.39084805  0.00969823  1
  Pd  Pd173  1  -0.01097794  0.18924792  0.19583473  1
  Pd  Pd174  1  0.19641021  0.80251066  0.41076335  1
  Pd  Pd175  1  0.00359502  0.19345659  -0.00228328  1
  Pd  Pd176  1  0.80491044  0.39507135  0.39089102  1
  Pd  Pd177  1  0.39222480  0.80634796  0.60996802  1
  Pd  Pd178  1  0.40044525  0.39230446  0.41188657  1
  Pd  Pd179  1  0.20565366  0.19393265  0.80828646  1
  Pd  Pd180  1  -0.00484718  0.80301385  0.20279581  1
  Pd  Pd181  1  0.60563319  0.39357913  -0.00974593  1
  Pd  Pd182  1  0.60296637  0.19109850  0.19503655  1
  Pd  Pd183  1  0.00537836  0.20707361  0.61349705  1
  Pd  Pd184  1  0.00328085  0.40468567  0.20600135  1
  Pd  Pd185  1  0.00467963  0.19076156  0.40090876  1
  Pd  Pd186  1  0.00168107  -0.00422655  0.00592397  1
  Pd  Pd187  1  0.20682145  0.60653768  0.59841207  1
  Pd  Pd188  1  0.21309166  0.39263868  0.58704666  1
  Pd  Pd189  1  -0.01229301  0.60080623  0.60220102  1
  Pd  Pd190  1  0.60232319  0.20181388  0.39825135  1
  Pd  Pd191  1  0.79698255  -0.00582073  0.40258355  1
  Pd  Pd192  1  0.79957296  0.00504993  -0.00560202  1
  Pd  Pd193  1  -0.00086876  0.80174774  0.59885228  1
  Pd  Pd194  1  0.00913088  0.01091727  0.39398130  1
  Pd  Pd195  1  0.20069862  0.79100984  0.20480764  1
  Pd  Pd196  1  0.80161037  0.81026938  0.41193469  1
  Pd  Pd197  1  0.78753488  0.60835446  0.19208522  1
  Pd  Pd198  1  0.80439541  0.19966693  0.80521189  1
  Pd  Pd199  1  -0.01053161  0.40666663  0.39490393  1
  Rh  Rh200  1  0.00538139  0.79433361  0.80405509  1
  Rh  Rh201  1  0.79914976  0.59976839  0.60214441  1
  Rh  Rh202  1  0.59303227  0.40112516  0.79372864  1
  Rh  Rh203  1  0.40843872  0.19629569  0.39003163  1
  Rh  Rh204  1  0.60527178  0.80658596  0.79804361  1
  Rh  Rh205  1  0.60415038  0.40118827  0.60472088  1
  Rh  Rh206  1  0.60800772  -0.00961494  0.80213326  1
  Rh  Rh207  1  0.79365344  0.20688157  0.39206770  1
  Rh  Rh208  1  0.79400472  0.81136487  0.80656165  1
  Rh  Rh209  1  0.19367660  0.60820169  0.39923577  1
  Rh  Rh210  1  0.19877060  0.20021642  0.59561295  1
  Rh  Rh211  1  0.79488328  0.00059292  0.59997318  1
  Rh  Rh212  1  0.59784455  0.40634219  0.40427771  1
  Rh  Rh213  1  -0.00647276  0.79191392  0.40888825  1
  Rh  Rh214  1  0.20951469  0.60145028  0.00905763  1
  Rh  Rh215  1  0.40084815  0.20340821  -0.00728429  1
  Rh  Rh216  1  0.60049475  0.19233333  0.59434568  1
  Rh  Rh217  1  0.78690668  0.20487573  0.60351550  1
  Rh  Rh218  1  0.20056649  0.40326514  0.79786749  1
  Rh  Rh219  1  0.80734823  0.59463801  0.80857294  1
  Rh  Rh220  1  0.79878828  0.80792557  0.60084781  1
  Rh  Rh221  1  0.80000507  0.79335714  -0.00039735  1
  Rh  Rh222  1  0.00602048  0.80644372  -0.00228937  1
  Rh  Rh223  1  -0.00708441  0.59769461  -0.01088921  1
  Rh  Rh224  1  0.00848635  0.60332183  0.21347564  1
  Rh  Rh225  1  0.39747843  0.01060202  0.78700086  1
  Rh  Rh226  1  0.80453548  0.79632753  0.19594453  1
  Rh  Rh227  1  0.60089146  0.80403894  -0.00387195  1
  Rh  Rh228  1  0.59963647  0.79643322  0.40689542  1
  Rh  Rh229  1  0.60511868  0.40921865  0.20835743  1
  Rh  Rh230  1  0.40374199  0.79065329  0.80418268  1
  Rh  Rh231  1  0.60463270  0.60275742  0.00977920  1
  Rh  Rh232  1  0.40335545  0.40090806  0.79846718  1
  Rh  Rh233  1  0.39897029  0.60027662  0.61143414  1
  Rh  Rh234  1  0.19438559  0.80821315  -0.00981068  1
  Rh  Rh235  1  0.20100189  0.59551238  0.79676815  1
  Rh  Rh236  1  0.00856496  0.40415507  -0.00372269  1
  Rh  Rh237  1  0.20212567  -0.01176096  0.59666467  1
  Rh  Rh238  1  0.40555932  0.40866857  -0.00585942  1
  Rh  Rh239  1  0.80190457  0.59748412  0.40670759  1
  Rh  Rh240  1  0.40306062  0.79450830  -0.01169388  1
  Rh  Rh241  1  0.58852425  0.20692879  0.81076224  1
  Rh  Rh242  1  0.60226976  0.80273932  0.59957306  1
  Rh  Rh243  1  -0.00250959  0.00132566  0.60659752  1
  Rh  Rh244  1  0.18862748  0.19147274  0.41154542  1
  Rh  Rh245  1  0.40253741  0.80234734  0.39704100  1
  Rh  Rh246  1  0.58814494  0.60053514  0.78782492  1
  Rh  Rh247  1  0.21323060  0.21587608  0.18253044  1
  Rh  Rh248  1  0.60059802  0.00060199  0.00346035  1
  Rh  Rh249  1  -0.00131126  0.00833914  0.79407082  1
