# generated using pymatgen
data_ZrScNbPdRh
_symmetry_space_group_name_H-M   'P 1'
_cell_length_a   16.56447120
_cell_length_b   16.55717227
_cell_length_c   16.56047550
_cell_angle_alpha   89.96531667
_cell_angle_beta   89.96319363
_cell_angle_gamma   89.98234831
_symmetry_Int_Tables_number   1
_chemical_formula_structural   ZrScNbPdRh
_chemical_formula_sum   'Zr50 Sc50 Nb50 Pd50 Rh50'
_cell_volume   4541.88732773
_cell_formula_units_Z   50
loop_
 _symmetry_equiv_pos_site_id
 _symmetry_equiv_pos_as_xyz
  1  'x, y, z'
loop_
 _atom_site_type_symbol
 _atom_site_label
 _atom_site_symmetry_multiplicity
 _atom_site_fract_x
 _atom_site_fract_y
 _atom_site_fract_z
 _atom_site_occupancy
  Zr  Zr0  1  0.50494550  0.70158254  0.31181059  1
  Zr  Zr1  1  0.69998024  0.09990831  0.70445748  1
  Zr  Zr2  1  0.29846979  0.70514003  0.49870495  1
  Zr  Zr3  1  0.10160226  0.89910959  0.89888950  1
  Zr  Zr4  1  0.08622627  0.70024917  0.90194717  1
  Zr  Zr5  1  0.69367868  0.89007392  0.29944919  1
  Zr  Zr6  1  0.49806939  0.70007800  0.70080920  1
  Zr  Zr7  1  0.09651355  0.09586456  0.29292162  1
  Zr  Zr8  1  0.89339312  0.30295616  0.90460900  1
  Zr  Zr9  1  0.88974237  0.50410146  0.69987000  1
  Zr  Zr10  1  0.49952783  0.90094305  0.29819531  1
  Zr  Zr11  1  0.90121965  0.89171763  0.91266891  1
  Zr  Zr12  1  0.69474830  0.70280589  0.49226030  1
  Zr  Zr13  1  0.69812400  0.09237388  0.10287321  1
  Zr  Zr14  1  0.29352303  0.50698583  0.10188833  1
  Zr  Zr15  1  0.69765541  0.49943536  0.29570668  1
  Zr  Zr16  1  0.30367229  0.09514374  0.68264430  1
  Zr  Zr17  1  0.50630342  0.49340840  0.10190344  1
  Zr  Zr18  1  0.90489703  0.09950856  0.09892861  1
  Zr  Zr19  1  0.30037156  0.09408778  0.90310403  1
  Zr  Zr20  1  0.70236093  0.89942349  0.90309443  1
  Zr  Zr21  1  0.90111756  0.10290958  0.69122592  1
  Zr  Zr22  1  0.29621732  0.50170982  0.69856489  1
  Zr  Zr23  1  0.70204144  0.31114871  0.70395610  1
  Zr  Zr24  1  0.50276949  0.09881734  0.90508966  1
  Zr  Zr25  1  0.90901711  0.50561849  0.30917278  1
  Zr  Zr26  1  0.09445185  0.30337346  0.10212126  1
  Zr  Zr27  1  0.29296860  0.91208380  0.50297623  1
  Zr  Zr28  1  0.09798178  0.10196208  0.09711134  1
  Zr  Zr29  1  0.90271116  0.09688867  0.91315245  1
  Zr  Zr30  1  0.90208557  0.70519126  0.29854799  1
  Zr  Zr31  1  0.50285797  0.30253613  0.91516769  1
  Zr  Zr32  1  0.30245587  0.69703778  0.69701060  1
  Zr  Zr33  1  0.10519614  0.49429941  0.29365853  1
  Zr  Zr34  1  0.89941192  0.69691742  0.50105562  1
  Zr  Zr35  1  0.10206547  0.09832299  0.49445683  1
  Zr  Zr36  1  0.90195417  0.10384065  0.48970396  1
  Zr  Zr37  1  0.08904267  0.49919301  0.48834037  1
  Zr  Zr38  1  0.90179397  0.09678941  0.29798144  1
  Zr  Zr39  1  0.48710913  0.09472398  0.50664849  1
  Zr  Zr40  1  0.50016051  0.30289307  0.29377465  1
  Zr  Zr41  1  0.69856408  0.30767377  0.10162285  1
  Zr  Zr42  1  0.50378619  0.10015660  0.70271549  1
  Zr  Zr43  1  0.90168572  0.50135799  0.09964113  1
  Zr  Zr44  1  0.89767705  0.29657127  0.09913025  1
  Zr  Zr45  1  0.50253743  0.89302734  0.90076418  1
  Zr  Zr46  1  0.50292226  0.49879960  0.89863015  1
  Zr  Zr47  1  0.10473834  0.30149825  0.89139980  1
  Zr  Zr48  1  0.69945186  0.69593405  0.29510571  1
  Zr  Zr49  1  0.90714596  0.50041334  0.50609376  1
  Sc  Sc50  1  0.09772650  0.70553644  0.69976301  1
  Sc  Sc51  1  0.10000064  0.71315228  0.30038142  1
  Sc  Sc52  1  0.10542089  0.10278742  0.69143724  1
  Sc  Sc53  1  0.89306576  0.89183377  0.69074323  1
  Sc  Sc54  1  0.50616221  0.50918453  0.69933649  1
  Sc  Sc55  1  0.29757617  0.89476999  0.69747817  1
  Sc  Sc56  1  0.28879653  0.89643748  0.30594270  1
  Sc  Sc57  1  0.69870372  0.30892274  0.90260879  1
  Sc  Sc58  1  0.89871570  0.50956904  0.90569575  1
  Sc  Sc59  1  0.70336711  0.49874431  0.89807496  1
  Sc  Sc60  1  0.90067503  0.69498143  0.70319267  1
  Sc  Sc61  1  0.49631182  0.69409377  0.50184069  1
  Sc  Sc62  1  0.49921739  0.69949484  0.89726274  1
  Sc  Sc63  1  0.69642896  0.88571049  0.09953432  1
  Sc  Sc64  1  0.28396092  0.29815325  0.69901176  1
  Sc  Sc65  1  0.50731236  0.50166160  0.30332176  1
  Sc  Sc66  1  0.09822466  0.29983571  0.69154885  1
  Sc  Sc67  1  0.51102031  0.30204848  0.69772308  1
  Sc  Sc68  1  0.90110887  0.30814688  0.69563986  1
  Sc  Sc69  1  0.89557808  0.28865650  0.29881017  1
  Sc  Sc70  1  0.69632431  0.50395811  0.50972863  1
  Sc  Sc71  1  0.30241711  0.09550174  0.09838018  1
  Sc  Sc72  1  0.10349989  0.30277258  0.29844102  1
  Sc  Sc73  1  0.70421104  0.69670111  0.90307089  1
  Sc  Sc74  1  0.09743863  0.50036266  0.69101289  1
  Sc  Sc75  1  0.48532549  0.89722165  0.49464053  1
  Sc  Sc76  1  0.50083348  0.09818612  0.29228491  1
  Sc  Sc77  1  0.70555556  0.69081683  0.70318030  1
  Sc  Sc78  1  0.71332769  0.09642959  0.49817533  1
  Sc  Sc79  1  0.29661054  0.89520827  0.09045334  1
  Sc  Sc80  1  0.70495753  0.09978605  0.29667963  1
  Sc  Sc81  1  0.29681825  0.10254994  0.29822173  1
  Sc  Sc82  1  0.09515972  0.30474404  0.49532737  1
  Sc  Sc83  1  0.10164417  0.09379209  0.90465643  1
  Sc  Sc84  1  0.09704937  0.70291024  0.49963914  1
  Sc  Sc85  1  0.28761898  0.51076649  0.49781502  1
  Sc  Sc86  1  0.10339694  0.89748025  0.10397647  1
  Sc  Sc87  1  0.51093705  0.50280396  0.50214513  1
  Sc  Sc88  1  0.70007728  0.10940395  0.90067181  1
  Sc  Sc89  1  0.49746777  0.10661738  0.10070880  1
  Sc  Sc90  1  0.29876626  0.89756670  0.90464311  1
  Sc  Sc91  1  0.29402949  0.30279720  0.29494373  1
  Sc  Sc92  1  0.70546708  0.89847519  0.70645015  1
  Sc  Sc93  1  0.50973320  0.30773543  0.50630102  1
  Sc  Sc94  1  0.31479588  0.30315669  0.10593434  1
  Sc  Sc95  1  0.70258213  0.29747069  0.29689885  1
  Sc  Sc96  1  0.10325282  0.69874193  0.10325035  1
  Sc  Sc97  1  0.50603431  0.69572035  0.08918409  1
  Sc  Sc98  1  0.10812950  0.89388185  0.69494759  1
  Sc  Sc99  1  0.50131664  0.89342712  0.09491212  1
  Nb  Nb100  1  0.30313168  0.30160038  0.49671265  1
  Nb  Nb101  1  0.09989907  0.50086529  0.90121390  1
  Nb  Nb102  1  0.50701137  0.90119663  0.70755901  1
  Nb  Nb103  1  0.29593756  0.50136335  0.30158808  1
  Nb  Nb104  1  0.50381415  0.30066060  0.10247764  1
  Nb  Nb105  1  0.09743423  0.89707184  0.49035573  1
  Nb  Nb106  1  0.09301986  0.89759974  0.30681868  1
  Nb  Nb107  1  0.30160253  0.69177114  0.91088036  1
  Nb  Nb108  1  0.30399785  0.10080715  0.49866801  1
  Nb  Nb109  1  0.70510624  0.90149145  0.50420902  1
  Nb  Nb110  1  0.29956507  0.69652467  0.29934250  1
  Nb  Nb111  1  0.89465536  0.89878574  0.09466143  1
  Nb  Nb112  1  0.29684583  0.49969517  0.89975858  1
  Nb  Nb113  1  0.90086572  0.70302366  0.08775297  1
  Nb  Nb114  1  0.09797124  0.49495190  0.09919087  1
  Nb  Nb115  1  0.70401864  0.68739709  0.10220086  1
  Nb  Nb116  1  0.89954338  0.30101837  0.49857165  1
  Nb  Nb117  1  0.70167283  0.50731978  0.10379213  1
  Nb  Nb118  1  0.30007436  0.70170088  0.10289799  1
  Nb  Nb119  1  0.29772094  0.30432547  0.89466470  1
  Nb  Nb120  1  0.90227767  0.69819454  0.91052968  1
  Nb  Nb121  1  0.90969615  0.89854835  0.30028896  1
  Nb  Nb122  1  0.89431338  0.90608311  0.49728010  1
  Nb  Nb123  1  0.69890924  0.50328121  0.70783494  1
  Nb  Nb124  1  0.69602428  0.30627758  0.49992080  1
  Nb  Nb125  1  0.39630335  0.20244797  0.80216998  1
  Nb  Nb126  1  0.60164379  -0.00724486  0.59684612  1
  Nb  Nb127  1  0.40463424  0.00190389  0.79845532  1
  Nb  Nb128  1  0.00101179  0.40219324  0.80310327  1
  Nb  Nb129  1  -0.00435655  -0.00053959  0.79396589  1
  Nb  Nb130  1  0.60008346  -0.00141464  -0.00154836  1
  Nb  Nb131  1  0.39954541  -0.01040448  0.19921691  1
  Nb  Nb132  1  0.39356721  0.79170381  0.20038185  1
  Nb  Nb133  1  0.39496237  0.39663069  0.79961024  1
  Nb  Nb134  1  0.60059777  -0.00040847  0.40656824  1
  Nb  Nb135  1  0.20081525  0.59999400  0.80950452  1
  Nb  Nb136  1  0.39474647  0.40255034  0.59939285  1
  Nb  Nb137  1  0.20033838  0.40305684  -0.00222329  1
  Nb  Nb138  1  0.80697541  -0.01269068  0.19777702  1
  Nb  Nb139  1  0.59973838  0.80702831  0.60110868  1
  Nb  Nb140  1  -0.00177720  -0.00550055  0.59223358  1
  Nb  Nb141  1  0.80971990  0.00244315  0.80485402  1
  Nb  Nb142  1  0.79964318  0.20896085  0.59439826  1
  Nb  Nb143  1  0.39551816  0.60461116  0.20408724  1
  Nb  Nb144  1  0.20464503  0.21000052  -0.00279176  1
  Nb  Nb145  1  0.40130143  0.20471541  0.40481776  1
  Nb  Nb146  1  -0.00203808  0.19867718  0.80160663  1
  Nb  Nb147  1  0.59770321  0.19621544  0.40540201  1
  Nb  Nb148  1  0.80126060  0.39795748  0.40666062  1
  Nb  Nb149  1  0.39564715  0.39981626  0.40440944  1
  Pd  Pd150  1  0.39389885  0.40341675  -0.00129462  1
  Pd  Pd151  1  0.19102822  0.59990866  -0.00140129  1
  Pd  Pd152  1  0.00661708  0.20628271  0.39257185  1
  Pd  Pd153  1  0.60467454  0.59651984  -0.00578221  1
  Pd  Pd154  1  0.00361886  0.60593509  0.19768514  1
  Pd  Pd155  1  0.80726615  0.40223783  0.20812868  1
  Pd  Pd156  1  0.19576910  0.79431448  -0.00288163  1
  Pd  Pd157  1  0.39249122  0.80176258  0.39653660  1
  Pd  Pd158  1  0.79458125  0.59094747  0.40476171  1
  Pd  Pd159  1  0.79112931  0.20076718  0.00535213  1
  Pd  Pd160  1  0.00147745  0.40132636  -0.00665438  1
  Pd  Pd161  1  0.39715249  0.59498257  0.80152821  1
  Pd  Pd162  1  0.80755517  0.20019325  0.79528526  1
  Pd  Pd163  1  0.40062396  0.58926251  0.40105366  1
  Pd  Pd164  1  0.20092285  0.00247170  0.79141799  1
  Pd  Pd165  1  0.20736978  0.78803656  0.80647037  1
  Pd  Pd166  1  0.20558076  -0.00793905  0.19852053  1
  Pd  Pd167  1  0.19943564  0.18786500  0.80160863  1
  Pd  Pd168  1  0.19847502  0.40092501  0.58895683  1
  Pd  Pd169  1  0.00006006  0.80452946  0.59513783  1
  Pd  Pd170  1  0.60201031  0.19941381  0.20382312  1
  Pd  Pd171  1  0.39362389  0.20326765  0.00010259  1
  Pd  Pd172  1  -0.00895694  0.39465782  0.20786922  1
  Pd  Pd173  1  0.19632582  0.60443032  0.20538277  1
  Pd  Pd174  1  0.18930750  0.60719373  0.39465066  1
  Pd  Pd175  1  0.20440819  0.20397030  0.18961518  1
  Pd  Pd176  1  -0.00809773  0.80732247  0.79572464  1
  Pd  Pd177  1  0.61126869  0.19068347  0.59135131  1
  Pd  Pd178  1  0.39168900  0.80412849  0.80494205  1
  Pd  Pd179  1  0.59660416  0.21120134  0.80704229  1
  Pd  Pd180  1  0.79349843  0.79073585  0.60033877  1
  Pd  Pd181  1  0.40424536  0.59795563  0.00583503  1
  Pd  Pd182  1  0.40381426  0.80433062  0.60202491  1
  Pd  Pd183  1  0.39904541  0.41144629  0.20911282  1
  Pd  Pd184  1  0.18990684  0.60706120  0.60247660  1
  Pd  Pd185  1  0.81006564  0.60106733  0.19974065  1
  Pd  Pd186  1  0.59053479  0.78937408  0.19230901  1
  Pd  Pd187  1  0.39959161  0.21553382  0.60411522  1
  Pd  Pd188  1  0.19756060  0.20374624  0.58821635  1
  Pd  Pd189  1  -0.00216701  -0.00895612  0.19269143  1
  Pd  Pd190  1  0.20340218  0.20239932  0.40016914  1
  Pd  Pd191  1  0.80343608  0.79945930  0.19552284  1
  Pd  Pd192  1  0.79609429  0.40139998  0.59565546  1
  Pd  Pd193  1  0.79487283  -0.00866841  0.38714716  1
  Pd  Pd194  1  0.80437896  0.80325587  0.39814090  1
  Pd  Pd195  1  -0.00009596  0.80149744  0.19114857  1
  Pd  Pd196  1  0.80585539  0.79789673  0.80326477  1
  Pd  Pd197  1  0.00319058  0.59392041  0.79462781  1
  Pd  Pd198  1  0.60856666  0.79000011  0.79594132  1
  Pd  Pd199  1  0.19975871  0.00330187  0.39432955  1
  Rh  Rh200  1  0.19965556  0.80002816  0.59173438  1
  Rh  Rh201  1  0.20372197  0.39867105  0.19238023  1
  Rh  Rh202  1  0.00716187  0.61071996  0.39385440  1
  Rh  Rh203  1  0.80627076  0.40626569  0.80486218  1
  Rh  Rh204  1  0.39819799  0.79215898  0.00151642  1
  Rh  Rh205  1  0.60573909  0.79524164  -0.00051983  1
  Rh  Rh206  1  0.59171232  0.60343930  0.20090469  1
  Rh  Rh207  1  0.20049786  0.79952507  0.40238505  1
  Rh  Rh208  1  0.20418085  0.40234551  0.39999024  1
  Rh  Rh209  1  -0.00352049  0.19965967  0.59908943  1
  Rh  Rh210  1  0.79582353  0.60252930  0.59856368  1
  Rh  Rh211  1  0.80064744  0.00574606  0.60681249  1
  Rh  Rh212  1  0.59940507  0.41022635  0.60991172  1
  Rh  Rh213  1  0.19693620  0.00449462  0.00588156  1
  Rh  Rh214  1  0.00120795  0.40064359  0.60438278  1
  Rh  Rh215  1  0.60325174  0.61014072  0.60538425  1
  Rh  Rh216  1  0.60304625  0.39472105  0.39460665  1
  Rh  Rh217  1  0.78970136  -0.00107697  0.00305244  1
  Rh  Rh218  1  0.20338413  0.80230047  0.20407365  1
  Rh  Rh219  1  0.59731243  0.81013427  0.41516494  1
  Rh  Rh220  1  0.78890082  0.21167204  0.40718636  1
  Rh  Rh221  1  0.60265326  0.39999307  0.20006364  1
  Rh  Rh222  1  0.18975553  -0.00280862  0.59665793  1
  Rh  Rh223  1  0.00133150  -0.00450886  0.40240172  1
  Rh  Rh224  1  0.60581972  0.59644410  0.39939499  1
  Rh  Rh225  1  0.60491735  0.19899369  0.00732972  1
  Rh  Rh226  1  0.59323798  0.40266389  0.79933975  1
  Rh  Rh227  1  0.00363002  0.59930191  0.00963399  1
  Rh  Rh228  1  0.40038620  0.01033655  0.38732006  1
  Rh  Rh229  1  0.00855672  -0.01118307  0.00136166  1
  Rh  Rh230  1  0.40605939  -0.01306516  0.61145352  1
  Rh  Rh231  1  0.80048271  0.18935211  0.19234926  1
  Rh  Rh232  1  0.60747761  0.40562710  0.00491577  1
  Rh  Rh233  1  0.19634622  0.41293564  0.80067257  1
  Rh  Rh234  1  0.79303277  0.78908253  0.00514800  1
  Rh  Rh235  1  0.41012881  -0.00799459  0.00143617  1
  Rh  Rh236  1  0.79856777  0.59871760  0.00179483  1
  Rh  Rh237  1  -0.00831524  0.80020750  0.40697796  1
  Rh  Rh238  1  0.60559481  -0.00116094  0.80463443  1
  Rh  Rh239  1  0.01071446  0.20530089  -0.00782574  1
  Rh  Rh240  1  0.79597802  0.40964823  0.00484725  1
  Rh  Rh241  1  0.80255210  0.60146301  0.80755509  1
  Rh  Rh242  1  0.40155852  0.59234977  0.59219659  1
  Rh  Rh243  1  0.00645980  0.80145804  0.00823559  1
  Rh  Rh244  1  -0.00805616  0.39166971  0.39222689  1
  Rh  Rh245  1  0.60015532  -0.00444837  0.19609824  1
  Rh  Rh246  1  0.60360076  0.60089226  0.80359064  1
  Rh  Rh247  1  0.00170149  0.60450403  0.60326900  1
  Rh  Rh248  1  0.39991682  0.19293643  0.20426968  1
  Rh  Rh249  1  0.00062097  0.20337998  0.20436248  1
