# generated using pymatgen
data_ZrScNbPdRh
_symmetry_space_group_name_H-M   'P 1'
_cell_length_a   16.55974897
_cell_length_b   16.56159817
_cell_length_c   16.55894368
_cell_angle_alpha   89.99431501
_cell_angle_beta   89.95856875
_cell_angle_gamma   90.02084551
_symmetry_Int_Tables_number   1
_chemical_formula_structural   ZrScNbPdRh
_chemical_formula_sum   'Zr50 Sc50 Nb50 Pd50 Rh50'
_cell_volume   4541.38663048
_cell_formula_units_Z   50
loop_
 _symmetry_equiv_pos_site_id
 _symmetry_equiv_pos_as_xyz
  1  'x, y, z'
loop_
 _atom_site_type_symbol
 _atom_site_label
 _atom_site_symmetry_multiplicity
 _atom_site_fract_x
 _atom_site_fract_y
 _atom_site_fract_z
 _atom_site_occupancy
  Zr  Zr0  1  0.90729773  0.10201675  0.29936173  1
  Zr  Zr1  1  0.71144867  0.70183562  0.10333995  1
  Zr  Zr2  1  0.09930177  0.89332028  0.69400692  1
  Zr  Zr3  1  0.70019375  0.50230193  0.09693221  1
  Zr  Zr4  1  0.50048940  0.30181353  0.10597575  1
  Zr  Zr5  1  0.49439349  0.49943172  0.50551486  1
  Zr  Zr6  1  0.70361742  0.90288615  0.89963455  1
  Zr  Zr7  1  0.29303696  0.50212794  0.50069715  1
  Zr  Zr8  1  0.71727827  0.70573392  0.90148403  1
  Zr  Zr9  1  0.30011660  0.09557563  0.29913557  1
  Zr  Zr10  1  0.10993934  0.31259687  0.11028112  1
  Zr  Zr11  1  0.50241785  0.29686212  0.49756070  1
  Zr  Zr12  1  0.69689719  0.09525752  0.90279821  1
  Zr  Zr13  1  0.30048011  0.90315117  0.10531926  1
  Zr  Zr14  1  0.91255632  0.49865011  0.30259931  1
  Zr  Zr15  1  0.90144506  0.10198888  0.90404857  1
  Zr  Zr16  1  0.30016988  0.30752369  0.50827676  1
  Zr  Zr17  1  0.30013552  0.49917502  0.89865929  1
  Zr  Zr18  1  0.69543787  0.89112501  0.49622439  1
  Zr  Zr19  1  0.89838445  0.30139281  0.30552654  1
  Zr  Zr20  1  0.09277828  0.09965618  0.90044066  1
  Zr  Zr21  1  0.89492075  0.50229494  0.70037617  1
  Zr  Zr22  1  0.70165469  0.10125865  0.30433362  1
  Zr  Zr23  1  0.90191836  0.30047062  0.89869372  1
  Zr  Zr24  1  0.69809786  0.51369432  0.50337824  1
  Zr  Zr25  1  0.89152533  0.09803818  0.09774999  1
  Zr  Zr26  1  0.70156369  0.09634517  0.70232619  1
  Zr  Zr27  1  0.69914023  0.90322732  0.69725716  1
  Zr  Zr28  1  0.09814551  0.89624397  0.89159176  1
  Zr  Zr29  1  0.29892425  0.89686695  0.29609828  1
  Zr  Zr30  1  0.89903351  0.89540200  0.30256055  1
  Zr  Zr31  1  0.28793771  0.50319970  0.09507253  1
  Zr  Zr32  1  0.50052304  0.90698439  0.10837744  1
  Zr  Zr33  1  0.70161547  0.29907791  0.49488740  1
  Zr  Zr34  1  0.30362369  0.69610529  0.50114494  1
  Zr  Zr35  1  0.09915075  0.68586191  0.09900054  1
  Zr  Zr36  1  0.50880501  0.09757756  0.70575246  1
  Zr  Zr37  1  0.69976819  0.49865915  0.29926970  1
  Zr  Zr38  1  0.89845573  0.89998309  0.69661267  1
  Zr  Zr39  1  0.69408496  0.29847007  0.69716527  1
  Zr  Zr40  1  0.29724868  0.50680486  0.30991312  1
  Zr  Zr41  1  0.09853946  0.71053403  0.70235667  1
  Zr  Zr42  1  0.31497340  0.09713826  0.10332425  1
  Zr  Zr43  1  0.70982131  0.10016068  0.50246038  1
  Zr  Zr44  1  0.89571945  0.09708603  0.69431937  1
  Zr  Zr45  1  0.49752184  0.50655826  0.89676449  1
  Zr  Zr46  1  0.49897497  0.89133399  0.50740192  1
  Zr  Zr47  1  0.30666693  0.30213461  0.09687159  1
  Zr  Zr48  1  0.69862740  0.30458984  0.09912772  1
  Zr  Zr49  1  0.49776644  0.10258941  0.30238855  1
  Sc  Sc50  1  0.90516749  0.90139231  0.49607613  1
  Sc  Sc51  1  0.10478799  0.49347009  0.70357987  1
  Sc  Sc52  1  0.69442517  0.70551308  0.30451965  1
  Sc  Sc53  1  0.50064925  0.29267234  0.90443368  1
  Sc  Sc54  1  0.10030770  0.49695572  0.90473269  1
  Sc  Sc55  1  0.50323756  0.50255748  0.29369900  1
  Sc  Sc56  1  0.10034547  0.89502720  0.11113592  1
  Sc  Sc57  1  0.70103948  0.89818939  0.30228289  1
  Sc  Sc58  1  0.90950730  0.09593126  0.49981319  1
  Sc  Sc59  1  0.89965053  0.69888414  0.71170331  1
  Sc  Sc60  1  0.10009744  0.70449442  0.29726542  1
  Sc  Sc61  1  0.89812530  0.70265557  0.29850710  1
  Sc  Sc62  1  0.10533221  0.29256574  0.49205300  1
  Sc  Sc63  1  0.69812933  0.49393655  0.89503115  1
  Sc  Sc64  1  0.29373020  0.69666621  0.10301889  1
  Sc  Sc65  1  0.50272368  0.70032301  0.49395756  1
  Sc  Sc66  1  0.90134808  0.50031365  0.89880971  1
  Sc  Sc67  1  0.29485039  0.29290694  0.29155281  1
  Sc  Sc68  1  0.10036180  0.30360821  0.70273269  1
  Sc  Sc69  1  0.30728629  0.90130316  0.90191066  1
  Sc  Sc70  1  0.08676960  0.10407759  0.69727840  1
  Sc  Sc71  1  0.30579036  0.69009772  0.90253855  1
  Sc  Sc72  1  0.09199013  0.30748532  0.89745474  1
  Sc  Sc73  1  0.30480289  0.89289783  0.49462817  1
  Sc  Sc74  1  0.30522869  0.88575264  0.69062989  1
  Sc  Sc75  1  0.89631388  0.30170201  0.49195703  1
  Sc  Sc76  1  0.50227729  0.90594408  0.90145724  1
  Sc  Sc77  1  0.50597739  0.09974511  0.90641793  1
  Sc  Sc78  1  0.31783335  0.10189815  0.90403782  1
  Sc  Sc79  1  0.49123892  0.69741170  0.70053625  1
  Sc  Sc80  1  0.50539823  0.29971406  0.69459994  1
  Sc  Sc81  1  0.89597259  0.29553950  0.09167716  1
  Sc  Sc82  1  0.10702863  0.71001700  0.50066327  1
  Sc  Sc83  1  0.89529197  0.50259062  0.48510844  1
  Sc  Sc84  1  0.89232660  0.90157844  0.89970021  1
  Sc  Sc85  1  0.09665768  0.89324269  0.30245994  1
  Sc  Sc86  1  0.70067683  0.30216330  0.90730037  1
  Sc  Sc87  1  0.08981038  0.10049570  0.10690070  1
  Sc  Sc88  1  0.70280193  0.90599583  0.10361315  1
  Sc  Sc89  1  0.49453555  0.09581823  0.49484729  1
  Sc  Sc90  1  0.29838746  0.49551436  0.68878262  1
  Sc  Sc91  1  0.29441864  0.30609746  0.69650050  1
  Sc  Sc92  1  0.49885132  0.49426782  0.09784100  1
  Sc  Sc93  1  0.49120987  0.69301611  0.89337463  1
  Sc  Sc94  1  0.29872331  0.70796306  0.31024288  1
  Sc  Sc95  1  0.90751177  0.30086255  0.70340663  1
  Sc  Sc96  1  0.89704693  0.89956449  0.10496917  1
  Sc  Sc97  1  0.49832851  0.89862745  0.30618632  1
  Sc  Sc98  1  0.30163073  0.10985480  0.49734065  1
  Sc  Sc99  1  0.30540819  0.10753882  0.69248117  1
  Nb  Nb100  1  0.88850789  0.69309553  0.50201722  1
  Nb  Nb101  1  0.09768555  0.70227563  0.89442183  1
  Nb  Nb102  1  0.09947875  0.09636623  0.49502207  1
  Nb  Nb103  1  0.09936263  0.11665391  0.31172732  1
  Nb  Nb104  1  0.69115102  0.49960805  0.69602234  1
  Nb  Nb105  1  0.29451316  0.69670034  0.69821172  1
  Nb  Nb106  1  0.09844066  0.90603220  0.50134639  1
  Nb  Nb107  1  0.09702182  0.48871359  0.29266820  1
  Nb  Nb108  1  0.09744842  0.49747333  0.49050424  1
  Nb  Nb109  1  0.09707276  0.29679525  0.29886240  1
  Nb  Nb110  1  0.29961211  0.29772865  0.89801157  1
  Nb  Nb111  1  0.69904772  0.70203168  0.50359172  1
  Nb  Nb112  1  0.50225654  0.70447860  0.10350938  1
  Nb  Nb113  1  0.69377274  0.09926198  0.10248273  1
  Nb  Nb114  1  0.70268210  0.29913087  0.30396378  1
  Nb  Nb115  1  0.90283958  0.51560224  0.10591903  1
  Nb  Nb116  1  0.90225074  0.70047575  0.90483944  1
  Nb  Nb117  1  0.50639264  0.09836046  0.10269485  1
  Nb  Nb118  1  0.89578165  0.69123961  0.08993080  1
  Nb  Nb119  1  0.70188941  0.69566234  0.69550961  1
  Nb  Nb120  1  0.50627514  0.49513939  0.70429414  1
  Nb  Nb121  1  0.50514897  0.30281622  0.29844220  1
  Nb  Nb122  1  0.49430387  0.70397612  0.29296298  1
  Nb  Nb123  1  0.50267893  0.89605215  0.69735156  1
  Nb  Nb124  1  0.09751173  0.50296265  0.11556372  1
  Nb  Nb125  1  -0.00055749  0.59779999  0.59361828  1
  Nb  Nb126  1  0.20217693  0.19597494  0.80845534  1
  Nb  Nb127  1  0.79521377  0.79140528  0.59720909  1
  Nb  Nb128  1  0.59823219  0.39805578  0.39869293  1
  Nb  Nb129  1  0.20054594  0.60646472  0.79782190  1
  Nb  Nb130  1  0.19935333  0.00215839  -0.00297750  1
  Nb  Nb131  1  0.20292238  0.19821424  -0.00217818  1
  Nb  Nb132  1  0.40200475  -0.00211605  0.79073867  1
  Nb  Nb133  1  0.20624339  0.00390364  0.79600703  1
  Nb  Nb134  1  0.40323554  0.39871387  0.39797843  1
  Nb  Nb135  1  0.79921702  0.19746732  0.80127127  1
  Nb  Nb136  1  0.79678584  0.40727315  0.60039776  1
  Nb  Nb137  1  0.19343857  0.00338525  0.40342763  1
  Nb  Nb138  1  0.60291707  0.79821695  0.79828797  1
  Nb  Nb139  1  -0.00056269  0.79064415  -0.00255073  1
  Nb  Nb140  1  0.19549841  0.00020137  0.59658789  1
  Nb  Nb141  1  0.40049090  0.60571399  0.20022756  1
  Nb  Nb142  1  0.40309004  0.79789619  0.00786468  1
  Nb  Nb143  1  0.80184889  0.40362301  0.20085582  1
  Nb  Nb144  1  0.60243407  0.20087312  0.20276603  1
  Nb  Nb145  1  0.19723309  0.79923867  -0.00304386  1
  Nb  Nb146  1  0.40168166  0.40088583  0.79836138  1
  Nb  Nb147  1  -0.00180556  0.40844038  0.59077234  1
  Nb  Nb148  1  0.60158748  0.60879662  0.00063782  1
  Nb  Nb149  1  0.59826475  0.79497446  -0.00082412  1
  Pd  Pd150  1  0.21577494  0.79961137  0.80750518  1
  Pd  Pd151  1  0.59293083  0.60003720  0.39688962  1
  Pd  Pd152  1  -0.01218956  0.39323919  0.19113017  1
  Pd  Pd153  1  0.80562923  -0.00082492  0.40198003  1
  Pd  Pd154  1  0.40320242  0.60038757  0.60477015  1
  Pd  Pd155  1  -0.00094588  -0.00370516  0.79406389  1
  Pd  Pd156  1  0.79830264  -0.00221834  0.20516353  1
  Pd  Pd157  1  0.40302311  0.80501243  0.80551208  1
  Pd  Pd158  1  0.39228342  -0.00135335  0.60123571  1
  Pd  Pd159  1  0.79544207  0.59480689  0.80350153  1
  Pd  Pd160  1  0.40466213  0.39817251  -0.00810639  1
  Pd  Pd161  1  0.18774713  0.59896724  0.60511730  1
  Pd  Pd162  1  0.59567576  0.60104911  0.19438214  1
  Pd  Pd163  1  -0.00811160  0.79013574  0.18931232  1
  Pd  Pd164  1  0.60737668  0.60954977  0.80392280  1
  Pd  Pd165  1  0.39128271  0.41052671  0.20806796  1
  Pd  Pd166  1  0.58844314  0.60687524  0.60418591  1
  Pd  Pd167  1  0.00419023  0.59577908  -0.00563889  1
  Pd  Pd168  1  0.19544873  0.39580138  -0.00441013  1
  Pd  Pd169  1  0.80820241  0.21111672  0.60351284  1
  Pd  Pd170  1  0.39846087  0.20264993  0.79361629  1
  Pd  Pd171  1  0.01046649  0.20866451  0.00786156  1
  Pd  Pd172  1  0.19999037  0.19277269  0.19060630  1
  Pd  Pd173  1  0.20255510  0.39072569  0.39424225  1
  Pd  Pd174  1  0.40659285  0.20285209  0.60454031  1
  Pd  Pd175  1  0.80256695  0.59959062  0.21055234  1
  Pd  Pd176  1  -0.00218866  0.79334063  0.40748499  1
  Pd  Pd177  1  0.00511467  -0.00026666  0.20800460  1
  Pd  Pd178  1  0.00829211  0.59481916  0.79524586  1
  Pd  Pd179  1  0.19184626  0.19569351  0.60748574  1
  Pd  Pd180  1  0.39338585  0.20922410  0.39615527  1
  Pd  Pd181  1  0.18675187  0.60541912  0.39633788  1
  Pd  Pd182  1  0.79726831  0.60596103  0.38952288  1
  Pd  Pd183  1  0.79603465  0.20553536  0.19826254  1
  Pd  Pd184  1  0.79771683  0.39350889  0.79292920  1
  Pd  Pd185  1  -0.01137790  0.79042732  0.59086237  1
  Pd  Pd186  1  0.60611098  0.80627677  0.19978373  1
  Pd  Pd187  1  0.00703264  0.61107253  0.40116020  1
  Pd  Pd188  1  0.59784962  -0.00247291  0.40385724  1
  Pd  Pd189  1  0.60094317  0.20081943  0.00562941  1
  Pd  Pd190  1  -0.00336578  0.20816534  0.19358922  1
  Pd  Pd191  1  0.80900519  0.40948676  0.00559744  1
  Pd  Pd192  1  0.00004658  0.21085200  0.59291593  1
  Pd  Pd193  1  0.18727820  0.00759108  0.20470412  1
  Pd  Pd194  1  -0.00211651  0.40908754  0.01132844  1
  Pd  Pd195  1  0.20454354  0.60476615  0.21288954  1
  Pd  Pd196  1  0.59893840  0.00394362  0.59182679  1
  Pd  Pd197  1  0.00405272  -0.01465648  0.00717227  1
  Pd  Pd198  1  0.59665743  0.18933840  0.59259346  1
  Pd  Pd199  1  0.59299305  0.39146080  0.80645958  1
  Rh  Rh200  1  0.79730028  0.00092755  0.00497095  1
  Rh  Rh201  1  0.80297972  0.79938960  0.20001900  1
  Rh  Rh202  1  0.60833262  0.20407076  0.80470942  1
  Rh  Rh203  1  0.39315298  0.79421469  0.19773001  1
  Rh  Rh204  1  0.40222658  0.20160585  0.00585819  1
  Rh  Rh205  1  0.60171429  -0.00741735  0.00481185  1
  Rh  Rh206  1  0.01007255  0.39240562  0.40250675  1
  Rh  Rh207  1  -0.00482050  0.20425243  0.40525851  1
  Rh  Rh208  1  0.60192909  0.79101350  0.60930930  1
  Rh  Rh209  1  0.59362956  0.40866903  -0.00600432  1
  Rh  Rh210  1  0.40904808  0.59772628  0.39032747  1
  Rh  Rh211  1  0.20610352  0.20064932  0.39992925  1
  Rh  Rh212  1  0.60286463  0.20095945  0.39711338  1
  Rh  Rh213  1  0.79298537  0.19441808  -0.00590014  1
  Rh  Rh214  1  0.20580962  0.80490910  0.59190642  1
  Rh  Rh215  1  0.78953923  0.40689633  0.40101995  1
  Rh  Rh216  1  0.79853991  0.80088324  0.78923694  1
  Rh  Rh217  1  0.20704064  0.40416956  0.20729015  1
  Rh  Rh218  1  0.18497569  0.40133665  0.59302167  1
  Rh  Rh219  1  0.60094233  0.00554789  0.20706093  1
  Rh  Rh220  1  0.20813503  0.39905942  0.80376052  1
  Rh  Rh221  1  0.40136521  0.78990524  0.59871291  1
  Rh  Rh222  1  0.00589778  -0.00071432  0.39031474  1
  Rh  Rh223  1  0.80532620  0.80699733  0.00765506  1
  Rh  Rh224  1  0.40623331  0.39909363  0.60344827  1
  Rh  Rh225  1  0.00025505  0.60477700  0.20860753  1
  Rh  Rh226  1  0.40878856  0.19883816  0.19972254  1
  Rh  Rh227  1  0.00009345  0.40536324  0.79316492  1
  Rh  Rh228  1  0.00412635  -0.00054661  0.60180426  1
  Rh  Rh229  1  0.59459820  0.79680838  0.39546577  1
  Rh  Rh230  1  0.80749725  0.19076846  0.40082100  1
  Rh  Rh231  1  0.79621868  0.58958590  -0.00869518  1
  Rh  Rh232  1  0.59212213  -0.00882483  0.79987562  1
  Rh  Rh233  1  0.80076501  0.79688408  0.40602766  1
  Rh  Rh234  1  0.80317444  0.59994242  0.60410478  1
  Rh  Rh235  1  0.80619932  0.00818108  0.80338604  1
  Rh  Rh236  1  0.80011981  -0.01231853  0.58829274  1
  Rh  Rh237  1  0.60615552  0.40338015  0.59181326  1
  Rh  Rh238  1  -0.01417135  0.80396487  0.80795951  1
  Rh  Rh239  1  0.19840029  0.80821429  0.40264050  1
  Rh  Rh240  1  0.38770098  0.58734246  0.78564240  1
  Rh  Rh241  1  0.40879327  0.00007467  0.20966453  1
  Rh  Rh242  1  0.19255718  0.60337538  -0.01103354  1
  Rh  Rh243  1  0.40458895  0.79812520  0.40044766  1
  Rh  Rh244  1  0.40288796  -0.00415956  -0.00341751  1
  Rh  Rh245  1  -0.00260370  0.20212131  0.80100079  1
  Rh  Rh246  1  0.39153754  -0.00403330  0.40025505  1
  Rh  Rh247  1  0.61009924  0.39369914  0.20590764  1
  Rh  Rh248  1  0.40797775  0.60636848  0.01544593  1
  Rh  Rh249  1  0.20045447  0.79469091  0.19529513  1
