# generated using pymatgen
data_ZrScNbPdRh
_symmetry_space_group_name_H-M   'P 1'
_cell_length_a   16.55616907
_cell_length_b   16.55550738
_cell_length_c   16.55500530
_cell_angle_alpha   90.00548480
_cell_angle_beta   89.98979804
_cell_angle_gamma   89.98776783
_symmetry_Int_Tables_number   1
_chemical_formula_structural   ZrScNbPdRh
_chemical_formula_sum   'Zr50 Sc50 Nb50 Pd50 Rh50'
_cell_volume   4537.65688065
_cell_formula_units_Z   50
loop_
 _symmetry_equiv_pos_site_id
 _symmetry_equiv_pos_as_xyz
  1  'x, y, z'
loop_
 _atom_site_type_symbol
 _atom_site_label
 _atom_site_symmetry_multiplicity
 _atom_site_fract_x
 _atom_site_fract_y
 _atom_site_fract_z
 _atom_site_occupancy
  Zr  Zr0  1  0.49870341  0.29890529  0.49763891  1
  Zr  Zr1  1  0.50054661  0.68675033  0.29831887  1
  Zr  Zr2  1  0.88893221  0.10716931  0.70370289  1
  Zr  Zr3  1  0.29920855  0.09876695  0.89759424  1
  Zr  Zr4  1  0.49758648  0.68996769  0.49724421  1
  Zr  Zr5  1  0.49680331  0.30106409  0.09361455  1
  Zr  Zr6  1  0.10329467  0.69330184  0.69481019  1
  Zr  Zr7  1  0.49742543  0.89947875  0.09821583  1
  Zr  Zr8  1  0.70544452  0.30031876  0.68733314  1
  Zr  Zr9  1  0.89607488  0.90101892  0.90029470  1
  Zr  Zr10  1  0.68818025  0.31722468  0.90057992  1
  Zr  Zr11  1  0.89796757  0.30387002  0.90787516  1
  Zr  Zr12  1  0.49385561  0.49695052  0.49447499  1
  Zr  Zr13  1  0.50573538  0.69986796  0.90494536  1
  Zr  Zr14  1  0.09982887  0.89851888  0.69861350  1
  Zr  Zr15  1  0.29147223  0.49331246  0.69591761  1
  Zr  Zr16  1  0.30233773  0.10224060  0.71161611  1
  Zr  Zr17  1  0.69840380  0.50591028  0.89865100  1
  Zr  Zr18  1  0.89518771  0.30486932  0.10986053  1
  Zr  Zr19  1  0.70100314  0.69841374  0.70157939  1
  Zr  Zr20  1  0.50124197  0.30398463  0.69434312  1
  Zr  Zr21  1  0.70225584  0.29965861  0.10174092  1
  Zr  Zr22  1  0.09283551  0.89856121  0.30287729  1
  Zr  Zr23  1  0.69761189  0.69944037  0.89810179  1
  Zr  Zr24  1  0.90378620  0.10690101  0.89791787  1
  Zr  Zr25  1  0.49391251  0.10253210  0.89710001  1
  Zr  Zr26  1  0.29845018  0.49919168  0.49682280  1
  Zr  Zr27  1  0.90198361  0.90327597  0.70429282  1
  Zr  Zr28  1  0.89786372  0.69864894  0.69702005  1
  Zr  Zr29  1  0.89797764  0.70114507  0.30511446  1
  Zr  Zr30  1  0.30058661  0.09732371  0.10653385  1
  Zr  Zr31  1  0.50744428  0.48967496  0.90436645  1
  Zr  Zr32  1  0.69742324  0.89820195  0.09697586  1
  Zr  Zr33  1  0.89702852  0.30713599  0.49530429  1
  Zr  Zr34  1  0.30555891  0.70031330  0.90464147  1
  Zr  Zr35  1  0.30067115  0.89552614  0.70045181  1
  Zr  Zr36  1  0.29502519  0.49437826  0.90559187  1
  Zr  Zr37  1  0.10424011  0.29565785  0.30290103  1
  Zr  Zr38  1  0.29879853  0.09704134  0.49060992  1
  Zr  Zr39  1  0.70834582  0.69123061  0.49928014  1
  Zr  Zr40  1  0.29889250  0.69739312  0.10518120  1
  Zr  Zr41  1  0.09635648  0.68113249  0.90715689  1
  Zr  Zr42  1  0.90644504  0.89908953  0.30061162  1
  Zr  Zr43  1  0.90945385  0.10140884  0.30493334  1
  Zr  Zr44  1  0.29495255  0.69777501  0.50326742  1
  Zr  Zr45  1  0.89592269  0.11089487  0.09499027  1
  Zr  Zr46  1  0.29025943  0.69850970  0.29644713  1
  Zr  Zr47  1  0.91097557  0.50344451  0.90094415  1
  Zr  Zr48  1  0.89614034  0.70010364  0.89673498  1
  Zr  Zr49  1  0.50328474  0.09147294  0.69295642  1
  Sc  Sc50  1  0.49995327  0.91494834  0.49821242  1
  Sc  Sc51  1  0.30036348  0.30715007  0.49281208  1
  Sc  Sc52  1  0.89781695  0.30490657  0.69746312  1
  Sc  Sc53  1  0.29869880  0.49249763  0.09973303  1
  Sc  Sc54  1  0.09897874  0.49410362  0.89554728  1
  Sc  Sc55  1  0.70483992  0.89828676  0.30798713  1
  Sc  Sc56  1  0.09716773  0.69398415  0.49034159  1
  Sc  Sc57  1  0.29585305  0.89545228  0.49652422  1
  Sc  Sc58  1  0.10031749  0.31173426  0.70396070  1
  Sc  Sc59  1  0.09633466  0.50082674  0.50270499  1
  Sc  Sc60  1  0.09539034  0.30380322  0.89624376  1
  Sc  Sc61  1  0.70423405  0.69566315  0.10059725  1
  Sc  Sc62  1  0.50740073  0.69630837  0.70866093  1
  Sc  Sc63  1  0.90086265  0.49633286  0.10411140  1
  Sc  Sc64  1  0.49240379  0.89678360  0.30393626  1
  Sc  Sc65  1  0.69816063  0.11012649  0.10053025  1
  Sc  Sc66  1  0.30979376  0.89835584  0.10478381  1
  Sc  Sc67  1  0.29489125  0.29809652  0.29262736  1
  Sc  Sc68  1  0.10115893  0.50502823  0.08609080  1
  Sc  Sc69  1  0.70294787  0.50395488  0.10534732  1
  Sc  Sc70  1  0.49556030  0.10406346  0.10276689  1
  Sc  Sc71  1  0.29762440  0.49624923  0.29735292  1
  Sc  Sc72  1  0.09980821  0.30418643  0.49410971  1
  Sc  Sc73  1  0.69909931  0.91041100  0.69658494  1
  Sc  Sc74  1  0.70112000  0.91003931  0.50010498  1
  Sc  Sc75  1  0.09698542  0.89737967  0.11704279  1
  Sc  Sc76  1  0.70728192  0.10063788  0.90297648  1
  Sc  Sc77  1  0.89844892  0.10262250  0.49448771  1
  Sc  Sc78  1  0.90275802  0.69195054  0.50043387  1
  Sc  Sc79  1  0.70161707  0.49809309  0.69999551  1
  Sc  Sc80  1  0.10639773  0.50251292  0.30706282  1
  Sc  Sc81  1  0.89709681  0.89503531  0.10239078  1
  Sc  Sc82  1  0.69598682  0.10699865  0.30529271  1
  Sc  Sc83  1  0.69266836  0.10426400  0.50287295  1
  Sc  Sc84  1  0.09206549  0.90450583  0.88731936  1
  Sc  Sc85  1  0.10413804  0.89827894  0.49402181  1
  Sc  Sc86  1  0.50213466  0.49825956  0.69242404  1
  Sc  Sc87  1  0.29421012  0.89856784  0.29925603  1
  Sc  Sc88  1  0.70600957  0.51274147  0.29906750  1
  Sc  Sc89  1  0.90215272  0.90314332  0.49146064  1
  Sc  Sc90  1  0.71787583  0.30048011  0.29672515  1
  Sc  Sc91  1  0.69349043  0.89457537  0.90633231  1
  Sc  Sc92  1  0.89543822  0.70053560  0.10095514  1
  Sc  Sc93  1  0.09945619  0.30620585  0.10021382  1
  Sc  Sc94  1  0.90778666  0.49721654  0.68901388  1
  Sc  Sc95  1  0.48943421  0.28868093  0.29863444  1
  Sc  Sc96  1  0.71284723  0.49902723  0.49858840  1
  Sc  Sc97  1  0.50150824  0.89312679  0.90635869  1
  Sc  Sc98  1  0.50651796  0.90183805  0.70514404  1
  Sc  Sc99  1  0.49532961  0.50421209  0.10208062  1
  Nb  Nb100  1  0.90407412  0.50321268  0.49365280  1
  Nb  Nb101  1  0.49799794  0.30127400  0.89781285  1
  Nb  Nb102  1  0.09755241  0.70241160  0.29045260  1
  Nb  Nb103  1  0.69836142  0.10686980  0.69878229  1
  Nb  Nb104  1  0.51115820  0.49926197  0.30092644  1
  Nb  Nb105  1  0.29901286  0.89664762  0.90634512  1
  Nb  Nb106  1  0.09459467  0.49688583  0.70264742  1
  Nb  Nb107  1  0.30378467  0.29237867  0.89394681  1
  Nb  Nb108  1  0.10192800  0.10365712  0.49529214  1
  Nb  Nb109  1  0.10157935  0.70025588  0.10586088  1
  Nb  Nb110  1  0.69684949  0.69650530  0.30172094  1
  Nb  Nb111  1  0.10201888  0.10180704  0.10220482  1
  Nb  Nb112  1  0.29405583  0.10970673  0.29928972  1
  Nb  Nb113  1  0.90669288  0.30385126  0.29714222  1
  Nb  Nb114  1  0.89946958  0.49386086  0.30100884  1
  Nb  Nb115  1  0.70301990  0.30422603  0.49807066  1
  Nb  Nb116  1  0.49742119  0.10366959  0.49016037  1
  Nb  Nb117  1  0.10897578  0.09981844  0.30370460  1
  Nb  Nb118  1  0.09980141  0.10051470  0.70813737  1
  Nb  Nb119  1  0.29984378  0.69909103  0.70047202  1
  Nb  Nb120  1  0.09992574  0.10253020  0.89833394  1
  Nb  Nb121  1  0.29986104  0.29451403  0.09875333  1
  Nb  Nb122  1  0.29926263  0.29546044  0.70440662  1
  Nb  Nb123  1  0.49637323  0.09900111  0.31340588  1
  Nb  Nb124  1  0.49561615  0.70527325  0.10586447  1
  Nb  Nb125  1  0.00582906  0.00360301  0.00094394  1
  Nb  Nb126  1  0.20077415  0.19676051  -0.00199807  1
  Nb  Nb127  1  0.59969850  -0.00179943  0.20566120  1
  Nb  Nb128  1  0.39653792  0.39575529  0.80190760  1
  Nb  Nb129  1  0.79760429  0.00341445  0.20167907  1
  Nb  Nb130  1  0.19411101  0.80404647  -0.00189029  1
  Nb  Nb131  1  0.59801891  0.39983980  0.20761765  1
  Nb  Nb132  1  0.00498877  0.19928613  0.20528593  1
  Nb  Nb133  1  0.39603067  0.19610993  0.59767230  1
  Nb  Nb134  1  0.39685035  0.59312571  0.80176283  1
  Nb  Nb135  1  0.59949143  0.79661757  0.20534330  1
  Nb  Nb136  1  0.59821520  0.79671054  0.59261714  1
  Nb  Nb137  1  0.60106022  0.20193500  0.79472662  1
  Nb  Nb138  1  0.60099002  0.79203817  0.40175426  1
  Nb  Nb139  1  0.20317573  0.79367593  0.80511559  1
  Nb  Nb140  1  0.00575887  0.00703706  0.60213267  1
  Nb  Nb141  1  0.00613275  0.80082716  -0.00066578  1
  Nb  Nb142  1  0.00028784  0.80310210  0.60142081  1
  Nb  Nb143  1  0.60361810  0.39902077  0.39486787  1
  Nb  Nb144  1  0.19323582  -0.00028673  -0.00047195  1
  Nb  Nb145  1  0.00778975  0.19485415  0.60000632  1
  Nb  Nb146  1  0.00258789  0.60246557  0.20468261  1
  Nb  Nb147  1  0.19565477  0.00975443  0.60249112  1
  Nb  Nb148  1  0.19938414  0.19690291  0.60454891  1
  Nb  Nb149  1  0.40385288  0.79487265  0.60135361  1
  Pd  Pd150  1  0.78907281  0.21264279  0.80738631  1
  Pd  Pd151  1  -0.00748151  0.00839912  0.19275459  1
  Pd  Pd152  1  0.39515925  0.59233911  0.20269820  1
  Pd  Pd153  1  0.80110809  0.80687234  0.59390118  1
  Pd  Pd154  1  0.60602544  0.21218169  0.39440450  1
  Pd  Pd155  1  0.80525828  0.59674398  0.00334254  1
  Pd  Pd156  1  0.20210796  -0.00820129  0.80211060  1
  Pd  Pd157  1  0.59592090  0.00952425  0.00593978  1
  Pd  Pd158  1  0.80670110  0.58973732  0.79273725  1
  Pd  Pd159  1  0.00453860  0.40450101  0.39925988  1
  Pd  Pd160  1  0.79161413  -0.00197247  0.80394323  1
  Pd  Pd161  1  0.40211293  0.39812275  0.38653886  1
  Pd  Pd162  1  0.40061144  0.60285812  0.60978196  1
  Pd  Pd163  1  0.60261670  0.19831026  -0.00871396  1
  Pd  Pd164  1  0.79976455  0.19962792  0.40121018  1
  Pd  Pd165  1  0.79593108  0.00803143  0.39532781  1
  Pd  Pd166  1  0.20385928  0.59925726  0.80088749  1
  Pd  Pd167  1  0.39054968  -0.00338658  0.39201102  1
  Pd  Pd168  1  0.20147263  -0.00460821  0.20057336  1
  Pd  Pd169  1  0.80547847  0.40487751  0.79679581  1
  Pd  Pd170  1  0.59486777  0.20101125  0.20757799  1
  Pd  Pd171  1  0.00797296  0.20361172  0.00714442  1
  Pd  Pd172  1  0.40530133  0.00513195  0.21122418  1
  Pd  Pd173  1  0.40496486  -0.01224547  0.80762226  1
  Pd  Pd174  1  0.20048912  0.38760804  -0.00287639  1
  Pd  Pd175  1  0.59920353  0.60123955  0.00968699  1
  Pd  Pd176  1  0.60420834  0.59663857  0.59669932  1
  Pd  Pd177  1  0.01195643  0.40664202  0.20018656  1
  Pd  Pd178  1  0.39020451  0.59616269  0.39022682  1
  Pd  Pd179  1  0.80554281  0.00660833  0.59567774  1
  Pd  Pd180  1  0.19464607  0.59518469  0.59585818  1
  Pd  Pd181  1  0.40178732  0.79592529  0.79701228  1
  Pd  Pd182  1  0.00814688  0.78792887  0.80121546  1
  Pd  Pd183  1  0.60605303  0.40776794  0.58863893  1
  Pd  Pd184  1  0.79379180  0.80329800  0.20210718  1
  Pd  Pd185  1  0.78953119  0.80859294  0.79930939  1
  Pd  Pd186  1  0.80439495  -0.00054952  0.00712560  1
  Pd  Pd187  1  0.19464099  0.40405019  0.19666256  1
  Pd  Pd188  1  0.39357502  -0.00264963  0.59752340  1
  Pd  Pd189  1  0.40504469  0.39897009  0.20201941  1
  Pd  Pd190  1  0.79956509  0.40877534  0.00389985  1
  Pd  Pd191  1  0.19584675  0.39333847  0.59624455  1
  Pd  Pd192  1  0.59519973  0.19738449  0.59796255  1
  Pd  Pd193  1  0.19363004  0.79532432  0.39725538  1
  Pd  Pd194  1  0.60599303  0.00458002  0.80883619  1
  Pd  Pd195  1  0.39501894  0.19875954  0.00200324  1
  Pd  Pd196  1  0.79835539  0.79912174  0.40703311  1
  Pd  Pd197  1  0.40414694  0.79866966  0.40566581  1
  Pd  Pd198  1  0.40049009  0.59592058  -0.00080416  1
  Pd  Pd199  1  0.00110667  0.21008130  0.79224078  1
  Rh  Rh200  1  0.19297329  0.59236141  0.19682475  1
  Rh  Rh201  1  0.00875010  0.00063068  0.40734172  1
  Rh  Rh202  1  0.60086904  0.40459828  0.01760578  1
  Rh  Rh203  1  0.39720116  0.79986192  0.00527496  1
  Rh  Rh204  1  -0.00777357  0.60535838  0.01287422  1
  Rh  Rh205  1  0.59883398  -0.00286507  0.39545296  1
  Rh  Rh206  1  0.19888106  -0.00082827  0.39774309  1
  Rh  Rh207  1  0.20167042  0.80310011  0.60379606  1
  Rh  Rh208  1  0.79176976  0.21078441  -0.00717473  1
  Rh  Rh209  1  0.79379728  0.40699560  0.20517775  1
  Rh  Rh210  1  0.60050973  0.60149260  0.19316208  1
  Rh  Rh211  1  0.79899962  0.40409019  0.39533142  1
  Rh  Rh212  1  0.00279264  0.20180778  0.39868204  1
  Rh  Rh213  1  -0.00491767  0.40081756  0.79886082  1
  Rh  Rh214  1  0.40279691  0.79661448  0.20536273  1
  Rh  Rh215  1  0.39124322  0.39247794  0.60505098  1
  Rh  Rh216  1  0.20682240  0.60294990  0.00686746  1
  Rh  Rh217  1  0.39641791  0.39409358  -0.00334427  1
  Rh  Rh218  1  0.20370603  0.80600981  0.19597112  1
  Rh  Rh219  1  0.59344253  0.59161444  0.80068043  1
  Rh  Rh220  1  0.59506748  0.39831319  0.79121661  1
  Rh  Rh221  1  0.20004402  0.60150935  0.39908934  1
  Rh  Rh222  1  0.81049072  0.19232455  0.20835858  1
  Rh  Rh223  1  0.39725495  -0.00023831  -0.00360677  1
  Rh  Rh224  1  -0.00187518  0.39895171  0.00162164  1
  Rh  Rh225  1  0.00173430  0.79706801  0.40662877  1
  Rh  Rh226  1  0.80526985  0.20074796  0.59094108  1
  Rh  Rh227  1  0.60028602  0.79001207  0.01117248  1
  Rh  Rh228  1  0.60646501  0.59424314  0.40723729  1
  Rh  Rh229  1  0.80546860  0.59261901  0.60162328  1
  Rh  Rh230  1  0.39891024  0.19509911  0.20259272  1
  Rh  Rh231  1  0.20498584  0.20520250  0.40444113  1
  Rh  Rh232  1  0.60115733  0.00054652  0.59414687  1
  Rh  Rh233  1  0.00088632  0.39520989  0.59519069  1
  Rh  Rh234  1  0.41383514  0.20617544  0.79100383  1
  Rh  Rh235  1  -0.00606361  0.79133972  0.19538598  1
  Rh  Rh236  1  -0.00102076  0.59712463  0.39034172  1
  Rh  Rh237  1  0.00133915  0.60217158  0.59855445  1
  Rh  Rh238  1  0.38976004  0.20186059  0.40089982  1
  Rh  Rh239  1  -0.00780337  0.00893904  0.80062983  1
  Rh  Rh240  1  0.80364105  0.79590959  -0.00477905  1
  Rh  Rh241  1  0.20112719  0.40154030  0.39972407  1
  Rh  Rh242  1  0.80737437  0.59645138  0.39602478  1
  Rh  Rh243  1  -0.00270037  0.59610515  0.79204907  1
  Rh  Rh244  1  0.19067960  0.20894035  0.80290989  1
  Rh  Rh245  1  0.19564615  0.20250555  0.19280768  1
  Rh  Rh246  1  0.80582046  0.40365204  0.59523583  1
  Rh  Rh247  1  0.81126782  0.59977880  0.20482955  1
  Rh  Rh248  1  0.20315644  0.39685313  0.80268516  1
  Rh  Rh249  1  0.60586755  0.80283079  0.79129276  1
