# generated using pymatgen
data_ZrScNbPdRh
_symmetry_space_group_name_H-M   'P 1'
_cell_length_a   16.56313849
_cell_length_b   16.55466699
_cell_length_c   16.56244262
_cell_angle_alpha   89.98777595
_cell_angle_beta   89.99099480
_cell_angle_gamma   89.99327084
_symmetry_Int_Tables_number   1
_chemical_formula_structural   ZrScNbPdRh
_chemical_formula_sum   'Zr50 Sc50 Nb50 Pd50 Rh50'
_cell_volume   4541.37589560
_cell_formula_units_Z   50
loop_
 _symmetry_equiv_pos_site_id
 _symmetry_equiv_pos_as_xyz
  1  'x, y, z'
loop_
 _atom_site_type_symbol
 _atom_site_label
 _atom_site_symmetry_multiplicity
 _atom_site_fract_x
 _atom_site_fract_y
 _atom_site_fract_z
 _atom_site_occupancy
  Zr  Zr0  1  0.70508179  0.10234924  0.69471574  1
  Zr  Zr1  1  0.91066631  0.69805451  0.69902470  1
  Zr  Zr2  1  0.89978323  0.09308823  0.49946793  1
  Zr  Zr3  1  0.49864150  0.68925408  0.70940839  1
  Zr  Zr4  1  0.10944687  0.91004835  0.08985888  1
  Zr  Zr5  1  0.50320682  0.50485523  0.29338865  1
  Zr  Zr6  1  0.28970581  0.69761323  0.69563020  1
  Zr  Zr7  1  0.29719066  0.90644561  0.70040788  1
  Zr  Zr8  1  0.48803771  0.10263979  0.29727364  1
  Zr  Zr9  1  0.10094379  0.08707432  0.90065688  1
  Zr  Zr10  1  0.69455218  0.90143368  0.09947799  1
  Zr  Zr11  1  0.09319789  0.29817024  0.10717083  1
  Zr  Zr12  1  0.09567962  0.89401900  0.28650948  1
  Zr  Zr13  1  0.70013625  0.10685340  0.30376465  1
  Zr  Zr14  1  0.69837710  0.89914055  0.90603707  1
  Zr  Zr15  1  0.69902277  0.29710604  0.69553214  1
  Zr  Zr16  1  0.50245946  0.88946912  0.70201087  1
  Zr  Zr17  1  0.90990408  0.89255447  0.09511408  1
  Zr  Zr18  1  0.30863033  0.30606383  0.09771671  1
  Zr  Zr19  1  0.71099212  0.51075404  0.49756736  1
  Zr  Zr20  1  0.09788089  0.10310638  0.49991426  1
  Zr  Zr21  1  0.29489317  0.29395374  0.70605175  1
  Zr  Zr22  1  0.89315678  0.29720040  0.70466989  1
  Zr  Zr23  1  0.10617514  0.70002469  0.51184720  1
  Zr  Zr24  1  0.50736565  0.70708461  0.30431473  1
  Zr  Zr25  1  0.89824517  0.09138827  0.90081753  1
  Zr  Zr26  1  0.69755863  0.31184128  0.29964297  1
  Zr  Zr27  1  0.89856452  0.31284783  0.90716226  1
  Zr  Zr28  1  0.09697723  0.50862501  0.70719131  1
  Zr  Zr29  1  0.29616096  0.09690865  0.11775473  1
  Zr  Zr30  1  0.49223654  0.90079137  0.89982382  1
  Zr  Zr31  1  0.89935830  0.50433506  0.69844615  1
  Zr  Zr32  1  0.29782838  0.30012673  0.89974508  1
  Zr  Zr33  1  0.30458771  0.89493302  0.49538004  1
  Zr  Zr34  1  0.30048350  0.70332933  0.90388198  1
  Zr  Zr35  1  0.70606925  0.30387668  0.09338389  1
  Zr  Zr36  1  0.29683068  0.50365813  0.50162060  1
  Zr  Zr37  1  0.30250267  0.30669644  0.50023272  1
  Zr  Zr38  1  0.90524675  0.70531943  0.90675202  1
  Zr  Zr39  1  0.50491362  0.10891429  0.49851442  1
  Zr  Zr40  1  0.89933294  0.10218037  0.09592697  1
  Zr  Zr41  1  0.30853070  0.90956762  0.29531312  1
  Zr  Zr42  1  0.11357403  0.09806985  0.70061289  1
  Zr  Zr43  1  0.09710234  0.29709708  0.30175739  1
  Zr  Zr44  1  0.29350271  0.89884544  0.90528195  1
  Zr  Zr45  1  0.69203915  0.69975749  0.90371979  1
  Zr  Zr46  1  0.29339485  0.68905506  0.09548835  1
  Zr  Zr47  1  0.50199624  0.89851493  0.29841527  1
  Zr  Zr48  1  0.49544806  0.69136760  0.10113256  1
  Zr  Zr49  1  0.89514300  0.09271226  0.69885371  1
  Sc  Sc50  1  0.90320607  0.69509932  0.29296269  1
  Sc  Sc51  1  0.49765597  0.89391567  0.48958930  1
  Sc  Sc52  1  0.69701867  0.09975679  0.09177877  1
  Sc  Sc53  1  0.10462935  0.69657675  0.89957957  1
  Sc  Sc54  1  0.90172147  0.90468960  0.50483082  1
  Sc  Sc55  1  0.50546338  0.30624122  0.69101188  1
  Sc  Sc56  1  0.49930646  0.30126220  0.49726274  1
  Sc  Sc57  1  0.70683013  0.10653173  0.50113647  1
  Sc  Sc58  1  0.48896914  0.49550831  0.09988336  1
  Sc  Sc59  1  0.48677738  0.09507131  0.70375181  1
  Sc  Sc60  1  0.50227765  0.10142571  0.09551841  1
  Sc  Sc61  1  0.89580364  0.90199513  0.30912423  1
  Sc  Sc62  1  0.70110213  0.30390612  0.90387259  1
  Sc  Sc63  1  0.28890978  0.49592632  0.91260725  1
  Sc  Sc64  1  0.89791921  0.50375165  0.29652314  1
  Sc  Sc65  1  0.09719783  0.70587035  0.10092581  1
  Sc  Sc66  1  0.90704244  0.10478062  0.30796456  1
  Sc  Sc67  1  0.10188993  0.50702510  0.09698995  1
  Sc  Sc68  1  0.09501357  0.90187231  0.51320098  1
  Sc  Sc69  1  0.69718074  0.69407734  0.30381381  1
  Sc  Sc70  1  0.91248736  0.30419580  0.49152072  1
  Sc  Sc71  1  0.68984873  0.50250633  0.70317872  1
  Sc  Sc72  1  0.50273899  0.90752312  0.09756355  1
  Sc  Sc73  1  0.71023777  0.90112995  0.49305258  1
  Sc  Sc74  1  0.30033274  0.49932494  0.69774389  1
  Sc  Sc75  1  0.10071752  0.49745449  0.49801262  1
  Sc  Sc76  1  0.69536692  0.89122147  0.30199598  1
  Sc  Sc77  1  0.09934203  0.69127759  0.28783166  1
  Sc  Sc78  1  0.09902693  0.10291809  0.28374106  1
  Sc  Sc79  1  0.30231667  0.09342019  0.50474825  1
  Sc  Sc80  1  0.68985630  0.29613220  0.49507169  1
  Sc  Sc81  1  0.49276021  0.49300044  0.51333736  1
  Sc  Sc82  1  0.69767320  0.49661311  0.90516438  1
  Sc  Sc83  1  0.09967152  0.70534591  0.70094259  1
  Sc  Sc84  1  0.09895175  0.50241029  0.29962974  1
  Sc  Sc85  1  0.49758592  0.29915155  0.30205052  1
  Sc  Sc86  1  0.30287946  0.50072408  0.29754176  1
  Sc  Sc87  1  0.69983658  0.69686668  0.09707996  1
  Sc  Sc88  1  0.70614759  0.09721765  0.90826834  1
  Sc  Sc89  1  0.49776307  0.29993922  0.09557095  1
  Sc  Sc90  1  0.29804267  0.69648096  0.29470416  1
  Sc  Sc91  1  0.89830988  0.69242592  0.50535657  1
  Sc  Sc92  1  0.90758549  0.30594958  0.29884500  1
  Sc  Sc93  1  0.10275857  0.30585227  0.50030493  1
  Sc  Sc94  1  0.70214379  0.49897462  0.10660859  1
  Sc  Sc95  1  0.90769954  0.50353869  0.49870856  1
  Sc  Sc96  1  0.30761198  0.10161951  0.88366974  1
  Sc  Sc97  1  0.11019394  0.30223941  0.70369372  1
  Sc  Sc98  1  0.68715882  0.69795111  0.69858118  1
  Sc  Sc99  1  0.90214019  0.69015710  0.10008119  1
  Nb  Nb100  1  0.69746917  0.70091409  0.50185230  1
  Nb  Nb101  1  0.09058386  0.89856454  0.70402326  1
  Nb  Nb102  1  0.09203103  0.89931530  0.89695144  1
  Nb  Nb103  1  0.49149277  0.29657980  0.90191032  1
  Nb  Nb104  1  0.90318003  0.89768910  0.70213017  1
  Nb  Nb105  1  0.30108794  0.89485305  0.09960338  1
  Nb  Nb106  1  0.30174681  0.49921224  0.10520576  1
  Nb  Nb107  1  0.90970023  0.90137566  0.89428148  1
  Nb  Nb108  1  0.10183716  0.30249411  0.90056294  1
  Nb  Nb109  1  0.09933766  0.10435259  0.09786575  1
  Nb  Nb110  1  0.49923369  0.69396659  0.89649179  1
  Nb  Nb111  1  0.49871289  0.10166229  0.89454294  1
  Nb  Nb112  1  0.29779904  0.10405517  0.69921682  1
  Nb  Nb113  1  0.90795844  0.50355485  0.89810988  1
  Nb  Nb114  1  0.49736116  0.49875304  0.70931330  1
  Nb  Nb115  1  0.90082022  0.49578530  0.09314928  1
  Nb  Nb116  1  0.50035194  0.70327391  0.49854623  1
  Nb  Nb117  1  0.30508066  0.29017542  0.29673809  1
  Nb  Nb118  1  0.09186961  0.48919332  0.89892022  1
  Nb  Nb119  1  0.29845554  0.70032165  0.50086553  1
  Nb  Nb120  1  0.30107098  0.10202146  0.30150312  1
  Nb  Nb121  1  0.70114955  0.49986437  0.30151434  1
  Nb  Nb122  1  0.89995990  0.30343108  0.09971349  1
  Nb  Nb123  1  0.50192349  0.50254535  0.88984795  1
  Nb  Nb124  1  0.69994430  0.89812265  0.70136956  1
  Nb  Nb125  1  0.79977098  0.40122551  0.59926590  1
  Nb  Nb126  1  0.00059930  0.19797012  0.60777686  1
  Nb  Nb127  1  0.00359035  0.20332291  -0.00340634  1
  Nb  Nb128  1  0.80263178  0.80111033  0.79847825  1
  Nb  Nb129  1  0.19564965  0.19901967  0.00284226  1
  Nb  Nb130  1  0.79743774  0.79914000  0.60814436  1
  Nb  Nb131  1  0.20588886  0.39599815  0.19833549  1
  Nb  Nb132  1  0.20623502  0.19607342  0.39481003  1
  Nb  Nb133  1  0.19710377  0.80223430  0.39897202  1
  Nb  Nb134  1  0.40304027  0.60614121  0.40664093  1
  Nb  Nb135  1  0.59905040  0.00419924  0.40105006  1
  Nb  Nb136  1  0.00748894  0.79631616  0.40159047  1
  Nb  Nb137  1  0.80084959  0.20332060  0.19699524  1
  Nb  Nb138  1  0.60278257  -0.00375554  0.60130479  1
  Nb  Nb139  1  0.00131851  0.19937255  0.80367720  1
  Nb  Nb140  1  0.79875588  0.00033347  0.19910826  1
  Nb  Nb141  1  0.19923803  -0.00048062  0.39284225  1
  Nb  Nb142  1  0.80410732  0.60536276  0.80473265  1
  Nb  Nb143  1  0.39284731  0.20100088  0.60389379  1
  Nb  Nb144  1  0.39840778  0.80064561  0.19461990  1
  Nb  Nb145  1  0.59489932  0.19610109  0.80398763  1
  Nb  Nb146  1  0.40068072  0.79002844  0.59771028  1
  Nb  Nb147  1  0.79921709  0.80317310  0.19671216  1
  Nb  Nb148  1  0.60066823  0.00090982  0.79777196  1
  Nb  Nb149  1  0.40506628  0.40145694  0.80304986  1
  Pd  Pd150  1  0.59642357  0.41059506  0.40645749  1
  Pd  Pd151  1  0.59415492  0.58903220  0.00404977  1
  Pd  Pd152  1  0.20222244  0.60579794  0.39636711  1
  Pd  Pd153  1  0.20758372  0.79973773  0.20011459  1
  Pd  Pd154  1  0.79420428  0.41137993  0.79663351  1
  Pd  Pd155  1  0.59481440  0.59484737  0.59520283  1
  Pd  Pd156  1  0.00186884  0.39358930  0.79226062  1
  Pd  Pd157  1  0.40261809  0.40844006  0.39301492  1
  Pd  Pd158  1  0.80272807  0.80291324  0.00118143  1
  Pd  Pd159  1  -0.00277543  0.39543191  0.60625385  1
  Pd  Pd160  1  0.60485982  0.00609335  0.20663745  1
  Pd  Pd161  1  0.19410391  0.80411330  0.80060574  1
  Pd  Pd162  1  -0.00793060  0.00184952  0.19892592  1
  Pd  Pd163  1  0.60138392  0.80536189  0.59039126  1
  Pd  Pd164  1  0.39043712  0.18893520  0.00390523  1
  Pd  Pd165  1  0.19777176  0.40509438  0.60669882  1
  Pd  Pd166  1  0.80640551  0.21074729  0.39692313  1
  Pd  Pd167  1  0.00305793  0.60605635  0.40118058  1
  Pd  Pd168  1  0.80483185  0.39944500  0.40647339  1
  Pd  Pd169  1  0.80467888  0.40101253  0.20004363  1
  Pd  Pd170  1  0.59269331  0.40478020  0.00160585  1
  Pd  Pd171  1  0.80576921  0.60628325  0.39379547  1
  Pd  Pd172  1  0.79375393  -0.00796705  0.80273814  1
  Pd  Pd173  1  0.19934743  -0.00523710  0.59542637  1
  Pd  Pd174  1  0.39335288  0.00889620  0.00265948  1
  Pd  Pd175  1  0.20287093  0.59428678  0.80777039  1
  Pd  Pd176  1  0.00405712  0.41064949  0.19966450  1
  Pd  Pd177  1  0.40472232  0.79714078  0.00671535  1
  Pd  Pd178  1  0.40006505  0.59102679  -0.00873579  1
  Pd  Pd179  1  0.59224410  0.59116976  0.40942117  1
  Pd  Pd180  1  0.59724718  0.38959501  0.80518275  1
  Pd  Pd181  1  0.60285794  0.20657365  0.19859103  1
  Pd  Pd182  1  0.60077039  0.20073028  -0.00708630  1
  Pd  Pd183  1  0.79702756  0.20072454  0.81258725  1
  Pd  Pd184  1  0.00946476  -0.00704902  0.39529312  1
  Pd  Pd185  1  0.60854118  0.40810122  0.59273670  1
  Pd  Pd186  1  0.19260976  0.39703861  0.01032580  1
  Pd  Pd187  1  0.38486109  0.59125827  0.80751403  1
  Pd  Pd188  1  0.21356192  0.01073166  -0.00193328  1
  Pd  Pd189  1  0.20292430  0.39563352  0.38879500  1
  Pd  Pd190  1  0.59485375  0.39761415  0.19406644  1
  Pd  Pd191  1  0.00761877  0.60036512  -0.00023479  1
  Pd  Pd192  1  0.40836310  -0.00285088  0.59620296  1
  Pd  Pd193  1  0.58760923  0.79693420  0.00206792  1
  Pd  Pd194  1  0.60640111  0.60055343  0.19651720  1
  Pd  Pd195  1  0.80054098  0.59253529  -0.00309270  1
  Pd  Pd196  1  0.81046296  0.21272359  0.58337088  1
  Pd  Pd197  1  0.40315092  0.60364861  0.59811506  1
  Pd  Pd198  1  0.39377576  0.79712669  0.79502935  1
  Pd  Pd199  1  0.80856341  0.78928209  0.40147450  1
  Rh  Rh200  1  -0.01243207  0.19809444  0.19541067  1
  Rh  Rh201  1  0.00114483  0.00540534  0.60935592  1
  Rh  Rh202  1  0.19433996  0.79892858  -0.00099941  1
  Rh  Rh203  1  0.20119358  -0.00725921  0.80050582  1
  Rh  Rh204  1  0.19782795  -0.00341683  0.20278255  1
  Rh  Rh205  1  0.19408193  0.59771467  -0.00109076  1
  Rh  Rh206  1  -0.00821379  0.80163491  0.59534015  1
  Rh  Rh207  1  -0.00298045  0.59403803  0.19233225  1
  Rh  Rh208  1  0.59981034  0.79134334  0.19189866  1
  Rh  Rh209  1  0.40988585  0.21125035  0.78932453  1
  Rh  Rh210  1  0.40552385  0.20234761  0.19344969  1
  Rh  Rh211  1  0.00874838  0.59672965  0.59744899  1
  Rh  Rh212  1  0.80619044  -0.01113827  0.00607320  1
  Rh  Rh213  1  0.58858588  0.18926884  0.61306498  1
  Rh  Rh214  1  0.39865753  -0.00578620  0.79938374  1
  Rh  Rh215  1  0.60896678  0.80453330  0.40806770  1
  Rh  Rh216  1  0.00151450  0.40117407  0.00464489  1
  Rh  Rh217  1  0.39286610  0.19979177  0.41094295  1
  Rh  Rh218  1  0.20088972  0.58967222  0.19664175  1
  Rh  Rh219  1  0.79501283  -0.01113378  0.60000861  1
  Rh  Rh220  1  0.00327824  0.00428138  0.79205380  1
  Rh  Rh221  1  0.20503347  0.80882072  0.59944692  1
  Rh  Rh222  1  -0.01063600  0.79724294  0.20524176  1
  Rh  Rh223  1  0.00186965  0.40863010  0.39445479  1
  Rh  Rh224  1  0.79708985  0.60105451  0.20033272  1
  Rh  Rh225  1  0.80628420  0.20533151  0.00205755  1
  Rh  Rh226  1  0.40517993  -0.00423034  0.19186561  1
  Rh  Rh227  1  0.79243408  0.00486370  0.39303273  1
  Rh  Rh228  1  0.80131936  0.40998056  0.00046300  1
  Rh  Rh229  1  0.00964085  0.80037571  -0.00257982  1
  Rh  Rh230  1  -0.00280345  0.00114804  0.00289061  1
  Rh  Rh231  1  0.59320532  0.00504619  -0.01128004  1
  Rh  Rh232  1  0.39552821  0.39352970  0.61195304  1
  Rh  Rh233  1  0.00943865  0.20132484  0.40508931  1
  Rh  Rh234  1  0.79315820  0.60257995  0.61027270  1
  Rh  Rh235  1  0.19529517  0.59242896  0.60185159  1
  Rh  Rh236  1  0.20264267  0.20241711  0.58746708  1
  Rh  Rh237  1  0.60690072  0.59906963  0.80462744  1
  Rh  Rh238  1  0.19114423  0.19551990  0.81285767  1
  Rh  Rh239  1  0.40616828  0.40823442  -0.01024793  1
  Rh  Rh240  1  0.59688029  0.19884848  0.39220459  1
  Rh  Rh241  1  0.39977170  0.60565049  0.20861546  1
  Rh  Rh242  1  0.60169204  0.80238290  0.80970782  1
  Rh  Rh243  1  0.39758163  0.39719406  0.20600985  1
  Rh  Rh244  1  0.20282032  0.20787394  0.19984061  1
  Rh  Rh245  1  0.00146868  0.79665099  0.80282359  1
  Rh  Rh246  1  0.00013186  0.60423307  0.80822716  1
  Rh  Rh247  1  0.20353355  0.40737432  0.80038537  1
  Rh  Rh248  1  0.39022133  0.78754333  0.39497934  1
  Rh  Rh249  1  0.40324668  0.00837450  0.40441656  1
