# generated using pymatgen
data_ZrScNbPdRh
_symmetry_space_group_name_H-M   'P 1'
_cell_length_a   16.55629927
_cell_length_b   16.55784809
_cell_length_c   16.56341410
_cell_angle_alpha   90.05030749
_cell_angle_beta   90.01734505
_cell_angle_gamma   89.99650353
_symmetry_Int_Tables_number   1
_chemical_formula_structural   ZrScNbPdRh
_chemical_formula_sum   'Zr50 Sc50 Nb50 Pd50 Rh50'
_cell_volume   4540.63752130
_cell_formula_units_Z   50
loop_
 _symmetry_equiv_pos_site_id
 _symmetry_equiv_pos_as_xyz
  1  'x, y, z'
loop_
 _atom_site_type_symbol
 _atom_site_label
 _atom_site_symmetry_multiplicity
 _atom_site_fract_x
 _atom_site_fract_y
 _atom_site_fract_z
 _atom_site_occupancy
  Zr  Zr0  1  0.50751195  0.69965349  0.90042287  1
  Zr  Zr1  1  0.90902796  0.50117136  0.89865609  1
  Zr  Zr2  1  0.89714493  0.89954243  0.70112852  1
  Zr  Zr3  1  0.89909182  0.70427290  0.69994839  1
  Zr  Zr4  1  0.09417547  0.29955363  0.89835622  1
  Zr  Zr5  1  0.09812139  0.90445341  0.50257428  1
  Zr  Zr6  1  0.49797889  0.89768168  0.90870573  1
  Zr  Zr7  1  0.31107677  0.89720492  0.10028660  1
  Zr  Zr8  1  0.69552415  0.10459283  0.50530315  1
  Zr  Zr9  1  0.70817461  0.50799093  0.49944136  1
  Zr  Zr10  1  0.10265604  0.70898274  0.51034915  1
  Zr  Zr11  1  0.30335693  0.49721575  0.69846837  1
  Zr  Zr12  1  0.31435136  0.29839329  0.89569211  1
  Zr  Zr13  1  0.09896860  0.29888862  0.69362408  1
  Zr  Zr14  1  0.30611865  0.30434027  0.69239916  1
  Zr  Zr15  1  0.89731209  0.30615207  0.89727908  1
  Zr  Zr16  1  0.50111386  0.70224125  0.09506596  1
  Zr  Zr17  1  0.31012980  0.69966349  0.89485604  1
  Zr  Zr18  1  0.69918750  0.49957631  0.09980026  1
  Zr  Zr19  1  0.89403841  0.90907366  0.30203691  1
  Zr  Zr20  1  0.50462862  0.49755242  0.49789645  1
  Zr  Zr21  1  0.30387289  0.89898703  0.70176822  1
  Zr  Zr22  1  0.30650672  0.29646625  0.31214731  1
  Zr  Zr23  1  0.10056077  0.89476061  0.68796654  1
  Zr  Zr24  1  0.30440936  0.89368514  0.30019801  1
  Zr  Zr25  1  0.69660356  0.49940416  0.89788381  1
  Zr  Zr26  1  0.51271857  0.69892391  0.50028172  1
  Zr  Zr27  1  0.30021935  0.10505286  0.29613698  1
  Zr  Zr28  1  0.09175485  0.29725204  0.10084148  1
  Zr  Zr29  1  0.70367685  0.30232860  0.70127072  1
  Zr  Zr30  1  0.88680614  0.09933378  0.69906096  1
  Zr  Zr31  1  0.49609029  0.70104667  0.30169156  1
  Zr  Zr32  1  0.89726887  0.49542019  0.10155213  1
  Zr  Zr33  1  0.30357323  0.49170239  0.50525368  1
  Zr  Zr34  1  0.30046546  0.49650140  0.89649035  1
  Zr  Zr35  1  0.09965036  0.10737443  0.09731137  1
  Zr  Zr36  1  0.70433263  0.70360059  0.90511015  1
  Zr  Zr37  1  0.09834945  0.49598892  0.09955426  1
  Zr  Zr38  1  0.10759204  0.10335103  0.50090696  1
  Zr  Zr39  1  0.90724836  0.31493065  0.50302193  1
  Zr  Zr40  1  0.29789704  0.49570540  0.09391318  1
  Zr  Zr41  1  0.49378228  0.70092872  0.70415094  1
  Zr  Zr42  1  0.09593127  0.90242610  0.29874170  1
  Zr  Zr43  1  0.50396245  0.90222976  0.10089890  1
  Zr  Zr44  1  0.29805040  0.68924300  0.68928139  1
  Zr  Zr45  1  0.29467793  0.89639880  0.50413539  1
  Zr  Zr46  1  0.09444251  0.50163341  0.29718090  1
  Zr  Zr47  1  0.10592244  0.10004705  0.90629045  1
  Zr  Zr48  1  0.70175403  0.30761206  0.10365293  1
  Zr  Zr49  1  0.10471417  0.90384034  0.89889834  1
  Sc  Sc50  1  0.69509747  0.49191946  0.69850731  1
  Sc  Sc51  1  0.70466861  0.91128585  0.69778145  1
  Sc  Sc52  1  0.10370811  0.30498051  0.29934532  1
  Sc  Sc53  1  0.30213278  0.90298549  0.90460412  1
  Sc  Sc54  1  0.69806697  0.08843366  0.90642999  1
  Sc  Sc55  1  0.70245052  0.69845021  0.09411800  1
  Sc  Sc56  1  0.50093517  0.10028187  0.90721252  1
  Sc  Sc57  1  0.89620326  0.30114461  0.09791390  1
  Sc  Sc58  1  0.49824207  0.89999496  0.29739130  1
  Sc  Sc59  1  0.50323751  0.29088165  0.10304654  1
  Sc  Sc60  1  0.30566746  0.68872839  0.10097392  1
  Sc  Sc61  1  0.89261983  0.29789632  0.30057533  1
  Sc  Sc62  1  0.69598373  0.09782316  0.10259009  1
  Sc  Sc63  1  0.70039536  0.49167048  0.30384169  1
  Sc  Sc64  1  0.89314234  0.49032271  0.69540658  1
  Sc  Sc65  1  0.89673434  0.10116583  0.90566394  1
  Sc  Sc66  1  0.09537414  0.90857566  0.10170053  1
  Sc  Sc67  1  0.49865251  0.09988983  0.68560803  1
  Sc  Sc68  1  0.89121494  0.10108152  0.49763232  1
  Sc  Sc69  1  0.50562409  0.11268725  0.29434875  1
  Sc  Sc70  1  0.49870439  0.49955760  0.89133051  1
  Sc  Sc71  1  0.30299012  0.29481418  0.09567519  1
  Sc  Sc72  1  0.49958612  0.90456506  0.69895226  1
  Sc  Sc73  1  0.89936604  0.10314645  0.10346797  1
  Sc  Sc74  1  0.90044585  0.50425338  0.31441175  1
  Sc  Sc75  1  0.89845613  0.91203653  0.50806669  1
  Sc  Sc76  1  0.29442080  0.49471141  0.29875558  1
  Sc  Sc77  1  0.09220854  0.48981875  0.48964586  1
  Sc  Sc78  1  0.69587000  0.69376231  0.31367932  1
  Sc  Sc79  1  0.50315589  0.09664748  0.10156921  1
  Sc  Sc80  1  0.30104553  0.10177763  0.09655800  1
  Sc  Sc81  1  0.70345676  0.90312249  0.09886273  1
  Sc  Sc82  1  0.89344203  0.69047940  0.49875089  1
  Sc  Sc83  1  0.89404639  0.69838010  0.10263290  1
  Sc  Sc84  1  0.09804472  0.68499489  0.10475971  1
  Sc  Sc85  1  0.10298932  0.09768828  0.69667311  1
  Sc  Sc86  1  0.70042712  0.29896638  0.49728907  1
  Sc  Sc87  1  0.09597282  0.10510912  0.28928167  1
  Sc  Sc88  1  0.70330952  0.30174889  0.89748832  1
  Sc  Sc89  1  0.49579075  0.30268299  0.69863049  1
  Sc  Sc90  1  0.49451846  0.49761866  0.09543384  1
  Sc  Sc91  1  0.89827220  0.29771803  0.70315790  1
  Sc  Sc92  1  0.50433512  0.89971442  0.50871761  1
  Sc  Sc93  1  0.90094644  0.69355204  0.29812844  1
  Sc  Sc94  1  0.09132439  0.69544226  0.29969795  1
  Sc  Sc95  1  0.69770786  0.29425174  0.30414803  1
  Sc  Sc96  1  0.30836012  0.10385546  0.68816281  1
  Sc  Sc97  1  0.50011568  0.49727265  0.69512136  1
  Sc  Sc98  1  0.89521015  0.89643202  0.10427636  1
  Sc  Sc99  1  0.88437497  0.89851692  0.90369362  1
  Nb  Nb100  1  0.90239631  0.50175726  0.49870716  1
  Nb  Nb101  1  0.30626971  0.10737840  0.49407309  1
  Nb  Nb102  1  0.69500858  0.89917484  0.49448408  1
  Nb  Nb103  1  0.69775257  0.90640563  0.30055309  1
  Nb  Nb104  1  0.90102711  0.70245747  0.89680968  1
  Nb  Nb105  1  0.30351682  0.70490959  0.30558533  1
  Nb  Nb106  1  0.69638357  0.89714077  0.90320588  1
  Nb  Nb107  1  0.69288355  0.10580966  0.69855372  1
  Nb  Nb108  1  0.50345308  0.30830267  0.30126051  1
  Nb  Nb109  1  0.49801272  0.10017756  0.49931052  1
  Nb  Nb110  1  0.30165559  0.69675335  0.49634498  1
  Nb  Nb111  1  0.70758887  0.09717919  0.31075497  1
  Nb  Nb112  1  0.09809799  0.68383001  0.89425018  1
  Nb  Nb113  1  0.70449503  0.70635916  0.69911501  1
  Nb  Nb114  1  0.89277056  0.10499163  0.30880735  1
  Nb  Nb115  1  0.48969104  0.29786955  0.48392848  1
  Nb  Nb116  1  0.29453628  0.29525491  0.49541163  1
  Nb  Nb117  1  0.10104928  0.50409433  0.89962271  1
  Nb  Nb118  1  0.50260726  0.49581079  0.30303506  1
  Nb  Nb119  1  0.10568287  0.29804649  0.49478389  1
  Nb  Nb120  1  0.49998638  0.29996058  0.89651726  1
  Nb  Nb121  1  0.09932488  0.69627957  0.70242110  1
  Nb  Nb122  1  0.29993624  0.10317768  0.89533380  1
  Nb  Nb123  1  0.69647162  0.70620239  0.50138289  1
  Nb  Nb124  1  0.10585514  0.51226390  0.71774588  1
  Nb  Nb125  1  0.00491456  0.79714299  0.80430794  1
  Nb  Nb126  1  0.19475097  0.79174796  0.80126471  1
  Nb  Nb127  1  0.20584009  0.00355115  0.39831928  1
  Nb  Nb128  1  0.19447328  0.39924734  -0.00652152  1
  Nb  Nb129  1  0.60269448  0.79683952  0.20377477  1
  Nb  Nb130  1  0.79987734  0.60596626  0.79927366  1
  Nb  Nb131  1  -0.00141909  -0.00521900  0.80023071  1
  Nb  Nb132  1  0.60025730  0.19615979  0.79601410  1
  Nb  Nb133  1  0.20258563  0.79630453  0.19853932  1
  Nb  Nb134  1  0.60020417  0.00471069  0.40033566  1
  Nb  Nb135  1  0.59662635  0.39570479  -0.00318229  1
  Nb  Nb136  1  0.20534042  0.60595896  0.40296749  1
  Nb  Nb137  1  0.39828926  0.00637776  0.80280833  1
  Nb  Nb138  1  0.59484786  0.59865103  0.20300715  1
  Nb  Nb139  1  0.40578618  0.39592011  0.20636539  1
  Nb  Nb140  1  0.20674203  0.20076664  0.80070796  1
  Nb  Nb141  1  0.00484113  0.79242810  -0.00865479  1
  Nb  Nb142  1  0.00293938  0.59519360  0.60473159  1
  Nb  Nb143  1  0.40131172  0.00566048  0.40483167  1
  Nb  Nb144  1  0.39765457  0.60113242  0.40080484  1
  Nb  Nb145  1  0.19358760  0.79092015  -0.00127085  1
  Nb  Nb146  1  -0.00719765  0.80538374  0.40238100  1
  Nb  Nb147  1  0.00088273  0.20286646  0.40335798  1
  Nb  Nb148  1  0.79596130  0.80515186  0.40253632  1
  Nb  Nb149  1  0.60698929  0.80288017  0.80191191  1
  Pd  Pd150  1  0.59720086  0.39180017  0.59175356  1
  Pd  Pd151  1  0.41006779  0.80370950  0.41156547  1
  Pd  Pd152  1  0.59124903  0.21138244  0.60059757  1
  Pd  Pd153  1  0.00978939  0.40952028  0.60817787  1
  Pd  Pd154  1  0.00086018  0.40277853  0.79066717  1
  Pd  Pd155  1  0.60729362  0.60616573  0.78960072  1
  Pd  Pd156  1  0.60414687  0.80652612  0.61309658  1
  Pd  Pd157  1  0.20881526  0.39008454  0.19412419  1
  Pd  Pd158  1  0.20516852  0.60602313  0.20958165  1
  Pd  Pd159  1  0.79487459  0.19633203  0.19937236  1
  Pd  Pd160  1  0.79479216  0.19909039  -0.00004996  1
  Pd  Pd161  1  0.00435823  0.18821733  0.79887646  1
  Pd  Pd162  1  -0.00842745  0.00808079  0.19908041  1
  Pd  Pd163  1  0.59149005  0.00236540  0.79973124  1
  Pd  Pd164  1  0.60518249  0.20508795  -0.00646313  1
  Pd  Pd165  1  0.19903522  0.39160913  0.80218894  1
  Pd  Pd166  1  0.40538610  0.59647838  -0.00679965  1
  Pd  Pd167  1  0.40133356  0.79703446  0.59522104  1
  Pd  Pd168  1  0.60327941  0.59951539  0.60815398  1
  Pd  Pd169  1  0.20196854  -0.00485188  0.19838323  1
  Pd  Pd170  1  0.20526010  0.19964957  0.60452954  1
  Pd  Pd171  1  0.80072426  0.80462832  0.58955389  1
  Pd  Pd172  1  -0.01117136  0.39755573  0.20771044  1
  Pd  Pd173  1  0.79875271  0.00385582  0.80476846  1
  Pd  Pd174  1  -0.01044842  -0.00839609  -0.00425004  1
  Pd  Pd175  1  0.00400575  0.79649378  0.19643433  1
  Pd  Pd176  1  0.60901180  0.39798313  0.40529996  1
  Pd  Pd177  1  0.40170215  0.59113479  0.20873369  1
  Pd  Pd178  1  0.00449140  0.00779326  0.39977763  1
  Pd  Pd179  1  0.79945245  0.00810708  0.19634319  1
  Pd  Pd180  1  -0.00571777  0.60361461  0.00711997  1
  Pd  Pd181  1  0.20437970  0.00370471  0.79111689  1
  Pd  Pd182  1  0.18859580  0.40686362  0.59914530  1
  Pd  Pd183  1  0.18907603  0.58708364  0.59024248  1
  Pd  Pd184  1  0.40666281  0.00690273  0.20648604  1
  Pd  Pd185  1  -0.00612996  0.19513403  0.59365217  1
  Pd  Pd186  1  0.80060792  0.59796715  0.60735464  1
  Pd  Pd187  1  0.79116970  0.19272903  0.80884230  1
  Pd  Pd188  1  0.18948459  0.79850787  0.39262932  1
  Pd  Pd189  1  -0.01011664  0.20081794  -0.00025994  1
  Pd  Pd190  1  -0.00433312  0.01208576  0.60509891  1
  Pd  Pd191  1  0.80592054  0.59747553  -0.00579252  1
  Pd  Pd192  1  0.80423221  0.20850242  0.59467939  1
  Pd  Pd193  1  0.79128352  0.59921758  0.20922286  1
  Pd  Pd194  1  0.78969635  0.79368885  0.21028337  1
  Pd  Pd195  1  0.60876243  0.19924145  0.20321014  1
  Pd  Pd196  1  0.80353381  0.40273709  0.21020367  1
  Pd  Pd197  1  0.40449529  0.19562237  0.00380162  1
  Pd  Pd198  1  0.20720483  -0.00380088  0.00942810  1
  Pd  Pd199  1  0.20264149  0.20805936  0.19938090  1
  Rh  Rh200  1  0.39671822  0.00774217  -0.00490118  1
  Rh  Rh201  1  -0.01213538  0.59868202  0.79082002  1
  Rh  Rh202  1  0.40837864  0.19370978  0.39622121  1
  Rh  Rh203  1  0.59704479  0.38997943  0.80387394  1
  Rh  Rh204  1  0.39444635  0.79428472  0.00268923  1
  Rh  Rh205  1  0.60155777  -0.00299336  0.20708018  1
  Rh  Rh206  1  0.59692836  0.19664858  0.39938559  1
  Rh  Rh207  1  0.79133739  0.00268826  0.59710475  1
  Rh  Rh208  1  0.39600614  -0.00118419  0.59760373  1
  Rh  Rh209  1  0.60662991  0.80543353  0.00423406  1
  Rh  Rh210  1  0.40467590  0.39413699  0.00534646  1
  Rh  Rh211  1  0.20355356  0.20859501  -0.00905603  1
  Rh  Rh212  1  0.79485304  0.40094540  -0.00485974  1
  Rh  Rh213  1  0.19082096  0.19581910  0.39480413  1
  Rh  Rh214  1  0.20829112  0.79752614  0.60838998  1
  Rh  Rh215  1  0.60362185  0.81026805  0.39252588  1
  Rh  Rh216  1  0.39999938  0.59292592  0.79573109  1
  Rh  Rh217  1  0.79727887  0.60386368  0.40143343  1
  Rh  Rh218  1  0.60448068  -0.00056424  0.59457861  1
  Rh  Rh219  1  -0.01105932  0.79175667  0.59584496  1
  Rh  Rh220  1  0.79485334  0.79871419  0.80143442  1
  Rh  Rh221  1  0.40569191  0.19065031  0.79820173  1
  Rh  Rh222  1  -0.00819334  0.20091630  0.20826163  1
  Rh  Rh223  1  0.20128114  0.40405813  0.40122030  1
  Rh  Rh224  1  0.59884584  0.59438213  0.39707707  1
  Rh  Rh225  1  0.79988373  0.40038057  0.40332270  1
  Rh  Rh226  1  0.60174068  -0.00204185  0.00496104  1
  Rh  Rh227  1  0.39628126  0.40673844  0.39772482  1
  Rh  Rh228  1  0.40986691  0.60143242  0.59194482  1
  Rh  Rh229  1  0.79156764  -0.00293359  0.40738753  1
  Rh  Rh230  1  0.40677840  0.39187757  0.59132077  1
  Rh  Rh231  1  0.21214651  0.60398747  0.80363708  1
  Rh  Rh232  1  0.59205730  0.40641274  0.19043565  1
  Rh  Rh233  1  0.40677981  0.40453084  0.79462199  1
  Rh  Rh234  1  -0.00897279  0.59266023  0.19668476  1
  Rh  Rh235  1  0.59618886  0.58822448  0.00730394  1
  Rh  Rh236  1  -0.00069378  0.39166699  0.39263502  1
  Rh  Rh237  1  0.40162264  0.20653679  0.20001793  1
  Rh  Rh238  1  0.00380585  0.40050861  -0.00015527  1
  Rh  Rh239  1  0.79917322  -0.00134658  0.00538082  1
  Rh  Rh240  1  0.40348081  0.20917982  0.58969583  1
  Rh  Rh241  1  0.40065755  0.79405106  0.19266143  1
  Rh  Rh242  1  0.20900830  0.00657602  0.59333722  1
  Rh  Rh243  1  0.00865574  0.61088849  0.41330992  1
  Rh  Rh244  1  0.20151492  0.59512160  -0.00523395  1
  Rh  Rh245  1  0.80186219  0.40837059  0.80211458  1
  Rh  Rh246  1  0.79682609  0.39852851  0.59562132  1
  Rh  Rh247  1  0.40402149  0.81037580  0.80245797  1
  Rh  Rh248  1  0.80622735  0.20582811  0.40650928  1
  Rh  Rh249  1  0.80571392  0.80130553  0.00521663  1
