# generated using pymatgen
data_ZrScNbPdRh
_symmetry_space_group_name_H-M   'P 1'
_cell_length_a   16.56619281
_cell_length_b   16.55583472
_cell_length_c   16.56183685
_cell_angle_alpha   90.00066496
_cell_angle_beta   89.97519605
_cell_angle_gamma   89.98955476
_symmetry_Int_Tables_number   1
_chemical_formula_structural   ZrScNbPdRh
_chemical_formula_sum   'Zr50 Sc50 Nb50 Pd50 Rh50'
_cell_volume   4542.36729351
_cell_formula_units_Z   50
loop_
 _symmetry_equiv_pos_site_id
 _symmetry_equiv_pos_as_xyz
  1  'x, y, z'
loop_
 _atom_site_type_symbol
 _atom_site_label
 _atom_site_symmetry_multiplicity
 _atom_site_fract_x
 _atom_site_fract_y
 _atom_site_fract_z
 _atom_site_occupancy
  Zr  Zr0  1  0.29273185  0.49433648  0.89636515  1
  Zr  Zr1  1  0.71039099  0.69586626  0.30070516  1
  Zr  Zr2  1  0.50082483  0.69204258  0.09329009  1
  Zr  Zr3  1  0.89786897  0.49211838  0.09794055  1
  Zr  Zr4  1  0.11259525  0.30570044  0.28921325  1
  Zr  Zr5  1  0.90004770  0.48401058  0.50149788  1
  Zr  Zr6  1  0.11126445  0.30313188  0.91383260  1
  Zr  Zr7  1  0.10560450  0.69288973  0.08886259  1
  Zr  Zr8  1  0.89280170  0.10147410  0.90144365  1
  Zr  Zr9  1  0.08943391  0.70207394  0.49826518  1
  Zr  Zr10  1  0.31080140  0.10110351  0.09792639  1
  Zr  Zr11  1  0.70522855  0.50151204  0.09766166  1
  Zr  Zr12  1  0.30337601  0.30317885  0.90262918  1
  Zr  Zr13  1  0.30120872  0.90168731  0.69356129  1
  Zr  Zr14  1  0.49105526  0.90692543  0.49888969  1
  Zr  Zr15  1  0.88981171  0.30086209  0.90264685  1
  Zr  Zr16  1  0.69832174  0.29883271  0.70638338  1
  Zr  Zr17  1  0.88232957  0.71160204  0.10088077  1
  Zr  Zr18  1  0.89459850  0.70625868  0.49379633  1
  Zr  Zr19  1  0.90395742  0.89072173  0.29611604  1
  Zr  Zr20  1  0.90289937  0.30712578  0.69541939  1
  Zr  Zr21  1  0.09787683  0.09635516  0.29932247  1
  Zr  Zr22  1  0.50353465  0.49641713  0.10038515  1
  Zr  Zr23  1  0.89600399  0.49253436  0.71161148  1
  Zr  Zr24  1  0.89894396  0.69354717  0.30314464  1
  Zr  Zr25  1  0.29475757  0.10576272  0.69593702  1
  Zr  Zr26  1  0.90270466  0.89121686  0.49818395  1
  Zr  Zr27  1  0.30001624  0.69130940  0.30157815  1
  Zr  Zr28  1  0.69383474  0.30353794  0.29571698  1
  Zr  Zr29  1  0.70184735  0.49963099  0.30321274  1
  Zr  Zr30  1  0.29865073  0.90503047  0.10768272  1
  Zr  Zr31  1  0.09287512  0.49772231  0.29735933  1
  Zr  Zr32  1  0.50612992  0.50079880  0.69120974  1
  Zr  Zr33  1  0.50085611  0.90822799  0.30212517  1
  Zr  Zr34  1  0.09901957  0.88361369  0.90065025  1
  Zr  Zr35  1  0.30230855  0.89715893  0.29972243  1
  Zr  Zr36  1  0.10047546  0.10263325  0.90459672  1
  Zr  Zr37  1  0.30306872  0.30757492  0.69995134  1
  Zr  Zr38  1  0.50885942  0.10309492  0.68223462  1
  Zr  Zr39  1  0.50531469  0.70773024  0.88593517  1
  Zr  Zr40  1  0.30587065  0.70560888  0.69863682  1
  Zr  Zr41  1  0.91106288  0.11293758  0.49021245  1
  Zr  Zr42  1  0.50196882  0.30040138  0.89275313  1
  Zr  Zr43  1  0.30208481  0.11198384  0.90277354  1
  Zr  Zr44  1  0.49256169  0.90912719  0.10416497  1
  Zr  Zr45  1  0.89229262  0.29566513  0.31155315  1
  Zr  Zr46  1  0.49675155  0.88860752  0.70480124  1
  Zr  Zr47  1  0.90020136  0.89416899  0.90710427  1
  Zr  Zr48  1  0.50196589  0.30720293  0.69589833  1
  Zr  Zr49  1  0.70245720  0.90052975  0.50002458  1
  Sc  Sc50  1  0.49074866  0.49549459  0.90222545  1
  Sc  Sc51  1  0.69383409  0.10652015  0.30335625  1
  Sc  Sc52  1  0.28621821  0.69857441  0.89889723  1
  Sc  Sc53  1  0.50328594  0.10440926  0.29913422  1
  Sc  Sc54  1  0.70173467  0.49464788  0.70167260  1
  Sc  Sc55  1  0.09184491  0.49112952  0.09663541  1
  Sc  Sc56  1  0.09490943  0.30118242  0.50517099  1
  Sc  Sc57  1  0.10298975  0.49662180  0.49785931  1
  Sc  Sc58  1  0.30917308  0.68852152  0.49740774  1
  Sc  Sc59  1  0.49250702  0.29893846  0.30161539  1
  Sc  Sc60  1  0.29387380  0.49633969  0.69414077  1
  Sc  Sc61  1  0.69331828  0.90953106  0.69900867  1
  Sc  Sc62  1  0.70778026  0.89338521  0.10542824  1
  Sc  Sc63  1  0.10460819  0.89720726  0.69882818  1
  Sc  Sc64  1  0.70787588  0.30078684  0.10313074  1
  Sc  Sc65  1  0.08988607  0.69265388  0.30168766  1
  Sc  Sc66  1  0.88779393  0.90188405  0.69441950  1
  Sc  Sc67  1  0.30562099  0.70202862  0.09932061  1
  Sc  Sc68  1  0.68855535  0.10055243  0.50436857  1
  Sc  Sc69  1  0.09970444  0.49851364  0.70471011  1
  Sc  Sc70  1  0.90719581  0.69670435  0.90234375  1
  Sc  Sc71  1  0.50266870  0.29693704  0.11131544  1
  Sc  Sc72  1  0.89180647  0.10097253  0.70263523  1
  Sc  Sc73  1  0.69378326  0.11379853  0.10721226  1
  Sc  Sc74  1  0.10397148  0.70004236  0.71367959  1
  Sc  Sc75  1  0.70194440  0.69159480  0.49191179  1
  Sc  Sc76  1  0.29708111  0.49466864  0.49737113  1
  Sc  Sc77  1  0.71625319  0.49905975  0.89872167  1
  Sc  Sc78  1  0.49945066  0.90275678  0.89749643  1
  Sc  Sc79  1  0.30740002  0.89485321  0.90266861  1
  Sc  Sc80  1  0.10064293  0.30331574  0.69379143  1
  Sc  Sc81  1  0.70488047  0.30593820  0.48901453  1
  Sc  Sc82  1  0.31009936  0.49734205  0.09280004  1
  Sc  Sc83  1  0.10585949  0.10835172  0.50371640  1
  Sc  Sc84  1  0.10080931  0.89995856  0.29008660  1
  Sc  Sc85  1  0.70726956  0.69220166  0.90518219  1
  Sc  Sc86  1  0.29932115  0.30314254  0.49397626  1
  Sc  Sc87  1  0.10372959  0.10841568  0.69154341  1
  Sc  Sc88  1  0.69730341  0.90432779  0.89016639  1
  Sc  Sc89  1  0.49962182  0.10781815  0.91001298  1
  Sc  Sc90  1  0.68836222  0.68706754  0.70987665  1
  Sc  Sc91  1  0.30349536  0.10424527  0.50365702  1
  Sc  Sc92  1  0.69274257  0.91034749  0.29997843  1
  Sc  Sc93  1  0.29924505  0.11546682  0.30185496  1
  Sc  Sc94  1  0.09670423  0.89876696  0.10157363  1
  Sc  Sc95  1  0.49067951  0.68814497  0.30720251  1
  Sc  Sc96  1  0.69558724  0.50046546  0.49568591  1
  Sc  Sc97  1  0.49478834  0.49004118  0.29896793  1
  Sc  Sc98  1  0.09594416  0.10450080  0.10468531  1
  Sc  Sc99  1  0.70178600  0.09696089  0.70537770  1
  Nb  Nb100  1  0.89534955  0.69953958  0.69613852  1
  Nb  Nb101  1  0.89669107  0.89970977  0.09695105  1
  Nb  Nb102  1  0.89884640  0.29879046  0.50558442  1
  Nb  Nb103  1  0.10075697  0.90060243  0.50045254  1
  Nb  Nb104  1  0.90125440  0.09902048  0.30076069  1
  Nb  Nb105  1  0.29432070  0.48966322  0.30339464  1
  Nb  Nb106  1  0.70414557  0.10772190  0.90501785  1
  Nb  Nb107  1  0.90095462  0.10160075  0.10117600  1
  Nb  Nb108  1  0.10063460  0.51968223  0.90417768  1
  Nb  Nb109  1  0.50337011  0.09851848  0.10526778  1
  Nb  Nb110  1  0.49949222  0.29695613  0.50590968  1
  Nb  Nb111  1  0.30291169  0.30889793  0.29523389  1
  Nb  Nb112  1  0.29731670  0.90220879  0.50013208  1
  Nb  Nb113  1  0.69945659  0.69865610  0.10062754  1
  Nb  Nb114  1  0.09674554  0.30252358  0.10115724  1
  Nb  Nb115  1  0.90071891  0.49875004  0.89984354  1
  Nb  Nb116  1  0.90298861  0.50334305  0.30011342  1
  Nb  Nb117  1  0.10301872  0.69141994  0.90132781  1
  Nb  Nb118  1  0.50273875  0.68752702  0.50430370  1
  Nb  Nb119  1  0.69740711  0.28597595  0.90588988  1
  Nb  Nb120  1  0.29091804  0.29891746  0.10198287  1
  Nb  Nb121  1  0.50111848  0.10831086  0.49555580  1
  Nb  Nb122  1  0.49873845  0.69786970  0.69485077  1
  Nb  Nb123  1  0.50341975  0.50652278  0.49973394  1
  Nb  Nb124  1  0.90695406  0.29789736  0.10022970  1
  Nb  Nb125  1  0.40065984  0.60165040  0.79285498  1
  Nb  Nb126  1  0.39688582  0.00796611  0.79588340  1
  Nb  Nb127  1  0.80890505  0.00565477  0.19857636  1
  Nb  Nb128  1  0.20113716  0.00153348  0.80513159  1
  Nb  Nb129  1  0.79773213  0.00551647  0.00632700  1
  Nb  Nb130  1  -0.00084488  0.20117844  0.80467836  1
  Nb  Nb131  1  0.20074428  0.80306333  0.40404129  1
  Nb  Nb132  1  0.59368204  0.79678699  0.40120800  1
  Nb  Nb133  1  0.60414396  0.00287652  0.00562307  1
  Nb  Nb134  1  0.20336401  0.80061864  0.58969427  1
  Nb  Nb135  1  0.60439684  0.60185316  0.19881985  1
  Nb  Nb136  1  0.60177763  0.80181354  0.00563287  1
  Nb  Nb137  1  0.59759007  0.79222735  0.20024731  1
  Nb  Nb138  1  -0.00888719  0.60106706  0.60327024  1
  Nb  Nb139  1  0.60614501  0.39331298  -0.00357906  1
  Nb  Nb140  1  0.80201454  0.20689105  0.59502552  1
  Nb  Nb141  1  0.79998948  0.79468587  0.79675777  1
  Nb  Nb142  1  0.20113700  -0.00594622  0.40394011  1
  Nb  Nb143  1  0.80885507  0.00579696  0.39548432  1
  Nb  Nb144  1  0.00097841  -0.00100042  0.59850439  1
  Nb  Nb145  1  0.20268317  0.00170751  -0.00219239  1
  Nb  Nb146  1  0.20294199  0.59277382  0.20170486  1
  Nb  Nb147  1  0.00329971  0.00226163  0.79917833  1
  Nb  Nb148  1  0.80629909  0.59796911  0.60251615  1
  Nb  Nb149  1  0.59174811  0.79213669  0.59553659  1
  Pd  Pd150  1  0.39479042  0.58989828  0.60239592  1
  Pd  Pd151  1  0.40793595  0.38763172  0.00767606  1
  Pd  Pd152  1  -0.00086001  0.60376976  0.18794977  1
  Pd  Pd153  1  0.00053516  0.40142214  -0.00948148  1
  Pd  Pd154  1  0.19035746  0.60676304  0.60255321  1
  Pd  Pd155  1  0.20180066  0.19560402  0.19513041  1
  Pd  Pd156  1  0.40840649  0.79377936  0.20248417  1
  Pd  Pd157  1  0.20512926  0.41064644  0.18760166  1
  Pd  Pd158  1  -0.00390792  0.60091076  0.79600164  1
  Pd  Pd159  1  0.40972772  0.19592505  0.79090277  1
  Pd  Pd160  1  0.19402727  0.78642571  0.20626528  1
  Pd  Pd161  1  0.60719813  0.39708233  0.59103943  1
  Pd  Pd162  1  0.40470495  0.79689918  -0.00392076  1
  Pd  Pd163  1  0.80633722  0.39923296  0.20522873  1
  Pd  Pd164  1  0.60335500  0.59461881  -0.00597902  1
  Pd  Pd165  1  0.59012913  0.01106648  0.80790417  1
  Pd  Pd166  1  0.40790349  0.21115179  0.00918073  1
  Pd  Pd167  1  0.59744755  0.20645641  0.40064079  1
  Pd  Pd168  1  0.19529935  0.60067726  0.39710046  1
  Pd  Pd169  1  -0.00207941  0.20349507  -0.00124359  1
  Pd  Pd170  1  0.58985170  0.39874435  0.40298892  1
  Pd  Pd171  1  0.39854689  0.58990716  0.20332289  1
  Pd  Pd172  1  -0.00362373  -0.00193362  0.19475535  1
  Pd  Pd173  1  0.40270995  0.00500238  0.60231460  1
  Pd  Pd174  1  0.01027582  0.39465819  0.81322503  1
  Pd  Pd175  1  0.40055790  0.79402975  0.40508636  1
  Pd  Pd176  1  -0.00210242  0.20695591  0.20735933  1
  Pd  Pd177  1  0.80285303  0.19805023  0.20097872  1
  Pd  Pd178  1  -0.00907582  0.80409981  0.79146576  1
  Pd  Pd179  1  0.39483232  0.01213955  0.21362876  1
  Pd  Pd180  1  0.39402325  0.60679333  -0.01628506  1
  Pd  Pd181  1  0.39202406  0.01461593  0.39603945  1
  Pd  Pd182  1  0.80875167  0.01520245  0.58575532  1
  Pd  Pd183  1  0.59603464  0.18969230  0.79839837  1
  Pd  Pd184  1  0.19266902  0.20430022  0.79582406  1
  Pd  Pd185  1  0.60636926  0.40808533  0.81133569  1
  Pd  Pd186  1  -0.01052490  0.60300779  0.00742114  1
  Pd  Pd187  1  0.19103786  0.40012543  0.80073170  1
  Pd  Pd188  1  0.40529158  0.39968795  0.40773309  1
  Pd  Pd189  1  0.00485009  0.39203570  0.39616350  1
  Pd  Pd190  1  0.00403705  0.79011513  0.19311559  1
  Pd  Pd191  1  0.20399247  0.80566476  0.00377524  1
  Pd  Pd192  1  0.00403333  -0.00495509  0.40356324  1
  Pd  Pd193  1  0.01408715  0.21171628  0.39134409  1
  Pd  Pd194  1  0.19857582  0.20202170  0.40256161  1
  Pd  Pd195  1  0.00260381  -0.00231140  -0.00044166  1
  Pd  Pd196  1  0.39529849  0.20662263  0.59680944  1
  Pd  Pd197  1  0.59496615  0.58750763  0.80873777  1
  Pd  Pd198  1  0.00619148  0.79996720  0.61096223  1
  Pd  Pd199  1  0.77868308  0.78701463  0.61042922  1
  Rh  Rh200  1  0.79433675  0.39242036  0.80748580  1
  Rh  Rh201  1  0.40286788  0.00288244  -0.00703366  1
  Rh  Rh202  1  0.78797646  0.80753272  -0.01128443  1
  Rh  Rh203  1  0.80124718  0.59324502  0.19781022  1
  Rh  Rh204  1  -0.00952905  0.38998020  0.20614001  1
  Rh  Rh205  1  0.78741168  0.81291881  0.39050307  1
  Rh  Rh206  1  0.40154780  0.41073251  0.78981477  1
  Rh  Rh207  1  0.39363222  0.79718425  0.80457891  1
  Rh  Rh208  1  0.80905249  0.59939882  -0.00070796  1
  Rh  Rh209  1  0.60443931  0.40560235  0.19305201  1
  Rh  Rh210  1  0.59447456  0.59977677  0.39046123  1
  Rh  Rh211  1  0.60813814  -0.00206795  0.19007283  1
  Rh  Rh212  1  0.80822220  0.60516201  0.79811036  1
  Rh  Rh213  1  0.80161867  0.19844240  0.01177789  1
  Rh  Rh214  1  0.39465283  0.39779888  0.19641624  1
  Rh  Rh215  1  0.20590394  0.59170545  0.00814238  1
  Rh  Rh216  1  -0.00761050  0.59218301  0.41063868  1
  Rh  Rh217  1  0.40331764  0.20459721  0.40178288  1
  Rh  Rh218  1  0.19828078  0.39866798  0.59716339  1
  Rh  Rh219  1  0.20636130  0.59816831  0.79572637  1
  Rh  Rh220  1  0.80141641  0.40303040  0.39590744  1
  Rh  Rh221  1  0.61113361  0.60191256  0.59583279  1
  Rh  Rh222  1  0.79347661  0.80701868  0.20921300  1
  Rh  Rh223  1  0.40134575  0.79480026  0.58716541  1
  Rh  Rh224  1  0.00261887  0.79076226  0.00782089  1
  Rh  Rh225  1  0.59256259  -0.00837557  0.59494583  1
  Rh  Rh226  1  0.80706692  -0.00872472  0.81074306  1
  Rh  Rh227  1  -0.00970774  0.19341655  0.61165037  1
  Rh  Rh228  1  0.20388419  0.80455146  0.79575680  1
  Rh  Rh229  1  0.00712897  0.40951917  0.60059987  1
  Rh  Rh230  1  0.40311609  0.40315098  0.59339287  1
  Rh  Rh231  1  0.01021578  0.80475381  0.38962869  1
  Rh  Rh232  1  0.81033013  0.58748540  0.40936285  1
  Rh  Rh233  1  0.80265026  0.20634169  0.79056048  1
  Rh  Rh234  1  0.61067185  0.79948494  0.79710431  1
  Rh  Rh235  1  0.61021776  0.21017251  0.59546042  1
  Rh  Rh236  1  0.19746368  0.40697989  0.00540381  1
  Rh  Rh237  1  0.59639915  0.20456205  0.20436157  1
  Rh  Rh238  1  0.79690791  0.39398346  -0.00135057  1
  Rh  Rh239  1  0.19580013  0.39567857  0.39955294  1
  Rh  Rh240  1  0.39869161  0.20444006  0.19981204  1
  Rh  Rh241  1  0.19187666  -0.00385732  0.59789007  1
  Rh  Rh242  1  0.79181443  0.39882786  0.59922279  1
  Rh  Rh243  1  0.20749952  0.21241870  0.59642878  1
  Rh  Rh244  1  0.60294206  -0.00172669  0.40728043  1
  Rh  Rh245  1  0.79312668  0.19323005  0.40644816  1
  Rh  Rh246  1  0.40099063  0.58428823  0.40189068  1
  Rh  Rh247  1  0.20016908  0.19649394  0.01386600  1
  Rh  Rh248  1  0.59700071  0.20302321  0.00614164  1
  Rh  Rh249  1  0.20300463  0.00826949  0.19871381  1
