# generated using pymatgen
data_ZrScNbPdRh
_symmetry_space_group_name_H-M   'P 1'
_cell_length_a   16.55395454
_cell_length_b   16.55758348
_cell_length_c   16.55520284
_cell_angle_alpha   90.00256007
_cell_angle_beta   90.00875121
_cell_angle_gamma   89.96841567
_symmetry_Int_Tables_number   1
_chemical_formula_structural   ZrScNbPdRh
_chemical_formula_sum   'Zr50 Sc50 Nb50 Pd50 Rh50'
_cell_volume   4537.67248184
_cell_formula_units_Z   50
loop_
 _symmetry_equiv_pos_site_id
 _symmetry_equiv_pos_as_xyz
  1  'x, y, z'
loop_
 _atom_site_type_symbol
 _atom_site_label
 _atom_site_symmetry_multiplicity
 _atom_site_fract_x
 _atom_site_fract_y
 _atom_site_fract_z
 _atom_site_occupancy
  Zr  Zr0  1  0.10287103  0.70145423  0.69249145  1
  Zr  Zr1  1  0.89128801  0.29356370  0.50932993  1
  Zr  Zr2  1  0.68998101  0.49867302  0.90921289  1
  Zr  Zr3  1  0.90468411  0.50814889  0.49569187  1
  Zr  Zr4  1  0.90593606  0.28945688  0.29923474  1
  Zr  Zr5  1  0.69589576  0.50019809  0.49982308  1
  Zr  Zr6  1  0.29844192  0.89867996  0.90048628  1
  Zr  Zr7  1  0.69508305  0.30578917  0.29588877  1
  Zr  Zr8  1  0.90211556  0.89525235  0.50497725  1
  Zr  Zr9  1  0.30175374  0.29821810  0.10349710  1
  Zr  Zr10  1  0.10354685  0.29698655  0.09883213  1
  Zr  Zr11  1  0.09715803  0.70298349  0.49626178  1
  Zr  Zr12  1  0.49398402  0.90505005  0.89921895  1
  Zr  Zr13  1  0.09720483  0.89509368  0.49113696  1
  Zr  Zr14  1  0.49804442  0.70314738  0.10433639  1
  Zr  Zr15  1  0.10060797  0.89825946  0.29475172  1
  Zr  Zr16  1  0.49846583  0.11166514  0.10278992  1
  Zr  Zr17  1  0.70135749  0.89586874  0.29683561  1
  Zr  Zr18  1  0.89959056  0.49733116  0.10036545  1
  Zr  Zr19  1  0.29094818  0.70238915  0.89971330  1
  Zr  Zr20  1  0.29908291  0.89757653  0.29949632  1
  Zr  Zr21  1  0.10201242  0.29978031  0.29684538  1
  Zr  Zr22  1  0.50176730  0.29191292  0.90708182  1
  Zr  Zr23  1  0.10796208  0.09859723  0.50355805  1
  Zr  Zr24  1  0.69568512  0.69480413  0.30231291  1
  Zr  Zr25  1  0.10002486  0.70912668  0.90444761  1
  Zr  Zr26  1  0.49423707  0.89914856  0.49635018  1
  Zr  Zr27  1  0.69433928  0.30406279  0.50074918  1
  Zr  Zr28  1  0.89979389  0.10432841  0.89774486  1
  Zr  Zr29  1  0.89824379  0.69532524  0.89809404  1
  Zr  Zr30  1  0.90010999  0.09446487  0.70178760  1
  Zr  Zr31  1  0.30136930  0.50586918  0.89987256  1
  Zr  Zr32  1  0.69880625  0.10111951  0.29569009  1
  Zr  Zr33  1  0.69485446  0.49900791  0.30513804  1
  Zr  Zr34  1  0.90350630  0.69143861  0.09467542  1
  Zr  Zr35  1  0.30387534  0.70118817  0.09524605  1
  Zr  Zr36  1  0.69668954  0.10509298  0.10002310  1
  Zr  Zr37  1  0.90378169  0.10899983  0.09671794  1
  Zr  Zr38  1  0.49713373  0.10044843  0.71647343  1
  Zr  Zr39  1  0.70729077  0.30049396  0.69554498  1
  Zr  Zr40  1  0.10107046  0.10348029  0.89374285  1
  Zr  Zr41  1  0.90077114  0.29918034  0.70903854  1
  Zr  Zr42  1  0.90188674  0.89361866  0.10550770  1
  Zr  Zr43  1  0.49728013  0.50744043  0.70047738  1
  Zr  Zr44  1  0.69372390  0.89689605  0.89495262  1
  Zr  Zr45  1  0.70536219  0.90290284  0.69893038  1
  Zr  Zr46  1  0.89583222  0.49705240  0.70191186  1
  Zr  Zr47  1  0.89806262  0.49279305  0.29261986  1
  Zr  Zr48  1  0.49995890  0.69692399  0.69162297  1
  Zr  Zr49  1  0.11194459  0.29083674  0.50067140  1
  Sc  Sc50  1  0.10293243  0.90698799  0.69998873  1
  Sc  Sc51  1  0.69924990  0.69627866  0.90733689  1
  Sc  Sc52  1  0.50141499  0.30013107  0.70792546  1
  Sc  Sc53  1  0.09388298  0.49706974  0.10442434  1
  Sc  Sc54  1  0.29923075  0.90422372  0.09545115  1
  Sc  Sc55  1  0.49679620  0.30507848  0.30310263  1
  Sc  Sc56  1  0.71372401  0.10013035  0.50221540  1
  Sc  Sc57  1  0.88760256  0.50218767  0.90261494  1
  Sc  Sc58  1  0.90043326  0.68596537  0.30296387  1
  Sc  Sc59  1  0.10275799  0.49407307  0.30047710  1
  Sc  Sc60  1  0.69308399  0.69380573  0.50396621  1
  Sc  Sc61  1  0.10855146  0.50224575  0.89457600  1
  Sc  Sc62  1  0.11109687  0.50707724  0.49779321  1
  Sc  Sc63  1  0.29287281  0.69754820  0.49709982  1
  Sc  Sc64  1  0.30300636  0.50397758  0.09094036  1
  Sc  Sc65  1  0.91048638  0.90307979  0.30935248  1
  Sc  Sc66  1  0.49584395  0.89205769  0.28917588  1
  Sc  Sc67  1  0.90358256  0.90231607  0.69366829  1
  Sc  Sc68  1  0.30026290  0.50932398  0.69676779  1
  Sc  Sc69  1  0.70270891  0.49294951  0.10155972  1
  Sc  Sc70  1  0.69200639  0.70140189  0.69584697  1
  Sc  Sc71  1  0.70438307  0.09965322  0.70750001  1
  Sc  Sc72  1  0.49319041  0.10360457  0.49494883  1
  Sc  Sc73  1  0.28603317  0.89893389  0.49676031  1
  Sc  Sc74  1  0.29082656  0.10013544  0.70717379  1
  Sc  Sc75  1  0.30651697  0.10299579  0.10466297  1
  Sc  Sc76  1  0.29871196  0.50379141  0.30712639  1
  Sc  Sc77  1  0.69452328  0.29694948  0.09910961  1
  Sc  Sc78  1  0.30201933  0.49289109  0.50188011  1
  Sc  Sc79  1  0.69610711  0.88944079  0.10279973  1
  Sc  Sc80  1  0.49770312  0.50306080  0.08625686  1
  Sc  Sc81  1  0.70213075  0.10668527  0.89499383  1
  Sc  Sc82  1  0.29589862  0.69873281  0.69904413  1
  Sc  Sc83  1  0.90481808  0.09656921  0.49473446  1
  Sc  Sc84  1  0.29887138  0.30325316  0.30811235  1
  Sc  Sc85  1  0.49804160  0.50010284  0.49916647  1
  Sc  Sc86  1  0.11104961  0.49712070  0.70182915  1
  Sc  Sc87  1  0.89827600  0.29880543  0.10126562  1
  Sc  Sc88  1  0.70614141  0.90042729  0.50616828  1
  Sc  Sc89  1  0.29296293  0.30658000  0.69545967  1
  Sc  Sc90  1  0.10638758  0.10107060  0.10659134  1
  Sc  Sc91  1  0.49597590  0.89439795  0.09620772  1
  Sc  Sc92  1  0.30901039  0.70160849  0.30135751  1
  Sc  Sc93  1  0.69507618  0.49505490  0.70040622  1
  Sc  Sc94  1  0.50714427  0.70431888  0.90166562  1
  Sc  Sc95  1  0.69937950  0.70365996  0.09785061  1
  Sc  Sc96  1  0.30742139  0.09395853  0.90225057  1
  Sc  Sc97  1  0.29683111  0.30222276  0.91227491  1
  Sc  Sc98  1  0.50723492  0.89695920  0.71377191  1
  Sc  Sc99  1  0.90591451  0.90385359  0.88665179  1
  Nb  Nb100  1  0.30951474  0.10000924  0.30057344  1
  Nb  Nb101  1  0.90308140  0.70275863  0.69339717  1
  Nb  Nb102  1  0.50135217  0.49653879  0.89797831  1
  Nb  Nb103  1  0.29985971  0.10585197  0.49922411  1
  Nb  Nb104  1  0.70281513  0.29533247  0.89941171  1
  Nb  Nb105  1  0.49317912  0.69689971  0.30229321  1
  Nb  Nb106  1  0.09803616  0.29567728  0.70397931  1
  Nb  Nb107  1  0.90592367  0.29217121  0.90251150  1
  Nb  Nb108  1  0.49702099  0.70131618  0.49655506  1
  Nb  Nb109  1  0.49679304  0.50336180  0.29916024  1
  Nb  Nb110  1  0.90583403  0.70353872  0.50573591  1
  Nb  Nb111  1  0.10162334  0.90325741  0.90754711  1
  Nb  Nb112  1  0.90556630  0.09955596  0.29892392  1
  Nb  Nb113  1  0.30687984  0.89885772  0.69905493  1
  Nb  Nb114  1  0.48986956  0.29617663  0.10050804  1
  Nb  Nb115  1  0.30769219  0.29470458  0.49515065  1
  Nb  Nb116  1  0.09739388  0.89169972  0.09738987  1
  Nb  Nb117  1  0.50261364  0.09929370  0.90147214  1
  Nb  Nb118  1  0.49965922  0.10063781  0.29664526  1
  Nb  Nb119  1  0.09633797  0.70946314  0.10227994  1
  Nb  Nb120  1  0.10850890  0.70381580  0.30003264  1
  Nb  Nb121  1  0.49203360  0.29929162  0.49520769  1
  Nb  Nb122  1  0.08653102  0.10090731  0.30426399  1
  Nb  Nb123  1  0.09182835  0.29782323  0.89289123  1
  Nb  Nb124  1  0.10266521  0.11238712  0.69940217  1
  Nb  Nb125  1  0.39791093  0.19942981  0.59658427  1
  Nb  Nb126  1  0.00050919  0.39242982  -0.00982341  1
  Nb  Nb127  1  0.40297010  0.40642027  0.80817817  1
  Nb  Nb128  1  0.39832519  0.80447098  0.59923188  1
  Nb  Nb129  1  0.59638670  0.19701380  0.40111254  1
  Nb  Nb130  1  0.80127962  -0.00098207  0.00373203  1
  Nb  Nb131  1  0.60029546  0.00533115  -0.00153870  1
  Nb  Nb132  1  0.59080290  0.59762449  0.20459322  1
  Nb  Nb133  1  -0.00273202  0.60542321  0.79629876  1
  Nb  Nb134  1  0.00505545  0.39417641  0.60117289  1
  Nb  Nb135  1  0.80647942  0.60443121  0.60072329  1
  Nb  Nb136  1  0.39741826  0.00376213  0.39809870  1
  Nb  Nb137  1  0.80427127  0.39976887  0.39922307  1
  Nb  Nb138  1  0.00482399  -0.00378568  0.00097089  1
  Nb  Nb139  1  0.59243270  0.00703726  0.59745458  1
  Nb  Nb140  1  0.59784870  0.79896565  0.39965157  1
  Nb  Nb141  1  0.39760181  0.00111871  0.60021050  1
  Nb  Nb142  1  0.59353446  0.19739398  0.59606894  1
  Nb  Nb143  1  0.80311107  0.79366441  0.79355808  1
  Nb  Nb144  1  0.40247335  0.40441882  0.19739037  1
  Nb  Nb145  1  0.59554850  0.00073141  0.39845735  1
  Nb  Nb146  1  -0.00090092  0.39326395  0.40808956  1
  Nb  Nb147  1  0.80580557  0.00345913  0.19874743  1
  Nb  Nb148  1  0.19659052  0.61000641  0.19785881  1
  Nb  Nb149  1  0.80037118  0.79171878  0.40597219  1
  Pd  Pd150  1  0.00638819  0.58810116  -0.00876043  1
  Pd  Pd151  1  0.19779457  0.39867353  0.59590306  1
  Pd  Pd152  1  0.19870061  0.00328594  0.20165045  1
  Pd  Pd153  1  0.60080887  -0.00518495  0.19492592  1
  Pd  Pd154  1  0.81083182  0.79755806  0.21190828  1
  Pd  Pd155  1  0.21140664  0.41285082  0.19781499  1
  Pd  Pd156  1  -0.00949843  0.80578030  -0.00563875  1
  Pd  Pd157  1  0.20062150  0.00621998  0.39108990  1
  Pd  Pd158  1  0.80390359  0.39138700  -0.00223021  1
  Pd  Pd159  1  0.40091890  0.60421863  0.80503219  1
  Pd  Pd160  1  0.79402666  0.60551400  0.79080810  1
  Pd  Pd161  1  0.79901287  -0.00697934  0.39516397  1
  Pd  Pd162  1  0.79563705  0.39818561  0.81138780  1
  Pd  Pd163  1  0.00041631  0.79976288  0.79427441  1
  Pd  Pd164  1  -0.00126205  0.20052058  0.60169097  1
  Pd  Pd165  1  0.80014424  0.20051976  0.19934415  1
  Pd  Pd166  1  0.38800529  0.21172538  0.79845699  1
  Pd  Pd167  1  0.78948523  0.60031642  0.19358386  1
  Pd  Pd168  1  0.00959398  0.59621512  0.39103870  1
  Pd  Pd169  1  0.40039924  0.79143305  0.79556109  1
  Pd  Pd170  1  0.60473078  0.60382899  0.80209006  1
  Pd  Pd171  1  0.59575057  0.39254689  0.00557141  1
  Pd  Pd172  1  -0.00768863  0.79104144  0.21023008  1
  Pd  Pd173  1  0.20986265  0.39575429  0.80367996  1
  Pd  Pd174  1  0.00268846  0.58964278  0.60775715  1
  Pd  Pd175  1  0.40424030  0.39454871  0.60844753  1
  Pd  Pd176  1  0.20399318  0.19302481  0.20955087  1
  Pd  Pd177  1  0.19223031  0.40302504  -0.00063824  1
  Pd  Pd178  1  0.40796663  0.60754679  -0.01018429  1
  Pd  Pd179  1  -0.00119110  0.00264197  0.19323114  1
  Pd  Pd180  1  0.59508030  0.80817517  0.59500799  1
  Pd  Pd181  1  0.80544787  0.80657010  -0.01060048  1
  Pd  Pd182  1  0.20418656  0.00026273  0.60382477  1
  Pd  Pd183  1  0.20897006  0.20833712  0.80520314  1
  Pd  Pd184  1  0.00639755  0.00128504  0.59921361  1
  Pd  Pd185  1  0.59827435  0.39457558  0.80119112  1
  Pd  Pd186  1  0.18833631  0.60018490  0.00996028  1
  Pd  Pd187  1  0.39651117  0.59553487  0.40829353  1
  Pd  Pd188  1  0.19695085  0.80717387  0.79419431  1
  Pd  Pd189  1  0.40289899  -0.00411808  0.19816690  1
  Pd  Pd190  1  0.79420302  0.20348565  0.39705138  1
  Pd  Pd191  1  0.20196807  0.19343562  -0.00380540  1
  Pd  Pd192  1  0.58785861  0.40587815  0.18972144  1
  Pd  Pd193  1  0.20094856  0.19280389  0.38936223  1
  Pd  Pd194  1  0.20853496  0.79764994  0.19487102  1
  Pd  Pd195  1  0.00091093  0.41042795  0.80250227  1
  Pd  Pd196  1  0.19697585  0.00441980  0.00585150  1
  Pd  Pd197  1  0.00973020  0.60205832  0.20634507  1
  Pd  Pd198  1  0.58710901  0.39618203  0.60087785  1
  Pd  Pd199  1  0.19950732  -0.00290591  0.79909773  1
  Rh  Rh200  1  0.80166543  0.39304673  0.20243906  1
  Rh  Rh201  1  0.00914445  0.20073383  0.00206822  1
  Rh  Rh202  1  0.20196316  0.80379128  0.00581359  1
  Rh  Rh203  1  0.20290649  0.60118126  0.59621039  1
  Rh  Rh204  1  0.39732555  0.60978909  0.59225021  1
  Rh  Rh205  1  0.40356602  0.39771841  0.00001354  1
  Rh  Rh206  1  0.39477404  -0.00064398  0.79911351  1
  Rh  Rh207  1  0.39764063  0.79884642  -0.00411090  1
  Rh  Rh208  1  0.00896568  0.00489416  0.80080316  1
  Rh  Rh209  1  0.60679774  0.79285296  0.79986639  1
  Rh  Rh210  1  0.19276732  0.60626545  0.79766181  1
  Rh  Rh211  1  0.58979257  0.60440018  0.39756649  1
  Rh  Rh212  1  0.00403782  0.00301633  0.40439123  1
  Rh  Rh213  1  0.39865757  0.21204351  0.21071446  1
  Rh  Rh214  1  0.00904876  0.80802262  0.60297718  1
  Rh  Rh215  1  0.59084714  0.20872341  0.20757477  1
  Rh  Rh216  1  0.39782339  0.59257710  0.19923207  1
  Rh  Rh217  1  0.60027063  0.60061333  0.00784815  1
  Rh  Rh218  1  0.20134336  0.79670491  0.39653632  1
  Rh  Rh219  1  0.60758689  0.20473360  0.79730900  1
  Rh  Rh220  1  0.39514400  0.80102768  0.19711351  1
  Rh  Rh221  1  0.79890061  -0.00931260  0.80522083  1
  Rh  Rh222  1  0.00559610  0.19945986  0.19720832  1
  Rh  Rh223  1  -0.00023241  0.39212468  0.19608687  1
  Rh  Rh224  1  0.40888739  0.00547153  0.00384049  1
  Rh  Rh225  1  0.59806865  0.80692174  -0.00096743  1
  Rh  Rh226  1  0.39520760  0.19588929  -0.00246460  1
  Rh  Rh227  1  -0.00123909  0.19359883  0.79410868  1
  Rh  Rh228  1  0.59618180  0.39740971  0.40263535  1
  Rh  Rh229  1  0.00378789  0.19974266  0.40488121  1
  Rh  Rh230  1  0.80832803  0.41332760  0.59057663  1
  Rh  Rh231  1  0.60213402  0.19887901  -0.00209147  1
  Rh  Rh232  1  0.19722122  0.39807939  0.40605794  1
  Rh  Rh233  1  0.20318552  0.80317771  0.60049003  1
  Rh  Rh234  1  0.79879210  0.00494817  0.60142548  1
  Rh  Rh235  1  0.79812730  0.19038633  0.60787363  1
  Rh  Rh236  1  0.39942053  0.80280389  0.40450145  1
  Rh  Rh237  1  0.79261219  0.59821091  0.00859142  1
  Rh  Rh238  1  0.20839997  0.20096072  0.60565158  1
  Rh  Rh239  1  0.79499362  0.20140504  -0.00341216  1
  Rh  Rh240  1  0.60432436  0.00580666  0.80357739  1
  Rh  Rh241  1  0.20077710  0.60347113  0.39176428  1
  Rh  Rh242  1  0.40304829  0.19607954  0.39700421  1
  Rh  Rh243  1  0.79941305  0.60184906  0.41236729  1
  Rh  Rh244  1  0.60009049  0.59428237  0.59841549  1
  Rh  Rh245  1  -0.00510386  0.79252008  0.39359232  1
  Rh  Rh246  1  0.59335970  0.78938081  0.20586649  1
  Rh  Rh247  1  0.79933747  0.20496187  0.80010288  1
  Rh  Rh248  1  0.39918075  0.40505905  0.39421279  1
  Rh  Rh249  1  0.79805935  0.79215580  0.59934383  1
