# generated using pymatgen
data_ZrScNbPdRh
_symmetry_space_group_name_H-M   'P 1'
_cell_length_a   16.55497751
_cell_length_b   16.55592378
_cell_length_c   16.55350703
_cell_angle_alpha   90.00740832
_cell_angle_beta   90.05167026
_cell_angle_gamma   89.99856657
_symmetry_Int_Tables_number   1
_chemical_formula_structural   ZrScNbPdRh
_chemical_formula_sum   'Zr50 Sc50 Nb50 Pd50 Rh50'
_cell_volume   4537.03208732
_cell_formula_units_Z   50
loop_
 _symmetry_equiv_pos_site_id
 _symmetry_equiv_pos_as_xyz
  1  'x, y, z'
loop_
 _atom_site_type_symbol
 _atom_site_label
 _atom_site_symmetry_multiplicity
 _atom_site_fract_x
 _atom_site_fract_y
 _atom_site_fract_z
 _atom_site_occupancy
  Zr  Zr0  1  0.49391634  0.49955535  0.69493675  1
  Zr  Zr1  1  0.50762144  0.09302399  0.50287815  1
  Zr  Zr2  1  0.90137748  0.29502010  0.30502552  1
  Zr  Zr3  1  0.89502014  0.51227977  0.30148564  1
  Zr  Zr4  1  0.89599768  0.30094372  0.70321508  1
  Zr  Zr5  1  0.69945811  0.30488957  0.70416082  1
  Zr  Zr6  1  0.09850741  0.09404052  0.29637425  1
  Zr  Zr7  1  0.09684784  0.90207794  0.89512946  1
  Zr  Zr8  1  0.09918844  0.09814113  0.09805144  1
  Zr  Zr9  1  0.70164899  0.49756796  0.29938144  1
  Zr  Zr10  1  0.70261530  0.09450486  0.49712729  1
  Zr  Zr11  1  0.30104215  0.10005608  0.29302426  1
  Zr  Zr12  1  0.89556326  0.89980815  0.09700432  1
  Zr  Zr13  1  0.70506529  0.89717815  0.90155873  1
  Zr  Zr14  1  0.49494803  0.90685480  0.69104814  1
  Zr  Zr15  1  0.29666134  0.90206176  0.89787482  1
  Zr  Zr16  1  0.90980567  0.89469830  0.70082134  1
  Zr  Zr17  1  0.49477548  0.30468644  0.69696962  1
  Zr  Zr18  1  0.10404077  0.50749326  0.50196340  1
  Zr  Zr19  1  0.30365772  0.10290533  0.89680272  1
  Zr  Zr20  1  0.70847352  0.70074648  0.30875839  1
  Zr  Zr21  1  0.30195579  0.29575699  0.69842646  1
  Zr  Zr22  1  0.49631371  0.10054185  0.70089805  1
  Zr  Zr23  1  0.91015271  0.09416347  0.90180235  1
  Zr  Zr24  1  0.30174568  0.10571126  0.70670144  1
  Zr  Zr25  1  0.90378374  0.09973495  0.29710246  1
  Zr  Zr26  1  0.10370163  0.89362633  0.51217837  1
  Zr  Zr27  1  0.50314797  0.10703209  0.29686915  1
  Zr  Zr28  1  0.70070398  0.49809899  0.10168451  1
  Zr  Zr29  1  0.70206634  0.69489268  0.70170039  1
  Zr  Zr30  1  0.49893964  0.50608586  0.10378353  1
  Zr  Zr31  1  0.49491584  0.69803689  0.09277062  1
  Zr  Zr32  1  0.69955029  0.90497318  0.10029153  1
  Zr  Zr33  1  0.10194611  0.69928051  0.49481070  1
  Zr  Zr34  1  0.10135455  0.30105119  0.70422624  1
  Zr  Zr35  1  0.89624802  0.70198058  0.10650898  1
  Zr  Zr36  1  0.49227229  0.10408349  0.90109161  1
  Zr  Zr37  1  0.29209146  0.89936619  0.69114595  1
  Zr  Zr38  1  0.89909416  0.09823774  0.69773347  1
  Zr  Zr39  1  0.90686529  0.89962407  0.50019636  1
  Zr  Zr40  1  0.30012759  0.70246696  0.50319691  1
  Zr  Zr41  1  0.69775770  0.49448820  0.89766903  1
  Zr  Zr42  1  0.09524552  0.70033593  0.69977403  1
  Zr  Zr43  1  0.90656364  0.10503066  0.49923003  1
  Zr  Zr44  1  0.50436199  0.90271654  0.29936545  1
  Zr  Zr45  1  0.69710256  0.29358072  0.30228794  1
  Zr  Zr46  1  0.10141028  0.29456337  0.50006623  1
  Zr  Zr47  1  0.29554968  0.50477800  0.90260700  1
  Zr  Zr48  1  0.69653240  0.10348140  0.69096407  1
  Zr  Zr49  1  0.10802875  0.51039759  0.29904302  1
  Sc  Sc50  1  0.89990781  0.30648350  0.09941814  1
  Sc  Sc51  1  0.90648968  0.70476161  0.29727326  1
  Sc  Sc52  1  0.90503002  0.30165367  0.89753024  1
  Sc  Sc53  1  0.69633491  0.30519678  0.90278442  1
  Sc  Sc54  1  0.29929421  0.69613060  0.90591782  1
  Sc  Sc55  1  0.11040472  0.29394341  0.30100650  1
  Sc  Sc56  1  0.09854547  0.09787514  0.50410599  1
  Sc  Sc57  1  0.50730539  0.30190911  0.90684150  1
  Sc  Sc58  1  0.10158235  0.30697413  0.09627443  1
  Sc  Sc59  1  0.10286818  0.09654533  0.70114901  1
  Sc  Sc60  1  0.69796441  0.90525198  0.69493887  1
  Sc  Sc61  1  0.49711422  0.69810995  0.28966527  1
  Sc  Sc62  1  0.49982740  0.50045018  0.90397789  1
  Sc  Sc63  1  0.09796185  0.49779178  0.90446491  1
  Sc  Sc64  1  0.30674781  0.29779985  0.30160061  1
  Sc  Sc65  1  0.89492038  0.70366775  0.89011357  1
  Sc  Sc66  1  0.90326804  0.09218891  0.10609523  1
  Sc  Sc67  1  0.09607516  0.30436093  0.90672039  1
  Sc  Sc68  1  0.30520267  0.90010385  0.09649822  1
  Sc  Sc69  1  0.29195160  0.69575019  0.70912242  1
  Sc  Sc70  1  0.90218190  0.89574572  0.89864752  1
  Sc  Sc71  1  0.30297709  0.09869402  0.09859677  1
  Sc  Sc72  1  0.29438294  0.10313723  0.51064939  1
  Sc  Sc73  1  0.50137669  0.10595818  0.09633722  1
  Sc  Sc74  1  0.90158390  0.69879842  0.70790568  1
  Sc  Sc75  1  0.68872218  0.09725359  0.90683903  1
  Sc  Sc76  1  0.30118652  0.70042197  0.10082143  1
  Sc  Sc77  1  0.30206493  0.49841308  0.29986022  1
  Sc  Sc78  1  0.69727963  0.30347074  0.09831470  1
  Sc  Sc79  1  0.10867784  0.49738911  0.09926899  1
  Sc  Sc80  1  0.90162181  0.69673510  0.48404275  1
  Sc  Sc81  1  0.29303825  0.30276659  0.10628038  1
  Sc  Sc82  1  0.90609509  0.49495191  0.89776304  1
  Sc  Sc83  1  0.89501108  0.49684925  0.10861856  1
  Sc  Sc84  1  0.11017382  0.90103527  0.10380241  1
  Sc  Sc85  1  0.29344650  0.50415609  0.10216969  1
  Sc  Sc86  1  0.89935691  0.50336058  0.71030686  1
  Sc  Sc87  1  0.69327892  0.89977223  0.29372584  1
  Sc  Sc88  1  0.70626398  0.70505981  0.89944265  1
  Sc  Sc89  1  0.49796515  0.91131598  0.90534743  1
  Sc  Sc90  1  0.11148017  0.69465076  0.89240809  1
  Sc  Sc91  1  0.10291859  0.10163118  0.90044670  1
  Sc  Sc92  1  0.69302236  0.89695974  0.48321920  1
  Sc  Sc93  1  0.29877755  0.89437478  0.28458203  1
  Sc  Sc94  1  0.70088512  0.49527121  0.70270259  1
  Sc  Sc95  1  0.69229320  0.70788428  0.10237027  1
  Sc  Sc96  1  0.49019815  0.69468533  0.69006532  1
  Sc  Sc97  1  0.70105054  0.29465360  0.50276725  1
  Sc  Sc98  1  0.29800250  0.30033147  0.50143604  1
  Sc  Sc99  1  0.50078612  0.89452182  0.10542090  1
  Nb  Nb100  1  0.49843267  0.69963455  0.89761210  1
  Nb  Nb101  1  0.90267605  0.50218352  0.49651337  1
  Nb  Nb102  1  0.49426744  0.50331413  0.49682837  1
  Nb  Nb103  1  0.10023726  0.69700777  0.10542184  1
  Nb  Nb104  1  0.10569482  0.89454596  0.30403293  1
  Nb  Nb105  1  0.30553113  0.49683057  0.50450942  1
  Nb  Nb106  1  0.69645279  0.69772521  0.49936986  1
  Nb  Nb107  1  0.49784307  0.48935866  0.31141110  1
  Nb  Nb108  1  0.29199641  0.70646235  0.29937331  1
  Nb  Nb109  1  0.09592437  0.89265662  0.69937295  1
  Nb  Nb110  1  0.50018629  0.31232007  0.48121227  1
  Nb  Nb111  1  0.90700805  0.30479252  0.50089393  1
  Nb  Nb112  1  0.29998166  0.49007972  0.69893134  1
  Nb  Nb113  1  0.69730489  0.50196565  0.50025187  1
  Nb  Nb114  1  0.90260389  0.90217268  0.30068234  1
  Nb  Nb115  1  0.09916445  0.50314356  0.70366360  1
  Nb  Nb116  1  0.29885852  0.89632131  0.50036586  1
  Nb  Nb117  1  0.49738334  0.30405892  0.30387544  1
  Nb  Nb118  1  0.49758257  0.30162148  0.10312219  1
  Nb  Nb119  1  0.70277576  0.09583369  0.29249397  1
  Nb  Nb120  1  0.70292478  0.09993224  0.10628753  1
  Nb  Nb121  1  0.49388278  0.89422855  0.49788387  1
  Nb  Nb122  1  0.29689234  0.29951318  0.89747093  1
  Nb  Nb123  1  0.49783315  0.69454220  0.50268240  1
  Nb  Nb124  1  0.11143737  0.70754988  0.29399831  1
  Nb  Nb125  1  0.59720248  0.19950363  0.79544012  1
  Nb  Nb126  1  0.79561889  0.79310153  0.59289405  1
  Nb  Nb127  1  0.40351531  0.80158821  0.79980571  1
  Nb  Nb128  1  0.80578731  0.00165869  0.39115751  1
  Nb  Nb129  1  0.80208088  0.59940049  0.00156543  1
  Nb  Nb130  1  0.59312554  0.59606950  0.40700694  1
  Nb  Nb131  1  0.59747547  0.79351209  0.59394499  1
  Nb  Nb132  1  -0.00000205  0.40485103  0.40242578  1
  Nb  Nb133  1  0.59130054  0.79754307  0.79537750  1
  Nb  Nb134  1  0.58952180  0.39842728  0.20805781  1
  Nb  Nb135  1  -0.00184816  0.40502536  0.59715344  1
  Nb  Nb136  1  0.39780562  0.80078511  0.40254808  1
  Nb  Nb137  1  0.59554506  0.60508687  0.79937579  1
  Nb  Nb138  1  0.59390055  0.40617387  0.58812484  1
  Nb  Nb139  1  0.20471825  -0.00963369  0.39947228  1
  Nb  Nb140  1  0.39538596  -0.00632245  0.40248829  1
  Nb  Nb141  1  0.79847997  0.59906178  0.59140228  1
  Nb  Nb142  1  0.00148943  0.40296739  0.21228057  1
  Nb  Nb143  1  0.79868359  0.19352281  0.00268154  1
  Nb  Nb144  1  0.20421150  0.40248866  0.79651055  1
  Nb  Nb145  1  0.80094959  0.00434508  0.79831068  1
  Nb  Nb146  1  -0.00275793  0.60676427  0.00501474  1
  Nb  Nb147  1  0.39730215  0.39835278  0.00416801  1
  Nb  Nb148  1  0.00546569  0.79168483  0.00465634  1
  Nb  Nb149  1  0.80547649  0.40139684  0.40797221  1
  Pd  Pd150  1  0.38725089  0.59957487  0.60335413  1
  Pd  Pd151  1  0.20148224  0.20181387  0.00129637  1
  Pd  Pd152  1  0.60107914  0.19463178  0.40130747  1
  Pd  Pd153  1  -0.00719873  0.20195502  0.00628562  1
  Pd  Pd154  1  0.19580182  0.79539131  0.00210740  1
  Pd  Pd155  1  0.00486131  -0.01067641  0.19591675  1
  Pd  Pd156  1  0.80338835  0.20448292  0.59502035  1
  Pd  Pd157  1  0.58891133  0.78836211  0.39766873  1
  Pd  Pd158  1  0.59395462  0.00125812  0.00828337  1
  Pd  Pd159  1  0.80011834  0.19793583  0.40441008  1
  Pd  Pd160  1  0.60451480  -0.00002928  0.79905607  1
  Pd  Pd161  1  0.79630772  0.80430948  0.20616741  1
  Pd  Pd162  1  0.39324941  0.60072613  0.20652084  1
  Pd  Pd163  1  0.80636352  0.39911288  -0.00579423  1
  Pd  Pd164  1  0.80061294  0.40767725  0.59740705  1
  Pd  Pd165  1  0.39786931  0.19229734  0.40594483  1
  Pd  Pd166  1  0.20163013  0.40092731  0.39850515  1
  Pd  Pd167  1  0.20020400  0.19998834  0.19545106  1
  Pd  Pd168  1  0.21069687  0.60086853  0.39899773  1
  Pd  Pd169  1  0.00618331  -0.00328111  0.40190931  1
  Pd  Pd170  1  0.78953133  0.19344639  0.81455957  1
  Pd  Pd171  1  0.40043562  0.80257918  -0.00685306  1
  Pd  Pd172  1  0.00497681  0.80834292  0.19637625  1
  Pd  Pd173  1  0.39311297  0.00387631  0.59461606  1
  Pd  Pd174  1  0.60122873  0.59786954  0.20971281  1
  Pd  Pd175  1  0.40092486  0.60337525  0.79989618  1
  Pd  Pd176  1  0.59163888  0.21220915  0.59722063  1
  Pd  Pd177  1  0.00393977  0.20998163  0.19343861  1
  Pd  Pd178  1  0.80067748  0.00681998  -0.00643538  1
  Pd  Pd179  1  0.59777622  0.20515868  0.19460830  1
  Pd  Pd180  1  0.59629409  0.80236296  -0.00637896  1
  Pd  Pd181  1  0.80221899  0.20410644  0.19035335  1
  Pd  Pd182  1  0.19529682  0.40069065  0.60272850  1
  Pd  Pd183  1  0.20184448  0.18775134  0.40123639  1
  Pd  Pd184  1  0.39822785  0.60723550  0.39200159  1
  Pd  Pd185  1  0.39368430  0.21018763  0.00502155  1
  Pd  Pd186  1  0.79876976  -0.01111984  0.59431405  1
  Pd  Pd187  1  0.39919949  0.39989046  0.19587012  1
  Pd  Pd188  1  0.20145404  0.00275205  -0.00003219  1
  Pd  Pd189  1  0.00444737  0.79773087  0.39715447  1
  Pd  Pd190  1  0.00264656  0.20318710  0.60694353  1
  Pd  Pd191  1  0.60818871  0.60450606  -0.00859402  1
  Pd  Pd192  1  0.00528963  0.19857711  0.80145747  1
  Pd  Pd193  1  0.00412699  0.59488958  0.19752355  1
  Pd  Pd194  1  0.40589581  0.00173600  0.19846135  1
  Pd  Pd195  1  -0.01087021  0.60085835  0.60321500  1
  Pd  Pd196  1  0.39864948  0.39766644  0.81259176  1
  Pd  Pd197  1  0.20658301  0.60120442  0.60565080  1
  Pd  Pd198  1  0.19750286  -0.00034038  0.79555828  1
  Pd  Pd199  1  0.40733897  0.20555211  0.58644693  1
  Rh  Rh200  1  0.19860595  0.79197673  0.60535982  1
  Rh  Rh201  1  0.19897853  0.58957870  0.79656393  1
  Rh  Rh202  1  0.40855323  0.20984397  0.80561239  1
  Rh  Rh203  1  0.59807452  0.79652740  0.20031623  1
  Rh  Rh204  1  0.19763013  0.19827683  0.60395781  1
  Rh  Rh205  1  0.20748300  0.39753463  -0.00830135  1
  Rh  Rh206  1  0.19589776  0.20663865  0.80485674  1
  Rh  Rh207  1  0.20674008  0.60547407  0.19901193  1
  Rh  Rh208  1  0.80565607  0.81065598  0.40002612  1
  Rh  Rh209  1  -0.00861856  0.78622549  0.59610830  1
  Rh  Rh210  1  0.80738390  0.79212483  0.00061698  1
  Rh  Rh211  1  0.38712115  0.40015697  0.40270487  1
  Rh  Rh212  1  0.40075956  0.00001593  0.00428418  1
  Rh  Rh213  1  -0.00223309  0.00074834  0.79480182  1
  Rh  Rh214  1  0.40201662  0.20257677  0.19861668  1
  Rh  Rh215  1  0.40315282  0.39674094  0.58794278  1
  Rh  Rh216  1  0.19276446  0.60427765  0.00501009  1
  Rh  Rh217  1  0.00712314  0.00136447  0.60449409  1
  Rh  Rh218  1  0.79961267  -0.00547683  0.20665707  1
  Rh  Rh219  1  0.39877937  0.59493113  -0.00055214  1
  Rh  Rh220  1  0.60390686  -0.01340002  0.58993390  1
  Rh  Rh221  1  0.79255285  0.81484084  0.78781767  1
  Rh  Rh222  1  0.59033353  0.40064547  0.01355702  1
  Rh  Rh223  1  0.80575779  0.39866264  0.80575950  1
  Rh  Rh224  1  0.00882700  0.79400517  0.80910156  1
  Rh  Rh225  1  0.19685910  0.00092726  0.59973328  1
  Rh  Rh226  1  0.60822624  0.20301481  0.00096090  1
  Rh  Rh227  1  0.00866880  0.60403233  0.39094231  1
  Rh  Rh228  1  0.19522391  0.39953273  0.20781418  1
  Rh  Rh229  1  0.00550916  -0.01020247  0.00448220  1
  Rh  Rh230  1  0.60956019  0.40395138  0.40036597  1
  Rh  Rh231  1  0.59367512  0.40170371  0.79123006  1
  Rh  Rh232  1  0.60131729  0.00516511  0.39516894  1
  Rh  Rh233  1  0.20442362  0.80241292  0.79827604  1
  Rh  Rh234  1  0.00725076  0.20121346  0.39928542  1
  Rh  Rh235  1  0.39962913  0.79613328  0.60207450  1
  Rh  Rh236  1  0.79354338  0.59598760  0.40418199  1
  Rh  Rh237  1  0.60378145  0.59551855  0.60092623  1
  Rh  Rh238  1  0.20482587  0.80462735  0.39819018  1
  Rh  Rh239  1  0.00723701  0.40178371  0.79284919  1
  Rh  Rh240  1  0.39939504  0.79504145  0.20246591  1
  Rh  Rh241  1  -0.00116045  0.41124861  0.01369510  1
  Rh  Rh242  1  0.20050807  -0.00102259  0.20347077  1
  Rh  Rh243  1  0.79964809  0.38981216  0.21224145  1
  Rh  Rh244  1  0.20302821  0.79929724  0.19145730  1
  Rh  Rh245  1  0.79343009  0.59061734  0.80534865  1
  Rh  Rh246  1  0.39325018  -0.00760490  0.79873189  1
  Rh  Rh247  1  0.00414088  0.60076941  0.80994724  1
  Rh  Rh248  1  0.59752804  0.00544019  0.19533240  1
  Rh  Rh249  1  0.78936120  0.61024345  0.19261926  1
