# generated using pymatgen
data_ZrScNbPdRh
_symmetry_space_group_name_H-M   'P 1'
_cell_length_a   16.56517632
_cell_length_b   16.56045092
_cell_length_c   16.56091102
_cell_angle_alpha   89.98845028
_cell_angle_beta   89.99406230
_cell_angle_gamma   89.96730525
_symmetry_Int_Tables_number   1
_chemical_formula_structural   ZrScNbPdRh
_chemical_formula_sum   'Zr50 Sc50 Nb50 Pd50 Rh50'
_cell_volume   4543.10069436
_cell_formula_units_Z   50
loop_
 _symmetry_equiv_pos_site_id
 _symmetry_equiv_pos_as_xyz
  1  'x, y, z'
loop_
 _atom_site_type_symbol
 _atom_site_label
 _atom_site_symmetry_multiplicity
 _atom_site_fract_x
 _atom_site_fract_y
 _atom_site_fract_z
 _atom_site_occupancy
  Zr  Zr0  1  0.50885463  0.90821136  0.30522718  1
  Zr  Zr1  1  0.50300214  0.29683468  0.49869204  1
  Zr  Zr2  1  0.69371672  0.70356656  0.90423485  1
  Zr  Zr3  1  0.30055098  0.48974317  0.10856281  1
  Zr  Zr4  1  0.89460347  0.90803136  0.30442948  1
  Zr  Zr5  1  0.69863705  0.90288542  0.49433320  1
  Zr  Zr6  1  0.29931099  0.70489818  0.89549379  1
  Zr  Zr7  1  0.29986757  0.69810208  0.50285054  1
  Zr  Zr8  1  0.09399749  0.30578200  0.69830411  1
  Zr  Zr9  1  0.69680682  0.30143622  0.49719667  1
  Zr  Zr10  1  0.70176981  0.49252560  0.69635405  1
  Zr  Zr11  1  0.70174393  0.90619416  0.29722209  1
  Zr  Zr12  1  0.90565140  0.49483554  0.70058039  1
  Zr  Zr13  1  0.90056177  0.90625915  0.69776835  1
  Zr  Zr14  1  0.49606249  0.48854062  0.70497089  1
  Zr  Zr15  1  0.69860681  0.49174797  0.50216700  1
  Zr  Zr16  1  0.29675529  0.29456256  0.90078099  1
  Zr  Zr17  1  0.70103043  0.29499347  0.90476287  1
  Zr  Zr18  1  0.49693383  0.10218386  0.90535402  1
  Zr  Zr19  1  0.10601271  0.28731742  0.10253588  1
  Zr  Zr20  1  0.49575274  0.09800014  0.69338577  1
  Zr  Zr21  1  0.10431308  0.70454104  0.50361197  1
  Zr  Zr22  1  0.10332444  0.10561447  0.29488510  1
  Zr  Zr23  1  0.30066653  0.09918041  0.10553544  1
  Zr  Zr24  1  0.69497634  0.89383289  0.69847298  1
  Zr  Zr25  1  0.11173183  0.90872760  0.30023054  1
  Zr  Zr26  1  0.90273981  0.09204822  0.49820985  1
  Zr  Zr27  1  0.69843857  0.70872694  0.70286582  1
  Zr  Zr28  1  0.70278255  0.49821223  0.90192565  1
  Zr  Zr29  1  0.49466860  0.70115626  0.90045095  1
  Zr  Zr30  1  0.30217723  0.30444647  0.69591617  1
  Zr  Zr31  1  0.08625289  0.90546483  0.90566683  1
  Zr  Zr32  1  0.89719218  0.30040256  0.49054803  1
  Zr  Zr33  1  0.69977971  0.49954880  0.10072812  1
  Zr  Zr34  1  0.69506989  0.29500082  0.29884617  1
  Zr  Zr35  1  0.09579562  0.89750110  0.50764618  1
  Zr  Zr36  1  0.30321169  0.89437269  0.70363796  1
  Zr  Zr37  1  0.09565846  0.29843202  0.89664221  1
  Zr  Zr38  1  0.30540613  0.50772118  0.89538688  1
  Zr  Zr39  1  0.70911858  0.89408407  0.89814720  1
  Zr  Zr40  1  0.90459529  0.49629274  0.29009335  1
  Zr  Zr41  1  0.49362086  0.70613676  0.49972096  1
  Zr  Zr42  1  0.29551467  0.49609211  0.30161147  1
  Zr  Zr43  1  0.09644639  0.30623291  0.29903117  1
  Zr  Zr44  1  0.90106516  0.10132683  0.70028910  1
  Zr  Zr45  1  0.29549488  0.30914123  0.29628149  1
  Zr  Zr46  1  0.31118998  0.09784746  0.50091875  1
  Zr  Zr47  1  0.49718746  0.50435570  0.90482629  1
  Zr  Zr48  1  0.50872121  0.70054127  0.09548410  1
  Zr  Zr49  1  0.10205184  0.09433701  0.49675578  1
  Sc  Sc50  1  0.89883104  0.29665943  0.90101368  1
  Sc  Sc51  1  0.30052273  0.70354753  0.70559730  1
  Sc  Sc52  1  0.09564459  0.31450896  0.49932910  1
  Sc  Sc53  1  0.89408205  0.30030712  0.09866198  1
  Sc  Sc54  1  0.30213962  0.08774338  0.30692079  1
  Sc  Sc55  1  0.49873356  0.50554792  0.10489894  1
  Sc  Sc56  1  0.30901456  0.10140375  0.90230011  1
  Sc  Sc57  1  0.90716858  0.50039757  0.90461085  1
  Sc  Sc58  1  0.69934753  0.90467703  0.09950614  1
  Sc  Sc59  1  0.49677468  0.89513123  0.90739700  1
  Sc  Sc60  1  0.89030374  0.10214877  0.09654700  1
  Sc  Sc61  1  0.89719730  0.70601415  0.69255524  1
  Sc  Sc62  1  0.90509852  0.68455855  0.09711854  1
  Sc  Sc63  1  0.90268574  0.29958464  0.69843828  1
  Sc  Sc64  1  0.89188275  0.49691173  0.49724487  1
  Sc  Sc65  1  0.49246306  0.49899688  0.29579850  1
  Sc  Sc66  1  0.70347583  0.09449617  0.29261958  1
  Sc  Sc67  1  0.30973481  0.10433592  0.70682461  1
  Sc  Sc68  1  0.30942846  0.89983918  0.49926930  1
  Sc  Sc69  1  0.08555182  0.10677639  0.89974670  1
  Sc  Sc70  1  0.69950881  0.49726071  0.29369581  1
  Sc  Sc71  1  0.70530569  0.10220086  0.69227938  1
  Sc  Sc72  1  0.70366990  0.29457648  0.10197646  1
  Sc  Sc73  1  0.09415181  0.69583875  0.89663745  1
  Sc  Sc74  1  0.10738736  0.70747186  0.30394547  1
  Sc  Sc75  1  0.69920185  0.69898837  0.30010117  1
  Sc  Sc76  1  0.30647092  0.90497288  0.29885502  1
  Sc  Sc77  1  0.49276961  0.29749607  0.90306100  1
  Sc  Sc78  1  0.49968480  0.09538834  0.09468002  1
  Sc  Sc79  1  0.50162725  0.29681197  0.10230719  1
  Sc  Sc80  1  0.50133726  0.69839933  0.29682239  1
  Sc  Sc81  1  0.29683450  0.29768459  0.10228047  1
  Sc  Sc82  1  0.89827098  0.90955446  0.08344020  1
  Sc  Sc83  1  0.30647069  0.89597521  0.90190310  1
  Sc  Sc84  1  0.30649333  0.90510092  0.10741596  1
  Sc  Sc85  1  0.29515631  0.49721799  0.49975410  1
  Sc  Sc86  1  0.50026120  0.10371518  0.50037190  1
  Sc  Sc87  1  0.70117019  0.30239964  0.69665810  1
  Sc  Sc88  1  0.30721853  0.30746441  0.49943603  1
  Sc  Sc89  1  0.88947293  0.49647484  0.09580896  1
  Sc  Sc90  1  0.69949455  0.69451175  0.09776610  1
  Sc  Sc91  1  0.71477933  0.69820784  0.50004335  1
  Sc  Sc92  1  0.10906988  0.70826445  0.69910177  1
  Sc  Sc93  1  0.89565885  0.70076763  0.90192988  1
  Sc  Sc94  1  0.49767239  0.89976513  0.10232722  1
  Sc  Sc95  1  0.08805172  0.10543970  0.70289732  1
  Sc  Sc96  1  0.30578054  0.69991149  0.30834703  1
  Sc  Sc97  1  0.07923143  0.50329732  0.10035330  1
  Sc  Sc98  1  0.70011885  0.10544756  0.49960416  1
  Sc  Sc99  1  0.30700579  0.70777082  0.10730774  1
  Nb  Nb100  1  0.10342750  0.89985040  0.70281320  1
  Nb  Nb101  1  0.49864383  0.29381781  0.69566714  1
  Nb  Nb102  1  0.50427697  0.89084503  0.69155317  1
  Nb  Nb103  1  0.89955846  0.29458263  0.29961564  1
  Nb  Nb104  1  0.49946370  0.28999920  0.30412573  1
  Nb  Nb105  1  0.10115146  0.49390606  0.30520957  1
  Nb  Nb106  1  0.49834755  0.10707695  0.30712133  1
  Nb  Nb107  1  0.90114880  0.09901957  0.29916876  1
  Nb  Nb108  1  0.89377606  0.08585904  0.89747206  1
  Nb  Nb109  1  0.50176056  0.90036505  0.51221632  1
  Nb  Nb110  1  0.30078703  0.49922247  0.69852136  1
  Nb  Nb111  1  0.69483558  0.10073156  0.90237597  1
  Nb  Nb112  1  0.90595862  0.89382312  0.50046142  1
  Nb  Nb113  1  0.90967765  0.70380027  0.49344903  1
  Nb  Nb114  1  0.09616735  0.90058546  0.10120000  1
  Nb  Nb115  1  0.10071021  0.70169797  0.09975340  1
  Nb  Nb116  1  0.50472588  0.70709412  0.69803165  1
  Nb  Nb117  1  0.10247431  0.09600928  0.10391936  1
  Nb  Nb118  1  0.09863804  0.50125320  0.89399223  1
  Nb  Nb119  1  0.50001226  0.49990447  0.50355136  1
  Nb  Nb120  1  0.69860155  0.10312795  0.08476252  1
  Nb  Nb121  1  0.89908590  0.90752907  0.89582729  1
  Nb  Nb122  1  0.09885753  0.49717716  0.69544944  1
  Nb  Nb123  1  0.09729641  0.50146974  0.50013047  1
  Nb  Nb124  1  0.90165593  0.70291213  0.30336271  1
  Nb  Nb125  1  0.19405305  0.40854105  -0.00699260  1
  Nb  Nb126  1  0.59834771  0.19472061  0.80040284  1
  Nb  Nb127  1  0.81191787  0.79997821  0.20142354  1
  Nb  Nb128  1  0.19325676  -0.00202676  0.00090615  1
  Nb  Nb129  1  0.60063572  0.40115686  -0.00017714  1
  Nb  Nb130  1  0.00388988  0.60029479  0.59348017  1
  Nb  Nb131  1  0.19494969  -0.00179204  0.80245031  1
  Nb  Nb132  1  0.19948564  0.19895212  0.59623571  1
  Nb  Nb133  1  -0.00149331  0.80498975  0.19753753  1
  Nb  Nb134  1  0.79422849  0.59947415  0.79659911  1
  Nb  Nb135  1  0.40313443  0.19848093  0.21049068  1
  Nb  Nb136  1  0.59947967  0.00049723  0.80000563  1
  Nb  Nb137  1  -0.00336885  0.80957396  0.80001884  1
  Nb  Nb138  1  0.19285301  0.80106053  0.00583146  1
  Nb  Nb139  1  0.00084157  0.60086067  0.40090587  1
  Nb  Nb140  1  0.59683079  0.59512486  0.40968640  1
  Nb  Nb141  1  0.20110375  0.20268545  0.40336421  1
  Nb  Nb142  1  0.59931374  0.60080787  0.79390359  1
  Nb  Nb143  1  0.19452001  0.59743386  0.19811644  1
  Nb  Nb144  1  -0.00089601  0.00125234  0.19796625  1
  Nb  Nb145  1  0.19859894  0.40887381  0.79849092  1
  Nb  Nb146  1  0.20073705  0.00248495  0.60848996  1
  Nb  Nb147  1  0.40440881  0.59605759  0.60526988  1
  Nb  Nb148  1  0.19693566  0.59969240  0.00532103  1
  Nb  Nb149  1  0.59580329  0.60092445  0.60097564  1
  Pd  Pd150  1  0.60951390  0.79940284  0.19667538  1
  Pd  Pd151  1  0.79924262  -0.00389133  0.59395162  1
  Pd  Pd152  1  0.60206838  0.00420433  0.60188376  1
  Pd  Pd153  1  0.59572945  0.19010408  0.19477956  1
  Pd  Pd154  1  0.19802208  0.19506562  0.79199097  1
  Pd  Pd155  1  0.80537176  0.79496380  0.01026786  1
  Pd  Pd156  1  0.80165596  0.59584476  0.39480513  1
  Pd  Pd157  1  0.80872652  0.40139077  0.80507991  1
  Pd  Pd158  1  -0.00397538  0.79350415  -0.00028506  1
  Pd  Pd159  1  0.78945976  0.00234007  0.79588651  1
  Pd  Pd160  1  0.40064490  0.39405181  0.00644054  1
  Pd  Pd161  1  0.79666561  0.19128849  0.39439365  1
  Pd  Pd162  1  0.40509433  -0.00895350  0.80133106  1
  Pd  Pd163  1  0.80024517  0.40157709  0.38866124  1
  Pd  Pd164  1  0.00252141  0.39591496  0.00178633  1
  Pd  Pd165  1  0.00636421  0.20166199  0.40269709  1
  Pd  Pd166  1  0.59483163  0.39873588  0.19580642  1
  Pd  Pd167  1  0.79808832  0.60628442  0.20131100  1
  Pd  Pd168  1  0.59796810  0.00948785  0.19466712  1
  Pd  Pd169  1  0.60138665  -0.00923223  -0.00531273  1
  Pd  Pd170  1  0.19568916  0.59857982  0.39412059  1
  Pd  Pd171  1  0.39552319  0.39214312  0.80389241  1
  Pd  Pd172  1  -0.00979926  0.19547098  0.19472598  1
  Pd  Pd173  1  0.39326188  0.60380680  0.20096550  1
  Pd  Pd174  1  0.80204109  0.80532277  0.59398975  1
  Pd  Pd175  1  0.79741926  0.80218842  0.39614282  1
  Pd  Pd176  1  0.00258172  -0.00162647  0.39399379  1
  Pd  Pd177  1  -0.00238167  0.39305633  0.19210324  1
  Pd  Pd178  1  0.79715091  0.19797355  0.80133713  1
  Pd  Pd179  1  0.39010948  0.60512224  0.01026727  1
  Pd  Pd180  1  0.00354020  0.20395236  0.59025764  1
  Pd  Pd181  1  0.40757298  0.80290498  0.20638277  1
  Pd  Pd182  1  0.00498445  0.80179098  0.39107614  1
  Pd  Pd183  1  0.59933415  0.01015228  0.40583213  1
  Pd  Pd184  1  0.20872388  0.80973082  0.40372382  1
  Pd  Pd185  1  0.20181633  0.59740596  0.60651827  1
  Pd  Pd186  1  0.20039383  0.79785973  0.19786933  1
  Pd  Pd187  1  -0.00911480  0.19463134  0.00264493  1
  Pd  Pd188  1  -0.00644469  0.60997713  0.79048189  1
  Pd  Pd189  1  0.20056358  0.19132778  -0.00496406  1
  Pd  Pd190  1  0.60246070  0.79135173  0.40391965  1
  Pd  Pd191  1  0.40506711  0.40297803  0.39925573  1
  Pd  Pd192  1  0.59302503  0.40545739  0.39166579  1
  Pd  Pd193  1  0.80037528  0.19755118  0.20050852  1
  Pd  Pd194  1  0.59584975  0.39186532  0.80727162  1
  Pd  Pd195  1  0.19715603  0.59826824  0.79708064  1
  Pd  Pd196  1  0.40409582  0.80773360  0.39433590  1
  Pd  Pd197  1  0.00818232  0.60959624  0.21195976  1
  Pd  Pd198  1  0.80280220  0.20592777  0.59762910  1
  Pd  Pd199  1  0.80485594  0.59964633  0.60245721  1
  Rh  Rh200  1  0.19889344  -0.00144172  0.19364409  1
  Rh  Rh201  1  0.59137167  0.80549958  0.80835296  1
  Rh  Rh202  1  0.00259860  0.59972946  -0.00434891  1
  Rh  Rh203  1  0.60169557  0.59342658  -0.00243966  1
  Rh  Rh204  1  0.79988960  0.00398608  0.40712091  1
  Rh  Rh205  1  -0.00703281  0.40676161  0.59191913  1
  Rh  Rh206  1  0.21375190  0.19323879  0.21227376  1
  Rh  Rh207  1  0.40862796  0.80126299  0.79677916  1
  Rh  Rh208  1  0.39189573  -0.00313773  0.00171984  1
  Rh  Rh209  1  0.80150532  0.39053623  0.20388595  1
  Rh  Rh210  1  0.40354804  0.40252555  0.59714606  1
  Rh  Rh211  1  0.39854370  0.20192725  0.01425853  1
  Rh  Rh212  1  0.00036332  0.01363012  0.00742514  1
  Rh  Rh213  1  0.39406374  0.79814696  0.00589017  1
  Rh  Rh214  1  -0.00013003  0.79601474  0.60883396  1
  Rh  Rh215  1  0.39619947  0.20543219  0.59768950  1
  Rh  Rh216  1  0.79263426  0.00287293  -0.00358042  1
  Rh  Rh217  1  -0.01331772  0.20025843  0.80367190  1
  Rh  Rh218  1  0.18816606  0.80875296  0.81723112  1
  Rh  Rh219  1  0.60799310  0.79447574  0.58564989  1
  Rh  Rh220  1  0.41217723  -0.00573933  0.40473353  1
  Rh  Rh221  1  0.18106009  0.41004243  0.18577584  1
  Rh  Rh222  1  0.80306060  0.19530912  -0.00586169  1
  Rh  Rh223  1  0.80030938  0.59880456  -0.00743123  1
  Rh  Rh224  1  0.79423129  0.39645854  0.00042746  1
  Rh  Rh225  1  0.39057423  0.20368466  0.39417031  1
  Rh  Rh226  1  0.39824743  -0.00614412  0.60289498  1
  Rh  Rh227  1  0.80596356  0.39127530  0.59815700  1
  Rh  Rh228  1  0.60119228  0.20346447  0.60537794  1
  Rh  Rh229  1  0.40951568  0.38845792  0.20194895  1
  Rh  Rh230  1  0.39501995  0.79469903  0.60404846  1
  Rh  Rh231  1  0.40409111  0.59477427  0.40823248  1
  Rh  Rh232  1  0.60768841  0.19498692  0.39913757  1
  Rh  Rh233  1  0.19891536  0.39897855  0.60311383  1
  Rh  Rh234  1  0.60039719  0.80499150  0.00367652  1
  Rh  Rh235  1  0.00319814  -0.00096886  0.60308021  1
  Rh  Rh236  1  -0.00670597  0.40697668  0.39805516  1
  Rh  Rh237  1  0.20569637  -0.00020446  0.41090755  1
  Rh  Rh238  1  0.00174050  0.39836380  0.80324110  1
  Rh  Rh239  1  0.60010912  0.60015264  0.20938652  1
  Rh  Rh240  1  0.81164115  0.79618897  0.80087707  1
  Rh  Rh241  1  0.40729620  0.20456369  0.79843410  1
  Rh  Rh242  1  0.40849194  0.60802028  0.78758656  1
  Rh  Rh243  1  0.80349030  -0.00108847  0.19261170  1
  Rh  Rh244  1  0.41238471  0.00680914  0.20646222  1
  Rh  Rh245  1  0.00272248  -0.00078562  0.79414484  1
  Rh  Rh246  1  0.59520375  0.39423699  0.60050092  1
  Rh  Rh247  1  0.19957734  0.39634637  0.40755620  1
  Rh  Rh248  1  0.20870234  0.80914467  0.59607487  1
  Rh  Rh249  1  0.59684998  0.20671672  -0.00224020  1
