# generated using pymatgen
data_ZrScNbPdRh
_symmetry_space_group_name_H-M   'P 1'
_cell_length_a   16.55078374
_cell_length_b   16.54875755
_cell_length_c   16.54920104
_cell_angle_alpha   89.98973890
_cell_angle_beta   89.99722022
_cell_angle_gamma   90.02156747
_symmetry_Int_Tables_number   1
_chemical_formula_structural   ZrScNbPdRh
_chemical_formula_sum   'Zr50 Sc50 Nb50 Pd50 Rh50'
_cell_volume   4532.74148860
_cell_formula_units_Z   50
loop_
 _symmetry_equiv_pos_site_id
 _symmetry_equiv_pos_as_xyz
  1  'x, y, z'
loop_
 _atom_site_type_symbol
 _atom_site_label
 _atom_site_symmetry_multiplicity
 _atom_site_fract_x
 _atom_site_fract_y
 _atom_site_fract_z
 _atom_site_occupancy
  Zr  Zr0  1  0.29699571  0.69011541  0.30600559  1
  Zr  Zr1  1  0.89684294  0.50272892  0.69413218  1
  Zr  Zr2  1  0.09898822  0.30997515  0.69873715  1
  Zr  Zr3  1  0.68800302  0.69906498  0.90852895  1
  Zr  Zr4  1  0.09694653  0.89377184  0.69806895  1
  Zr  Zr5  1  0.09811257  0.31265137  0.89832198  1
  Zr  Zr6  1  0.30510216  0.50363431  0.29087070  1
  Zr  Zr7  1  0.90257755  0.90388072  0.08285730  1
  Zr  Zr8  1  0.69428768  0.89696873  0.10103622  1
  Zr  Zr9  1  0.89683649  0.09793209  0.90201209  1
  Zr  Zr10  1  0.30281845  0.09699500  0.70103023  1
  Zr  Zr11  1  0.89890459  0.89812198  0.69078163  1
  Zr  Zr12  1  0.29903055  0.90075559  0.89812892  1
  Zr  Zr13  1  0.70263720  0.69810311  0.30307891  1
  Zr  Zr14  1  0.89011873  0.10252501  0.70064784  1
  Zr  Zr15  1  0.88505133  0.69983493  0.49825621  1
  Zr  Zr16  1  0.89945613  0.69627593  0.29802324  1
  Zr  Zr17  1  0.70364317  0.09585915  0.89113053  1
  Zr  Zr18  1  0.49793221  0.49530940  0.50439326  1
  Zr  Zr19  1  0.30010713  0.09987836  0.90191681  1
  Zr  Zr20  1  0.89364245  0.69392841  0.90760608  1
  Zr  Zr21  1  0.30318560  0.50251561  0.50111348  1
  Zr  Zr22  1  0.29710176  0.30239968  0.90757887  1
  Zr  Zr23  1  0.48613269  0.69662302  0.70927587  1
  Zr  Zr24  1  0.10290553  0.10270618  0.49579686  1
  Zr  Zr25  1  0.10905778  0.29995599  0.30194344  1
  Zr  Zr26  1  0.90328311  0.10475695  0.10157242  1
  Zr  Zr27  1  0.49719655  0.69908750  0.50494354  1
  Zr  Zr28  1  0.70702848  0.89661501  0.90136907  1
  Zr  Zr29  1  0.29325160  0.49675396  0.90239482  1
  Zr  Zr30  1  0.50045803  0.09703776  0.50452025  1
  Zr  Zr31  1  0.70267647  0.30117684  0.30545892  1
  Zr  Zr32  1  0.10278223  0.89691233  0.30152294  1
  Zr  Zr33  1  0.70134145  0.69646316  0.10043699  1
  Zr  Zr34  1  0.69614781  0.30663167  0.10274703  1
  Zr  Zr35  1  0.69494563  0.30316993  0.50336518  1
  Zr  Zr36  1  0.89379630  0.29483760  0.29325986  1
  Zr  Zr37  1  0.49622843  0.90528252  0.49751202  1
  Zr  Zr38  1  0.89775418  0.09628590  0.50381086  1
  Zr  Zr39  1  0.70113521  0.89429420  0.50017363  1
  Zr  Zr40  1  0.10348319  0.69880392  0.70641850  1
  Zr  Zr41  1  0.88785790  0.30132279  0.50046850  1
  Zr  Zr42  1  0.50114250  0.69903933  0.30040464  1
  Zr  Zr43  1  0.50713876  0.89087181  0.89166197  1
  Zr  Zr44  1  0.10390365  0.10020398  0.70551869  1
  Zr  Zr45  1  0.70240349  0.10732573  0.50278400  1
  Zr  Zr46  1  0.49047361  0.09679468  0.30434254  1
  Zr  Zr47  1  0.10411099  0.30601261  0.50319127  1
  Zr  Zr48  1  0.29645569  0.29814208  0.49931734  1
  Zr  Zr49  1  0.50226507  0.31015540  0.90565897  1
  Sc  Sc50  1  0.11063285  0.10492197  0.29368481  1
  Sc  Sc51  1  0.69482534  0.10087704  0.30105770  1
  Sc  Sc52  1  0.30015285  0.69122887  0.10686012  1
  Sc  Sc53  1  0.50658286  0.10582905  0.89547231  1
  Sc  Sc54  1  0.11364837  0.71343277  0.49363469  1
  Sc  Sc55  1  0.71046696  0.69122030  0.70711050  1
  Sc  Sc56  1  0.29917634  0.30021028  0.29796921  1
  Sc  Sc57  1  0.50367224  0.49287747  0.10194297  1
  Sc  Sc58  1  0.09638784  0.69868760  0.29919156  1
  Sc  Sc59  1  0.31405492  0.09874378  0.49803306  1
  Sc  Sc60  1  0.11124995  0.10652583  0.89968704  1
  Sc  Sc61  1  0.30096752  0.30136345  0.69940016  1
  Sc  Sc62  1  0.90395357  0.30644052  0.88974445  1
  Sc  Sc63  1  0.91071414  0.89238054  0.30829197  1
  Sc  Sc64  1  0.88943722  0.50690953  0.29641617  1
  Sc  Sc65  1  0.69726462  0.50689883  0.10331353  1
  Sc  Sc66  1  0.69639883  0.30425058  0.89260689  1
  Sc  Sc67  1  0.30344753  0.49883765  0.70329759  1
  Sc  Sc68  1  0.50135133  0.90346120  0.29486750  1
  Sc  Sc69  1  0.10368103  0.90069781  0.09174469  1
  Sc  Sc70  1  0.69786160  0.10250514  0.69967923  1
  Sc  Sc71  1  0.51008194  0.69654963  0.10359772  1
  Sc  Sc72  1  0.49847098  0.30174302  0.50140870  1
  Sc  Sc73  1  0.49559678  0.49365270  0.70521396  1
  Sc  Sc74  1  0.69418573  0.50362966  0.29828426  1
  Sc  Sc75  1  0.11126593  0.49895331  0.29755320  1
  Sc  Sc76  1  0.89259953  0.30373559  0.70510225  1
  Sc  Sc77  1  0.50394669  0.89625682  0.69433250  1
  Sc  Sc78  1  0.70132814  0.30861097  0.70244730  1
  Sc  Sc79  1  0.69926472  0.90352537  0.70631097  1
  Sc  Sc80  1  0.29499869  0.69666304  0.88244505  1
  Sc  Sc81  1  0.49097065  0.30285508  0.30336753  1
  Sc  Sc82  1  0.69306825  0.89324727  0.30124296  1
  Sc  Sc83  1  0.10418764  0.69613525  0.89789716  1
  Sc  Sc84  1  0.30156688  0.91067481  0.09801196  1
  Sc  Sc85  1  0.90303805  0.69742145  0.69828101  1
  Sc  Sc86  1  0.69948820  0.50537338  0.89560280  1
  Sc  Sc87  1  0.69672822  0.09670774  0.09915811  1
  Sc  Sc88  1  0.50225249  0.30296748  0.70280311  1
  Sc  Sc89  1  0.30588837  0.90371479  0.29210555  1
  Sc  Sc90  1  0.30217886  0.10362676  0.29575183  1
  Sc  Sc91  1  0.49600911  0.09074739  0.10582145  1
  Sc  Sc92  1  0.30359562  0.30766440  0.10743135  1
  Sc  Sc93  1  0.11051599  0.29933615  0.10448334  1
  Sc  Sc94  1  0.30061509  0.89051591  0.70107941  1
  Sc  Sc95  1  0.49830841  0.89652492  0.10822311  1
  Sc  Sc96  1  0.10518721  0.89250322  0.89818608  1
  Sc  Sc97  1  0.09742195  0.50602425  0.08591667  1
  Sc  Sc98  1  0.70626781  0.49649525  0.50132261  1
  Sc  Sc99  1  0.69652941  0.70193583  0.49363735  1
  Nb  Nb100  1  0.90005876  0.30319606  0.10087933  1
  Nb  Nb101  1  0.49522878  0.50538060  0.90199682  1
  Nb  Nb102  1  0.09938287  0.90204618  0.49823555  1
  Nb  Nb103  1  0.69929128  0.49605858  0.69894775  1
  Nb  Nb104  1  0.90435404  0.50212300  0.50566532  1
  Nb  Nb105  1  0.90016742  0.10133703  0.29970248  1
  Nb  Nb106  1  0.90428948  0.50857029  0.09203240  1
  Nb  Nb107  1  0.49157837  0.51162945  0.30363977  1
  Nb  Nb108  1  0.30017603  0.70123627  0.50461724  1
  Nb  Nb109  1  0.09756907  0.49768286  0.88938140  1
  Nb  Nb110  1  0.09427635  0.49309742  0.51302706  1
  Nb  Nb111  1  0.09045350  0.70419821  0.09929584  1
  Nb  Nb112  1  0.29230202  0.89136116  0.49940346  1
  Nb  Nb113  1  0.29903054  0.69434475  0.69251337  1
  Nb  Nb114  1  0.89693313  0.90797506  0.89812471  1
  Nb  Nb115  1  0.91312709  0.49595611  0.91051776  1
  Nb  Nb116  1  0.49545971  0.09182057  0.69860110  1
  Nb  Nb117  1  0.30348811  0.50143379  0.10011375  1
  Nb  Nb118  1  0.90698080  0.68918831  0.10211689  1
  Nb  Nb119  1  0.09652849  0.49880432  0.69394385  1
  Nb  Nb120  1  0.10845299  0.10277539  0.10271448  1
  Nb  Nb121  1  0.49683611  0.69638765  0.90179483  1
  Nb  Nb122  1  0.50104073  0.29610536  0.09579966  1
  Nb  Nb123  1  0.90221424  0.90267182  0.50090259  1
  Nb  Nb124  1  0.29549268  0.10430285  0.09915451  1
  Nb  Nb125  1  0.00011305  0.20459881  0.00460835  1
  Nb  Nb126  1  0.39385115  0.79722767  0.40407628  1
  Nb  Nb127  1  0.19931270  0.59990346  0.59963998  1
  Nb  Nb128  1  0.59897121  0.59609998  0.60570096  1
  Nb  Nb129  1  0.60080350  -0.00573882  -0.00613160  1
  Nb  Nb130  1  -0.00315860  0.20428678  0.40027825  1
  Nb  Nb131  1  0.40008085  0.59825404  -0.00309330  1
  Nb  Nb132  1  0.40098020  0.20087830  0.00559371  1
  Nb  Nb133  1  0.19996695  -0.00715200  0.59343812  1
  Nb  Nb134  1  0.59310739  0.20627741  0.19810144  1
  Nb  Nb135  1  -0.00090328  0.20168730  0.59781475  1
  Nb  Nb136  1  0.40168355  0.79062461  -0.00446518  1
  Nb  Nb137  1  0.80691872  -0.00195269  0.39966141  1
  Nb  Nb138  1  -0.00382050  -0.00254170  0.80219666  1
  Nb  Nb139  1  0.19657943  0.79642528  0.19637742  1
  Nb  Nb140  1  0.80936234  0.79910925  0.19470570  1
  Nb  Nb141  1  -0.00297794  0.40232954  0.39905334  1
  Nb  Nb142  1  0.00093659  0.59077872  0.41003947  1
  Nb  Nb143  1  0.80866482  -0.00461878  0.20475777  1
  Nb  Nb144  1  0.40369086  0.00043046  0.79867571  1
  Nb  Nb145  1  0.20142417  -0.00611660  0.40484467  1
  Nb  Nb146  1  0.00047378  0.00496782  0.19716149  1
  Nb  Nb147  1  0.80917682  0.40268789  0.00312704  1
  Nb  Nb148  1  0.80346151  0.20794468  0.00160820  1
  Nb  Nb149  1  -0.00518201  0.40006712  0.19736067  1
  Pd  Pd150  1  0.60568727  0.79026845  0.79069210  1
  Pd  Pd151  1  0.00867836  0.20258014  0.20046096  1
  Pd  Pd152  1  0.40607114  0.20555490  0.60124755  1
  Pd  Pd153  1  0.00361583  0.00735051  0.39083919  1
  Pd  Pd154  1  0.59633006  0.20396708  0.60800461  1
  Pd  Pd155  1  0.00701569  0.58799972  0.20777111  1
  Pd  Pd156  1  0.20126705  0.19332245  0.60065389  1
  Pd  Pd157  1  0.59667890  0.59671895  0.79384014  1
  Pd  Pd158  1  0.19154548  0.59240076  0.41069277  1
  Pd  Pd159  1  -0.00842857  0.80193585  0.80954244  1
  Pd  Pd160  1  0.00164762  0.79001805  0.59001500  1
  Pd  Pd161  1  0.80626478  0.59279484  0.80615979  1
  Pd  Pd162  1  0.20193614  0.40860143  0.40050492  1
  Pd  Pd163  1  0.60904840  0.41028665  -0.00407121  1
  Pd  Pd164  1  0.79302463  0.79695912  0.60467765  1
  Pd  Pd165  1  0.41119807  -0.00058308  -0.00610816  1
  Pd  Pd166  1  0.59042429  0.39803557  0.21086885  1
  Pd  Pd167  1  0.60102854  0.59350292  0.40912950  1
  Pd  Pd168  1  -0.00387236  0.59745693  0.80348953  1
  Pd  Pd169  1  0.59959575  0.20249788  0.79237919  1
  Pd  Pd170  1  0.01514496  0.00941988  -0.00534507  1
  Pd  Pd171  1  0.18850893  0.60238434  0.19070928  1
  Pd  Pd172  1  0.80322802  0.40940948  0.39829862  1
  Pd  Pd173  1  0.39985629  0.80527597  0.59828785  1
  Pd  Pd174  1  0.80503351  0.79815424  0.79945632  1
  Pd  Pd175  1  -0.00050914  0.79528979  -0.00976763  1
  Pd  Pd176  1  0.60775980  -0.00104710  0.39833796  1
  Pd  Pd177  1  0.78819910  0.19295446  0.19594420  1
  Pd  Pd178  1  -0.00044723  0.19668116  0.80063625  1
  Pd  Pd179  1  0.20227853  0.60657025  -0.00005925  1
  Pd  Pd180  1  0.60705635  0.78746336  0.61000310  1
  Pd  Pd181  1  0.39211997  0.79512894  0.19740626  1
  Pd  Pd182  1  -0.00330414  0.78861491  0.40959575  1
  Pd  Pd183  1  0.20358290  0.21015745  0.79955558  1
  Pd  Pd184  1  0.60613049  -0.00022573  0.60317104  1
  Pd  Pd185  1  0.00555585  0.00573481  0.60700671  1
  Pd  Pd186  1  0.21089894  0.78955374  0.00761951  1
  Pd  Pd187  1  0.19655402  0.40141898  0.00874437  1
  Pd  Pd188  1  0.00086081  0.81013093  0.19217109  1
  Pd  Pd189  1  0.40310492  0.19955814  0.80622423  1
  Pd  Pd190  1  0.80349123  0.41326877  0.19313303  1
  Pd  Pd191  1  0.39473330  0.39965573  0.39865828  1
  Pd  Pd192  1  0.59683994  0.40522384  0.39496427  1
  Pd  Pd193  1  0.00911753  0.61551759  0.59191611  1
  Pd  Pd194  1  0.59991476  0.19142118  0.00496767  1
  Pd  Pd195  1  0.39792383  0.39802773  0.80298988  1
  Pd  Pd196  1  0.80289658  0.79337163  0.00520775  1
  Pd  Pd197  1  0.40692857  0.40207328  0.19912095  1
  Pd  Pd198  1  0.19508124  0.00134947  -0.00248975  1
  Pd  Pd199  1  0.59242797  0.20197767  0.39443022  1
  Rh  Rh200  1  0.40156755  0.60491998  0.40549960  1
  Rh  Rh201  1  0.39239774  -0.00913363  0.39934882  1
  Rh  Rh202  1  0.39603548  0.00476404  0.19934995  1
  Rh  Rh203  1  0.19643037  0.40929334  0.19315646  1
  Rh  Rh204  1  0.39794590  0.39387818  0.60106475  1
  Rh  Rh205  1  0.79804909  0.20790391  0.60620669  1
  Rh  Rh206  1  0.19607905  -0.00433570  0.20255506  1
  Rh  Rh207  1  0.60443019  0.00639284  0.19757395  1
  Rh  Rh208  1  0.40046243  0.59508073  0.60249492  1
  Rh  Rh209  1  0.59507189  0.59751579  0.20457067  1
  Rh  Rh210  1  0.40280990  0.19826670  0.19294549  1
  Rh  Rh211  1  0.80020632  0.19107493  0.39795378  1
  Rh  Rh212  1  0.20983409  0.40930845  0.60573318  1
  Rh  Rh213  1  0.39884919  0.20382035  0.40347130  1
  Rh  Rh214  1  0.58595146  0.80261648  0.39794415  1
  Rh  Rh215  1  0.21064207  0.20346660  0.19792215  1
  Rh  Rh216  1  0.00085622  0.39372435  0.00692776  1
  Rh  Rh217  1  -0.01159677  0.39001107  0.60143462  1
  Rh  Rh218  1  0.59001085  0.80418966  0.00486021  1
  Rh  Rh219  1  0.39545285  0.80333493  0.80342573  1
  Rh  Rh220  1  0.59965226  0.40550758  0.60313795  1
  Rh  Rh221  1  0.78935869  0.00631941  0.00481264  1
  Rh  Rh222  1  0.80249408  0.41021801  0.80734555  1
  Rh  Rh223  1  0.78896892  0.59856160  0.59724063  1
  Rh  Rh224  1  -0.00561522  0.41018979  0.79029243  1
  Rh  Rh225  1  0.00841326  0.60725132  -0.00824236  1
  Rh  Rh226  1  0.20194878  0.20515547  0.00532270  1
  Rh  Rh227  1  0.79880203  0.40191153  0.60266099  1
  Rh  Rh228  1  0.40883886  0.59674008  0.18859326  1
  Rh  Rh229  1  0.80127535  0.59383138  0.40374623  1
  Rh  Rh230  1  0.79790397  0.59317034  -0.00162786  1
  Rh  Rh231  1  0.59881022  0.40725870  0.80289754  1
  Rh  Rh232  1  0.80330662  0.80947224  0.39350681  1
  Rh  Rh233  1  0.20292784  0.79931850  0.79579307  1
  Rh  Rh234  1  0.79909428  0.60309729  0.19578775  1
  Rh  Rh235  1  0.21024638  0.80567230  0.38546166  1
  Rh  Rh236  1  0.19665276  0.79726361  0.60697304  1
  Rh  Rh237  1  0.19911294  -0.00781671  0.79275985  1
  Rh  Rh238  1  0.19740366  0.59000549  0.78924912  1
  Rh  Rh239  1  0.79483218  0.20588811  0.80570081  1
  Rh  Rh240  1  0.39203818  -0.00733309  0.60604246  1
  Rh  Rh241  1  0.39481549  0.59453053  0.80551936  1
  Rh  Rh242  1  0.59349596  0.00175340  0.80028384  1
  Rh  Rh243  1  0.60673934  0.79446244  0.20389733  1
  Rh  Rh244  1  0.80514755  -0.00524356  0.79242126  1
  Rh  Rh245  1  0.39927580  0.40312350  0.00434663  1
  Rh  Rh246  1  0.59373186  0.59412748  -0.00021576  1
  Rh  Rh247  1  0.79153002  -0.00499919  0.59478043  1
  Rh  Rh248  1  0.19936407  0.40357650  0.79375962  1
  Rh  Rh249  1  0.20482954  0.19198706  0.39822349  1
