# generated using pymatgen
data_ZrScNbPdRh
_symmetry_space_group_name_H-M   'P 1'
_cell_length_a   16.55931538
_cell_length_b   16.56142367
_cell_length_c   16.56322530
_cell_angle_alpha   90.00093242
_cell_angle_beta   90.01358073
_cell_angle_gamma   89.99925716
_symmetry_Int_Tables_number   1
_chemical_formula_structural   ZrScNbPdRh
_chemical_formula_sum   'Zr50 Sc50 Nb50 Pd50 Rh50'
_cell_volume   4542.39546770
_cell_formula_units_Z   50
loop_
 _symmetry_equiv_pos_site_id
 _symmetry_equiv_pos_as_xyz
  1  'x, y, z'
loop_
 _atom_site_type_symbol
 _atom_site_label
 _atom_site_symmetry_multiplicity
 _atom_site_fract_x
 _atom_site_fract_y
 _atom_site_fract_z
 _atom_site_occupancy
  Zr  Zr0  1  0.90191599  0.29876000  0.09649237  1
  Zr  Zr1  1  0.29784573  0.10346513  0.70915564  1
  Zr  Zr2  1  0.90552630  0.30730707  0.29275375  1
  Zr  Zr3  1  0.70493700  0.30945047  0.69971898  1
  Zr  Zr4  1  0.89754348  0.89920457  0.89989438  1
  Zr  Zr5  1  0.89814046  0.89352701  0.50073094  1
  Zr  Zr6  1  0.10870686  0.70490797  0.89916209  1
  Zr  Zr7  1  0.29202364  0.30597454  0.30601404  1
  Zr  Zr8  1  0.10694315  0.69825877  0.69877034  1
  Zr  Zr9  1  0.50031053  0.48963544  0.10469008  1
  Zr  Zr10  1  0.29630577  0.49219305  0.49567376  1
  Zr  Zr11  1  0.29251040  0.09643144  0.90805915  1
  Zr  Zr12  1  0.08793917  0.69581985  0.50439689  1
  Zr  Zr13  1  0.70272296  0.09172378  0.50305061  1
  Zr  Zr14  1  0.90274343  0.49907143  0.90095925  1
  Zr  Zr15  1  0.91391795  0.51327637  0.49460080  1
  Zr  Zr16  1  0.70686905  0.49640830  0.89887110  1
  Zr  Zr17  1  0.50162511  0.70597797  0.09896532  1
  Zr  Zr18  1  0.69741907  0.70190720  0.29751698  1
  Zr  Zr19  1  0.90078589  0.30438613  0.69333853  1
  Zr  Zr20  1  0.89086497  0.68994313  0.31224601  1
  Zr  Zr21  1  0.29397926  0.68946890  0.49727347  1
  Zr  Zr22  1  0.50211800  0.09589566  0.49647317  1
  Zr  Zr23  1  0.28849707  0.29411678  0.89423255  1
  Zr  Zr24  1  0.10548332  0.70099979  0.10652899  1
  Zr  Zr25  1  0.09817056  0.90071361  0.49550597  1
  Zr  Zr26  1  0.69377511  0.29865088  0.90239218  1
  Zr  Zr27  1  0.30013486  0.50054812  0.29640943  1
  Zr  Zr28  1  0.11049690  0.30744401  0.50434046  1
  Zr  Zr29  1  0.50169359  0.50094212  0.69738268  1
  Zr  Zr30  1  0.90320911  0.09617560  0.09770512  1
  Zr  Zr31  1  0.49769963  0.70848464  0.89007082  1
  Zr  Zr32  1  0.10164478  0.29538467  0.30090241  1
  Zr  Zr33  1  0.49989422  0.09876951  0.90626723  1
  Zr  Zr34  1  0.89504967  0.70787839  0.09881987  1
  Zr  Zr35  1  0.69628584  0.30333306  0.29852655  1
  Zr  Zr36  1  0.49744084  0.29810617  0.70920014  1
  Zr  Zr37  1  0.50583237  0.50008786  0.30390821  1
  Zr  Zr38  1  0.29834309  0.70870288  0.70677670  1
  Zr  Zr39  1  0.90315024  0.09573419  0.29931750  1
  Zr  Zr40  1  0.10105529  0.09976957  0.90706643  1
  Zr  Zr41  1  0.09250915  0.89369572  0.10032195  1
  Zr  Zr42  1  0.69908779  0.49782945  0.50750671  1
  Zr  Zr43  1  0.90702166  0.09909505  0.90017830  1
  Zr  Zr44  1  0.50107277  0.69813677  0.30555619  1
  Zr  Zr45  1  0.49363479  0.69752604  0.69861265  1
  Zr  Zr46  1  0.08772270  0.50159425  0.69934374  1
  Zr  Zr47  1  0.69415919  0.09802832  0.89768176  1
  Zr  Zr48  1  0.70082938  0.50580708  0.30064489  1
  Zr  Zr49  1  0.70777840  0.09790741  0.69728790  1
  Sc  Sc50  1  0.90408129  0.09518671  0.50355482  1
  Sc  Sc51  1  0.29365220  0.89492424  0.90475712  1
  Sc  Sc52  1  0.29226186  0.29463487  0.70043381  1
  Sc  Sc53  1  0.69509733  0.29767483  0.10066421  1
  Sc  Sc54  1  0.69916371  0.49885396  0.08927414  1
  Sc  Sc55  1  0.10266578  0.70978218  0.30033489  1
  Sc  Sc56  1  0.89806147  0.48708180  0.09671736  1
  Sc  Sc57  1  0.90284758  0.70167104  0.69314779  1
  Sc  Sc58  1  0.49390145  0.89952202  0.09676872  1
  Sc  Sc59  1  0.70086801  0.09985060  0.28949649  1
  Sc  Sc60  1  0.49902970  0.08998769  0.10248477  1
  Sc  Sc61  1  0.50388229  0.88853778  0.71275601  1
  Sc  Sc62  1  0.10729386  0.89889762  0.69228854  1
  Sc  Sc63  1  0.29630253  0.09413824  0.30619258  1
  Sc  Sc64  1  0.71043508  0.30433243  0.50895633  1
  Sc  Sc65  1  0.30420427  0.90090944  0.09995000  1
  Sc  Sc66  1  0.50409402  0.31196482  0.29143177  1
  Sc  Sc67  1  0.70936320  0.69832100  0.68835314  1
  Sc  Sc68  1  0.28689380  0.31112977  0.11241855  1
  Sc  Sc69  1  0.71211346  0.70597749  0.48984645  1
  Sc  Sc70  1  0.09771332  0.30377844  0.70025808  1
  Sc  Sc71  1  0.70403446  0.70149284  0.90799175  1
  Sc  Sc72  1  0.89930013  0.90163380  0.69637380  1
  Sc  Sc73  1  0.09929247  0.09893397  0.49492356  1
  Sc  Sc74  1  0.09568753  0.49375612  0.30608782  1
  Sc  Sc75  1  0.69443975  0.10726319  0.09986727  1
  Sc  Sc76  1  0.50079248  0.09286502  0.29350786  1
  Sc  Sc77  1  0.49978175  0.31915577  0.49971184  1
  Sc  Sc78  1  0.69895686  0.88737080  0.10463921  1
  Sc  Sc79  1  0.29899207  0.51461736  0.70499170  1
  Sc  Sc80  1  0.90352907  0.09499614  0.69373213  1
  Sc  Sc81  1  0.49415134  0.51113069  0.49907410  1
  Sc  Sc82  1  0.50740470  0.29234979  0.90085625  1
  Sc  Sc83  1  0.70822475  0.90375526  0.70028909  1
  Sc  Sc84  1  0.69951883  0.89437998  0.30566160  1
  Sc  Sc85  1  0.50731675  0.90822547  0.48515457  1
  Sc  Sc86  1  0.29790924  0.69791372  0.89132687  1
  Sc  Sc87  1  0.49935686  0.89875942  0.29054673  1
  Sc  Sc88  1  0.90810309  0.29804967  0.50697703  1
  Sc  Sc89  1  0.09718592  0.30891310  0.09943467  1
  Sc  Sc90  1  0.10281125  0.49422897  0.89469850  1
  Sc  Sc91  1  0.90549456  0.90561599  0.29487867  1
  Sc  Sc92  1  0.70301892  0.69749853  0.10030960  1
  Sc  Sc93  1  0.50215860  0.10475845  0.71077711  1
  Sc  Sc94  1  0.51322227  0.49338543  0.90376148  1
  Sc  Sc95  1  0.29140740  0.70074686  0.29541469  1
  Sc  Sc96  1  0.89364402  0.69952632  0.90242558  1
  Sc  Sc97  1  0.09869169  0.09552353  0.70237187  1
  Sc  Sc98  1  0.91058726  0.30036569  0.90885003  1
  Sc  Sc99  1  0.29083975  0.70362534  0.09856641  1
  Nb  Nb100  1  0.50100276  0.90145571  0.90043047  1
  Nb  Nb101  1  0.90284472  0.70573695  0.49872767  1
  Nb  Nb102  1  0.09821790  0.90089860  0.90318810  1
  Nb  Nb103  1  0.29859563  0.09516030  0.10041302  1
  Nb  Nb104  1  0.30696415  0.09733877  0.49850563  1
  Nb  Nb105  1  0.09646820  0.29909168  0.89813038  1
  Nb  Nb106  1  0.30039718  0.91182203  0.49464061  1
  Nb  Nb107  1  0.49476874  0.70674395  0.49870414  1
  Nb  Nb108  1  0.69869947  0.89828596  0.50184644  1
  Nb  Nb109  1  0.29485662  0.50419257  0.10026678  1
  Nb  Nb110  1  0.89434304  0.49734132  0.70357747  1
  Nb  Nb111  1  0.09334310  0.09229049  0.29761079  1
  Nb  Nb112  1  0.30119306  0.90176680  0.69496757  1
  Nb  Nb113  1  0.29900567  0.29413402  0.49920590  1
  Nb  Nb114  1  0.29436772  0.90223224  0.30449877  1
  Nb  Nb115  1  0.10424463  0.50540100  0.10312638  1
  Nb  Nb116  1  0.69932163  0.90308986  0.89584720  1
  Nb  Nb117  1  0.89872572  0.90089315  0.09378043  1
  Nb  Nb118  1  0.10244389  0.50576371  0.50838992  1
  Nb  Nb119  1  0.70703855  0.49818908  0.70270426  1
  Nb  Nb120  1  0.10430130  0.90741156  0.29925037  1
  Nb  Nb121  1  0.10336335  0.09597034  0.09887329  1
  Nb  Nb122  1  0.90213303  0.49986291  0.30049364  1
  Nb  Nb123  1  0.30442242  0.49982763  0.90185507  1
  Nb  Nb124  1  0.49504847  0.29694218  0.10342915  1
  Nb  Nb125  1  0.40216497  0.20322995  0.40071217  1
  Nb  Nb126  1  0.39849186  0.59364706  0.00170793  1
  Nb  Nb127  1  0.39364268  0.20039403  0.19992912  1
  Nb  Nb128  1  0.80755663  0.40335176  0.39759174  1
  Nb  Nb129  1  0.39948765  0.19808634  0.59087127  1
  Nb  Nb130  1  0.60094451  0.20321131  0.40411923  1
  Nb  Nb131  1  0.00524868  0.80279308  0.80262375  1
  Nb  Nb132  1  0.60851751  0.59659740  0.79365320  1
  Nb  Nb133  1  0.59669650  0.20111836  0.59653439  1
  Nb  Nb134  1  -0.00298712  0.59664515  0.19864620  1
  Nb  Nb135  1  0.39788170  -0.00426346  0.80321544  1
  Nb  Nb136  1  0.79930543  0.20377307  0.39837048  1
  Nb  Nb137  1  0.39863738  0.80790475  0.59107908  1
  Nb  Nb138  1  0.39722228  0.40083264  0.80781447  1
  Nb  Nb139  1  0.80351500  0.20022101  0.80021532  1
  Nb  Nb140  1  0.39886986  0.59766618  0.19391715  1
  Nb  Nb141  1  0.19515071  0.00002423  0.20100242  1
  Nb  Nb142  1  0.59721322  0.80088775  0.59096077  1
  Nb  Nb143  1  0.39347620  0.39737330  -0.00001768  1
  Nb  Nb144  1  0.39233988  0.20351636  0.01028024  1
  Nb  Nb145  1  0.79766554  -0.00593033  -0.00151776  1
  Nb  Nb146  1  0.00545249  0.59957665  0.00746753  1
  Nb  Nb147  1  0.39334048  0.80378879  0.40291121  1
  Nb  Nb148  1  0.00597378  0.19208782  0.19829249  1
  Nb  Nb149  1  0.39838059  -0.00139523  0.60483050  1
  Pd  Pd150  1  0.59760020  0.39780161  0.60310676  1
  Pd  Pd151  1  0.60709599  -0.00849258  0.00842391  1
  Pd  Pd152  1  0.60223738  0.80334203  -0.00179526  1
  Pd  Pd153  1  0.80468303  0.80411540  0.20804101  1
  Pd  Pd154  1  0.39350146  0.79342909  -0.00568474  1
  Pd  Pd155  1  0.60576101  -0.00790227  0.19509131  1
  Pd  Pd156  1  0.80586661  0.59231791  0.18976265  1
  Pd  Pd157  1  0.19930152  0.19191460  0.20003101  1
  Pd  Pd158  1  0.20704340  0.40734780  0.61100566  1
  Pd  Pd159  1  -0.00226438  0.60849216  0.80601201  1
  Pd  Pd160  1  0.60343671  0.61007703  0.59785973  1
  Pd  Pd161  1  0.20200570  0.80069787  0.40663577  1
  Pd  Pd162  1  -0.00256497  0.80238453  0.39094298  1
  Pd  Pd163  1  0.38941865  0.39589586  0.61139396  1
  Pd  Pd164  1  0.20158430  -0.00693442  0.80299980  1
  Pd  Pd165  1  0.19909589  0.19232677  0.60048709  1
  Pd  Pd166  1  0.79770728  0.19492313  -0.00599382  1
  Pd  Pd167  1  0.79358227  -0.00581500  0.19102441  1
  Pd  Pd168  1  0.40203129  0.39752999  0.39641808  1
  Pd  Pd169  1  0.00408520  -0.00910161  0.79492665  1
  Pd  Pd170  1  0.79340640  0.40494829  0.19874525  1
  Pd  Pd171  1  0.19023372  0.59717807  0.39382949  1
  Pd  Pd172  1  0.80029757  0.00154583  0.39873085  1
  Pd  Pd173  1  0.61721618  0.79012051  0.79103525  1
  Pd  Pd174  1  0.80977106  0.38959369  0.80976081  1
  Pd  Pd175  1  -0.00223510  0.20377419  0.79484130  1
  Pd  Pd176  1  0.19861785  0.20882345  0.00974114  1
  Pd  Pd177  1  0.20470500  0.79991629  0.58941450  1
  Pd  Pd178  1  0.20113206  0.00805609  0.59574101  1
  Pd  Pd179  1  0.80831060  0.59906342  0.59443778  1
  Pd  Pd180  1  0.19799921  0.40007031  -0.00145821  1
  Pd  Pd181  1  0.59448838  -0.00193186  0.79407225  1
  Pd  Pd182  1  0.00956414  0.19651544  0.60102276  1
  Pd  Pd183  1  0.60673569  0.00438521  0.38688304  1
  Pd  Pd184  1  0.39501911  0.79463774  0.20683371  1
  Pd  Pd185  1  -0.00758464  0.79414813  0.20985398  1
  Pd  Pd186  1  0.79789351  0.60682376  0.79971585  1
  Pd  Pd187  1  0.00011680  0.79230537  -0.00660408  1
  Pd  Pd188  1  -0.00491092  0.20103198  0.39798566  1
  Pd  Pd189  1  0.20006742  0.59942601  -0.00721675  1
  Pd  Pd190  1  0.20309484  0.40501045  0.79275716  1
  Pd  Pd191  1  0.80312406  0.79593485  0.79590184  1
  Pd  Pd192  1  0.60431842  0.60535837  0.41197972  1
  Pd  Pd193  1  0.80642151  0.19987419  0.20311930  1
  Pd  Pd194  1  0.00222316  0.39779681  0.40827365  1
  Pd  Pd195  1  0.58983215  -0.00704683  0.61130756  1
  Pd  Pd196  1  0.59454243  0.60492947  -0.00745216  1
  Pd  Pd197  1  0.39296721  0.60319534  0.59847932  1
  Pd  Pd198  1  0.59727501  0.60075020  0.19198722  1
  Pd  Pd199  1  0.20169370  0.19077907  0.40139050  1
  Rh  Rh200  1  0.58860003  0.19792002  0.01117133  1
  Rh  Rh201  1  0.00932959  0.60495898  0.39086441  1
  Rh  Rh202  1  -0.00711700  0.60175862  0.60717322  1
  Rh  Rh203  1  0.80933410  0.59714676  0.00432654  1
  Rh  Rh204  1  0.40005638  0.00186264  -0.00644972  1
  Rh  Rh205  1  0.01178681  0.20118411  0.00785109  1
  Rh  Rh206  1  0.39390448  0.40158765  0.19843468  1
  Rh  Rh207  1  0.59628507  0.40684525  0.79557407  1
  Rh  Rh208  1  0.58660717  0.19952666  0.20416395  1
  Rh  Rh209  1  0.19422239  0.40469539  0.40277440  1
  Rh  Rh210  1  0.20128153  0.59647183  0.60313141  1
  Rh  Rh211  1  0.81482742  0.41487220  0.58954543  1
  Rh  Rh212  1  0.79541077  0.80337504  0.59687216  1
  Rh  Rh213  1  0.41594135  0.58738102  0.81425220  1
  Rh  Rh214  1  0.59581839  0.39029980  0.00449578  1
  Rh  Rh215  1  0.39715278  0.60520738  0.39192325  1
  Rh  Rh216  1  0.19673201  0.59636232  0.20730416  1
  Rh  Rh217  1  0.00462119  0.40280335  0.19539135  1
  Rh  Rh218  1  0.80618141  -0.00620510  0.59535934  1
  Rh  Rh219  1  0.80436468  0.80637396  0.39651198  1
  Rh  Rh220  1  0.19124384  0.40836279  0.20517724  1
  Rh  Rh221  1  0.79234772  0.80825963  -0.00185234  1
  Rh  Rh222  1  0.00909130  0.40825571  -0.00135656  1
  Rh  Rh223  1  0.00175664  0.80101035  0.60637222  1
  Rh  Rh224  1  0.39111734  0.81228668  0.80114164  1
  Rh  Rh225  1  -0.00118128  0.40600664  0.59759284  1
  Rh  Rh226  1  0.19557491  0.80965219  0.79945393  1
  Rh  Rh227  1  0.19552953  0.59385684  0.80149489  1
  Rh  Rh228  1  0.18347031  0.19867102  0.79874922  1
  Rh  Rh229  1  0.39524474  0.19882879  0.81074850  1
  Rh  Rh230  1  0.40217604  -0.00204569  0.39459033  1
  Rh  Rh231  1  0.20269371  0.80306525  0.00229848  1
  Rh  Rh232  1  0.79705803  0.19573520  0.59926355  1
  Rh  Rh233  1  0.59809631  0.79856062  0.20037433  1
  Rh  Rh234  1  -0.00222578  -0.00319990  0.00222677  1
  Rh  Rh235  1  0.19518867  -0.01061171  0.00978293  1
  Rh  Rh236  1  0.80375062  0.00734826  0.80753062  1
  Rh  Rh237  1  0.61508223  0.20096238  0.78758221  1
  Rh  Rh238  1  0.59482738  0.79985050  0.40183761  1
  Rh  Rh239  1  0.60848254  0.40001724  0.40488482  1
  Rh  Rh240  1  0.38882242  0.00314897  0.20395066  1
  Rh  Rh241  1  -0.00189250  -0.00391071  0.40483818  1
  Rh  Rh242  1  0.00375910  -0.00386839  0.59767047  1
  Rh  Rh243  1  0.79729640  0.39184184  -0.00212876  1
  Rh  Rh244  1  0.19454146  0.00450432  0.39773855  1
  Rh  Rh245  1  0.00484140  0.00087459  0.19208966  1
  Rh  Rh246  1  0.20313231  0.81348581  0.19791498  1
  Rh  Rh247  1  -0.00319667  0.39559983  0.80049495  1
  Rh  Rh248  1  0.60876749  0.40174340  0.19345654  1
  Rh  Rh249  1  0.79627227  0.59248483  0.40735537  1
