# generated using pymatgen
data_ZrScNbPdRh
_symmetry_space_group_name_H-M   'P 1'
_cell_length_a   16.56170146
_cell_length_b   16.56163252
_cell_length_c   16.55789985
_cell_angle_alpha   90.01741506
_cell_angle_beta   89.98797304
_cell_angle_gamma   89.99679739
_symmetry_Int_Tables_number   1
_chemical_formula_structural   ZrScNbPdRh
_chemical_formula_sum   'Zr50 Sc50 Nb50 Pd50 Rh50'
_cell_volume   4541.64638464
_cell_formula_units_Z   50
loop_
 _symmetry_equiv_pos_site_id
 _symmetry_equiv_pos_as_xyz
  1  'x, y, z'
loop_
 _atom_site_type_symbol
 _atom_site_label
 _atom_site_symmetry_multiplicity
 _atom_site_fract_x
 _atom_site_fract_y
 _atom_site_fract_z
 _atom_site_occupancy
  Zr  Zr0  1  0.29933124  0.50538585  0.08921026  1
  Zr  Zr1  1  0.30212552  0.29534960  0.51291411  1
  Zr  Zr2  1  0.89905082  0.50217361  0.09758879  1
  Zr  Zr3  1  0.90270682  0.49302064  0.68912327  1
  Zr  Zr4  1  0.30296208  0.70011111  0.90277875  1
  Zr  Zr5  1  0.70893163  0.50257313  0.29775437  1
  Zr  Zr6  1  0.90353086  0.10167826  0.90823077  1
  Zr  Zr7  1  0.50610048  0.10211264  0.30834870  1
  Zr  Zr8  1  0.29957587  0.10034953  0.08763040  1
  Zr  Zr9  1  0.49995577  0.29705523  0.09373853  1
  Zr  Zr10  1  0.70189855  0.10276227  0.10239046  1
  Zr  Zr11  1  0.69963785  0.70193202  0.90309832  1
  Zr  Zr12  1  0.90621223  0.90173860  0.90851158  1
  Zr  Zr13  1  0.89175758  0.90149854  0.30396823  1
  Zr  Zr14  1  0.30002090  0.49231494  0.70872160  1
  Zr  Zr15  1  0.29654849  0.09354978  0.31332640  1
  Zr  Zr16  1  0.69616041  0.28994883  0.29603753  1
  Zr  Zr17  1  0.69637238  0.89042877  0.10853547  1
  Zr  Zr18  1  0.09724254  0.90516761  0.28660717  1
  Zr  Zr19  1  0.30254265  0.70791854  0.29855744  1
  Zr  Zr20  1  0.69716365  0.69802297  0.69887637  1
  Zr  Zr21  1  0.69845449  0.29302622  0.09569600  1
  Zr  Zr22  1  0.90339406  0.09567568  0.49170429  1
  Zr  Zr23  1  0.28826154  0.30300784  0.10041404  1
  Zr  Zr24  1  0.49788259  0.89929754  0.69879646  1
  Zr  Zr25  1  0.69881275  0.08954134  0.30229576  1
  Zr  Zr26  1  0.69530456  0.29466670  0.69550728  1
  Zr  Zr27  1  0.90242388  0.10167981  0.69998559  1
  Zr  Zr28  1  0.10118800  0.49949255  0.70274666  1
  Zr  Zr29  1  0.49801319  0.51169254  0.49440740  1
  Zr  Zr30  1  0.70351802  0.50784835  0.10317940  1
  Zr  Zr31  1  0.50741504  0.71047917  0.10444781  1
  Zr  Zr32  1  0.90498954  0.09596625  0.29352270  1
  Zr  Zr33  1  0.90669358  0.50202008  0.49266594  1
  Zr  Zr34  1  0.10345238  0.29563908  0.28987029  1
  Zr  Zr35  1  0.49858394  0.49900668  0.09414984  1
  Zr  Zr36  1  0.31193883  0.69718260  0.50102525  1
  Zr  Zr37  1  0.10349713  0.71401516  0.89562588  1
  Zr  Zr38  1  0.90487733  0.90183287  0.10192159  1
  Zr  Zr39  1  0.89528145  0.30790830  0.51119380  1
  Zr  Zr40  1  0.30038526  0.10656458  0.70073641  1
  Zr  Zr41  1  0.49924962  0.09611438  0.69771622  1
  Zr  Zr42  1  0.09586777  0.10081535  0.30713280  1
  Zr  Zr43  1  0.49688974  0.29895090  0.30428559  1
  Zr  Zr44  1  0.29197288  0.89918029  0.29949405  1
  Zr  Zr45  1  0.30379278  0.70209586  0.70455149  1
  Zr  Zr46  1  0.50275806  0.69867617  0.49670806  1
  Zr  Zr47  1  0.50388415  0.51049819  0.30048494  1
  Zr  Zr48  1  0.10649569  0.49433620  0.09821266  1
  Zr  Zr49  1  0.49408205  0.29283787  0.70429334  1
  Sc  Sc50  1  0.69245309  0.50099907  0.69367767  1
  Sc  Sc51  1  0.10561952  0.50142606  0.89732194  1
  Sc  Sc52  1  0.90089948  0.70699636  0.30180489  1
  Sc  Sc53  1  0.90136280  0.70929288  0.69709064  1
  Sc  Sc54  1  0.49909814  0.09991192  0.09214351  1
  Sc  Sc55  1  0.10314230  0.90197078  0.49735108  1
  Sc  Sc56  1  0.10050601  0.49523489  0.30731653  1
  Sc  Sc57  1  0.30219864  0.91045558  0.49517386  1
  Sc  Sc58  1  0.29419986  0.30437269  0.30925764  1
  Sc  Sc59  1  0.30066130  0.89534624  0.89363299  1
  Sc  Sc60  1  0.90054643  0.30209432  0.30146916  1
  Sc  Sc61  1  0.48802893  0.10029463  0.89973249  1
  Sc  Sc62  1  0.49982246  0.69836549  0.68883569  1
  Sc  Sc63  1  0.29785203  0.29655206  0.89585697  1
  Sc  Sc64  1  0.70027295  0.69437523  0.50711604  1
  Sc  Sc65  1  0.48792910  0.90131976  0.90025118  1
  Sc  Sc66  1  0.90144949  0.70404757  0.90418402  1
  Sc  Sc67  1  0.09213678  0.10728104  0.10404492  1
  Sc  Sc68  1  0.50103729  0.50006006  0.70431353  1
  Sc  Sc69  1  0.68944628  0.08989643  0.50377064  1
  Sc  Sc70  1  0.11501355  0.09766105  0.70369663  1
  Sc  Sc71  1  0.49327668  0.50004171  0.89908281  1
  Sc  Sc72  1  0.50070478  0.90167852  0.29759778  1
  Sc  Sc73  1  0.50228060  0.90374264  0.50664428  1
  Sc  Sc74  1  0.91681511  0.50086926  0.89946610  1
  Sc  Sc75  1  0.29735978  0.91211187  0.70580273  1
  Sc  Sc76  1  0.09798965  0.29752452  0.90310257  1
  Sc  Sc77  1  0.49585071  0.89786834  0.10019913  1
  Sc  Sc78  1  0.10350918  0.30259936  0.49558348  1
  Sc  Sc79  1  0.89891455  0.70073004  0.50171720  1
  Sc  Sc80  1  0.49541670  0.29860531  0.50245680  1
  Sc  Sc81  1  0.30048119  0.89178867  0.10144301  1
  Sc  Sc82  1  0.09947252  0.10811541  0.89788739  1
  Sc  Sc83  1  0.29765585  0.49817051  0.30247209  1
  Sc  Sc84  1  0.11258738  0.70348880  0.09885058  1
  Sc  Sc85  1  0.49696697  0.30216989  0.89988672  1
  Sc  Sc86  1  0.68591692  0.50515412  0.89587112  1
  Sc  Sc87  1  0.90312672  0.28822204  0.09488599  1
  Sc  Sc88  1  0.70781294  0.10106433  0.91015376  1
  Sc  Sc89  1  0.10850812  0.29654249  0.70936003  1
  Sc  Sc90  1  0.69831052  0.69796145  0.28798877  1
  Sc  Sc91  1  0.70935182  0.50485507  0.50263139  1
  Sc  Sc92  1  0.10320725  0.71031356  0.29924462  1
  Sc  Sc93  1  0.08727662  0.70552370  0.50194905  1
  Sc  Sc94  1  0.71325878  0.89096935  0.91105191  1
  Sc  Sc95  1  0.69031191  0.29435645  0.90110524  1
  Sc  Sc96  1  0.69919774  0.30134389  0.50647373  1
  Sc  Sc97  1  0.30711526  0.49249492  0.50392601  1
  Sc  Sc98  1  0.09283136  0.70677341  0.70613042  1
  Sc  Sc99  1  0.70327828  0.70171232  0.09762275  1
  Nb  Nb100  1  0.89582163  0.69361923  0.10325974  1
  Nb  Nb101  1  0.29089201  0.09537129  0.50953692  1
  Nb  Nb102  1  0.90102168  0.49952887  0.29440364  1
  Nb  Nb103  1  0.29599645  0.09171234  0.89534363  1
  Nb  Nb104  1  0.10261496  0.29910203  0.10172065  1
  Nb  Nb105  1  0.89349188  0.89824358  0.50568494  1
  Nb  Nb106  1  0.90073961  0.89973503  0.69678181  1
  Nb  Nb107  1  0.30290103  0.70005634  0.10523265  1
  Nb  Nb108  1  0.70127206  0.90002116  0.49817480  1
  Nb  Nb109  1  0.89830324  0.29734043  0.70158516  1
  Nb  Nb110  1  0.50603313  0.70681469  0.89256984  1
  Nb  Nb111  1  0.30581842  0.49937070  0.89815666  1
  Nb  Nb112  1  0.09987550  0.90348126  0.09011187  1
  Nb  Nb113  1  0.50186742  0.69765712  0.30444035  1
  Nb  Nb114  1  0.10289022  0.10088814  0.50617927  1
  Nb  Nb115  1  0.09745174  0.50790811  0.50434372  1
  Nb  Nb116  1  0.30163410  0.29881620  0.70149900  1
  Nb  Nb117  1  0.10076741  0.89843558  0.89997321  1
  Nb  Nb118  1  0.48462578  0.09200692  0.49892495  1
  Nb  Nb119  1  0.69802877  0.90028091  0.30633262  1
  Nb  Nb120  1  0.69804471  0.09654602  0.70223486  1
  Nb  Nb121  1  0.89835835  0.09725076  0.09225681  1
  Nb  Nb122  1  0.09824713  0.89590425  0.70400766  1
  Nb  Nb123  1  0.90074680  0.29507323  0.89295465  1
  Nb  Nb124  1  0.69917594  0.90208492  0.68944654  1
  Nb  Nb125  1  0.80020542  -0.00223501  0.79283415  1
  Nb  Nb126  1  0.00089781  -0.00223003  0.60296834  1
  Nb  Nb127  1  0.59890742  0.40012012  0.20107673  1
  Nb  Nb128  1  0.00295887  0.19620437  0.60108747  1
  Nb  Nb129  1  0.80226268  0.39801588  -0.00963512  1
  Nb  Nb130  1  0.40143477  0.40126500  0.19668977  1
  Nb  Nb131  1  0.19798321  0.60218042  0.59939145  1
  Nb  Nb132  1  0.39927178  0.60472366  0.19705599  1
  Nb  Nb133  1  0.19559888  -0.00359628  -0.00397644  1
  Nb  Nb134  1  0.39627852  0.19925969  0.20276088  1
  Nb  Nb135  1  0.80212811  0.59475605  0.79731924  1
  Nb  Nb136  1  -0.00015155  -0.00658524  0.79724217  1
  Nb  Nb137  1  0.00134977  0.40207159  0.19516147  1
  Nb  Nb138  1  0.79912130  0.19493592  0.40122673  1
  Nb  Nb139  1  0.60157990  0.40400086  0.39475510  1
  Nb  Nb140  1  0.80061516  0.20004153  0.79608910  1
  Nb  Nb141  1  0.80241948  0.39679973  0.80098406  1
  Nb  Nb142  1  0.60341184  0.80724391  0.79646951  1
  Nb  Nb143  1  0.19757228  0.60183487  0.41145690  1
  Nb  Nb144  1  0.39531563  0.00750943  0.20219587  1
  Nb  Nb145  1  0.60236613  -0.00506031  -0.00386071  1
  Nb  Nb146  1  -0.00156927  0.59508179  0.19929188  1
  Nb  Nb147  1  0.61033456  -0.00516218  0.80136038  1
  Nb  Nb148  1  0.20045408  0.79920598  0.60314031  1
  Nb  Nb149  1  0.60484801  0.80142012  0.39968409  1
  Pd  Pd150  1  0.20259116  0.20032160  0.40804427  1
  Pd  Pd151  1  0.20275549  0.00535897  0.18893495  1
  Pd  Pd152  1  -0.00620573  0.60650932  0.79634839  1
  Pd  Pd153  1  0.40718127  0.60285037  0.79780430  1
  Pd  Pd154  1  0.00488025  0.60543997  0.38940142  1
  Pd  Pd155  1  0.19691381  0.60496572  -0.00806202  1
  Pd  Pd156  1  -0.00275630  0.39121407  0.00337477  1
  Pd  Pd157  1  0.20591485  0.18957538  0.20200374  1
  Pd  Pd158  1  -0.00014310  0.79136062  0.00858583  1
  Pd  Pd159  1  0.40992232  0.81021717  0.39970850  1
  Pd  Pd160  1  0.39096819  0.81128711  0.59928916  1
  Pd  Pd161  1  0.60147847  0.39791513  0.79959800  1
  Pd  Pd162  1  0.00231866  0.39540544  0.39515682  1
  Pd  Pd163  1  0.59402753  0.60413540  0.00068815  1
  Pd  Pd164  1  0.60210463  0.18846905  0.80868200  1
  Pd  Pd165  1  0.39889868  0.79840708  0.00026989  1
  Pd  Pd166  1  0.20041350  0.40584232  0.40827572  1
  Pd  Pd167  1  0.01113542  0.60984334  0.00586589  1
  Pd  Pd168  1  0.00102427  0.60671351  0.60649319  1
  Pd  Pd169  1  0.40913462  0.61227531  0.00065458  1
  Pd  Pd170  1  -0.00242758  0.80948588  0.40297237  1
  Pd  Pd171  1  0.79115377  0.79220193  0.40122397  1
  Pd  Pd172  1  0.00173863  0.79168616  0.19132374  1
  Pd  Pd173  1  0.79901161  0.79987881  0.79705300  1
  Pd  Pd174  1  0.80200670  0.59185028  -0.01477240  1
  Pd  Pd175  1  0.80809203  0.19915478  0.20433326  1
  Pd  Pd176  1  0.19954849  0.60305682  0.79865512  1
  Pd  Pd177  1  0.60559311  0.20264806  0.41444317  1
  Pd  Pd178  1  0.79414861  0.39349298  0.40122177  1
  Pd  Pd179  1  0.39454442  0.20600654  -0.00432322  1
  Pd  Pd180  1  0.79718600  0.79618161  0.59797451  1
  Pd  Pd181  1  0.20223554  0.39777576  -0.01200271  1
  Pd  Pd182  1  -0.00531878  0.21037644  0.40635715  1
  Pd  Pd183  1  0.00342516  -0.00990735  0.40466928  1
  Pd  Pd184  1  0.59491221  0.40574798  0.59041315  1
  Pd  Pd185  1  0.19905051  0.59836984  0.21178603  1
  Pd  Pd186  1  0.80276489  0.39086565  0.18965586  1
  Pd  Pd187  1  0.40928157  0.40342939  0.60393846  1
  Pd  Pd188  1  0.39098184  0.19928387  0.40406947  1
  Pd  Pd189  1  0.19489099  0.40234116  0.59987179  1
  Pd  Pd190  1  0.59061261  0.00030576  0.19224857  1
  Pd  Pd191  1  0.60730524  0.40287302  0.00067568  1
  Pd  Pd192  1  0.59184482  0.19263759  0.59235469  1
  Pd  Pd193  1  0.80005588  -0.00351307  0.19483574  1
  Pd  Pd194  1  0.00193271  0.39603783  0.79816870  1
  Pd  Pd195  1  0.80141082  0.19144619  0.59593214  1
  Pd  Pd196  1  0.01338414  0.38783970  0.60437767  1
  Pd  Pd197  1  0.80198142  0.00411301  0.59801167  1
  Pd  Pd198  1  0.19841665  0.79511656  0.41163845  1
  Pd  Pd199  1  0.80141958  0.60895036  0.39572628  1
  Rh  Rh200  1  0.40655484  0.79657671  0.79642093  1
  Rh  Rh201  1  0.20286891  0.39811874  0.80600563  1
  Rh  Rh202  1  0.40329724  0.80046166  0.20495076  1
  Rh  Rh203  1  0.40119999  0.19437453  0.59885096  1
  Rh  Rh204  1  -0.00771073  0.80525756  0.80310518  1
  Rh  Rh205  1  0.59605350  0.00077812  0.60060001  1
  Rh  Rh206  1  0.80874966  0.59925031  0.60728959  1
  Rh  Rh207  1  0.59566519  0.59592809  0.59851816  1
  Rh  Rh208  1  0.19033097  0.00068416  0.40366989  1
  Rh  Rh209  1  0.80975464  0.60853931  0.20742346  1
  Rh  Rh210  1  0.40319709  0.00332324  0.79825249  1
  Rh  Rh211  1  0.59841796  0.80163786  0.21157930  1
  Rh  Rh212  1  0.59525048  -0.00912341  0.40654654  1
  Rh  Rh213  1  0.19604538  -0.00734226  0.59996739  1
  Rh  Rh214  1  0.39395592  0.00126715  0.60261898  1
  Rh  Rh215  1  -0.00426958  0.20247625  0.19754791  1
  Rh  Rh216  1  0.01028637  0.00651253  -0.00234832  1
  Rh  Rh217  1  0.20530172  0.20225478  0.80325325  1
  Rh  Rh218  1  0.80123617  0.20801314  -0.00691202  1
  Rh  Rh219  1  0.59506555  0.18691346  -0.00692067  1
  Rh  Rh220  1  -0.00087774  0.19564648  0.79427771  1
  Rh  Rh221  1  0.80213646  0.80049272  0.20054093  1
  Rh  Rh222  1  0.19996511  0.40407344  0.20142396  1
  Rh  Rh223  1  0.58974564  0.19950470  0.19392177  1
  Rh  Rh224  1  0.00332974  0.81054740  0.59489802  1
  Rh  Rh225  1  0.00346165  0.20224789  0.00190873  1
  Rh  Rh226  1  0.60448850  0.80098469  0.59593439  1
  Rh  Rh227  1  0.40619275  0.40216982  0.39780457  1
  Rh  Rh228  1  0.39976730  0.39582312  0.80346667  1
  Rh  Rh229  1  0.38734252  0.59807648  0.38923880  1
  Rh  Rh230  1  0.40353573  -0.00440556  0.39529364  1
  Rh  Rh231  1  0.60006269  0.60886596  0.79902978  1
  Rh  Rh232  1  0.39458927  -0.00588416  0.00332590  1
  Rh  Rh233  1  0.79804504  0.00303446  0.40394751  1
  Rh  Rh234  1  0.20714480  0.80527015  0.00038805  1
  Rh  Rh235  1  0.19509620  0.20490058  0.60086142  1
  Rh  Rh236  1  0.39372259  0.58972052  0.60874240  1
  Rh  Rh237  1  0.59535786  0.59992938  0.19273254  1
  Rh  Rh238  1  0.79320142  0.40380565  0.60702024  1
  Rh  Rh239  1  0.59381390  0.80833252  -0.01209187  1
  Rh  Rh240  1  0.19596750  0.80437963  0.19304732  1
  Rh  Rh241  1  0.39524846  0.19921967  0.80175803  1
  Rh  Rh242  1  0.39059048  0.39627496  -0.00238938  1
  Rh  Rh243  1  0.79285707  -0.00507354  0.00847865  1
  Rh  Rh244  1  -0.00021664  0.00284873  0.19331467  1
  Rh  Rh245  1  0.61324069  0.60419294  0.40260515  1
  Rh  Rh246  1  0.19297712  -0.00203590  0.80837845  1
  Rh  Rh247  1  0.19591422  0.19384426  -0.00383541  1
  Rh  Rh248  1  0.80972908  0.79797005  0.01149888  1
  Rh  Rh249  1  0.20471201  0.80256252  0.79483328  1
