# generated using pymatgen
data_ZrScNbPdRh
_symmetry_space_group_name_H-M   'P 1'
_cell_length_a   16.55109973
_cell_length_b   16.55263067
_cell_length_c   16.55693181
_cell_angle_alpha   89.98854806
_cell_angle_beta   89.99341720
_cell_angle_gamma   89.98546286
_symmetry_Int_Tables_number   1
_chemical_formula_structural   ZrScNbPdRh
_chemical_formula_sum   'Zr50 Sc50 Nb50 Pd50 Rh50'
_cell_volume   4536.00698821
_cell_formula_units_Z   50
loop_
 _symmetry_equiv_pos_site_id
 _symmetry_equiv_pos_as_xyz
  1  'x, y, z'
loop_
 _atom_site_type_symbol
 _atom_site_label
 _atom_site_symmetry_multiplicity
 _atom_site_fract_x
 _atom_site_fract_y
 _atom_site_fract_z
 _atom_site_occupancy
  Zr  Zr0  1  0.29394562  0.09888461  0.29451663  1
  Zr  Zr1  1  0.90002591  0.71639682  0.29126286  1
  Zr  Zr2  1  0.70041881  0.30113719  0.50493400  1
  Zr  Zr3  1  0.10413698  0.30208185  0.50345023  1
  Zr  Zr4  1  0.49975902  0.49923694  0.90019648  1
  Zr  Zr5  1  0.49902496  0.89408666  0.70236422  1
  Zr  Zr6  1  0.10374576  0.90181835  0.69624594  1
  Zr  Zr7  1  0.89436801  0.30184791  0.50320023  1
  Zr  Zr8  1  0.89719377  0.69458615  0.90356805  1
  Zr  Zr9  1  0.09972466  0.50542621  0.50323224  1
  Zr  Zr10  1  0.30206917  0.89702094  0.69525700  1
  Zr  Zr11  1  0.09337374  0.69664269  0.90038655  1
  Zr  Zr12  1  0.29744112  0.51004294  0.09545858  1
  Zr  Zr13  1  0.10184275  0.09520165  0.29620305  1
  Zr  Zr14  1  0.10709542  0.50172036  0.69923967  1
  Zr  Zr15  1  0.89966496  0.10843163  0.70423712  1
  Zr  Zr16  1  0.70532194  0.90557290  0.29805669  1
  Zr  Zr17  1  0.30305947  0.70244366  0.29779250  1
  Zr  Zr18  1  0.90677802  0.50437782  0.49614485  1
  Zr  Zr19  1  0.50135420  0.90598428  0.89933744  1
  Zr  Zr20  1  0.69859077  0.09640100  0.10375298  1
  Zr  Zr21  1  0.29822515  0.29808216  0.29686272  1
  Zr  Zr22  1  0.69149707  0.89243642  0.90137644  1
  Zr  Zr23  1  0.89479289  0.29896806  0.70606779  1
  Zr  Zr24  1  0.70497447  0.70936310  0.29810876  1
  Zr  Zr25  1  0.50240776  0.29616149  0.29484415  1
  Zr  Zr26  1  0.90386340  0.89711127  0.69690129  1
  Zr  Zr27  1  0.50312707  0.50658074  0.50713052  1
  Zr  Zr28  1  0.10186568  0.29797714  0.90151027  1
  Zr  Zr29  1  0.30148721  0.29440019  0.50743867  1
  Zr  Zr30  1  0.09781919  0.29678233  0.29339894  1
  Zr  Zr31  1  0.09169754  0.10079264  0.09494951  1
  Zr  Zr32  1  0.90026293  0.50482611  0.69788961  1
  Zr  Zr33  1  0.08864320  0.30316658  0.10088377  1
  Zr  Zr34  1  0.30724375  0.49121681  0.89916524  1
  Zr  Zr35  1  0.50301192  0.90280790  0.50626987  1
  Zr  Zr36  1  0.70468283  0.29673620  0.69277021  1
  Zr  Zr37  1  0.69968899  0.29683919  0.30711222  1
  Zr  Zr38  1  0.89367135  0.49433689  0.09569872  1
  Zr  Zr39  1  0.89204685  0.69930020  0.69627948  1
  Zr  Zr40  1  0.49149131  0.70052965  0.10041498  1
  Zr  Zr41  1  0.50037757  0.30723069  0.09473944  1
  Zr  Zr42  1  0.70034974  0.10218707  0.50372386  1
  Zr  Zr43  1  0.50184942  0.69020197  0.69635853  1
  Zr  Zr44  1  0.10366682  0.89744594  0.50051792  1
  Zr  Zr45  1  0.30237151  0.70658619  0.09785779  1
  Zr  Zr46  1  0.30146803  0.50698992  0.69491042  1
  Zr  Zr47  1  0.49686018  0.29868399  0.69368646  1
  Zr  Zr48  1  0.69062499  0.09308153  0.30126697  1
  Zr  Zr49  1  0.08916758  0.49557456  0.30064382  1
  Sc  Sc50  1  0.89247322  0.09050400  0.30769861  1
  Sc  Sc51  1  0.10580686  0.69496625  0.08852701  1
  Sc  Sc52  1  0.30547964  0.90045210  0.90347862  1
  Sc  Sc53  1  0.90551172  0.31322020  0.29814969  1
  Sc  Sc54  1  0.70066219  0.50625600  0.90650640  1
  Sc  Sc55  1  0.69491434  0.50436382  0.69276123  1
  Sc  Sc56  1  0.29815861  0.29040528  0.69976797  1
  Sc  Sc57  1  0.09447847  0.50205738  0.90631775  1
  Sc  Sc58  1  0.10616917  0.69897694  0.70068063  1
  Sc  Sc59  1  0.29114826  0.70262018  0.90515804  1
  Sc  Sc60  1  0.29955174  0.30363272  0.09608054  1
  Sc  Sc61  1  0.50429987  0.09912311  0.50969301  1
  Sc  Sc62  1  0.29999449  0.70154720  0.69813565  1
  Sc  Sc63  1  0.70388252  0.69839417  0.09382519  1
  Sc  Sc64  1  0.90602070  0.88987723  0.90189480  1
  Sc  Sc65  1  0.09905639  0.89822362  0.30874526  1
  Sc  Sc66  1  0.30253636  0.70372696  0.50300757  1
  Sc  Sc67  1  0.29835017  0.09412037  0.50611641  1
  Sc  Sc68  1  0.69577042  0.50362097  0.09605998  1
  Sc  Sc69  1  0.50785119  0.51104279  0.30587651  1
  Sc  Sc70  1  0.50730235  0.69937109  0.89700517  1
  Sc  Sc71  1  0.29944899  0.50676020  0.29554803  1
  Sc  Sc72  1  0.70225610  0.50301598  0.29524633  1
  Sc  Sc73  1  0.70347467  0.70697993  0.50725257  1
  Sc  Sc74  1  0.09909063  0.90125742  0.89770537  1
  Sc  Sc75  1  0.70284312  0.49719959  0.50340322  1
  Sc  Sc76  1  0.71263468  0.30488549  0.89267424  1
  Sc  Sc77  1  0.69926352  0.69919683  0.70037622  1
  Sc  Sc78  1  0.90633215  0.89694051  0.50045104  1
  Sc  Sc79  1  0.50121534  0.70261571  0.50024298  1
  Sc  Sc80  1  0.09979461  0.08720786  0.50145425  1
  Sc  Sc81  1  0.69343451  0.09362259  0.89799593  1
  Sc  Sc82  1  0.91307296  0.10183879  0.90248367  1
  Sc  Sc83  1  0.49946932  0.10138179  0.10282786  1
  Sc  Sc84  1  0.29795725  0.09616840  0.69945969  1
  Sc  Sc85  1  0.90469169  0.09457655  0.50259388  1
  Sc  Sc86  1  0.89785243  0.88781012  0.10177963  1
  Sc  Sc87  1  0.70150605  0.31395942  0.10163261  1
  Sc  Sc88  1  0.90319918  0.30599706  0.89995033  1
  Sc  Sc89  1  0.10006881  0.29006044  0.70406566  1
  Sc  Sc90  1  0.09812079  0.09551292  0.70923593  1
  Sc  Sc91  1  0.10842712  0.90811564  0.09232924  1
  Sc  Sc92  1  0.50166823  0.08765459  0.69633551  1
  Sc  Sc93  1  0.69685096  0.89610784  0.50133022  1
  Sc  Sc94  1  0.51021854  0.29812256  0.50314537  1
  Sc  Sc95  1  0.29319953  0.89978168  0.30581571  1
  Sc  Sc96  1  0.29700225  0.89731849  0.50335263  1
  Sc  Sc97  1  0.68984798  0.89324150  0.70145221  1
  Sc  Sc98  1  0.49842320  0.70396238  0.30539721  1
  Sc  Sc99  1  0.90102023  0.50054203  0.89907098  1
  Nb  Nb100  1  0.29008248  0.08411834  0.10078212  1
  Nb  Nb101  1  0.50047130  0.50121465  0.09300974  1
  Nb  Nb102  1  0.09756461  0.49972689  0.09929208  1
  Nb  Nb103  1  0.50567073  0.90722492  0.29946555  1
  Nb  Nb104  1  0.69695397  0.69651960  0.89811986  1
  Nb  Nb105  1  0.09843342  0.70119750  0.49142173  1
  Nb  Nb106  1  0.90176006  0.69605981  0.09903828  1
  Nb  Nb107  1  0.10387627  0.10237975  0.90280752  1
  Nb  Nb108  1  0.30892084  0.29550121  0.89598090  1
  Nb  Nb109  1  0.49953735  0.09807870  0.29670422  1
  Nb  Nb110  1  0.29352010  0.49730176  0.50273591  1
  Nb  Nb111  1  0.30531043  0.89494055  0.09987464  1
  Nb  Nb112  1  0.90410634  0.10148374  0.09790432  1
  Nb  Nb113  1  0.49711355  0.50200520  0.70350163  1
  Nb  Nb114  1  0.10093519  0.70203774  0.30009074  1
  Nb  Nb115  1  0.90178887  0.29107311  0.10076736  1
  Nb  Nb116  1  0.90506014  0.50801298  0.30254946  1
  Nb  Nb117  1  0.89949419  0.69938980  0.49999192  1
  Nb  Nb118  1  0.49203071  0.89418914  0.09906226  1
  Nb  Nb119  1  0.49703076  0.10668913  0.89878370  1
  Nb  Nb120  1  0.69163761  0.90405354  0.09938863  1
  Nb  Nb121  1  0.89794708  0.89862965  0.29587023  1
  Nb  Nb122  1  0.48588923  0.30074414  0.89719998  1
  Nb  Nb123  1  0.30428550  0.10921447  0.90157953  1
  Nb  Nb124  1  0.70291262  0.10211902  0.70599692  1
  Nb  Nb125  1  0.40225670  0.19678385  0.39640717  1
  Nb  Nb126  1  0.79994545  -0.00125506  0.00026683  1
  Nb  Nb127  1  -0.00561587  -0.00373893  0.19997559  1
  Nb  Nb128  1  0.39795626  -0.00492125  0.19906720  1
  Nb  Nb129  1  0.79908901  0.19511087  0.00576015  1
  Nb  Nb130  1  0.80382238  0.19917737  0.19779076  1
  Nb  Nb131  1  0.59123079  0.39673783  0.79867229  1
  Nb  Nb132  1  0.00296110  0.20035684  0.39876686  1
  Nb  Nb133  1  0.39757290  0.39864453  0.40091765  1
  Nb  Nb134  1  0.20291939  0.79874721  0.19655888  1
  Nb  Nb135  1  0.39804919  0.40563774  0.59757964  1
  Nb  Nb136  1  0.59437831  0.20297697  0.80413616  1
  Nb  Nb137  1  0.20699655  0.39650455  0.80300208  1
  Nb  Nb138  1  0.20479194  0.19398156  -0.00362269  1
  Nb  Nb139  1  0.59674208  0.80955097  0.19569382  1
  Nb  Nb140  1  0.19515705  0.60048098  0.40011398  1
  Nb  Nb141  1  0.59736431  0.20592439  -0.00878009  1
  Nb  Nb142  1  0.79889979  -0.00236478  0.80210560  1
  Nb  Nb143  1  0.00015897  0.40085876  0.60202868  1
  Nb  Nb144  1  0.79820951  0.00110095  0.61083505  1
  Nb  Nb145  1  0.40534434  0.40707830  0.19910516  1
  Nb  Nb146  1  -0.00278202  0.60341133  0.19711049  1
  Nb  Nb147  1  0.40677136  0.00509755  0.39308103  1
  Nb  Nb148  1  0.81062285  0.60674227  0.39821285  1
  Nb  Nb149  1  0.20361709  0.40337451  0.40173416  1
  Pd  Pd150  1  0.60476517  0.39426990  -0.01323319  1
  Pd  Pd151  1  0.20358614  0.00027721  -0.01146234  1
  Pd  Pd152  1  0.79828234  0.41059007  0.39662033  1
  Pd  Pd153  1  0.40409858  0.19032814  0.78611174  1
  Pd  Pd154  1  0.01010466  0.40091288  0.79510481  1
  Pd  Pd155  1  0.01571566  0.80293327  0.18863824  1
  Pd  Pd156  1  0.20510888  0.40480385  0.20203666  1
  Pd  Pd157  1  0.60815283  0.20490984  0.19164156  1
  Pd  Pd158  1  0.00524293  0.79103031  0.60114212  1
  Pd  Pd159  1  0.20144057  0.59383104  0.80863744  1
  Pd  Pd160  1  0.40080514  0.79247902  0.80415897  1
  Pd  Pd161  1  0.80875369  0.00031229  0.19175092  1
  Pd  Pd162  1  0.79433058  0.59562006  0.80099134  1
  Pd  Pd163  1  0.59504973  0.00628836  0.00189062  1
  Pd  Pd164  1  0.19955179  0.80348662  0.80380878  1
  Pd  Pd165  1  -0.00398154  0.80330427  0.40026562  1
  Pd  Pd166  1  0.20106296  0.20073692  0.18365872  1
  Pd  Pd167  1  0.19859016  0.19830610  0.40588298  1
  Pd  Pd168  1  0.39208790  0.59661951  0.40574717  1
  Pd  Pd169  1  0.59467793  0.79322555  0.00500378  1
  Pd  Pd170  1  0.39619726  0.60911446  0.80618524  1
  Pd  Pd171  1  0.80868296  0.19967779  0.39526228  1
  Pd  Pd172  1  0.80381076  0.60114893  0.20125070  1
  Pd  Pd173  1  0.79653352  0.80181881  0.00219359  1
  Pd  Pd174  1  0.39668798  0.19464846  0.01224863  1
  Pd  Pd175  1  0.79554037  0.80399289  0.79953724  1
  Pd  Pd176  1  0.80262652  0.39819644  0.20322792  1
  Pd  Pd177  1  0.00696746  0.80254570  0.00686184  1
  Pd  Pd178  1  0.19021242  0.60503350  0.20118732  1
  Pd  Pd179  1  0.60081316  0.80180743  0.39538557  1
  Pd  Pd180  1  0.39483160  0.19673566  0.19426424  1
  Pd  Pd181  1  0.20192325  0.39569659  -0.00417557  1
  Pd  Pd182  1  0.20819154  -0.00131710  0.80646654  1
  Pd  Pd183  1  0.80061278  -0.00918515  0.41379394  1
  Pd  Pd184  1  0.59522287  0.41001738  0.20416139  1
  Pd  Pd185  1  0.40305173  0.00530298  0.00519569  1
  Pd  Pd186  1  0.40073611  0.60657073  -0.00943576  1
  Pd  Pd187  1  0.19268589  0.18684199  0.60430248  1
  Pd  Pd188  1  0.59789561  0.61011127  0.19620206  1
  Pd  Pd189  1  0.00207122  0.79353315  0.79495497  1
  Pd  Pd190  1  0.40106019  0.81085461  0.40137285  1
  Pd  Pd191  1  0.00420912  0.60511785  0.60640406  1
  Pd  Pd192  1  0.00372065  0.20019136  0.59502468  1
  Pd  Pd193  1  0.61636973  0.60583517  0.40606626  1
  Pd  Pd194  1  0.59307069  0.19343352  0.40388589  1
  Pd  Pd195  1  0.79017144  0.41391319  0.79634970  1
  Pd  Pd196  1  0.59809135  0.40414748  0.39874070  1
  Pd  Pd197  1  0.40912381  0.59380103  0.20317031  1
  Pd  Pd198  1  -0.00413435  -0.00140165  0.80317504  1
  Pd  Pd199  1  0.39555810  0.00393924  0.79961579  1
  Rh  Rh200  1  0.39764560  -0.00453287  0.59433116  1
  Rh  Rh201  1  -0.00435413  0.00105991  0.60647440  1
  Rh  Rh202  1  -0.00005983  0.00084025  0.39150194  1
  Rh  Rh203  1  0.78926330  0.80467966  0.18849089  1
  Rh  Rh204  1  -0.01304685  0.18619972  0.21598582  1
  Rh  Rh205  1  0.80058125  0.80708510  0.59998077  1
  Rh  Rh206  1  0.80184328  0.19226098  0.59610548  1
  Rh  Rh207  1  -0.00678797  0.40947068  0.19105963  1
  Rh  Rh208  1  0.40314422  0.79837477  -0.01135411  1
  Rh  Rh209  1  0.60361420  0.60288819  0.59826424  1
  Rh  Rh210  1  0.59641311  0.00272883  0.40774175  1
  Rh  Rh211  1  0.59963132  0.60451400  0.00183889  1
  Rh  Rh212  1  -0.00206238  0.61562904  0.39003596  1
  Rh  Rh213  1  0.40281038  0.79792662  0.60055778  1
  Rh  Rh214  1  0.60265014  0.19375951  0.60994649  1
  Rh  Rh215  1  0.60411384  0.59369810  0.80162819  1
  Rh  Rh216  1  0.00071123  0.20105185  0.80569614  1
  Rh  Rh217  1  0.00501983  0.38913786  0.40806107  1
  Rh  Rh218  1  0.19876911  -0.00205400  0.60313589  1
  Rh  Rh219  1  0.80256029  0.39424794  0.00050745  1
  Rh  Rh220  1  0.19836377  0.80414575  0.00102993  1
  Rh  Rh221  1  0.59804438  0.79212905  0.79805697  1
  Rh  Rh222  1  -0.00429593  0.59553957  0.00652694  1
  Rh  Rh223  1  0.79782281  0.60118238  0.59044055  1
  Rh  Rh224  1  0.58815089  -0.00619164  0.19092901  1
  Rh  Rh225  1  0.59581538  0.79483456  0.60342511  1
  Rh  Rh226  1  0.19953399  0.39590191  0.60800778  1
  Rh  Rh227  1  0.80787936  0.40603481  0.60383513  1
  Rh  Rh228  1  0.39690399  0.39931799  0.78663376  1
  Rh  Rh229  1  0.00059684  0.20492235  -0.00712327  1
  Rh  Rh230  1  0.59302735  0.40606348  0.60643857  1
  Rh  Rh231  1  -0.00462184  0.40086926  0.00242474  1
  Rh  Rh232  1  0.60011654  0.00331347  0.79861265  1
  Rh  Rh233  1  0.19726887  0.79682854  0.59871887  1
  Rh  Rh234  1  0.19892025  0.59598792  -0.00574610  1
  Rh  Rh235  1  -0.00820439  -0.00786731  0.00437553  1
  Rh  Rh236  1  0.20154270  0.20084565  0.80781002  1
  Rh  Rh237  1  0.40370811  0.19842164  0.59650187  1
  Rh  Rh238  1  0.61009596  -0.00100635  0.60414906  1
  Rh  Rh239  1  0.39816103  0.59934516  0.59503318  1
  Rh  Rh240  1  0.19739991  -0.01296582  0.20231327  1
  Rh  Rh241  1  0.79666153  0.18909776  0.81572810  1
  Rh  Rh242  1  -0.00209331  0.60478739  0.79899204  1
  Rh  Rh243  1  0.80509619  0.80089237  0.40596272  1
  Rh  Rh244  1  0.39628806  0.40280663  0.00922142  1
  Rh  Rh245  1  0.79950323  0.60210888  -0.00175462  1
  Rh  Rh246  1  0.40019756  0.80917358  0.21053989  1
  Rh  Rh247  1  0.19895029  0.61381924  0.59028087  1
  Rh  Rh248  1  0.20617616  -0.00116259  0.40434476  1
  Rh  Rh249  1  0.20180073  0.79148844  0.39688082  1
