# generated using pymatgen
data_ZrScNbPdRh
_symmetry_space_group_name_H-M   'P 1'
_cell_length_a   16.55194323
_cell_length_b   16.55542956
_cell_length_c   16.55806182
_cell_angle_alpha   89.98212452
_cell_angle_beta   90.00403332
_cell_angle_gamma   89.98926031
_symmetry_Int_Tables_number   1
_chemical_formula_structural   ZrScNbPdRh
_chemical_formula_sum   'Zr50 Sc50 Nb50 Pd50 Rh50'
_cell_volume   4537.31479834
_cell_formula_units_Z   50
loop_
 _symmetry_equiv_pos_site_id
 _symmetry_equiv_pos_as_xyz
  1  'x, y, z'
loop_
 _atom_site_type_symbol
 _atom_site_label
 _atom_site_symmetry_multiplicity
 _atom_site_fract_x
 _atom_site_fract_y
 _atom_site_fract_z
 _atom_site_occupancy
  Zr  Zr0  1  0.09426200  0.10045495  0.30364750  1
  Zr  Zr1  1  0.49490890  0.89696117  0.10235754  1
  Zr  Zr2  1  0.69204561  0.70690008  0.10692618  1
  Zr  Zr3  1  0.90370813  0.09512361  0.69906078  1
  Zr  Zr4  1  0.10465531  0.70835367  0.09553553  1
  Zr  Zr5  1  0.90148570  0.30372209  0.49704159  1
  Zr  Zr6  1  0.68391697  0.10688264  0.90722561  1
  Zr  Zr7  1  0.10618427  0.49400550  0.30213706  1
  Zr  Zr8  1  0.09498910  0.49709005  0.89607401  1
  Zr  Zr9  1  0.09976424  0.89353872  0.09527980  1
  Zr  Zr10  1  0.49690497  0.09565897  0.29884752  1
  Zr  Zr11  1  0.90054340  0.48932870  0.30462487  1
  Zr  Zr12  1  0.30143177  0.69936567  0.30951809  1
  Zr  Zr13  1  0.69999034  0.29537941  0.10013178  1
  Zr  Zr14  1  0.90252415  0.49911629  0.89930340  1
  Zr  Zr15  1  0.50724283  0.90001303  0.30658577  1
  Zr  Zr16  1  0.70362539  0.49903155  0.50219441  1
  Zr  Zr17  1  0.10551039  0.49519669  0.09377233  1
  Zr  Zr18  1  0.49359877  0.50735800  0.90239796  1
  Zr  Zr19  1  0.90024805  0.70969931  0.09428579  1
  Zr  Zr20  1  0.89575753  0.10409652  0.11099030  1
  Zr  Zr21  1  0.50118141  0.70598550  0.90683084  1
  Zr  Zr22  1  0.90514329  0.69438089  0.50720875  1
  Zr  Zr23  1  0.10572643  0.70257383  0.30771325  1
  Zr  Zr24  1  0.90144757  0.10253813  0.88759392  1
  Zr  Zr25  1  0.50539627  0.28691750  0.89219001  1
  Zr  Zr26  1  0.28800977  0.49904141  0.90059057  1
  Zr  Zr27  1  0.49774139  0.49223060  0.50111767  1
  Zr  Zr28  1  0.30613464  0.89662209  0.29121657  1
  Zr  Zr29  1  0.89947104  0.29132943  0.30000206  1
  Zr  Zr30  1  0.89569743  0.90138235  0.10166606  1
  Zr  Zr31  1  0.09737228  0.10263595  0.10205930  1
  Zr  Zr32  1  0.10038596  0.69963916  0.49939573  1
  Zr  Zr33  1  0.10950706  0.09174897  0.50083768  1
  Zr  Zr34  1  0.09600498  0.09028282  0.69958347  1
  Zr  Zr35  1  0.49877788  0.90361088  0.90646478  1
  Zr  Zr36  1  0.30048096  0.09635462  0.30750771  1
  Zr  Zr37  1  0.49715361  0.49825309  0.30316778  1
  Zr  Zr38  1  0.31084539  0.90351659  0.50489310  1
  Zr  Zr39  1  0.10232492  0.30099846  0.49680283  1
  Zr  Zr40  1  0.09776749  0.29851861  0.30407063  1
  Zr  Zr41  1  0.90031524  0.90020883  0.89587327  1
  Zr  Zr42  1  0.70449414  0.49561351  0.89463971  1
  Zr  Zr43  1  0.10315176  0.30594319  0.89857513  1
  Zr  Zr44  1  0.10799147  0.10182509  0.89355286  1
  Zr  Zr45  1  0.49487283  0.50979966  0.10413207  1
  Zr  Zr46  1  0.89820314  0.49599303  0.09879279  1
  Zr  Zr47  1  0.09885049  0.69889001  0.69587541  1
  Zr  Zr48  1  0.30139029  0.89185109  0.09593633  1
  Zr  Zr49  1  0.31078472  0.29597702  0.69970619  1
  Sc  Sc50  1  0.49050210  0.70644439  0.49241543  1
  Sc  Sc51  1  0.70474577  0.10370504  0.69672633  1
  Sc  Sc52  1  0.69784490  0.10861371  0.49625961  1
  Sc  Sc53  1  0.70214694  0.49880645  0.10005052  1
  Sc  Sc54  1  0.30056045  0.08847783  0.09337673  1
  Sc  Sc55  1  0.30132535  0.09992724  0.50153951  1
  Sc  Sc56  1  0.89311434  0.10194935  0.49620644  1
  Sc  Sc57  1  0.70431332  0.89948574  0.48509043  1
  Sc  Sc58  1  0.29697428  0.30898718  0.30368664  1
  Sc  Sc59  1  0.69842280  0.89963061  0.10724270  1
  Sc  Sc60  1  0.71418642  0.69864966  0.49794151  1
  Sc  Sc61  1  0.90348428  0.50410071  0.70371144  1
  Sc  Sc62  1  0.30539547  0.49848697  0.30378204  1
  Sc  Sc63  1  0.50529744  0.29631340  0.50215328  1
  Sc  Sc64  1  0.10185212  0.30682253  0.09992507  1
  Sc  Sc65  1  0.69800307  0.70354948  0.90166200  1
  Sc  Sc66  1  0.69985063  0.49158134  0.29979892  1
  Sc  Sc67  1  0.29464442  0.70356000  0.70742993  1
  Sc  Sc68  1  0.90449669  0.69198280  0.69750368  1
  Sc  Sc69  1  0.50605015  0.08853259  0.09427444  1
  Sc  Sc70  1  0.30118168  0.90292065  0.70581250  1
  Sc  Sc71  1  0.89751654  0.70436816  0.31378813  1
  Sc  Sc72  1  0.09849635  0.50442181  0.70316148  1
  Sc  Sc73  1  0.10197222  0.50176150  0.50347514  1
  Sc  Sc74  1  0.50003929  0.69918129  0.29315675  1
  Sc  Sc75  1  0.89683143  0.70049636  0.89809001  1
  Sc  Sc76  1  0.69708511  0.29644817  0.30246790  1
  Sc  Sc77  1  0.70167883  0.29659772  0.89209805  1
  Sc  Sc78  1  0.69176793  0.89722216  0.89134370  1
  Sc  Sc79  1  0.90521867  0.90268437  0.49811593  1
  Sc  Sc80  1  0.49939297  0.09998497  0.49205880  1
  Sc  Sc81  1  0.29694333  0.09785053  0.70096375  1
  Sc  Sc82  1  0.29382086  0.50258378  0.69653847  1
  Sc  Sc83  1  0.50832133  0.30051126  0.69050997  1
  Sc  Sc84  1  0.09261867  0.29940785  0.69531527  1
  Sc  Sc85  1  0.50196260  0.10791330  0.70824556  1
  Sc  Sc86  1  0.70397200  0.69959455  0.70485742  1
  Sc  Sc87  1  0.29562066  0.49958287  0.49771952  1
  Sc  Sc88  1  0.49196488  0.70723555  0.71192725  1
  Sc  Sc89  1  0.29935433  0.29691537  0.50395782  1
  Sc  Sc90  1  0.70203408  0.09880677  0.30074023  1
  Sc  Sc91  1  0.49974244  0.30456188  0.10820912  1
  Sc  Sc92  1  0.10646956  0.70284567  0.89521973  1
  Sc  Sc93  1  0.90235320  0.30374534  0.89117763  1
  Sc  Sc94  1  0.69676661  0.10274092  0.10244502  1
  Sc  Sc95  1  0.89722206  0.30065953  0.10469266  1
  Sc  Sc96  1  0.50376839  0.30447098  0.30550192  1
  Sc  Sc97  1  0.29989881  0.70447237  0.89665259  1
  Sc  Sc98  1  0.49657662  0.89891812  0.71175195  1
  Sc  Sc99  1  0.10980587  0.89761285  0.89652859  1
  Nb  Nb100  1  0.30062331  0.30350392  0.10155561  1
  Nb  Nb101  1  0.71020213  0.88599591  0.29673901  1
  Nb  Nb102  1  0.30112374  0.10343644  0.89658593  1
  Nb  Nb103  1  0.69464746  0.29588746  0.50279433  1
  Nb  Nb104  1  0.30043452  0.90732923  0.89888551  1
  Nb  Nb105  1  0.29666182  0.69678098  0.50311523  1
  Nb  Nb106  1  0.69410760  0.49572333  0.69596661  1
  Nb  Nb107  1  0.89397158  0.50412682  0.50334448  1
  Nb  Nb108  1  0.70136284  0.70875747  0.30034331  1
  Nb  Nb109  1  0.90000328  0.29207383  0.69725907  1
  Nb  Nb110  1  0.29854040  0.49282558  0.10387158  1
  Nb  Nb111  1  0.49870245  0.10014295  0.90526514  1
  Nb  Nb112  1  0.50465772  0.90051092  0.50709033  1
  Nb  Nb113  1  0.69770380  0.30404548  0.69066529  1
  Nb  Nb114  1  0.89890548  0.10030071  0.29352114  1
  Nb  Nb115  1  0.49625851  0.70289832  0.09472949  1
  Nb  Nb116  1  0.10002932  0.89996870  0.50577886  1
  Nb  Nb117  1  0.70014098  0.89758128  0.69683392  1
  Nb  Nb118  1  0.09693271  0.90027471  0.30558396  1
  Nb  Nb119  1  0.09524533  0.90284788  0.69082416  1
  Nb  Nb120  1  0.89236858  0.90989991  0.29621711  1
  Nb  Nb121  1  0.30077078  0.29559159  0.89911236  1
  Nb  Nb122  1  0.49915733  0.49608304  0.69575160  1
  Nb  Nb123  1  0.30200774  0.70542281  0.10809476  1
  Nb  Nb124  1  0.90148679  0.90868998  0.69877454  1
  Nb  Nb125  1  0.40289277  0.60093732  0.59976407  1
  Nb  Nb126  1  0.60166226  0.60047714  0.40240722  1
  Nb  Nb127  1  0.20222232  0.60147908  0.19520511  1
  Nb  Nb128  1  0.80176910  0.00409510  -0.00353705  1
  Nb  Nb129  1  0.00143457  0.59966135  0.00429535  1
  Nb  Nb130  1  0.40100324  0.39837216  0.80348512  1
  Nb  Nb131  1  0.20557689  0.19737541  0.20027661  1
  Nb  Nb132  1  0.39342982  0.19908395  0.19612160  1
  Nb  Nb133  1  0.59331105  0.40075513  -0.00389398  1
  Nb  Nb134  1  0.59483383  0.60370974  0.60135177  1
  Nb  Nb135  1  0.60285773  0.80151392  0.59958619  1
  Nb  Nb136  1  0.19742374  0.80419591  0.59580733  1
  Nb  Nb137  1  0.00155245  0.60461291  0.19873471  1
  Nb  Nb138  1  0.39690113  0.39623093  -0.00279208  1
  Nb  Nb139  1  0.00034451  0.80339514  0.21095088  1
  Nb  Nb140  1  0.60092931  -0.00865235  0.59884902  1
  Nb  Nb141  1  0.00093029  0.19667860  -0.00302759  1
  Nb  Nb142  1  0.59725796  0.59225409  0.79409299  1
  Nb  Nb143  1  0.19448688  -0.00274883  0.20386533  1
  Nb  Nb144  1  -0.00391263  0.00442953  -0.00237354  1
  Nb  Nb145  1  0.80427555  0.60511107  0.20280829  1
  Nb  Nb146  1  -0.00017327  0.80737879  0.78916086  1
  Nb  Nb147  1  0.79928315  0.39626995  0.60253320  1
  Nb  Nb148  1  0.39627336  0.20064939  -0.00179809  1
  Nb  Nb149  1  0.80241976  0.80831156  0.60582142  1
  Pd  Pd150  1  -0.00673201  0.40718843  0.60159352  1
  Pd  Pd151  1  0.39814264  0.59493144  0.79295306  1
  Pd  Pd152  1  0.40122420  0.00581694  0.80141737  1
  Pd  Pd153  1  0.79812233  0.00300737  0.39736722  1
  Pd  Pd154  1  0.60847337  0.60003488  0.20918648  1
  Pd  Pd155  1  0.79501351  0.59940255  0.79619586  1
  Pd  Pd156  1  0.00079464  0.59140302  0.39931945  1
  Pd  Pd157  1  0.19660631  -0.00174170  0.00173235  1
  Pd  Pd158  1  0.60177095  0.40265867  0.19496524  1
  Pd  Pd159  1  -0.00679105  0.80743753  0.39941185  1
  Pd  Pd160  1  0.19847260  0.19859202  0.60462185  1
  Pd  Pd161  1  0.19627986  0.20304807  0.78829572  1
  Pd  Pd162  1  0.79521220  0.39089739  -0.00252143  1
  Pd  Pd163  1  0.39742127  0.39241719  0.40694380  1
  Pd  Pd164  1  0.00016354  0.39862634  0.19816196  1
  Pd  Pd165  1  0.78715881  0.80965483  -0.00371678  1
  Pd  Pd166  1  0.59050480  0.19679671  0.20054599  1
  Pd  Pd167  1  -0.00505684  0.00309261  0.40521891  1
  Pd  Pd168  1  0.20675919  0.80988144  0.40920275  1
  Pd  Pd169  1  0.60856489  0.59596419  -0.00438301  1
  Pd  Pd170  1  0.38461229  0.60190842  0.00472173  1
  Pd  Pd171  1  0.79371235  0.39106491  0.40424920  1
  Pd  Pd172  1  0.60269052  0.79105757  0.40652388  1
  Pd  Pd173  1  0.00413102  -0.00740726  0.19717038  1
  Pd  Pd174  1  0.80743879  0.79774160  0.79273795  1
  Pd  Pd175  1  0.20512131  -0.00984700  0.39870552  1
  Pd  Pd176  1  0.40723543  0.19250256  0.59791363  1
  Pd  Pd177  1  0.59273979  0.40139474  0.80378372  1
  Pd  Pd178  1  0.41133618  0.00819907  0.60713887  1
  Pd  Pd179  1  0.20281564  0.60699452  0.00291277  1
  Pd  Pd180  1  0.60266391  0.00551921  0.79302808  1
  Pd  Pd181  1  0.80801313  0.19816286  -0.00355946  1
  Pd  Pd182  1  0.80006257  0.20356789  0.59818995  1
  Pd  Pd183  1  0.78648032  0.00459872  0.80547560  1
  Pd  Pd184  1  0.20366064  0.39497734  0.78795111  1
  Pd  Pd185  1  0.39280871  0.60349796  0.20184731  1
  Pd  Pd186  1  0.60753711  -0.00428161  0.20468173  1
  Pd  Pd187  1  0.79908305  0.60317750  0.00564403  1
  Pd  Pd188  1  0.40138054  0.80346714  0.39859234  1
  Pd  Pd189  1  0.20185712  0.39821719  0.60345747  1
  Pd  Pd190  1  0.39822054  0.79373468  0.60595295  1
  Pd  Pd191  1  0.80570992  0.39607156  0.78761967  1
  Pd  Pd192  1  -0.00141881  0.19240689  0.40791368  1
  Pd  Pd193  1  0.79419109  0.20063212  0.79628223  1
  Pd  Pd194  1  0.79473543  0.59881552  0.38983592  1
  Pd  Pd195  1  0.39862974  0.20754237  0.39502165  1
  Pd  Pd196  1  0.20095864  0.20456591  0.00645507  1
  Pd  Pd197  1  0.79251834  -0.00407893  0.59157697  1
  Pd  Pd198  1  0.00175805  0.19139600  0.59169133  1
  Pd  Pd199  1  0.60603025  0.00163385  0.40209831  1
  Rh  Rh200  1  0.19405535  0.80190310  0.20699435  1
  Rh  Rh201  1  0.79116361  0.00348853  0.19842479  1
  Rh  Rh202  1  0.20260075  0.20345991  0.39772528  1
  Rh  Rh203  1  0.59993931  0.20052042  0.39833013  1
  Rh  Rh204  1  0.21137007  0.79967725  -0.00867639  1
  Rh  Rh205  1  0.40041379  0.39755095  0.19848773  1
  Rh  Rh206  1  0.39525783  0.80774912  0.80991987  1
  Rh  Rh207  1  0.39224722  0.40458217  0.60562276  1
  Rh  Rh208  1  -0.00357034  0.00655846  0.59009651  1
  Rh  Rh209  1  0.60719360  -0.00718740  0.00120500  1
  Rh  Rh210  1  0.60557622  0.40093766  0.59265219  1
  Rh  Rh211  1  0.39886354  0.19862731  0.80250835  1
  Rh  Rh212  1  0.81037987  0.79308854  0.20637968  1
  Rh  Rh213  1  0.39509691  0.79804022  -0.00400658  1
  Rh  Rh214  1  0.19642043  0.80751309  0.79157726  1
  Rh  Rh215  1  0.79875679  0.20044582  0.39597726  1
  Rh  Rh216  1  0.00551448  0.20526233  0.80060995  1
  Rh  Rh217  1  0.00202302  0.59112954  0.59670960  1
  Rh  Rh218  1  0.20324723  0.39962880  0.20396633  1
  Rh  Rh219  1  0.40443399  0.59948280  0.40772795  1
  Rh  Rh220  1  -0.00387087  0.39639077  0.79170374  1
  Rh  Rh221  1  0.58874827  0.20851120  0.01116131  1
  Rh  Rh222  1  0.60799585  0.19896376  0.78919487  1
  Rh  Rh223  1  0.60079665  0.80535285  0.00570787  1
  Rh  Rh224  1  0.20055220  0.40014614  0.40534329  1
  Rh  Rh225  1  0.60245424  0.40206197  0.40447278  1
  Rh  Rh226  1  0.80827825  0.80378820  0.40640887  1
  Rh  Rh227  1  0.79689758  0.59774334  0.60779490  1
  Rh  Rh228  1  0.59194104  0.80220636  0.20037886  1
  Rh  Rh229  1  0.79711430  0.40026039  0.20167955  1
  Rh  Rh230  1  0.00129647  0.40577501  0.40948293  1
  Rh  Rh231  1  0.20192502  -0.00285061  0.79715494  1
  Rh  Rh232  1  0.00618038  0.20931142  0.19583040  1
  Rh  Rh233  1  0.59857351  0.18993574  0.59903846  1
  Rh  Rh234  1  0.79447067  0.20039910  0.20697290  1
  Rh  Rh235  1  -0.00467057  0.39675086  -0.00173439  1
  Rh  Rh236  1  0.59994487  0.79062811  0.79513451  1
  Rh  Rh237  1  0.40829132  0.79453059  0.20218666  1
  Rh  Rh238  1  0.20591793  0.39390596  -0.00151523  1
  Rh  Rh239  1  0.20343194  0.59372415  0.39644178  1
  Rh  Rh240  1  0.00302724  0.60906810  0.81000450  1
  Rh  Rh241  1  0.00997368  -0.00849797  0.80582968  1
  Rh  Rh242  1  0.19735876  0.60024864  0.79946239  1
  Rh  Rh243  1  0.40322006  -0.00491831  0.40326790  1
  Rh  Rh244  1  0.20458160  0.60758288  0.60157558  1
  Rh  Rh245  1  0.00275529  0.79944429  -0.01492825  1
  Rh  Rh246  1  -0.00294938  0.80273972  0.60452227  1
  Rh  Rh247  1  0.20471728  -0.00679610  0.60171854  1
  Rh  Rh248  1  0.39502148  0.00594119  0.19746445  1
  Rh  Rh249  1  0.39766047  0.00451153  -0.00574575  1
