# generated using pymatgen
data_ZrScNbPdRh
_symmetry_space_group_name_H-M   'P 1'
_cell_length_a   16.55727683
_cell_length_b   16.55923120
_cell_length_c   16.55911958
_cell_angle_alpha   90.02153896
_cell_angle_beta   90.01356103
_cell_angle_gamma   89.99088305
_symmetry_Int_Tables_number   1
_chemical_formula_structural   ZrScNbPdRh
_chemical_formula_sum   'Zr50 Sc50 Nb50 Pd50 Rh50'
_cell_volume   4540.10893968
_cell_formula_units_Z   50
loop_
 _symmetry_equiv_pos_site_id
 _symmetry_equiv_pos_as_xyz
  1  'x, y, z'
loop_
 _atom_site_type_symbol
 _atom_site_label
 _atom_site_symmetry_multiplicity
 _atom_site_fract_x
 _atom_site_fract_y
 _atom_site_fract_z
 _atom_site_occupancy
  Zr  Zr0  1  0.69898815  0.08875140  0.70536855  1
  Zr  Zr1  1  0.50966909  0.29991559  0.89644887  1
  Zr  Zr2  1  0.69919824  0.30439659  0.30813361  1
  Zr  Zr3  1  0.30816668  0.30341325  0.29913693  1
  Zr  Zr4  1  0.08954602  0.90005003  0.30021801  1
  Zr  Zr5  1  0.29863472  0.28927852  0.50509027  1
  Zr  Zr6  1  0.50702473  0.69912729  0.90123178  1
  Zr  Zr7  1  0.90082373  0.10071857  0.90423791  1
  Zr  Zr8  1  0.50405586  0.09099671  0.09818415  1
  Zr  Zr9  1  0.69976331  0.49549750  0.90177199  1
  Zr  Zr10  1  0.70369672  0.69281939  0.90205366  1
  Zr  Zr11  1  0.10597287  0.29808414  0.29884568  1
  Zr  Zr12  1  0.49897955  0.70386248  0.09915791  1
  Zr  Zr13  1  0.70572341  0.89396150  0.30193165  1
  Zr  Zr14  1  0.69458927  0.09120382  0.30429296  1
  Zr  Zr15  1  0.28107693  0.30144986  0.89469623  1
  Zr  Zr16  1  0.89525367  0.29571751  0.89221607  1
  Zr  Zr17  1  0.49589140  0.90069563  0.09980475  1
  Zr  Zr18  1  0.49509166  0.11222472  0.49881065  1
  Zr  Zr19  1  0.29528756  0.49278105  0.69829477  1
  Zr  Zr20  1  0.10171296  0.49852698  0.29737905  1
  Zr  Zr21  1  0.70527119  0.69489599  0.49861964  1
  Zr  Zr22  1  0.09450167  0.50338559  0.10562236  1
  Zr  Zr23  1  0.90210783  0.69172229  0.90098211  1
  Zr  Zr24  1  0.90983126  0.69601319  0.09624482  1
  Zr  Zr25  1  0.89392463  0.50362934  0.50278622  1
  Zr  Zr26  1  0.70729956  0.29879166  0.70160407  1
  Zr  Zr27  1  0.49657329  0.90088205  0.91037091  1
  Zr  Zr28  1  0.90295647  0.50149585  0.70615550  1
  Zr  Zr29  1  0.50649729  0.90717763  0.29518589  1
  Zr  Zr30  1  0.50357945  0.30463661  0.48777735  1
  Zr  Zr31  1  0.89419391  0.50124458  0.90421379  1
  Zr  Zr32  1  0.90408002  0.30456134  0.29744826  1
  Zr  Zr33  1  0.50398551  0.50052545  0.49966245  1
  Zr  Zr34  1  0.50304561  0.69845488  0.69990344  1
  Zr  Zr35  1  0.49879493  0.69913622  0.30116966  1
  Zr  Zr36  1  0.09033196  0.09465185  0.09598332  1
  Zr  Zr37  1  0.69913565  0.69956394  0.70976849  1
  Zr  Zr38  1  0.69919221  0.90576399  0.10181732  1
  Zr  Zr39  1  0.29150250  0.29655601  0.69533963  1
  Zr  Zr40  1  0.30079434  0.10341368  0.69285432  1
  Zr  Zr41  1  0.29797099  0.09311323  0.09263510  1
  Zr  Zr42  1  0.90594902  0.89921470  0.09774638  1
  Zr  Zr43  1  0.89831497  0.29710967  0.50812515  1
  Zr  Zr44  1  0.09264858  0.69937910  0.50173196  1
  Zr  Zr45  1  0.30233634  0.90064457  0.09190036  1
  Zr  Zr46  1  0.29677850  0.70568664  0.10138053  1
  Zr  Zr47  1  0.08966198  0.89918790  0.70292547  1
  Zr  Zr48  1  0.50416507  0.10184895  0.89546516  1
  Zr  Zr49  1  0.10228815  0.69413319  0.29227125  1
  Sc  Sc50  1  0.29135343  0.10929371  0.29874723  1
  Sc  Sc51  1  0.50336719  0.91024617  0.70986114  1
  Sc  Sc52  1  0.70462939  0.10602156  0.90493004  1
  Sc  Sc53  1  0.90135325  0.29634852  0.70203534  1
  Sc  Sc54  1  0.50566893  0.50064010  0.68896987  1
  Sc  Sc55  1  0.29644459  0.91052558  0.50182756  1
  Sc  Sc56  1  0.29460523  0.90232545  0.90078452  1
  Sc  Sc57  1  0.29922093  0.70825560  0.70811540  1
  Sc  Sc58  1  0.69982155  0.69505186  0.10677054  1
  Sc  Sc59  1  0.49804608  0.30396126  0.10898184  1
  Sc  Sc60  1  0.89599598  0.30217779  0.09790534  1
  Sc  Sc61  1  0.30294394  0.50146190  0.29958817  1
  Sc  Sc62  1  0.49705711  0.48355266  0.30017374  1
  Sc  Sc63  1  0.70333966  0.09287858  0.50255586  1
  Sc  Sc64  1  0.90002354  0.10119454  0.70263518  1
  Sc  Sc65  1  0.89836644  0.70336431  0.50151509  1
  Sc  Sc66  1  0.10128783  0.30341620  0.10511801  1
  Sc  Sc67  1  0.70252145  0.30088058  0.90325418  1
  Sc  Sc68  1  0.90528300  0.90145944  0.49709734  1
  Sc  Sc69  1  0.29703371  0.90232702  0.29389058  1
  Sc  Sc70  1  0.49699586  0.69585620  0.49857095  1
  Sc  Sc71  1  0.70445232  0.49233866  0.50095891  1
  Sc  Sc72  1  0.70833749  0.70344176  0.30025028  1
  Sc  Sc73  1  0.30086441  0.69476690  0.30154908  1
  Sc  Sc74  1  0.30768844  0.49922262  0.49742120  1
  Sc  Sc75  1  0.49915927  0.10231231  0.70320915  1
  Sc  Sc76  1  0.10313326  0.10355691  0.49637623  1
  Sc  Sc77  1  0.09482436  0.10195267  0.30148436  1
  Sc  Sc78  1  0.08886020  0.90858336  0.50223247  1
  Sc  Sc79  1  0.70675836  0.49205191  0.10116843  1
  Sc  Sc80  1  0.29379516  0.90750622  0.70605495  1
  Sc  Sc81  1  0.89504045  0.70659844  0.29705905  1
  Sc  Sc82  1  0.09879168  0.49296480  0.89214014  1
  Sc  Sc83  1  0.89913805  0.50021327  0.10366122  1
  Sc  Sc84  1  0.70397720  0.90347365  0.49515357  1
  Sc  Sc85  1  0.70470108  0.90472514  0.89049719  1
  Sc  Sc86  1  0.50320111  0.50111146  0.10766377  1
  Sc  Sc87  1  0.09571797  0.10566751  0.89886242  1
  Sc  Sc88  1  0.71390722  0.49691144  0.30159907  1
  Sc  Sc89  1  0.90512249  0.90432191  0.89646529  1
  Sc  Sc90  1  0.29364025  0.30171684  0.10619419  1
  Sc  Sc91  1  0.90910506  0.69745314  0.70622415  1
  Sc  Sc92  1  0.10094734  0.89395286  0.09662203  1
  Sc  Sc93  1  0.09336081  0.70911903  0.89904895  1
  Sc  Sc94  1  0.09774833  0.90056171  0.89747707  1
  Sc  Sc95  1  0.29670869  0.71512680  0.90045544  1
  Sc  Sc96  1  0.49979600  0.89702255  0.49407571  1
  Sc  Sc97  1  0.70118679  0.49889284  0.69245815  1
  Sc  Sc98  1  0.30574329  0.69220073  0.48973601  1
  Sc  Sc99  1  0.50459103  0.29987355  0.69741292  1
  Nb  Nb100  1  0.09329910  0.29789307  0.89442849  1
  Nb  Nb101  1  0.09361685  0.09511225  0.69890733  1
  Nb  Nb102  1  0.50055118  0.28947961  0.30547100  1
  Nb  Nb103  1  0.10336200  0.30462385  0.69690097  1
  Nb  Nb104  1  0.90428995  0.49554118  0.30278536  1
  Nb  Nb105  1  0.89822628  0.89869423  0.29574342  1
  Nb  Nb106  1  0.90131436  0.10116021  0.29785998  1
  Nb  Nb107  1  0.70489336  0.29404871  0.10385616  1
  Nb  Nb108  1  0.70601291  0.10208891  0.10021424  1
  Nb  Nb109  1  0.09691811  0.69925105  0.69970830  1
  Nb  Nb110  1  0.90794954  0.09979577  0.49321366  1
  Nb  Nb111  1  0.09647682  0.50446933  0.69331331  1
  Nb  Nb112  1  0.89215167  0.09696310  0.09432086  1
  Nb  Nb113  1  0.50092862  0.10893104  0.30290303  1
  Nb  Nb114  1  0.70237953  0.30031562  0.50113252  1
  Nb  Nb115  1  0.10342499  0.30360214  0.50721114  1
  Nb  Nb116  1  0.30100101  0.10407006  0.50367025  1
  Nb  Nb117  1  0.49744085  0.49752552  0.90401344  1
  Nb  Nb118  1  0.29972525  0.49618723  0.09372524  1
  Nb  Nb119  1  0.29536299  0.49848785  0.89880473  1
  Nb  Nb120  1  0.09965882  0.50191320  0.50228650  1
  Nb  Nb121  1  0.09589808  0.69669570  0.09587181  1
  Nb  Nb122  1  0.70498857  0.90284765  0.69863234  1
  Nb  Nb123  1  0.89977279  0.90570741  0.70136328  1
  Nb  Nb124  1  0.30203748  0.10802495  0.89746463  1
  Nb  Nb125  1  0.39662499  0.40033440  -0.00636389  1
  Nb  Nb126  1  0.39897069  0.40323133  0.80559264  1
  Nb  Nb127  1  0.79819662  0.19432373  0.20210149  1
  Nb  Nb128  1  0.19531064  0.39797491  0.40672719  1
  Nb  Nb129  1  0.60657984  0.20180391  0.59536166  1
  Nb  Nb130  1  0.60340381  0.19755295  0.20322573  1
  Nb  Nb131  1  0.79860846  0.80660019  0.61026730  1
  Nb  Nb132  1  0.39458212  0.59462249  -0.00397450  1
  Nb  Nb133  1  0.20081034  0.59926918  -0.00219946  1
  Nb  Nb134  1  0.39885812  0.01145998  0.39864153  1
  Nb  Nb135  1  -0.00155798  0.59330558  0.39824837  1
  Nb  Nb136  1  0.80282884  0.79812143  0.00014456  1
  Nb  Nb137  1  0.39943731  0.80262089  0.60265324  1
  Nb  Nb138  1  0.19803155  0.79639964  0.59729276  1
  Nb  Nb139  1  0.19397410  0.80008719  0.40373057  1
  Nb  Nb140  1  0.39701360  0.59307501  0.80730796  1
  Nb  Nb141  1  0.19495694  0.60252972  0.60369358  1
  Nb  Nb142  1  0.60381232  0.80223181  0.60504465  1
  Nb  Nb143  1  0.00504347  0.40092800  0.40757764  1
  Nb  Nb144  1  0.80475104  0.19600340  0.39935334  1
  Nb  Nb145  1  0.19878118  0.59997068  0.79870639  1
  Nb  Nb146  1  0.80516685  0.00392178  0.19978528  1
  Nb  Nb147  1  0.60255191  0.59645473  0.39749193  1
  Nb  Nb148  1  0.00069451  0.39591565  -0.00664065  1
  Nb  Nb149  1  0.39675462  0.20313955  -0.00635380  1
  Pd  Pd150  1  0.39552960  0.00004666  0.80477263  1
  Pd  Pd151  1  0.59246388  -0.00083564  0.59486751  1
  Pd  Pd152  1  0.00045449  0.39777217  0.79928461  1
  Pd  Pd153  1  0.59662971  0.58727527  0.79779896  1
  Pd  Pd154  1  0.19575596  0.19335990  0.19211517  1
  Pd  Pd155  1  0.80329224  0.60818379  0.60950120  1
  Pd  Pd156  1  0.80996761  0.00006303  0.39682110  1
  Pd  Pd157  1  -0.00123044  0.79323569  0.39587112  1
  Pd  Pd158  1  0.80959334  0.80142815  0.80221371  1
  Pd  Pd159  1  0.80508893  0.59865493  0.20071299  1
  Pd  Pd160  1  0.20854263  0.59566241  0.19286604  1
  Pd  Pd161  1  0.39610861  0.00842536  0.20971419  1
  Pd  Pd162  1  0.39749811  0.80132711  0.20598613  1
  Pd  Pd163  1  0.59749811  0.39850491  0.01069822  1
  Pd  Pd164  1  0.60224590  0.79163647  0.40573507  1
  Pd  Pd165  1  0.59921493  0.80952130  0.79941051  1
  Pd  Pd166  1  -0.00313463  -0.00000216  0.19940623  1
  Pd  Pd167  1  0.19708049  0.80318962  0.20331707  1
  Pd  Pd168  1  0.60479783  0.59399350  0.21071970  1
  Pd  Pd169  1  0.20193279  -0.00181955  0.39779595  1
  Pd  Pd170  1  0.38963644  0.60809280  0.60819438  1
  Pd  Pd171  1  0.38794700  0.81116635  0.40281399  1
  Pd  Pd172  1  0.40459546  0.19423898  0.19042678  1
  Pd  Pd173  1  0.59077194  0.00180195  0.40904104  1
  Pd  Pd174  1  0.19675212  0.00778074  0.80380756  1
  Pd  Pd175  1  0.39982714  0.21043616  0.80056577  1
  Pd  Pd176  1  0.59876955  0.40532745  0.79255604  1
  Pd  Pd177  1  -0.00157220  0.20828165  0.00558944  1
  Pd  Pd178  1  0.40708620  -0.00569274  0.59535066  1
  Pd  Pd179  1  0.00513114  0.19537322  0.60421088  1
  Pd  Pd180  1  0.59447751  0.20452123  0.00943434  1
  Pd  Pd181  1  0.40335180  0.39331865  0.60245363  1
  Pd  Pd182  1  0.18885081  0.19201477  0.79109000  1
  Pd  Pd183  1  0.60352902  0.39514987  0.20488275  1
  Pd  Pd184  1  0.79702539  0.18979024  0.59716231  1
  Pd  Pd185  1  0.60917058  0.00013113  -0.00748720  1
  Pd  Pd186  1  0.81099181  -0.00071956  0.59680277  1
  Pd  Pd187  1  0.19421311  0.00051670  0.20117919  1
  Pd  Pd188  1  0.60272229  0.79775810  0.19999140  1
  Pd  Pd189  1  0.59991099  0.59283631  0.00820418  1
  Pd  Pd190  1  0.19337648  0.00046421  -0.00973223  1
  Pd  Pd191  1  0.19785383  0.19975062  0.00545590  1
  Pd  Pd192  1  0.19298554  -0.00149158  0.59962893  1
  Pd  Pd193  1  0.19088835  0.40264469  0.00260103  1
  Pd  Pd194  1  0.39861712  0.59511907  0.19722874  1
  Pd  Pd195  1  0.40372833  0.80338365  0.79758088  1
  Pd  Pd196  1  0.61206772  0.80210620  0.00010018  1
  Pd  Pd197  1  0.00015501  0.20602640  0.40296645  1
  Pd  Pd198  1  -0.00499796  0.20115150  0.19112388  1
  Pd  Pd199  1  -0.00419155  0.40058870  0.60107428  1
  Rh  Rh200  1  0.80033085  -0.00836768  0.00130329  1
  Rh  Rh201  1  0.60404356  0.60538134  0.58947108  1
  Rh  Rh202  1  0.60916183  0.19764487  0.78964646  1
  Rh  Rh203  1  0.60185282  0.00068915  0.80688135  1
  Rh  Rh204  1  -0.00922669  0.60411589  0.20884965  1
  Rh  Rh205  1  0.39762249  0.39942675  0.19400099  1
  Rh  Rh206  1  0.41319823  0.59174535  0.39091690  1
  Rh  Rh207  1  0.80445708  0.40054941  0.60511579  1
  Rh  Rh208  1  -0.00282798  0.80248476  -0.00247336  1
  Rh  Rh209  1  0.19311197  0.40154918  0.79231527  1
  Rh  Rh210  1  -0.00392999  0.00729566  0.59832348  1
  Rh  Rh211  1  0.39352218  0.39757991  0.40236830  1
  Rh  Rh212  1  0.60490121  0.39027350  0.59798693  1
  Rh  Rh213  1  0.38849712  0.19632308  0.39857736  1
  Rh  Rh214  1  -0.00223739  0.00359830  0.39597372  1
  Rh  Rh215  1  0.60338127  0.00395252  0.19971496  1
  Rh  Rh216  1  -0.00168248  0.00577590  0.80079201  1
  Rh  Rh217  1  0.61311254  0.19867623  0.40377623  1
  Rh  Rh218  1  -0.00423733  0.80055297  0.79921093  1
  Rh  Rh219  1  0.00557681  0.20089350  0.79091712  1
  Rh  Rh220  1  -0.00289197  0.59938891  0.59590956  1
  Rh  Rh221  1  0.00224809  0.79522432  0.19897230  1
  Rh  Rh222  1  0.39609425  0.00801992  -0.01061429  1
  Rh  Rh223  1  0.19332616  0.59955235  0.40806750  1
  Rh  Rh224  1  0.19088446  0.79938293  0.79289591  1
  Rh  Rh225  1  0.00284374  -0.00072865  -0.00408593  1
  Rh  Rh226  1  0.80197427  0.60164854  0.39453507  1
  Rh  Rh227  1  0.01107664  0.58881905  -0.00772193  1
  Rh  Rh228  1  -0.00644568  0.80415015  0.60848832  1
  Rh  Rh229  1  0.39933820  0.79541070  -0.00249132  1
  Rh  Rh230  1  0.19451321  0.79686223  0.00033015  1
  Rh  Rh231  1  0.80462106  0.00451901  0.80394718  1
  Rh  Rh232  1  0.20550095  0.40495856  0.20661822  1
  Rh  Rh233  1  0.60363422  0.40754381  0.39869822  1
  Rh  Rh234  1  0.80179021  0.80709732  0.18977607  1
  Rh  Rh235  1  0.00843786  0.59988690  0.80564549  1
  Rh  Rh236  1  0.79759501  0.40221308  0.79787949  1
  Rh  Rh237  1  0.19892807  0.40717550  0.59438108  1
  Rh  Rh238  1  0.80137638  0.20532280  0.00179262  1
  Rh  Rh239  1  0.18864523  0.18997507  0.60509818  1
  Rh  Rh240  1  0.80945432  0.39212527  0.40469996  1
  Rh  Rh241  1  0.79477283  0.60439638  0.00813271  1
  Rh  Rh242  1  0.40868284  0.20491306  0.60485038  1
  Rh  Rh243  1  0.20002539  0.20510637  0.40228680  1
  Rh  Rh244  1  0.80542369  0.80369597  0.40951801  1
  Rh  Rh245  1  0.79759725  0.19433033  0.80107199  1
  Rh  Rh246  1  0.80448007  0.39546496  0.00018259  1
  Rh  Rh247  1  -0.00289530  0.39828859  0.19471416  1
  Rh  Rh248  1  0.80216464  0.39592056  0.19867817  1
  Rh  Rh249  1  0.79679118  0.59322464  0.79711560  1
