# generated using pymatgen
data_ZrScNbPdRh
_symmetry_space_group_name_H-M   'P 1'
_cell_length_a   16.55580588
_cell_length_b   16.55371081
_cell_length_c   16.54828332
_cell_angle_alpha   89.97200517
_cell_angle_beta   90.01829712
_cell_angle_gamma   89.99191932
_symmetry_Int_Tables_number   1
_chemical_formula_structural   ZrScNbPdRh
_chemical_formula_sum   'Zr50 Sc50 Nb50 Pd50 Rh50'
_cell_volume   4535.22208445
_cell_formula_units_Z   50
loop_
 _symmetry_equiv_pos_site_id
 _symmetry_equiv_pos_as_xyz
  1  'x, y, z'
loop_
 _atom_site_type_symbol
 _atom_site_label
 _atom_site_symmetry_multiplicity
 _atom_site_fract_x
 _atom_site_fract_y
 _atom_site_fract_z
 _atom_site_occupancy
  Zr  Zr0  1  0.10536336  0.10173917  0.69199292  1
  Zr  Zr1  1  0.10623263  0.90048447  0.69951363  1
  Zr  Zr2  1  0.49517765  0.50572490  0.30788862  1
  Zr  Zr3  1  0.70405207  0.89639906  0.51196265  1
  Zr  Zr4  1  0.49183693  0.29649630  0.30177897  1
  Zr  Zr5  1  0.69058695  0.50099102  0.90340226  1
  Zr  Zr6  1  0.70290756  0.10170708  0.90548332  1
  Zr  Zr7  1  0.50384736  0.10709550  0.69758171  1
  Zr  Zr8  1  0.69361239  0.70858601  0.29295012  1
  Zr  Zr9  1  0.30090046  0.50030968  0.90798180  1
  Zr  Zr10  1  0.10325769  0.70545635  0.29802444  1
  Zr  Zr11  1  0.49347234  0.09508014  0.49127588  1
  Zr  Zr12  1  0.10885968  0.90103441  0.11185144  1
  Zr  Zr13  1  0.90148601  0.50127326  0.10253853  1
  Zr  Zr14  1  0.09318353  0.10358463  0.49332356  1
  Zr  Zr15  1  0.50590730  0.70271852  0.30392460  1
  Zr  Zr16  1  0.90120068  0.50049252  0.29954484  1
  Zr  Zr17  1  0.89451827  0.30702748  0.29301443  1
  Zr  Zr18  1  0.49634711  0.69237650  0.70352455  1
  Zr  Zr19  1  0.09932332  0.50232458  0.29695620  1
  Zr  Zr20  1  0.10507847  0.49973639  0.89284945  1
  Zr  Zr21  1  0.48824510  0.90032527  0.09677425  1
  Zr  Zr22  1  0.69962285  0.09478164  0.69873137  1
  Zr  Zr23  1  0.49876076  0.30081789  0.69824208  1
  Zr  Zr24  1  0.30749120  0.50086636  0.10226366  1
  Zr  Zr25  1  0.49207942  0.69689310  0.48837933  1
  Zr  Zr26  1  0.50435928  0.69661404  0.11183168  1
  Zr  Zr27  1  0.90852731  0.09026974  0.50221612  1
  Zr  Zr28  1  0.90235293  0.10840047  0.30663371  1
  Zr  Zr29  1  0.29297032  0.29582865  0.90247491  1
  Zr  Zr30  1  0.49701484  0.89688488  0.90061301  1
  Zr  Zr31  1  0.69986605  0.29254159  0.70990082  1
  Zr  Zr32  1  0.11122316  0.29895570  0.29077568  1
  Zr  Zr33  1  0.88509972  0.90692474  0.69104110  1
  Zr  Zr34  1  0.68993654  0.09872892  0.49790967  1
  Zr  Zr35  1  0.30427542  0.70884290  0.10292422  1
  Zr  Zr36  1  0.29764517  0.09694559  0.89384196  1
  Zr  Zr37  1  0.90199782  0.50148106  0.89916277  1
  Zr  Zr38  1  0.89545978  0.70217766  0.09152752  1
  Zr  Zr39  1  0.69001007  0.50535584  0.09815323  1
  Zr  Zr40  1  0.90968493  0.49592168  0.70298735  1
  Zr  Zr41  1  0.30104479  0.90530616  0.49586324  1
  Zr  Zr42  1  0.70877037  0.30031633  0.31433673  1
  Zr  Zr43  1  0.90424425  0.28769499  0.48736339  1
  Zr  Zr44  1  0.69521375  0.70886285  0.70164942  1
  Zr  Zr45  1  0.10259931  0.50321306  0.09635519  1
  Zr  Zr46  1  0.10056827  0.70190693  0.70290717  1
  Zr  Zr47  1  0.90383535  0.10211063  0.69573162  1
  Zr  Zr48  1  0.70370370  0.09907817  0.09832861  1
  Zr  Zr49  1  0.10212042  0.49587482  0.50515545  1
  Sc  Sc50  1  0.90929341  0.89884327  0.29648151  1
  Sc  Sc51  1  0.29497606  0.29287313  0.69799651  1
  Sc  Sc52  1  0.09941368  0.89755852  0.89904581  1
  Sc  Sc53  1  0.69442618  0.48668153  0.49145010  1
  Sc  Sc54  1  0.30151585  0.30348146  0.29568263  1
  Sc  Sc55  1  0.49888311  0.90012370  0.49476410  1
  Sc  Sc56  1  0.49866338  0.30650070  0.50138628  1
  Sc  Sc57  1  0.30059382  0.30164256  0.10752631  1
  Sc  Sc58  1  0.29857954  0.09690240  0.70132626  1
  Sc  Sc59  1  0.09354518  0.69991893  0.49566511  1
  Sc  Sc60  1  0.69334614  0.70298803  0.09899662  1
  Sc  Sc61  1  0.29967899  0.71066965  0.69852847  1
  Sc  Sc62  1  0.49732636  0.69743924  0.89342080  1
  Sc  Sc63  1  0.70362790  0.29735268  0.10078725  1
  Sc  Sc64  1  0.49231047  0.30125481  0.09970422  1
  Sc  Sc65  1  0.69437520  0.70595469  0.90219447  1
  Sc  Sc66  1  0.10337802  0.70272117  0.09270584  1
  Sc  Sc67  1  0.90736279  0.90475591  0.09557984  1
  Sc  Sc68  1  0.30609863  0.49075067  0.50216947  1
  Sc  Sc69  1  0.89105941  0.29738715  0.89317184  1
  Sc  Sc70  1  0.10134925  0.69483786  0.89840331  1
  Sc  Sc71  1  0.69420208  0.71081026  0.49624012  1
  Sc  Sc72  1  0.30837222  0.09389419  0.10904657  1
  Sc  Sc73  1  0.91449095  0.50677030  0.50376681  1
  Sc  Sc74  1  0.49831451  0.29502764  0.91005765  1
  Sc  Sc75  1  0.49666647  0.09884902  0.90497209  1
  Sc  Sc76  1  0.89338371  0.89749029  0.90393944  1
  Sc  Sc77  1  0.10622925  0.10218088  0.90414217  1
  Sc  Sc78  1  0.90518657  0.69843934  0.70186861  1
  Sc  Sc79  1  0.69640283  0.29479446  0.90314042  1
  Sc  Sc80  1  0.10591312  0.90960209  0.49647038  1
  Sc  Sc81  1  0.09209344  0.09313199  0.09505793  1
  Sc  Sc82  1  0.49868982  0.49816495  0.09307886  1
  Sc  Sc83  1  0.30080072  0.69884059  0.90265699  1
  Sc  Sc84  1  0.10323082  0.90639114  0.29817269  1
  Sc  Sc85  1  0.69751986  0.49601815  0.70310382  1
  Sc  Sc86  1  0.29987276  0.49599813  0.69501087  1
  Sc  Sc87  1  0.30769212  0.10457697  0.29902204  1
  Sc  Sc88  1  0.90707230  0.70089922  0.90251807  1
  Sc  Sc89  1  0.29972805  0.71021863  0.50124697  1
  Sc  Sc90  1  0.49354621  0.89224909  0.70120998  1
  Sc  Sc91  1  0.90837340  0.70721885  0.30453490  1
  Sc  Sc92  1  0.49720992  0.09340052  0.10231730  1
  Sc  Sc93  1  0.50133776  0.90624391  0.30317757  1
  Sc  Sc94  1  0.31649772  0.70228593  0.30646477  1
  Sc  Sc95  1  0.10743055  0.29388929  0.50461826  1
  Sc  Sc96  1  0.29521122  0.09918918  0.50392746  1
  Sc  Sc97  1  0.69558669  0.89237644  0.09529863  1
  Sc  Sc98  1  0.30871308  0.89827551  0.89401919  1
  Sc  Sc99  1  0.70234859  0.49233763  0.30446750  1
  Nb  Nb100  1  0.90600635  0.09348820  0.91300806  1
  Nb  Nb101  1  0.29525150  0.90582909  0.28926515  1
  Nb  Nb102  1  0.30087263  0.90131744  0.10348629  1
  Nb  Nb103  1  0.69943198  0.89872932  0.70544039  1
  Nb  Nb104  1  0.89826665  0.70252337  0.50156436  1
  Nb  Nb105  1  0.09664941  0.49974365  0.69575147  1
  Nb  Nb106  1  0.49952395  0.49905474  0.50819826  1
  Nb  Nb107  1  0.09463293  0.09799232  0.29427441  1
  Nb  Nb108  1  0.69949078  0.90319677  0.30082203  1
  Nb  Nb109  1  0.29487307  0.30305368  0.50578963  1
  Nb  Nb110  1  0.09733883  0.30376452  0.70172139  1
  Nb  Nb111  1  0.89790946  0.30079636  0.70144311  1
  Nb  Nb112  1  0.70858346  0.30330843  0.49958312  1
  Nb  Nb113  1  0.89761307  0.89866333  0.50041316  1
  Nb  Nb114  1  0.89720590  0.30048981  0.09963824  1
  Nb  Nb115  1  0.10003897  0.29750304  0.09384642  1
  Nb  Nb116  1  0.29066249  0.90149327  0.69410988  1
  Nb  Nb117  1  0.69446892  0.09576983  0.30308523  1
  Nb  Nb118  1  0.49661411  0.49931999  0.69837969  1
  Nb  Nb119  1  0.49945155  0.49909764  0.89800489  1
  Nb  Nb120  1  0.69782417  0.89734143  0.89061283  1
  Nb  Nb121  1  0.29914779  0.49925346  0.29633701  1
  Nb  Nb122  1  0.89879352  0.10116047  0.09517749  1
  Nb  Nb123  1  0.10690846  0.29536391  0.90108634  1
  Nb  Nb124  1  0.50620239  0.09852686  0.30462578  1
  Nb  Nb125  1  0.80066269  0.20330217  0.59859025  1
  Nb  Nb126  1  0.79773810  0.00361875  0.20441737  1
  Nb  Nb127  1  0.60494325  -0.00466601  0.80000397  1
  Nb  Nb128  1  0.80290657  0.60572343  0.40307335  1
  Nb  Nb129  1  0.00569247  0.39690044  0.39475932  1
  Nb  Nb130  1  0.60133489  0.19675944  0.20995788  1
  Nb  Nb131  1  0.19485878  0.59872968  0.59783242  1
  Nb  Nb132  1  0.40385049  0.40213875  0.80268097  1
  Nb  Nb133  1  0.79917768  0.60373638  0.20451343  1
  Nb  Nb134  1  0.80427434  0.40185857  0.00209783  1
  Nb  Nb135  1  0.59859018  0.39350076  0.20577438  1
  Nb  Nb136  1  0.79501119  0.59832995  0.59831257  1
  Nb  Nb137  1  0.79742575  0.59811874  0.79761480  1
  Nb  Nb138  1  0.20422867  0.59615988  0.39878821  1
  Nb  Nb139  1  0.20750648  -0.00660191  0.00483575  1
  Nb  Nb140  1  0.00194416  0.39030567  -0.00080371  1
  Nb  Nb141  1  0.00332487  0.20212579  0.80118357  1
  Nb  Nb142  1  -0.00513171  0.80543427  0.59528647  1
  Nb  Nb143  1  -0.00379169  0.00732467  0.80088734  1
  Nb  Nb144  1  0.80477567  0.39518151  0.60181794  1
  Nb  Nb145  1  0.20747481  0.60156571  0.20467819  1
  Nb  Nb146  1  0.58977200  0.40214044  0.80235665  1
  Nb  Nb147  1  0.59573929  0.59510827  0.59790044  1
  Nb  Nb148  1  -0.00294071  0.20286927  0.19056768  1
  Nb  Nb149  1  0.79682981  -0.00423356  0.39680214  1
  Pd  Pd150  1  0.80033659  0.80185731  0.39479264  1
  Pd  Pd151  1  0.20680710  0.39902004  0.79278231  1
  Pd  Pd152  1  0.00709274  0.39360452  0.19650186  1
  Pd  Pd153  1  0.39220904  0.19608687  0.00692768  1
  Pd  Pd154  1  0.59088983  -0.00848330  0.60596200  1
  Pd  Pd155  1  0.19956348  0.40115215  0.40121538  1
  Pd  Pd156  1  0.40607263  -0.00025520  0.79146818  1
  Pd  Pd157  1  0.19488922  0.18894651  0.19098955  1
  Pd  Pd158  1  0.20308079  0.79824696  0.39783966  1
  Pd  Pd159  1  0.80311923  0.80403332  0.19560595  1
  Pd  Pd160  1  0.20628012  0.80077249  0.80759086  1
  Pd  Pd161  1  -0.00365282  0.38749337  0.59085323  1
  Pd  Pd162  1  0.20440741  0.19620100  0.39789322  1
  Pd  Pd163  1  0.60153677  -0.00102174  0.19509947  1
  Pd  Pd164  1  0.20024343  0.39851360  0.00595222  1
  Pd  Pd165  1  0.39505336  0.20113060  0.59322437  1
  Pd  Pd166  1  0.00565114  0.80522066  0.00167294  1
  Pd  Pd167  1  0.40148284  0.80269509  0.59850004  1
  Pd  Pd168  1  0.00654597  0.80959104  0.40668520  1
  Pd  Pd169  1  0.38984180  0.20287917  0.40728771  1
  Pd  Pd170  1  0.59987324  -0.00338396  -0.00527430  1
  Pd  Pd171  1  0.59697318  0.20863455  0.40296900  1
  Pd  Pd172  1  0.20361608  0.01108890  0.39068387  1
  Pd  Pd173  1  0.60259979  0.20759575  0.59026435  1
  Pd  Pd174  1  0.80216548  0.00640669  0.80712476  1
  Pd  Pd175  1  0.58747210  0.79490613  0.59957984  1
  Pd  Pd176  1  0.38897789  0.59525516  0.79813699  1
  Pd  Pd177  1  0.40461362  0.80602373  0.20957578  1
  Pd  Pd178  1  0.20838590  0.18764208  0.01218415  1
  Pd  Pd179  1  0.39331025  0.60173108  0.59518406  1
  Pd  Pd180  1  0.00500696  0.39042313  0.80933181  1
  Pd  Pd181  1  0.60716087  0.40044279  0.60520394  1
  Pd  Pd182  1  -0.00030306  0.61248201  0.19688841  1
  Pd  Pd183  1  0.80700949  0.18884733  0.80232896  1
  Pd  Pd184  1  0.40188717  0.20495000  0.80259863  1
  Pd  Pd185  1  0.79667251  -0.01066320  0.00601909  1
  Pd  Pd186  1  0.40627661  0.60725568  0.00158272  1
  Pd  Pd187  1  0.40074362  -0.00155230  0.60432802  1
  Pd  Pd188  1  0.20706875  0.59932749  0.79064171  1
  Pd  Pd189  1  -0.00912290  0.81236197  0.79269967  1
  Pd  Pd190  1  0.20360044  0.80582677  -0.00709384  1
  Pd  Pd191  1  0.59608969  0.20119870  0.01193662  1
  Pd  Pd192  1  0.60986601  0.59771611  0.40583018  1
  Pd  Pd193  1  0.39773398  0.39950524  0.40200349  1
  Pd  Pd194  1  0.80699071  0.79088961  0.80254686  1
  Pd  Pd195  1  0.79865821  0.19424405  0.20011953  1
  Pd  Pd196  1  -0.00013104  0.79664579  0.19127386  1
  Pd  Pd197  1  0.59332888  0.79624868  -0.00106828  1
  Pd  Pd198  1  -0.00451078  0.20561614  -0.00366278  1
  Pd  Pd199  1  0.79410032  0.60107373  -0.00222766  1
  Rh  Rh200  1  0.39454601  0.79922557  0.79611318  1
  Rh  Rh201  1  0.60423077  0.58933268  0.20919475  1
  Rh  Rh202  1  0.41098919  0.19551758  0.20007439  1
  Rh  Rh203  1  0.78618897  0.40899666  0.18785923  1
  Rh  Rh204  1  -0.00163566  0.20861764  0.60882905  1
  Rh  Rh205  1  0.60433146  0.59530224  0.79467514  1
  Rh  Rh206  1  0.00735738  0.59508125  -0.00681892  1
  Rh  Rh207  1  0.59022016  0.39500759  0.39675482  1
  Rh  Rh208  1  0.59435746  0.81229806  0.19897637  1
  Rh  Rh209  1  0.39556978  0.39552061  -0.00638564  1
  Rh  Rh210  1  0.40336065  -0.00142454  0.20837321  1
  Rh  Rh211  1  0.79813591  0.80178459  -0.00213913  1
  Rh  Rh212  1  0.20104716  0.20098903  0.59968446  1
  Rh  Rh213  1  0.60428295  0.39433255  0.00135443  1
  Rh  Rh214  1  0.79387409  0.00839885  0.59046595  1
  Rh  Rh215  1  0.39532811  0.39362571  0.60507306  1
  Rh  Rh216  1  0.40209406  0.79560772  -0.00050631  1
  Rh  Rh217  1  0.01027152  -0.00703412  -0.00611702  1
  Rh  Rh218  1  0.00099320  0.59692545  0.39880506  1
  Rh  Rh219  1  0.00755663  -0.01125000  0.60409848  1
  Rh  Rh220  1  0.58949044  0.61023768  -0.00293299  1
  Rh  Rh221  1  -0.00131871  0.59967325  0.80174119  1
  Rh  Rh222  1  0.20379160  0.60430500  0.00808612  1
  Rh  Rh223  1  -0.00899763  0.01023918  0.20211896  1
  Rh  Rh224  1  0.59993812  0.80849088  0.39950265  1
  Rh  Rh225  1  0.20220813  0.00785182  0.19858403  1
  Rh  Rh226  1  0.80559331  0.20596952  -0.00317527  1
  Rh  Rh227  1  0.19619791  -0.00244841  0.80636241  1
  Rh  Rh228  1  0.01409121  0.20972890  0.38357460  1
  Rh  Rh229  1  0.39635703  0.81399023  0.39442043  1
  Rh  Rh230  1  0.19195677  0.20061295  0.79339623  1
  Rh  Rh231  1  0.59268656  0.19471351  0.80896059  1
  Rh  Rh232  1  0.79558973  0.18542968  0.40961402  1
  Rh  Rh233  1  0.19057391  0.79685453  0.59371079  1
  Rh  Rh234  1  0.20226995  0.40602080  0.19159621  1
  Rh  Rh235  1  0.39462966  0.00034678  0.39510960  1
  Rh  Rh236  1  0.81829460  0.41369291  0.41627908  1
  Rh  Rh237  1  0.39961938  0.59847161  0.20081616  1
  Rh  Rh238  1  0.00435723  0.61227395  0.60433413  1
  Rh  Rh239  1  0.60451919  -0.00930446  0.40469719  1
  Rh  Rh240  1  0.20006889  0.00264800  0.59647463  1
  Rh  Rh241  1  0.59348745  0.80498381  0.80012696  1
  Rh  Rh242  1  0.20675426  0.79348012  0.20685719  1
  Rh  Rh243  1  -0.00343358  -0.00598937  0.39514537  1
  Rh  Rh244  1  0.39098980  0.00113886  -0.00219009  1
  Rh  Rh245  1  0.20039335  0.40051176  0.60759123  1
  Rh  Rh246  1  0.78740168  0.40636837  0.80461684  1
  Rh  Rh247  1  0.39036159  0.59292547  0.40745796  1
  Rh  Rh248  1  0.40818650  0.40572634  0.20179387  1
  Rh  Rh249  1  0.80552212  0.79080257  0.60484366  1
