# generated using pymatgen
data_ZrScNbPdRh
_symmetry_space_group_name_H-M   'P 1'
_cell_length_a   16.55825422
_cell_length_b   16.55697409
_cell_length_c   16.55786659
_cell_angle_alpha   90.00405264
_cell_angle_beta   89.96914153
_cell_angle_gamma   90.04641019
_symmetry_Int_Tables_number   1
_chemical_formula_structural   ZrScNbPdRh
_chemical_formula_sum   'Zr50 Sc50 Nb50 Pd50 Rh50'
_cell_volume   4539.41290189
_cell_formula_units_Z   50
loop_
 _symmetry_equiv_pos_site_id
 _symmetry_equiv_pos_as_xyz
  1  'x, y, z'
loop_
 _atom_site_type_symbol
 _atom_site_label
 _atom_site_symmetry_multiplicity
 _atom_site_fract_x
 _atom_site_fract_y
 _atom_site_fract_z
 _atom_site_occupancy
  Zr  Zr0  1  0.29322343  0.10701996  0.70078932  1
  Zr  Zr1  1  0.29069511  0.29907351  0.89215610  1
  Zr  Zr2  1  0.29473276  0.29837845  0.50592927  1
  Zr  Zr3  1  0.29411052  0.90200658  0.69863406  1
  Zr  Zr4  1  0.10800675  0.69963540  0.10295522  1
  Zr  Zr5  1  0.69661906  0.90719956  0.49635372  1
  Zr  Zr6  1  0.29759551  0.69602266  0.29697480  1
  Zr  Zr7  1  0.90426043  0.70505348  0.09670526  1
  Zr  Zr8  1  0.90002109  0.49440986  0.29540142  1
  Zr  Zr9  1  0.69975168  0.10032449  0.10308035  1
  Zr  Zr10  1  0.29937879  0.89946335  0.30127386  1
  Zr  Zr11  1  0.29700462  0.09729323  0.30318823  1
  Zr  Zr12  1  0.90481802  0.49863425  0.89911251  1
  Zr  Zr13  1  0.70671727  0.70966667  0.89950601  1
  Zr  Zr14  1  0.29974649  0.89514165  0.10320747  1
  Zr  Zr15  1  0.10400115  0.49969700  0.90045430  1
  Zr  Zr16  1  0.50827622  0.89949450  0.70100809  1
  Zr  Zr17  1  0.29402659  0.10136312  0.49915302  1
  Zr  Zr18  1  0.89965925  0.70575614  0.30335995  1
  Zr  Zr19  1  0.50759819  0.50039623  0.91295638  1
  Zr  Zr20  1  0.09386990  0.10552992  0.89727993  1
  Zr  Zr21  1  0.50013912  0.10234174  0.29721209  1
  Zr  Zr22  1  0.90765817  0.29922753  0.90615603  1
  Zr  Zr23  1  0.49679840  0.49360538  0.10834633  1
  Zr  Zr24  1  0.50344359  0.89768905  0.50159164  1
  Zr  Zr25  1  0.49631643  0.50696546  0.49609553  1
  Zr  Zr26  1  0.30068485  0.89304826  0.89550377  1
  Zr  Zr27  1  0.10970297  0.30258837  0.69914805  1
  Zr  Zr28  1  0.10046498  0.89906065  0.49955060  1
  Zr  Zr29  1  0.49385147  0.50901676  0.70058587  1
  Zr  Zr30  1  0.28398085  0.30345853  0.10051458  1
  Zr  Zr31  1  0.09649337  0.09417577  0.70702344  1
  Zr  Zr32  1  0.69589960  0.69914906  0.48783648  1
  Zr  Zr33  1  0.29441861  0.50517791  0.70236135  1
  Zr  Zr34  1  0.50316634  0.68808783  0.10010047  1
  Zr  Zr35  1  0.70705832  0.90344114  0.09084630  1
  Zr  Zr36  1  0.91100724  0.89832641  0.30033507  1
  Zr  Zr37  1  0.49350895  0.31156753  0.29596931  1
  Zr  Zr38  1  0.29875670  0.09900136  0.89814998  1
  Zr  Zr39  1  0.68828466  0.49434554  0.09442661  1
  Zr  Zr40  1  0.70643421  0.09528028  0.29938846  1
  Zr  Zr41  1  0.30127392  0.50334382  0.49625104  1
  Zr  Zr42  1  0.29968702  0.69721247  0.09785758  1
  Zr  Zr43  1  0.90742730  0.49958580  0.50926748  1
  Zr  Zr44  1  0.50942281  0.69718490  0.30415530  1
  Zr  Zr45  1  0.69323504  0.71017576  0.10222757  1
  Zr  Zr46  1  0.70043981  0.69882937  0.69784996  1
  Zr  Zr47  1  0.49992541  0.89592121  0.89554031  1
  Zr  Zr48  1  0.69866433  0.09825504  0.49117410  1
  Zr  Zr49  1  0.70514426  0.49885191  0.90000121  1
  Sc  Sc50  1  0.09667712  0.30273325  0.90394227  1
  Sc  Sc51  1  0.89546316  0.69631112  0.50111372  1
  Sc  Sc52  1  0.89976318  0.10523414  0.89356028  1
  Sc  Sc53  1  0.10928006  0.50196254  0.50874278  1
  Sc  Sc54  1  0.49761163  0.69558462  0.49633036  1
  Sc  Sc55  1  0.50558305  0.89486189  0.09676474  1
  Sc  Sc56  1  0.89284681  0.09696956  0.10046622  1
  Sc  Sc57  1  0.71032736  0.50498367  0.50739220  1
  Sc  Sc58  1  0.70273446  0.29400025  0.49955780  1
  Sc  Sc59  1  0.49536362  0.70144841  0.90015566  1
  Sc  Sc60  1  0.89024742  0.89735674  0.89689809  1
  Sc  Sc61  1  0.29536103  0.50341658  0.10554104  1
  Sc  Sc62  1  0.29589638  0.69871721  0.70632369  1
  Sc  Sc63  1  0.10424178  0.89943750  0.70677147  1
  Sc  Sc64  1  0.70197131  0.49734063  0.30365211  1
  Sc  Sc65  1  0.29153864  0.50608318  0.89845981  1
  Sc  Sc66  1  0.90401631  0.30698442  0.70368250  1
  Sc  Sc67  1  0.10606228  0.10226588  0.49210056  1
  Sc  Sc68  1  0.50891687  0.09115452  0.09940155  1
  Sc  Sc69  1  0.10398228  0.29855654  0.50105369  1
  Sc  Sc70  1  0.89692398  0.70266140  0.70206917  1
  Sc  Sc71  1  0.49995656  0.09437435  0.90229371  1
  Sc  Sc72  1  0.49379840  0.70049345  0.70342227  1
  Sc  Sc73  1  0.09816498  0.70202331  0.29430932  1
  Sc  Sc74  1  0.09752834  0.11691991  0.10208111  1
  Sc  Sc75  1  0.91233004  0.49530928  0.10097457  1
  Sc  Sc76  1  0.90072462  0.30659526  0.50342405  1
  Sc  Sc77  1  0.09596069  0.50217984  0.69356974  1
  Sc  Sc78  1  0.69520023  0.89973083  0.89776765  1
  Sc  Sc79  1  0.10256192  0.50055272  0.10095695  1
  Sc  Sc80  1  0.48965804  0.50145800  0.29961445  1
  Sc  Sc81  1  0.29192408  0.69504082  0.50391178  1
  Sc  Sc82  1  0.70450111  0.09710340  0.90828443  1
  Sc  Sc83  1  0.29463343  0.90945600  0.50065753  1
  Sc  Sc84  1  0.29747587  0.30619993  0.30550406  1
  Sc  Sc85  1  0.90117233  0.09965978  0.30041519  1
  Sc  Sc86  1  0.49852502  0.28716758  0.49898886  1
  Sc  Sc87  1  0.70757105  0.29984520  0.29579064  1
  Sc  Sc88  1  0.70750686  0.30038932  0.69637402  1
  Sc  Sc89  1  0.89600322  0.29969587  0.29042801  1
  Sc  Sc90  1  0.51582342  0.30339082  0.10312274  1
  Sc  Sc91  1  0.70667111  0.30069347  0.91427030  1
  Sc  Sc92  1  0.49472599  0.89508572  0.30032207  1
  Sc  Sc93  1  0.89914724  0.08318639  0.49202412  1
  Sc  Sc94  1  0.89173233  0.49953936  0.69345793  1
  Sc  Sc95  1  0.49644292  0.09992949  0.69798382  1
  Sc  Sc96  1  0.11040393  0.70435436  0.89555898  1
  Sc  Sc97  1  0.50524693  0.09694412  0.49824159  1
  Sc  Sc98  1  0.30004015  0.49950191  0.30354726  1
  Sc  Sc99  1  0.70066592  0.09175046  0.70222685  1
  Nb  Nb100  1  0.30060493  0.69734435  0.89489240  1
  Nb  Nb101  1  0.09379085  0.29371248  0.29542212  1
  Nb  Nb102  1  0.09966743  0.70228150  0.69192809  1
  Nb  Nb103  1  0.90784130  0.90165106  0.09764887  1
  Nb  Nb104  1  0.90237057  0.09847869  0.70043872  1
  Nb  Nb105  1  0.69974531  0.88635230  0.29701095  1
  Nb  Nb106  1  0.90304685  0.89721088  0.49925680  1
  Nb  Nb107  1  0.49778592  0.29791723  0.70274707  1
  Nb  Nb108  1  0.29772220  0.09977874  0.09971722  1
  Nb  Nb109  1  0.69839068  0.49839052  0.70030328  1
  Nb  Nb110  1  0.10287569  0.90348744  0.90179376  1
  Nb  Nb111  1  0.70971519  0.30058535  0.10715692  1
  Nb  Nb112  1  0.49508094  0.29750193  0.89907866  1
  Nb  Nb113  1  0.69556511  0.89681601  0.69613408  1
  Nb  Nb114  1  0.10199371  0.10359379  0.30373820  1
  Nb  Nb115  1  0.90284834  0.30214372  0.10261846  1
  Nb  Nb116  1  0.09794591  0.69852479  0.50476073  1
  Nb  Nb117  1  0.09913185  0.89793258  0.10431109  1
  Nb  Nb118  1  0.09876198  0.89867024  0.29503505  1
  Nb  Nb119  1  0.90224202  0.70222683  0.89900447  1
  Nb  Nb120  1  0.70158930  0.70302687  0.29706307  1
  Nb  Nb121  1  0.30350481  0.29808864  0.70171154  1
  Nb  Nb122  1  0.09915895  0.50228219  0.30314991  1
  Nb  Nb123  1  0.08936987  0.30353137  0.10209848  1
  Nb  Nb124  1  0.89863131  0.90980378  0.69070447  1
  Nb  Nb125  1  0.19309439  0.00210282  0.19800501  1
  Nb  Nb126  1  0.40211288  0.39668832  0.80030605  1
  Nb  Nb127  1  0.80998397  0.18928343  0.60211745  1
  Nb  Nb128  1  0.59725703  0.20826376  0.80219821  1
  Nb  Nb129  1  -0.00089842  0.60726696  0.79984249  1
  Nb  Nb130  1  0.39706297  0.20265989  0.00545152  1
  Nb  Nb131  1  0.19311745  0.80037830  0.39914893  1
  Nb  Nb132  1  0.59767231  0.40121515  0.40780015  1
  Nb  Nb133  1  0.59714462  0.39841092  0.79709534  1
  Nb  Nb134  1  0.79931936  0.81109059  0.59878727  1
  Nb  Nb135  1  0.79694419  0.60497192  0.19572574  1
  Nb  Nb136  1  0.00493913  -0.00571110  0.00192386  1
  Nb  Nb137  1  -0.00472065  0.80500766  0.59988991  1
  Nb  Nb138  1  0.00503663  0.80609807  -0.00259115  1
  Nb  Nb139  1  0.59407946  0.40067203  0.60346129  1
  Nb  Nb140  1  -0.00481692  0.19250093  0.60338390  1
  Nb  Nb141  1  0.39697213  0.80401508  0.60097654  1
  Nb  Nb142  1  0.60569957  0.59523162  0.80096846  1
  Nb  Nb143  1  0.19527735  -0.00226414  0.00519730  1
  Nb  Nb144  1  0.00424303  0.59648053  0.40140168  1
  Nb  Nb145  1  0.00641679  0.40240330  0.39399863  1
  Nb  Nb146  1  0.80285237  0.60406201  0.00297339  1
  Nb  Nb147  1  0.40098103  0.39544277  0.60632050  1
  Nb  Nb148  1  0.39746532  0.39238187  -0.00288974  1
  Nb  Nb149  1  0.39559163  0.19880666  0.19170037  1
  Pd  Pd150  1  0.19326232  0.40439346  0.20626455  1
  Pd  Pd151  1  0.60223553  -0.01065623  0.20434551  1
  Pd  Pd152  1  0.39796049  0.00228481  0.00400929  1
  Pd  Pd153  1  0.60609572  0.59186826  0.20856091  1
  Pd  Pd154  1  0.00067516  0.80144194  0.79802160  1
  Pd  Pd155  1  0.40387552  0.79608267  0.00203335  1
  Pd  Pd156  1  0.39698525  0.20086763  0.39496300  1
  Pd  Pd157  1  -0.00514896  0.20753869  0.40745629  1
  Pd  Pd158  1  0.59749095  0.79138554  0.59658885  1
  Pd  Pd159  1  0.60255923  0.00878355  0.80333229  1
  Pd  Pd160  1  0.19232131  0.39644965  0.39860344  1
  Pd  Pd161  1  0.79770333  0.39152526  0.80044397  1
  Pd  Pd162  1  0.59686667  0.20161765  -0.00261019  1
  Pd  Pd163  1  -0.00752569  -0.00845682  0.80864016  1
  Pd  Pd164  1  0.39237043  0.59098716  -0.00254494  1
  Pd  Pd165  1  0.19894244  0.80136223  -0.00318134  1
  Pd  Pd166  1  0.00345271  0.60780661  -0.00748633  1
  Pd  Pd167  1  0.19728236  0.19777651  -0.00273637  1
  Pd  Pd168  1  0.40825423  0.79213614  0.19835333  1
  Pd  Pd169  1  0.80854506  0.40645818  0.00832837  1
  Pd  Pd170  1  0.60223180  0.20951593  0.38890602  1
  Pd  Pd171  1  0.80143740  0.80957013  0.78972525  1
  Pd  Pd172  1  0.40071565  -0.00150101  0.59986709  1
  Pd  Pd173  1  0.79346336  0.20282144  0.79592061  1
  Pd  Pd174  1  0.79415570  0.00213483  0.59736081  1
  Pd  Pd175  1  0.39994963  0.00112914  0.79504282  1
  Pd  Pd176  1  0.80552061  0.80335566  0.19676896  1
  Pd  Pd177  1  0.40051337  0.19791921  0.59831500  1
  Pd  Pd178  1  0.80633834  0.19791675  0.00548306  1
  Pd  Pd179  1  0.81154912  0.20201041  0.40511825  1
  Pd  Pd180  1  0.80247083  -0.00850764  0.20470684  1
  Pd  Pd181  1  0.39911080  0.00349723  0.19466499  1
  Pd  Pd182  1  0.80572869  0.59571611  0.39397397  1
  Pd  Pd183  1  0.80053007  0.80610750  0.40574762  1
  Pd  Pd184  1  0.80400788  0.59927892  0.80200523  1
  Pd  Pd185  1  0.00357490  0.40781091  0.79403781  1
  Pd  Pd186  1  0.00881989  0.00120457  0.59652114  1
  Pd  Pd187  1  0.61029696  0.19882085  0.60846388  1
  Pd  Pd188  1  0.80012205  0.39917642  0.40606845  1
  Pd  Pd189  1  0.79727800  -0.00340989  0.80176100  1
  Pd  Pd190  1  0.40472192  0.00093523  0.40379957  1
  Pd  Pd191  1  0.59940162  0.20339979  0.20502082  1
  Pd  Pd192  1  0.59599507  -0.00572219  0.38793553  1
  Pd  Pd193  1  0.00630796  0.01182337  0.19517646  1
  Pd  Pd194  1  -0.00268811  0.60264004  0.20515388  1
  Pd  Pd195  1  0.00613209  0.00125166  0.39746356  1
  Pd  Pd196  1  -0.00948804  0.19487656  0.19792072  1
  Pd  Pd197  1  0.20239374  0.19919373  0.20711237  1
  Pd  Pd198  1  0.60148868  0.60040352  0.60151409  1
  Pd  Pd199  1  0.38936193  0.79461290  0.41136138  1
  Rh  Rh200  1  0.59429233  0.79997431  -0.00424710  1
  Rh  Rh201  1  0.61128965  0.61246482  -0.00904425  1
  Rh  Rh202  1  0.40441367  0.59677867  0.81110982  1
  Rh  Rh203  1  0.60510861  0.59178848  0.39570927  1
  Rh  Rh204  1  0.00121737  0.20776753  0.79253252  1
  Rh  Rh205  1  0.00654159  0.39672253  0.20437764  1
  Rh  Rh206  1  0.00595577  0.38977633  0.59417593  1
  Rh  Rh207  1  0.19044189  0.19290780  0.60315091  1
  Rh  Rh208  1  0.20060631  0.20686606  0.39540048  1
  Rh  Rh209  1  0.60790249  0.40049383  0.21273934  1
  Rh  Rh210  1  0.80165222  -0.01100029  0.38885649  1
  Rh  Rh211  1  0.40535765  0.39579583  0.41408971  1
  Rh  Rh212  1  0.18764005  0.60525996  0.79575978  1
  Rh  Rh213  1  0.59884064  0.38796383  -0.00249249  1
  Rh  Rh214  1  0.20748321  0.40310203  0.60226957  1
  Rh  Rh215  1  0.60199594  -0.00421366  -0.00313082  1
  Rh  Rh216  1  0.59504434  0.80409028  0.20217826  1
  Rh  Rh217  1  0.79284040  0.39250695  0.59708112  1
  Rh  Rh218  1  0.20023787  0.79766917  0.79892243  1
  Rh  Rh219  1  0.39604625  0.79869176  0.79211393  1
  Rh  Rh220  1  0.80702560  0.00032886  -0.00431734  1
  Rh  Rh221  1  0.19991844  0.59445573  0.20341945  1
  Rh  Rh222  1  -0.00468629  0.61052001  0.60241377  1
  Rh  Rh223  1  0.19853686  0.79895121  0.59591280  1
  Rh  Rh224  1  0.19474729  0.00635185  0.60166279  1
  Rh  Rh225  1  0.19171969  -0.00666269  0.39034502  1
  Rh  Rh226  1  0.39531873  0.60686142  0.39622572  1
  Rh  Rh227  1  0.20048918  0.80372583  0.20727618  1
  Rh  Rh228  1  0.39097118  0.60708247  0.59787867  1
  Rh  Rh229  1  0.19744080  0.40342060  0.00199443  1
  Rh  Rh230  1  0.59908439  0.79183474  0.80004916  1
  Rh  Rh231  1  0.00034314  0.79723252  0.19400223  1
  Rh  Rh232  1  0.19193155  0.20109221  0.79949147  1
  Rh  Rh233  1  0.20240907  0.00040913  0.80641678  1
  Rh  Rh234  1  0.40321521  0.19650165  0.80577206  1
  Rh  Rh235  1  0.20302911  0.60183868  -0.00047348  1
  Rh  Rh236  1  0.20202938  0.60075828  0.60465866  1
  Rh  Rh237  1  0.79727280  0.40862594  0.19090868  1
  Rh  Rh238  1  0.60104226  0.00692103  0.60168476  1
  Rh  Rh239  1  0.79955882  0.60808244  0.60092766  1
  Rh  Rh240  1  0.00458319  0.39868697  0.00294482  1
  Rh  Rh241  1  0.80710229  0.80097319  0.00152043  1
  Rh  Rh242  1  0.39904913  0.60222535  0.20282356  1
  Rh  Rh243  1  0.19135769  0.60874964  0.39698211  1
  Rh  Rh244  1  0.20079866  0.40310705  0.79683190  1
  Rh  Rh245  1  0.59986989  0.80184424  0.39733898  1
  Rh  Rh246  1  0.80244036  0.19797385  0.19634218  1
  Rh  Rh247  1  0.00677696  0.79123071  0.40849095  1
  Rh  Rh248  1  0.39245610  0.39250228  0.18864713  1
  Rh  Rh249  1  -0.00690141  0.19743114  0.00660600  1
