# generated using pymatgen
data_ZrScNbPdRh
_symmetry_space_group_name_H-M   'P 1'
_cell_length_a   16.55313314
_cell_length_b   16.55411863
_cell_length_c   16.55768721
_cell_angle_alpha   90.00284917
_cell_angle_beta   89.98510071
_cell_angle_gamma   90.00196177
_symmetry_Int_Tables_number   1
_chemical_formula_structural   ZrScNbPdRh
_chemical_formula_sum   'Zr50 Sc50 Nb50 Pd50 Rh50'
_cell_volume   4537.17917311
_cell_formula_units_Z   50
loop_
 _symmetry_equiv_pos_site_id
 _symmetry_equiv_pos_as_xyz
  1  'x, y, z'
loop_
 _atom_site_type_symbol
 _atom_site_label
 _atom_site_symmetry_multiplicity
 _atom_site_fract_x
 _atom_site_fract_y
 _atom_site_fract_z
 _atom_site_occupancy
  Zr  Zr0  1  0.29920288  0.50453986  0.70118786  1
  Zr  Zr1  1  0.49791810  0.49665260  0.69808161  1
  Zr  Zr2  1  0.90409901  0.69093270  0.50114772  1
  Zr  Zr3  1  0.49714221  0.10067392  0.29786435  1
  Zr  Zr4  1  0.10135125  0.90854131  0.48689210  1
  Zr  Zr5  1  0.70033359  0.10092410  0.30809486  1
  Zr  Zr6  1  0.49750870  0.89848402  0.29552295  1
  Zr  Zr7  1  0.29997846  0.89178747  0.70454575  1
  Zr  Zr8  1  0.49260598  0.30647131  0.49694525  1
  Zr  Zr9  1  0.29765967  0.89697669  0.49885289  1
  Zr  Zr10  1  0.70031663  0.90367060  0.30297223  1
  Zr  Zr11  1  0.30100071  0.31249748  0.70482963  1
  Zr  Zr12  1  0.29682699  0.30283245  0.30589930  1
  Zr  Zr13  1  0.30596915  0.70443842  0.90289297  1
  Zr  Zr14  1  0.90768372  0.11076590  0.09196328  1
  Zr  Zr15  1  0.69980181  0.69469933  0.29952588  1
  Zr  Zr16  1  0.70339075  0.90425510  0.89127863  1
  Zr  Zr17  1  0.09963527  0.69829366  0.49554130  1
  Zr  Zr18  1  0.69573777  0.28622523  0.70493403  1
  Zr  Zr19  1  0.11021523  0.09902718  0.09161126  1
  Zr  Zr20  1  0.49651744  0.69852603  0.28595599  1
  Zr  Zr21  1  0.90625115  0.10407850  0.49706483  1
  Zr  Zr22  1  0.89881641  0.50149946  0.70854041  1
  Zr  Zr23  1  0.29444452  0.10343563  0.49190370  1
  Zr  Zr24  1  0.50227923  0.30863327  0.89528902  1
  Zr  Zr25  1  0.49973737  0.90185432  0.70324461  1
  Zr  Zr26  1  0.29486199  0.70523376  0.50102937  1
  Zr  Zr27  1  0.70819557  0.48980510  0.69377478  1
  Zr  Zr28  1  0.49244578  0.89969121  0.50138565  1
  Zr  Zr29  1  0.29794637  0.70227193  0.28866685  1
  Zr  Zr30  1  0.91138646  0.70414233  0.70370190  1
  Zr  Zr31  1  0.69999570  0.09940224  0.09276672  1
  Zr  Zr32  1  0.89111990  0.90058385  0.69995094  1
  Zr  Zr33  1  0.70572253  0.30314527  0.90018188  1
  Zr  Zr34  1  0.69655465  0.68107685  0.49829294  1
  Zr  Zr35  1  0.89869656  0.10545318  0.69458741  1
  Zr  Zr36  1  0.29846202  0.70094176  0.69945520  1
  Zr  Zr37  1  0.70083471  0.10360045  0.89089370  1
  Zr  Zr38  1  0.09483648  0.89451120  0.70777444  1
  Zr  Zr39  1  0.89905646  0.49339696  0.50631699  1
  Zr  Zr40  1  0.51462162  0.10599813  0.70379682  1
  Zr  Zr41  1  0.90658830  0.89746088  0.89392146  1
  Zr  Zr42  1  0.90244899  0.69402890  0.89373122  1
  Zr  Zr43  1  0.89553425  0.89668853  0.29239673  1
  Zr  Zr44  1  0.28807299  0.50174404  0.90449493  1
  Zr  Zr45  1  0.90291199  0.10427430  0.30393721  1
  Zr  Zr46  1  0.49034286  0.30140445  0.09447151  1
  Zr  Zr47  1  0.29969451  0.90260461  0.89713065  1
  Zr  Zr48  1  0.70772374  0.29766531  0.29834353  1
  Zr  Zr49  1  0.50438144  0.50483887  0.90736658  1
  Sc  Sc50  1  0.29725377  0.50047533  0.09933385  1
  Sc  Sc51  1  0.10120760  0.10692750  0.90099430  1
  Sc  Sc52  1  0.09660739  0.11139103  0.71039264  1
  Sc  Sc53  1  0.69484953  0.69273492  0.11108464  1
  Sc  Sc54  1  0.28790426  0.49693350  0.29626401  1
  Sc  Sc55  1  0.29986075  0.30125342  0.90128914  1
  Sc  Sc56  1  0.70414671  0.09655532  0.50223765  1
  Sc  Sc57  1  0.49776594  0.69548125  0.50741684  1
  Sc  Sc58  1  0.91091588  0.50267080  0.11104890  1
  Sc  Sc59  1  0.09447367  0.30628172  0.50159549  1
  Sc  Sc60  1  0.69780627  0.50274952  0.89234385  1
  Sc  Sc61  1  0.90822552  0.10540769  0.89817913  1
  Sc  Sc62  1  0.29769240  0.89492983  0.30130971  1
  Sc  Sc63  1  0.29872206  0.48951579  0.50066003  1
  Sc  Sc64  1  0.90123805  0.69753043  0.11283590  1
  Sc  Sc65  1  0.10266971  0.90926985  0.90528210  1
  Sc  Sc66  1  0.10668010  0.69738571  0.10513129  1
  Sc  Sc67  1  0.50159210  0.10477747  0.49157032  1
  Sc  Sc68  1  0.89644663  0.90107583  0.50725104  1
  Sc  Sc69  1  0.49048080  0.90006869  0.90031900  1
  Sc  Sc70  1  0.09827420  0.30023744  0.10220172  1
  Sc  Sc71  1  0.10331451  0.09636418  0.30452124  1
  Sc  Sc72  1  0.70120373  0.90228351  0.11085670  1
  Sc  Sc73  1  0.89783393  0.68605051  0.29594872  1
  Sc  Sc74  1  0.10265414  0.49214571  0.70417559  1
  Sc  Sc75  1  0.71255878  0.29759415  0.09893475  1
  Sc  Sc76  1  0.49533755  0.29485709  0.31101711  1
  Sc  Sc77  1  0.49252024  0.69361875  0.70076278  1
  Sc  Sc78  1  0.09686100  0.68706504  0.90541929  1
  Sc  Sc79  1  0.10199521  0.69605116  0.69874637  1
  Sc  Sc80  1  0.28738214  0.89253888  0.09465467  1
  Sc  Sc81  1  0.29611614  0.10697000  0.71947551  1
  Sc  Sc82  1  0.50354576  0.50170260  0.49658535  1
  Sc  Sc83  1  0.69509322  0.50475603  0.10227462  1
  Sc  Sc84  1  0.09265297  0.49712093  0.48941851  1
  Sc  Sc85  1  0.10291775  0.69097495  0.29817138  1
  Sc  Sc86  1  0.89990231  0.30533812  0.69413605  1
  Sc  Sc87  1  0.70861316  0.68809698  0.70525180  1
  Sc  Sc88  1  0.90500898  0.29653561  0.50261980  1
  Sc  Sc89  1  0.49336072  0.09144154  0.90403828  1
  Sc  Sc90  1  0.10666964  0.89758701  0.29465873  1
  Sc  Sc91  1  0.90587955  0.30084589  0.89966388  1
  Sc  Sc92  1  0.09463967  0.10611936  0.49202688  1
  Sc  Sc93  1  0.49890188  0.49855265  0.30370729  1
  Sc  Sc94  1  0.29671597  0.10841805  0.29378426  1
  Sc  Sc95  1  0.69764631  0.51021906  0.30284679  1
  Sc  Sc96  1  0.70206356  0.29170972  0.49260295  1
  Sc  Sc97  1  0.49710416  0.50737240  0.09731742  1
  Sc  Sc98  1  0.29553916  0.29262319  0.09745052  1
  Sc  Sc99  1  0.10426247  0.50353199  0.09624196  1
  Nb  Nb100  1  0.69921798  0.69860010  0.90470819  1
  Nb  Nb101  1  0.89735689  0.30038476  0.10581105  1
  Nb  Nb102  1  0.49317514  0.70199178  0.09916910  1
  Nb  Nb103  1  0.30329153  0.30083348  0.50091309  1
  Nb  Nb104  1  0.30585319  0.10453653  0.09330393  1
  Nb  Nb105  1  0.89868536  0.89791512  0.09968583  1
  Nb  Nb106  1  0.30583114  0.69521890  0.10555209  1
  Nb  Nb107  1  0.90874706  0.49619210  0.30241602  1
  Nb  Nb108  1  0.08874619  0.49817995  0.90678084  1
  Nb  Nb109  1  0.10318693  0.29757883  0.70423134  1
  Nb  Nb110  1  0.09330255  0.90152004  0.09858286  1
  Nb  Nb111  1  0.70178001  0.49631849  0.49944920  1
  Nb  Nb112  1  0.70045447  0.91316988  0.69602678  1
  Nb  Nb113  1  0.10026295  0.31951108  0.29860306  1
  Nb  Nb114  1  0.49521984  0.10055012  0.09678278  1
  Nb  Nb115  1  0.90551495  0.30751285  0.28336738  1
  Nb  Nb116  1  0.70131764  0.08771139  0.70435320  1
  Nb  Nb117  1  0.49959422  0.90484552  0.09866835  1
  Nb  Nb118  1  0.91064471  0.50391751  0.90680618  1
  Nb  Nb119  1  0.50826407  0.69967087  0.90754003  1
  Nb  Nb120  1  0.10475203  0.30784802  0.88999057  1
  Nb  Nb121  1  0.29281041  0.09995070  0.91305141  1
  Nb  Nb122  1  0.49795098  0.30053282  0.69823679  1
  Nb  Nb123  1  0.09579531  0.49192459  0.29589128  1
  Nb  Nb124  1  0.70131232  0.89422588  0.50749564  1
  Nb  Nb125  1  0.59546493  0.20039303  0.19363046  1
  Nb  Nb126  1  0.40125859  0.39495859  0.19989698  1
  Nb  Nb127  1  -0.00688738  0.79773500  0.39725779  1
  Nb  Nb128  1  0.79858555  0.79753292  0.00167694  1
  Nb  Nb129  1  0.39851694  0.00245944  0.18751448  1
  Nb  Nb130  1  0.60749079  0.80225977  0.60484592  1
  Nb  Nb131  1  0.79696375  0.79551363  0.40384849  1
  Nb  Nb132  1  0.39585057  0.20251697  0.60408847  1
  Nb  Nb133  1  0.00530057  0.00235584  0.60231073  1
  Nb  Nb134  1  0.80667745  0.40242711  0.39420229  1
  Nb  Nb135  1  -0.00037610  -0.00108493  0.19149147  1
  Nb  Nb136  1  0.60212616  0.39540652  0.59917929  1
  Nb  Nb137  1  0.80716581  -0.00520561  -0.00127642  1
  Nb  Nb138  1  0.60370224  0.79962365  0.40600707  1
  Nb  Nb139  1  0.81065266  0.40763665  0.00214832  1
  Nb  Nb140  1  0.59724637  0.20020715  0.00170903  1
  Nb  Nb141  1  0.39265571  0.00893960  0.60421632  1
  Nb  Nb142  1  0.20479794  0.20489988  0.60162377  1
  Nb  Nb143  1  0.19932809  0.00610215  0.60398365  1
  Nb  Nb144  1  0.39245717  0.60340930  0.39614912  1
  Nb  Nb145  1  0.60308185  0.79688878  0.80166766  1
  Nb  Nb146  1  0.80394394  0.60052564  -0.00226925  1
  Nb  Nb147  1  0.59598629  0.39115113  0.20005262  1
  Nb  Nb148  1  -0.00444677  0.80289355  0.00630266  1
  Nb  Nb149  1  0.59974152  0.79811935  0.00096000  1
  Pd  Pd150  1  0.61123724  0.39676212  0.00903070  1
  Pd  Pd151  1  0.80454897  -0.00601829  0.40826829  1
  Pd  Pd152  1  0.19352633  0.59963681  0.80315905  1
  Pd  Pd153  1  0.20293059  -0.00094926  0.19688102  1
  Pd  Pd154  1  0.19098643  0.79125128  0.81154013  1
  Pd  Pd155  1  0.19698264  0.39527522  0.00380778  1
  Pd  Pd156  1  0.80468548  0.60139227  0.60451862  1
  Pd  Pd157  1  0.19520625  0.59105758  0.59367205  1
  Pd  Pd158  1  0.39526580  0.59812118  -0.00000406  1
  Pd  Pd159  1  0.19011419  0.21156861  0.40232256  1
  Pd  Pd160  1  0.60524827  -0.00298261  -0.00561851  1
  Pd  Pd161  1  0.39208862  0.00376136  0.39262301  1
  Pd  Pd162  1  0.79721446  0.19112940  0.20105380  1
  Pd  Pd163  1  0.79542515  0.19927155  0.59865492  1
  Pd  Pd164  1  0.60219922  0.40128852  0.79254811  1
  Pd  Pd165  1  -0.00061054  0.00609408  0.79535322  1
  Pd  Pd166  1  0.59944169  0.60204696  0.79374118  1
  Pd  Pd167  1  0.60990419  0.39882962  0.39765356  1
  Pd  Pd168  1  0.19414621  0.20456678  0.20160098  1
  Pd  Pd169  1  0.40640061  0.78942098  0.39907443  1
  Pd  Pd170  1  0.59701280  0.20356346  0.59078334  1
  Pd  Pd171  1  0.39715673  0.41031784  0.80917797  1
  Pd  Pd172  1  0.19291154  0.39919001  0.59599669  1
  Pd  Pd173  1  -0.00193793  0.39415472  0.00785499  1
  Pd  Pd174  1  0.39904885  0.00790789  0.79667523  1
  Pd  Pd175  1  0.00442863  0.80005065  0.20301345  1
  Pd  Pd176  1  0.79346643  0.79626669  0.79777913  1
  Pd  Pd177  1  0.40192723  0.60029387  0.80844209  1
  Pd  Pd178  1  0.19534342  0.00398411  0.79898050  1
  Pd  Pd179  1  0.01324546  0.19539573  0.20524721  1
  Pd  Pd180  1  0.00870995  0.21319253  -0.00552554  1
  Pd  Pd181  1  0.60248018  0.80113478  0.19738138  1
  Pd  Pd182  1  0.40251261  0.20275356  -0.01204570  1
  Pd  Pd183  1  0.00843552  0.58964399  0.60528891  1
  Pd  Pd184  1  0.20315500  0.59401953  0.39887154  1
  Pd  Pd185  1  0.00319604  0.21469258  0.38861952  1
  Pd  Pd186  1  0.59418247  -0.00015670  0.59253887  1
  Pd  Pd187  1  0.80853015  0.01220686  0.19264175  1
  Pd  Pd188  1  0.60025473  -0.00526283  0.40874093  1
  Pd  Pd189  1  0.59531157  0.00678763  0.19871847  1
  Pd  Pd190  1  0.40252518  0.19786513  0.80443003  1
  Pd  Pd191  1  0.79367854  0.78867802  0.60073986  1
  Pd  Pd192  1  0.80904556  0.20096946  0.79959587  1
  Pd  Pd193  1  0.19046880  0.80661254  0.59898370  1
  Pd  Pd194  1  0.19025921  0.79316584  -0.00283635  1
  Pd  Pd195  1  0.79320078  0.41253008  0.19944087  1
  Pd  Pd196  1  0.40272153  0.80463600  0.00507308  1
  Pd  Pd197  1  -0.00244050  0.39665746  0.79578493  1
  Pd  Pd198  1  0.00689202  0.80788237  0.59124395  1
  Pd  Pd199  1  0.39431664  0.59463015  0.58982583  1
  Rh  Rh200  1  0.39399122  0.40627967  0.00248777  1
  Rh  Rh201  1  -0.00032354  0.21048571  0.80069768  1
  Rh  Rh202  1  -0.00504424  0.60939508  0.00977968  1
  Rh  Rh203  1  0.80544592  0.00797189  0.59617316  1
  Rh  Rh204  1  -0.00789036  0.39541091  0.39870868  1
  Rh  Rh205  1  0.20351585  0.39810693  0.19360145  1
  Rh  Rh206  1  0.19748393  0.39922695  0.40476385  1
  Rh  Rh207  1  0.79268361  0.79337257  0.20197573  1
  Rh  Rh208  1  0.60586327  0.60649785  0.00657125  1
  Rh  Rh209  1  0.80992037  0.00720729  0.80339097  1
  Rh  Rh210  1  0.19872505  0.40627778  0.80470059  1
  Rh  Rh211  1  0.19008532  0.79527570  0.39336708  1
  Rh  Rh212  1  -0.00731681  -0.01111248  0.39244218  1
  Rh  Rh213  1  0.39733311  0.19869549  0.40329423  1
  Rh  Rh214  1  0.59998895  0.19893770  0.39699342  1
  Rh  Rh215  1  -0.00044294  0.60076441  0.39455356  1
  Rh  Rh216  1  0.40479257  0.80323005  0.60660038  1
  Rh  Rh217  1  0.01123811  0.19834831  0.60369284  1
  Rh  Rh218  1  0.20191110  0.20666909  0.80478194  1
  Rh  Rh219  1  0.39062880  0.41080269  0.39167917  1
  Rh  Rh220  1  0.20306968  0.60473566  0.00249801  1
  Rh  Rh221  1  0.38915602  -0.00671044  0.00549908  1
  Rh  Rh222  1  0.19658639  0.20657290  -0.00623834  1
  Rh  Rh223  1  0.58428596  0.60652575  0.39764538  1
  Rh  Rh224  1  0.59440754  0.20138063  0.81032255  1
  Rh  Rh225  1  0.81028238  0.59092415  0.39954166  1
  Rh  Rh226  1  0.80004585  0.20284271  -0.00460728  1
  Rh  Rh227  1  0.19990509  0.59637551  0.19684722  1
  Rh  Rh228  1  0.79031764  0.38801601  0.58781574  1
  Rh  Rh229  1  -0.00453656  -0.00385158  0.00362491  1
  Rh  Rh230  1  0.01109855  0.79419059  0.81139920  1
  Rh  Rh231  1  0.00860860  0.59461237  0.79489531  1
  Rh  Rh232  1  0.59435547  -0.00496882  0.80585185  1
  Rh  Rh233  1  0.19824368  0.79791607  0.19657187  1
  Rh  Rh234  1  0.39651011  0.58796831  0.20424019  1
  Rh  Rh235  1  0.81373287  0.21051388  0.39454767  1
  Rh  Rh236  1  0.20578625  0.00114123  0.39633733  1
  Rh  Rh237  1  0.80181216  0.59374910  0.19772629  1
  Rh  Rh238  1  0.59037690  0.59105162  0.19845897  1
  Rh  Rh239  1  0.00650762  0.40267194  0.19098560  1
  Rh  Rh240  1  0.00950127  0.59507892  0.20237473  1
  Rh  Rh241  1  0.40568487  0.39950644  0.60004020  1
  Rh  Rh242  1  0.80195400  0.59371183  0.80642365  1
  Rh  Rh243  1  0.39444801  0.81262880  0.18812427  1
  Rh  Rh244  1  0.40773947  0.79042585  0.80192975  1
  Rh  Rh245  1  0.00366317  0.39988509  0.60593946  1
  Rh  Rh246  1  0.40114599  0.19959803  0.20308641  1
  Rh  Rh247  1  0.60152226  0.59199626  0.60692991  1
  Rh  Rh248  1  0.20293005  -0.00074684  0.00131373  1
  Rh  Rh249  1  0.80896824  0.40400114  0.81263842  1
