# generated using pymatgen
data_ZrScNbPdRh
_symmetry_space_group_name_H-M   'P 1'
_cell_length_a   16.55177553
_cell_length_b   16.56053365
_cell_length_c   16.56062422
_cell_angle_alpha   90.01692606
_cell_angle_beta   90.01465229
_cell_angle_gamma   90.01428295
_symmetry_Int_Tables_number   1
_chemical_formula_structural   ZrScNbPdRh
_chemical_formula_sum   'Zr50 Sc50 Nb50 Pd50 Rh50'
_cell_volume   4539.36987558
_cell_formula_units_Z   50
loop_
 _symmetry_equiv_pos_site_id
 _symmetry_equiv_pos_as_xyz
  1  'x, y, z'
loop_
 _atom_site_type_symbol
 _atom_site_label
 _atom_site_symmetry_multiplicity
 _atom_site_fract_x
 _atom_site_fract_y
 _atom_site_fract_z
 _atom_site_occupancy
  Zr  Zr0  1  0.70429638  0.70275752  0.30199395  1
  Zr  Zr1  1  0.69811150  0.29867064  0.49721133  1
  Zr  Zr2  1  0.30242444  0.90944192  0.70917057  1
  Zr  Zr3  1  0.30161800  0.30791386  0.49227296  1
  Zr  Zr4  1  0.50800052  0.70165389  0.30549238  1
  Zr  Zr5  1  0.50231506  0.70251725  0.08977382  1
  Zr  Zr6  1  0.30352329  0.70127370  0.50586923  1
  Zr  Zr7  1  0.31043449  0.70002039  0.09397316  1
  Zr  Zr8  1  0.90184738  0.70556043  0.10445123  1
  Zr  Zr9  1  0.90478822  0.28959738  0.89392126  1
  Zr  Zr10  1  0.89945186  0.49717361  0.10178644  1
  Zr  Zr11  1  0.10186065  0.49188537  0.89487965  1
  Zr  Zr12  1  0.70072444  0.89989802  0.30608163  1
  Zr  Zr13  1  0.69637497  0.29967714  0.89543930  1
  Zr  Zr14  1  0.50536851  0.30009884  0.30049607  1
  Zr  Zr15  1  0.69756904  0.90317956  0.69761118  1
  Zr  Zr16  1  0.90153422  0.10181033  0.70044777  1
  Zr  Zr17  1  0.09449739  0.90236016  0.10263276  1
  Zr  Zr18  1  0.29676970  0.89941343  0.09856907  1
  Zr  Zr19  1  0.09576948  0.11537444  0.90440827  1
  Zr  Zr20  1  0.48585444  0.50244783  0.09056295  1
  Zr  Zr21  1  0.29791946  0.70665252  0.31012809  1
  Zr  Zr22  1  0.09669635  0.50693656  0.69950827  1
  Zr  Zr23  1  0.90916090  0.90672529  0.69356385  1
  Zr  Zr24  1  0.29800866  0.10291127  0.31367865  1
  Zr  Zr25  1  0.09661376  0.90266483  0.51278872  1
  Zr  Zr26  1  0.10933239  0.69568450  0.49565446  1
  Zr  Zr27  1  0.89903359  0.09706128  0.89848184  1
  Zr  Zr28  1  0.09716343  0.30901594  0.30489705  1
  Zr  Zr29  1  0.69972451  0.90064177  0.88946518  1
  Zr  Zr30  1  0.49795662  0.09450444  0.70086550  1
  Zr  Zr31  1  0.30049072  0.31716076  0.09710255  1
  Zr  Zr32  1  0.50851913  0.69645569  0.90164425  1
  Zr  Zr33  1  0.50479236  0.10064792  0.90637354  1
  Zr  Zr34  1  0.49676019  0.50293118  0.50010770  1
  Zr  Zr35  1  0.69619839  0.09254991  0.50174283  1
  Zr  Zr36  1  0.10339075  0.90803406  0.90303294  1
  Zr  Zr37  1  0.70255505  0.49669351  0.70148284  1
  Zr  Zr38  1  0.89662446  0.50331239  0.69429411  1
  Zr  Zr39  1  0.29666618  0.10263473  0.69854843  1
  Zr  Zr40  1  0.70552103  0.29709283  0.29805170  1
  Zr  Zr41  1  0.69617253  0.50756017  0.89694290  1
  Zr  Zr42  1  0.28652005  0.29573238  0.89851364  1
  Zr  Zr43  1  0.10273996  0.29849821  0.09112990  1
  Zr  Zr44  1  0.09854257  0.71079727  0.90101276  1
  Zr  Zr45  1  0.30063693  0.09572714  0.89029775  1
  Zr  Zr46  1  0.10472255  0.50345507  0.49164347  1
  Zr  Zr47  1  0.68894764  0.29855553  0.69456730  1
  Zr  Zr48  1  0.50468437  0.89787784  0.90220281  1
  Zr  Zr49  1  0.10255582  0.10013712  0.68848001  1
  Sc  Sc50  1  0.70562163  0.89917471  0.10017721  1
  Sc  Sc51  1  0.69867571  0.09459228  0.30058294  1
  Sc  Sc52  1  0.69097020  0.70702391  0.70290445  1
  Sc  Sc53  1  0.49963906  0.69779899  0.69291683  1
  Sc  Sc54  1  0.90146604  0.90162603  0.10652781  1
  Sc  Sc55  1  0.49919136  0.50725649  0.89303889  1
  Sc  Sc56  1  0.69760595  0.69614823  0.49382607  1
  Sc  Sc57  1  0.89454384  0.69060713  0.49585195  1
  Sc  Sc58  1  0.69578253  0.29624252  0.10916789  1
  Sc  Sc59  1  0.30825906  0.49384942  0.90749765  1
  Sc  Sc60  1  0.10835645  0.90061656  0.29776599  1
  Sc  Sc61  1  0.70665200  0.48532088  0.09408088  1
  Sc  Sc62  1  0.90411354  0.29383776  0.49129469  1
  Sc  Sc63  1  0.30511233  0.89542900  0.49873014  1
  Sc  Sc64  1  0.89580000  0.09453702  0.30077340  1
  Sc  Sc65  1  0.89803490  0.70725257  0.29846085  1
  Sc  Sc66  1  0.70649352  0.50036654  0.50067247  1
  Sc  Sc67  1  0.09916287  0.49949661  0.30131152  1
  Sc  Sc68  1  0.30224913  0.48753627  0.29804100  1
  Sc  Sc69  1  0.49851458  0.28650184  0.09990494  1
  Sc  Sc70  1  0.50183064  0.49694222  0.30303756  1
  Sc  Sc71  1  0.88915497  0.90040106  0.29529935  1
  Sc  Sc72  1  0.88673339  0.49942717  0.89334291  1
  Sc  Sc73  1  0.69674315  0.09747942  0.10270124  1
  Sc  Sc74  1  0.09518229  0.71329959  0.10338220  1
  Sc  Sc75  1  0.29438976  0.90239571  0.90576630  1
  Sc  Sc76  1  0.89649218  0.91034341  0.89198090  1
  Sc  Sc77  1  0.31423484  0.50804826  0.69610289  1
  Sc  Sc78  1  0.89879538  0.08582662  0.10139260  1
  Sc  Sc79  1  0.10166847  0.70249239  0.30236799  1
  Sc  Sc80  1  0.50315806  0.50382469  0.69692842  1
  Sc  Sc81  1  0.91035160  0.69931076  0.70566705  1
  Sc  Sc82  1  0.69890846  0.90640880  0.49769589  1
  Sc  Sc83  1  0.09325056  0.09339645  0.10113066  1
  Sc  Sc84  1  0.09652596  0.29221804  0.49396712  1
  Sc  Sc85  1  0.48995185  0.10059840  0.30034917  1
  Sc  Sc86  1  0.69263157  0.49138838  0.30926799  1
  Sc  Sc87  1  0.50245262  0.89833828  0.50024646  1
  Sc  Sc88  1  0.88494604  0.30795430  0.10555577  1
  Sc  Sc89  1  0.31115373  0.09823162  0.10336790  1
  Sc  Sc90  1  0.69578951  0.70037955  0.09117558  1
  Sc  Sc91  1  0.90044348  0.29237336  0.69653787  1
  Sc  Sc92  1  0.29839451  0.90452308  0.30826311  1
  Sc  Sc93  1  0.69548075  0.09836027  0.69369029  1
  Sc  Sc94  1  0.90920987  0.48854666  0.29984499  1
  Sc  Sc95  1  0.90195199  0.10374063  0.50684858  1
  Sc  Sc96  1  0.10289657  0.09696600  0.30604177  1
  Sc  Sc97  1  0.09953420  0.49162288  0.10840391  1
  Sc  Sc98  1  0.50354377  0.89667854  0.69539241  1
  Sc  Sc99  1  0.49781816  0.30960583  0.50468589  1
  Nb  Nb100  1  0.49589980  0.89823895  0.09847431  1
  Nb  Nb101  1  0.29807876  0.29880149  0.69778380  1
  Nb  Nb102  1  0.49777681  0.29539184  0.69724212  1
  Nb  Nb103  1  0.89447148  0.69641419  0.90413035  1
  Nb  Nb104  1  0.50219183  0.09397161  0.10281232  1
  Nb  Nb105  1  0.10627104  0.30518240  0.70838464  1
  Nb  Nb106  1  0.10381399  0.10131439  0.49607999  1
  Nb  Nb107  1  0.30197627  0.50097070  0.49877515  1
  Nb  Nb108  1  0.49994618  0.10074960  0.50112920  1
  Nb  Nb109  1  0.49836671  0.29481237  0.89677244  1
  Nb  Nb110  1  0.50315238  0.89675697  0.30143993  1
  Nb  Nb111  1  0.90693937  0.49795750  0.50617636  1
  Nb  Nb112  1  0.49654055  0.70350114  0.50236483  1
  Nb  Nb113  1  0.29452286  0.10454563  0.49892906  1
  Nb  Nb114  1  0.30216916  0.70200806  0.90167552  1
  Nb  Nb115  1  0.10434527  0.70503493  0.70399111  1
  Nb  Nb116  1  0.70388618  0.09066753  0.90249302  1
  Nb  Nb117  1  0.09930856  0.89664337  0.70296149  1
  Nb  Nb118  1  0.29889787  0.50374845  0.09998307  1
  Nb  Nb119  1  0.29793515  0.29881588  0.30007413  1
  Nb  Nb120  1  0.90465281  0.29469812  0.30081172  1
  Nb  Nb121  1  0.09964115  0.30144869  0.89635604  1
  Nb  Nb122  1  0.69641026  0.70196266  0.89960757  1
  Nb  Nb123  1  0.89746727  0.90153221  0.50203632  1
  Nb  Nb124  1  0.30533440  0.70279283  0.70383053  1
  Nb  Nb125  1  0.79561957  0.19418181  -0.00526757  1
  Nb  Nb126  1  0.59336182  0.39410415  -0.00737106  1
  Nb  Nb127  1  -0.00321647  0.80770041  0.40715856  1
  Nb  Nb128  1  0.39728019  0.79533937  0.80340815  1
  Nb  Nb129  1  -0.00021269  0.20427136  0.20479464  1
  Nb  Nb130  1  0.20514571  0.60962787  0.80285715  1
  Nb  Nb131  1  0.20106227  0.20699171  0.20396666  1
  Nb  Nb132  1  0.19761689  0.60117190  0.00110852  1
  Nb  Nb133  1  -0.00198202  0.39804214  -0.00676074  1
  Nb  Nb134  1  0.39589673  0.19977393  0.59909197  1
  Nb  Nb135  1  0.40806229  0.80534397  0.20257589  1
  Nb  Nb136  1  0.58707365  -0.00721598  0.19940257  1
  Nb  Nb137  1  0.80011901  0.79620307  -0.01054998  1
  Nb  Nb138  1  0.20016813  0.40171839  0.60223196  1
  Nb  Nb139  1  0.39833096  0.60240897  0.40586528  1
  Nb  Nb140  1  0.59790220  0.19799114  0.40383022  1
  Nb  Nb141  1  0.80449907  0.80371279  0.59897225  1
  Nb  Nb142  1  0.00039047  0.59704127  -0.00203546  1
  Nb  Nb143  1  0.79457557  0.59728794  0.20126683  1
  Nb  Nb144  1  -0.00016758  -0.00482623  0.40780649  1
  Nb  Nb145  1  0.60248511  0.59826415  0.19653527  1
  Nb  Nb146  1  0.20831283  0.59982479  0.19449232  1
  Nb  Nb147  1  0.19849938  0.79866895  0.61337067  1
  Nb  Nb148  1  0.40375387  0.38597737  0.79655221  1
  Nb  Nb149  1  0.00609556  0.40212621  0.59996234  1
  Pd  Pd150  1  0.59297343  0.40763842  0.18706003  1
  Pd  Pd151  1  0.20733819  -0.00673351  0.59602962  1
  Pd  Pd152  1  0.40761797  0.20587670  0.40778464  1
  Pd  Pd153  1  -0.01033417  0.39791534  0.79531712  1
  Pd  Pd154  1  0.60493337  -0.00583203  0.00787667  1
  Pd  Pd155  1  0.00263170  0.60166562  0.80924732  1
  Pd  Pd156  1  0.39951484  -0.00079386  -0.00414406  1
  Pd  Pd157  1  0.21595895  0.41417385  0.79145337  1
  Pd  Pd158  1  0.80874427  0.39021232  0.59415090  1
  Pd  Pd159  1  0.40329928  -0.00331838  0.40642248  1
  Pd  Pd160  1  0.20686724  0.80229583  0.80025924  1
  Pd  Pd161  1  0.79480785  0.61110476  0.79074369  1
  Pd  Pd162  1  0.40742772  0.39655910  0.20174443  1
  Pd  Pd163  1  -0.01203155  0.80765220  -0.00741760  1
  Pd  Pd164  1  0.20979451  0.19011824  0.01154624  1
  Pd  Pd165  1  0.00937297  0.00737776  0.80052421  1
  Pd  Pd166  1  0.00108382  0.60422676  0.59607523  1
  Pd  Pd167  1  0.78788499  0.19387042  0.79904046  1
  Pd  Pd168  1  0.58996417  0.40231765  0.80093203  1
  Pd  Pd169  1  0.60688882  0.20160598  0.00309302  1
  Pd  Pd170  1  0.80740716  0.58842508  0.38974678  1
  Pd  Pd171  1  0.39296767  0.20145468  0.00077154  1
  Pd  Pd172  1  0.80720127  0.40238372  0.40089154  1
  Pd  Pd173  1  0.39925644  0.20133563  0.79592662  1
  Pd  Pd174  1  -0.01628560  0.20523849  0.01609308  1
  Pd  Pd175  1  0.60332665  0.19023909  0.79816165  1
  Pd  Pd176  1  0.39939071  -0.00680172  0.20643729  1
  Pd  Pd177  1  0.39387273  0.20378835  0.19951775  1
  Pd  Pd178  1  -0.00629291  0.60615086  0.39180147  1
  Pd  Pd179  1  0.39828245  0.00248448  0.59188265  1
  Pd  Pd180  1  0.19929591  0.01067814  0.00452933  1
  Pd  Pd181  1  0.60654242  0.60071106  0.59721205  1
  Pd  Pd182  1  0.40128138  0.60706117  0.21270567  1
  Pd  Pd183  1  0.20367665  0.01104599  0.20051182  1
  Pd  Pd184  1  0.20722394  0.79519143  0.19685998  1
  Pd  Pd185  1  0.60217302  0.79956622  0.19311748  1
  Pd  Pd186  1  0.80090491  0.60389173  0.00785481  1
  Pd  Pd187  1  -0.00092074  0.78677139  0.59383508  1
  Pd  Pd188  1  0.20544771  0.60072604  0.60936793  1
  Pd  Pd189  1  0.60326570  0.80218931  0.41058913  1
  Pd  Pd190  1  0.80309998  0.39352061  0.79604809  1
  Pd  Pd191  1  -0.00582387  0.80468503  0.80685984  1
  Pd  Pd192  1  0.20059795  0.21010900  0.59324520  1
  Pd  Pd193  1  0.80609355  0.19023466  0.19318699  1
  Pd  Pd194  1  0.80732560  0.79693411  0.79540238  1
  Pd  Pd195  1  0.79440714  0.61269294  0.60607914  1
  Pd  Pd196  1  0.00402578  0.60317038  0.19833395  1
  Pd  Pd197  1  0.79884467  0.20179967  0.59781109  1
  Pd  Pd198  1  0.79624355  0.19079763  0.40043361  1
  Pd  Pd199  1  0.59878997  0.40662793  0.59678771  1
  Rh  Rh200  1  0.40206065  0.40467134  0.39435568  1
  Rh  Rh201  1  -0.00166807  -0.00466772  -0.00244253  1
  Rh  Rh202  1  0.80374220  0.80419539  0.40972307  1
  Rh  Rh203  1  0.39810756  0.80699634  -0.00465628  1
  Rh  Rh204  1  0.19996918  0.79694764  0.00633124  1
  Rh  Rh205  1  0.19931845  0.40084064  0.20312053  1
  Rh  Rh206  1  0.59982390  0.39313321  0.40649739  1
  Rh  Rh207  1  0.60187204  0.60224423  0.79269198  1
  Rh  Rh208  1  0.59516753  -0.00333366  0.59869171  1
  Rh  Rh209  1  0.60797916  0.80021475  0.59356746  1
  Rh  Rh210  1  0.59778587  0.00409997  0.79904909  1
  Rh  Rh211  1  -0.00017208  0.00921965  0.59592485  1
  Rh  Rh212  1  0.80042009  -0.00270686  0.60284428  1
  Rh  Rh213  1  0.40671756  0.79732305  0.39627006  1
  Rh  Rh214  1  0.60520039  0.58479351  0.00847898  1
  Rh  Rh215  1  0.19406521  0.19548033  0.79751096  1
  Rh  Rh216  1  0.40317314  0.60386969  0.59464001  1
  Rh  Rh217  1  0.39420171  0.39538064  0.60819379  1
  Rh  Rh218  1  0.19002263  0.81086192  0.41260091  1
  Rh  Rh219  1  0.00082794  0.80950580  0.21604679  1
  Rh  Rh220  1  0.20034135  0.40178813  0.40277909  1
  Rh  Rh221  1  0.18942150  0.00819893  0.80136119  1
  Rh  Rh222  1  -0.00330124  0.40147831  0.41010069  1
  Rh  Rh223  1  0.00237542  0.00291548  0.21295724  1
  Rh  Rh224  1  0.79847444  0.38549515  -0.01222283  1
  Rh  Rh225  1  0.79916711  -0.00312689  0.00050180  1
  Rh  Rh226  1  0.19761342  0.20549531  0.39547486  1
  Rh  Rh227  1  0.58888553  0.79682700  0.79808612  1
  Rh  Rh228  1  0.40871680  -0.00814309  0.80801624  1
  Rh  Rh229  1  0.21141300  0.58957187  0.38446807  1
  Rh  Rh230  1  0.39557225  0.60004950  -0.01043799  1
  Rh  Rh231  1  0.59064200  0.19850183  0.59302606  1
  Rh  Rh232  1  0.39882627  0.60387494  0.80490510  1
  Rh  Rh233  1  0.79766740  0.40603437  0.21516242  1
  Rh  Rh234  1  0.78787066  -0.00074930  0.20055162  1
  Rh  Rh235  1  0.40758846  0.39116415  -0.01042816  1
  Rh  Rh236  1  0.61146051  0.80935049  -0.00147305  1
  Rh  Rh237  1  0.39582758  0.80434568  0.61031735  1
  Rh  Rh238  1  0.19280704  0.40749286  0.00042951  1
  Rh  Rh239  1  0.58940491  0.00827651  0.39265549  1
  Rh  Rh240  1  -0.00051873  0.18536349  0.39310893  1
  Rh  Rh241  1  0.79344631  0.79258165  0.19049500  1
  Rh  Rh242  1  0.79718582  0.00628368  0.78908664  1
  Rh  Rh243  1  0.59287184  0.59737135  0.40035331  1
  Rh  Rh244  1  0.00811955  0.20739967  0.60275226  1
  Rh  Rh245  1  0.00986467  0.19819108  0.78912826  1
  Rh  Rh246  1  0.19659798  -0.00329317  0.40921620  1
  Rh  Rh247  1  0.59557741  0.18564586  0.20988274  1
  Rh  Rh248  1  0.00059721  0.38781679  0.19152323  1
  Rh  Rh249  1  0.80819228  0.00228444  0.40425147  1
