# generated using pymatgen
data_ZrScNbPdRh
_symmetry_space_group_name_H-M   'P 1'
_cell_length_a   16.55811497
_cell_length_b   16.56053431
_cell_length_c   16.56069471
_cell_angle_alpha   90.01398470
_cell_angle_beta   89.97553178
_cell_angle_gamma   89.98751969
_symmetry_Int_Tables_number   1
_chemical_formula_structural   ZrScNbPdRh
_chemical_formula_sum   'Zr50 Sc50 Nb50 Pd50 Rh50'
_cell_volume   4541.12782846
_cell_formula_units_Z   50
loop_
 _symmetry_equiv_pos_site_id
 _symmetry_equiv_pos_as_xyz
  1  'x, y, z'
loop_
 _atom_site_type_symbol
 _atom_site_label
 _atom_site_symmetry_multiplicity
 _atom_site_fract_x
 _atom_site_fract_y
 _atom_site_fract_z
 _atom_site_occupancy
  Zr  Zr0  1  0.29948406  0.90576158  0.69704943  1
  Zr  Zr1  1  0.49908276  0.90639992  0.89847394  1
  Zr  Zr2  1  0.69787098  0.69760632  0.49859504  1
  Zr  Zr3  1  0.69559003  0.30213154  0.29914678  1
  Zr  Zr4  1  0.10386792  0.30638566  0.70433713  1
  Zr  Zr5  1  0.89801874  0.11273640  0.90353243  1
  Zr  Zr6  1  0.89999458  0.29413260  0.09574608  1
  Zr  Zr7  1  0.09274770  0.89651771  0.10305830  1
  Zr  Zr8  1  0.49714876  0.49973804  0.89767156  1
  Zr  Zr9  1  0.10118414  0.70277323  0.90230726  1
  Zr  Zr10  1  0.90766418  0.89833910  0.50016163  1
  Zr  Zr11  1  0.69403863  0.08844217  0.29185394  1
  Zr  Zr12  1  0.69980362  0.49919954  0.11020966  1
  Zr  Zr13  1  0.30091879  0.68984692  0.10108326  1
  Zr  Zr14  1  0.91287400  0.29646636  0.90546735  1
  Zr  Zr15  1  0.50008311  0.10099294  0.10518203  1
  Zr  Zr16  1  0.70030525  0.29513421  0.10561192  1
  Zr  Zr17  1  0.29914434  0.30483719  0.89626051  1
  Zr  Zr18  1  0.69981444  0.70168109  0.90270470  1
  Zr  Zr19  1  0.49880512  0.90512482  0.29755431  1
  Zr  Zr20  1  0.29511173  0.90943363  0.09469083  1
  Zr  Zr21  1  0.10530413  0.70079313  0.10261236  1
  Zr  Zr22  1  0.30432475  0.70232698  0.69165066  1
  Zr  Zr23  1  0.90182262  0.69303007  0.70263069  1
  Zr  Zr24  1  0.70297977  0.10106317  0.50449597  1
  Zr  Zr25  1  0.69657667  0.29768167  0.50395943  1
  Zr  Zr26  1  0.29618731  0.70546778  0.90455641  1
  Zr  Zr27  1  0.70684849  0.29627190  0.89803651  1
  Zr  Zr28  1  0.90311559  0.29821803  0.30107312  1
  Zr  Zr29  1  0.09693354  0.70271221  0.48993999  1
  Zr  Zr30  1  0.09408444  0.10260829  0.69303834  1
  Zr  Zr31  1  0.69979842  0.69005175  0.29890730  1
  Zr  Zr32  1  0.69478640  0.69767243  0.09809564  1
  Zr  Zr33  1  0.49553464  0.49634133  0.69551631  1
  Zr  Zr34  1  0.49852623  0.10160646  0.90289467  1
  Zr  Zr35  1  0.49789150  0.70148531  0.91093082  1
  Zr  Zr36  1  0.89464726  0.89626030  0.68727530  1
  Zr  Zr37  1  0.09702787  0.51237808  0.29864099  1
  Zr  Zr38  1  0.30469999  0.10744022  0.49452137  1
  Zr  Zr39  1  0.89580097  0.28411643  0.49659440  1
  Zr  Zr40  1  0.69990084  0.48967812  0.70289478  1
  Zr  Zr41  1  0.50006423  0.29498043  0.89038219  1
  Zr  Zr42  1  0.69065217  0.29890316  0.69833893  1
  Zr  Zr43  1  0.10777108  0.50579916  0.50800315  1
  Zr  Zr44  1  0.49730805  0.70135126  0.10462246  1
  Zr  Zr45  1  0.29183075  0.49935418  0.69323736  1
  Zr  Zr46  1  0.30480358  0.30342140  0.69225568  1
  Zr  Zr47  1  0.09579615  0.09461327  0.49652021  1
  Zr  Zr48  1  0.50111245  0.69813387  0.49893379  1
  Zr  Zr49  1  0.10004594  0.28733644  0.50265502  1
  Sc  Sc50  1  0.50236354  0.29462383  0.11143449  1
  Sc  Sc51  1  0.90449237  0.70742299  0.50683227  1
  Sc  Sc52  1  0.90311628  0.09567899  0.30109966  1
  Sc  Sc53  1  0.31176149  0.50516667  0.30345307  1
  Sc  Sc54  1  0.89609013  0.29502870  0.70663192  1
  Sc  Sc55  1  0.69496686  0.70617188  0.69790915  1
  Sc  Sc56  1  0.49688289  0.30221002  0.30049036  1
  Sc  Sc57  1  0.88989475  0.88637080  0.91220418  1
  Sc  Sc58  1  0.70041474  0.10687737  0.69649629  1
  Sc  Sc59  1  0.70693351  0.50161936  0.90163498  1
  Sc  Sc60  1  0.49599546  0.89907422  0.09606008  1
  Sc  Sc61  1  0.90828192  0.90207588  0.29579020  1
  Sc  Sc62  1  0.09049209  0.10883271  0.89752772  1
  Sc  Sc63  1  0.49323069  0.29977447  0.49935039  1
  Sc  Sc64  1  0.89355514  0.49465326  0.49688333  1
  Sc  Sc65  1  0.09713010  0.30633320  0.09489775  1
  Sc  Sc66  1  0.89622574  0.09583918  0.10443944  1
  Sc  Sc67  1  0.10365368  0.49212207  0.89824825  1
  Sc  Sc68  1  0.50299930  0.49579796  0.30618128  1
  Sc  Sc69  1  0.30181532  0.29300818  0.11113752  1
  Sc  Sc70  1  0.30022496  0.90963318  0.49701106  1
  Sc  Sc71  1  0.69455462  0.89564995  0.69995302  1
  Sc  Sc72  1  0.11674249  0.89511123  0.90324304  1
  Sc  Sc73  1  0.89985270  0.50673290  0.89002656  1
  Sc  Sc74  1  0.90056474  0.90176794  0.10549633  1
  Sc  Sc75  1  0.49989401  0.49756836  0.49452886  1
  Sc  Sc76  1  0.50126891  0.10888768  0.70582706  1
  Sc  Sc77  1  0.49536836  0.90001907  0.49774794  1
  Sc  Sc78  1  0.69009999  0.49421582  0.49211648  1
  Sc  Sc79  1  0.49887732  0.70496417  0.68843043  1
  Sc  Sc80  1  0.10469468  0.50704462  0.10106222  1
  Sc  Sc81  1  0.50342443  0.30132943  0.70066174  1
  Sc  Sc82  1  0.90122155  0.49587870  0.10222283  1
  Sc  Sc83  1  0.10653791  0.09763481  0.10390052  1
  Sc  Sc84  1  0.09239619  0.69323773  0.68705403  1
  Sc  Sc85  1  0.49686599  0.50375351  0.10840132  1
  Sc  Sc86  1  0.30675424  0.28619630  0.30280362  1
  Sc  Sc87  1  0.89426381  0.50144290  0.29625002  1
  Sc  Sc88  1  0.10622946  0.90837290  0.69598713  1
  Sc  Sc89  1  0.70408686  0.89333205  0.50570012  1
  Sc  Sc90  1  0.89102088  0.69749829  0.89728806  1
  Sc  Sc91  1  0.09528817  0.50500839  0.70086287  1
  Sc  Sc92  1  0.30793198  0.49975206  0.50308510  1
  Sc  Sc93  1  0.29945081  0.09586298  0.69626765  1
  Sc  Sc94  1  0.30311146  0.09870894  0.10520665  1
  Sc  Sc95  1  0.70357064  0.90704243  0.09983934  1
  Sc  Sc96  1  0.69140724  0.89744035  0.90281662  1
  Sc  Sc97  1  0.30722128  0.69566038  0.49481321  1
  Sc  Sc98  1  0.29916313  0.50665810  0.90357793  1
  Sc  Sc99  1  0.90751836  0.69722130  0.30839650  1
  Nb  Nb100  1  0.89807724  0.09552889  0.51318577  1
  Nb  Nb101  1  0.69786214  0.09848588  0.90567725  1
  Nb  Nb102  1  0.70026203  0.10376545  0.09844101  1
  Nb  Nb103  1  0.90068530  0.50594499  0.69775404  1
  Nb  Nb104  1  0.29986063  0.30378946  0.49863609  1
  Nb  Nb105  1  0.30159477  0.90691110  0.89641153  1
  Nb  Nb106  1  0.90420764  0.71494359  0.09169453  1
  Nb  Nb107  1  0.69511753  0.49736416  0.30308603  1
  Nb  Nb108  1  0.10057908  0.29778304  0.89902977  1
  Nb  Nb109  1  0.70140091  0.89951454  0.30240195  1
  Nb  Nb110  1  0.49905992  0.90019379  0.69646383  1
  Nb  Nb111  1  0.49172597  0.70312518  0.29990949  1
  Nb  Nb112  1  0.30641499  0.70285353  0.29737688  1
  Nb  Nb113  1  0.10210866  0.89911297  0.49344473  1
  Nb  Nb114  1  0.10310893  0.90330715  0.31057166  1
  Nb  Nb115  1  0.29685020  0.50088399  0.10309142  1
  Nb  Nb116  1  0.10976860  0.70203499  0.30055692  1
  Nb  Nb117  1  0.10440117  0.10224249  0.29943260  1
  Nb  Nb118  1  0.29678028  0.90324557  0.29777922  1
  Nb  Nb119  1  0.29978514  0.09595878  0.29412504  1
  Nb  Nb120  1  0.50543301  0.09641552  0.49193956  1
  Nb  Nb121  1  0.30424945  0.10158324  0.89870322  1
  Nb  Nb122  1  0.10348570  0.29550305  0.30172235  1
  Nb  Nb123  1  0.90083164  0.09240135  0.69471916  1
  Nb  Nb124  1  0.49911853  0.09664869  0.30518572  1
  Nb  Nb125  1  0.59462817  0.00109233  0.59880583  1
  Nb  Nb126  1  0.59675752  0.60047670  0.80042326  1
  Nb  Nb127  1  0.00802514  0.20043365  0.20587202  1
  Nb  Nb128  1  -0.00041392  0.60818890  0.00211190  1
  Nb  Nb129  1  0.19947450  0.40068274  0.21047962  1
  Nb  Nb130  1  0.20189480  0.60584282  0.79699112  1
  Nb  Nb131  1  0.80063632  -0.00202512  0.40460549  1
  Nb  Nb132  1  0.20192400  0.80069176  0.21086160  1
  Nb  Nb133  1  0.59766294  0.39705171  0.00123188  1
  Nb  Nb134  1  0.39793774  0.80977999  0.80059435  1
  Nb  Nb135  1  -0.00991909  -0.00499897  0.80351028  1
  Nb  Nb136  1  0.80287923  0.00373910  0.80199631  1
  Nb  Nb137  1  0.40211804  0.39843802  0.00430287  1
  Nb  Nb138  1  0.00079893  0.80533859  0.79805899  1
  Nb  Nb139  1  -0.00045004  -0.00185091  -0.00543314  1
  Nb  Nb140  1  0.79815281  0.79589017  0.20225910  1
  Nb  Nb141  1  0.59921995  0.79902854  0.39103543  1
  Nb  Nb142  1  0.20182726  0.20291335  0.80373224  1
  Nb  Nb143  1  0.00833750  0.39581568  0.40161781  1
  Nb  Nb144  1  0.19804730  0.80247326  0.58974281  1
  Nb  Nb145  1  -0.00277694  0.39792033  0.59691720  1
  Nb  Nb146  1  0.19842251  0.39591761  0.39780854  1
  Nb  Nb147  1  0.59814841  0.19099458  0.39803737  1
  Nb  Nb148  1  0.79765097  0.59487068  0.60325277  1
  Nb  Nb149  1  0.20201312  0.20213677  -0.00728667  1
  Pd  Pd150  1  0.81126288  0.60879695  0.19361186  1
  Pd  Pd151  1  0.80216771  0.59722803  0.40818366  1
  Pd  Pd152  1  -0.00523682  0.00349295  0.39948684  1
  Pd  Pd153  1  -0.00734212  0.59335952  0.40644261  1
  Pd  Pd154  1  0.80185867  0.80574967  0.79703583  1
  Pd  Pd155  1  0.19075305  0.01221582  0.80699394  1
  Pd  Pd156  1  0.80517724  0.39985002  0.59976855  1
  Pd  Pd157  1  0.80944378  0.59913963  0.00824152  1
  Pd  Pd158  1  0.20774419  0.39573686  0.01018241  1
  Pd  Pd159  1  0.79671954  0.19466890  0.79563416  1
  Pd  Pd160  1  0.60582981  0.80542683  0.20051166  1
  Pd  Pd161  1  0.20982471  0.80101252  0.40136575  1
  Pd  Pd162  1  0.79362816  0.18673220  0.39104923  1
  Pd  Pd163  1  0.80239827  0.40129588  0.39653269  1
  Pd  Pd164  1  0.39444376  0.40390265  0.80086096  1
  Pd  Pd165  1  0.00158521  0.79507302  0.21130893  1
  Pd  Pd166  1  -0.00041287  0.41256263  -0.00186048  1
  Pd  Pd167  1  0.20451181  0.19665142  0.60490721  1
  Pd  Pd168  1  0.39992338  0.61050980  0.79590984  1
  Pd  Pd169  1  -0.00897513  0.60858074  0.19237144  1
  Pd  Pd170  1  0.59704137  -0.00643936  0.19033726  1
  Pd  Pd171  1  0.39373009  0.80682760  -0.00139371  1
  Pd  Pd172  1  0.19425566  0.01240164  -0.00886148  1
  Pd  Pd173  1  0.20430973  0.19779759  0.39793528  1
  Pd  Pd174  1  0.80838953  0.39718165  0.80320721  1
  Pd  Pd175  1  0.40774488  0.00731761  0.59971883  1
  Pd  Pd176  1  0.19466414  -0.00491236  0.20493869  1
  Pd  Pd177  1  0.39376780  0.00045951  0.39550871  1
  Pd  Pd178  1  0.60564668  0.59190988  0.60539810  1
  Pd  Pd179  1  0.59893201  -0.00038399  0.00686599  1
  Pd  Pd180  1  0.58825919  0.79259440  0.79985285  1
  Pd  Pd181  1  0.80452032  0.00213262  -0.00443306  1
  Pd  Pd182  1  0.40075386  0.80392554  0.40221710  1
  Pd  Pd183  1  0.60095339  0.20528118  -0.00049835  1
  Pd  Pd184  1  0.80011085  0.40320607  -0.00166830  1
  Pd  Pd185  1  0.40661694  0.19755982  0.59972408  1
  Pd  Pd186  1  0.80060440  0.80403284  0.39410323  1
  Pd  Pd187  1  -0.00445078  0.40265190  0.79549132  1
  Pd  Pd188  1  0.39489857  0.20494081  0.00475756  1
  Pd  Pd189  1  0.59922556  0.59012009  -0.00273001  1
  Pd  Pd190  1  0.39107346  0.80839709  0.19488896  1
  Pd  Pd191  1  0.80065483  0.39887577  0.20326735  1
  Pd  Pd192  1  0.19821655  0.79600081  0.78458757  1
  Pd  Pd193  1  0.80604470  0.19439893  0.20536257  1
  Pd  Pd194  1  0.40230613  0.00250373  0.79618302  1
  Pd  Pd195  1  0.39380878  0.40188789  0.19993135  1
  Pd  Pd196  1  0.59106950  0.59637679  0.20780915  1
  Pd  Pd197  1  0.00678961  0.39679748  0.20458409  1
  Pd  Pd198  1  0.21063597  0.59517712  0.39901316  1
  Pd  Pd199  1  0.60859522  0.00690575  0.79194217  1
  Rh  Rh200  1  0.40183286  0.00048340  0.20126870  1
  Rh  Rh201  1  0.39098247  0.19670418  0.79291245  1
  Rh  Rh202  1  0.40393961  0.59617186  0.59486917  1
  Rh  Rh203  1  0.40554827  0.19091534  0.20827118  1
  Rh  Rh204  1  0.00389681  0.19724340  0.79116093  1
  Rh  Rh205  1  0.59771784  0.38850111  0.39975334  1
  Rh  Rh206  1  0.19289896  0.59493682  -0.00756993  1
  Rh  Rh207  1  0.01342468  0.80996773  0.60435138  1
  Rh  Rh208  1  0.61068626  -0.00422142  0.40973620  1
  Rh  Rh209  1  -0.00230438  0.19326684  0.39502445  1
  Rh  Rh210  1  0.20332149  0.00698076  0.39871597  1
  Rh  Rh211  1  0.60242616  0.40492564  0.80942014  1
  Rh  Rh212  1  0.00969948  0.60667599  0.80958619  1
  Rh  Rh213  1  0.39987344  0.00466557  -0.00000915  1
  Rh  Rh214  1  0.40454285  0.19769114  0.39734153  1
  Rh  Rh215  1  0.00757352  0.00718483  0.19649392  1
  Rh  Rh216  1  0.20812147  0.80166265  0.01152640  1
  Rh  Rh217  1  0.39309316  0.80695784  0.59978276  1
  Rh  Rh218  1  0.19721917  -0.00038202  0.58777055  1
  Rh  Rh219  1  0.00622441  -0.00644978  0.60046624  1
  Rh  Rh220  1  0.39895729  0.59069381  0.00856304  1
  Rh  Rh221  1  0.20428565  0.61061764  0.60067149  1
  Rh  Rh222  1  0.59978991  0.40335955  0.19864679  1
  Rh  Rh223  1  0.59318098  0.60560335  0.39245809  1
  Rh  Rh224  1  0.60089023  0.80613981  0.00561361  1
  Rh  Rh225  1  0.19383018  0.20538929  0.19328413  1
  Rh  Rh226  1  0.59482983  0.80965791  0.58965519  1
  Rh  Rh227  1  0.01074506  0.19300042  0.01601009  1
  Rh  Rh228  1  0.78943803  -0.00156189  0.60171587  1
  Rh  Rh229  1  0.79599052  0.78754654  0.60178410  1
  Rh  Rh230  1  0.20962245  0.59944237  0.20994202  1
  Rh  Rh231  1  0.40332353  0.39917645  0.59577243  1
  Rh  Rh232  1  0.20229512  0.40436885  0.79737998  1
  Rh  Rh233  1  0.59174663  0.19602540  0.59118367  1
  Rh  Rh234  1  0.40492030  0.60099014  0.39780919  1
  Rh  Rh235  1  0.78901098  0.80000175  0.01048534  1
  Rh  Rh236  1  0.00308328  0.80250644  -0.00994151  1
  Rh  Rh237  1  0.80041282  -0.00757043  0.20688690  1
  Rh  Rh238  1  0.00167799  0.80131294  0.39418002  1
  Rh  Rh239  1  0.59301511  0.39753990  0.59517757  1
  Rh  Rh240  1  0.80379951  0.20241587  0.60897084  1
  Rh  Rh241  1  -0.00785742  0.20632298  0.60680595  1
  Rh  Rh242  1  0.39312912  0.39546604  0.40075005  1
  Rh  Rh243  1  0.60626511  0.19497137  0.80503688  1
  Rh  Rh244  1  0.78562034  0.60105212  0.78912400  1
  Rh  Rh245  1  0.40334647  0.59761596  0.20395247  1
  Rh  Rh246  1  0.79436022  0.19802689  0.00494992  1
  Rh  Rh247  1  -0.01171639  0.58911812  0.58919167  1
  Rh  Rh248  1  0.19499453  0.39591549  0.59168589  1
  Rh  Rh249  1  0.59642138  0.19559100  0.20874133  1
