# generated using pymatgen
data_ZrScNbPdRh
_symmetry_space_group_name_H-M   'P 1'
_cell_length_a   16.55016834
_cell_length_b   16.54831323
_cell_length_c   16.54846282
_cell_angle_alpha   89.99552372
_cell_angle_beta   89.99146226
_cell_angle_gamma   90.02769766
_symmetry_Int_Tables_number   1
_chemical_formula_structural   ZrScNbPdRh
_chemical_formula_sum   'Zr50 Sc50 Nb50 Pd50 Rh50'
_cell_volume   4532.24887471
_cell_formula_units_Z   50
loop_
 _symmetry_equiv_pos_site_id
 _symmetry_equiv_pos_as_xyz
  1  'x, y, z'
loop_
 _atom_site_type_symbol
 _atom_site_label
 _atom_site_symmetry_multiplicity
 _atom_site_fract_x
 _atom_site_fract_y
 _atom_site_fract_z
 _atom_site_occupancy
  Zr  Zr0  1  0.89837997  0.30241036  0.30027363  1
  Zr  Zr1  1  0.69142162  0.89213711  0.70261531  1
  Zr  Zr2  1  0.69966200  0.89765684  0.29435272  1
  Zr  Zr3  1  0.91349416  0.69945606  0.70208697  1
  Zr  Zr4  1  0.70026191  0.50105665  0.90054948  1
  Zr  Zr5  1  0.29844660  0.29509614  0.49925478  1
  Zr  Zr6  1  0.49699090  0.09922525  0.89567352  1
  Zr  Zr7  1  0.09546279  0.30221152  0.50303581  1
  Zr  Zr8  1  0.89645163  0.89499258  0.29268479  1
  Zr  Zr9  1  0.69468904  0.09714820  0.90456812  1
  Zr  Zr10  1  0.49833163  0.49278975  0.89339823  1
  Zr  Zr11  1  0.90044920  0.30736644  0.09853365  1
  Zr  Zr12  1  0.50941858  0.90728020  0.89648546  1
  Zr  Zr13  1  0.29919020  0.69635890  0.70976968  1
  Zr  Zr14  1  0.49595967  0.30528816  0.11417985  1
  Zr  Zr15  1  0.70927093  0.89266541  0.09974772  1
  Zr  Zr16  1  0.89720547  0.90203025  0.50718503  1
  Zr  Zr17  1  0.50960783  0.49103670  0.29814033  1
  Zr  Zr18  1  0.70018027  0.50424206  0.49118596  1
  Zr  Zr19  1  0.49079474  0.69257113  0.91558936  1
  Zr  Zr20  1  0.29516729  0.10651058  0.10651487  1
  Zr  Zr21  1  0.50047985  0.71384278  0.29459371  1
  Zr  Zr22  1  0.09556332  0.10327662  0.89865965  1
  Zr  Zr23  1  0.70097314  0.69672633  0.70303906  1
  Zr  Zr24  1  0.50214141  0.10089526  0.50008276  1
  Zr  Zr25  1  0.90847522  0.11172647  0.10302401  1
  Zr  Zr26  1  0.29870321  0.30440281  0.09217971  1
  Zr  Zr27  1  0.70075127  0.70157020  0.50060172  1
  Zr  Zr28  1  0.49861808  0.30570934  0.49670100  1
  Zr  Zr29  1  0.49813482  0.50253260  0.09139877  1
  Zr  Zr30  1  0.89679243  0.70400848  0.50193764  1
  Zr  Zr31  1  0.70618153  0.69915048  0.89483841  1
  Zr  Zr32  1  0.49588077  0.90648374  0.49560842  1
  Zr  Zr33  1  0.48497529  0.50439670  0.69299580  1
  Zr  Zr34  1  0.70006787  0.09689314  0.10027664  1
  Zr  Zr35  1  0.30594496  0.10432182  0.70496961  1
  Zr  Zr36  1  0.09726031  0.69178472  0.29919521  1
  Zr  Zr37  1  0.10383201  0.30154702  0.89429687  1
  Zr  Zr38  1  0.70688472  0.89905746  0.49942939  1
  Zr  Zr39  1  0.50222086  0.70173092  0.69955050  1
  Zr  Zr40  1  0.50659045  0.10475417  0.10211620  1
  Zr  Zr41  1  0.09909997  0.91277796  0.09921171  1
  Zr  Zr42  1  0.49083805  0.29999107  0.89990435  1
  Zr  Zr43  1  0.09606653  0.49634634  0.69868839  1
  Zr  Zr44  1  0.90277304  0.89624438  0.10081425  1
  Zr  Zr45  1  0.30695356  0.70246122  0.08231825  1
  Zr  Zr46  1  0.30129960  0.11197305  0.89845949  1
  Zr  Zr47  1  0.29063068  0.90589290  0.10514291  1
  Zr  Zr48  1  0.30628266  0.89835608  0.31002951  1
  Zr  Zr49  1  0.90050399  0.49888013  0.29237687  1
  Sc  Sc50  1  0.29095156  0.70713910  0.29955060  1
  Sc  Sc51  1  0.90301615  0.70284589  0.10319279  1
  Sc  Sc52  1  0.70437958  0.29932401  0.10602657  1
  Sc  Sc53  1  0.50316179  0.30922149  0.69656619  1
  Sc  Sc54  1  0.29747596  0.09724180  0.50202303  1
  Sc  Sc55  1  0.29091629  0.89875755  0.91020435  1
  Sc  Sc56  1  0.29686215  0.91000949  0.70457234  1
  Sc  Sc57  1  0.29346302  0.29906068  0.70104139  1
  Sc  Sc58  1  0.90744953  0.49265768  0.50029498  1
  Sc  Sc59  1  0.30164200  0.70242606  0.49118382  1
  Sc  Sc60  1  0.89829860  0.30141167  0.49352490  1
  Sc  Sc61  1  0.50109418  0.49686949  0.49827463  1
  Sc  Sc62  1  0.70761504  0.49610403  0.29877790  1
  Sc  Sc63  1  0.89849548  0.10864699  0.29679981  1
  Sc  Sc64  1  0.28848865  0.50359494  0.29264603  1
  Sc  Sc65  1  0.90445666  0.88930033  0.89542641  1
  Sc  Sc66  1  0.71122488  0.69356861  0.30440649  1
  Sc  Sc67  1  0.90288976  0.10105059  0.69660102  1
  Sc  Sc68  1  0.90793814  0.50374309  0.70840988  1
  Sc  Sc69  1  0.10766796  0.10028236  0.49532117  1
  Sc  Sc70  1  0.09897762  0.30052036  0.09959570  1
  Sc  Sc71  1  0.09475838  0.49567655  0.50194125  1
  Sc  Sc72  1  0.10270128  0.90989755  0.50966041  1
  Sc  Sc73  1  0.68532012  0.49843987  0.71408726  1
  Sc  Sc74  1  0.09402669  0.09883352  0.69485150  1
  Sc  Sc75  1  0.09511097  0.50484292  0.29610750  1
  Sc  Sc76  1  0.09248088  0.90453930  0.70373494  1
  Sc  Sc77  1  0.50494886  0.69086022  0.50116969  1
  Sc  Sc78  1  0.69795511  0.29177798  0.50221557  1
  Sc  Sc79  1  0.70223133  0.89421311  0.89918098  1
  Sc  Sc80  1  0.29027803  0.10295035  0.30568670  1
  Sc  Sc81  1  0.70333445  0.29499703  0.90432519  1
  Sc  Sc82  1  0.09843604  0.10426171  0.29643099  1
  Sc  Sc83  1  0.90824704  0.69562188  0.89685298  1
  Sc  Sc84  1  0.28916550  0.49651012  0.09305809  1
  Sc  Sc85  1  0.69897511  0.10266804  0.50265477  1
  Sc  Sc86  1  0.09954659  0.89798402  0.89762364  1
  Sc  Sc87  1  0.31294821  0.49466495  0.50313996  1
  Sc  Sc88  1  0.10134275  0.10308988  0.10735905  1
  Sc  Sc89  1  0.30099595  0.29636391  0.28584071  1
  Sc  Sc90  1  0.09502569  0.50081513  0.90279145  1
  Sc  Sc91  1  0.09463209  0.69202116  0.50118647  1
  Sc  Sc92  1  0.11008017  0.90195655  0.29188153  1
  Sc  Sc93  1  0.88977775  0.10095432  0.50249029  1
  Sc  Sc94  1  0.09668625  0.69074532  0.08912897  1
  Sc  Sc95  1  0.09434277  0.49995089  0.09416998  1
  Sc  Sc96  1  0.29591542  0.90595329  0.49588215  1
  Sc  Sc97  1  0.90470907  0.29100994  0.69501688  1
  Sc  Sc98  1  0.69944284  0.10474652  0.30193301  1
  Sc  Sc99  1  0.50709716  0.89125282  0.11225853  1
  Nb  Nb100  1  0.28974713  0.69998684  0.89979521  1
  Nb  Nb101  1  0.69998363  0.69624257  0.09615801  1
  Nb  Nb102  1  0.50004294  0.09999052  0.30226442  1
  Nb  Nb103  1  0.49803084  0.90429460  0.30571419  1
  Nb  Nb104  1  0.50519911  0.29627144  0.29943782  1
  Nb  Nb105  1  0.70166193  0.29910228  0.70114944  1
  Nb  Nb106  1  0.50175961  0.69687298  0.09969054  1
  Nb  Nb107  1  0.09930784  0.29654438  0.30912536  1
  Nb  Nb108  1  0.70335986  0.30134889  0.30381308  1
  Nb  Nb109  1  0.90237489  0.29716697  0.90607454  1
  Nb  Nb110  1  0.30085689  0.49261591  0.89968208  1
  Nb  Nb111  1  0.29748148  0.29874669  0.89879060  1
  Nb  Nb112  1  0.90061471  0.49183497  0.90686914  1
  Nb  Nb113  1  0.49468167  0.08964806  0.70503905  1
  Nb  Nb114  1  0.70341072  0.49726886  0.09917893  1
  Nb  Nb115  1  0.90674857  0.70094480  0.30027102  1
  Nb  Nb116  1  0.10398243  0.69666482  0.70708661  1
  Nb  Nb117  1  0.30212814  0.50490259  0.69657998  1
  Nb  Nb118  1  0.70219913  0.11073239  0.69771958  1
  Nb  Nb119  1  0.49439785  0.90196771  0.70540452  1
  Nb  Nb120  1  0.10949489  0.70106124  0.88638113  1
  Nb  Nb121  1  0.89847126  0.49542558  0.09291156  1
  Nb  Nb122  1  0.90041057  0.10497930  0.89811058  1
  Nb  Nb123  1  0.90635953  0.90833724  0.70037830  1
  Nb  Nb124  1  0.10045573  0.30344524  0.69362943  1
  Nb  Nb125  1  0.20156712  0.79327958  0.60872162  1
  Nb  Nb126  1  0.19937653  0.00896412  0.80393132  1
  Nb  Nb127  1  0.20327486  0.60051680  0.60720939  1
  Nb  Nb128  1  0.60019539  0.40222603  0.00363173  1
  Nb  Nb129  1  0.80340818  0.59372394  0.00266575  1
  Nb  Nb130  1  0.80289940  0.00372315  0.79986455  1
  Nb  Nb131  1  0.40371844  0.00219664  0.20587244  1
  Nb  Nb132  1  0.80445255  0.39324062  0.80182296  1
  Nb  Nb133  1  0.40734703  0.20299945  0.39453016  1
  Nb  Nb134  1  0.60065575  0.60088671  0.19217306  1
  Nb  Nb135  1  0.39852115  0.80331227  0.60642613  1
  Nb  Nb136  1  0.60191616  0.79059012  0.00408342  1
  Nb  Nb137  1  0.80871866  0.00309044  -0.00524435  1
  Nb  Nb138  1  0.40490570  0.59863501  0.38596609  1
  Nb  Nb139  1  0.40242779  0.00306172  0.00847766  1
  Nb  Nb140  1  0.79505024  0.40256120  0.60907034  1
  Nb  Nb141  1  -0.00272923  0.80356064  0.39727792  1
  Nb  Nb142  1  0.39796701  0.80116869  0.80339059  1
  Nb  Nb143  1  0.80001396  0.59485501  0.60571903  1
  Nb  Nb144  1  0.60113410  0.80518460  0.39848316  1
  Nb  Nb145  1  0.19708665  0.39417537  0.39892843  1
  Nb  Nb146  1  0.40362704  0.60379719  0.19651838  1
  Nb  Nb147  1  0.59927823  0.19606510  0.79295891  1
  Nb  Nb148  1  -0.00457872  -0.00584253  0.39637749  1
  Nb  Nb149  1  -0.00745259  0.00559368  -0.00281238  1
  Pd  Pd150  1  0.61127726  0.00738919  0.79036773  1
  Pd  Pd151  1  0.59176251  0.19865930  0.60663184  1
  Pd  Pd152  1  0.39837893  0.60342701  0.80948220  1
  Pd  Pd153  1  0.00649798  0.80008208  -0.00475499  1
  Pd  Pd154  1  -0.00354828  0.18943401  0.40487436  1
  Pd  Pd155  1  0.60360523  0.00005068  0.60400264  1
  Pd  Pd156  1  0.01143372  0.79721486  0.20159739  1
  Pd  Pd157  1  0.20247037  0.40378879  0.79922488  1
  Pd  Pd158  1  0.39198540  0.80235239  0.19525378  1
  Pd  Pd159  1  0.80656069  0.00846522  0.19707802  1
  Pd  Pd160  1  -0.00620126  0.39263714  0.79946642  1
  Pd  Pd161  1  0.20492768  0.60762971  0.18639944  1
  Pd  Pd162  1  0.81242786  0.59481674  0.40554591  1
  Pd  Pd163  1  0.38943211  0.40022142  0.38566431  1
  Pd  Pd164  1  0.80375566  0.79515344  0.61291837  1
  Pd  Pd165  1  0.40827777  0.81535519  -0.00267257  1
  Pd  Pd166  1  0.60925762  0.39370193  0.40207969  1
  Pd  Pd167  1  0.19257044  0.20127427  0.00335964  1
  Pd  Pd168  1  -0.00165085  0.19511361  0.59065462  1
  Pd  Pd169  1  0.19795448  0.58427613  0.80254028  1
  Pd  Pd170  1  0.79392460  0.00197610  0.61230037  1
  Pd  Pd171  1  0.80312528  0.00591334  0.39396827  1
  Pd  Pd172  1  0.19438320  0.78980584  0.18909114  1
  Pd  Pd173  1  0.79824528  0.19991689  0.79971034  1
  Pd  Pd174  1  0.80974301  0.80463431  0.79265958  1
  Pd  Pd175  1  0.19611414  0.19509267  0.60419873  1
  Pd  Pd176  1  0.40266562  0.19886774  0.00633768  1
  Pd  Pd177  1  0.18755710  0.79869020  0.00346401  1
  Pd  Pd178  1  0.79971426  0.19838544  0.00466160  1
  Pd  Pd179  1  0.60610486  0.59019019  0.60302320  1
  Pd  Pd180  1  0.38941016  0.39350855  0.79242046  1
  Pd  Pd181  1  0.60769068  0.20336646  0.20574907  1
  Pd  Pd182  1  0.60631359  0.40768334  0.59732990  1
  Pd  Pd183  1  0.20503689  0.40734055  0.59393121  1
  Pd  Pd184  1  0.18948253  0.39673192  0.20416029  1
  Pd  Pd185  1  0.80197034  0.60201171  0.19344895  1
  Pd  Pd186  1  0.58923435  0.60446821  0.80331336  1
  Pd  Pd187  1  0.20751915  0.58682891  0.41244661  1
  Pd  Pd188  1  0.40574397  0.20294179  0.59955318  1
  Pd  Pd189  1  0.01114350  0.80146557  0.59756642  1
  Pd  Pd190  1  0.00359112  0.20530783  0.79391599  1
  Pd  Pd191  1  0.59568558  0.21215271  -0.00200105  1
  Pd  Pd192  1  0.39254943  0.41049461  0.20214395  1
  Pd  Pd193  1  0.60801576  -0.00088738  0.39919370  1
  Pd  Pd194  1  0.18501668  0.80342995  0.41200150  1
  Pd  Pd195  1  0.59042711  0.80535137  0.59149497  1
  Pd  Pd196  1  0.39428100  -0.00336695  0.59713611  1
  Pd  Pd197  1  -0.00573701  0.59938815  0.40338481  1
  Pd  Pd198  1  0.00651615  0.39954364  0.19971242  1
  Pd  Pd199  1  0.59697488  0.00010698  0.20144178  1
  Rh  Rh200  1  0.58747649  0.78995079  0.81211105  1
  Rh  Rh201  1  0.19093936  -0.00162525  0.39680513  1
  Rh  Rh202  1  0.79892142  0.78724845  0.20279235  1
  Rh  Rh203  1  0.20230153  0.81200778  0.79630155  1
  Rh  Rh204  1  0.80117818  0.80019194  0.39424345  1
  Rh  Rh205  1  0.39368393  0.60710758  0.58664811  1
  Rh  Rh206  1  0.38688878  0.58781301  -0.00192683  1
  Rh  Rh207  1  -0.00261373  0.00007413  0.80708527  1
  Rh  Rh208  1  0.19167500  0.19815454  0.79135436  1
  Rh  Rh209  1  0.39920102  0.40020316  -0.00059688  1
  Rh  Rh210  1  0.00609981  0.40244967  0.39229336  1
  Rh  Rh211  1  0.79599226  0.20274480  0.39937718  1
  Rh  Rh212  1  -0.00324152  0.00319881  0.20101279  1
  Rh  Rh213  1  0.79723415  0.20415068  0.20103789  1
  Rh  Rh214  1  0.00412201  0.80041371  0.79790116  1
  Rh  Rh215  1  0.40944724  0.20918168  0.78888087  1
  Rh  Rh216  1  0.19698460  0.39951671  -0.00819078  1
  Rh  Rh217  1  0.60218344  -0.01596863  0.01276913  1
  Rh  Rh218  1  0.20695148  0.00416044  0.20894235  1
  Rh  Rh219  1  0.41170312  0.79191535  0.41179741  1
  Rh  Rh220  1  0.80240456  0.20788160  0.59642230  1
  Rh  Rh221  1  0.00299556  0.21081122  0.20388827  1
  Rh  Rh222  1  0.00385835  0.59785573  0.80908524  1
  Rh  Rh223  1  0.79778437  0.79349729  -0.00280441  1
  Rh  Rh224  1  0.79470366  0.40042636  -0.00592033  1
  Rh  Rh225  1  0.20000276  0.59627669  -0.00843524  1
  Rh  Rh226  1  0.60970113  0.40252114  0.19676257  1
  Rh  Rh227  1  0.00181056  0.59814024  0.60161079  1
  Rh  Rh228  1  0.19425210  0.20712520  0.20068134  1
  Rh  Rh229  1  0.20564643  0.20807557  0.39785017  1
  Rh  Rh230  1  0.59158773  0.60937627  0.38417271  1
  Rh  Rh231  1  0.59752205  0.20115951  0.39834328  1
  Rh  Rh232  1  0.19595217  0.01000742  -0.00800544  1
  Rh  Rh233  1  -0.00713532  0.59916364  -0.00376285  1
  Rh  Rh234  1  0.61294191  0.79080072  0.20191555  1
  Rh  Rh235  1  0.60787259  0.38532822  0.81240311  1
  Rh  Rh236  1  -0.00579289  0.59708845  0.19238993  1
  Rh  Rh237  1  -0.00174067  0.00724773  0.58898341  1
  Rh  Rh238  1  0.00485983  0.39376459  -0.00145786  1
  Rh  Rh239  1  0.80960189  0.58939499  0.80303115  1
  Rh  Rh240  1  0.00447215  0.20231675  -0.00046256  1
  Rh  Rh241  1  0.20059614  0.00013575  0.61079712  1
  Rh  Rh242  1  0.40108384  0.19231206  0.20724075  1
  Rh  Rh243  1  0.79840457  0.39701577  0.20301688  1
  Rh  Rh244  1  0.39546470  0.39370565  0.60590481  1
  Rh  Rh245  1  -0.00926813  0.39657469  0.60563159  1
  Rh  Rh246  1  0.39454262  0.01371872  0.39475466  1
  Rh  Rh247  1  0.61041394  0.59808296  0.00223855  1
  Rh  Rh248  1  0.79783839  0.39787009  0.40732531  1
  Rh  Rh249  1  0.38819957  -0.00955009  0.81562240  1
