# generated using pymatgen
data_ZrScNbPdRh
_symmetry_space_group_name_H-M   'P 1'
_cell_length_a   16.55123840
_cell_length_b   16.55286359
_cell_length_c   16.55119410
_cell_angle_alpha   90.02503946
_cell_angle_beta   90.00192208
_cell_angle_gamma   89.96067498
_symmetry_Int_Tables_number   1
_chemical_formula_structural   ZrScNbPdRh
_chemical_formula_sum   'Zr50 Sc50 Nb50 Pd50 Rh50'
_cell_volume   4534.53562424
_cell_formula_units_Z   50
loop_
 _symmetry_equiv_pos_site_id
 _symmetry_equiv_pos_as_xyz
  1  'x, y, z'
loop_
 _atom_site_type_symbol
 _atom_site_label
 _atom_site_symmetry_multiplicity
 _atom_site_fract_x
 _atom_site_fract_y
 _atom_site_fract_z
 _atom_site_occupancy
  Zr  Zr0  1  0.69457995  0.91020193  0.89799285  1
  Zr  Zr1  1  0.70720265  0.50894404  0.50658986  1
  Zr  Zr2  1  0.89557654  0.89521306  0.49560170  1
  Zr  Zr3  1  0.10562347  0.69523525  0.89176912  1
  Zr  Zr4  1  0.89561286  0.09718362  0.50004108  1
  Zr  Zr5  1  0.10524700  0.29720325  0.29430247  1
  Zr  Zr6  1  0.90455983  0.69468553  0.49532438  1
  Zr  Zr7  1  0.10145278  0.29849383  0.90215020  1
  Zr  Zr8  1  0.70230332  0.29767450  0.30277515  1
  Zr  Zr9  1  0.09931781  0.29606150  0.70303252  1
  Zr  Zr10  1  0.30663578  0.09859762  0.08637448  1
  Zr  Zr11  1  0.70742532  0.69264134  0.90074616  1
  Zr  Zr12  1  0.70315729  0.69374879  0.10086868  1
  Zr  Zr13  1  0.69433869  0.90550033  0.30006638  1
  Zr  Zr14  1  0.69842991  0.30032162  0.10095470  1
  Zr  Zr15  1  0.49662510  0.09044583  0.90203264  1
  Zr  Zr16  1  0.09983663  0.30835698  0.09877889  1
  Zr  Zr17  1  0.89812309  0.50865627  0.89570018  1
  Zr  Zr18  1  0.50531753  0.09099670  0.30125540  1
  Zr  Zr19  1  0.90685411  0.89276650  0.10428074  1
  Zr  Zr20  1  0.90656603  0.70017265  0.70526910  1
  Zr  Zr21  1  0.30279749  0.50398785  0.29971781  1
  Zr  Zr22  1  0.29348796  0.09996867  0.70921087  1
  Zr  Zr23  1  0.09563119  0.50767145  0.50090787  1
  Zr  Zr24  1  0.49978931  0.70368398  0.10601014  1
  Zr  Zr25  1  0.90604063  0.89582569  0.89692116  1
  Zr  Zr26  1  0.10038771  0.50163851  0.28921159  1
  Zr  Zr27  1  0.48860558  0.09471122  0.70097359  1
  Zr  Zr28  1  0.69807664  0.29795851  0.49425962  1
  Zr  Zr29  1  0.10047308  0.10273189  0.70058444  1
  Zr  Zr30  1  0.69804234  0.10206241  0.29686448  1
  Zr  Zr31  1  0.10828477  0.50150513  0.09633042  1
  Zr  Zr32  1  0.90829158  0.50435986  0.30855707  1
  Zr  Zr33  1  0.29632091  0.89497261  0.09668821  1
  Zr  Zr34  1  0.29138324  0.70316092  0.50084669  1
  Zr  Zr35  1  0.29696737  0.29878666  0.09807510  1
  Zr  Zr36  1  0.31581069  0.49954795  0.70238628  1
  Zr  Zr37  1  0.09422122  0.90215432  0.70932720  1
  Zr  Zr38  1  0.69569063  0.69458773  0.69720109  1
  Zr  Zr39  1  0.90377499  0.10239332  0.29453016  1
  Zr  Zr40  1  0.30005592  0.70337853  0.90022671  1
  Zr  Zr41  1  0.50083905  0.89572535  0.70432951  1
  Zr  Zr42  1  0.70378076  0.09050785  0.09390896  1
  Zr  Zr43  1  0.10232780  0.89698869  0.90552233  1
  Zr  Zr44  1  0.50124248  0.50676986  0.30318962  1
  Zr  Zr45  1  0.49578269  0.30914760  0.09479453  1
  Zr  Zr46  1  0.49088988  0.89768186  0.29913497  1
  Zr  Zr47  1  0.69695677  0.89491468  0.70004633  1
  Zr  Zr48  1  0.10643348  0.09656317  0.30815971  1
  Zr  Zr49  1  0.48987733  0.49581772  0.88763029  1
  Sc  Sc50  1  0.91055162  0.49764573  0.10139034  1
  Sc  Sc51  1  0.50296133  0.29405182  0.49747110  1
  Sc  Sc52  1  0.30586633  0.29493790  0.49151748  1
  Sc  Sc53  1  0.89900965  0.09542058  0.70784516  1
  Sc  Sc54  1  0.89905226  0.30584784  0.70324562  1
  Sc  Sc55  1  0.89784132  0.70371538  0.09587590  1
  Sc  Sc56  1  0.09994869  0.50947150  0.69492150  1
  Sc  Sc57  1  0.90465062  0.70402748  0.29967781  1
  Sc  Sc58  1  0.10276513  0.70389758  0.10271692  1
  Sc  Sc59  1  0.50293534  0.30373957  0.30195785  1
  Sc  Sc60  1  0.50296581  0.08988650  0.09970325  1
  Sc  Sc61  1  0.69234137  0.69400265  0.29549402  1
  Sc  Sc62  1  0.90330743  0.89179136  0.29645366  1
  Sc  Sc63  1  0.69744410  0.49551031  0.30378541  1
  Sc  Sc64  1  0.29237758  0.70219090  0.69981902  1
  Sc  Sc65  1  0.29748827  0.09949366  0.49214159  1
  Sc  Sc66  1  0.90119904  0.31183628  0.49762918  1
  Sc  Sc67  1  0.09369305  0.11706051  0.11005673  1
  Sc  Sc68  1  0.49836427  0.30022101  0.90058454  1
  Sc  Sc69  1  0.29375497  0.70478998  0.10276718  1
  Sc  Sc70  1  0.70168184  0.70223959  0.50507696  1
  Sc  Sc71  1  0.29656835  0.70557202  0.30075692  1
  Sc  Sc72  1  0.29601860  0.89470963  0.30676622  1
  Sc  Sc73  1  0.89967813  0.30867681  0.29925994  1
  Sc  Sc74  1  0.29829167  0.90185256  0.90539482  1
  Sc  Sc75  1  0.70004429  0.09941448  0.71147750  1
  Sc  Sc76  1  0.09644484  0.89626761  0.49418569  1
  Sc  Sc77  1  0.70542575  0.29602764  0.88713044  1
  Sc  Sc78  1  0.29622874  0.49258443  0.10069705  1
  Sc  Sc79  1  0.09654935  0.89218841  0.30200613  1
  Sc  Sc80  1  0.49526595  0.69797363  0.50252041  1
  Sc  Sc81  1  0.30179083  0.29240176  0.90783613  1
  Sc  Sc82  1  0.68742881  0.10646131  0.49102230  1
  Sc  Sc83  1  0.89767312  0.90668929  0.69756820  1
  Sc  Sc84  1  0.10838083  0.10043417  0.88862179  1
  Sc  Sc85  1  0.10188724  0.30381692  0.50348717  1
  Sc  Sc86  1  0.70483685  0.89780469  0.10309920  1
  Sc  Sc87  1  0.31074159  0.90326840  0.69995880  1
  Sc  Sc88  1  0.69828782  0.89406197  0.50550112  1
  Sc  Sc89  1  0.10277100  0.69979343  0.30301701  1
  Sc  Sc90  1  0.49139109  0.90084365  0.10148742  1
  Sc  Sc91  1  0.48775400  0.90312449  0.50001551  1
  Sc  Sc92  1  0.49351229  0.09858863  0.49316334  1
  Sc  Sc93  1  0.49723870  0.30460412  0.71041701  1
  Sc  Sc94  1  0.70656251  0.49928899  0.89247308  1
  Sc  Sc95  1  0.30405625  0.30176861  0.29818293  1
  Sc  Sc96  1  0.90539197  0.69785232  0.90492023  1
  Sc  Sc97  1  0.30005184  0.10284049  0.30896533  1
  Sc  Sc98  1  0.69506846  0.49360502  0.10094685  1
  Sc  Sc99  1  0.50388323  0.70463705  0.70698794  1
  Nb  Nb100  1  0.90589166  0.50185811  0.50678958  1
  Nb  Nb101  1  0.10181899  0.70045572  0.51316798  1
  Nb  Nb102  1  0.10392783  0.70510562  0.69179045  1
  Nb  Nb103  1  0.90059862  0.10421107  0.09617412  1
  Nb  Nb104  1  0.10844240  0.50167772  0.90144064  1
  Nb  Nb105  1  0.90786019  0.28959045  0.09106146  1
  Nb  Nb106  1  0.49810297  0.88929804  0.89675108  1
  Nb  Nb107  1  0.29935067  0.90226908  0.49798474  1
  Nb  Nb108  1  0.10108447  0.89866615  0.09899782  1
  Nb  Nb109  1  0.90412176  0.29779369  0.90041516  1
  Nb  Nb110  1  0.29483753  0.30021596  0.70009811  1
  Nb  Nb111  1  0.89243675  0.49564952  0.69572422  1
  Nb  Nb112  1  0.49728227  0.49936107  0.09645918  1
  Nb  Nb113  1  0.88526178  0.10979927  0.90780703  1
  Nb  Nb114  1  0.30460598  0.50397310  0.50372716  1
  Nb  Nb115  1  0.10153359  0.09878584  0.49797753  1
  Nb  Nb116  1  0.50279630  0.49782321  0.69710011  1
  Nb  Nb117  1  0.69808437  0.30423489  0.69454698  1
  Nb  Nb118  1  0.28880417  0.51023930  0.89618572  1
  Nb  Nb119  1  0.70738522  0.49756252  0.70100367  1
  Nb  Nb120  1  0.49964895  0.70380973  0.90255242  1
  Nb  Nb121  1  0.48925315  0.50052797  0.50761874  1
  Nb  Nb122  1  0.30188615  0.09698593  0.90177068  1
  Nb  Nb123  1  0.70346161  0.09872742  0.90579403  1
  Nb  Nb124  1  0.49924335  0.70176546  0.29698396  1
  Nb  Nb125  1  0.80194539  0.59532846  0.20101610  1
  Nb  Nb126  1  0.39383480  0.20012645  0.60711959  1
  Nb  Nb127  1  0.79850814  0.00065334  0.39727211  1
  Nb  Nb128  1  0.79740801  0.20385055  0.59969466  1
  Nb  Nb129  1  0.20074360  0.40422258  0.79938355  1
  Nb  Nb130  1  0.59115007  0.79834228  0.39542977  1
  Nb  Nb131  1  0.59304057  0.00057716  0.60359457  1
  Nb  Nb132  1  0.40530478  0.59922050  0.19684360  1
  Nb  Nb133  1  0.59938237  0.40761504  0.60461069  1
  Nb  Nb134  1  0.00309443  0.19719765  0.40461193  1
  Nb  Nb135  1  0.21024121  0.40397503  0.59997462  1
  Nb  Nb136  1  0.79730356  0.79942114  0.79985926  1
  Nb  Nb137  1  -0.00352380  0.00645723  0.00437187  1
  Nb  Nb138  1  0.59051884  0.59827034  -0.00226729  1
  Nb  Nb139  1  0.20395342  0.40982671  0.40528197  1
  Nb  Nb140  1  0.40456038  0.19899220  0.19569293  1
  Nb  Nb141  1  0.80977644  0.39074054  -0.00266156  1
  Nb  Nb142  1  0.19804334  0.00084079  0.59658262  1
  Nb  Nb143  1  0.40205991  0.59909923  0.00011692  1
  Nb  Nb144  1  0.80477240  0.20101588  0.19025440  1
  Nb  Nb145  1  0.59736453  0.79631103  -0.00424617  1
  Nb  Nb146  1  0.19710337  -0.00206671  0.19601155  1
  Nb  Nb147  1  0.00224342  0.40681176  0.80440858  1
  Nb  Nb148  1  -0.00358031  0.19645882  0.59629057  1
  Nb  Nb149  1  0.60579989  0.19433047  -0.00444471  1
  Pd  Pd150  1  0.59529421  0.20000433  0.60728807  1
  Pd  Pd151  1  0.79856017  0.60188788  0.39316087  1
  Pd  Pd152  1  0.19956224  0.81537872  0.60228334  1
  Pd  Pd153  1  0.00610773  0.00051815  0.59775656  1
  Pd  Pd154  1  0.00519332  0.59669700  0.79532091  1
  Pd  Pd155  1  0.01042025  0.39588728  0.39922509  1
  Pd  Pd156  1  0.59547195  0.40326089  0.20443803  1
  Pd  Pd157  1  0.18625918  0.01136758  0.00726851  1
  Pd  Pd158  1  -0.00214316  0.40671145  -0.00651618  1
  Pd  Pd159  1  0.79657676  0.39497978  0.59550317  1
  Pd  Pd160  1  -0.00603506  -0.00098890  0.39799949  1
  Pd  Pd161  1  0.60432549  0.40197868  0.79841923  1
  Pd  Pd162  1  0.80165449  0.40823645  0.40487562  1
  Pd  Pd163  1  0.40391549  0.38761738  0.59719533  1
  Pd  Pd164  1  -0.00479421  0.60060604  0.60560726  1
  Pd  Pd165  1  0.39600744  0.20431265  0.80124549  1
  Pd  Pd166  1  0.38659846  0.00416221  0.20519720  1
  Pd  Pd167  1  0.60178509  0.80690290  0.19792254  1
  Pd  Pd168  1  -0.00559473  0.01026879  0.81256080  1
  Pd  Pd169  1  0.00786608  -0.00188299  0.19585523  1
  Pd  Pd170  1  0.79410185  0.80654945  -0.00617396  1
  Pd  Pd171  1  0.20262341  0.19955286  0.59018718  1
  Pd  Pd172  1  0.78335793  0.01126886  0.59346906  1
  Pd  Pd173  1  0.00609977  0.60499228  0.00359114  1
  Pd  Pd174  1  0.59890625  0.60522394  0.40990438  1
  Pd  Pd175  1  0.80637975  0.79248785  0.60688229  1
  Pd  Pd176  1  0.59719530  0.19849303  0.19231610  1
  Pd  Pd177  1  0.59937123  0.59525041  0.80351434  1
  Pd  Pd178  1  0.40124398  0.61030604  0.79870364  1
  Pd  Pd179  1  0.80244743  0.20285166  0.79173329  1
  Pd  Pd180  1  0.81038214  -0.01036663  0.00009653  1
  Pd  Pd181  1  -0.00413426  0.60842796  0.19506036  1
  Pd  Pd182  1  0.40068185  0.61272772  0.60823656  1
  Pd  Pd183  1  -0.00324435  0.80629582  0.59886281  1
  Pd  Pd184  1  0.19612983  0.60057554  0.40082540  1
  Pd  Pd185  1  0.78837190  0.79946487  0.39238115  1
  Pd  Pd186  1  0.20555800  0.80679450  0.79703403  1
  Pd  Pd187  1  0.59765531  0.19586074  0.80381192  1
  Pd  Pd188  1  0.39956821  0.79469415  0.60009755  1
  Pd  Pd189  1  0.80981138  0.40002591  0.19246105  1
  Pd  Pd190  1  0.80422027  0.00135171  0.20329062  1
  Pd  Pd191  1  0.39836839  0.60979402  0.39715338  1
  Pd  Pd192  1  0.59419892  0.40825682  0.41214929  1
  Pd  Pd193  1  0.59683194  0.00376018  0.79674038  1
  Pd  Pd194  1  0.61004155  0.39941898  -0.01322240  1
  Pd  Pd195  1  0.38859271  0.40795030  -0.00836715  1
  Pd  Pd196  1  0.00973595  0.18892982  -0.01108607  1
  Pd  Pd197  1  0.59434329  0.59695051  0.59833018  1
  Pd  Pd198  1  0.39958201  0.39859911  0.40068596  1
  Pd  Pd199  1  0.21341596  0.19084535  0.19834357  1
  Rh  Rh200  1  0.40247658  0.79812097  -0.00007808  1
  Rh  Rh201  1  0.60004901  0.59092367  0.19537146  1
  Rh  Rh202  1  0.00459720  0.39849530  0.60908077  1
  Rh  Rh203  1  0.39488435  0.79920962  0.80092099  1
  Rh  Rh204  1  0.00433076  0.79524479  0.19890105  1
  Rh  Rh205  1  0.20553310  -0.00754824  0.79597144  1
  Rh  Rh206  1  0.19823281  0.59832445  0.78820737  1
  Rh  Rh207  1  0.00676042  0.60535652  0.40181502  1
  Rh  Rh208  1  0.00006061  0.79513495  0.80001088  1
  Rh  Rh209  1  0.39328655  -0.00145854  0.39693226  1
  Rh  Rh210  1  -0.00881803  0.19982786  0.79809923  1
  Rh  Rh211  1  0.40399420  0.40089704  0.20328385  1
  Rh  Rh212  1  -0.00699406  0.20949907  0.20870800  1
  Rh  Rh213  1  0.19534145  0.19451005  -0.00195961  1
  Rh  Rh214  1  0.40393810  -0.01020463  -0.00625547  1
  Rh  Rh215  1  0.39403059  0.01086658  0.59259740  1
  Rh  Rh216  1  0.20341667  0.40143638  0.20576985  1
  Rh  Rh217  1  0.80819913  0.39782955  0.80321526  1
  Rh  Rh218  1  0.79872400  0.78815137  0.20529723  1
  Rh  Rh219  1  0.19613110  0.79796311  0.40616256  1
  Rh  Rh220  1  0.80800619  0.60334012  0.60356198  1
  Rh  Rh221  1  0.00576195  0.79136048  0.40575086  1
  Rh  Rh222  1  0.00819580  0.79904556  0.00015689  1
  Rh  Rh223  1  0.19401463  0.21192601  0.40323962  1
  Rh  Rh224  1  0.61005723  0.79403319  0.80934160  1
  Rh  Rh225  1  0.20677462  0.59518320  0.60341071  1
  Rh  Rh226  1  0.80291332  0.60569576  0.79001338  1
  Rh  Rh227  1  0.20841479  0.20602138  0.80955867  1
  Rh  Rh228  1  0.59399108  -0.00677730  0.00107920  1
  Rh  Rh229  1  0.40666752  0.19813369  0.39355151  1
  Rh  Rh230  1  0.58820644  0.80793011  0.58906183  1
  Rh  Rh231  1  0.59876410  -0.00768604  0.19173240  1
  Rh  Rh232  1  -0.00137958  0.39648632  0.19701981  1
  Rh  Rh233  1  0.20038609  -0.00935193  0.40094172  1
  Rh  Rh234  1  0.80450089  -0.00542682  0.80646861  1
  Rh  Rh235  1  0.80940358  0.19502579  0.39640852  1
  Rh  Rh236  1  0.40048316  0.79602326  0.40251921  1
  Rh  Rh237  1  0.38722080  0.39302314  0.80718853  1
  Rh  Rh238  1  0.20822985  0.60070153  0.19707368  1
  Rh  Rh239  1  0.79627705  0.58123187  0.01338299  1
  Rh  Rh240  1  0.39206458  0.79438273  0.20225736  1
  Rh  Rh241  1  0.39456788  -0.00771059  0.81041081  1
  Rh  Rh242  1  0.79214592  0.20805388  0.00299222  1
  Rh  Rh243  1  0.19698213  0.80917734  0.20226627  1
  Rh  Rh244  1  0.59238163  0.20168775  0.39150836  1
  Rh  Rh245  1  0.19545047  0.79293565  -0.00229278  1
  Rh  Rh246  1  0.60390492  -0.01252274  0.41247065  1
  Rh  Rh247  1  0.20540866  0.60452353  0.00601207  1
  Rh  Rh248  1  0.41325567  0.19645081  0.00438526  1
  Rh  Rh249  1  0.20466222  0.40004131  -0.00731840  1
