# generated using pymatgen
data_ZrScNbPdRh
_symmetry_space_group_name_H-M   'P 1'
_cell_length_a   16.56265332
_cell_length_b   16.55960507
_cell_length_c   16.56688400
_cell_angle_alpha   90.01134262
_cell_angle_beta   89.98236338
_cell_angle_gamma   90.03930699
_symmetry_Int_Tables_number   1
_chemical_formula_structural   ZrScNbPdRh
_chemical_formula_sum   'Zr50 Sc50 Nb50 Pd50 Rh50'
_cell_volume   4543.81443164
_cell_formula_units_Z   50
loop_
 _symmetry_equiv_pos_site_id
 _symmetry_equiv_pos_as_xyz
  1  'x, y, z'
loop_
 _atom_site_type_symbol
 _atom_site_label
 _atom_site_symmetry_multiplicity
 _atom_site_fract_x
 _atom_site_fract_y
 _atom_site_fract_z
 _atom_site_occupancy
  Zr  Zr0  1  0.10055066  0.70137845  0.89765465  1
  Zr  Zr1  1  0.69435385  0.29987864  0.10387919  1
  Zr  Zr2  1  0.89998398  0.10428213  0.30748433  1
  Zr  Zr3  1  0.89404232  0.29023410  0.49284236  1
  Zr  Zr4  1  0.10729899  0.50566748  0.50052211  1
  Zr  Zr5  1  0.69892913  0.51235017  0.30015501  1
  Zr  Zr6  1  0.48348882  0.69926596  0.49298414  1
  Zr  Zr7  1  0.49965366  0.50037912  0.90661680  1
  Zr  Zr8  1  0.89817674  0.50512718  0.28670520  1
  Zr  Zr9  1  0.69766327  0.49829233  0.49484131  1
  Zr  Zr10  1  0.50064102  0.09510740  0.69833925  1
  Zr  Zr11  1  0.49690271  0.90252286  0.10248483  1
  Zr  Zr12  1  0.29879106  0.50619580  0.70154920  1
  Zr  Zr13  1  0.89860724  0.29240297  0.29050600  1
  Zr  Zr14  1  0.49606637  0.50021326  0.71069082  1
  Zr  Zr15  1  0.69219269  0.29812746  0.50520594  1
  Zr  Zr16  1  0.90489072  0.90288063  0.70038903  1
  Zr  Zr17  1  0.70210271  0.09694143  0.29823381  1
  Zr  Zr18  1  0.29927435  0.09508191  0.69309449  1
  Zr  Zr19  1  0.69958264  0.69638153  0.69856636  1
  Zr  Zr20  1  0.50811545  0.69944308  0.30290835  1
  Zr  Zr21  1  0.09705227  0.30094972  0.69108443  1
  Zr  Zr22  1  0.11207094  0.30239435  0.29771335  1
  Zr  Zr23  1  0.90444080  0.11217862  0.10647726  1
  Zr  Zr24  1  0.29761906  0.29802230  0.91093191  1
  Zr  Zr25  1  0.10747858  0.89618912  0.11249086  1
  Zr  Zr26  1  0.49948423  0.89511343  0.89636600  1
  Zr  Zr27  1  0.68364167  0.90405437  0.69421360  1
  Zr  Zr28  1  0.70816852  0.88783462  0.30221637  1
  Zr  Zr29  1  0.69638965  0.69924087  0.48981469  1
  Zr  Zr30  1  0.49909686  0.70159821  0.90462199  1
  Zr  Zr31  1  0.69534889  0.50098796  0.10678039  1
  Zr  Zr32  1  0.30910988  0.70108777  0.31088739  1
  Zr  Zr33  1  0.49905570  0.10626097  0.90131897  1
  Zr  Zr34  1  0.30074556  0.30161443  0.69785038  1
  Zr  Zr35  1  0.49062642  0.29477351  0.30929737  1
  Zr  Zr36  1  0.29702656  0.89250753  0.49932287  1
  Zr  Zr37  1  0.29941681  0.10194694  0.29744415  1
  Zr  Zr38  1  0.09741118  0.09627131  0.50266490  1
  Zr  Zr39  1  0.69244222  0.49905472  0.90828668  1
  Zr  Zr40  1  0.29420540  0.48581104  0.30893551  1
  Zr  Zr41  1  0.09884099  0.70249341  0.10927632  1
  Zr  Zr42  1  0.70000057  0.09782985  0.90490382  1
  Zr  Zr43  1  0.51288950  0.29781667  0.70205724  1
  Zr  Zr44  1  0.50884808  0.10231990  0.09902642  1
  Zr  Zr45  1  0.49395284  0.09552792  0.29094374  1
  Zr  Zr46  1  0.49543577  0.90323062  0.50843437  1
  Zr  Zr47  1  0.09985499  0.90896328  0.69420788  1
  Zr  Zr48  1  0.09892361  0.29715794  0.09571344  1
  Zr  Zr49  1  0.30674743  0.10136586  0.89651053  1
  Sc  Sc50  1  0.90330554  0.69511336  0.89504794  1
  Sc  Sc51  1  0.50239345  0.29576128  0.10439495  1
  Sc  Sc52  1  0.09690837  0.08881594  0.89401545  1
  Sc  Sc53  1  0.10033766  0.89621697  0.49908012  1
  Sc  Sc54  1  0.51056587  0.50086893  0.10518974  1
  Sc  Sc55  1  0.10872713  0.89347828  0.30536683  1
  Sc  Sc56  1  0.69694797  0.70699655  0.10339566  1
  Sc  Sc57  1  0.29884102  0.88934695  0.11092826  1
  Sc  Sc58  1  0.69735848  0.29840284  0.89094885  1
  Sc  Sc59  1  0.10603776  0.10749342  0.10532905  1
  Sc  Sc60  1  0.29616285  0.70441894  0.69894256  1
  Sc  Sc61  1  0.50138547  0.50174873  0.29934807  1
  Sc  Sc62  1  0.70271024  0.09914539  0.50301951  1
  Sc  Sc63  1  0.30022082  0.29936241  0.47852266  1
  Sc  Sc64  1  0.90561917  0.69965491  0.50377810  1
  Sc  Sc65  1  0.10215643  0.29242834  0.50079148  1
  Sc  Sc66  1  0.90676857  0.68921830  0.70033545  1
  Sc  Sc67  1  0.50674913  0.29864753  0.90182934  1
  Sc  Sc68  1  0.29460709  0.09668633  0.49744795  1
  Sc  Sc69  1  0.29597106  0.49679649  0.89330394  1
  Sc  Sc70  1  0.08633597  0.49893361  0.09793071  1
  Sc  Sc71  1  0.30429048  0.10927435  0.10384701  1
  Sc  Sc72  1  0.30142916  0.90115004  0.69807077  1
  Sc  Sc73  1  0.70380151  0.89890791  0.08587001  1
  Sc  Sc74  1  0.10128374  0.70416029  0.69714559  1
  Sc  Sc75  1  0.90198449  0.90659556  0.49906142  1
  Sc  Sc76  1  0.89546975  0.09954138  0.69206331  1
  Sc  Sc77  1  0.70066139  0.90448278  0.49564945  1
  Sc  Sc78  1  0.90973472  0.50111484  0.89201728  1
  Sc  Sc79  1  0.70535750  0.29130793  0.70031842  1
  Sc  Sc80  1  0.29951923  0.49364036  0.11050359  1
  Sc  Sc81  1  0.09990294  0.49684246  0.89549507  1
  Sc  Sc82  1  0.50517283  0.10262528  0.49078017  1
  Sc  Sc83  1  0.89860450  0.09636813  0.89691486  1
  Sc  Sc84  1  0.10155573  0.30750013  0.90471778  1
  Sc  Sc85  1  0.70138639  0.30622573  0.30585675  1
  Sc  Sc86  1  0.49990230  0.70189881  0.10619503  1
  Sc  Sc87  1  0.49131851  0.90336233  0.69708368  1
  Sc  Sc88  1  0.91014151  0.49862576  0.69985021  1
  Sc  Sc89  1  0.89081382  0.70405081  0.29388008  1
  Sc  Sc90  1  0.90321115  0.29854983  0.89229105  1
  Sc  Sc91  1  0.70915599  0.49281683  0.70120709  1
  Sc  Sc92  1  0.29949847  0.71122154  0.89257288  1
  Sc  Sc93  1  0.89535365  0.30154385  0.69653533  1
  Sc  Sc94  1  0.09942050  0.89705987  0.88804497  1
  Sc  Sc95  1  0.48981357  0.70856121  0.70194558  1
  Sc  Sc96  1  0.49478935  0.90336046  0.30026596  1
  Sc  Sc97  1  0.89616974  0.89582086  0.30853121  1
  Sc  Sc98  1  0.89558650  0.90269303  0.90392381  1
  Sc  Sc99  1  0.90055718  0.50186896  0.50624888  1
  Nb  Nb100  1  0.29297621  0.69349996  0.50419590  1
  Nb  Nb101  1  0.09809160  0.50092713  0.30155206  1
  Nb  Nb102  1  0.90182309  0.30108403  0.10075271  1
  Nb  Nb103  1  0.70118546  0.89389029  0.89924689  1
  Nb  Nb104  1  0.70096837  0.70178520  0.30330360  1
  Nb  Nb105  1  0.89723861  0.89967042  0.10148058  1
  Nb  Nb106  1  0.29605317  0.90854559  0.30140756  1
  Nb  Nb107  1  0.49960599  0.50035585  0.50411623  1
  Nb  Nb108  1  0.29560697  0.69593012  0.10501587  1
  Nb  Nb109  1  0.10315785  0.09342450  0.29795881  1
  Nb  Nb110  1  0.10300163  0.10038646  0.69405256  1
  Nb  Nb111  1  0.89497976  0.50488772  0.10070210  1
  Nb  Nb112  1  0.69571567  0.70263442  0.90451538  1
  Nb  Nb113  1  0.09878590  0.69964764  0.30176480  1
  Nb  Nb114  1  0.30115636  0.90102529  0.90113930  1
  Nb  Nb115  1  0.69966859  0.10346436  0.70150782  1
  Nb  Nb116  1  0.09961453  0.49947801  0.69656570  1
  Nb  Nb117  1  0.30313167  0.50808673  0.50291498  1
  Nb  Nb118  1  0.11065871  0.70223841  0.49855856  1
  Nb  Nb119  1  0.70272643  0.09931243  0.09765118  1
  Nb  Nb120  1  0.30258087  0.29822260  0.28754098  1
  Nb  Nb121  1  0.50254787  0.30033145  0.50364597  1
  Nb  Nb122  1  0.29508459  0.29881089  0.10139593  1
  Nb  Nb123  1  0.89623191  0.09869011  0.49252982  1
  Nb  Nb124  1  0.90125117  0.69685859  0.10314114  1
  Nb  Nb125  1  0.20873768  0.40636419  0.59557856  1
  Nb  Nb126  1  0.80209218  0.59851768  0.00461470  1
  Nb  Nb127  1  0.39164063  0.59899713  0.00474348  1
  Nb  Nb128  1  0.19680782  0.60153628  0.20519368  1
  Nb  Nb129  1  0.79802700  0.80063155  0.60606754  1
  Nb  Nb130  1  0.80091231  0.20472961  0.00625226  1
  Nb  Nb131  1  0.00835459  0.19638603  0.79083020  1
  Nb  Nb132  1  0.00303084  -0.00679512  0.01225758  1
  Nb  Nb133  1  0.60151712  0.60315317  0.80046977  1
  Nb  Nb134  1  0.20417857  0.60369381  0.00693691  1
  Nb  Nb135  1  0.40437446  0.20811421  0.59356857  1
  Nb  Nb136  1  0.00191187  0.40419595  0.39417224  1
  Nb  Nb137  1  0.39515536  -0.00316870  -0.00065355  1
  Nb  Nb138  1  0.80605382  0.40061641  0.00690657  1
  Nb  Nb139  1  0.39740754  0.39938350  0.00496290  1
  Nb  Nb140  1  0.40160485  0.40084490  0.59318990  1
  Nb  Nb141  1  0.79244062  0.80245754  0.79884712  1
  Nb  Nb142  1  0.59485898  0.59798219  0.60011343  1
  Nb  Nb143  1  0.20421758  -0.00536332  0.00078786  1
  Nb  Nb144  1  -0.00212164  0.80182354  0.00847904  1
  Nb  Nb145  1  0.78901948  -0.00531749  0.79722148  1
  Nb  Nb146  1  0.19526353  0.19756894  0.79418479  1
  Nb  Nb147  1  -0.00212011  -0.00059681  0.20184424  1
  Nb  Nb148  1  0.80405765  0.00118041  0.19387008  1
  Nb  Nb149  1  0.00751617  0.60017664  0.39515626  1
  Pd  Pd150  1  0.79578685  0.60137198  0.80901697  1
  Pd  Pd151  1  -0.01028576  0.19476205  0.60006351  1
  Pd  Pd152  1  0.00128373  0.60509184  -0.00174454  1
  Pd  Pd153  1  0.59279784  0.80825168  0.40437477  1
  Pd  Pd154  1  0.79695606  0.60251174  0.59616639  1
  Pd  Pd155  1  0.39591091  0.59549870  0.20139239  1
  Pd  Pd156  1  0.39716171  0.00270064  0.40406257  1
  Pd  Pd157  1  0.79816666  -0.00364538  0.60179155  1
  Pd  Pd158  1  0.59997909  0.40713762  0.60767840  1
  Pd  Pd159  1  0.39871243  0.20601290  0.79341886  1
  Pd  Pd160  1  0.39886080  0.80023432  0.20773742  1
  Pd  Pd161  1  0.59976955  0.00253891  0.80511785  1
  Pd  Pd162  1  0.60102694  -0.00491287  0.39737302  1
  Pd  Pd163  1  0.00881569  0.20552822  0.39429422  1
  Pd  Pd164  1  0.60205107  0.20390737  0.21029005  1
  Pd  Pd165  1  0.80873567  0.78871646  -0.00515761  1
  Pd  Pd166  1  0.00258396  0.39944170  0.58790211  1
  Pd  Pd167  1  0.19427398  0.39433829  0.79415938  1
  Pd  Pd168  1  0.19889893  0.19505763  0.39623974  1
  Pd  Pd169  1  0.40784119  0.39781259  0.19464406  1
  Pd  Pd170  1  0.39661820  0.79759933  0.00571555  1
  Pd  Pd171  1  0.19693968  0.60333348  0.80322282  1
  Pd  Pd172  1  0.00538218  -0.00512679  0.39490485  1
  Pd  Pd173  1  -0.00855101  0.80612204  0.20505146  1
  Pd  Pd174  1  0.80956995  0.40342381  0.39764302  1
  Pd  Pd175  1  0.18979305  0.40627861  0.19037128  1
  Pd  Pd176  1  -0.00754742  0.40075052  -0.00352530  1
  Pd  Pd177  1  0.20055643  0.60285204  0.39375324  1
  Pd  Pd178  1  0.19556267  0.80086721  -0.00286182  1
  Pd  Pd179  1  0.40344260  0.60100990  0.60599508  1
  Pd  Pd180  1  -0.00184683  0.79783369  0.59741793  1
  Pd  Pd181  1  0.80221594  0.39793243  0.59774009  1
  Pd  Pd182  1  0.00002051  0.19440151  -0.01279642  1
  Pd  Pd183  1  0.59561984  0.40333198  0.39499204  1
  Pd  Pd184  1  0.59827393  0.79230554  0.59219714  1
  Pd  Pd185  1  0.40406097  0.40448906  0.40570497  1
  Pd  Pd186  1  0.60320950  0.80702772  0.19693154  1
  Pd  Pd187  1  0.59905018  0.79465295  0.79724903  1
  Pd  Pd188  1  0.20388296  0.00031007  0.80195540  1
  Pd  Pd189  1  -0.00748124  0.80064916  0.80459341  1
  Pd  Pd190  1  0.81356472  0.60310520  0.40198591  1
  Pd  Pd191  1  0.60300378  0.19723659  0.39508004  1
  Pd  Pd192  1  0.19255854  0.18764679  -0.00934820  1
  Pd  Pd193  1  -0.00234571  0.79330616  0.40163706  1
  Pd  Pd194  1  0.59407837  -0.00638294  -0.00244238  1
  Pd  Pd195  1  0.00319620  0.39722117  0.20104896  1
  Pd  Pd196  1  0.40207756  0.39126493  0.80762422  1
  Pd  Pd197  1  0.61311429  -0.01129584  0.19968336  1
  Pd  Pd198  1  0.79664284  0.39825276  0.19876569  1
  Pd  Pd199  1  0.80315458  0.40205789  0.80820907  1
  Rh  Rh200  1  0.59680180  0.80197119  0.00560132  1
  Rh  Rh201  1  0.39500652  0.80506449  0.79647905  1
  Rh  Rh202  1  0.80528840  0.79463458  0.41301591  1
  Rh  Rh203  1  0.20028444  0.80707457  0.79259389  1
  Rh  Rh204  1  0.40182240  0.60779043  0.81088078  1
  Rh  Rh205  1  0.01324914  0.19951906  0.20886166  1
  Rh  Rh206  1  0.00999725  0.59663599  0.79318182  1
  Rh  Rh207  1  0.21061461  0.79171658  0.21799800  1
  Rh  Rh208  1  0.79842629  0.80179541  0.19582567  1
  Rh  Rh209  1  -0.00905480  0.00695848  0.79693365  1
  Rh  Rh210  1  0.59322569  0.59753989  0.40448679  1
  Rh  Rh211  1  0.19945619  0.80095250  0.60039062  1
  Rh  Rh212  1  0.19490123  0.39863288  0.40784189  1
  Rh  Rh213  1  0.40361809  0.20419279  0.00883297  1
  Rh  Rh214  1  0.79929110  0.00152801  0.39472879  1
  Rh  Rh215  1  0.59567429  0.39540839  0.21099990  1
  Rh  Rh216  1  0.59924805  0.60936179  0.00137595  1
  Rh  Rh217  1  0.59783654  0.19237207  0.60105576  1
  Rh  Rh218  1  0.20516463  0.79805325  0.40007101  1
  Rh  Rh219  1  0.21193798  0.20572691  0.60022224  1
  Rh  Rh220  1  0.19834556  -0.00542578  0.59285255  1
  Rh  Rh221  1  0.59817788  0.39219158  0.00326183  1
  Rh  Rh222  1  0.79932934  0.19826525  0.59577105  1
  Rh  Rh223  1  0.20700477  0.41152528  0.00610418  1
  Rh  Rh224  1  0.20026430  0.00407111  0.19866239  1
  Rh  Rh225  1  -0.00178675  0.00448133  0.59427842  1
  Rh  Rh226  1  0.80576478  0.19062692  0.80342067  1
  Rh  Rh227  1  0.60339095  0.19443759  0.79961129  1
  Rh  Rh228  1  0.00322735  0.39316734  0.79565958  1
  Rh  Rh229  1  0.40062689  0.00997348  0.59160444  1
  Rh  Rh230  1  0.40090372  -0.00560930  0.80523648  1
  Rh  Rh231  1  0.39110439  -0.00018207  0.19198674  1
  Rh  Rh232  1  0.40146513  0.20231735  0.19688509  1
  Rh  Rh233  1  0.60829649  0.20419755  -0.00266103  1
  Rh  Rh234  1  0.20030607  0.20002268  0.20226563  1
  Rh  Rh235  1  0.59746090  0.00808576  0.59484258  1
  Rh  Rh236  1  0.39850585  0.80900610  0.39792540  1
  Rh  Rh237  1  0.19593426  0.60027292  0.60715871  1
  Rh  Rh238  1  0.40052867  0.59050860  0.39562070  1
  Rh  Rh239  1  0.78957420  0.19917598  0.40331075  1
  Rh  Rh240  1  0.60278945  0.60790271  0.20259232  1
  Rh  Rh241  1  0.00355368  0.60321320  0.20618946  1
  Rh  Rh242  1  0.60665391  0.40495880  0.79690044  1
  Rh  Rh243  1  0.39854516  0.19430285  0.40204061  1
  Rh  Rh244  1  0.79115352  0.61068389  0.19371991  1
  Rh  Rh245  1  0.39213627  0.79741055  0.59790164  1
  Rh  Rh246  1  0.79067613  0.19862044  0.19636420  1
  Rh  Rh247  1  0.80667523  0.01016229  0.00146037  1
  Rh  Rh248  1  0.19736378  -0.00156877  0.40125422  1
  Rh  Rh249  1  0.00968190  0.60370332  0.59554963  1
