# generated using pymatgen
data_ZrScNbPdRh
_symmetry_space_group_name_H-M   'P 1'
_cell_length_a   16.55752354
_cell_length_b   16.55588419
_cell_length_c   16.55968845
_cell_angle_alpha   89.98921545
_cell_angle_beta   89.98173732
_cell_angle_gamma   90.03125628
_symmetry_Int_Tables_number   1
_chemical_formula_structural   ZrScNbPdRh
_chemical_formula_sum   'Zr50 Sc50 Nb50 Pd50 Rh50'
_cell_volume   4539.41437480
_cell_formula_units_Z   50
loop_
 _symmetry_equiv_pos_site_id
 _symmetry_equiv_pos_as_xyz
  1  'x, y, z'
loop_
 _atom_site_type_symbol
 _atom_site_label
 _atom_site_symmetry_multiplicity
 _atom_site_fract_x
 _atom_site_fract_y
 _atom_site_fract_z
 _atom_site_occupancy
  Zr  Zr0  1  0.10368082  0.10649629  0.10340463  1
  Zr  Zr1  1  0.28274219  0.70240282  0.70463702  1
  Zr  Zr2  1  0.29757997  0.10513189  0.69987101  1
  Zr  Zr3  1  0.69020201  0.90098972  0.50464149  1
  Zr  Zr4  1  0.90849785  0.29959033  0.89960769  1
  Zr  Zr5  1  0.10318972  0.69771640  0.90085247  1
  Zr  Zr6  1  0.09979215  0.10416142  0.69316993  1
  Zr  Zr7  1  0.50130842  0.09788313  0.70918643  1
  Zr  Zr8  1  0.88781635  0.70308397  0.69924375  1
  Zr  Zr9  1  0.89942435  0.50183955  0.90803664  1
  Zr  Zr10  1  0.89831720  0.69855232  0.50814487  1
  Zr  Zr11  1  0.90480192  0.70558036  0.28977285  1
  Zr  Zr12  1  0.70673178  0.49613828  0.09660494  1
  Zr  Zr13  1  0.29119197  0.29875625  0.70420890  1
  Zr  Zr14  1  0.50449004  0.09229733  0.50749917  1
  Zr  Zr15  1  0.09026299  0.09908018  0.30039023  1
  Zr  Zr16  1  0.10089920  0.90062253  0.49670055  1
  Zr  Zr17  1  0.69699404  0.50031179  0.50314767  1
  Zr  Zr18  1  0.50496377  0.70548886  0.50298775  1
  Zr  Zr19  1  0.30528016  0.30429113  0.08714431  1
  Zr  Zr20  1  0.31094637  0.10760391  0.89588259  1
  Zr  Zr21  1  0.49240047  0.48727608  0.10401966  1
  Zr  Zr22  1  0.11211688  0.30541315  0.50007200  1
  Zr  Zr23  1  0.09716053  0.89761047  0.30136502  1
  Zr  Zr24  1  0.70566163  0.90663628  0.29571428  1
  Zr  Zr25  1  0.90304819  0.29659669  0.29809471  1
  Zr  Zr26  1  0.89443648  0.90384438  0.70114816  1
  Zr  Zr27  1  0.10218146  0.29006487  0.09773723  1
  Zr  Zr28  1  0.69799550  0.09472567  0.48918956  1
  Zr  Zr29  1  0.10189679  0.50893632  0.69550481  1
  Zr  Zr30  1  0.90534501  0.49759102  0.29609393  1
  Zr  Zr31  1  0.90292735  0.50088028  0.10089004  1
  Zr  Zr32  1  0.90383782  0.29860641  0.09380835  1
  Zr  Zr33  1  0.29651876  0.49557265  0.70579159  1
  Zr  Zr34  1  0.09982695  0.69979539  0.50992107  1
  Zr  Zr35  1  0.50603826  0.70343847  0.89538272  1
  Zr  Zr36  1  0.89126085  0.09467159  0.90105818  1
  Zr  Zr37  1  0.29412203  0.90229968  0.89382682  1
  Zr  Zr38  1  0.49926832  0.29879743  0.49179657  1
  Zr  Zr39  1  0.30407910  0.90717848  0.50194719  1
  Zr  Zr40  1  0.10251745  0.89823673  0.70054153  1
  Zr  Zr41  1  0.89227154  0.90272060  0.50915647  1
  Zr  Zr42  1  0.10257649  0.29499515  0.70053926  1
  Zr  Zr43  1  0.88976087  0.89168812  0.09312652  1
  Zr  Zr44  1  0.10203259  0.69599840  0.11038519  1
  Zr  Zr45  1  0.90193708  0.29515901  0.70338960  1
  Zr  Zr46  1  0.49812460  0.09305734  0.10042290  1
  Zr  Zr47  1  0.50306564  0.91044922  0.89505753  1
  Zr  Zr48  1  0.90299224  0.69488835  0.09648995  1
  Zr  Zr49  1  0.29942851  0.70137466  0.89350217  1
  Sc  Sc50  1  0.89895157  0.50170183  0.50845259  1
  Sc  Sc51  1  0.50145293  0.71363959  0.10756894  1
  Sc  Sc52  1  0.50401613  0.50666096  0.49496796  1
  Sc  Sc53  1  0.29908307  0.10589662  0.09657379  1
  Sc  Sc54  1  0.89567553  0.10502202  0.09998169  1
  Sc  Sc55  1  0.68956050  0.70437432  0.29989365  1
  Sc  Sc56  1  0.29831302  0.70382229  0.29143963  1
  Sc  Sc57  1  0.49890188  0.89986607  0.28447144  1
  Sc  Sc58  1  0.69489117  0.10989383  0.70018960  1
  Sc  Sc59  1  0.69347771  0.49684304  0.69926604  1
  Sc  Sc60  1  0.29179469  0.49516242  0.49074931  1
  Sc  Sc61  1  0.69864045  0.90408861  0.10214641  1
  Sc  Sc62  1  0.09559026  0.29563012  0.30483424  1
  Sc  Sc63  1  0.30013220  0.90353569  0.30400896  1
  Sc  Sc64  1  0.09034938  0.90522877  0.09774060  1
  Sc  Sc65  1  0.51011282  0.10286772  0.30341858  1
  Sc  Sc66  1  0.29492208  0.69814573  0.49610725  1
  Sc  Sc67  1  0.30551076  0.09882055  0.30516478  1
  Sc  Sc68  1  0.49951883  0.69594543  0.30328020  1
  Sc  Sc69  1  0.90322810  0.90628419  0.29398204  1
  Sc  Sc70  1  0.09678867  0.10351576  0.49890001  1
  Sc  Sc71  1  0.29820063  0.50459483  0.10139023  1
  Sc  Sc72  1  0.10184347  0.49131195  0.30659110  1
  Sc  Sc73  1  0.70273254  0.49891346  0.29150137  1
  Sc  Sc74  1  0.70036482  0.50090072  0.88930106  1
  Sc  Sc75  1  0.70612350  0.29149447  0.10316348  1
  Sc  Sc76  1  0.09524260  0.49767516  0.90551200  1
  Sc  Sc77  1  0.89016596  0.50260421  0.69796366  1
  Sc  Sc78  1  0.30764648  0.30141604  0.32045377  1
  Sc  Sc79  1  0.70501750  0.29305635  0.89210538  1
  Sc  Sc80  1  0.69522915  0.29474215  0.51367168  1
  Sc  Sc81  1  0.30853660  0.50347064  0.30258743  1
  Sc  Sc82  1  0.70666510  0.90425353  0.90898423  1
  Sc  Sc83  1  0.69112652  0.69787914  0.50169454  1
  Sc  Sc84  1  0.89815606  0.09966247  0.50231791  1
  Sc  Sc85  1  0.10961747  0.09001263  0.90492024  1
  Sc  Sc86  1  0.48945544  0.29869670  0.89335394  1
  Sc  Sc87  1  0.69749557  0.09707977  0.90028498  1
  Sc  Sc88  1  0.90339749  0.29726753  0.50072702  1
  Sc  Sc89  1  0.50766042  0.90435943  0.09861943  1
  Sc  Sc90  1  0.30712542  0.10067536  0.49070277  1
  Sc  Sc91  1  0.51205824  0.30137737  0.70322619  1
  Sc  Sc92  1  0.09613908  0.50454026  0.09965435  1
  Sc  Sc93  1  0.90568966  0.09815067  0.69667488  1
  Sc  Sc94  1  0.30084092  0.48789007  0.90329095  1
  Sc  Sc95  1  0.30642314  0.89334954  0.70042114  1
  Sc  Sc96  1  0.69737644  0.28565015  0.29064952  1
  Sc  Sc97  1  0.31329282  0.90399177  0.11473208  1
  Sc  Sc98  1  0.50218348  0.49042490  0.89032906  1
  Sc  Sc99  1  0.70473603  0.71239348  0.09743569  1
  Nb  Nb100  1  0.70036362  0.69577432  0.89024548  1
  Nb  Nb101  1  0.30424504  0.30162900  0.50555168  1
  Nb  Nb102  1  0.50376926  0.49423217  0.29769854  1
  Nb  Nb103  1  0.69604372  0.30224140  0.69979803  1
  Nb  Nb104  1  0.50371959  0.30644748  0.29347039  1
  Nb  Nb105  1  0.10149059  0.29778419  0.90225341  1
  Nb  Nb106  1  0.90463897  0.89938820  0.90266797  1
  Nb  Nb107  1  0.69948756  0.10013857  0.10363944  1
  Nb  Nb108  1  0.50384778  0.89733698  0.68668901  1
  Nb  Nb109  1  0.49887428  0.49652200  0.70236405  1
  Nb  Nb110  1  0.69797103  0.69524417  0.70881397  1
  Nb  Nb111  1  0.29468124  0.29841737  0.89560838  1
  Nb  Nb112  1  0.89341001  0.70220316  0.89983070  1
  Nb  Nb113  1  0.09424280  0.49870413  0.49780406  1
  Nb  Nb114  1  0.09659714  0.69945813  0.70416403  1
  Nb  Nb115  1  0.88567152  0.10061960  0.30370311  1
  Nb  Nb116  1  0.09484333  0.70524118  0.30210303  1
  Nb  Nb117  1  0.30003726  0.70292680  0.09605907  1
  Nb  Nb118  1  0.50366458  0.10110922  0.89913854  1
  Nb  Nb119  1  0.09592421  0.89984684  0.90398577  1
  Nb  Nb120  1  0.49599597  0.70327518  0.70109119  1
  Nb  Nb121  1  0.49836989  0.90009447  0.51659267  1
  Nb  Nb122  1  0.50622019  0.30047459  0.10547378  1
  Nb  Nb123  1  0.71055459  0.09597058  0.29180435  1
  Nb  Nb124  1  0.70098331  0.89210652  0.69315196  1
  Nb  Nb125  1  0.40064685  0.59760343  0.60828088  1
  Nb  Nb126  1  0.60397053  0.80191004  0.79159766  1
  Nb  Nb127  1  0.79648090  0.40013527  0.39981448  1
  Nb  Nb128  1  -0.00419104  0.80145244  0.80715453  1
  Nb  Nb129  1  -0.00448733  0.60942497  0.79926738  1
  Nb  Nb130  1  0.40061969  0.40068844  0.60061293  1
  Nb  Nb131  1  0.40229645  0.60148229  0.79642067  1
  Nb  Nb132  1  0.00655422  0.40027561  0.60219190  1
  Nb  Nb133  1  0.59399999  0.19921727  0.00167883  1
  Nb  Nb134  1  0.80353077  0.60136797  0.39712517  1
  Nb  Nb135  1  0.59684011  0.59681593  0.00169596  1
  Nb  Nb136  1  0.20363723  0.80191848  0.00347240  1
  Nb  Nb137  1  0.20221292  0.00042793  0.59764006  1
  Nb  Nb138  1  0.20353704  0.39261644  0.20053618  1
  Nb  Nb139  1  0.59917420  0.39434930  0.00212120  1
  Nb  Nb140  1  0.19485900  0.00501316  0.20434130  1
  Nb  Nb141  1  0.60224723  0.39855026  0.39261639  1
  Nb  Nb142  1  0.40069298  0.20622449  0.59998950  1
  Nb  Nb143  1  0.40765343  0.20890599  0.20074434  1
  Nb  Nb144  1  0.40620448  0.60482694  -0.00282075  1
  Nb  Nb145  1  0.79996872  0.79941437  0.40204456  1
  Nb  Nb146  1  0.39560852  0.79889596  -0.00342736  1
  Nb  Nb147  1  0.00048153  0.60398057  0.40132764  1
  Nb  Nb148  1  0.40710206  0.80569417  0.40728625  1
  Nb  Nb149  1  0.59664892  0.59324627  0.19102125  1
  Pd  Pd150  1  0.00596425  0.18751396  0.80884428  1
  Pd  Pd151  1  -0.00562414  0.00471433  0.19370568  1
  Pd  Pd152  1  0.19718384  0.59050791  0.21027610  1
  Pd  Pd153  1  0.38897853  0.78877791  0.59686239  1
  Pd  Pd154  1  0.59298787  -0.00934099  0.39289107  1
  Pd  Pd155  1  0.40619775  0.60597076  0.19420864  1
  Pd  Pd156  1  0.41448791  -0.00659267  0.39400161  1
  Pd  Pd157  1  0.20216313  0.19684348  0.39989268  1
  Pd  Pd158  1  -0.00608797  0.00733853  0.00503217  1
  Pd  Pd159  1  0.61144986  -0.00715534  0.79379594  1
  Pd  Pd160  1  0.18926213  0.40283295  0.80682566  1
  Pd  Pd161  1  0.01201233  0.39614385  0.19421577  1
  Pd  Pd162  1  0.79018929  0.01118251  0.60611829  1
  Pd  Pd163  1  0.78989514  0.61126620  0.20401173  1
  Pd  Pd164  1  0.80450678  0.39397990  0.59757260  1
  Pd  Pd165  1  0.59596603  0.81155243  0.39452380  1
  Pd  Pd166  1  0.19779511  0.81167721  0.19352023  1
  Pd  Pd167  1  0.20015418  0.00173646  0.79274882  1
  Pd  Pd168  1  0.39472879  -0.00644701  -0.00009468  1
  Pd  Pd169  1  0.20783976  0.59525231  0.59385670  1
  Pd  Pd170  1  0.79900472  0.40080077  0.79952847  1
  Pd  Pd171  1  0.00261122  0.18964426  -0.00905458  1
  Pd  Pd172  1  0.38649535  0.39311526  0.20629917  1
  Pd  Pd173  1  0.20918637  -0.00818832  0.01309383  1
  Pd  Pd174  1  0.40807072  0.20354714  0.00243112  1
  Pd  Pd175  1  0.79181002  0.00054476  0.79537090  1
  Pd  Pd176  1  0.79369553  0.39115209  -0.00804418  1
  Pd  Pd177  1  -0.00349008  0.19808779  0.40534476  1
  Pd  Pd178  1  0.00182746  -0.00014065  0.80205885  1
  Pd  Pd179  1  0.21547449  0.20308939  0.21066855  1
  Pd  Pd180  1  0.79678798  0.80862953  0.80776915  1
  Pd  Pd181  1  0.79779255  0.38986586  0.20427317  1
  Pd  Pd182  1  0.19302193  0.40132734  0.00604280  1
  Pd  Pd183  1  0.60422998  0.20340976  0.39684791  1
  Pd  Pd184  1  0.40201504  0.60515662  0.40536191  1
  Pd  Pd185  1  0.60097469  0.79987849  -0.00615917  1
  Pd  Pd186  1  0.79972126  0.19614027  0.60108112  1
  Pd  Pd187  1  0.20701422  0.59947054  -0.00336517  1
  Pd  Pd188  1  0.59589597  0.59920301  0.60908093  1
  Pd  Pd189  1  0.00545352  0.79316769  0.00133574  1
  Pd  Pd190  1  0.19176827  0.60297690  0.39132380  1
  Pd  Pd191  1  -0.00975688  0.00168646  0.40414073  1
  Pd  Pd192  1  -0.00021652  0.80359155  0.60840003  1
  Pd  Pd193  1  0.39924547  -0.00499804  0.79231163  1
  Pd  Pd194  1  0.00323754  0.41052506  0.79403462  1
  Pd  Pd195  1  0.80050919  0.19544789  0.79648169  1
  Pd  Pd196  1  0.79381333  0.20834871  0.40454120  1
  Pd  Pd197  1  0.79009650  0.60569800  -0.00233558  1
  Pd  Pd198  1  0.20862903  0.79847722  0.39920067  1
  Pd  Pd199  1  -0.00895473  0.79782913  0.40352436  1
  Rh  Rh200  1  0.39711041  0.39625693  0.79395508  1
  Rh  Rh201  1  0.78761167  0.79229647  0.59303130  1
  Rh  Rh202  1  0.39475383  0.00971651  0.60718322  1
  Rh  Rh203  1  0.60696305  0.00631997  0.60800792  1
  Rh  Rh204  1  0.79566837  0.79746032  -0.00650815  1
  Rh  Rh205  1  0.60862465  0.58857383  0.38532965  1
  Rh  Rh206  1  0.61008609  0.40369664  0.19809025  1
  Rh  Rh207  1  0.80614577  0.19918075  0.19791800  1
  Rh  Rh208  1  0.41278360  0.80445907  0.80215216  1
  Rh  Rh209  1  0.18723514  0.80707035  0.80623142  1
  Rh  Rh210  1  0.20155955  0.80674783  0.59664292  1
  Rh  Rh211  1  0.59253286  0.40060011  0.59514220  1
  Rh  Rh212  1  0.40938004  0.19878800  0.39949775  1
  Rh  Rh213  1  -0.00057543  0.20913459  0.59666732  1
  Rh  Rh214  1  0.79149768  0.19683591  -0.00195188  1
  Rh  Rh215  1  0.40948119  0.40665056  0.40572017  1
  Rh  Rh216  1  0.39515099  0.01460596  0.20408226  1
  Rh  Rh217  1  0.79877910  0.80126993  0.20549155  1
  Rh  Rh218  1  0.59405479  0.19776112  0.60192582  1
  Rh  Rh219  1  0.59923010  0.20327946  0.80840508  1
  Rh  Rh220  1  0.60610933  0.79076739  0.60815529  1
  Rh  Rh221  1  -0.00913058  0.19584689  0.20312873  1
  Rh  Rh222  1  0.20213554  0.39925298  0.39527323  1
  Rh  Rh223  1  0.59599200  0.19016618  0.19451912  1
  Rh  Rh224  1  0.80524245  0.59327590  0.79997608  1
  Rh  Rh225  1  -0.00110794  0.59493670  0.60228123  1
  Rh  Rh226  1  0.20315069  0.19911153  -0.00965304  1
  Rh  Rh227  1  0.40256899  0.20664303  0.79235807  1
  Rh  Rh228  1  0.19926332  0.40851648  0.59587606  1
  Rh  Rh229  1  0.80283317  -0.00706075  0.40087547  1
  Rh  Rh230  1  0.40580611  0.40050034  -0.00765358  1
  Rh  Rh231  1  -0.01080315  0.40629257  0.41124668  1
  Rh  Rh232  1  0.19707448  0.59030014  0.80755341  1
  Rh  Rh233  1  0.60200774  0.79799105  0.20081125  1
  Rh  Rh234  1  0.60600073  0.39390790  0.80445574  1
  Rh  Rh235  1  0.01115611  0.59566445  0.21092794  1
  Rh  Rh236  1  0.00082374  0.80366699  0.19080965  1
  Rh  Rh237  1  0.78686764  0.60359089  0.59874798  1
  Rh  Rh238  1  0.20972117  0.18911632  0.58763383  1
  Rh  Rh239  1  -0.00208798  0.60442443  -0.00523284  1
  Rh  Rh240  1  0.80411221  0.00175469  0.19206860  1
  Rh  Rh241  1  0.40007191  0.79674446  0.20337430  1
  Rh  Rh242  1  0.00463476  0.39783726  0.00469593  1
  Rh  Rh243  1  0.19325363  0.00497208  0.39779788  1
  Rh  Rh244  1  0.60462935  0.00968015  0.00313633  1
  Rh  Rh245  1  0.00694162  -0.00157531  0.59641857  1
  Rh  Rh246  1  0.60389656  0.00382348  0.20162616  1
  Rh  Rh247  1  0.80045918  0.00237738  0.00448989  1
  Rh  Rh248  1  0.19208540  0.19664949  0.81039761  1
  Rh  Rh249  1  0.59486975  0.60195557  0.79955077  1
