# generated using pymatgen
data_ZrScNbPdRh
_symmetry_space_group_name_H-M   'P 1'
_cell_length_a   16.55287229
_cell_length_b   16.55275280
_cell_length_c   16.55255961
_cell_angle_alpha   90.00167828
_cell_angle_beta   90.01935108
_cell_angle_gamma   90.04795312
_symmetry_Int_Tables_number   1
_chemical_formula_structural   ZrScNbPdRh
_chemical_formula_sum   'Zr50 Sc50 Nb50 Pd50 Rh50'
_cell_volume   4535.32670758
_cell_formula_units_Z   50
loop_
 _symmetry_equiv_pos_site_id
 _symmetry_equiv_pos_as_xyz
  1  'x, y, z'
loop_
 _atom_site_type_symbol
 _atom_site_label
 _atom_site_symmetry_multiplicity
 _atom_site_fract_x
 _atom_site_fract_y
 _atom_site_fract_z
 _atom_site_occupancy
  Zr  Zr0  1  0.69542507  0.49581689  0.30051229  1
  Zr  Zr1  1  0.90437979  0.69610266  0.10627965  1
  Zr  Zr2  1  0.69597971  0.30049271  0.90000482  1
  Zr  Zr3  1  0.10111662  0.29081132  0.29988452  1
  Zr  Zr4  1  0.09268431  0.29191800  0.09843558  1
  Zr  Zr5  1  0.90320928  0.50934029  0.29183184  1
  Zr  Zr6  1  0.30543433  0.29433632  0.90519193  1
  Zr  Zr7  1  0.89765941  0.49882568  0.89737195  1
  Zr  Zr8  1  0.30005383  0.49929013  0.70275023  1
  Zr  Zr9  1  0.50586663  0.10115248  0.30591601  1
  Zr  Zr10  1  0.69419269  0.29127492  0.29753508  1
  Zr  Zr11  1  0.69795568  0.09821139  0.88840674  1
  Zr  Zr12  1  0.30311228  0.09998916  0.29919825  1
  Zr  Zr13  1  0.69033996  0.70754033  0.69576542  1
  Zr  Zr14  1  0.90128316  0.90595067  0.09844568  1
  Zr  Zr15  1  0.10095019  0.09718528  0.29302321  1
  Zr  Zr16  1  0.51204595  0.90604016  0.28868086  1
  Zr  Zr17  1  0.69243385  0.49832993  0.90403379  1
  Zr  Zr18  1  0.69415294  0.70573529  0.50433029  1
  Zr  Zr19  1  0.09590323  0.30133980  0.89887452  1
  Zr  Zr20  1  0.29954065  0.89157257  0.49916470  1
  Zr  Zr21  1  0.89940515  0.29080992  0.69100485  1
  Zr  Zr22  1  0.90755203  0.70096901  0.90599177  1
  Zr  Zr23  1  0.29575641  0.50014272  0.29443367  1
  Zr  Zr24  1  0.29894952  0.90487999  0.09971941  1
  Zr  Zr25  1  0.69822689  0.09462519  0.49666578  1
  Zr  Zr26  1  0.10229268  0.49601354  0.30186080  1
  Zr  Zr27  1  0.50103623  0.70535006  0.50573342  1
  Zr  Zr28  1  0.49481534  0.69759318  0.89894003  1
  Zr  Zr29  1  0.69637951  0.50534812  0.49695453  1
  Zr  Zr30  1  0.29145395  0.29966741  0.30490106  1
  Zr  Zr31  1  0.49381826  0.29461607  0.09520967  1
  Zr  Zr32  1  0.70048783  0.49865943  0.09958509  1
  Zr  Zr33  1  0.49476262  0.49971684  0.90317408  1
  Zr  Zr34  1  0.10055622  0.89576499  0.50783339  1
  Zr  Zr35  1  0.10495701  0.09892945  0.49496489  1
  Zr  Zr36  1  0.11109644  0.49711987  0.69754149  1
  Zr  Zr37  1  0.50489482  0.50336038  0.49685848  1
  Zr  Zr38  1  0.10163565  0.70003903  0.90290227  1
  Zr  Zr39  1  0.90018504  0.49850068  0.10281170  1
  Zr  Zr40  1  0.50121426  0.49963513  0.08920910  1
  Zr  Zr41  1  0.91017976  0.90257522  0.69934418  1
  Zr  Zr42  1  0.69781028  0.89829920  0.69071252  1
  Zr  Zr43  1  0.69620124  0.90349943  0.11780312  1
  Zr  Zr44  1  0.29057801  0.49059516  0.51143379  1
  Zr  Zr45  1  0.69753598  0.10384313  0.69658438  1
  Zr  Zr46  1  0.51078158  0.09901325  0.70398148  1
  Zr  Zr47  1  0.70264832  0.51040986  0.70102676  1
  Zr  Zr48  1  0.89411515  0.49839408  0.49532515  1
  Zr  Zr49  1  0.49990581  0.49621276  0.29838589  1
  Sc  Sc50  1  0.30209830  0.50539166  0.89451407  1
  Sc  Sc51  1  0.69966610  0.70291475  0.89266733  1
  Sc  Sc52  1  0.69885026  0.29131608  0.70060254  1
  Sc  Sc53  1  0.70785623  0.10300741  0.10717646  1
  Sc  Sc54  1  0.30173524  0.50171907  0.10504441  1
  Sc  Sc55  1  0.49487949  0.70892579  0.29408416  1
  Sc  Sc56  1  0.09859655  0.50408412  0.10414750  1
  Sc  Sc57  1  0.90417015  0.10287588  0.70394971  1
  Sc  Sc58  1  0.90385828  0.90093375  0.89344885  1
  Sc  Sc59  1  0.90121423  0.70308072  0.49740990  1
  Sc  Sc60  1  0.10652140  0.70682438  0.50179926  1
  Sc  Sc61  1  0.29950131  0.70464639  0.70766181  1
  Sc  Sc62  1  0.70154990  0.90314709  0.88952827  1
  Sc  Sc63  1  0.49742059  0.30875119  0.90386202  1
  Sc  Sc64  1  0.10745954  0.90761423  0.10607431  1
  Sc  Sc65  1  0.90340790  0.10260482  0.50624706  1
  Sc  Sc66  1  0.10095820  0.10093897  0.70023228  1
  Sc  Sc67  1  0.91098957  0.09416031  0.30232349  1
  Sc  Sc68  1  0.69932827  0.71951830  0.29687062  1
  Sc  Sc69  1  0.48407343  0.09805343  0.11062522  1
  Sc  Sc70  1  0.30735631  0.09838983  0.50206071  1
  Sc  Sc71  1  0.29930904  0.09500098  0.90689711  1
  Sc  Sc72  1  0.30136201  0.30290277  0.69427151  1
  Sc  Sc73  1  0.89561653  0.90907471  0.49867034  1
  Sc  Sc74  1  0.10596274  0.10661877  0.89254798  1
  Sc  Sc75  1  0.70174702  0.30416935  0.49896445  1
  Sc  Sc76  1  0.10512958  0.70501281  0.70249445  1
  Sc  Sc77  1  0.89970137  0.29713487  0.10096492  1
  Sc  Sc78  1  0.50295830  0.29321399  0.29835805  1
  Sc  Sc79  1  0.89068018  0.69638629  0.70482719  1
  Sc  Sc80  1  0.29526079  0.09855035  0.70346008  1
  Sc  Sc81  1  0.90048794  0.10580214  0.10177793  1
  Sc  Sc82  1  0.70374386  0.29398226  0.10459468  1
  Sc  Sc83  1  0.70039807  0.69971760  0.10435236  1
  Sc  Sc84  1  0.30050205  0.88617138  0.29729962  1
  Sc  Sc85  1  0.49886262  0.29445420  0.50454565  1
  Sc  Sc86  1  0.48759914  0.49642799  0.70552523  1
  Sc  Sc87  1  0.49801536  0.89637701  0.70338518  1
  Sc  Sc88  1  0.50050082  0.10062104  0.49895903  1
  Sc  Sc89  1  0.89504046  0.49975994  0.70452892  1
  Sc  Sc90  1  0.10573716  0.28978383  0.70637492  1
  Sc  Sc91  1  0.49218048  0.90378345  0.49885552  1
  Sc  Sc92  1  0.30237536  0.90780429  0.89405930  1
  Sc  Sc93  1  0.90432402  0.29937453  0.90173465  1
  Sc  Sc94  1  0.11508267  0.29438069  0.49626564  1
  Sc  Sc95  1  0.09711273  0.50276055  0.89551024  1
  Sc  Sc96  1  0.29957009  0.90182423  0.69820899  1
  Sc  Sc97  1  0.30500751  0.28828272  0.10038972  1
  Sc  Sc98  1  0.49859558  0.29945741  0.69918516  1
  Sc  Sc99  1  0.10511435  0.69778194  0.29426019  1
  Nb  Nb100  1  0.70307911  0.90210847  0.48968046  1
  Nb  Nb101  1  0.29578152  0.69960773  0.30035996  1
  Nb  Nb102  1  0.49952027  0.70007461  0.09546949  1
  Nb  Nb103  1  0.09436141  0.89763828  0.90204222  1
  Nb  Nb104  1  0.90158049  0.09155262  0.89892638  1
  Nb  Nb105  1  0.90359992  0.90211280  0.30061204  1
  Nb  Nb106  1  0.09883918  0.49907202  0.49996400  1
  Nb  Nb107  1  0.29516657  0.70514640  0.11249855  1
  Nb  Nb108  1  0.50088116  0.70280515  0.69777489  1
  Nb  Nb109  1  0.30190840  0.29974100  0.50244734  1
  Nb  Nb110  1  0.10757560  0.09450850  0.10200393  1
  Nb  Nb111  1  0.69524355  0.09880575  0.30287988  1
  Nb  Nb112  1  0.49954789  0.90327053  0.90270861  1
  Nb  Nb113  1  0.09871839  0.90090666  0.70535827  1
  Nb  Nb114  1  0.29780683  0.70112811  0.90510246  1
  Nb  Nb115  1  0.90167972  0.70000493  0.29675458  1
  Nb  Nb116  1  0.70683180  0.91622562  0.31104553  1
  Nb  Nb117  1  0.89686798  0.30161550  0.49793933  1
  Nb  Nb118  1  0.10093229  0.70650053  0.09653660  1
  Nb  Nb119  1  0.28718742  0.09562131  0.10055170  1
  Nb  Nb120  1  0.09574529  0.90481808  0.30194265  1
  Nb  Nb121  1  0.50203303  0.09391281  0.89565526  1
  Nb  Nb122  1  0.49937792  0.89631263  0.09925798  1
  Nb  Nb123  1  0.30097562  0.70776942  0.49627187  1
  Nb  Nb124  1  0.90156923  0.29536323  0.30030776  1
  Nb  Nb125  1  0.79869352  0.60560434  0.39257370  1
  Nb  Nb126  1  0.59498222  0.60018377  0.19503671  1
  Nb  Nb127  1  -0.00035181  0.80404359  0.20321971  1
  Nb  Nb128  1  -0.00202453  0.39535676  0.40248517  1
  Nb  Nb129  1  0.59504040  0.18868141  -0.00370522  1
  Nb  Nb130  1  0.59545794  -0.00079300  0.00242268  1
  Nb  Nb131  1  0.19781066  0.39741910  -0.00025661  1
  Nb  Nb132  1  0.39131713  0.60204502  0.40207541  1
  Nb  Nb133  1  0.20310285  0.79797836  -0.00029120  1
  Nb  Nb134  1  0.19932258  -0.00766382  0.39851629  1
  Nb  Nb135  1  -0.00146992  0.80376069  0.39110961  1
  Nb  Nb136  1  0.00423784  0.59278376  0.59624863  1
  Nb  Nb137  1  0.80185868  0.60320184  0.00022793  1
  Nb  Nb138  1  0.59295432  0.60248608  0.79888483  1
  Nb  Nb139  1  0.39633252  0.60660703  0.59515036  1
  Nb  Nb140  1  0.39853018  0.79807370  0.00320856  1
  Nb  Nb141  1  0.00541665  0.00436637  -0.00335663  1
  Nb  Nb142  1  0.39456134  0.40257779  0.40306013  1
  Nb  Nb143  1  0.79927649  0.80179993  0.00301021  1
  Nb  Nb144  1  0.20635761  0.60121645  0.40385813  1
  Nb  Nb145  1  0.80314203  0.20058683  0.39716966  1
  Nb  Nb146  1  0.40495754  0.19350281  0.80542429  1
  Nb  Nb147  1  0.59688650  0.80588535  0.00182800  1
  Nb  Nb148  1  0.00109288  0.39960415  0.59215844  1
  Nb  Nb149  1  0.60212057  0.40663626  0.60039236  1
  Pd  Pd150  1  0.80597204  0.00891486  0.20817859  1
  Pd  Pd151  1  0.40769257  0.80261564  0.39270649  1
  Pd  Pd152  1  0.80797071  0.20111091  0.80582270  1
  Pd  Pd153  1  0.40243233  0.00079214  0.00187084  1
  Pd  Pd154  1  0.80323012  0.39924897  0.38881562  1
  Pd  Pd155  1  0.80219725  0.39883054  0.00174581  1
  Pd  Pd156  1  0.39996515  0.39107533  0.20354704  1
  Pd  Pd157  1  -0.00348817  0.79116969  0.59919186  1
  Pd  Pd158  1  0.39863896  0.80255479  0.80364839  1
  Pd  Pd159  1  0.20424955  0.59716521  0.00398489  1
  Pd  Pd160  1  0.80661536  0.79901798  0.40081840  1
  Pd  Pd161  1  0.01010269  0.20578705  0.59443713  1
  Pd  Pd162  1  -0.00101272  0.18893237  -0.00443632  1
  Pd  Pd163  1  0.80649830  0.60663221  0.59260030  1
  Pd  Pd164  1  0.80189656  -0.00243107  0.78807491  1
  Pd  Pd165  1  0.38645704  0.60397866  0.00572899  1
  Pd  Pd166  1  0.59571303  0.39843889  0.19208064  1
  Pd  Pd167  1  0.59516790  0.80803530  0.40087310  1
  Pd  Pd168  1  -0.00352548  0.20253674  0.40470111  1
  Pd  Pd169  1  0.19784811  0.20159261  -0.00011164  1
  Pd  Pd170  1  0.00278903  0.00495541  0.60177757  1
  Pd  Pd171  1  0.80388691  0.00406793  0.60451465  1
  Pd  Pd172  1  0.00012959  0.59198565  0.00219933  1
  Pd  Pd173  1  0.59519965  -0.00546035  0.59333310  1
  Pd  Pd174  1  0.39918541  0.19325276  0.60951567  1
  Pd  Pd175  1  -0.00252655  0.39600003  0.78804127  1
  Pd  Pd176  1  -0.00072072  0.79369817  0.79452624  1
  Pd  Pd177  1  0.20129040  -0.00044108  0.59722773  1
  Pd  Pd178  1  0.00073489  0.39524358  0.20367781  1
  Pd  Pd179  1  0.20125646  0.80643591  0.80524254  1
  Pd  Pd180  1  0.80400396  0.80270911  0.80309202  1
  Pd  Pd181  1  0.20634142  0.39566311  0.80781619  1
  Pd  Pd182  1  0.80603215  0.80429911  0.19931446  1
  Pd  Pd183  1  0.80720262  0.80256924  0.59582076  1
  Pd  Pd184  1  0.19600614  -0.00073212  0.80176745  1
  Pd  Pd185  1  0.40108333  0.00188912  0.60590641  1
  Pd  Pd186  1  0.80023382  0.39265335  0.79459029  1
  Pd  Pd187  1  0.79732234  -0.00353052  -0.00273436  1
  Pd  Pd188  1  0.80097472  0.39378689  0.20356079  1
  Pd  Pd189  1  0.79554277  0.19646716  -0.00692661  1
  Pd  Pd190  1  0.00373837  0.60196167  0.78902121  1
  Pd  Pd191  1  0.20169805  0.61176651  0.59845135  1
  Pd  Pd192  1  0.59748741  0.40356810  0.79028207  1
  Pd  Pd193  1  0.00433583  0.60590664  0.40461897  1
  Pd  Pd194  1  0.39519909  -0.00418091  0.20587419  1
  Pd  Pd195  1  0.40451564  0.60472043  0.20141640  1
  Pd  Pd196  1  0.79588434  0.39751871  0.60766070  1
  Pd  Pd197  1  0.40006638  0.20665769  0.40024866  1
  Pd  Pd198  1  0.60162410  0.61457415  0.38443605  1
  Pd  Pd199  1  0.19805043  0.39189646  0.18639657  1
  Rh  Rh200  1  0.39503516  0.19868157  0.20503591  1
  Rh  Rh201  1  0.19187362  0.80131649  0.19798232  1
  Rh  Rh202  1  0.78521193  0.60148410  0.20503847  1
  Rh  Rh203  1  0.60273783  0.38374656  0.00862766  1
  Rh  Rh204  1  0.79156999  0.60101495  0.81057326  1
  Rh  Rh205  1  0.40078510  0.60808215  0.79244858  1
  Rh  Rh206  1  0.39447742  0.38889570  0.80272486  1
  Rh  Rh207  1  0.18995574  0.79941752  0.39422886  1
  Rh  Rh208  1  0.00553634  -0.00583705  0.40953518  1
  Rh  Rh209  1  0.60427186  0.20719777  0.59508091  1
  Rh  Rh210  1  -0.00495588  0.19769581  0.80441303  1
  Rh  Rh211  1  0.20158214  0.20026360  0.19584681  1
  Rh  Rh212  1  0.18981195  0.38679145  0.60371343  1
  Rh  Rh213  1  0.59446636  0.79809821  0.80358688  1
  Rh  Rh214  1  0.20959347  0.18724771  0.40437827  1
  Rh  Rh215  1  0.01123628  0.60695969  0.19738365  1
  Rh  Rh216  1  0.00729110  0.00317834  0.80530201  1
  Rh  Rh217  1  0.59440965  -0.00474931  0.40430463  1
  Rh  Rh218  1  0.40267199  0.00519223  0.79383204  1
  Rh  Rh219  1  0.00495889  0.81343768  0.01064901  1
  Rh  Rh220  1  0.60026408  0.01199488  0.19546062  1
  Rh  Rh221  1  0.19626400  0.60291861  0.20116487  1
  Rh  Rh222  1  0.00640959  0.40369823  0.00218080  1
  Rh  Rh223  1  0.40925887  0.40467447  0.59246580  1
  Rh  Rh224  1  0.59670351  0.79401269  0.19434064  1
  Rh  Rh225  1  -0.00047861  -0.00005521  0.18981851  1
  Rh  Rh226  1  0.58999331  0.20977987  0.80843716  1
  Rh  Rh227  1  0.20745237  -0.00333212  0.21081692  1
  Rh  Rh228  1  0.38668336  0.40786907  -0.00006780  1
  Rh  Rh229  1  0.80614154  0.01124346  0.39751104  1
  Rh  Rh230  1  0.79434097  0.19587257  0.58958351  1
  Rh  Rh231  1  0.39347144  -0.00733237  0.39339149  1
  Rh  Rh232  1  0.20606474  0.19874315  0.59997247  1
  Rh  Rh233  1  0.21244627  0.20092384  0.79935232  1
  Rh  Rh234  1  0.59657904  0.81434444  0.59233767  1
  Rh  Rh235  1  0.40084737  0.79990905  0.19569417  1
  Rh  Rh236  1  0.39697819  0.79729556  0.60584156  1
  Rh  Rh237  1  0.58995919  0.38726912  0.40876554  1
  Rh  Rh238  1  0.40571304  0.18514531  -0.00491660  1
  Rh  Rh239  1  0.60696119  0.20075416  0.40647874  1
  Rh  Rh240  1  0.20329537  0.80160422  0.61050957  1
  Rh  Rh241  1  0.59921403  -0.01216800  0.79877019  1
  Rh  Rh242  1  0.80587294  0.19562960  0.21323087  1
  Rh  Rh243  1  0.20035903  0.60303354  0.80253638  1
  Rh  Rh244  1  0.61051477  0.61168139  -0.00195057  1
  Rh  Rh245  1  0.58706580  0.59144653  0.61465340  1
  Rh  Rh246  1  0.19165268  -0.00549682  -0.00749963  1
  Rh  Rh247  1  0.59674524  0.19312968  0.18931137  1
  Rh  Rh248  1  -0.00120123  0.19486851  0.19706855  1
  Rh  Rh249  1  0.19988024  0.40261006  0.40243430  1
