# generated using pymatgen
data_ZrScNbPdRh
_symmetry_space_group_name_H-M   'P 1'
_cell_length_a   16.57234632
_cell_length_b   16.56662776
_cell_length_c   16.56433854
_cell_angle_alpha   89.99095866
_cell_angle_beta   90.00317348
_cell_angle_gamma   89.95021332
_symmetry_Int_Tables_number   1
_chemical_formula_structural   ZrScNbPdRh
_chemical_formula_sum   'Zr50 Sc50 Nb50 Pd50 Rh50'
_cell_volume   4547.70245739
_cell_formula_units_Z   50
loop_
 _symmetry_equiv_pos_site_id
 _symmetry_equiv_pos_as_xyz
  1  'x, y, z'
loop_
 _atom_site_type_symbol
 _atom_site_label
 _atom_site_symmetry_multiplicity
 _atom_site_fract_x
 _atom_site_fract_y
 _atom_site_fract_z
 _atom_site_occupancy
  Zr  Zr0  1  0.50543732  0.88945609  0.29642695  1
  Zr  Zr1  1  0.70733757  0.49082134  0.09021366  1
  Zr  Zr2  1  0.50133061  0.11200566  0.50808516  1
  Zr  Zr3  1  0.30475580  0.10010148  0.29471298  1
  Zr  Zr4  1  0.50487493  0.69331106  0.49890481  1
  Zr  Zr5  1  0.69613624  0.29831039  0.28637908  1
  Zr  Zr6  1  0.50228665  0.50499048  0.30170484  1
  Zr  Zr7  1  0.30205845  0.68892816  0.50874819  1
  Zr  Zr8  1  0.88734885  0.70430755  0.90117042  1
  Zr  Zr9  1  0.09320453  0.90073664  0.49590506  1
  Zr  Zr10  1  0.70215206  0.10219974  0.50103602  1
  Zr  Zr11  1  0.50472028  0.89796724  0.89576517  1
  Zr  Zr12  1  0.10209279  0.30265824  0.09856234  1
  Zr  Zr13  1  0.71125380  0.08807886  0.90724893  1
  Zr  Zr14  1  0.89073479  0.29810481  0.50628092  1
  Zr  Zr15  1  0.89970980  0.09627107  0.50421928  1
  Zr  Zr16  1  0.30263478  0.50623006  0.09930673  1
  Zr  Zr17  1  0.09743766  0.49691503  0.30476126  1
  Zr  Zr18  1  0.09434209  0.70010780  0.89985077  1
  Zr  Zr19  1  0.90008960  0.89765976  0.49757878  1
  Zr  Zr20  1  0.90034795  0.30577619  0.30242228  1
  Zr  Zr21  1  0.30542969  0.10720306  0.50036837  1
  Zr  Zr22  1  0.50703725  0.09722519  0.70039128  1
  Zr  Zr23  1  0.30023866  0.90429211  0.90116316  1
  Zr  Zr24  1  0.70237941  0.89233381  0.89989524  1
  Zr  Zr25  1  0.10727765  0.69732651  0.70222874  1
  Zr  Zr26  1  0.90565607  0.89604002  0.10432687  1
  Zr  Zr27  1  0.30048833  0.10881497  0.90335550  1
  Zr  Zr28  1  0.10508236  0.89941728  0.70904723  1
  Zr  Zr29  1  0.69126858  0.90666723  0.70079338  1
  Zr  Zr30  1  0.30006259  0.69931529  0.09694566  1
  Zr  Zr31  1  0.09535897  0.08737123  0.10289119  1
  Zr  Zr32  1  0.89570522  0.70185798  0.49472669  1
  Zr  Zr33  1  0.51161930  0.49729684  0.49389747  1
  Zr  Zr34  1  0.50149410  0.29730684  0.10485569  1
  Zr  Zr35  1  0.89978590  0.90408184  0.71124933  1
  Zr  Zr36  1  0.49914765  0.89751802  0.70450892  1
  Zr  Zr37  1  0.51015017  0.89423170  0.50768383  1
  Zr  Zr38  1  0.10558795  0.70249815  0.48793022  1
  Zr  Zr39  1  0.49504635  0.89896539  0.10227332  1
  Zr  Zr40  1  0.70398485  0.70094183  0.29516065  1
  Zr  Zr41  1  0.30325491  0.89900222  0.29637467  1
  Zr  Zr42  1  0.90502410  0.49911590  0.70499097  1
  Zr  Zr43  1  0.30263459  0.88968035  0.70346805  1
  Zr  Zr44  1  0.89765879  0.29689655  0.70481311  1
  Zr  Zr45  1  0.70291678  0.88573750  0.49625790  1
  Zr  Zr46  1  0.30557667  0.30063297  0.30178153  1
  Zr  Zr47  1  0.10038558  0.90071139  0.90258781  1
  Zr  Zr48  1  0.09189178  0.70526913  0.09481623  1
  Zr  Zr49  1  0.50341124  0.69981026  0.89836041  1
  Sc  Sc50  1  0.09637914  0.50060077  0.70119741  1
  Sc  Sc51  1  0.50394890  0.29770742  0.69685684  1
  Sc  Sc52  1  0.10324458  0.50023206  0.89415409  1
  Sc  Sc53  1  0.08683498  0.89985563  0.29456302  1
  Sc  Sc54  1  0.69956447  0.10457260  0.69858892  1
  Sc  Sc55  1  0.29714407  0.69788747  0.90801903  1
  Sc  Sc56  1  0.09953723  0.30684647  0.71145063  1
  Sc  Sc57  1  0.09812257  0.09564673  0.71355489  1
  Sc  Sc58  1  0.09540739  0.10717617  0.90040460  1
  Sc  Sc59  1  0.90242740  0.69818372  0.29067305  1
  Sc  Sc60  1  0.09848359  0.31660460  0.50032074  1
  Sc  Sc61  1  0.48621754  0.29737455  0.89610208  1
  Sc  Sc62  1  0.49151882  0.09628756  0.90282720  1
  Sc  Sc63  1  0.69384472  0.89971334  0.09473056  1
  Sc  Sc64  1  0.31208606  0.29956212  0.49702796  1
  Sc  Sc65  1  0.69953381  0.49936589  0.69988390  1
  Sc  Sc66  1  0.69549214  0.89194317  0.29365623  1
  Sc  Sc67  1  0.29523582  0.29753360  0.09256120  1
  Sc  Sc68  1  0.88621720  0.30412927  0.09900795  1
  Sc  Sc69  1  0.30077864  0.10684826  0.70954058  1
  Sc  Sc70  1  0.51332290  0.50102231  0.70262635  1
  Sc  Sc71  1  0.89587881  0.09921049  0.08515544  1
  Sc  Sc72  1  0.89383905  0.88955026  0.30195647  1
  Sc  Sc73  1  0.70479421  0.30193619  0.69817595  1
  Sc  Sc74  1  0.90176737  0.29024768  0.89355838  1
  Sc  Sc75  1  0.29697106  0.88144734  0.49622872  1
  Sc  Sc76  1  0.09971579  0.49932221  0.10163340  1
  Sc  Sc77  1  0.28997511  0.50233648  0.69524714  1
  Sc  Sc78  1  0.90098959  0.69624524  0.10076131  1
  Sc  Sc79  1  0.70541958  0.69355308  0.70281382  1
  Sc  Sc80  1  0.69412814  0.50621207  0.29431596  1
  Sc  Sc81  1  0.49996972  0.70245991  0.69671779  1
  Sc  Sc82  1  0.90556385  0.50709470  0.50205478  1
  Sc  Sc83  1  0.89888415  0.50233055  0.89556128  1
  Sc  Sc84  1  0.88839871  0.10117435  0.30966120  1
  Sc  Sc85  1  0.69980124  0.50854907  0.89818810  1
  Sc  Sc86  1  0.30190909  0.50378446  0.30838113  1
  Sc  Sc87  1  0.49333787  0.09897910  0.10037183  1
  Sc  Sc88  1  0.49550329  0.10276612  0.28354421  1
  Sc  Sc89  1  0.69249660  0.30372380  0.50906933  1
  Sc  Sc90  1  0.30216622  0.70151535  0.31517032  1
  Sc  Sc91  1  0.89953981  0.69282912  0.70521882  1
  Sc  Sc92  1  0.30373486  0.29910943  0.70631957  1
  Sc  Sc93  1  0.49293219  0.69829508  0.10124810  1
  Sc  Sc94  1  0.90435047  0.50774380  0.29352530  1
  Sc  Sc95  1  0.10775312  0.50798324  0.50292605  1
  Sc  Sc96  1  0.71010512  0.31103627  0.90504734  1
  Sc  Sc97  1  0.50325254  0.51062513  0.09974603  1
  Sc  Sc98  1  0.29197335  0.29749953  0.89872888  1
  Sc  Sc99  1  0.50951012  0.50133317  0.89774997  1
  Nb  Nb100  1  0.69303781  0.09959188  0.29597513  1
  Nb  Nb101  1  0.30587903  0.49980577  0.90425148  1
  Nb  Nb102  1  0.70355014  0.69954532  0.90356649  1
  Nb  Nb103  1  0.88671909  0.91188793  0.89905575  1
  Nb  Nb104  1  0.30245748  0.09591797  0.10581470  1
  Nb  Nb105  1  0.89799838  0.09554360  0.88611992  1
  Nb  Nb106  1  0.30771090  0.50346347  0.50101470  1
  Nb  Nb107  1  0.10218960  0.89763704  0.09826574  1
  Nb  Nb108  1  0.49754300  0.30500740  0.30524195  1
  Nb  Nb109  1  0.30708401  0.69988416  0.69918267  1
  Nb  Nb110  1  0.09937359  0.10315907  0.30166911  1
  Nb  Nb111  1  0.10103090  0.30252504  0.29859900  1
  Nb  Nb112  1  0.09953369  0.30231052  0.90554467  1
  Nb  Nb113  1  0.09886678  0.69708656  0.29785492  1
  Nb  Nb114  1  0.09787484  0.09685319  0.50086180  1
  Nb  Nb115  1  0.69818197  0.29628569  0.09790423  1
  Nb  Nb116  1  0.28985547  0.90375714  0.09917986  1
  Nb  Nb117  1  0.71665702  0.69803708  0.09132096  1
  Nb  Nb118  1  0.50238902  0.69417958  0.29719039  1
  Nb  Nb119  1  0.90056021  0.50205061  0.09776964  1
  Nb  Nb120  1  0.69529171  0.50314574  0.49460423  1
  Nb  Nb121  1  0.90041769  0.10296791  0.70868200  1
  Nb  Nb122  1  0.69527372  0.10495179  0.10682482  1
  Nb  Nb123  1  0.49944084  0.30270699  0.49521466  1
  Nb  Nb124  1  0.70211947  0.69094103  0.49762688  1
  Nb  Nb125  1  0.40223037  0.40197960  0.19930095  1
  Nb  Nb126  1  0.19547189  0.80013621  0.19448932  1
  Nb  Nb127  1  0.40522658  0.40487470  0.59394484  1
  Nb  Nb128  1  0.60505563  0.19805756  0.81251443  1
  Nb  Nb129  1  0.40547400  -0.00211136  0.40443205  1
  Nb  Nb130  1  0.39590579  0.60028270  0.79905446  1
  Nb  Nb131  1  0.19686182  0.60778504  0.20395342  1
  Nb  Nb132  1  0.19462936  0.19694326  0.20318853  1
  Nb  Nb133  1  0.59711944  0.00572191  0.39737270  1
  Nb  Nb134  1  0.79093090  0.00475051  0.19783873  1
  Nb  Nb135  1  0.00657139  0.20237143  0.40201148  1
  Nb  Nb136  1  0.20058599  0.00450610  0.40165796  1
  Nb  Nb137  1  0.00022793  0.80128864  0.60217152  1
  Nb  Nb138  1  0.59695290  0.20185532  0.39320174  1
  Nb  Nb139  1  0.79348355  0.40506503  0.40179459  1
  Nb  Nb140  1  0.20274635  0.00269734  0.59650917  1
  Nb  Nb141  1  0.00297993  0.20168849  0.20575198  1
  Nb  Nb142  1  0.19172802  0.19724136  0.59546935  1
  Nb  Nb143  1  0.60608908  0.20166192  0.00198250  1
  Nb  Nb144  1  0.19122041  0.19970372  0.39958378  1
  Nb  Nb145  1  0.39808350  0.40558259  0.00200962  1
  Nb  Nb146  1  0.00015315  0.39677713  -0.00231168  1
  Nb  Nb147  1  0.80354654  -0.00201395  0.60122188  1
  Nb  Nb148  1  0.39589210  -0.00389759  0.59745337  1
  Nb  Nb149  1  0.00375668  0.19710733  0.59997206  1
  Pd  Pd150  1  0.60931214  0.60605840  0.18717270  1
  Pd  Pd151  1  -0.00993804  0.80627141  -0.00893324  1
  Pd  Pd152  1  0.79942416  0.40909370  0.20600957  1
  Pd  Pd153  1  0.20279992  0.40193386  0.80273216  1
  Pd  Pd154  1  0.19211415  0.59548020  0.00260064  1
  Pd  Pd155  1  0.00549153  0.60913421  0.59814398  1
  Pd  Pd156  1  0.80222923  0.59480063  0.39343942  1
  Pd  Pd157  1  0.59466148  0.40604908  0.19574177  1
  Pd  Pd158  1  -0.00699561  0.79772919  0.80133519  1
  Pd  Pd159  1  0.19861497  0.00862956  -0.00573226  1
  Pd  Pd160  1  0.79822516  0.59330561  0.60111541  1
  Pd  Pd161  1  0.40889705  0.79733105  0.40537615  1
  Pd  Pd162  1  0.20750190  0.79315341  0.80918905  1
  Pd  Pd163  1  -0.00466535  -0.00272394  -0.00832442  1
  Pd  Pd164  1  0.40865356  0.58929485  0.61001712  1
  Pd  Pd165  1  0.79841345  0.20130769  -0.00536044  1
  Pd  Pd166  1  0.39899197  0.41042386  0.79577958  1
  Pd  Pd167  1  0.39174208  0.79312451  0.19956783  1
  Pd  Pd168  1  0.19666352  0.19027354  0.00815481  1
  Pd  Pd169  1  0.59525318  0.00642583  0.00098595  1
  Pd  Pd170  1  0.20693979  0.60004760  0.80217174  1
  Pd  Pd171  1  0.39601953  0.00308072  0.79520516  1
  Pd  Pd172  1  0.60708684  0.79107448  0.79440297  1
  Pd  Pd173  1  0.78834131  -0.00810363  0.39579970  1
  Pd  Pd174  1  0.19649380  -0.00353111  0.20691699  1
  Pd  Pd175  1  -0.00487298  0.39798868  0.19059676  1
  Pd  Pd176  1  -0.00106585  0.39650268  0.60288071  1
  Pd  Pd177  1  0.19462540  0.80056565  0.59986041  1
  Pd  Pd178  1  -0.01758416  0.00850895  0.20806982  1
  Pd  Pd179  1  0.39807722  -0.00152986  0.00464732  1
  Pd  Pd180  1  0.60425949  0.60630661  0.00501828  1
  Pd  Pd181  1  0.80910235  0.19250621  0.19796812  1
  Pd  Pd182  1  0.00072410  -0.00087146  0.61251200  1
  Pd  Pd183  1  -0.00850566  0.40303579  0.40689734  1
  Pd  Pd184  1  0.79016650  0.21158871  0.39858444  1
  Pd  Pd185  1  -0.00537263  0.20588283  0.00492429  1
  Pd  Pd186  1  -0.00365653  0.59122508  -0.00479194  1
  Pd  Pd187  1  0.60763708  0.78680800  0.60612506  1
  Pd  Pd188  1  0.60340638  0.38897689  0.80400010  1
  Pd  Pd189  1  0.80033342  0.40449212  0.80332434  1
  Pd  Pd190  1  0.79788794  0.41281730  0.59473859  1
  Pd  Pd191  1  0.21102841  0.39202753  0.59677595  1
  Pd  Pd192  1  0.80602976  0.80183965  0.61084861  1
  Pd  Pd193  1  0.60527499  0.78763542  0.18673544  1
  Pd  Pd194  1  0.39815689  0.80345173  -0.00313810  1
  Pd  Pd195  1  -0.00263701  0.00367519  0.38930173  1
  Pd  Pd196  1  0.59986975  0.79099657  0.00739283  1
  Pd  Pd197  1  0.20795261  0.39954157  0.40759690  1
  Pd  Pd198  1  0.20962663  0.40438312  0.20143440  1
  Pd  Pd199  1  0.59131366  0.39191208  -0.00628656  1
  Rh  Rh200  1  -0.00324328  0.79231689  0.39914634  1
  Rh  Rh201  1  0.60307721  0.00728891  0.81077479  1
  Rh  Rh202  1  0.39167434  0.60136616  0.21099617  1
  Rh  Rh203  1  0.39228525  0.21150867  0.19344439  1
  Rh  Rh204  1  0.79949974  0.59539187  0.19176126  1
  Rh  Rh205  1  -0.00010962  0.39840203  0.80911743  1
  Rh  Rh206  1  0.39639628  0.78979489  0.80851518  1
  Rh  Rh207  1  0.60432106  0.60860519  0.39488109  1
  Rh  Rh208  1  0.20383160  0.00325436  0.80308061  1
  Rh  Rh209  1  0.80370191  0.59406948  -0.00121953  1
  Rh  Rh210  1  0.60182373  0.79232092  0.39806989  1
  Rh  Rh211  1  0.41015246  0.59440420  -0.01283038  1
  Rh  Rh212  1  0.59839442  0.60684013  0.79883755  1
  Rh  Rh213  1  0.39669716  0.20840187  0.60986612  1
  Rh  Rh214  1  0.81152418  0.40400167  -0.00557209  1
  Rh  Rh215  1  0.80593777  0.19158600  0.60770341  1
  Rh  Rh216  1  0.40325018  -0.00795158  0.19915614  1
  Rh  Rh217  1  0.00372279  0.79620641  0.20106107  1
  Rh  Rh218  1  0.79553888  0.79868094  0.79791817  1
  Rh  Rh219  1  0.79870767  0.79189486  0.39370030  1
  Rh  Rh220  1  0.19856689  0.60080695  0.60110260  1
  Rh  Rh221  1  0.79727940  0.80600680  0.19193338  1
  Rh  Rh222  1  0.61026887  0.39081270  0.39594048  1
  Rh  Rh223  1  0.00666896  0.59809409  0.19791011  1
  Rh  Rh224  1  0.59621886  0.40069874  0.60021408  1
  Rh  Rh225  1  0.79068395  0.19802529  0.80289097  1
  Rh  Rh226  1  0.00037592  0.60142167  0.39817866  1
  Rh  Rh227  1  0.60125384  0.20721267  0.60325349  1
  Rh  Rh228  1  0.59488449  0.20025848  0.19839282  1
  Rh  Rh229  1  0.60707983  0.60111055  0.60086924  1
  Rh  Rh230  1  0.80016883  -0.00676005  0.01273907  1
  Rh  Rh231  1  0.40145416  0.80113780  0.59612675  1
  Rh  Rh232  1  0.19320663  0.20386088  0.79740207  1
  Rh  Rh233  1  0.18961529  0.81109044  0.38431559  1
  Rh  Rh234  1  0.19992275  0.40577418  -0.00766397  1
  Rh  Rh235  1  0.20126330  0.80223324  0.00213729  1
  Rh  Rh236  1  0.40952198  0.19612358  0.79695414  1
  Rh  Rh237  1  0.40055005  0.20488999  0.00475584  1
  Rh  Rh238  1  0.80348168  0.80642029  0.00359538  1
  Rh  Rh239  1  0.40984322  0.19331173  0.39212496  1
  Rh  Rh240  1  0.79708183  0.59735199  0.80152413  1
  Rh  Rh241  1  0.60522972  -0.00006373  0.59081408  1
  Rh  Rh242  1  -0.00056459  0.60263070  0.80377057  1
  Rh  Rh243  1  0.19910080  0.59429010  0.39668486  1
  Rh  Rh244  1  0.40479700  0.60123198  0.40077165  1
  Rh  Rh245  1  0.79163024  0.00361107  0.78963038  1
  Rh  Rh246  1  0.00352777  -0.00027185  0.80896012  1
  Rh  Rh247  1  0.00395593  0.20350551  0.79672611  1
  Rh  Rh248  1  0.60104367  -0.00221082  0.20124864  1
  Rh  Rh249  1  0.40085086  0.40929580  0.40160894  1
