# generated using pymatgen
data_ZrScNbPdRh
_symmetry_space_group_name_H-M   'P 1'
_cell_length_a   16.55779806
_cell_length_b   16.55767543
_cell_length_c   16.55597764
_cell_angle_alpha   90.00341963
_cell_angle_beta   90.00550287
_cell_angle_gamma   90.01199212
_symmetry_Int_Tables_number   1
_chemical_formula_structural   ZrScNbPdRh
_chemical_formula_sum   'Zr50 Sc50 Nb50 Pd50 Rh50'
_cell_volume   4538.96428710
_cell_formula_units_Z   50
loop_
 _symmetry_equiv_pos_site_id
 _symmetry_equiv_pos_as_xyz
  1  'x, y, z'
loop_
 _atom_site_type_symbol
 _atom_site_label
 _atom_site_symmetry_multiplicity
 _atom_site_fract_x
 _atom_site_fract_y
 _atom_site_fract_z
 _atom_site_occupancy
  Zr  Zr0  1  0.10695385  0.49492775  0.50154332  1
  Zr  Zr1  1  0.30189957  0.49911214  0.50266197  1
  Zr  Zr2  1  0.09849467  0.09828103  0.90279549  1
  Zr  Zr3  1  0.68688397  0.89328441  0.90862996  1
  Zr  Zr4  1  0.90777547  0.29856405  0.29697702  1
  Zr  Zr5  1  0.70046156  0.69002699  0.70656136  1
  Zr  Zr6  1  0.29677702  0.30672357  0.70438821  1
  Zr  Zr7  1  0.70111995  0.10188505  0.50786404  1
  Zr  Zr8  1  0.29968971  0.90033979  0.70108117  1
  Zr  Zr9  1  0.10353826  0.91112701  0.69785940  1
  Zr  Zr10  1  0.30754859  0.89664710  0.09529118  1
  Zr  Zr11  1  0.49604831  0.30307805  0.71088293  1
  Zr  Zr12  1  0.10447522  0.70300771  0.49629397  1
  Zr  Zr13  1  0.29538129  0.09991165  0.90833856  1
  Zr  Zr14  1  0.09452628  0.30372873  0.09749479  1
  Zr  Zr15  1  0.31340359  0.29842943  0.29601351  1
  Zr  Zr16  1  0.29901897  0.10714915  0.49873007  1
  Zr  Zr17  1  0.90448378  0.50101799  0.29523507  1
  Zr  Zr18  1  0.69583892  0.69615411  0.89878280  1
  Zr  Zr19  1  0.29481546  0.69077447  0.09771783  1
  Zr  Zr20  1  0.69846078  0.69684888  0.50399893  1
  Zr  Zr21  1  0.69654654  0.89816175  0.29061374  1
  Zr  Zr22  1  0.09702786  0.10494833  0.50056729  1
  Zr  Zr23  1  0.69955138  0.69761813  0.10263091  1
  Zr  Zr24  1  0.09400723  0.30292411  0.50567434  1
  Zr  Zr25  1  0.69649357  0.30268461  0.50177435  1
  Zr  Zr26  1  0.70052044  0.50201489  0.89204669  1
  Zr  Zr27  1  0.49092705  0.11337415  0.30816263  1
  Zr  Zr28  1  0.30336399  0.69778165  0.49618745  1
  Zr  Zr29  1  0.10460293  0.70019679  0.70131002  1
  Zr  Zr30  1  0.69585776  0.70007997  0.30023177  1
  Zr  Zr31  1  0.30075112  0.50289849  0.30253207  1
  Zr  Zr32  1  0.09710490  0.29508991  0.89305892  1
  Zr  Zr33  1  0.30690752  0.29984765  0.90281217  1
  Zr  Zr34  1  0.69707242  0.10027391  0.29834461  1
  Zr  Zr35  1  0.50376429  0.69500454  0.89675914  1
  Zr  Zr36  1  0.30320878  0.49763784  0.90103087  1
  Zr  Zr37  1  0.89896091  0.70010768  0.50324496  1
  Zr  Zr38  1  0.69879750  0.09667096  0.70231559  1
  Zr  Zr39  1  0.48900788  0.30099907  0.09971209  1
  Zr  Zr40  1  0.29863281  0.70075031  0.90577286  1
  Zr  Zr41  1  0.49676396  0.89704515  0.70493159  1
  Zr  Zr42  1  0.10256002  0.90631977  0.29769700  1
  Zr  Zr43  1  0.49396506  0.49588793  0.29939913  1
  Zr  Zr44  1  0.10106195  0.50473387  0.10234113  1
  Zr  Zr45  1  0.50350427  0.90111846  0.29692671  1
  Zr  Zr46  1  0.11272043  0.90167216  0.89527464  1
  Zr  Zr47  1  0.50353354  0.09986810  0.09873029  1
  Zr  Zr48  1  0.29295237  0.10157680  0.29605151  1
  Zr  Zr49  1  0.09598611  0.10507527  0.30154139  1
  Sc  Sc50  1  0.70369690  0.09780854  0.10474713  1
  Sc  Sc51  1  0.49544918  0.30286966  0.48960332  1
  Sc  Sc52  1  0.10939538  0.10614009  0.09672080  1
  Sc  Sc53  1  0.49860290  0.50679664  0.10000954  1
  Sc  Sc54  1  0.10092190  0.70813831  0.29445169  1
  Sc  Sc55  1  0.69251294  0.89873439  0.70073826  1
  Sc  Sc56  1  0.90064244  0.69913234  0.28787634  1
  Sc  Sc57  1  0.70724365  0.30718211  0.89735411  1
  Sc  Sc58  1  0.29257698  0.10508831  0.69413907  1
  Sc  Sc59  1  0.50293171  0.09486941  0.89770193  1
  Sc  Sc60  1  0.69568403  0.49648383  0.51207285  1
  Sc  Sc61  1  0.90087695  0.89376074  0.09934251  1
  Sc  Sc62  1  0.90283846  0.10422041  0.29621895  1
  Sc  Sc63  1  0.49149636  0.69436643  0.09972778  1
  Sc  Sc64  1  0.90671319  0.70268248  0.91436434  1
  Sc  Sc65  1  0.50367911  0.69134644  0.29989728  1
  Sc  Sc66  1  0.90332627  0.50014439  0.10476367  1
  Sc  Sc67  1  0.29925574  0.30316607  0.50974825  1
  Sc  Sc68  1  0.10029657  0.10641672  0.70277509  1
  Sc  Sc69  1  0.29051358  0.89798399  0.29467301  1
  Sc  Sc70  1  0.31111194  0.69689809  0.69958358  1
  Sc  Sc71  1  0.30081372  0.29628894  0.09223999  1
  Sc  Sc72  1  0.89298596  0.49475044  0.70462893  1
  Sc  Sc73  1  0.50054700  0.50102873  0.89874363  1
  Sc  Sc74  1  0.69545892  0.50310575  0.28266356  1
  Sc  Sc75  1  0.09440562  0.48895736  0.90579385  1
  Sc  Sc76  1  0.30103484  0.70213540  0.29470035  1
  Sc  Sc77  1  0.91007112  0.69620424  0.10167327  1
  Sc  Sc78  1  0.90703195  0.29788625  0.69708976  1
  Sc  Sc79  1  0.49958404  0.69835673  0.70226876  1
  Sc  Sc80  1  0.90244095  0.29762396  0.50890982  1
  Sc  Sc81  1  0.10230139  0.90097166  0.09453183  1
  Sc  Sc82  1  0.90994709  0.10767119  0.90538007  1
  Sc  Sc83  1  0.69292472  0.48977896  0.70346245  1
  Sc  Sc84  1  0.90486511  0.30313837  0.90089918  1
  Sc  Sc85  1  0.69162706  0.89409509  0.50630122  1
  Sc  Sc86  1  0.09979536  0.48810547  0.29757192  1
  Sc  Sc87  1  0.09768689  0.90354781  0.49247608  1
  Sc  Sc88  1  0.89381680  0.29542918  0.09630652  1
  Sc  Sc89  1  0.09832379  0.29877815  0.30019186  1
  Sc  Sc90  1  0.90333689  0.48574560  0.50503981  1
  Sc  Sc91  1  0.90580846  0.89962428  0.29975624  1
  Sc  Sc92  1  0.90141383  0.09977246  0.68776876  1
  Sc  Sc93  1  0.50371193  0.09860813  0.70822757  1
  Sc  Sc94  1  0.29558657  0.90359853  0.49662754  1
  Sc  Sc95  1  0.90665440  0.90204654  0.50665779  1
  Sc  Sc96  1  0.91564066  0.90401992  0.91226530  1
  Sc  Sc97  1  0.50517580  0.69936219  0.49995857  1
  Sc  Sc98  1  0.89429443  0.69860328  0.69631945  1
  Sc  Sc99  1  0.49408507  0.49934096  0.49777019  1
  Nb  Nb100  1  0.69624574  0.30183960  0.29998249  1
  Nb  Nb101  1  0.50476183  0.30231410  0.30029757  1
  Nb  Nb102  1  0.89262117  0.50144195  0.89761588  1
  Nb  Nb103  1  0.30094643  0.49684274  0.70217212  1
  Nb  Nb104  1  0.90216331  0.89766177  0.70761522  1
  Nb  Nb105  1  0.69853210  0.29636218  0.69521796  1
  Nb  Nb106  1  0.70031484  0.09806176  0.89753458  1
  Nb  Nb107  1  0.51125887  0.90887199  0.09472153  1
  Nb  Nb108  1  0.09773909  0.30650237  0.70335942  1
  Nb  Nb109  1  0.68963110  0.90623420  0.10220188  1
  Nb  Nb110  1  0.30598780  0.90264029  0.89720446  1
  Nb  Nb111  1  0.49805747  0.10226261  0.49750011  1
  Nb  Nb112  1  0.49763539  0.89863333  0.50128168  1
  Nb  Nb113  1  0.29914122  0.50527105  0.09643767  1
  Nb  Nb114  1  0.10027645  0.69556871  0.90272107  1
  Nb  Nb115  1  0.09601440  0.68925937  0.08334251  1
  Nb  Nb116  1  0.49656782  0.90088938  0.90235547  1
  Nb  Nb117  1  0.30457956  0.10291038  0.10402653  1
  Nb  Nb118  1  0.89704505  0.10286945  0.49486864  1
  Nb  Nb119  1  0.70015654  0.30481584  0.09878897  1
  Nb  Nb120  1  0.10403380  0.49335787  0.70394258  1
  Nb  Nb121  1  0.48729906  0.49607018  0.70668881  1
  Nb  Nb122  1  0.70224854  0.49796622  0.09290065  1
  Nb  Nb123  1  0.90379800  0.09910060  0.09817534  1
  Nb  Nb124  1  0.49907320  0.30022018  0.90687260  1
  Nb  Nb125  1  0.80155804  -0.00228818  0.80832902  1
  Nb  Nb126  1  0.19786665  0.59407427  0.80076548  1
  Nb  Nb127  1  0.00378353  0.00591011  0.19613460  1
  Nb  Nb128  1  0.79590821  0.39751985  0.39375767  1
  Nb  Nb129  1  0.40504466  0.80403752  0.40013782  1
  Nb  Nb130  1  0.20182835  0.79960219  0.59985263  1
  Nb  Nb131  1  0.79709842  0.20214465  0.40001460  1
  Nb  Nb132  1  0.79631716  0.79808712  0.40016377  1
  Nb  Nb133  1  0.79716795  0.19383158  0.79695958  1
  Nb  Nb134  1  0.00372700  0.60015288  0.80013126  1
  Nb  Nb135  1  0.40490784  0.00160949  0.59370866  1
  Nb  Nb136  1  0.79636409  0.00036448  0.40290126  1
  Nb  Nb137  1  0.80229804  0.59671658  0.39974595  1
  Nb  Nb138  1  0.79536117  -0.00018034  -0.00015852  1
  Nb  Nb139  1  0.59673598  0.20268274  0.60050323  1
  Nb  Nb140  1  0.80705494  0.80726795  0.80584783  1
  Nb  Nb141  1  0.00675623  0.59525859  0.60233949  1
  Nb  Nb142  1  0.00255326  0.79887166  0.80041435  1
  Nb  Nb143  1  0.60224219  0.39674263  0.00168103  1
  Nb  Nb144  1  0.79754070  0.59538995  -0.00044976  1
  Nb  Nb145  1  0.59718878  0.00276364  0.40473586  1
  Nb  Nb146  1  0.40026378  0.00162038  0.19557811  1
  Nb  Nb147  1  0.60584335  0.20646224  0.00060392  1
  Nb  Nb148  1  -0.00150475  0.59902530  0.40459159  1
  Nb  Nb149  1  0.60029409  0.21194328  0.19968084  1
  Pd  Pd150  1  0.40071706  0.79682576  0.80688097  1
  Pd  Pd151  1  0.39968443  -0.00689461  0.39710790  1
  Pd  Pd152  1  0.39296370  0.00780762  0.79421183  1
  Pd  Pd153  1  0.81131073  -0.00394382  0.19767740  1
  Pd  Pd154  1  0.80415724  0.38723278  0.79334218  1
  Pd  Pd155  1  0.80589081  0.58616632  0.59662255  1
  Pd  Pd156  1  0.20276613  0.79424780  0.79627445  1
  Pd  Pd157  1  0.79560855  0.80761531  0.60395345  1
  Pd  Pd158  1  0.60664889  0.58805123  0.40119272  1
  Pd  Pd159  1  0.58963131  0.79191769  0.00790710  1
  Pd  Pd160  1  0.20039382  0.39810779  -0.00068395  1
  Pd  Pd161  1  0.59598939  0.40031447  0.19207656  1
  Pd  Pd162  1  0.20150483  0.19910178  0.80023884  1
  Pd  Pd163  1  0.79628366  0.19489615  -0.00613759  1
  Pd  Pd164  1  0.59746235  0.79366388  0.60687342  1
  Pd  Pd165  1  -0.00595638  0.00267513  0.80147366  1
  Pd  Pd166  1  0.39693349  0.19174322  0.80378499  1
  Pd  Pd167  1  0.00814068  0.80350936  0.19091384  1
  Pd  Pd168  1  0.19268991  0.60167206  0.38791024  1
  Pd  Pd169  1  0.80390022  0.39867516  0.20051652  1
  Pd  Pd170  1  0.40628198  0.80352537  0.20273249  1
  Pd  Pd171  1  0.19408937  0.79584927  0.18749710  1
  Pd  Pd172  1  0.58566645  0.39542545  0.60332213  1
  Pd  Pd173  1  0.20187660  0.60146952  0.60787509  1
  Pd  Pd174  1  0.80193530  0.80162639  0.19818373  1
  Pd  Pd175  1  0.40764855  0.79812371  -0.00138729  1
  Pd  Pd176  1  0.19844567  0.00257111  0.40294361  1
  Pd  Pd177  1  0.19788605  0.20915228  0.19625017  1
  Pd  Pd178  1  0.00099068  0.00432109  0.59829272  1
  Pd  Pd179  1  0.40849038  0.19863833  0.60302375  1
  Pd  Pd180  1  0.80045296  0.80068758  0.00148031  1
  Pd  Pd181  1  0.20588527  0.39046534  0.39856979  1
  Pd  Pd182  1  0.19423426  0.60195072  0.20577070  1
  Pd  Pd183  1  0.40686662  0.59732650  0.59992726  1
  Pd  Pd184  1  0.59051829  0.59317159  0.60748390  1
  Pd  Pd185  1  0.20744967  0.39485041  0.19596972  1
  Pd  Pd186  1  0.79747522  0.20195760  0.20163637  1
  Pd  Pd187  1  0.39356130  0.40729428  0.19208860  1
  Pd  Pd188  1  0.40189323  0.00320650  0.00151203  1
  Pd  Pd189  1  0.59041875  0.00446679  0.59844677  1
  Pd  Pd190  1  -0.00818984  0.79556772  0.39584953  1
  Pd  Pd191  1  0.60588467  0.41081127  0.39780129  1
  Pd  Pd192  1  0.80364934  -0.00946871  0.60139833  1
  Pd  Pd193  1  0.20277399  0.21138649  0.40122092  1
  Pd  Pd194  1  0.19870287  0.80092743  0.00294520  1
  Pd  Pd195  1  0.60602021  0.20887169  0.80452425  1
  Pd  Pd196  1  0.58940847  0.79177910  0.19148765  1
  Pd  Pd197  1  -0.00864335  0.40260676  0.00374362  1
  Pd  Pd198  1  0.00687464  0.79850529  0.60673996  1
  Pd  Pd199  1  0.20308557  -0.00044942  0.00611809  1
  Rh  Rh200  1  -0.00024553  0.00342749  0.00978272  1
  Rh  Rh201  1  -0.00620866  0.40109889  0.39812368  1
  Rh  Rh202  1  0.39513050  0.39858878  0.40065619  1
  Rh  Rh203  1  -0.00703454  0.58949752  -0.00667524  1
  Rh  Rh204  1  0.20050709  0.39779789  0.60417009  1
  Rh  Rh205  1  0.60479707  0.00795240  -0.00499847  1
  Rh  Rh206  1  0.01082434  0.60137071  0.20645980  1
  Rh  Rh207  1  0.59091870  0.59142223  0.79162958  1
  Rh  Rh208  1  0.39237162  0.20971459  0.40591961  1
  Rh  Rh209  1  0.20930000  0.79987158  0.40365033  1
  Rh  Rh210  1  0.00341267  0.20201007  0.00299275  1
  Rh  Rh211  1  -0.00118242  0.39526978  0.19376897  1
  Rh  Rh212  1  0.60461972  0.19769786  0.40115033  1
  Rh  Rh213  1  0.40586085  0.19128508  -0.00659161  1
  Rh  Rh214  1  0.39520567  0.59882100  0.80196221  1
  Rh  Rh215  1  0.20044150  0.40188156  0.80430381  1
  Rh  Rh216  1  0.40500356  0.40933686  0.00273314  1
  Rh  Rh217  1  0.59883952  0.80774278  0.39993835  1
  Rh  Rh218  1  0.01232722  0.80160727  -0.00132774  1
  Rh  Rh219  1  0.40042488  0.40076108  0.80678959  1
  Rh  Rh220  1  0.40124957  0.40076175  0.60139517  1
  Rh  Rh221  1  0.40204804  0.60758525  0.39709944  1
  Rh  Rh222  1  0.79979740  0.40716813  -0.00049491  1
  Rh  Rh223  1  0.60072427  -0.01047566  0.80625699  1
  Rh  Rh224  1  0.20745620  0.00822893  0.80131481  1
  Rh  Rh225  1  0.81443023  0.61632893  0.81095641  1
  Rh  Rh226  1  0.79867791  0.60043667  0.19353970  1
  Rh  Rh227  1  0.39476400  0.59662777  0.20147749  1
  Rh  Rh228  1  -0.00720606  0.00457143  0.39225789  1
  Rh  Rh229  1  0.19755790  0.59115369  -0.00770169  1
  Rh  Rh230  1  0.58903773  0.01205612  0.20821481  1
  Rh  Rh231  1  0.19164642  0.20895027  0.60409083  1
  Rh  Rh232  1  -0.00633988  0.20368727  0.40636999  1
  Rh  Rh233  1  0.00271189  0.19590157  0.19040276  1
  Rh  Rh234  1  -0.00606802  0.19977386  0.79638745  1
  Rh  Rh235  1  0.00181037  0.40491243  0.60939773  1
  Rh  Rh236  1  0.80032147  0.39690771  0.60111054  1
  Rh  Rh237  1  0.40311728  0.19686788  0.19738384  1
  Rh  Rh238  1  0.20437636  -0.00299477  0.59660058  1
  Rh  Rh239  1  0.39315063  0.80655178  0.58970135  1
  Rh  Rh240  1  0.59612735  0.39802730  0.80531069  1
  Rh  Rh241  1  0.19919695  0.20432830  -0.00083274  1
  Rh  Rh242  1  0.00485541  0.19685207  0.60117275  1
  Rh  Rh243  1  0.60003312  0.80128896  0.79746313  1
  Rh  Rh244  1  -0.00449686  0.40521075  0.79901460  1
  Rh  Rh245  1  0.79708287  0.20545595  0.60116819  1
  Rh  Rh246  1  0.39960142  0.59885838  -0.00320775  1
  Rh  Rh247  1  0.59776866  0.59848229  0.19391943  1
  Rh  Rh248  1  0.60538519  0.59440531  0.00159918  1
  Rh  Rh249  1  0.20229957  0.00116678  0.19326118  1
