# generated using pymatgen
data_ZrScNbPdRh
_symmetry_space_group_name_H-M   'P 1'
_cell_length_a   16.55556747
_cell_length_b   16.55627796
_cell_length_c   16.55805134
_cell_angle_alpha   90.04360779
_cell_angle_beta   89.98702178
_cell_angle_gamma   90.00661299
_symmetry_Int_Tables_number   1
_chemical_formula_structural   ZrScNbPdRh
_chemical_formula_sum   'Zr50 Sc50 Nb50 Pd50 Rh50'
_cell_volume   4538.53684563
_cell_formula_units_Z   50
loop_
 _symmetry_equiv_pos_site_id
 _symmetry_equiv_pos_as_xyz
  1  'x, y, z'
loop_
 _atom_site_type_symbol
 _atom_site_label
 _atom_site_symmetry_multiplicity
 _atom_site_fract_x
 _atom_site_fract_y
 _atom_site_fract_z
 _atom_site_occupancy
  Zr  Zr0  1  0.70334451  0.10237462  0.70458086  1
  Zr  Zr1  1  0.29775937  0.49594868  0.09472506  1
  Zr  Zr2  1  0.30576079  0.69253714  0.48438348  1
  Zr  Zr3  1  0.30310227  0.30075262  0.89954005  1
  Zr  Zr4  1  0.28892263  0.69643368  0.89690341  1
  Zr  Zr5  1  0.90712700  0.09200991  0.50025082  1
  Zr  Zr6  1  0.89060807  0.70742485  0.49743300  1
  Zr  Zr7  1  0.90232908  0.10488562  0.90037830  1
  Zr  Zr8  1  0.30005723  0.09702423  0.29728636  1
  Zr  Zr9  1  0.90103658  0.69674125  0.30598102  1
  Zr  Zr10  1  0.89863147  0.30628117  0.09934125  1
  Zr  Zr11  1  0.90173786  0.30050867  0.28904144  1
  Zr  Zr12  1  0.29262889  0.88816975  0.29083820  1
  Zr  Zr13  1  0.49562393  0.09961268  0.49207366  1
  Zr  Zr14  1  0.30665744  0.89651172  0.69851841  1
  Zr  Zr15  1  0.69526049  0.49781770  0.49942452  1
  Zr  Zr16  1  0.30623421  0.69823373  0.69447765  1
  Zr  Zr17  1  0.49601598  0.89611772  0.69960030  1
  Zr  Zr18  1  0.69203652  0.10311699  0.49193292  1
  Zr  Zr19  1  0.30499518  0.30282398  0.10548842  1
  Zr  Zr20  1  0.89859561  0.30009844  0.49669052  1
  Zr  Zr21  1  0.49529003  0.49609434  0.09970082  1
  Zr  Zr22  1  0.10867695  0.70251014  0.30175624  1
  Zr  Zr23  1  0.49784187  0.70067386  0.70339421  1
  Zr  Zr24  1  0.29965077  0.30307229  0.70219816  1
  Zr  Zr25  1  0.29870098  0.71009847  0.09692191  1
  Zr  Zr26  1  0.49404707  0.09524553  0.09881764  1
  Zr  Zr27  1  0.69827318  0.48434226  0.90726061  1
  Zr  Zr28  1  0.49532862  0.70341748  0.31089863  1
  Zr  Zr29  1  0.10133329  0.49110290  0.70010561  1
  Zr  Zr30  1  0.10010136  0.89923712  0.90755037  1
  Zr  Zr31  1  0.29791057  0.10110076  0.49951844  1
  Zr  Zr32  1  0.09925690  0.09762651  0.90231972  1
  Zr  Zr33  1  0.69384489  0.30307121  0.49937075  1
  Zr  Zr34  1  0.30358873  0.49796792  0.30539453  1
  Zr  Zr35  1  0.29717601  0.89419433  0.90678660  1
  Zr  Zr36  1  0.30226131  0.90383636  0.09943055  1
  Zr  Zr37  1  0.69888404  0.69548685  0.49958807  1
  Zr  Zr38  1  0.49106761  0.10156848  0.70175256  1
  Zr  Zr39  1  0.09685354  0.11047428  0.70008466  1
  Zr  Zr40  1  0.50474387  0.89348417  0.90159521  1
  Zr  Zr41  1  0.50019824  0.90426641  0.29620368  1
  Zr  Zr42  1  0.09496384  0.69970698  0.48661344  1
  Zr  Zr43  1  0.09979136  0.89784507  0.31067239  1
  Zr  Zr44  1  0.10385212  0.90463755  0.70067759  1
  Zr  Zr45  1  0.50832075  0.30401187  0.89839310  1
  Zr  Zr46  1  0.70288543  0.30623019  0.09002304  1
  Zr  Zr47  1  0.10351528  0.30081952  0.30516899  1
  Zr  Zr48  1  0.89590591  0.50176166  0.29482865  1
  Zr  Zr49  1  0.70402871  0.50186014  0.70352373  1
  Sc  Sc50  1  0.48830372  0.89931972  0.49613145  1
  Sc  Sc51  1  0.90957828  0.50462734  0.50022477  1
  Sc  Sc52  1  0.30446210  0.10507178  0.69756959  1
  Sc  Sc53  1  0.89148870  0.29967428  0.90450609  1
  Sc  Sc54  1  0.50294254  0.49421973  0.29953148  1
  Sc  Sc55  1  0.89633225  0.50857123  0.10377440  1
  Sc  Sc56  1  0.30074841  0.29995080  0.49567038  1
  Sc  Sc57  1  0.89057640  0.89862755  0.10064259  1
  Sc  Sc58  1  0.89405066  0.70029388  0.09772977  1
  Sc  Sc59  1  0.10940712  0.69216024  0.71242712  1
  Sc  Sc60  1  0.70083954  0.11521759  0.89928680  1
  Sc  Sc61  1  0.10694356  0.51478195  0.89470954  1
  Sc  Sc62  1  0.89857104  0.90745136  0.69851404  1
  Sc  Sc63  1  0.09677980  0.09684836  0.09263675  1
  Sc  Sc64  1  0.70250118  0.30574672  0.71142005  1
  Sc  Sc65  1  0.09549381  0.50134415  0.30584922  1
  Sc  Sc66  1  0.10518336  0.29728326  0.89325511  1
  Sc  Sc67  1  0.30389630  0.09809933  0.09520328  1
  Sc  Sc68  1  0.10842207  0.29944985  0.50231774  1
  Sc  Sc69  1  0.10252138  0.90145061  0.09620979  1
  Sc  Sc70  1  0.30430407  0.49705577  0.90170645  1
  Sc  Sc71  1  0.89884403  0.11073231  0.10051389  1
  Sc  Sc72  1  0.69932743  0.89972568  0.09602083  1
  Sc  Sc73  1  0.70535999  0.69242151  0.30753211  1
  Sc  Sc74  1  0.10489180  0.09347186  0.50271766  1
  Sc  Sc75  1  0.70241608  0.69815004  0.69770804  1
  Sc  Sc76  1  0.89853514  0.50494138  0.90015937  1
  Sc  Sc77  1  0.49996162  0.29504004  0.10528515  1
  Sc  Sc78  1  0.49869090  0.90095512  0.08970688  1
  Sc  Sc79  1  0.71073132  0.88888506  0.49405113  1
  Sc  Sc80  1  0.50640148  0.10087833  0.29753307  1
  Sc  Sc81  1  0.91194528  0.29987160  0.70347792  1
  Sc  Sc82  1  0.90439283  0.69859379  0.91360019  1
  Sc  Sc83  1  0.68997246  0.29363908  0.28902566  1
  Sc  Sc84  1  0.69970423  0.89301181  0.70329178  1
  Sc  Sc85  1  0.89304640  0.69151998  0.69433249  1
  Sc  Sc86  1  0.49055717  0.49756901  0.69704671  1
  Sc  Sc87  1  0.69484540  0.89882389  0.90385840  1
  Sc  Sc88  1  0.30071372  0.30458855  0.30531498  1
  Sc  Sc89  1  0.69250799  0.10133460  0.10334934  1
  Sc  Sc90  1  0.90441628  0.90471340  0.90766670  1
  Sc  Sc91  1  0.90569607  0.49845412  0.70039835  1
  Sc  Sc92  1  0.09241799  0.69943092  0.09010346  1
  Sc  Sc93  1  0.50009510  0.49665225  0.50162561  1
  Sc  Sc94  1  0.90447145  0.10523521  0.70718898  1
  Sc  Sc95  1  0.69928615  0.70875739  0.90705609  1
  Sc  Sc96  1  0.10350483  0.30279518  0.10208285  1
  Sc  Sc97  1  0.30965840  0.49409460  0.49762667  1
  Sc  Sc98  1  0.49454065  0.29558513  0.29706155  1
  Sc  Sc99  1  0.30346168  0.49466540  0.70128885  1
  Nb  Nb100  1  0.50021646  0.50120656  0.90444845  1
  Nb  Nb101  1  0.89357197  0.90559493  0.30404099  1
  Nb  Nb102  1  0.29764804  0.69652378  0.29529878  1
  Nb  Nb103  1  0.50421814  0.69921752  0.90462425  1
  Nb  Nb104  1  0.50299035  0.70036916  0.09906349  1
  Nb  Nb105  1  0.29252801  0.90047546  0.50677902  1
  Nb  Nb106  1  0.70281062  0.30430638  0.90428610  1
  Nb  Nb107  1  0.10508401  0.50384464  0.49941470  1
  Nb  Nb108  1  0.10244513  0.50493535  0.09483369  1
  Nb  Nb109  1  0.69705523  0.69949708  0.10193132  1
  Nb  Nb110  1  0.49728839  0.09662733  0.90160813  1
  Nb  Nb111  1  0.70586005  0.49984586  0.29514982  1
  Nb  Nb112  1  0.09908224  0.09862578  0.30323321  1
  Nb  Nb113  1  0.09538609  0.89907692  0.50275698  1
  Nb  Nb114  1  0.90566917  0.89825233  0.49862578  1
  Nb  Nb115  1  0.10749389  0.30079350  0.70278699  1
  Nb  Nb116  1  0.70790835  0.90773944  0.28948655  1
  Nb  Nb117  1  0.49059980  0.29823798  0.69883740  1
  Nb  Nb118  1  0.49980655  0.69776428  0.50285682  1
  Nb  Nb119  1  0.30461091  0.10082595  0.90122930  1
  Nb  Nb120  1  0.70182995  0.09200373  0.29843349  1
  Nb  Nb121  1  0.50303636  0.29924280  0.50000472  1
  Nb  Nb122  1  0.10075807  0.70601572  0.90077930  1
  Nb  Nb123  1  0.69859789  0.50456605  0.10993159  1
  Nb  Nb124  1  0.89577459  0.09577616  0.29984603  1
  Nb  Nb125  1  0.19857007  0.19664536  0.20441576  1
  Nb  Nb126  1  -0.00060271  0.79796090  0.79913670  1
  Nb  Nb127  1  0.00435286  0.40834980  0.00214293  1
  Nb  Nb128  1  0.80842587  0.79954911  0.80368153  1
  Nb  Nb129  1  -0.00295698  0.19383697  0.39324661  1
  Nb  Nb130  1  -0.00599887  -0.00118790  0.20946142  1
  Nb  Nb131  1  0.60073767  -0.00093097  0.60114573  1
  Nb  Nb132  1  -0.00364348  0.80590941  0.20752389  1
  Nb  Nb133  1  0.20383414  0.60022275  0.19719667  1
  Nb  Nb134  1  0.59573842  0.59703183  0.81115748  1
  Nb  Nb135  1  0.79619607  0.39747847  0.39348888  1
  Nb  Nb136  1  0.79629233  0.00461721  0.59614426  1
  Nb  Nb137  1  0.80100309  0.19758974  0.39429151  1
  Nb  Nb138  1  0.79788187  0.00805054  -0.00139575  1
  Nb  Nb139  1  0.59630808  0.20170163  0.60258029  1
  Nb  Nb140  1  0.39654312  0.60558384  0.19891481  1
  Nb  Nb141  1  0.59416150  0.00437079  0.79922029  1
  Nb  Nb142  1  0.19949418  0.59926275  0.59231979  1
  Nb  Nb143  1  0.20469182  0.00255909  0.80445853  1
  Nb  Nb144  1  0.79687716  0.19878272  0.59524304  1
  Nb  Nb145  1  0.00444465  0.80117816  0.60082052  1
  Nb  Nb146  1  0.60351193  0.79605877  0.20117945  1
  Nb  Nb147  1  0.59438144  0.79788067  0.59499341  1
  Nb  Nb148  1  0.19725493  0.79622838  0.59243440  1
  Nb  Nb149  1  0.59861428  0.59778864  0.00426237  1
  Pd  Pd150  1  0.59858742  -0.00627695  0.19220340  1
  Pd  Pd151  1  -0.00153727  0.39720089  0.40341774  1
  Pd  Pd152  1  0.00607968  0.60841096  0.19872327  1
  Pd  Pd153  1  0.00507451  0.39512044  0.59652120  1
  Pd  Pd154  1  0.00870734  0.19270155  0.20130870  1
  Pd  Pd155  1  0.78992334  0.59654887  -0.00043709  1
  Pd  Pd156  1  0.00092208  0.39879522  0.81275287  1
  Pd  Pd157  1  0.59861500  0.39641482  0.19828242  1
  Pd  Pd158  1  0.59445331  0.39590051  0.61223030  1
  Pd  Pd159  1  0.19163644  0.40132888  -0.01023525  1
  Pd  Pd160  1  0.59446664  0.60563909  0.20225841  1
  Pd  Pd161  1  0.00769304  0.40829287  0.19259596  1
  Pd  Pd162  1  0.79624255  -0.00020802  0.40672840  1
  Pd  Pd163  1  0.79150955  0.19611559  0.19985254  1
  Pd  Pd164  1  0.20608643  0.19360643  0.79873577  1
  Pd  Pd165  1  0.00377882  0.21358299  -0.00298792  1
  Pd  Pd166  1  0.20579860  0.40360534  0.59487996  1
  Pd  Pd167  1  0.20310584  -0.00381148  0.40095948  1
  Pd  Pd168  1  0.59313717  0.40604606  0.79225813  1
  Pd  Pd169  1  0.60422933  -0.01341086  0.40429545  1
  Pd  Pd170  1  0.39920077  0.20513420  0.59338045  1
  Pd  Pd171  1  0.59812883  0.19830097  0.00199071  1
  Pd  Pd172  1  0.60700138  0.80651295  0.39785243  1
  Pd  Pd173  1  0.60118124  0.39710302  0.38954255  1
  Pd  Pd174  1  0.39793500  0.79427024  0.81137155  1
  Pd  Pd175  1  0.79251120  0.60780937  0.81122083  1
  Pd  Pd176  1  0.59630900  0.59356302  0.39703319  1
  Pd  Pd177  1  0.59673602  0.20022316  0.79713337  1
  Pd  Pd178  1  0.19583057  0.40292641  0.20469294  1
  Pd  Pd179  1  0.19102120  0.00504989  0.19486416  1
  Pd  Pd180  1  0.39974959  0.20282184  0.39524865  1
  Pd  Pd181  1  0.80250193  0.59026423  0.59456938  1
  Pd  Pd182  1  0.81106284  0.39774355  0.79890701  1
  Pd  Pd183  1  0.39743193  -0.00248237  0.80754150  1
  Pd  Pd184  1  0.20315354  0.00211763  0.60754139  1
  Pd  Pd185  1  0.00371755  -0.00297007  0.79968603  1
  Pd  Pd186  1  0.80586709  0.39910168  0.59951305  1
  Pd  Pd187  1  0.79782623  0.79438702  0.20414911  1
  Pd  Pd188  1  0.00877159  0.60869664  0.60309382  1
  Pd  Pd189  1  0.40475066  0.20457757  -0.00266365  1
  Pd  Pd190  1  0.59577209  0.60170477  0.60828885  1
  Pd  Pd191  1  0.00177096  0.20522507  0.59290403  1
  Pd  Pd192  1  0.20100268  0.19887128  0.00886284  1
  Pd  Pd193  1  0.40992919  0.79869566  0.19587462  1
  Pd  Pd194  1  0.39283344  0.80737391  0.40085235  1
  Pd  Pd195  1  0.79262702  -0.00723550  0.80540096  1
  Pd  Pd196  1  0.38821957  -0.00829656  0.39507278  1
  Pd  Pd197  1  -0.00391475  0.60718067  0.80129109  1
  Pd  Pd198  1  0.40088965  0.59692970  0.80448873  1
  Pd  Pd199  1  0.40038180  0.60593135  0.00273874  1
  Rh  Rh200  1  0.40541056  0.39123761  -0.00250581  1
  Rh  Rh201  1  0.80570886  0.21048544  0.79715250  1
  Rh  Rh202  1  0.19996273  0.40337060  0.80295300  1
  Rh  Rh203  1  0.59998558  0.20248815  0.39493742  1
  Rh  Rh204  1  -0.01421534  0.00130499  0.01490620  1
  Rh  Rh205  1  0.59682024  0.40239624  0.00866442  1
  Rh  Rh206  1  0.39857602  0.79412827  0.58802134  1
  Rh  Rh207  1  -0.00237198  0.80161277  0.00368401  1
  Rh  Rh208  1  0.80422093  0.80879673  0.60876561  1
  Rh  Rh209  1  0.40077071  0.79582238  -0.00443300  1
  Rh  Rh210  1  -0.00283330  0.59736403  0.39886807  1
  Rh  Rh211  1  0.20144587  0.20311270  0.60202920  1
  Rh  Rh212  1  0.79893084  0.80294763  0.39124081  1
  Rh  Rh213  1  0.00300433  0.00176646  0.39690186  1
  Rh  Rh214  1  0.60594419  0.00878813  -0.00969766  1
  Rh  Rh215  1  0.19522529  0.19629110  0.39650670  1
  Rh  Rh216  1  -0.00870801  0.80373633  0.39855827  1
  Rh  Rh217  1  0.79407043  0.40103031  0.20010390  1
  Rh  Rh218  1  0.80887273  0.40823629  0.00664566  1
  Rh  Rh219  1  -0.00556677  -0.00454863  0.60265971  1
  Rh  Rh220  1  0.40438604  0.39789561  0.80335315  1
  Rh  Rh221  1  0.39935114  -0.00233389  -0.00527491  1
  Rh  Rh222  1  0.20928497  0.59188998  0.79234560  1
  Rh  Rh223  1  0.79921573  0.60738198  0.19839801  1
  Rh  Rh224  1  0.40145942  -0.00187458  0.20055194  1
  Rh  Rh225  1  0.20118104  0.59058860  0.39786652  1
  Rh  Rh226  1  0.39203245  0.19657675  0.20297776  1
  Rh  Rh227  1  0.80029481  0.58634178  0.40626975  1
  Rh  Rh228  1  0.79578202  0.19740193  0.00227487  1
  Rh  Rh229  1  0.00154599  0.20698639  0.80579696  1
  Rh  Rh230  1  0.60720791  0.79295363  0.79339127  1
  Rh  Rh231  1  0.40134885  0.39344709  0.59667793  1
  Rh  Rh232  1  0.79896740  0.80888539  -0.00544207  1
  Rh  Rh233  1  0.20737433  0.00620350  -0.00451875  1
  Rh  Rh234  1  0.00255896  0.59449817  -0.00283913  1
  Rh  Rh235  1  0.40010798  0.20545220  0.80689453  1
  Rh  Rh236  1  0.19988158  0.60376328  0.00296507  1
  Rh  Rh237  1  0.40814602  0.39487888  0.40275996  1
  Rh  Rh238  1  0.80374105  0.00577850  0.18948269  1
  Rh  Rh239  1  0.60082778  0.79493425  0.00988239  1
  Rh  Rh240  1  0.40096078  0.40336655  0.20213539  1
  Rh  Rh241  1  0.18779519  0.79429907  0.19142763  1
  Rh  Rh242  1  0.20013810  0.40471390  0.40561258  1
  Rh  Rh243  1  0.39582512  0.59787887  0.59521809  1
  Rh  Rh244  1  0.19453094  0.79727434  0.00479548  1
  Rh  Rh245  1  0.19534579  0.80632413  0.79532099  1
  Rh  Rh246  1  0.40905048  0.59321267  0.39575165  1
  Rh  Rh247  1  0.40163817  0.00310106  0.59365152  1
  Rh  Rh248  1  0.20858673  0.80531998  0.40707815  1
  Rh  Rh249  1  0.59858755  0.19452221  0.19871360  1
