# generated using pymatgen
data_ZrScNbPdRh
_symmetry_space_group_name_H-M   'P 1'
_cell_length_a   16.56265781
_cell_length_b   16.55741523
_cell_length_c   16.55921456
_cell_angle_alpha   90.00313820
_cell_angle_beta   90.00195132
_cell_angle_gamma   89.96443107
_symmetry_Int_Tables_number   1
_chemical_formula_structural   ZrScNbPdRh
_chemical_formula_sum   'Zr50 Sc50 Nb50 Pd50 Rh50'
_cell_volume   4541.11205130
_cell_formula_units_Z   50
loop_
 _symmetry_equiv_pos_site_id
 _symmetry_equiv_pos_as_xyz
  1  'x, y, z'
loop_
 _atom_site_type_symbol
 _atom_site_label
 _atom_site_symmetry_multiplicity
 _atom_site_fract_x
 _atom_site_fract_y
 _atom_site_fract_z
 _atom_site_occupancy
  Zr  Zr0  1  0.89762395  0.09949073  0.90240185  1
  Zr  Zr1  1  0.50656987  0.49747795  0.10256767  1
  Zr  Zr2  1  0.30074040  0.09327194  0.69607078  1
  Zr  Zr3  1  0.70176303  0.11066592  0.09705156  1
  Zr  Zr4  1  0.69493553  0.09126038  0.29696752  1
  Zr  Zr5  1  0.09845384  0.10051585  0.49396936  1
  Zr  Zr6  1  0.48433111  0.70515031  0.09528323  1
  Zr  Zr7  1  0.30179954  0.50251655  0.30671937  1
  Zr  Zr8  1  0.09921320  0.68707740  0.29557690  1
  Zr  Zr9  1  0.30985024  0.90049503  0.51659692  1
  Zr  Zr10  1  0.30077926  0.70500396  0.28957371  1
  Zr  Zr11  1  0.50510780  0.90358528  0.30043184  1
  Zr  Zr12  1  0.30439136  0.30410814  0.30754355  1
  Zr  Zr13  1  0.10948692  0.30226242  0.50357301  1
  Zr  Zr14  1  0.69341351  0.49377705  0.89856921  1
  Zr  Zr15  1  0.51040908  0.30111801  0.09654354  1
  Zr  Zr16  1  0.30374725  0.29510909  0.68901284  1
  Zr  Zr17  1  0.70674177  0.11011475  0.50898010  1
  Zr  Zr18  1  0.69445218  0.50960797  0.29875732  1
  Zr  Zr19  1  0.30212343  0.88354023  0.10141912  1
  Zr  Zr20  1  0.09002440  0.90151476  0.90430251  1
  Zr  Zr21  1  0.69336506  0.69176256  0.09713939  1
  Zr  Zr22  1  0.70235082  0.30368425  0.29306417  1
  Zr  Zr23  1  0.10542899  0.50112803  0.49677712  1
  Zr  Zr24  1  0.70101201  0.29302034  0.69775607  1
  Zr  Zr25  1  0.89999495  0.10760152  0.70574349  1
  Zr  Zr26  1  0.50668049  0.70035288  0.90093293  1
  Zr  Zr27  1  0.10841364  0.89648577  0.70989145  1
  Zr  Zr28  1  0.30941196  0.30097614  0.90041350  1
  Zr  Zr29  1  0.30398442  0.30231431  0.09011245  1
  Zr  Zr30  1  0.49736977  0.49908015  0.88122696  1
  Zr  Zr31  1  0.29971029  0.51140176  0.08714409  1
  Zr  Zr32  1  0.49479518  0.50970365  0.49472207  1
  Zr  Zr33  1  0.70644318  0.09559685  0.70607408  1
  Zr  Zr34  1  0.49986835  0.69316703  0.70356828  1
  Zr  Zr35  1  0.90209021  0.30371395  0.50428618  1
  Zr  Zr36  1  0.88440906  0.30128605  0.10133623  1
  Zr  Zr37  1  0.10108811  0.50997971  0.10568446  1
  Zr  Zr38  1  0.49474388  0.30672628  0.29878009  1
  Zr  Zr39  1  0.89537695  0.49382915  0.88859628  1
  Zr  Zr40  1  0.70353931  0.48926779  0.10292453  1
  Zr  Zr41  1  0.49969338  0.09278876  0.49741407  1
  Zr  Zr42  1  0.89458849  0.70374976  0.50673321  1
  Zr  Zr43  1  0.30699877  0.10620599  0.90271972  1
  Zr  Zr44  1  0.30596935  0.69115727  0.91304027  1
  Zr  Zr45  1  0.69680098  0.90083519  0.30380644  1
  Zr  Zr46  1  0.89947885  0.29747474  0.89150594  1
  Zr  Zr47  1  0.10345672  0.50130065  0.69998894  1
  Zr  Zr48  1  0.49931414  0.09605430  0.30352313  1
  Zr  Zr49  1  0.09998593  0.69779621  0.69984410  1
  Sc  Sc50  1  0.10514085  0.29505572  0.09994430  1
  Sc  Sc51  1  0.70315237  0.88887261  0.50678031  1
  Sc  Sc52  1  0.50418958  0.89759657  0.49789699  1
  Sc  Sc53  1  0.09841765  0.09949381  0.69698726  1
  Sc  Sc54  1  0.70717935  0.49764795  0.70483251  1
  Sc  Sc55  1  0.09356537  0.30371026  0.69544222  1
  Sc  Sc56  1  0.29402857  0.10530690  0.09619294  1
  Sc  Sc57  1  0.29560739  0.49790548  0.50079861  1
  Sc  Sc58  1  0.69924490  0.69735517  0.49907633  1
  Sc  Sc59  1  0.50470046  0.09800179  0.09427518  1
  Sc  Sc60  1  0.50088469  0.89782530  0.09439718  1
  Sc  Sc61  1  0.49656389  0.69194170  0.30816385  1
  Sc  Sc62  1  0.10463882  0.50700477  0.89494566  1
  Sc  Sc63  1  0.70057628  0.70795548  0.69873527  1
  Sc  Sc64  1  0.50425172  0.10276138  0.90173696  1
  Sc  Sc65  1  0.10579484  0.69369631  0.49818310  1
  Sc  Sc66  1  0.89139541  0.50491200  0.29720416  1
  Sc  Sc67  1  0.70195110  0.91132138  0.09693092  1
  Sc  Sc68  1  0.70291110  0.09784139  0.89644442  1
  Sc  Sc69  1  0.71304526  0.30299780  0.49936667  1
  Sc  Sc70  1  0.90466439  0.69661391  0.30222899  1
  Sc  Sc71  1  0.49639598  0.30135527  0.70750757  1
  Sc  Sc72  1  0.09891710  0.90858893  0.30428825  1
  Sc  Sc73  1  0.89589092  0.29855703  0.30305143  1
  Sc  Sc74  1  0.89093750  0.49613965  0.50480166  1
  Sc  Sc75  1  0.90740517  0.89434734  0.30788158  1
  Sc  Sc76  1  0.29882273  0.69996623  0.49569176  1
  Sc  Sc77  1  0.91330444  0.10153066  0.29934421  1
  Sc  Sc78  1  0.50168687  0.89427858  0.68861544  1
  Sc  Sc79  1  0.90678271  0.09977874  0.50756384  1
  Sc  Sc80  1  0.29403954  0.69905908  0.69243167  1
  Sc  Sc81  1  0.90193908  0.89932444  0.09209519  1
  Sc  Sc82  1  0.50745577  0.90034618  0.90579141  1
  Sc  Sc83  1  0.49792859  0.70591705  0.50284073  1
  Sc  Sc84  1  0.70763469  0.50195162  0.49882371  1
  Sc  Sc85  1  0.08844376  0.09774501  0.89017661  1
  Sc  Sc86  1  0.69700420  0.70869947  0.89469897  1
  Sc  Sc87  1  0.09850724  0.90433753  0.49547973  1
  Sc  Sc88  1  0.09709885  0.29072342  0.29414374  1
  Sc  Sc89  1  0.09938071  0.30213468  0.89740856  1
  Sc  Sc90  1  0.89103428  0.69689323  0.71057085  1
  Sc  Sc91  1  0.89342256  0.09262819  0.10077138  1
  Sc  Sc92  1  0.89926242  0.89621776  0.90785774  1
  Sc  Sc93  1  0.50709330  0.10314772  0.70807250  1
  Sc  Sc94  1  0.29368379  0.89618332  0.30384007  1
  Sc  Sc95  1  0.70051995  0.29951518  0.90571123  1
  Sc  Sc96  1  0.09373229  0.70701950  0.89088492  1
  Sc  Sc97  1  0.09270622  0.89670931  0.10147210  1
  Sc  Sc98  1  0.30598885  0.09965324  0.50536769  1
  Sc  Sc99  1  0.28918431  0.89615204  0.90419432  1
  Nb  Nb100  1  0.30299078  0.89954894  0.70273399  1
  Nb  Nb101  1  0.90216395  0.49123900  0.69793997  1
  Nb  Nb102  1  0.09740049  0.69675418  0.10653818  1
  Nb  Nb103  1  0.49050378  0.29791656  0.49486065  1
  Nb  Nb104  1  0.49866115  0.29787308  0.89947994  1
  Nb  Nb105  1  0.90051775  0.90124302  0.50219169  1
  Nb  Nb106  1  0.90136050  0.70056380  0.10014805  1
  Nb  Nb107  1  0.09395776  0.10251517  0.11125519  1
  Nb  Nb108  1  0.89716202  0.50183431  0.09888807  1
  Nb  Nb109  1  0.10152525  0.49930140  0.30130286  1
  Nb  Nb110  1  0.29806121  0.09936541  0.29617324  1
  Nb  Nb111  1  0.70187780  0.69842539  0.29551066  1
  Nb  Nb112  1  0.49803517  0.49759769  0.30553368  1
  Nb  Nb113  1  0.31128255  0.50352195  0.70810642  1
  Nb  Nb114  1  0.69811492  0.30359906  0.09839165  1
  Nb  Nb115  1  0.70071995  0.90406793  0.70136735  1
  Nb  Nb116  1  0.10729693  0.10039315  0.29254110  1
  Nb  Nb117  1  0.69656032  0.90270759  0.89270794  1
  Nb  Nb118  1  0.90365018  0.31514186  0.70254035  1
  Nb  Nb119  1  0.89795356  0.70056342  0.90977618  1
  Nb  Nb120  1  0.29592368  0.70124727  0.10218910  1
  Nb  Nb121  1  0.88770910  0.90394105  0.68371181  1
  Nb  Nb122  1  0.30271373  0.29517337  0.49657570  1
  Nb  Nb123  1  0.29987981  0.50064031  0.89391654  1
  Nb  Nb124  1  0.50030871  0.49942929  0.69882136  1
  Nb  Nb125  1  0.20559357  0.20401771  0.79561735  1
  Nb  Nb126  1  -0.00744845  0.60252313  0.00202338  1
  Nb  Nb127  1  0.00473141  0.40291585  0.39499339  1
  Nb  Nb128  1  0.59552871  0.39901974  0.40349753  1
  Nb  Nb129  1  0.39901812  0.19745790  0.20190935  1
  Nb  Nb130  1  0.60390330  0.79507178  0.20117672  1
  Nb  Nb131  1  0.19131360  0.00365767  0.00395603  1
  Nb  Nb132  1  0.21187639  0.40051511  0.79841389  1
  Nb  Nb133  1  0.59794011  0.20621035  0.40203067  1
  Nb  Nb134  1  0.59809016  0.59246407  0.60431931  1
  Nb  Nb135  1  0.80445890  0.60014030  -0.00080395  1
  Nb  Nb136  1  0.00103641  0.40477650  0.19860355  1
  Nb  Nb137  1  0.20526235  0.19564852  0.39713884  1
  Nb  Nb138  1  0.59310554  0.40160524  0.59514255  1
  Nb  Nb139  1  0.80420693  -0.00259542  0.40726214  1
  Nb  Nb140  1  -0.00436339  0.40384447  0.00565698  1
  Nb  Nb141  1  0.60928033  0.00155169  0.60446108  1
  Nb  Nb142  1  0.39492353  0.00256535  0.20009618  1
  Nb  Nb143  1  -0.00503483  0.59987161  0.60512414  1
  Nb  Nb144  1  -0.00460122  0.20171477  0.00456905  1
  Nb  Nb145  1  -0.00396405  0.80029672  0.60270213  1
  Nb  Nb146  1  0.19934189  0.40546015  0.20074061  1
  Nb  Nb147  1  0.79604098  0.79417725  0.19950297  1
  Nb  Nb148  1  0.39842550  -0.00840947  0.79881388  1
  Nb  Nb149  1  0.39636439  0.80266547  0.79900180  1
  Pd  Pd150  1  0.20514660  -0.00728555  0.19003178  1
  Pd  Pd151  1  0.39216703  0.40181858  0.19315446  1
  Pd  Pd152  1  0.60335537  0.20318103  0.80828525  1
  Pd  Pd153  1  0.79303515  0.60290316  0.80522044  1
  Pd  Pd154  1  -0.00314149  0.80262478  0.20191005  1
  Pd  Pd155  1  0.59444239  0.19939267  0.20477732  1
  Pd  Pd156  1  0.80544269  0.80869901  0.80113765  1
  Pd  Pd157  1  0.60626233  0.00340414  -0.00215731  1
  Pd  Pd158  1  0.59953608  0.59437841  -0.00472614  1
  Pd  Pd159  1  0.40179740  0.59688015  0.20069835  1
  Pd  Pd160  1  0.18945939  0.79628545  0.00010672  1
  Pd  Pd161  1  -0.01483147  0.80770669  0.79202993  1
  Pd  Pd162  1  0.59218902  0.20423967  0.59429455  1
  Pd  Pd163  1  0.58748898  0.60613635  0.20157552  1
  Pd  Pd164  1  -0.00896930  0.59161918  0.40950958  1
  Pd  Pd165  1  0.20803960  0.40525151  0.60731026  1
  Pd  Pd166  1  0.00802716  0.79546046  0.40757463  1
  Pd  Pd167  1  0.20942491  0.20945984  0.20335478  1
  Pd  Pd168  1  0.20495462  0.00793143  0.80968669  1
  Pd  Pd169  1  -0.00036407  0.20349019  0.60428448  1
  Pd  Pd170  1  0.79986526  0.80189439  0.39534380  1
  Pd  Pd171  1  0.39096010  -0.00566735  -0.00003962  1
  Pd  Pd172  1  0.19081011  0.40327407  -0.00309585  1
  Pd  Pd173  1  0.39815562  0.60416360  0.59725293  1
  Pd  Pd174  1  -0.01139118  -0.01045228  0.79190306  1
  Pd  Pd175  1  -0.00559997  0.59912887  0.79998685  1
  Pd  Pd176  1  0.00718195  -0.00704203  0.60610934  1
  Pd  Pd177  1  0.80305577  0.60250079  0.40144296  1
  Pd  Pd178  1  0.18506934  0.19116009  -0.01084650  1
  Pd  Pd179  1  -0.00527391  -0.00553967  0.20081745  1
  Pd  Pd180  1  0.80396761  0.19338062  0.20644158  1
  Pd  Pd181  1  0.18610142  0.80381467  0.20404876  1
  Pd  Pd182  1  0.60032402  0.79003865  0.39782680  1
  Pd  Pd183  1  0.41010947  0.19340313  0.60358393  1
  Pd  Pd184  1  0.19307036  0.80322782  0.59387356  1
  Pd  Pd185  1  0.38992834  -0.00796458  0.39666190  1
  Pd  Pd186  1  0.18610774  0.61119639  -0.00561015  1
  Pd  Pd187  1  0.39960467  0.80305606  0.39909774  1
  Pd  Pd188  1  0.59269869  0.80695687  0.79487445  1
  Pd  Pd189  1  0.20797873  0.00486347  0.40588735  1
  Pd  Pd190  1  0.19359039  -0.00262310  0.59688291  1
  Pd  Pd191  1  0.40260727  0.40239136  0.59575710  1
  Pd  Pd192  1  0.80890157  -0.00928847  0.80559822  1
  Pd  Pd193  1  0.41024106  0.40761242  -0.00454375  1
  Pd  Pd194  1  0.81136529  -0.01058949  0.20989300  1
  Pd  Pd195  1  0.78963701  0.79947895  0.00545038  1
  Pd  Pd196  1  0.19352321  0.79785850  0.39957889  1
  Pd  Pd197  1  0.79910751  0.19008139  0.39287996  1
  Pd  Pd198  1  0.20981065  0.79007964  0.80585791  1
  Pd  Pd199  1  0.00628874  0.20440483  0.39896306  1
  Rh  Rh200  1  0.79894739  0.59869737  0.60696904  1
  Rh  Rh201  1  0.41361049  0.00162696  0.60888462  1
  Rh  Rh202  1  0.41029854  0.80676726  0.20704921  1
  Rh  Rh203  1  0.79426253  0.00195082  0.59361212  1
  Rh  Rh204  1  0.01263595  0.40287070  0.80537984  1
  Rh  Rh205  1  0.20980155  0.59692624  0.20221964  1
  Rh  Rh206  1  -0.00690559  0.20597267  0.19061736  1
  Rh  Rh207  1  0.79997571  0.20548972  0.79765025  1
  Rh  Rh208  1  0.39853314  0.19312450  0.79743096  1
  Rh  Rh209  1  0.60222705  0.40321060  0.20869689  1
  Rh  Rh210  1  0.39764107  0.39501357  0.79790375  1
  Rh  Rh211  1  -0.00395805  0.00423337  0.39700768  1
  Rh  Rh212  1  0.60341218  0.20186714  -0.00526585  1
  Rh  Rh213  1  0.58962031  -0.00776319  0.18887090  1
  Rh  Rh214  1  0.20647529  0.60693533  0.39413428  1
  Rh  Rh215  1  0.79442236  -0.00176477  -0.00738248  1
  Rh  Rh216  1  0.39876729  0.79388439  0.60468511  1
  Rh  Rh217  1  0.81498137  0.20820725  0.60909670  1
  Rh  Rh218  1  0.80136181  0.40313879  -0.00428751  1
  Rh  Rh219  1  0.20062329  0.59509686  0.60242626  1
  Rh  Rh220  1  0.20827219  0.59977333  0.79789100  1
  Rh  Rh221  1  0.60074556  0.39276409  0.79422568  1
  Rh  Rh222  1  0.41232354  0.20120945  0.00897203  1
  Rh  Rh223  1  0.79942027  0.79684861  0.60271907  1
  Rh  Rh224  1  0.80158925  0.40261301  0.20599203  1
  Rh  Rh225  1  0.40179370  0.40721163  0.40964747  1
  Rh  Rh226  1  -0.00816799  0.59684880  0.19874373  1
  Rh  Rh227  1  0.39791782  0.19298377  0.39588669  1
  Rh  Rh228  1  0.59485331  0.39815319  -0.00796040  1
  Rh  Rh229  1  0.80406513  0.60716843  0.19421551  1
  Rh  Rh230  1  0.80043777  0.40367135  0.39388707  1
  Rh  Rh231  1  0.00581237  0.01345661  0.00694577  1
  Rh  Rh232  1  0.60893588  0.59976547  0.79200787  1
  Rh  Rh233  1  0.60372060  0.79731813  0.60119663  1
  Rh  Rh234  1  0.61781765  0.00757259  0.41879802  1
  Rh  Rh235  1  0.19904790  0.19531290  0.59718962  1
  Rh  Rh236  1  0.59259878  -0.00793773  0.79418365  1
  Rh  Rh237  1  0.00576416  0.20777992  0.79936202  1
  Rh  Rh238  1  0.19276109  0.38825020  0.39167280  1
  Rh  Rh239  1  0.39531315  0.61074388  0.80170948  1
  Rh  Rh240  1  0.41157621  0.59068010  -0.00498516  1
  Rh  Rh241  1  0.79252580  0.39783600  0.60570174  1
  Rh  Rh242  1  0.00587154  0.78928327  0.00425578  1
  Rh  Rh243  1  0.39957138  0.80406339  -0.01107604  1
  Rh  Rh244  1  0.60246090  0.59885152  0.40596814  1
  Rh  Rh245  1  0.79202866  0.39271003  0.79579690  1
  Rh  Rh246  1  0.00057704  0.40905900  0.58933289  1
  Rh  Rh247  1  0.80035325  0.19964045  -0.00149956  1
  Rh  Rh248  1  0.39321368  0.60441853  0.40035777  1
  Rh  Rh249  1  0.60701656  0.80549431  0.00547053  1
