# generated using pymatgen
data_ZrScNbPdRh
_symmetry_space_group_name_H-M   'P 1'
_cell_length_a   16.55926466
_cell_length_b   16.55607652
_cell_length_c   16.55232226
_cell_angle_alpha   89.98205620
_cell_angle_beta   90.00959081
_cell_angle_gamma   89.98786809
_symmetry_Int_Tables_number   1
_chemical_formula_structural   ZrScNbPdRh
_chemical_formula_sum   'Zr50 Sc50 Nb50 Pd50 Rh50'
_cell_volume   4537.92556818
_cell_formula_units_Z   50
loop_
 _symmetry_equiv_pos_site_id
 _symmetry_equiv_pos_as_xyz
  1  'x, y, z'
loop_
 _atom_site_type_symbol
 _atom_site_label
 _atom_site_symmetry_multiplicity
 _atom_site_fract_x
 _atom_site_fract_y
 _atom_site_fract_z
 _atom_site_occupancy
  Zr  Zr0  1  0.30476970  0.90189794  0.10475273  1
  Zr  Zr1  1  0.10381909  0.29649384  0.29946574  1
  Zr  Zr2  1  0.30405530  0.30239114  0.89877695  1
  Zr  Zr3  1  0.49504786  0.90159686  0.89633680  1
  Zr  Zr4  1  0.30331626  0.50388990  0.88583404  1
  Zr  Zr5  1  0.10382967  0.49470236  0.09353269  1
  Zr  Zr6  1  0.10210014  0.49305797  0.30084474  1
  Zr  Zr7  1  0.69798929  0.69925942  0.50552897  1
  Zr  Zr8  1  0.69741911  0.09973313  0.31194752  1
  Zr  Zr9  1  0.10739205  0.49614389  0.69924412  1
  Zr  Zr10  1  0.68638062  0.10947037  0.90560823  1
  Zr  Zr11  1  0.89774585  0.89976113  0.29326049  1
  Zr  Zr12  1  0.50856817  0.71084313  0.69920439  1
  Zr  Zr13  1  0.70435922  0.90360573  0.49035351  1
  Zr  Zr14  1  0.70859397  0.10032361  0.09606945  1
  Zr  Zr15  1  0.29289834  0.69862603  0.89899460  1
  Zr  Zr16  1  0.49945629  0.69915772  0.30210406  1
  Zr  Zr17  1  0.70297070  0.10177678  0.50029187  1
  Zr  Zr18  1  0.49441457  0.70058974  0.89844730  1
  Zr  Zr19  1  0.69701001  0.49372342  0.09953497  1
  Zr  Zr20  1  0.51100498  0.50133631  0.90534458  1
  Zr  Zr21  1  0.09396331  0.10183312  0.09654682  1
  Zr  Zr22  1  0.29496950  0.31520210  0.69563980  1
  Zr  Zr23  1  0.50361573  0.49640481  0.10427458  1
  Zr  Zr24  1  0.90209429  0.29252151  0.70308322  1
  Zr  Zr25  1  0.70167208  0.90648757  0.90853907  1
  Zr  Zr26  1  0.09881916  0.89693863  0.70762239  1
  Zr  Zr27  1  0.69809997  0.71168410  0.30471878  1
  Zr  Zr28  1  0.69293012  0.49962738  0.70263668  1
  Zr  Zr29  1  0.10035414  0.29623423  0.09523461  1
  Zr  Zr30  1  0.89433136  0.70288077  0.49639670  1
  Zr  Zr31  1  0.09022229  0.70182316  0.50477264  1
  Zr  Zr32  1  0.30000295  0.49890190  0.09837578  1
  Zr  Zr33  1  0.50415562  0.10446444  0.08837641  1
  Zr  Zr34  1  0.90233432  0.10799590  0.89790902  1
  Zr  Zr35  1  0.30378362  0.49306899  0.29928354  1
  Zr  Zr36  1  0.89838207  0.50455896  0.50016782  1
  Zr  Zr37  1  0.70102120  0.49267526  0.29472737  1
  Zr  Zr38  1  0.30122165  0.10004686  0.29973746  1
  Zr  Zr39  1  0.70419636  0.29842488  0.30010721  1
  Zr  Zr40  1  0.09172578  0.10197748  0.70055669  1
  Zr  Zr41  1  0.30344880  0.29743836  0.30320310  1
  Zr  Zr42  1  0.10081515  0.29668783  0.69199662  1
  Zr  Zr43  1  0.70480333  0.10310835  0.69381183  1
  Zr  Zr44  1  0.50095998  0.09874148  0.49350590  1
  Zr  Zr45  1  0.30358957  0.69860121  0.30193666  1
  Zr  Zr46  1  0.89921233  0.70004570  0.90057539  1
  Zr  Zr47  1  0.50658531  0.28877292  0.90364455  1
  Zr  Zr48  1  0.11131952  0.50446128  0.90125686  1
  Zr  Zr49  1  0.08905855  0.49787000  0.49477736  1
  Sc  Sc50  1  0.49800094  0.50543085  0.70254761  1
  Sc  Sc51  1  0.30889336  0.70405958  0.09680683  1
  Sc  Sc52  1  0.09715506  0.09389019  0.90247328  1
  Sc  Sc53  1  0.49092403  0.89573219  0.50567337  1
  Sc  Sc54  1  0.09590993  0.10193801  0.30882564  1
  Sc  Sc55  1  0.31162108  0.90312677  0.70124770  1
  Sc  Sc56  1  0.89974133  0.29548207  0.29965910  1
  Sc  Sc57  1  0.49936365  0.49283001  0.30288214  1
  Sc  Sc58  1  0.31023642  0.69784170  0.70679647  1
  Sc  Sc59  1  0.49876828  0.90210354  0.30207074  1
  Sc  Sc60  1  0.88779016  0.49124475  0.09044591  1
  Sc  Sc61  1  0.89815342  0.29220271  0.10091265  1
  Sc  Sc62  1  0.89944944  0.10287067  0.69675570  1
  Sc  Sc63  1  0.69843965  0.88775621  0.69885481  1
  Sc  Sc64  1  0.50464177  0.30370776  0.49407460  1
  Sc  Sc65  1  0.29467478  0.09217894  0.69511432  1
  Sc  Sc66  1  0.70196601  0.69466107  0.11347090  1
  Sc  Sc67  1  0.49748023  0.69916515  0.10270753  1
  Sc  Sc68  1  0.89238687  0.70418006  0.10354809  1
  Sc  Sc69  1  0.31438591  0.49516132  0.49911609  1
  Sc  Sc70  1  0.29725805  0.89402944  0.89394898  1
  Sc  Sc71  1  0.10168176  0.29635102  0.49843164  1
  Sc  Sc72  1  0.29863103  0.29705464  0.10652546  1
  Sc  Sc73  1  0.49512763  0.30322187  0.09568364  1
  Sc  Sc74  1  0.69889698  0.70029145  0.89684701  1
  Sc  Sc75  1  0.90022448  0.89300649  0.90518772  1
  Sc  Sc76  1  0.88865121  0.69910273  0.29347724  1
  Sc  Sc77  1  0.30865350  0.90882656  0.30359768  1
  Sc  Sc78  1  0.50189232  0.69863443  0.49964137  1
  Sc  Sc79  1  0.50850796  0.30520113  0.69634080  1
  Sc  Sc80  1  0.69777710  0.29647405  0.70322043  1
  Sc  Sc81  1  0.89933611  0.10956087  0.29837697  1
  Sc  Sc82  1  0.29640733  0.09111758  0.49605454  1
  Sc  Sc83  1  0.29869175  0.10590388  0.10257205  1
  Sc  Sc84  1  0.90558043  0.29713661  0.49618554  1
  Sc  Sc85  1  0.31458298  0.70101141  0.50161498  1
  Sc  Sc86  1  0.50698717  0.49668496  0.49572244  1
  Sc  Sc87  1  0.29701801  0.09359733  0.89778267  1
  Sc  Sc88  1  0.09119774  0.70137988  0.29899128  1
  Sc  Sc89  1  0.89632277  0.49399502  0.30623128  1
  Sc  Sc90  1  0.09797486  0.91661080  0.49899339  1
  Sc  Sc91  1  0.89909055  0.90533022  0.69436824  1
  Sc  Sc92  1  0.89722324  0.09847965  0.50391188  1
  Sc  Sc93  1  0.90248915  0.70810073  0.68794222  1
  Sc  Sc94  1  0.49355037  0.09744928  0.30475750  1
  Sc  Sc95  1  0.10319741  0.70438608  0.08826272  1
  Sc  Sc96  1  0.89669019  0.30348619  0.90555138  1
  Sc  Sc97  1  0.69406345  0.29586952  0.50269698  1
  Sc  Sc98  1  0.49385928  0.89767921  0.10628863  1
  Sc  Sc99  1  0.49206103  0.09531497  0.69918931  1
  Nb  Nb100  1  0.70257184  0.49690937  0.50087703  1
  Nb  Nb101  1  0.10226019  0.70295793  0.70042111  1
  Nb  Nb102  1  0.50252095  0.29946030  0.30098333  1
  Nb  Nb103  1  0.69843797  0.90327483  0.29616334  1
  Nb  Nb104  1  0.90058056  0.49901933  0.89834576  1
  Nb  Nb105  1  0.49870854  0.10214737  0.90006185  1
  Nb  Nb106  1  0.90454575  0.10136984  0.10028136  1
  Nb  Nb107  1  0.09275423  0.90323915  0.10238752  1
  Nb  Nb108  1  0.29548333  0.89907843  0.50402471  1
  Nb  Nb109  1  0.09762187  0.90097319  0.29987945  1
  Nb  Nb110  1  0.89791516  0.89508447  0.50089453  1
  Nb  Nb111  1  0.70810780  0.49437905  0.90240704  1
  Nb  Nb112  1  0.89834319  0.90833577  0.10438725  1
  Nb  Nb113  1  0.10116135  0.88458456  0.90526778  1
  Nb  Nb114  1  0.10117176  0.70620946  0.89195887  1
  Nb  Nb115  1  0.70388773  0.90732721  0.10061252  1
  Nb  Nb116  1  0.10139303  0.10498140  0.50479131  1
  Nb  Nb117  1  0.09706889  0.30184437  0.90021229  1
  Nb  Nb118  1  0.30337972  0.29293276  0.50111270  1
  Nb  Nb119  1  0.50045873  0.90228317  0.69910035  1
  Nb  Nb120  1  0.70350047  0.30524991  0.10792036  1
  Nb  Nb121  1  0.69455349  0.30596946  0.90243302  1
  Nb  Nb122  1  0.29819456  0.50188280  0.70249366  1
  Nb  Nb123  1  0.69529965  0.69411982  0.70209520  1
  Nb  Nb124  1  0.90184894  0.49723334  0.70343266  1
  Nb  Nb125  1  0.20198986  0.60169770  0.59883299  1
  Nb  Nb126  1  0.80279326  0.59456704  0.79709127  1
  Nb  Nb127  1  0.19992315  0.60381275  0.40300442  1
  Nb  Nb128  1  0.00146455  0.59216433  0.19054647  1
  Nb  Nb129  1  0.20069357  0.79766540  0.59807873  1
  Nb  Nb130  1  0.60279921  0.80525524  0.00494113  1
  Nb  Nb131  1  0.80039429  0.40609270  0.60246828  1
  Nb  Nb132  1  0.39388380  0.20399965  0.59911842  1
  Nb  Nb133  1  0.18983727  -0.00558740  0.19988810  1
  Nb  Nb134  1  0.59985159  0.00079096  0.79728904  1
  Nb  Nb135  1  0.00002553  0.60029718  0.80025303  1
  Nb  Nb136  1  0.79275064  0.00316919  0.80328904  1
  Nb  Nb137  1  0.19728345  0.60279663  0.20191470  1
  Nb  Nb138  1  0.19522626  0.80499215  0.20496142  1
  Nb  Nb139  1  -0.00091303  0.59905151  -0.00701257  1
  Nb  Nb140  1  0.40117448  0.00131986  -0.00204733  1
  Nb  Nb141  1  0.59946779  -0.00408350  0.60281610  1
  Nb  Nb142  1  0.00122240  0.40476389  0.80369209  1
  Nb  Nb143  1  0.39587741  0.20179513  0.79487479  1
  Nb  Nb144  1  0.19926401  0.20405020  0.79741250  1
  Nb  Nb145  1  0.19656538  0.80296424  0.40211356  1
  Nb  Nb146  1  0.60664611  0.00171609  0.19805767  1
  Nb  Nb147  1  0.00358098  0.40088944  0.19562982  1
  Nb  Nb148  1  -0.00250866  0.80809109  0.39980234  1
  Nb  Nb149  1  0.60358395  0.19921285  0.20029410  1
  Pd  Pd150  1  0.59640417  0.40002109  0.80230982  1
  Pd  Pd151  1  -0.00745392  -0.00722964  0.80899103  1
  Pd  Pd152  1  0.79851539  0.39105418  0.40918592  1
  Pd  Pd153  1  -0.00437491  0.79657427  0.00838845  1
  Pd  Pd154  1  0.59351388  0.59652262  0.59717513  1
  Pd  Pd155  1  0.00078111  0.79251579  0.19674980  1
  Pd  Pd156  1  0.80249993  0.79902522  0.79340377  1
  Pd  Pd157  1  0.79900164  0.00787696  0.20543595  1
  Pd  Pd158  1  0.20972124  0.39618436  -0.00281476  1
  Pd  Pd159  1  0.20197630  0.40955512  0.58458832  1
  Pd  Pd160  1  0.81081340  0.00195210  0.39686872  1
  Pd  Pd161  1  0.40225123  0.59996608  0.60205467  1
  Pd  Pd162  1  0.19605644  0.00001681  0.80255603  1
  Pd  Pd163  1  -0.00446146  0.60682349  0.38824909  1
  Pd  Pd164  1  -0.00173754  0.00072547  0.59927263  1
  Pd  Pd165  1  0.00183283  0.59860068  0.60942249  1
  Pd  Pd166  1  0.79277923  0.79684748  0.01016899  1
  Pd  Pd167  1  0.39907378  0.40264648  -0.00186720  1
  Pd  Pd168  1  0.79876972  0.20667847  -0.00050346  1
  Pd  Pd169  1  0.79163570  0.60109857  0.39379093  1
  Pd  Pd170  1  0.39884521  0.59674300  -0.00126093  1
  Pd  Pd171  1  0.20256510  0.19908413  -0.00865799  1
  Pd  Pd172  1  0.60029688  0.80756673  0.19440323  1
  Pd  Pd173  1  -0.00751747  0.00207991  0.40102501  1
  Pd  Pd174  1  0.00092853  0.00924506  0.20415506  1
  Pd  Pd175  1  0.39844234  0.80548141  0.39941838  1
  Pd  Pd176  1  0.80257232  0.39830445  0.79669389  1
  Pd  Pd177  1  0.79452999  0.80193390  0.60152960  1
  Pd  Pd178  1  0.59885066  0.59871808  0.20713175  1
  Pd  Pd179  1  0.79959896  0.59724013  0.60886098  1
  Pd  Pd180  1  0.39958745  0.59738266  0.20045038  1
  Pd  Pd181  1  0.20574798  0.40252575  0.40973862  1
  Pd  Pd182  1  0.40880596  0.39763869  0.59799382  1
  Pd  Pd183  1  0.81370231  0.00454288  -0.00543140  1
  Pd  Pd184  1  -0.00754917  0.79882169  0.79602059  1
  Pd  Pd185  1  0.19635115  -0.00552555  0.60502961  1
  Pd  Pd186  1  0.41316719  0.39680188  0.79928516  1
  Pd  Pd187  1  -0.00700523  0.39535614  0.60224561  1
  Pd  Pd188  1  0.59368514  0.80692673  0.40623538  1
  Pd  Pd189  1  0.79789635  0.60284019  -0.00264940  1
  Pd  Pd190  1  0.41037335  0.19997971  0.20057870  1
  Pd  Pd191  1  0.60323343  0.80573432  0.80790945  1
  Pd  Pd192  1  -0.00382413  -0.00513007  -0.00665820  1
  Pd  Pd193  1  0.58900781  0.19289638  0.60277195  1
  Pd  Pd194  1  0.20314005  -0.00725110  0.00362160  1
  Pd  Pd195  1  0.20135378  0.19400588  0.40392495  1
  Pd  Pd196  1  0.20445766  0.80369543  0.00686171  1
  Pd  Pd197  1  0.60718642  0.60972022  0.00123475  1
  Pd  Pd198  1  0.79403649  0.19847588  0.80450375  1
  Pd  Pd199  1  0.60508723  0.59469049  0.39691874  1
  Rh  Rh200  1  0.19803832  0.60879555  0.79016449  1
  Rh  Rh201  1  0.00791945  0.20805507  0.80594819  1
  Rh  Rh202  1  0.40489259  0.00845781  0.19127875  1
  Rh  Rh203  1  0.60566051  0.39935724  0.39884324  1
  Rh  Rh204  1  0.39785911  0.79703235  0.20747282  1
  Rh  Rh205  1  0.80447133  0.80348939  0.39511468  1
  Rh  Rh206  1  0.40680092  0.60063713  0.79842101  1
  Rh  Rh207  1  0.80486900  0.58856627  0.20092808  1
  Rh  Rh208  1  0.60561972  0.59883962  0.80633477  1
  Rh  Rh209  1  0.81066199  0.39963193  0.20003137  1
  Rh  Rh210  1  0.40356212  0.00684667  0.80542320  1
  Rh  Rh211  1  -0.00337888  0.20055796  -0.00183439  1
  Rh  Rh212  1  0.38955989  0.19285052  -0.00849299  1
  Rh  Rh213  1  -0.00201450  0.39121706  0.39171690  1
  Rh  Rh214  1  0.39683503  0.79948531  0.60473177  1
  Rh  Rh215  1  0.60350180  0.39678470  0.00233968  1
  Rh  Rh216  1  0.59440487  0.39050965  0.20029938  1
  Rh  Rh217  1  0.59475740  -0.00743042  0.40138128  1
  Rh  Rh218  1  0.80449020  0.21345997  0.59456879  1
  Rh  Rh219  1  0.60322378  0.80430632  0.59454738  1
  Rh  Rh220  1  0.59754785  0.20478029  0.39276212  1
  Rh  Rh221  1  0.58705679  -0.01117505  0.00338214  1
  Rh  Rh222  1  0.39824325  0.79812400  0.79708711  1
  Rh  Rh223  1  0.40514461  0.00441736  0.59395825  1
  Rh  Rh224  1  0.59265812  0.19448481  0.79287508  1
  Rh  Rh225  1  -0.00226857  0.19505688  0.59271624  1
  Rh  Rh226  1  0.79698266  0.19646850  0.19885831  1
  Rh  Rh227  1  0.60923523  0.21505571  0.01361961  1
  Rh  Rh228  1  0.40067461  0.20310511  0.40623878  1
  Rh  Rh229  1  0.00215013  0.19662937  0.40527300  1
  Rh  Rh230  1  0.80162654  0.20148495  0.40589373  1
  Rh  Rh231  1  0.20016798  0.60808300  0.00416097  1
  Rh  Rh232  1  0.00743686  0.81335702  0.59350908  1
  Rh  Rh233  1  0.20524541  0.80074075  0.79144697  1
  Rh  Rh234  1  0.00238742  0.20423133  0.19904795  1
  Rh  Rh235  1  0.79491022  0.80811332  0.19638314  1
  Rh  Rh236  1  0.40235882  0.59509944  0.39959014  1
  Rh  Rh237  1  0.40480747  0.80520256  -0.00324680  1
  Rh  Rh238  1  0.39840727  -0.00417498  0.40763968  1
  Rh  Rh239  1  -0.00188186  0.39966408  -0.00069535  1
  Rh  Rh240  1  0.19303402  0.39241770  0.80372511  1
  Rh  Rh241  1  0.20076588  -0.00014303  0.39516175  1
  Rh  Rh242  1  0.79299987  -0.00634481  0.60496675  1
  Rh  Rh243  1  0.40179122  0.39533910  0.20056277  1
  Rh  Rh244  1  0.60689301  0.40500427  0.59701694  1
  Rh  Rh245  1  0.79467514  0.39151506  -0.00075692  1
  Rh  Rh246  1  0.19354425  0.18885019  0.20247839  1
  Rh  Rh247  1  0.19934695  0.39839309  0.19716216  1
  Rh  Rh248  1  0.20475794  0.19388103  0.60187470  1
  Rh  Rh249  1  0.40332987  0.39186551  0.39965149  1
