# generated using pymatgen
data_ZrScNbPdRh
_symmetry_space_group_name_H-M   'P 1'
_cell_length_a   16.55111923
_cell_length_b   16.55227236
_cell_length_c   16.55373221
_cell_angle_alpha   90.00834722
_cell_angle_beta   89.97624630
_cell_angle_gamma   90.02813791
_symmetry_Int_Tables_number   1
_chemical_formula_structural   ZrScNbPdRh
_chemical_formula_sum   'Zr50 Sc50 Nb50 Pd50 Rh50'
_cell_volume   4535.03686826
_cell_formula_units_Z   50
loop_
 _symmetry_equiv_pos_site_id
 _symmetry_equiv_pos_as_xyz
  1  'x, y, z'
loop_
 _atom_site_type_symbol
 _atom_site_label
 _atom_site_symmetry_multiplicity
 _atom_site_fract_x
 _atom_site_fract_y
 _atom_site_fract_z
 _atom_site_occupancy
  Zr  Zr0  1  0.70388548  0.29931610  0.50389214  1
  Zr  Zr1  1  0.29713410  0.70138303  0.49848334  1
  Zr  Zr2  1  0.30137077  0.89802807  0.69872026  1
  Zr  Zr3  1  0.69917681  0.89997053  0.70181681  1
  Zr  Zr4  1  0.29442015  0.90128948  0.30352194  1
  Zr  Zr5  1  0.50407231  0.48859485  0.91105879  1
  Zr  Zr6  1  0.90253130  0.29598937  0.49592183  1
  Zr  Zr7  1  0.30865158  0.30492216  0.70853693  1
  Zr  Zr8  1  0.09745995  0.31138703  0.10212762  1
  Zr  Zr9  1  0.30887986  0.70050654  0.10420787  1
  Zr  Zr10  1  0.09942258  0.70070195  0.69662100  1
  Zr  Zr11  1  0.11127503  0.50437538  0.70629790  1
  Zr  Zr12  1  0.10127993  0.49719557  0.91277412  1
  Zr  Zr13  1  0.90114126  0.29798627  0.10284120  1
  Zr  Zr14  1  0.90815664  0.29625303  0.29855291  1
  Zr  Zr15  1  0.89597010  0.29733637  0.90024345  1
  Zr  Zr16  1  0.49365588  0.30963976  0.29775856  1
  Zr  Zr17  1  0.09492846  0.10247934  0.49763592  1
  Zr  Zr18  1  0.31495709  0.90220288  0.09981722  1
  Zr  Zr19  1  0.69958524  0.50779777  0.09342906  1
  Zr  Zr20  1  0.89826832  0.69976007  0.89252433  1
  Zr  Zr21  1  0.09544608  0.29218302  0.69955133  1
  Zr  Zr22  1  0.29759829  0.48948473  0.89623494  1
  Zr  Zr23  1  0.90086338  0.89994582  0.48654110  1
  Zr  Zr24  1  0.49526035  0.70273667  0.49502597  1
  Zr  Zr25  1  0.70502154  0.68926255  0.89836297  1
  Zr  Zr26  1  0.49868699  0.10502674  0.29752969  1
  Zr  Zr27  1  0.09881987  0.90058054  0.90191996  1
  Zr  Zr28  1  0.90182976  0.90269133  0.88702863  1
  Zr  Zr29  1  0.89575858  0.50439952  0.69509045  1
  Zr  Zr30  1  0.09067567  0.89741451  0.30673679  1
  Zr  Zr31  1  0.10194666  0.70058836  0.89842231  1
  Zr  Zr32  1  0.29927275  0.70415953  0.90027549  1
  Zr  Zr33  1  0.69496850  0.30343050  0.69885325  1
  Zr  Zr34  1  0.90293752  0.50188237  0.30114635  1
  Zr  Zr35  1  0.50008016  0.90535640  0.90621424  1
  Zr  Zr36  1  0.30356384  0.09830226  0.10862863  1
  Zr  Zr37  1  0.30049087  0.10288009  0.70350508  1
  Zr  Zr38  1  0.69467972  0.10939062  0.49417350  1
  Zr  Zr39  1  0.70882026  0.09511160  0.09435923  1
  Zr  Zr40  1  0.09626525  0.10382308  0.70286629  1
  Zr  Zr41  1  0.69799128  0.89651331  0.10464413  1
  Zr  Zr42  1  0.10252607  0.89827362  0.49036088  1
  Zr  Zr43  1  0.10524802  0.08833782  0.30197601  1
  Zr  Zr44  1  0.09387157  0.09804707  0.90042830  1
  Zr  Zr45  1  0.70359683  0.49460851  0.70029681  1
  Zr  Zr46  1  0.30498926  0.30514535  0.49150669  1
  Zr  Zr47  1  0.10143157  0.29625862  0.49879753  1
  Zr  Zr48  1  0.29317277  0.10367014  0.90857843  1
  Zr  Zr49  1  0.51237836  0.29664333  0.49318908  1
  Sc  Sc50  1  0.70062364  0.49231119  0.89956033  1
  Sc  Sc51  1  0.50368743  0.10125874  0.70618565  1
  Sc  Sc52  1  0.10375811  0.09922828  0.09951001  1
  Sc  Sc53  1  0.88393436  0.69126223  0.10098452  1
  Sc  Sc54  1  0.49875428  0.08162301  0.09678237  1
  Sc  Sc55  1  0.11105948  0.29923173  0.90828438  1
  Sc  Sc56  1  0.89811679  0.50564141  0.50327448  1
  Sc  Sc57  1  0.89331802  0.69641515  0.70253573  1
  Sc  Sc58  1  0.50047757  0.50032315  0.10226651  1
  Sc  Sc59  1  0.88903661  0.70227937  0.30384429  1
  Sc  Sc60  1  0.89053247  0.10229031  0.48665736  1
  Sc  Sc61  1  0.30062973  0.69787068  0.29554643  1
  Sc  Sc62  1  0.29553283  0.89898523  0.49637693  1
  Sc  Sc63  1  0.89221186  0.09317651  0.90075561  1
  Sc  Sc64  1  0.09616497  0.89760697  0.71097209  1
  Sc  Sc65  1  0.70101289  0.90612978  0.49035853  1
  Sc  Sc66  1  0.10901120  0.69830366  0.30174879  1
  Sc  Sc67  1  0.69799112  0.10132319  0.70370873  1
  Sc  Sc68  1  0.90016803  0.69019675  0.49893055  1
  Sc  Sc69  1  0.30438101  0.49517858  0.30211263  1
  Sc  Sc70  1  0.70347433  0.29137924  0.08859014  1
  Sc  Sc71  1  0.10691179  0.49871833  0.29697476  1
  Sc  Sc72  1  0.89020018  0.29709374  0.70236954  1
  Sc  Sc73  1  0.29445762  0.69513913  0.69581709  1
  Sc  Sc74  1  0.89352421  0.50074676  0.91035625  1
  Sc  Sc75  1  0.49729829  0.71360731  0.70672752  1
  Sc  Sc76  1  0.09584242  0.90840777  0.10290136  1
  Sc  Sc77  1  0.49986300  0.70371569  0.90530221  1
  Sc  Sc78  1  0.69150941  0.70003658  0.10184487  1
  Sc  Sc79  1  0.68756364  0.30177709  0.30476527  1
  Sc  Sc80  1  0.49475973  0.50349199  0.49414976  1
  Sc  Sc81  1  0.50147252  0.69503986  0.30354391  1
  Sc  Sc82  1  0.29981477  0.10390741  0.50035179  1
  Sc  Sc83  1  0.69092529  0.29865412  0.89761974  1
  Sc  Sc84  1  0.29511323  0.29799869  0.10307392  1
  Sc  Sc85  1  0.68751797  0.50672083  0.29948037  1
  Sc  Sc86  1  0.89997286  0.09909166  0.29338535  1
  Sc  Sc87  1  0.89447335  0.91645626  0.10022794  1
  Sc  Sc88  1  0.69420845  0.69996382  0.49210579  1
  Sc  Sc89  1  0.50144611  0.90021727  0.70772386  1
  Sc  Sc90  1  0.70655344  0.89631761  0.29430854  1
  Sc  Sc91  1  0.70353214  0.09654769  0.30065094  1
  Sc  Sc92  1  0.09698236  0.51259661  0.49526986  1
  Sc  Sc93  1  0.11402240  0.69404363  0.09810343  1
  Sc  Sc94  1  0.69880177  0.90984158  0.89585594  1
  Sc  Sc95  1  0.10569715  0.30368378  0.30364296  1
  Sc  Sc96  1  0.29908029  0.50353680  0.10043241  1
  Sc  Sc97  1  0.50552708  0.89595257  0.29820763  1
  Sc  Sc98  1  0.89690909  0.09817077  0.71128415  1
  Sc  Sc99  1  0.69986742  0.49985217  0.50417476  1
  Nb  Nb100  1  0.50060591  0.70764083  0.09820501  1
  Nb  Nb101  1  0.50565819  0.49106348  0.30313292  1
  Nb  Nb102  1  0.50428703  0.88827337  0.10047662  1
  Nb  Nb103  1  0.30623064  0.29417817  0.30140925  1
  Nb  Nb104  1  0.50177918  0.29659159  0.90248817  1
  Nb  Nb105  1  0.30886181  0.50424372  0.51510561  1
  Nb  Nb106  1  0.49557757  0.50048102  0.69727097  1
  Nb  Nb107  1  0.50243004  0.10003576  0.50121369  1
  Nb  Nb108  1  0.50784293  0.30139899  0.70278526  1
  Nb  Nb109  1  0.50346324  0.30312452  0.09151328  1
  Nb  Nb110  1  0.49619695  0.90131832  0.49946072  1
  Nb  Nb111  1  0.30677096  0.50152410  0.69634474  1
  Nb  Nb112  1  0.90587111  0.49272349  0.10083453  1
  Nb  Nb113  1  0.89931297  0.10364422  0.09771018  1
  Nb  Nb114  1  0.69816597  0.70159201  0.29318276  1
  Nb  Nb115  1  0.68684946  0.09891340  0.90420195  1
  Nb  Nb116  1  0.30720690  0.09940630  0.29530152  1
  Nb  Nb117  1  0.70077890  0.69839653  0.70142749  1
  Nb  Nb118  1  0.30068015  0.90242794  0.89881641  1
  Nb  Nb119  1  0.09772541  0.71020485  0.50089662  1
  Nb  Nb120  1  0.50923833  0.10062664  0.90243866  1
  Nb  Nb121  1  0.30908131  0.29927278  0.90812426  1
  Nb  Nb122  1  0.90140881  0.89812529  0.29476398  1
  Nb  Nb123  1  0.09191047  0.49781664  0.09961494  1
  Nb  Nb124  1  0.89536177  0.89987224  0.69805877  1
  Nb  Nb125  1  0.40380100  0.00382468  0.40032274  1
  Nb  Nb126  1  0.59550730  0.60476776  0.60898012  1
  Nb  Nb127  1  0.80014797  0.80226801  0.60102275  1
  Nb  Nb128  1  0.40671587  0.20114773  -0.00331956  1
  Nb  Nb129  1  0.59396164  0.20035504  0.19231723  1
  Nb  Nb130  1  0.40145904  0.59276225  0.79800909  1
  Nb  Nb131  1  0.20458419  0.40422404  0.59992451  1
  Nb  Nb132  1  0.40132447  0.80405913  0.59468068  1
  Nb  Nb133  1  0.40982557  0.20447765  0.60127610  1
  Nb  Nb134  1  0.00645086  0.40076660  0.60480424  1
  Nb  Nb135  1  0.39702658  0.00279138  0.81072822  1
  Nb  Nb136  1  0.00323143  0.59388707  0.80261558  1
  Nb  Nb137  1  -0.00535481  0.80422241  0.59769394  1
  Nb  Nb138  1  -0.00622005  0.79587804  0.19592281  1
  Nb  Nb139  1  0.59372969  0.00025922  0.59302173  1
  Nb  Nb140  1  0.19226134  0.00187617  0.60079970  1
  Nb  Nb141  1  0.80168724  0.40219912  0.20097194  1
  Nb  Nb142  1  0.80307866  0.80341465  -0.00355219  1
  Nb  Nb143  1  -0.00322465  -0.00475149  0.59903953  1
  Nb  Nb144  1  -0.00483515  0.19819564  0.00460350  1
  Nb  Nb145  1  0.00038864  0.59907005  0.19442512  1
  Nb  Nb146  1  0.80092459  0.39930935  0.39506152  1
  Nb  Nb147  1  0.00066627  0.40351008  0.80002555  1
  Nb  Nb148  1  0.59449386  0.59484895  0.79463190  1
  Nb  Nb149  1  -0.00607976  0.79938125  0.00476593  1
  Pd  Pd150  1  0.60343106  0.80218030  0.39422510  1
  Pd  Pd151  1  0.79709793  0.00019691  0.59713986  1
  Pd  Pd152  1  0.20188053  -0.00538712  0.00734225  1
  Pd  Pd153  1  -0.00049575  0.40488033  0.40770917  1
  Pd  Pd154  1  0.80009495  0.59352721  0.20265576  1
  Pd  Pd155  1  0.40821987  0.20550021  0.18757855  1
  Pd  Pd156  1  0.19986772  0.20746437  0.80649986  1
  Pd  Pd157  1  0.78791849  0.20698337  0.20668627  1
  Pd  Pd158  1  0.40198724  0.59881739  -0.00561910  1
  Pd  Pd159  1  0.00321873  0.60751127  0.38979980  1
  Pd  Pd160  1  0.40826411  0.19482472  0.80379511  1
  Pd  Pd161  1  0.59655917  -0.00082444  0.39916943  1
  Pd  Pd162  1  0.61020133  0.80089164  -0.00818924  1
  Pd  Pd163  1  0.40816610  0.59495802  0.20547445  1
  Pd  Pd164  1  0.39695463  0.59462481  0.39302933  1
  Pd  Pd165  1  0.20768968  0.59688678  0.00143581  1
  Pd  Pd166  1  0.19710681  0.39140835  0.79784953  1
  Pd  Pd167  1  -0.00491999  0.60936635  0.00334920  1
  Pd  Pd168  1  0.78820268  0.19617687  0.80645306  1
  Pd  Pd169  1  0.59064295  0.60384089  0.19765164  1
  Pd  Pd170  1  0.20375122  0.79937599  0.79718630  1
  Pd  Pd171  1  0.40161025  0.19572981  0.40451960  1
  Pd  Pd172  1  0.20296632  0.19579743  0.39188801  1
  Pd  Pd173  1  0.01204306  0.19278734  0.19817079  1
  Pd  Pd174  1  0.79581739  0.79736195  0.40275223  1
  Pd  Pd175  1  0.19562663  0.20267168  0.20560108  1
  Pd  Pd176  1  0.79525210  0.39797780  0.00410162  1
  Pd  Pd177  1  0.78944916  0.59411081  0.39988787  1
  Pd  Pd178  1  0.40956260  0.40244600  0.80298274  1
  Pd  Pd179  1  0.39533733  0.40149596  0.19335103  1
  Pd  Pd180  1  0.40553151  0.79987908  0.21064065  1
  Pd  Pd181  1  0.21172980  0.20385759  0.59977431  1
  Pd  Pd182  1  0.60114989  0.80340323  0.59535064  1
  Pd  Pd183  1  0.20513690  0.41045326  0.40822378  1
  Pd  Pd184  1  0.19320195  0.80417759  0.19696736  1
  Pd  Pd185  1  0.40019273  0.80039201  -0.00332701  1
  Pd  Pd186  1  0.19685884  0.80879422  0.00964129  1
  Pd  Pd187  1  0.20180984  -0.00086461  0.79660814  1
  Pd  Pd188  1  -0.01564241  0.19398787  0.60196442  1
  Pd  Pd189  1  0.59276839  0.40961867  0.59349262  1
  Pd  Pd190  1  0.60131420  0.00252519  0.19932810  1
  Pd  Pd191  1  0.40567906  0.39146989  0.59572711  1
  Pd  Pd192  1  0.60518168  0.79539135  0.81022334  1
  Pd  Pd193  1  0.19671732  0.59828208  0.59306583  1
  Pd  Pd194  1  0.20058148  -0.00686926  0.19833916  1
  Pd  Pd195  1  0.20717557  0.40232154  0.20028464  1
  Pd  Pd196  1  0.61043369  0.39385926  0.18932546  1
  Pd  Pd197  1  0.20626227  0.59691896  0.40211256  1
  Pd  Pd198  1  0.80338112  0.19205071  0.60397507  1
  Pd  Pd199  1  0.40008276  0.00169223  0.60072239  1
  Rh  Rh200  1  0.20339578  0.79151271  0.39526580  1
  Rh  Rh201  1  0.59529392  0.00273694  0.79456507  1
  Rh  Rh202  1  0.59902190  0.19767198  0.38870028  1
  Rh  Rh203  1  0.59436948  0.19526536  0.00616871  1
  Rh  Rh204  1  0.60520950  0.40742598  0.40609352  1
  Rh  Rh205  1  0.39590588  0.39348079  0.00794365  1
  Rh  Rh206  1  0.79746162  -0.00252634  -0.00462444  1
  Rh  Rh207  1  0.80586095  0.39979454  0.80241320  1
  Rh  Rh208  1  0.81177159  0.39499370  0.58966836  1
  Rh  Rh209  1  0.40592632  -0.01097402  0.20850860  1
  Rh  Rh210  1  -0.00933233  0.00725331  0.39842293  1
  Rh  Rh211  1  0.20645682  0.60106033  0.80768190  1
  Rh  Rh212  1  0.59628282  0.79245913  0.20393741  1
  Rh  Rh213  1  0.79739681  0.58922920  0.80101256  1
  Rh  Rh214  1  0.39184494  0.80168737  0.79833550  1
  Rh  Rh215  1  -0.00077822  0.20527063  0.81328196  1
  Rh  Rh216  1  0.80164334  0.00128880  0.20311940  1
  Rh  Rh217  1  0.59473469  0.60219044  -0.00391179  1
  Rh  Rh218  1  0.39942966  0.40596749  0.39995463  1
  Rh  Rh219  1  0.00580874  0.19470774  0.38967729  1
  Rh  Rh220  1  -0.00295832  -0.00160943  0.20089870  1
  Rh  Rh221  1  0.59605005  0.19341794  0.60849337  1
  Rh  Rh222  1  0.19731558  0.59457596  0.19777617  1
  Rh  Rh223  1  0.60144805  0.20358821  0.79920614  1
  Rh  Rh224  1  0.39544131  0.80717006  0.40141578  1
  Rh  Rh225  1  0.79216808  0.00494351  0.80049771  1
  Rh  Rh226  1  -0.00061203  0.00214236  0.79439961  1
  Rh  Rh227  1  -0.00316800  0.00308786  0.00034426  1
  Rh  Rh228  1  0.20029706  0.20168134  0.00612641  1
  Rh  Rh229  1  0.80408433  0.80079687  0.19292135  1
  Rh  Rh230  1  0.60728357  0.39791706  0.00366217  1
  Rh  Rh231  1  -0.00183017  0.79155272  0.79694957  1
  Rh  Rh232  1  -0.00007031  0.40697193  0.20737320  1
  Rh  Rh233  1  0.39941306  0.00452045  -0.00562021  1
  Rh  Rh234  1  0.60333806  -0.00583513  0.00603787  1
  Rh  Rh235  1  -0.00371316  0.78972525  0.39474223  1
  Rh  Rh236  1  0.59922097  0.59915399  0.40221174  1
  Rh  Rh237  1  0.79620768  0.20909430  0.39044923  1
  Rh  Rh238  1  0.00508970  0.60342337  0.60539296  1
  Rh  Rh239  1  -0.00176527  0.38982919  -0.00766849  1
  Rh  Rh240  1  0.21333920  0.01058468  0.40501147  1
  Rh  Rh241  1  0.80173217  -0.00015685  0.39009010  1
  Rh  Rh242  1  0.79391700  0.80401047  0.79947287  1
  Rh  Rh243  1  0.79897272  0.60037487  0.00091868  1
  Rh  Rh244  1  0.19700254  0.80840109  0.59975754  1
  Rh  Rh245  1  0.59465005  0.40180817  0.80047113  1
  Rh  Rh246  1  0.78611798  0.61206549  0.59392733  1
  Rh  Rh247  1  0.20779124  0.40077379  0.00902685  1
  Rh  Rh248  1  0.40870805  0.61482796  0.60878628  1
  Rh  Rh249  1  0.80278662  0.19349545  -0.00841975  1
