# generated using pymatgen
data_ZrScNbPdRh
_symmetry_space_group_name_H-M   'P 1'
_cell_length_a   16.55459706
_cell_length_b   16.55804823
_cell_length_c   16.55261376
_cell_angle_alpha   89.98022979
_cell_angle_beta   89.99588585
_cell_angle_gamma   90.00272384
_symmetry_Int_Tables_number   1
_chemical_formula_structural   ZrScNbPdRh
_chemical_formula_sum   'Zr50 Sc50 Nb50 Pd50 Rh50'
_cell_volume   4537.26673807
_cell_formula_units_Z   50
loop_
 _symmetry_equiv_pos_site_id
 _symmetry_equiv_pos_as_xyz
  1  'x, y, z'
loop_
 _atom_site_type_symbol
 _atom_site_label
 _atom_site_symmetry_multiplicity
 _atom_site_fract_x
 _atom_site_fract_y
 _atom_site_fract_z
 _atom_site_occupancy
  Zr  Zr0  1  0.30059433  0.70172572  0.90647642  1
  Zr  Zr1  1  0.10882001  0.29524004  0.49615783  1
  Zr  Zr2  1  0.89936619  0.29369953  0.70740131  1
  Zr  Zr3  1  0.11072864  0.90778047  0.69565296  1
  Zr  Zr4  1  0.49321612  0.49686375  0.90104314  1
  Zr  Zr5  1  0.49363602  0.70105781  0.29696448  1
  Zr  Zr6  1  0.71182474  0.70496008  0.50819287  1
  Zr  Zr7  1  0.69604456  0.30517431  0.09847629  1
  Zr  Zr8  1  0.30359508  0.30387106  0.89800349  1
  Zr  Zr9  1  0.50086533  0.09657743  0.49892488  1
  Zr  Zr10  1  0.50154208  0.70915541  0.09359018  1
  Zr  Zr11  1  0.49860145  0.29547136  0.09656898  1
  Zr  Zr12  1  0.49593785  0.69891849  0.70070385  1
  Zr  Zr13  1  0.89834645  0.50154906  0.29999705  1
  Zr  Zr14  1  0.90386095  0.90171105  0.10664804  1
  Zr  Zr15  1  0.90788002  0.70408280  0.50412568  1
  Zr  Zr16  1  0.29522242  0.89996770  0.70178557  1
  Zr  Zr17  1  0.30714729  0.50097102  0.29723975  1
  Zr  Zr18  1  0.70057691  0.49686622  0.49516880  1
  Zr  Zr19  1  0.50059050  0.90155886  0.09608224  1
  Zr  Zr20  1  0.09445319  0.30309056  0.69470712  1
  Zr  Zr21  1  0.90406896  0.09897734  0.88619459  1
  Zr  Zr22  1  0.50055202  0.49923082  0.49971125  1
  Zr  Zr23  1  0.69596385  0.48967263  0.70374189  1
  Zr  Zr24  1  0.90739073  0.09603948  0.10693202  1
  Zr  Zr25  1  0.30068431  0.90725938  0.09654953  1
  Zr  Zr26  1  0.49898399  0.50215806  0.30574024  1
  Zr  Zr27  1  0.29375335  0.90549205  0.50277319  1
  Zr  Zr28  1  0.89723416  0.70519259  0.89680355  1
  Zr  Zr29  1  0.91022084  0.29779343  0.09938907  1
  Zr  Zr30  1  0.30125973  0.10157431  0.90527651  1
  Zr  Zr31  1  0.70614657  0.30375113  0.30712246  1
  Zr  Zr32  1  0.10482637  0.10465618  0.10440189  1
  Zr  Zr33  1  0.90086230  0.90218704  0.90079051  1
  Zr  Zr34  1  0.69743943  0.10162938  0.70041810  1
  Zr  Zr35  1  0.10161797  0.29900894  0.10292061  1
  Zr  Zr36  1  0.10120917  0.09469220  0.89871136  1
  Zr  Zr37  1  0.90420474  0.49632180  0.90071403  1
  Zr  Zr38  1  0.70838699  0.70704576  0.29297591  1
  Zr  Zr39  1  0.50146531  0.89908161  0.29707485  1
  Zr  Zr40  1  0.69318187  0.29490967  0.69746351  1
  Zr  Zr41  1  0.10146323  0.70232300  0.30028035  1
  Zr  Zr42  1  0.89232430  0.70670813  0.69613261  1
  Zr  Zr43  1  0.50434012  0.49221474  0.09780562  1
  Zr  Zr44  1  0.70067871  0.49945666  0.30615178  1
  Zr  Zr45  1  0.30713751  0.30083292  0.69882055  1
  Zr  Zr46  1  0.29934199  0.69385228  0.10139981  1
  Zr  Zr47  1  0.10156607  0.49420682  0.30595631  1
  Zr  Zr48  1  0.29579857  0.10494211  0.49319518  1
  Zr  Zr49  1  0.30224219  0.10308074  0.29714065  1
  Sc  Sc50  1  0.29608651  0.90010682  0.89500259  1
  Sc  Sc51  1  0.49350994  0.89595719  0.90241167  1
  Sc  Sc52  1  0.48541542  0.09767172  0.09468978  1
  Sc  Sc53  1  0.90023915  0.90132838  0.70496617  1
  Sc  Sc54  1  0.09761390  0.89379547  0.30344515  1
  Sc  Sc55  1  0.09245287  0.10051144  0.70115850  1
  Sc  Sc56  1  0.89572161  0.69001791  0.10850247  1
  Sc  Sc57  1  0.10133720  0.90203666  0.50174210  1
  Sc  Sc58  1  0.90861995  0.90776087  0.48742284  1
  Sc  Sc59  1  0.09199749  0.30086246  0.90331059  1
  Sc  Sc60  1  0.70177263  0.89470295  0.69654944  1
  Sc  Sc61  1  0.69078033  0.49750603  0.90030473  1
  Sc  Sc62  1  0.29491607  0.71072991  0.70217124  1
  Sc  Sc63  1  0.69741890  0.30589133  0.88703112  1
  Sc  Sc64  1  0.71672542  0.90380172  0.29911786  1
  Sc  Sc65  1  0.49529850  0.30323226  0.89689429  1
  Sc  Sc66  1  0.28827727  0.10070450  0.70881381  1
  Sc  Sc67  1  0.50255824  0.69177364  0.50145254  1
  Sc  Sc68  1  0.09914148  0.90420063  0.09734652  1
  Sc  Sc69  1  0.09752413  0.71459546  0.69273863  1
  Sc  Sc70  1  0.50437717  0.08544842  0.89934649  1
  Sc  Sc71  1  0.09351727  0.50259344  0.09446527  1
  Sc  Sc72  1  0.30185505  0.89654576  0.30549659  1
  Sc  Sc73  1  0.69258983  0.90493858  0.89231968  1
  Sc  Sc74  1  0.29840064  0.29992521  0.30565335  1
  Sc  Sc75  1  0.90657687  0.48779871  0.69900417  1
  Sc  Sc76  1  0.10158494  0.70321652  0.10498722  1
  Sc  Sc77  1  0.09533340  0.90337232  0.90058348  1
  Sc  Sc78  1  0.30911655  0.70097018  0.49886333  1
  Sc  Sc79  1  0.29610497  0.09994933  0.10109544  1
  Sc  Sc80  1  0.50630401  0.90549685  0.70777605  1
  Sc  Sc81  1  0.90809439  0.29899258  0.30263805  1
  Sc  Sc82  1  0.10119521  0.70981832  0.90529510  1
  Sc  Sc83  1  0.89910580  0.50240497  0.49924099  1
  Sc  Sc84  1  0.09547324  0.49101625  0.69542979  1
  Sc  Sc85  1  0.10202378  0.29846633  0.30201923  1
  Sc  Sc86  1  0.90253518  0.29004013  0.50677739  1
  Sc  Sc87  1  0.50605207  0.10532026  0.69849001  1
  Sc  Sc88  1  0.30325686  0.28683405  0.09884938  1
  Sc  Sc89  1  0.69912192  0.70584785  0.69794385  1
  Sc  Sc90  1  0.68881299  0.69532091  0.89851625  1
  Sc  Sc91  1  0.50413929  0.90847905  0.49604705  1
  Sc  Sc92  1  0.30672300  0.49673077  0.49708579  1
  Sc  Sc93  1  0.69403615  0.89308164  0.10619068  1
  Sc  Sc94  1  0.90543162  0.70889696  0.29939014  1
  Sc  Sc95  1  0.10365944  0.49588130  0.91163412  1
  Sc  Sc96  1  0.49126670  0.30690959  0.29593185  1
  Sc  Sc97  1  0.69674231  0.29758639  0.50228920  1
  Sc  Sc98  1  0.09555040  0.49045252  0.50151371  1
  Sc  Sc99  1  0.49793473  0.49511977  0.69264776  1
  Nb  Nb100  1  0.69837796  0.09439338  0.49924749  1
  Nb  Nb101  1  0.49131270  0.29443378  0.51339214  1
  Nb  Nb102  1  0.50284390  0.30167088  0.69273734  1
  Nb  Nb103  1  0.70088879  0.90405322  0.50429363  1
  Nb  Nb104  1  0.09336442  0.09643804  0.50051054  1
  Nb  Nb105  1  0.70087565  0.69798747  0.10160217  1
  Nb  Nb106  1  0.89546789  0.08063641  0.30464682  1
  Nb  Nb107  1  0.29106188  0.50391024  0.08623352  1
  Nb  Nb108  1  0.90401594  0.90522687  0.29691291  1
  Nb  Nb109  1  0.29943772  0.50727376  0.70185202  1
  Nb  Nb110  1  0.30013927  0.69281943  0.30104494  1
  Nb  Nb111  1  0.48953973  0.69875967  0.90015387  1
  Nb  Nb112  1  0.70414496  0.09923846  0.29934044  1
  Nb  Nb113  1  0.09984528  0.10802948  0.30293454  1
  Nb  Nb114  1  0.69997030  0.09737844  0.90444221  1
  Nb  Nb115  1  0.29724036  0.50246004  0.90228177  1
  Nb  Nb116  1  0.50125180  0.09779101  0.30258887  1
  Nb  Nb117  1  0.10020752  0.70015949  0.49996733  1
  Nb  Nb118  1  0.89820766  0.30351791  0.89763429  1
  Nb  Nb119  1  0.30126096  0.29797192  0.49762170  1
  Nb  Nb120  1  0.89349415  0.50037331  0.09785370  1
  Nb  Nb121  1  0.89960240  0.10537884  0.68905266  1
  Nb  Nb122  1  0.90493579  0.09665076  0.50265869  1
  Nb  Nb123  1  0.70149142  0.09945712  0.09957145  1
  Nb  Nb124  1  0.70471357  0.50516271  0.09994817  1
  Nb  Nb125  1  0.60482492  0.60181696  0.19476797  1
  Nb  Nb126  1  0.79673107  0.80045060  0.00194538  1
  Nb  Nb127  1  0.80270000  0.40184618  0.19384007  1
  Nb  Nb128  1  0.79728780  0.39365798  0.60326593  1
  Nb  Nb129  1  0.60162116  0.00885366  0.20176085  1
  Nb  Nb130  1  0.79977149  0.19626686  0.20255072  1
  Nb  Nb131  1  0.19721680  0.59708566  0.79766474  1
  Nb  Nb132  1  0.00152374  0.60252018  0.79920516  1
  Nb  Nb133  1  0.39507273  0.00044729  0.60033711  1
  Nb  Nb134  1  0.80213944  0.00776400  0.59389367  1
  Nb  Nb135  1  0.60174936  0.19335318  0.20253450  1
  Nb  Nb136  1  0.79719215  0.00196087  0.00057780  1
  Nb  Nb137  1  0.39325720  0.59877587  0.80370817  1
  Nb  Nb138  1  0.19882848  0.60166617  0.59806513  1
  Nb  Nb139  1  0.60887461  0.80184662  0.40172880  1
  Nb  Nb140  1  0.20401228  0.40470932  0.19381415  1
  Nb  Nb141  1  0.59970006  0.19317649  0.39654384  1
  Nb  Nb142  1  0.80312743  0.39909516  0.00194949  1
  Nb  Nb143  1  0.80483457  0.59700277  0.79806014  1
  Nb  Nb144  1  0.20076847  0.60364341  0.40174604  1
  Nb  Nb145  1  0.80005167  0.18482001  0.40104407  1
  Nb  Nb146  1  0.40089544  0.80946547  0.60147248  1
  Nb  Nb147  1  0.20756343  0.40550680  0.80022624  1
  Nb  Nb148  1  0.79949161  0.19937863  -0.00197780  1
  Nb  Nb149  1  0.60624254  0.19430684  0.00125208  1
  Pd  Pd150  1  0.19227700  0.21123816  0.80162508  1
  Pd  Pd151  1  0.00649296  0.80164904  0.79656242  1
  Pd  Pd152  1  0.00270192  0.40530778  0.19841796  1
  Pd  Pd153  1  0.59020103  0.80422124  0.59358432  1
  Pd  Pd154  1  0.59547129  0.59988223  0.00355095  1
  Pd  Pd155  1  0.39469335  0.40315539  0.59888212  1
  Pd  Pd156  1  0.19897077  0.20381127  -0.00451359  1
  Pd  Pd157  1  -0.00845607  0.79324996  0.01102585  1
  Pd  Pd158  1  0.38863820  0.39917734  0.18936338  1
  Pd  Pd159  1  0.60618272  0.80355790  -0.00810299  1
  Pd  Pd160  1  0.20901476  0.40491611  0.60101822  1
  Pd  Pd161  1  0.59688801  0.80044217  0.80417939  1
  Pd  Pd162  1  0.80456970  0.80605749  0.40443489  1
  Pd  Pd163  1  0.80041892  0.58731955  0.60969487  1
  Pd  Pd164  1  -0.00321997  0.19328933  -0.00690820  1
  Pd  Pd165  1  0.59118809  0.19994276  0.81034258  1
  Pd  Pd166  1  0.60581258  0.59905621  0.60339324  1
  Pd  Pd167  1  0.40850301  0.19403924  0.80088314  1
  Pd  Pd168  1  0.60438311  0.40228047  0.20423116  1
  Pd  Pd169  1  0.39286230  0.39800334  0.00745451  1
  Pd  Pd170  1  0.20166100  0.79400284  0.40469767  1
  Pd  Pd171  1  -0.00303557  0.81433898  0.59805795  1
  Pd  Pd172  1  0.20510483  0.80543150  0.19925923  1
  Pd  Pd173  1  0.20059941  0.80596429  0.00320750  1
  Pd  Pd174  1  0.60738765  -0.00514669  0.39146955  1
  Pd  Pd175  1  0.40833592  0.80128253  0.40883993  1
  Pd  Pd176  1  0.40836285  0.59714470  0.18832357  1
  Pd  Pd177  1  0.19561173  -0.00371267  0.20813756  1
  Pd  Pd178  1  0.40244649  0.00076270  0.20233104  1
  Pd  Pd179  1  0.80633378  0.60842619  0.39937041  1
  Pd  Pd180  1  0.79648176  0.19832229  0.80412281  1
  Pd  Pd181  1  0.79634284  -0.00089478  0.79439270  1
  Pd  Pd182  1  0.60508671  0.61291562  0.39482558  1
  Pd  Pd183  1  0.40649296  0.20555527  0.39598515  1
  Pd  Pd184  1  0.01477884  -0.00037897  0.20793269  1
  Pd  Pd185  1  0.19399059  0.59266176  0.20315494  1
  Pd  Pd186  1  -0.00641354  0.39508074  0.40786105  1
  Pd  Pd187  1  0.00371855  0.60097477  0.40063847  1
  Pd  Pd188  1  0.19377999  0.00113537  0.39279967  1
  Pd  Pd189  1  0.39419909  0.18836283  0.60674605  1
  Pd  Pd190  1  0.38986771  0.80145770  0.19659964  1
  Pd  Pd191  1  0.00280722  0.59772326  0.20094181  1
  Pd  Pd192  1  0.59495117  0.59665875  0.79478328  1
  Pd  Pd193  1  0.40026299  0.00382152  0.79459942  1
  Pd  Pd194  1  0.00297704  0.60747314  -0.00250536  1
  Pd  Pd195  1  -0.00596752  0.19434749  0.39730091  1
  Pd  Pd196  1  0.58810797  0.38568170  0.40785911  1
  Pd  Pd197  1  0.00646199  0.59844985  0.60721699  1
  Pd  Pd198  1  0.79637470  0.60105860  -0.01067117  1
  Pd  Pd199  1  0.19761693  0.19622733  0.60251304  1
  Rh  Rh200  1  -0.00399833  0.19126768  0.21284597  1
  Rh  Rh201  1  0.60375117  0.00050099  0.79672865  1
  Rh  Rh202  1  0.79884861  -0.00233605  0.40803120  1
  Rh  Rh203  1  0.79676325  0.59501690  0.20699901  1
  Rh  Rh204  1  0.39377979  -0.00021673  0.40196397  1
  Rh  Rh205  1  0.20794152  0.40454900  0.39519073  1
  Rh  Rh206  1  0.40253565  0.39326525  0.40860558  1
  Rh  Rh207  1  0.78831448  0.79219555  0.80916465  1
  Rh  Rh208  1  0.20674632  0.79084601  0.59040726  1
  Rh  Rh209  1  -0.00472526  0.40003287  0.00182264  1
  Rh  Rh210  1  0.19165666  0.60711279  -0.00356140  1
  Rh  Rh211  1  0.39414597  -0.00163157  -0.00527492  1
  Rh  Rh212  1  0.39355566  0.80413870  0.00236773  1
  Rh  Rh213  1  0.80734015  0.80278544  0.19174715  1
  Rh  Rh214  1  0.40908711  0.19551163  -0.01000507  1
  Rh  Rh215  1  0.40252369  0.79483737  0.79620922  1
  Rh  Rh216  1  0.40300895  0.19836718  0.20487419  1
  Rh  Rh217  1  0.00008684  0.80012149  0.19931171  1
  Rh  Rh218  1  0.00869735  0.19882464  0.59750255  1
  Rh  Rh219  1  0.00243370  0.20071881  0.79965427  1
  Rh  Rh220  1  0.60189790  -0.00038512  0.60659982  1
  Rh  Rh221  1  0.60298174  0.39721692  0.59382687  1
  Rh  Rh222  1  0.00053892  0.80132968  0.40032064  1
  Rh  Rh223  1  0.60182935  -0.00050481  0.00777436  1
  Rh  Rh224  1  0.20189743  0.20743065  0.20600070  1
  Rh  Rh225  1  0.00057222  -0.00051961  0.79053477  1
  Rh  Rh226  1  0.79500617  0.19753993  0.59353538  1
  Rh  Rh227  1  0.19847828  0.19867062  0.39822993  1
  Rh  Rh228  1  0.79609168  -0.00220170  0.19153418  1
  Rh  Rh229  1  0.20102877  0.01427511  0.59679667  1
  Rh  Rh230  1  0.81103447  0.81822160  0.59238638  1
  Rh  Rh231  1  0.19628755  -0.00059730  0.80489877  1
  Rh  Rh232  1  0.39894039  0.40617431  0.79166963  1
  Rh  Rh233  1  0.60288724  0.80071045  0.20915112  1
  Rh  Rh234  1  0.40445242  0.59907136  0.00124882  1
  Rh  Rh235  1  0.39522375  0.60051531  0.40202378  1
  Rh  Rh236  1  0.80952907  0.38977012  0.40883913  1
  Rh  Rh237  1  0.80114027  0.40468966  0.79910810  1
  Rh  Rh238  1  0.39234800  0.60994888  0.60767847  1
  Rh  Rh239  1  0.01082098  0.00352088  0.39499320  1
  Rh  Rh240  1  -0.00242483  0.00546883  -0.00115148  1
  Rh  Rh241  1  0.01192993  0.40444447  0.80780179  1
  Rh  Rh242  1  0.58621592  0.39752992  0.79801463  1
  Rh  Rh243  1  0.19828944  0.00035948  -0.00181528  1
  Rh  Rh244  1  0.19395671  0.79939878  0.80491146  1
  Rh  Rh245  1  -0.00492315  -0.00112973  0.60372046  1
  Rh  Rh246  1  0.60521696  0.39482378  -0.00780156  1
  Rh  Rh247  1  0.59904135  0.19903416  0.59187354  1
  Rh  Rh248  1  0.20390063  0.39175431  0.00256512  1
  Rh  Rh249  1  -0.00969125  0.39198970  0.59264270  1
