# generated using pymatgen
data_ZrScNbPdRh
_symmetry_space_group_name_H-M   'P 1'
_cell_length_a   16.55378488
_cell_length_b   16.55757317
_cell_length_c   16.55448809
_cell_angle_alpha   90.02348536
_cell_angle_beta   89.96985676
_cell_angle_gamma   90.02828848
_symmetry_Int_Tables_number   1
_chemical_formula_structural   ZrScNbPdRh
_chemical_formula_sum   'Zr50 Sc50 Nb50 Pd50 Rh50'
_cell_volume   4537.42642924
_cell_formula_units_Z   50
loop_
 _symmetry_equiv_pos_site_id
 _symmetry_equiv_pos_as_xyz
  1  'x, y, z'
loop_
 _atom_site_type_symbol
 _atom_site_label
 _atom_site_symmetry_multiplicity
 _atom_site_fract_x
 _atom_site_fract_y
 _atom_site_fract_z
 _atom_site_occupancy
  Zr  Zr0  1  0.89796279  0.09939674  0.70154602  1
  Zr  Zr1  1  0.69816569  0.89832028  0.70111438  1
  Zr  Zr2  1  0.10518832  0.49827031  0.89632208  1
  Zr  Zr3  1  0.70453707  0.29780959  0.50263575  1
  Zr  Zr4  1  0.09939635  0.70103036  0.30286207  1
  Zr  Zr5  1  0.29072732  0.90079508  0.89661690  1
  Zr  Zr6  1  0.50187688  0.70237825  0.50621130  1
  Zr  Zr7  1  0.89633589  0.10207752  0.09397889  1
  Zr  Zr8  1  0.29976269  0.30030940  0.10061800  1
  Zr  Zr9  1  0.70478816  0.89584214  0.10437699  1
  Zr  Zr10  1  0.49467179  0.90117790  0.09965649  1
  Zr  Zr11  1  0.30241146  0.09878676  0.90181191  1
  Zr  Zr12  1  0.09094200  0.89476478  0.50141440  1
  Zr  Zr13  1  0.50347620  0.30234233  0.50366597  1
  Zr  Zr14  1  0.69466430  0.30440509  0.89412678  1
  Zr  Zr15  1  0.70327175  0.10208509  0.09457419  1
  Zr  Zr16  1  0.50064248  0.49280033  0.90037560  1
  Zr  Zr17  1  0.29467246  0.09928325  0.09661125  1
  Zr  Zr18  1  0.09434281  0.90386770  0.10233287  1
  Zr  Zr19  1  0.89833720  0.50272182  0.88803303  1
  Zr  Zr20  1  0.29691355  0.69701924  0.50479319  1
  Zr  Zr21  1  0.30071619  0.69676498  0.09835160  1
  Zr  Zr22  1  0.69941419  0.29568525  0.09221078  1
  Zr  Zr23  1  0.49717266  0.09867532  0.49975965  1
  Zr  Zr24  1  0.69721935  0.68605749  0.09824846  1
  Zr  Zr25  1  0.89539549  0.50094671  0.49763028  1
  Zr  Zr26  1  0.29132285  0.31082714  0.50311152  1
  Zr  Zr27  1  0.89708898  0.89660863  0.49139538  1
  Zr  Zr28  1  0.90159461  0.48073169  0.30342676  1
  Zr  Zr29  1  0.29533723  0.70296760  0.70674432  1
  Zr  Zr30  1  0.50235971  0.70341340  0.70949658  1
  Zr  Zr31  1  0.70145141  0.29769670  0.70035601  1
  Zr  Zr32  1  0.89896779  0.50312924  0.10492420  1
  Zr  Zr33  1  0.09993488  0.69584982  0.10525788  1
  Zr  Zr34  1  0.30109837  0.90207172  0.09965602  1
  Zr  Zr35  1  0.70864418  0.90488433  0.30695515  1
  Zr  Zr36  1  0.09871921  0.09958970  0.90496004  1
  Zr  Zr37  1  0.30720175  0.69623618  0.90103814  1
  Zr  Zr38  1  0.10688837  0.69314924  0.89071448  1
  Zr  Zr39  1  0.10150941  0.30483993  0.89470349  1
  Zr  Zr40  1  0.69480343  0.90068701  0.50377965  1
  Zr  Zr41  1  0.89938290  0.09593096  0.90023316  1
  Zr  Zr42  1  0.10836971  0.89977628  0.70455230  1
  Zr  Zr43  1  0.89712680  0.90381522  0.09645431  1
  Zr  Zr44  1  0.89495174  0.29897310  0.11001655  1
  Zr  Zr45  1  0.09899506  0.91404176  0.30159828  1
  Zr  Zr46  1  0.30302237  0.49409844  0.30350449  1
  Zr  Zr47  1  0.90358736  0.90520654  0.90122275  1
  Zr  Zr48  1  0.49439701  0.09834648  0.30131985  1
  Zr  Zr49  1  0.09195432  0.30090310  0.30852497  1
  Sc  Sc50  1  0.90422209  0.50048920  0.70195514  1
  Sc  Sc51  1  0.70626124  0.50003814  0.71674046  1
  Sc  Sc52  1  0.70604093  0.09710268  0.69491559  1
  Sc  Sc53  1  0.29710388  0.50151443  0.90186423  1
  Sc  Sc54  1  0.50454166  0.49793585  0.50258003  1
  Sc  Sc55  1  0.49825288  0.49934954  0.69708712  1
  Sc  Sc56  1  0.29821730  0.49584211  0.68759709  1
  Sc  Sc57  1  0.69735305  0.49997768  0.49020705  1
  Sc  Sc58  1  0.10024649  0.30863626  0.69134701  1
  Sc  Sc59  1  0.70487468  0.09285852  0.50321637  1
  Sc  Sc60  1  0.70229575  0.69609751  0.49991906  1
  Sc  Sc61  1  0.10229530  0.69662667  0.69086355  1
  Sc  Sc62  1  0.89492506  0.70762131  0.10533714  1
  Sc  Sc63  1  0.49739472  0.89149459  0.91157398  1
  Sc  Sc64  1  0.69420353  0.70104974  0.70714015  1
  Sc  Sc65  1  0.50370477  0.30648135  0.70463831  1
  Sc  Sc66  1  0.69326935  0.50449006  0.29345320  1
  Sc  Sc67  1  0.89932018  0.90702105  0.70347418  1
  Sc  Sc68  1  0.90877128  0.70165948  0.49934369  1
  Sc  Sc69  1  0.89861022  0.70320669  0.30682991  1
  Sc  Sc70  1  0.90511415  0.29645190  0.89667514  1
  Sc  Sc71  1  0.09827334  0.90798596  0.90218848  1
  Sc  Sc72  1  0.70910673  0.30490887  0.29162690  1
  Sc  Sc73  1  0.50235444  0.30809027  0.08838017  1
  Sc  Sc74  1  0.28670423  0.09583296  0.29823144  1
  Sc  Sc75  1  0.29179235  0.10441466  0.49663809  1
  Sc  Sc76  1  0.89326714  0.70009162  0.90047720  1
  Sc  Sc77  1  0.50295361  0.29484522  0.89374452  1
  Sc  Sc78  1  0.29504381  0.90607409  0.50682103  1
  Sc  Sc79  1  0.10753230  0.50434344  0.50048580  1
  Sc  Sc80  1  0.10829937  0.29894538  0.10200205  1
  Sc  Sc81  1  0.89754720  0.89864125  0.29789506  1
  Sc  Sc82  1  0.90874358  0.30014110  0.69503374  1
  Sc  Sc83  1  0.09494432  0.50074858  0.29513958  1
  Sc  Sc84  1  0.30855474  0.30708143  0.90323920  1
  Sc  Sc85  1  0.71022718  0.89507307  0.89952843  1
  Sc  Sc86  1  0.30070330  0.70731242  0.29692101  1
  Sc  Sc87  1  0.90156694  0.09980168  0.50908799  1
  Sc  Sc88  1  0.09807022  0.09644803  0.49079086  1
  Sc  Sc89  1  0.29332350  0.49459166  0.09473005  1
  Sc  Sc90  1  0.29646854  0.30056493  0.30174987  1
  Sc  Sc91  1  0.89768642  0.08844354  0.29885635  1
  Sc  Sc92  1  0.09615343  0.10202118  0.69370289  1
  Sc  Sc93  1  0.51325991  0.49866051  0.10178401  1
  Sc  Sc94  1  0.49283587  0.31063297  0.30115258  1
  Sc  Sc95  1  0.29526141  0.09478677  0.69444251  1
  Sc  Sc96  1  0.70207257  0.69919431  0.29829631  1
  Sc  Sc97  1  0.91135460  0.30128975  0.49545589  1
  Sc  Sc98  1  0.50129321  0.10931984  0.70247526  1
  Sc  Sc99  1  0.90407654  0.69178888  0.69614608  1
  Nb  Nb100  1  0.50388118  0.09790627  0.90249933  1
  Nb  Nb101  1  0.49020302  0.89313778  0.30066677  1
  Nb  Nb102  1  0.69991973  0.50176831  0.09024068  1
  Nb  Nb103  1  0.69956850  0.09938333  0.29855135  1
  Nb  Nb104  1  0.10105083  0.29396559  0.50482743  1
  Nb  Nb105  1  0.90075136  0.29918737  0.30106396  1
  Nb  Nb106  1  0.49922444  0.69658465  0.90937745  1
  Nb  Nb107  1  0.09867022  0.50419397  0.70898208  1
  Nb  Nb108  1  0.30507716  0.89430578  0.30338716  1
  Nb  Nb109  1  0.69656885  0.68507788  0.90058032  1
  Nb  Nb110  1  0.09858451  0.09779557  0.29103264  1
  Nb  Nb111  1  0.30216634  0.50340656  0.50176952  1
  Nb  Nb112  1  0.09653277  0.50041383  0.09661226  1
  Nb  Nb113  1  0.50020008  0.70314411  0.09632660  1
  Nb  Nb114  1  0.50439457  0.90081904  0.69806655  1
  Nb  Nb115  1  0.49929632  0.09586646  0.09433492  1
  Nb  Nb116  1  0.69661608  0.10707792  0.90185990  1
  Nb  Nb117  1  0.29769962  0.29602496  0.69141829  1
  Nb  Nb118  1  0.70549281  0.50532209  0.90507980  1
  Nb  Nb119  1  0.49320949  0.70474734  0.29976818  1
  Nb  Nb120  1  0.10064069  0.70563085  0.49892002  1
  Nb  Nb121  1  0.30205824  0.90167076  0.70704569  1
  Nb  Nb122  1  0.49960858  0.89939285  0.50406578  1
  Nb  Nb123  1  0.10453382  0.09992403  0.11101652  1
  Nb  Nb124  1  0.49999940  0.50848193  0.29963034  1
  Nb  Nb125  1  0.40174053  0.60056686  0.39857640  1
  Nb  Nb126  1  0.59467459  0.19397917  0.20011273  1
  Nb  Nb127  1  -0.00161745  0.40554081  0.00321106  1
  Nb  Nb128  1  0.19749923  0.79670514  0.00089644  1
  Nb  Nb129  1  0.40241167  0.80883990  0.60914047  1
  Nb  Nb130  1  0.00164553  0.59607214  0.00062743  1
  Nb  Nb131  1  0.20354637  0.20428955  0.79623812  1
  Nb  Nb132  1  0.00298257  0.80018724  0.79892105  1
  Nb  Nb133  1  0.59015244  0.80448610  0.39711659  1
  Nb  Nb134  1  0.00092741  0.19742472  0.20485726  1
  Nb  Nb135  1  0.59531558  0.00104063  0.80606615  1
  Nb  Nb136  1  0.40049201  -0.00957923  0.40023151  1
  Nb  Nb137  1  0.80123840  0.40598071  -0.00271349  1
  Nb  Nb138  1  0.79968731  0.19943818  0.39500719  1
  Nb  Nb139  1  0.40727925  0.60066884  0.20339766  1
  Nb  Nb140  1  0.59292319  0.80082295  0.20311772  1
  Nb  Nb141  1  0.39532043  0.20705946  0.59819104  1
  Nb  Nb142  1  0.40339108  0.19636364  0.19390599  1
  Nb  Nb143  1  0.60518452  0.19764553  0.39328371  1
  Nb  Nb144  1  0.59597186  -0.00074098  0.20167842  1
  Nb  Nb145  1  0.19861647  0.80230968  0.40179378  1
  Nb  Nb146  1  0.79897447  0.80098167  0.60018137  1
  Nb  Nb147  1  0.79907307  0.19760325  0.80065783  1
  Nb  Nb148  1  0.40611151  -0.00421135  0.79752508  1
  Nb  Nb149  1  0.80129814  0.40101689  0.59867849  1
  Pd  Pd150  1  0.60458953  0.39395042  0.39093262  1
  Pd  Pd151  1  0.20628434  0.60504669  0.39518110  1
  Pd  Pd152  1  0.80851560  0.79274825  0.79243463  1
  Pd  Pd153  1  -0.00114528  0.59540830  0.40012399  1
  Pd  Pd154  1  0.20497066  0.80259743  0.59766292  1
  Pd  Pd155  1  0.20771867  0.59191416  0.20340576  1
  Pd  Pd156  1  0.80164544  0.59976743  0.39350732  1
  Pd  Pd157  1  0.39663712  0.19761693  0.39905004  1
  Pd  Pd158  1  0.39297432  0.19518853  0.79231180  1
  Pd  Pd159  1  0.78970072  0.40770325  0.19381973  1
  Pd  Pd160  1  0.59741356  0.19463705  0.59716883  1
  Pd  Pd161  1  0.00001290  -0.00316229  0.60114458  1
  Pd  Pd162  1  -0.00786504  0.60332657  0.20219025  1
  Pd  Pd163  1  0.40691424  0.58842388  0.01052855  1
  Pd  Pd164  1  0.79562036  0.79158992  -0.00148238  1
  Pd  Pd165  1  0.59863264  0.80484910  0.81473866  1
  Pd  Pd166  1  0.19974664  0.20598547  -0.00772228  1
  Pd  Pd167  1  -0.00459287  0.80189989  0.20652828  1
  Pd  Pd168  1  0.19892562  0.80670752  0.20181221  1
  Pd  Pd169  1  0.60854173  0.79564077  0.00088200  1
  Pd  Pd170  1  0.20996067  0.39630035  0.79222943  1
  Pd  Pd171  1  0.00745373  0.59486175  0.59646675  1
  Pd  Pd172  1  0.39504808  0.00522337  0.20512396  1
  Pd  Pd173  1  0.00698089  0.78891216  -0.00867883  1
  Pd  Pd174  1  0.40439571  0.40255490  0.19145129  1
  Pd  Pd175  1  0.59509816  0.60919234  0.39824847  1
  Pd  Pd176  1  -0.00796125  0.18916929  0.39667652  1
  Pd  Pd177  1  0.00435824  0.20085310  0.79216254  1
  Pd  Pd178  1  0.19206825  0.40318358  0.40175100  1
  Pd  Pd179  1  0.00145137  0.40799063  0.59523919  1
  Pd  Pd180  1  0.59362684  -0.00182278  0.39617814  1
  Pd  Pd181  1  0.60732863  -0.00491070  -0.00237235  1
  Pd  Pd182  1  0.40581371  0.20262017  0.00334170  1
  Pd  Pd183  1  0.39921890  0.00388111  0.60086443  1
  Pd  Pd184  1  0.79308730  0.59852876  0.60484796  1
  Pd  Pd185  1  0.39706652  0.59049383  0.79658930  1
  Pd  Pd186  1  0.59573320  0.59441714  0.80349689  1
  Pd  Pd187  1  0.80443830  0.59705266  0.20937862  1
  Pd  Pd188  1  0.19766182  0.20057462  0.39756849  1
  Pd  Pd189  1  0.40128450  0.60474342  0.60119528  1
  Pd  Pd190  1  0.00426731  0.20673594  0.01081356  1
  Pd  Pd191  1  0.60217127  0.39447124  0.20175207  1
  Pd  Pd192  1  0.60808553  0.59476678  0.60674599  1
  Pd  Pd193  1  0.59744154  0.00849123  0.60859207  1
  Pd  Pd194  1  0.19439365  0.40091607  0.20333562  1
  Pd  Pd195  1  0.39480405  0.40247767  0.79473944  1
  Pd  Pd196  1  0.40582872  0.80534377  0.80267474  1
  Pd  Pd197  1  0.40374518  0.40701099  0.40816100  1
  Pd  Pd198  1  0.19440746  0.00294607  0.59745443  1
  Pd  Pd199  1  0.61145780  0.41097675  0.60770579  1
  Rh  Rh200  1  0.80596967  0.38810470  0.79657683  1
  Rh  Rh201  1  0.40237434  0.40368219  0.00074851  1
  Rh  Rh202  1  0.19381237  -0.00394658  0.00580832  1
  Rh  Rh203  1  0.59349470  0.60789068  0.19821276  1
  Rh  Rh204  1  0.19516968  0.59643508  0.60308385  1
  Rh  Rh205  1  -0.00461369  0.00236340  0.39931956  1
  Rh  Rh206  1  0.79921205  0.60803815  0.79665742  1
  Rh  Rh207  1  0.80801761  0.20949764  0.59963089  1
  Rh  Rh208  1  0.59275614  0.20082629  0.00300242  1
  Rh  Rh209  1  0.00000893  0.40070664  0.80131322  1
  Rh  Rh210  1  0.60666753  0.40392941  -0.00802859  1
  Rh  Rh211  1  0.59181374  0.59658300  -0.00508701  1
  Rh  Rh212  1  0.80389546  -0.01154535  0.59675810  1
  Rh  Rh213  1  0.80045393  0.21037266  -0.01499106  1
  Rh  Rh214  1  0.00446693  0.00764294  0.00726903  1
  Rh  Rh215  1  0.80226413  0.19206532  0.20873891  1
  Rh  Rh216  1  0.40162183  0.39442968  0.59749069  1
  Rh  Rh217  1  0.40169639  0.79416573  0.18913803  1
  Rh  Rh218  1  0.19364284  0.79975850  0.80482165  1
  Rh  Rh219  1  0.19299335  0.40670014  0.59966680  1
  Rh  Rh220  1  0.00683571  0.80153741  0.39362296  1
  Rh  Rh221  1  0.19828953  0.19836708  0.60065105  1
  Rh  Rh222  1  0.00488777  0.19903555  0.59652802  1
  Rh  Rh223  1  0.19940794  0.20593828  0.20727478  1
  Rh  Rh224  1  0.79837772  0.00118502  0.19563642  1
  Rh  Rh225  1  0.39941400  -0.00064534  -0.00907021  1
  Rh  Rh226  1  -0.00919440  0.80041551  0.60886214  1
  Rh  Rh227  1  0.39080958  0.80011146  -0.00009039  1
  Rh  Rh228  1  0.79461584  -0.00103600  -0.00432118  1
  Rh  Rh229  1  0.79099003  0.79542679  0.40774617  1
  Rh  Rh230  1  0.60270185  0.79675527  0.59659601  1
  Rh  Rh231  1  0.60753270  0.19208639  0.79554504  1
  Rh  Rh232  1  0.19636364  0.39702309  -0.00005771  1
  Rh  Rh233  1  0.39540536  0.80040905  0.41775874  1
  Rh  Rh234  1  -0.00066945  0.60720229  0.80251463  1
  Rh  Rh235  1  0.00761572  0.40347882  0.40905117  1
  Rh  Rh236  1  0.80547660  0.00864079  0.40664832  1
  Rh  Rh237  1  0.19347510  0.60421240  0.00164853  1
  Rh  Rh238  1  -0.00875525  0.00610392  0.19409330  1
  Rh  Rh239  1  0.20639821  -0.00667892  0.20040519  1
  Rh  Rh240  1  0.20147371  0.01295108  0.79882637  1
  Rh  Rh241  1  0.00628800  -0.00415515  0.79701181  1
  Rh  Rh242  1  0.59885774  0.40706552  0.80050362  1
  Rh  Rh243  1  0.80820721  0.59833835  -0.00113013  1
  Rh  Rh244  1  0.79530091  0.79726833  0.20261108  1
  Rh  Rh245  1  0.20872318  0.59203107  0.79097397  1
  Rh  Rh246  1  0.79838010  0.39324974  0.40563081  1
  Rh  Rh247  1  0.20569052  -0.00784389  0.39988928  1
  Rh  Rh248  1  0.78937928  0.01004648  0.80701795  1
  Rh  Rh249  1  0.00705360  0.38885621  0.19410954  1
