# generated using pymatgen
data_ZrScNbPdRh
_symmetry_space_group_name_H-M   'P 1'
_cell_length_a   16.56222626
_cell_length_b   16.56103032
_cell_length_c   16.56218170
_cell_angle_alpha   90.02642792
_cell_angle_beta   89.95104085
_cell_angle_gamma   89.99245786
_symmetry_Int_Tables_number   1
_chemical_formula_structural   ZrScNbPdRh
_chemical_formula_sum   'Zr50 Sc50 Nb50 Pd50 Rh50'
_cell_volume   4542.79775212
_cell_formula_units_Z   50
loop_
 _symmetry_equiv_pos_site_id
 _symmetry_equiv_pos_as_xyz
  1  'x, y, z'
loop_
 _atom_site_type_symbol
 _atom_site_label
 _atom_site_symmetry_multiplicity
 _atom_site_fract_x
 _atom_site_fract_y
 _atom_site_fract_z
 _atom_site_occupancy
  Zr  Zr0  1  0.90479977  0.09998102  0.09986251  1
  Zr  Zr1  1  0.09727209  0.89027681  0.49518773  1
  Zr  Zr2  1  0.49040615  0.09284747  0.70023816  1
  Zr  Zr3  1  0.69419675  0.49933520  0.29728505  1
  Zr  Zr4  1  0.69504748  0.49870569  0.50137893  1
  Zr  Zr5  1  0.50003322  0.89780532  0.89035169  1
  Zr  Zr6  1  0.89487175  0.89466391  0.10774404  1
  Zr  Zr7  1  0.70416253  0.70166825  0.10260340  1
  Zr  Zr8  1  0.90139949  0.70222241  0.09860224  1
  Zr  Zr9  1  0.29200171  0.10510654  0.29058855  1
  Zr  Zr10  1  0.08832327  0.09112701  0.90945630  1
  Zr  Zr11  1  0.90319599  0.89927875  0.49784964  1
  Zr  Zr12  1  0.70002034  0.69972752  0.70877581  1
  Zr  Zr13  1  0.50142573  0.70088822  0.89189199  1
  Zr  Zr14  1  0.89809687  0.70117095  0.70593801  1
  Zr  Zr15  1  0.09676348  0.89266656  0.29928388  1
  Zr  Zr16  1  0.70264106  0.09548206  0.10946653  1
  Zr  Zr17  1  0.69773995  0.90305864  0.09962261  1
  Zr  Zr18  1  0.09810914  0.70661234  0.50040437  1
  Zr  Zr19  1  0.70151167  0.29815402  0.89418575  1
  Zr  Zr20  1  0.70038086  0.50167006  0.69765666  1
  Zr  Zr21  1  0.10208345  0.10075903  0.70114865  1
  Zr  Zr22  1  0.29613163  0.50523002  0.89976352  1
  Zr  Zr23  1  0.30194822  0.89388769  0.29548504  1
  Zr  Zr24  1  0.29885513  0.30156299  0.10901767  1
  Zr  Zr25  1  0.30435611  0.50217834  0.70029288  1
  Zr  Zr26  1  0.49789794  0.69527862  0.49376306  1
  Zr  Zr27  1  0.10603252  0.30763356  0.09793920  1
  Zr  Zr28  1  0.29667408  0.09965302  0.10320327  1
  Zr  Zr29  1  0.29643455  0.09882616  0.49952379  1
  Zr  Zr30  1  0.69344712  0.69477441  0.30275760  1
  Zr  Zr31  1  0.49448746  0.90129532  0.49264339  1
  Zr  Zr32  1  0.09747285  0.89355042  0.89790903  1
  Zr  Zr33  1  0.70645364  0.09964395  0.48837267  1
  Zr  Zr34  1  0.90331654  0.69712056  0.90541100  1
  Zr  Zr35  1  0.89174643  0.09819189  0.29534955  1
  Zr  Zr36  1  0.10495256  0.10186809  0.10618254  1
  Zr  Zr37  1  0.49822762  0.29994264  0.29326249  1
  Zr  Zr38  1  0.29786238  0.10091886  0.69535333  1
  Zr  Zr39  1  0.10224699  0.30374184  0.70112346  1
  Zr  Zr40  1  0.50733604  0.09784104  0.10044758  1
  Zr  Zr41  1  0.69098946  0.49983679  0.90017587  1
  Zr  Zr42  1  0.30057042  0.30938233  0.49722449  1
  Zr  Zr43  1  0.50465144  0.30247228  0.90574482  1
  Zr  Zr44  1  0.29750369  0.50331860  0.30532041  1
  Zr  Zr45  1  0.29655805  0.89410970  0.10459094  1
  Zr  Zr46  1  0.70999488  0.09905989  0.69859651  1
  Zr  Zr47  1  0.09728763  0.70520768  0.70259182  1
  Zr  Zr48  1  0.90396574  0.29510498  0.70861112  1
  Zr  Zr49  1  0.29420563  0.88953154  0.90196991  1
  Sc  Sc50  1  0.30250458  0.90234622  0.69850599  1
  Sc  Sc51  1  0.29640048  0.69247139  0.70321865  1
  Sc  Sc52  1  0.29434566  0.68977193  0.49739826  1
  Sc  Sc53  1  0.10287322  0.50600845  0.71847182  1
  Sc  Sc54  1  0.70908986  0.89935435  0.29679965  1
  Sc  Sc55  1  0.50265941  0.30441424  0.10347524  1
  Sc  Sc56  1  0.71479515  0.89887629  0.49596909  1
  Sc  Sc57  1  0.69835723  0.89927826  0.90682238  1
  Sc  Sc58  1  0.29992576  0.29349777  0.70725504  1
  Sc  Sc59  1  0.10356706  0.30021597  0.49229661  1
  Sc  Sc60  1  0.10140116  0.50426410  0.29567532  1
  Sc  Sc61  1  0.88517687  0.49768238  0.49578628  1
  Sc  Sc62  1  0.91463996  0.10126322  0.69832012  1
  Sc  Sc63  1  0.49368356  0.30524206  0.69397935  1
  Sc  Sc64  1  0.69666734  0.30037859  0.49449855  1
  Sc  Sc65  1  0.69706384  0.09501268  0.90537881  1
  Sc  Sc66  1  0.70244576  0.70527000  0.90104352  1
  Sc  Sc67  1  0.70840609  0.89748345  0.70147715  1
  Sc  Sc68  1  0.69261678  0.30257718  0.10032066  1
  Sc  Sc69  1  0.10828829  0.30706400  0.30237448  1
  Sc  Sc70  1  0.10262942  0.70217590  0.30145314  1
  Sc  Sc71  1  0.30026841  0.10700883  0.89175845  1
  Sc  Sc72  1  0.49430643  0.49781752  0.89927196  1
  Sc  Sc73  1  0.10336453  0.70088602  0.89755155  1
  Sc  Sc74  1  0.69849832  0.50159610  0.10716450  1
  Sc  Sc75  1  0.50410556  0.10302359  0.29092157  1
  Sc  Sc76  1  0.49745997  0.50422677  0.70082329  1
  Sc  Sc77  1  0.69810136  0.30706285  0.69126297  1
  Sc  Sc78  1  0.50161777  0.09590427  0.89579605  1
  Sc  Sc79  1  0.30065512  0.89949635  0.49701946  1
  Sc  Sc80  1  0.29929694  0.30594904  0.89925519  1
  Sc  Sc81  1  0.90216905  0.70439703  0.28971731  1
  Sc  Sc82  1  0.69985754  0.28725234  0.29800741  1
  Sc  Sc83  1  0.09780644  0.09993372  0.50607525  1
  Sc  Sc84  1  0.49071347  0.69399323  0.30035872  1
  Sc  Sc85  1  0.49112628  0.10020803  0.49462925  1
  Sc  Sc86  1  0.89971740  0.49102416  0.29770684  1
  Sc  Sc87  1  0.09723481  0.90045018  0.09487916  1
  Sc  Sc88  1  0.09902093  0.69239691  0.10772541  1
  Sc  Sc89  1  0.89795485  0.30560787  0.49212221  1
  Sc  Sc90  1  0.49907007  0.90167663  0.10287014  1
  Sc  Sc91  1  0.09318558  0.89347372  0.69664933  1
  Sc  Sc92  1  0.91106264  0.90011407  0.91056162  1
  Sc  Sc93  1  0.11206034  0.50502864  0.48801136  1
  Sc  Sc94  1  0.90595135  0.30052546  0.11028079  1
  Sc  Sc95  1  0.90972404  0.50681906  0.10314112  1
  Sc  Sc96  1  0.49956393  0.49573194  0.10760685  1
  Sc  Sc97  1  0.10204236  0.50164705  0.90669265  1
  Sc  Sc98  1  0.30120321  0.69755665  0.90702305  1
  Sc  Sc99  1  0.09890515  0.31056398  0.90100087  1
  Nb  Nb100  1  0.90572574  0.49745585  0.89566293  1
  Nb  Nb101  1  0.49770772  0.69816418  0.10122403  1
  Nb  Nb102  1  0.50599097  0.70284952  0.70046047  1
  Nb  Nb103  1  0.89776457  0.70013899  0.50119178  1
  Nb  Nb104  1  0.11192497  0.49928204  0.10265144  1
  Nb  Nb105  1  0.90097810  0.29480895  0.30083215  1
  Nb  Nb106  1  0.30591564  0.69690947  0.10922557  1
  Nb  Nb107  1  0.29466298  0.70339998  0.28903008  1
  Nb  Nb108  1  0.50010166  0.30310760  0.49821874  1
  Nb  Nb109  1  0.30650588  0.50396521  0.50525692  1
  Nb  Nb110  1  0.70251076  0.69696950  0.50134307  1
  Nb  Nb111  1  0.50377994  0.89578247  0.69688978  1
  Nb  Nb112  1  0.89888425  0.30056856  0.89964100  1
  Nb  Nb113  1  0.29703362  0.29732630  0.30155320  1
  Nb  Nb114  1  0.28679649  0.50678716  0.09789083  1
  Nb  Nb115  1  0.90225180  0.90214144  0.70150912  1
  Nb  Nb116  1  0.48457403  0.49838317  0.50244727  1
  Nb  Nb117  1  0.69821642  0.10149466  0.30050830  1
  Nb  Nb118  1  0.50070232  0.89383400  0.30102548  1
  Nb  Nb119  1  0.90378529  0.50129614  0.70314872  1
  Nb  Nb120  1  0.89463653  0.09667950  0.49729335  1
  Nb  Nb121  1  0.50219403  0.50088655  0.30337420  1
  Nb  Nb122  1  0.90014955  0.10700370  0.89519126  1
  Nb  Nb123  1  0.10098433  0.09939342  0.30218026  1
  Nb  Nb124  1  0.90370475  0.89819597  0.30004882  1
  Nb  Nb125  1  0.60019333  -0.00222499  0.59491036  1
  Nb  Nb126  1  0.19410851  -0.00096308  0.80025366  1
  Nb  Nb127  1  0.59513514  0.60561283  0.00450700  1
  Nb  Nb128  1  0.80728876  0.40310895  0.80263919  1
  Nb  Nb129  1  0.40062341  0.19663654  0.00485236  1
  Nb  Nb130  1  0.60118509  -0.00033788  0.39619155  1
  Nb  Nb131  1  0.80272700  0.19692697  0.59481716  1
  Nb  Nb132  1  -0.00516916  0.59635265  0.59763137  1
  Nb  Nb133  1  -0.00611982  0.60495431  0.40666458  1
  Nb  Nb134  1  0.60065210  0.79846048  0.59585485  1
  Nb  Nb135  1  0.20108487  0.40663362  0.60085069  1
  Nb  Nb136  1  0.59885317  0.60592238  0.59609091  1
  Nb  Nb137  1  0.80541310  0.20355708  -0.00327903  1
  Nb  Nb138  1  0.19623569  -0.00003634  0.39407599  1
  Nb  Nb139  1  0.59535580  0.79697201  0.20285579  1
  Nb  Nb140  1  0.81253264  0.00342035  0.80303197  1
  Nb  Nb141  1  0.59985351  0.19332683  0.59709661  1
  Nb  Nb142  1  0.80611643  0.39922202  -0.00634114  1
  Nb  Nb143  1  0.00385883  0.40996528  0.60173695  1
  Nb  Nb144  1  0.58837287  0.40264715  0.39950730  1
  Nb  Nb145  1  0.39460489  0.20702968  0.39462033  1
  Nb  Nb146  1  -0.00436250  0.19564156  0.39388705  1
  Nb  Nb147  1  0.40921998  0.79554989  0.60233922  1
  Nb  Nb148  1  0.60016980  0.19840298  0.79037793  1
  Nb  Nb149  1  0.39580171  0.00054941  -0.00047265  1
  Pd  Pd150  1  0.00583870  0.40194009  0.20278171  1
  Pd  Pd151  1  0.59367704  0.79781292  0.00573011  1
  Pd  Pd152  1  0.40451879  0.80416327  0.00406566  1
  Pd  Pd153  1  0.20626698  0.00063750  -0.00693341  1
  Pd  Pd154  1  0.79985263  0.60141575  0.60123727  1
  Pd  Pd155  1  0.38797370  -0.00448277  0.80555342  1
  Pd  Pd156  1  0.40189559  0.20427649  0.59293326  1
  Pd  Pd157  1  -0.00373199  0.40352444  0.00502511  1
  Pd  Pd158  1  0.20434214  0.20394433  -0.00613668  1
  Pd  Pd159  1  0.00285764  -0.00386359  0.19821702  1
  Pd  Pd160  1  0.39015553  0.78980250  0.40301175  1
  Pd  Pd161  1  0.00290629  0.00644876  0.40015628  1
  Pd  Pd162  1  -0.00168191  0.20812434  0.00170076  1
  Pd  Pd163  1  0.80786837  0.00457258  -0.00531912  1
  Pd  Pd164  1  0.39838973  0.01053789  0.38532236  1
  Pd  Pd165  1  0.39226632  0.40847579  0.20042482  1
  Pd  Pd166  1  0.39925205  0.39696533  0.79837567  1
  Pd  Pd167  1  0.00147600  -0.00298018  0.59750132  1
  Pd  Pd168  1  0.60212140  0.19720153  -0.00188030  1
  Pd  Pd169  1  0.01211453  0.20289114  0.80813576  1
  Pd  Pd170  1  0.20082823  0.21048345  0.59506883  1
  Pd  Pd171  1  0.19495792  -0.00992294  0.59918263  1
  Pd  Pd172  1  0.61184244  -0.00090572  0.79374287  1
  Pd  Pd173  1  0.00254554  0.40462564  0.40390053  1
  Pd  Pd174  1  0.59803044  0.39503893  0.79282799  1
  Pd  Pd175  1  0.00928133  0.20604262  0.20830930  1
  Pd  Pd176  1  0.80672182  0.81256944  0.81195952  1
  Pd  Pd177  1  0.79750505  0.39363203  0.19505761  1
  Pd  Pd178  1  0.19057772  0.19659135  0.81011977  1
  Pd  Pd179  1  0.00882716  0.59875884  0.00118933  1
  Pd  Pd180  1  0.18866227  0.59386695  0.60377707  1
  Pd  Pd181  1  0.79975756  0.59454035  0.80693702  1
  Pd  Pd182  1  -0.00522125  0.21091001  0.58624412  1
  Pd  Pd183  1  0.39224206  0.79344593  0.79165913  1
  Pd  Pd184  1  0.59531768  0.59256973  0.40508202  1
  Pd  Pd185  1  0.79389354  0.59082391  -0.00067262  1
  Pd  Pd186  1  0.60727995  0.80626395  0.39859435  1
  Pd  Pd187  1  0.81049742  0.39238258  0.60533559  1
  Pd  Pd188  1  0.39433429  0.39872735  0.00659743  1
  Pd  Pd189  1  0.21309902  0.80063028  0.60280965  1
  Pd  Pd190  1  0.79935829  0.79938709  0.60082495  1
  Pd  Pd191  1  0.80531917  0.79402818  0.39360914  1
  Pd  Pd192  1  0.40342509  -0.00028664  0.19947425  1
  Pd  Pd193  1  0.40557740  0.59627023  0.00227133  1
  Pd  Pd194  1  0.80625281  0.59744501  0.20547772  1
  Pd  Pd195  1  0.39967710  0.59214880  0.20134622  1
  Pd  Pd196  1  0.78713571  0.39356281  0.39097905  1
  Pd  Pd197  1  0.80730338  0.60228557  0.39087170  1
  Pd  Pd198  1  0.19378414  0.78808787  0.00978006  1
  Pd  Pd199  1  0.40091347  0.39874388  0.39352117  1
  Rh  Rh200  1  0.79743248  0.20341926  0.19244176  1
  Rh  Rh201  1  0.00347390  0.79335192  0.00523052  1
  Rh  Rh202  1  0.00116510  0.60455646  0.80092648  1
  Rh  Rh203  1  0.20219999  0.80388467  0.79413087  1
  Rh  Rh204  1  0.20407160  0.40330051  0.79780537  1
  Rh  Rh205  1  0.20568267  0.40204812  -0.00147537  1
  Rh  Rh206  1  0.60220718  0.39827507  0.20809083  1
  Rh  Rh207  1  0.41352073  0.20795378  0.81048306  1
  Rh  Rh208  1  0.39307513  0.39829347  0.60531628  1
  Rh  Rh209  1  -0.01115975  0.79486811  0.60244675  1
  Rh  Rh210  1  0.00200701  0.59668010  0.20706738  1
  Rh  Rh211  1  0.20747617  0.80213586  0.39758847  1
  Rh  Rh212  1  0.79399873  0.79913518  0.20348534  1
  Rh  Rh213  1  0.19008276  0.20897214  0.20128019  1
  Rh  Rh214  1  0.58909203  0.40619075  0.59077676  1
  Rh  Rh215  1  -0.00953990  0.79161936  0.39594893  1
  Rh  Rh216  1  0.59749625  0.59873235  0.80233514  1
  Rh  Rh217  1  0.80361230  0.80153872  -0.00152358  1
  Rh  Rh218  1  0.60150798  -0.01065049  0.21180436  1
  Rh  Rh219  1  0.40157206  0.20114584  0.19765527  1
  Rh  Rh220  1  -0.00488563  -0.00110378  0.00841901  1
  Rh  Rh221  1  0.19162589  -0.00865095  0.20667833  1
  Rh  Rh222  1  0.60401273  0.20082426  0.19571106  1
  Rh  Rh223  1  0.20499783  0.40721313  0.40211627  1
  Rh  Rh224  1  0.60776966  0.80708083  0.79692972  1
  Rh  Rh225  1  0.79497917  0.19865267  0.79903491  1
  Rh  Rh226  1  0.59348529  0.60669065  0.19465009  1
  Rh  Rh227  1  0.80009932  -0.00467423  0.39020080  1
  Rh  Rh228  1  0.19856713  0.19155754  0.40067664  1
  Rh  Rh229  1  0.19990227  0.60241955  0.20178487  1
  Rh  Rh230  1  0.80841316  0.00339848  0.60772408  1
  Rh  Rh231  1  0.19912684  0.60581465  0.39403448  1
  Rh  Rh232  1  0.19903096  0.60575561  0.00304131  1
  Rh  Rh233  1  0.00308457  0.80008659  0.19761082  1
  Rh  Rh234  1  0.58784191  -0.00687746  -0.00412754  1
  Rh  Rh235  1  0.20340872  0.40355044  0.20308083  1
  Rh  Rh236  1  -0.00151515  0.40171820  0.79747834  1
  Rh  Rh237  1  0.40768576  0.60752676  0.60454651  1
  Rh  Rh238  1  0.00023507  -0.00353949  0.79829803  1
  Rh  Rh239  1  0.19546357  0.79693161  0.19373176  1
  Rh  Rh240  1  0.39110795  0.60262241  0.39400564  1
  Rh  Rh241  1  0.80004730  -0.00160813  0.20402329  1
  Rh  Rh242  1  0.58599856  0.19964933  0.40317923  1
  Rh  Rh243  1  0.40692237  0.79719903  0.19903992  1
  Rh  Rh244  1  0.40076221  0.60414854  0.79959597  1
  Rh  Rh245  1  0.80985343  0.20304564  0.40151943  1
  Rh  Rh246  1  0.40347380  -0.00944338  0.60118432  1
  Rh  Rh247  1  0.60410761  0.41300581  0.00768779  1
  Rh  Rh248  1  -0.00534790  0.79898230  0.80293018  1
  Rh  Rh249  1  0.20179648  0.60387017  0.80656587  1
