# generated using pymatgen
data_ZrScNbPdRh
_symmetry_space_group_name_H-M   'P 1'
_cell_length_a   16.56123510
_cell_length_b   16.55736036
_cell_length_c   16.55900977
_cell_angle_alpha   89.96397089
_cell_angle_beta   89.94657738
_cell_angle_gamma   89.98103222
_symmetry_Int_Tables_number   1
_chemical_formula_structural   ZrScNbPdRh
_chemical_formula_sum   'Zr50 Sc50 Nb50 Pd50 Rh50'
_cell_volume   4540.64854007
_cell_formula_units_Z   50
loop_
 _symmetry_equiv_pos_site_id
 _symmetry_equiv_pos_as_xyz
  1  'x, y, z'
loop_
 _atom_site_type_symbol
 _atom_site_label
 _atom_site_symmetry_multiplicity
 _atom_site_fract_x
 _atom_site_fract_y
 _atom_site_fract_z
 _atom_site_occupancy
  Zr  Zr0  1  0.89899418  0.89573020  0.88888804  1
  Zr  Zr1  1  0.70135207  0.49472076  0.70814960  1
  Zr  Zr2  1  0.70252841  0.90108045  0.10521360  1
  Zr  Zr3  1  0.69964713  0.10866364  0.32271135  1
  Zr  Zr4  1  0.09934515  0.09191172  0.50702222  1
  Zr  Zr5  1  0.30183427  0.30063223  0.10689585  1
  Zr  Zr6  1  0.89563070  0.10335566  0.10380517  1
  Zr  Zr7  1  0.49140882  0.49965255  0.49586364  1
  Zr  Zr8  1  0.68821087  0.51023342  0.49317536  1
  Zr  Zr9  1  0.69524330  0.30074132  0.89757951  1
  Zr  Zr10  1  0.70551775  0.10203141  0.89649570  1
  Zr  Zr11  1  0.89921352  0.70095190  0.89834080  1
  Zr  Zr12  1  0.90293425  0.08369456  0.70589328  1
  Zr  Zr13  1  0.49215262  0.89459125  0.89400878  1
  Zr  Zr14  1  0.68936935  0.70703118  0.50285887  1
  Zr  Zr15  1  0.89774806  0.30386184  0.50472232  1
  Zr  Zr16  1  0.30099472  0.69888536  0.49908435  1
  Zr  Zr17  1  0.69947142  0.10343243  0.08884128  1
  Zr  Zr18  1  0.90352768  0.50322451  0.49996354  1
  Zr  Zr19  1  0.49986655  0.90278722  0.30560531  1
  Zr  Zr20  1  0.49660243  0.69649080  0.50392425  1
  Zr  Zr21  1  0.50511293  0.30473479  0.10079017  1
  Zr  Zr22  1  0.10005632  0.10119180  0.30077513  1
  Zr  Zr23  1  0.89829693  0.30239020  0.28843247  1
  Zr  Zr24  1  0.88834476  0.09834160  0.49553272  1
  Zr  Zr25  1  0.08509030  0.89498346  0.29657619  1
  Zr  Zr26  1  0.50517310  0.09674320  0.89589577  1
  Zr  Zr27  1  0.69961797  0.28281818  0.49300161  1
  Zr  Zr28  1  0.50306564  0.70558684  0.69964408  1
  Zr  Zr29  1  0.69689522  0.09215973  0.69909060  1
  Zr  Zr30  1  0.30422117  0.70292820  0.69392602  1
  Zr  Zr31  1  0.50192317  0.69775987  0.90126063  1
  Zr  Zr32  1  0.89654491  0.49854583  0.69589781  1
  Zr  Zr33  1  0.10315633  0.50315415  0.89899462  1
  Zr  Zr34  1  0.10300975  0.10863992  0.09545986  1
  Zr  Zr35  1  0.30358169  0.30141787  0.89628669  1
  Zr  Zr36  1  0.91221675  0.69559369  0.30397611  1
  Zr  Zr37  1  0.70159169  0.08773422  0.50612267  1
  Zr  Zr38  1  0.30562306  0.69695187  0.10163452  1
  Zr  Zr39  1  0.90257909  0.70037574  0.49659896  1
  Zr  Zr40  1  0.11048794  0.29928049  0.29416473  1
  Zr  Zr41  1  0.49705462  0.29930879  0.69782561  1
  Zr  Zr42  1  0.10651211  0.69672535  0.69659444  1
  Zr  Zr43  1  0.70407901  0.88857013  0.69526619  1
  Zr  Zr44  1  0.90268957  0.30276427  0.10101846  1
  Zr  Zr45  1  0.69563261  0.29808147  0.69723083  1
  Zr  Zr46  1  0.10084548  0.30042798  0.49973045  1
  Zr  Zr47  1  0.89897769  0.90824776  0.11074402  1
  Zr  Zr48  1  0.09975235  0.90416826  0.10101953  1
  Zr  Zr49  1  0.49907821  0.30619996  0.50198795  1
  Sc  Sc50  1  0.50222963  0.69436984  0.09934502  1
  Sc  Sc51  1  0.30863148  0.89257811  0.29956387  1
  Sc  Sc52  1  0.30279985  0.69498772  0.30391828  1
  Sc  Sc53  1  0.10427813  0.49820280  0.09920336  1
  Sc  Sc54  1  0.30351894  0.10240886  0.09613826  1
  Sc  Sc55  1  0.50399221  0.29596193  0.89438108  1
  Sc  Sc56  1  0.10177121  0.50544028  0.29472073  1
  Sc  Sc57  1  0.09255231  0.90593677  0.69544003  1
  Sc  Sc58  1  0.69312344  0.90059588  0.90102787  1
  Sc  Sc59  1  0.09457360  0.70113294  0.90101116  1
  Sc  Sc60  1  0.09412707  0.89809550  0.90124725  1
  Sc  Sc61  1  0.30084723  0.50654462  0.89897815  1
  Sc  Sc62  1  0.30051728  0.30536265  0.29656556  1
  Sc  Sc63  1  0.49764801  0.49634750  0.68780230  1
  Sc  Sc64  1  0.31177028  0.90215935  0.69233977  1
  Sc  Sc65  1  0.50126806  0.89776227  0.49815817  1
  Sc  Sc66  1  0.50613549  0.50680641  0.10606263  1
  Sc  Sc67  1  0.30576254  0.89141250  0.49945637  1
  Sc  Sc68  1  0.30502037  0.08376668  0.50074281  1
  Sc  Sc69  1  0.10086685  0.89232410  0.50208530  1
  Sc  Sc70  1  0.49931583  0.89593803  0.09955806  1
  Sc  Sc71  1  0.69756228  0.89352284  0.29538189  1
  Sc  Sc72  1  0.09540619  0.50667560  0.50607582  1
  Sc  Sc73  1  0.09784459  0.69446780  0.10300887  1
  Sc  Sc74  1  0.31017835  0.69453234  0.89193464  1
  Sc  Sc75  1  0.10487074  0.69931115  0.49503627  1
  Sc  Sc76  1  0.51234194  0.08675358  0.49477012  1
  Sc  Sc77  1  0.50041420  0.50058943  0.29527513  1
  Sc  Sc78  1  0.90882342  0.49747668  0.10712067  1
  Sc  Sc79  1  0.50062665  0.70457577  0.29520631  1
  Sc  Sc80  1  0.89785780  0.69862727  0.09433168  1
  Sc  Sc81  1  0.10172009  0.29379056  0.71643199  1
  Sc  Sc82  1  0.89497185  0.90818153  0.50221232  1
  Sc  Sc83  1  0.89101447  0.30739761  0.69722165  1
  Sc  Sc84  1  0.30790568  0.90778294  0.09552502  1
  Sc  Sc85  1  0.70518657  0.69981168  0.90754096  1
  Sc  Sc86  1  0.29858798  0.50441304  0.70735263  1
  Sc  Sc87  1  0.30129810  0.30859093  0.49325469  1
  Sc  Sc88  1  0.69944780  0.30522979  0.29313945  1
  Sc  Sc89  1  0.30753254  0.30281943  0.71053711  1
  Sc  Sc90  1  0.49429603  0.30650218  0.29588729  1
  Sc  Sc91  1  0.30450184  0.10681915  0.29350893  1
  Sc  Sc92  1  0.49091719  0.10134126  0.09406690  1
  Sc  Sc93  1  0.30223824  0.50404512  0.10360467  1
  Sc  Sc94  1  0.10060981  0.29698430  0.90926822  1
  Sc  Sc95  1  0.69534918  0.70402673  0.10486521  1
  Sc  Sc96  1  0.30420929  0.50005962  0.30071053  1
  Sc  Sc97  1  0.30346342  0.50232700  0.49568146  1
  Sc  Sc98  1  0.10248997  0.70017550  0.30240911  1
  Sc  Sc99  1  0.30513966  0.10293983  0.90401389  1
  Nb  Nb100  1  0.50267904  0.90065096  0.70262021  1
  Nb  Nb101  1  0.88949290  0.50089348  0.89627766  1
  Nb  Nb102  1  0.69588462  0.70100556  0.69825889  1
  Nb  Nb103  1  0.69292241  0.49441887  0.10362991  1
  Nb  Nb104  1  0.89888280  0.90386578  0.29981492  1
  Nb  Nb105  1  0.69849939  0.49900864  0.90579920  1
  Nb  Nb106  1  0.90020116  0.49973562  0.30046979  1
  Nb  Nb107  1  0.90071977  0.09075285  0.30399022  1
  Nb  Nb108  1  0.69928204  0.50409299  0.29458641  1
  Nb  Nb109  1  0.30044482  0.10010252  0.69805681  1
  Nb  Nb110  1  0.10292125  0.10184342  0.70233729  1
  Nb  Nb111  1  0.09817019  0.10605637  0.89003142  1
  Nb  Nb112  1  0.70048439  0.30374604  0.09991010  1
  Nb  Nb113  1  0.51020279  0.50478146  0.91385642  1
  Nb  Nb114  1  0.09445178  0.49863792  0.70233394  1
  Nb  Nb115  1  0.90062087  0.10178982  0.89992873  1
  Nb  Nb116  1  0.69922299  0.69975135  0.30116369  1
  Nb  Nb117  1  0.50200189  0.10080492  0.30383692  1
  Nb  Nb118  1  0.89670434  0.88898506  0.70332195  1
  Nb  Nb119  1  0.69922393  0.90002501  0.49872055  1
  Nb  Nb120  1  0.49148682  0.08931101  0.69768269  1
  Nb  Nb121  1  0.88846256  0.71045737  0.70483519  1
  Nb  Nb122  1  0.89822866  0.30440420  0.90133908  1
  Nb  Nb123  1  0.29522273  0.89873195  0.89963368  1
  Nb  Nb124  1  0.10078221  0.30497773  0.10569068  1
  Nb  Nb125  1  0.20477114  0.80171941  -0.00307764  1
  Nb  Nb126  1  0.19835102  -0.00416558  0.39059666  1
  Nb  Nb127  1  0.79607943  0.40356487  0.00022178  1
  Nb  Nb128  1  -0.00876355  0.79730995  0.60565416  1
  Nb  Nb129  1  0.40618646  0.40384468  -0.00188956  1
  Nb  Nb130  1  -0.00380049  0.20063077  0.40069389  1
  Nb  Nb131  1  0.20393334  0.19845787  0.60535010  1
  Nb  Nb132  1  0.79648711  0.59569322  0.20781097  1
  Nb  Nb133  1  0.80000823  0.79958895  0.39626031  1
  Nb  Nb134  1  0.79518470  0.60824185  0.60374520  1
  Nb  Nb135  1  -0.00343396  0.39814466  0.39460790  1
  Nb  Nb136  1  0.19655182  -0.00061824  0.20316549  1
  Nb  Nb137  1  0.39882396  0.19335622  0.59864868  1
  Nb  Nb138  1  0.59873441  0.01017596  0.20359330  1
  Nb  Nb139  1  -0.00367044  0.01050701  -0.00649232  1
  Nb  Nb140  1  0.00351428  0.19473497  0.60231882  1
  Nb  Nb141  1  0.80043579  0.40885912  0.39442566  1
  Nb  Nb142  1  0.40513334  0.19691682  0.40479207  1
  Nb  Nb143  1  0.60370792  0.59702550  0.80380863  1
  Nb  Nb144  1  0.19953941  0.00402507  0.79987138  1
  Nb  Nb145  1  0.20403094  0.80736672  0.80112084  1
  Nb  Nb146  1  -0.00592146  0.40601971  0.80505243  1
  Nb  Nb147  1  0.19563031  0.39716521  0.60708054  1
  Nb  Nb148  1  0.59982857  0.19564191  0.19890880  1
  Nb  Nb149  1  -0.00806017  0.59714501  0.79641136  1
  Pd  Pd150  1  0.20204615  0.80461700  0.39513551  1
  Pd  Pd151  1  0.80809874  0.78873631  0.20726256  1
  Pd  Pd152  1  0.59966994  0.79924190  0.00288407  1
  Pd  Pd153  1  0.41067940  0.41285348  0.80912255  1
  Pd  Pd154  1  0.21039047  0.18951392  0.41053956  1
  Pd  Pd155  1  0.79772383  0.60378732  0.40056520  1
  Pd  Pd156  1  0.80670137  -0.00719846  -0.00762098  1
  Pd  Pd157  1  0.78382918  0.40843111  0.58544624  1
  Pd  Pd158  1  0.39499519  0.79735235  -0.00110993  1
  Pd  Pd159  1  -0.00414025  0.40564447  -0.00416438  1
  Pd  Pd160  1  0.00677055  -0.00329399  0.80477032  1
  Pd  Pd161  1  0.80647458  0.19145144  0.61142628  1
  Pd  Pd162  1  -0.00712329  0.61135166  0.60795959  1
  Pd  Pd163  1  0.40562907  0.20760584  -0.00421009  1
  Pd  Pd164  1  0.40237271  0.79786752  0.19835171  1
  Pd  Pd165  1  0.19382631  -0.00090754  -0.00385877  1
  Pd  Pd166  1  0.20258497  0.20507707  -0.00172852  1
  Pd  Pd167  1  0.59012562  0.18991951  0.60096299  1
  Pd  Pd168  1  0.41459740  0.59224048  0.79556196  1
  Pd  Pd169  1  -0.01181048  0.20954296  0.79601248  1
  Pd  Pd170  1  -0.00504549  0.79222177  0.19238205  1
  Pd  Pd171  1  0.80530381  0.20200649  0.79392872  1
  Pd  Pd172  1  0.19189752  0.41321776  0.40529196  1
  Pd  Pd173  1  0.80123765  0.80831914  0.00068847  1
  Pd  Pd174  1  0.20248337  0.59996233  0.20287454  1
  Pd  Pd175  1  0.19492055  0.40131588  0.79914354  1
  Pd  Pd176  1  0.20459301  -0.00665467  0.60194518  1
  Pd  Pd177  1  0.20686818  0.58918856  0.59778301  1
  Pd  Pd178  1  -0.00108889  0.19983629  -0.00122243  1
  Pd  Pd179  1  0.60367197  0.39661350  0.39317785  1
  Pd  Pd180  1  0.00036641  0.19697882  0.20430261  1
  Pd  Pd181  1  0.80164206  0.21049857  -0.00270235  1
  Pd  Pd182  1  0.39071669  0.00070381  0.80407020  1
  Pd  Pd183  1  0.20516914  0.60967382  -0.00352247  1
  Pd  Pd184  1  0.79473018  0.60523533  0.79691474  1
  Pd  Pd185  1  0.60633637  0.40170181  0.59437136  1
  Pd  Pd186  1  0.39954275  0.00370943  0.20032648  1
  Pd  Pd187  1  0.58967000  0.40718307  0.80153198  1
  Pd  Pd188  1  0.79581507  0.59191580  0.01526266  1
  Pd  Pd189  1  0.00178855  0.80584081  0.00659628  1
  Pd  Pd190  1  0.59591253  0.19477273  0.79200447  1
  Pd  Pd191  1  0.20596006  0.80504997  0.19319515  1
  Pd  Pd192  1  -0.00351692  0.59275362  -0.00195894  1
  Pd  Pd193  1  0.21028493  0.39955752  0.00339534  1
  Pd  Pd194  1  0.59251134  -0.00307772  0.00594451  1
  Pd  Pd195  1  0.00303372  -0.00209941  0.40679526  1
  Pd  Pd196  1  0.60431489  -0.00735496  0.79742337  1
  Pd  Pd197  1  0.78599067  0.01088716  0.21171801  1
  Pd  Pd198  1  0.58795166  0.60523708  0.39010541  1
  Pd  Pd199  1  0.79073226  0.19224910  0.20590658  1
  Rh  Rh200  1  0.39974287  0.40653597  0.19235038  1
  Rh  Rh201  1  -0.00809267  0.80902892  0.40997799  1
  Rh  Rh202  1  0.80099800  0.39226940  0.80912458  1
  Rh  Rh203  1  0.59941984  0.39661888  0.20249173  1
  Rh  Rh204  1  0.59563992  0.80520727  0.19909322  1
  Rh  Rh205  1  0.40755216  0.19953069  0.20691299  1
  Rh  Rh206  1  0.19327280  0.80649963  0.60881755  1
  Rh  Rh207  1  0.39961093  0.59233032  0.00352432  1
  Rh  Rh208  1  0.58633379  0.21202787  0.39379947  1
  Rh  Rh209  1  0.60445899  0.59430783  0.61153954  1
  Rh  Rh210  1  0.20000674  0.59953031  0.40051389  1
  Rh  Rh211  1  0.40835451  0.80388722  0.59883131  1
  Rh  Rh212  1  0.01157036  0.40298957  0.20400845  1
  Rh  Rh213  1  0.40384152  0.79304178  0.40315176  1
  Rh  Rh214  1  0.38415453  0.39660890  0.60198781  1
  Rh  Rh215  1  0.40736206  -0.00152520  0.59543995  1
  Rh  Rh216  1  0.80298399  0.79713372  0.58814460  1
  Rh  Rh217  1  0.40390991  0.19158799  0.79498340  1
  Rh  Rh218  1  0.20145957  0.40457077  0.19594147  1
  Rh  Rh219  1  0.39551219  0.59728098  0.60140910  1
  Rh  Rh220  1  0.60793600  0.60564584  0.00048314  1
  Rh  Rh221  1  0.01080355  0.59121153  0.39658030  1
  Rh  Rh222  1  0.01131448  0.79018437  0.78991762  1
  Rh  Rh223  1  0.80067820  -0.00714300  0.60738787  1
  Rh  Rh224  1  0.60043284  0.39783542  0.00219771  1
  Rh  Rh225  1  0.79444418  -0.00585425  0.80172045  1
  Rh  Rh226  1  0.40328220  0.60142421  0.39618744  1
  Rh  Rh227  1  0.21002946  0.19295934  0.80191400  1
  Rh  Rh228  1  0.40253369  0.60146683  0.20222100  1
  Rh  Rh229  1  0.78703394  0.80022579  0.80942272  1
  Rh  Rh230  1  0.59287180  0.80769715  0.59996209  1
  Rh  Rh231  1  0.59806341  0.20128273  0.00269373  1
  Rh  Rh232  1  -0.00742735  -0.00330462  0.60030389  1
  Rh  Rh233  1  0.39454952  0.80253410  0.79544646  1
  Rh  Rh234  1  0.59787980  -0.00993974  0.60353348  1
  Rh  Rh235  1  0.39317499  0.00330313  0.39595659  1
  Rh  Rh236  1  0.01388206  0.38581801  0.61119861  1
  Rh  Rh237  1  0.60697142  -0.01067567  0.39449508  1
  Rh  Rh238  1  0.40012105  0.39714128  0.39569142  1
  Rh  Rh239  1  0.40461524  -0.00202754  -0.00699832  1
  Rh  Rh240  1  0.79595702  0.40948278  0.19532247  1
  Rh  Rh241  1  0.60569538  0.60464724  0.20047756  1
  Rh  Rh242  1  0.60232493  0.80172680  0.39805080  1
  Rh  Rh243  1  0.81191260  0.21143837  0.39243078  1
  Rh  Rh244  1  -0.00162494  0.60062481  0.19764869  1
  Rh  Rh245  1  0.79240295  -0.01394061  0.39247742  1
  Rh  Rh246  1  0.00384470  0.00914679  0.19248150  1
  Rh  Rh247  1  0.19256528  0.60792857  0.80372640  1
  Rh  Rh248  1  0.60260659  0.79345763  0.80292659  1
  Rh  Rh249  1  0.20495988  0.19734410  0.19267024  1
