# generated using pymatgen
data_ZrScNbPdRh
_symmetry_space_group_name_H-M   'P 1'
_cell_length_a   16.56035371
_cell_length_b   16.55867594
_cell_length_c   16.55876074
_cell_angle_alpha   90.01259803
_cell_angle_beta   89.98263300
_cell_angle_gamma   89.96221438
_symmetry_Int_Tables_number   1
_chemical_formula_structural   ZrScNbPdRh
_chemical_formula_sum   'Zr50 Sc50 Nb50 Pd50 Rh50'
_cell_volume   4540.70117230
_cell_formula_units_Z   50
loop_
 _symmetry_equiv_pos_site_id
 _symmetry_equiv_pos_as_xyz
  1  'x, y, z'
loop_
 _atom_site_type_symbol
 _atom_site_label
 _atom_site_symmetry_multiplicity
 _atom_site_fract_x
 _atom_site_fract_y
 _atom_site_fract_z
 _atom_site_occupancy
  Zr  Zr0  1  0.30929836  0.51204570  0.71364291  1
  Zr  Zr1  1  0.90047464  0.10559573  0.51188525  1
  Zr  Zr2  1  0.29622124  0.70938352  0.51305328  1
  Zr  Zr3  1  0.50201925  0.90310243  0.08986152  1
  Zr  Zr4  1  0.90102372  0.29866590  0.49883607  1
  Zr  Zr5  1  0.89995151  0.30027975  0.90413933  1
  Zr  Zr6  1  0.89727871  0.70012667  0.90395408  1
  Zr  Zr7  1  0.49372565  0.10828692  0.69738462  1
  Zr  Zr8  1  0.69181243  0.70292034  0.50443080  1
  Zr  Zr9  1  0.10021041  0.10133077  0.09340906  1
  Zr  Zr10  1  0.49247001  0.49878955  0.30143482  1
  Zr  Zr11  1  0.10345265  0.49322329  0.09798426  1
  Zr  Zr12  1  0.69817510  0.89216303  0.49656238  1
  Zr  Zr13  1  0.69513968  0.29474017  0.09269901  1
  Zr  Zr14  1  0.70847487  0.90264578  0.29576652  1
  Zr  Zr15  1  0.89562713  0.49373526  0.10663413  1
  Zr  Zr16  1  0.89657993  0.70377784  0.29852625  1
  Zr  Zr17  1  0.49874096  0.09680249  0.89738163  1
  Zr  Zr18  1  0.10465992  0.49630441  0.90215766  1
  Zr  Zr19  1  0.10838825  0.49312081  0.29861165  1
  Zr  Zr20  1  0.30655967  0.49351984  0.30032075  1
  Zr  Zr21  1  0.70396942  0.49317688  0.29552151  1
  Zr  Zr22  1  0.90265878  0.29382065  0.70547213  1
  Zr  Zr23  1  0.10067968  0.29752561  0.10272259  1
  Zr  Zr24  1  0.49983700  0.10323723  0.49549609  1
  Zr  Zr25  1  0.90477104  0.30003724  0.10072261  1
  Zr  Zr26  1  0.09671074  0.90038796  0.69754672  1
  Zr  Zr27  1  0.48924865  0.90269447  0.90106253  1
  Zr  Zr28  1  0.90504022  0.69106317  0.49597595  1
  Zr  Zr29  1  0.49274540  0.90712167  0.30143410  1
  Zr  Zr30  1  0.69388495  0.49733418  0.89080793  1
  Zr  Zr31  1  0.69622489  0.89825573  0.69858288  1
  Zr  Zr32  1  0.09134523  0.10746700  0.50428728  1
  Zr  Zr33  1  0.30201502  0.49685961  0.90613486  1
  Zr  Zr34  1  0.30498285  0.68995844  0.30213319  1
  Zr  Zr35  1  0.70772682  0.10080632  0.70321026  1
  Zr  Zr36  1  0.09877190  0.31019594  0.49682932  1
  Zr  Zr37  1  0.70049861  0.30025413  0.89918362  1
  Zr  Zr38  1  0.10266179  0.89817776  0.91586275  1
  Zr  Zr39  1  0.09583229  0.90855985  0.10273251  1
  Zr  Zr40  1  0.70478028  0.10639094  0.49238514  1
  Zr  Zr41  1  0.29590614  0.89537790  0.08081997  1
  Zr  Zr42  1  0.50199422  0.49951985  0.49595438  1
  Zr  Zr43  1  0.70147615  0.70600652  0.09749316  1
  Zr  Zr44  1  0.29968886  0.90468237  0.30716834  1
  Zr  Zr45  1  0.90414049  0.89964355  0.29675825  1
  Zr  Zr46  1  0.69645202  0.10309777  0.90253797  1
  Zr  Zr47  1  0.50519692  0.70474288  0.09729063  1
  Zr  Zr48  1  0.30342472  0.69298962  0.10125798  1
  Zr  Zr49  1  0.09358808  0.70016337  0.89076515  1
  Sc  Sc50  1  0.10755232  0.89471390  0.49783915  1
  Sc  Sc51  1  0.69990610  0.29732814  0.49843398  1
  Sc  Sc52  1  0.30459012  0.89934134  0.49909573  1
  Sc  Sc53  1  0.91182335  0.68532230  0.71444320  1
  Sc  Sc54  1  0.10657928  0.10391566  0.29355218  1
  Sc  Sc55  1  0.09098978  0.70898760  0.30670133  1
  Sc  Sc56  1  0.50331377  0.70642758  0.89966933  1
  Sc  Sc57  1  0.29963096  0.09970476  0.29548998  1
  Sc  Sc58  1  0.70148432  0.50456611  0.09842853  1
  Sc  Sc59  1  0.30026277  0.69702237  0.89475046  1
  Sc  Sc60  1  0.50848593  0.29952665  0.50206689  1
  Sc  Sc61  1  0.69541462  0.49415492  0.49266265  1
  Sc  Sc62  1  0.50044181  0.69734321  0.50208179  1
  Sc  Sc63  1  0.90765156  0.49777120  0.70837178  1
  Sc  Sc64  1  0.70995164  0.29250099  0.30156085  1
  Sc  Sc65  1  0.29444841  0.30842878  0.49404669  1
  Sc  Sc66  1  0.90093712  0.10402330  0.69893006  1
  Sc  Sc67  1  0.30729172  0.29217864  0.71126219  1
  Sc  Sc68  1  0.90532796  0.49812898  0.49744067  1
  Sc  Sc69  1  0.29467786  0.49519133  0.10734937  1
  Sc  Sc70  1  0.49925095  0.49733617  0.89417139  1
  Sc  Sc71  1  0.09972863  0.90468920  0.29858306  1
  Sc  Sc72  1  0.68502491  0.90587890  0.89460685  1
  Sc  Sc73  1  0.49412982  0.29549959  0.09710270  1
  Sc  Sc74  1  0.09773564  0.29052200  0.90610172  1
  Sc  Sc75  1  0.30689608  0.10544205  0.70757534  1
  Sc  Sc76  1  0.90024241  0.91105554  0.69721974  1
  Sc  Sc77  1  0.49712565  0.49321223  0.09829714  1
  Sc  Sc78  1  0.90640047  0.09499251  0.10452768  1
  Sc  Sc79  1  0.30842898  0.89421741  0.69276883  1
  Sc  Sc80  1  0.89786514  0.90123742  0.50146352  1
  Sc  Sc81  1  0.48917936  0.30421809  0.29380082  1
  Sc  Sc82  1  0.88937545  0.49749511  0.30112946  1
  Sc  Sc83  1  0.30433776  0.09690131  0.50116772  1
  Sc  Sc84  1  0.89747722  0.49885861  0.89698749  1
  Sc  Sc85  1  0.50029760  0.89779725  0.70643093  1
  Sc  Sc86  1  0.69898960  0.69347378  0.90218868  1
  Sc  Sc87  1  0.49373797  0.10202799  0.28445665  1
  Sc  Sc88  1  0.49555531  0.89303300  0.50212242  1
  Sc  Sc89  1  0.88972405  0.09947209  0.29514761  1
  Sc  Sc90  1  0.30247356  0.11282190  0.10039053  1
  Sc  Sc91  1  0.30241196  0.11327147  0.89621822  1
  Sc  Sc92  1  0.89646198  0.10988638  0.89775444  1
  Sc  Sc93  1  0.10506817  0.70710231  0.09722323  1
  Sc  Sc94  1  0.08998336  0.10912081  0.70443682  1
  Sc  Sc95  1  0.70201481  0.70129420  0.29769002  1
  Sc  Sc96  1  0.30440483  0.49606977  0.49581550  1
  Sc  Sc97  1  0.90450924  0.89526612  0.10303424  1
  Sc  Sc98  1  0.49969904  0.69172748  0.30028870  1
  Sc  Sc99  1  0.49820126  0.30616184  0.90918659  1
  Nb  Nb100  1  0.30190888  0.30112589  0.09623961  1
  Nb  Nb101  1  0.69869178  0.09455876  0.29265713  1
  Nb  Nb102  1  0.89683123  0.69452894  0.10161781  1
  Nb  Nb103  1  0.29540946  0.30070196  0.29548737  1
  Nb  Nb104  1  0.10798461  0.29883784  0.30371018  1
  Nb  Nb105  1  0.09951729  0.69164060  0.50969597  1
  Nb  Nb106  1  0.50043584  0.68909778  0.69606331  1
  Nb  Nb107  1  0.50777991  0.50091530  0.70010658  1
  Nb  Nb108  1  0.69203711  0.09530352  0.10490837  1
  Nb  Nb109  1  0.10828550  0.69134406  0.69418500  1
  Nb  Nb110  1  0.50471309  0.10415538  0.09428956  1
  Nb  Nb111  1  0.69436046  0.69471279  0.70092064  1
  Nb  Nb112  1  0.09933272  0.09975192  0.90175557  1
  Nb  Nb113  1  0.90253039  0.89836128  0.90414132  1
  Nb  Nb114  1  0.29791109  0.69963383  0.70149286  1
  Nb  Nb115  1  0.90404106  0.30557287  0.29789994  1
  Nb  Nb116  1  0.29939172  0.89804623  0.89239612  1
  Nb  Nb117  1  0.10447428  0.30457722  0.70203618  1
  Nb  Nb118  1  0.69406339  0.30892057  0.69879033  1
  Nb  Nb119  1  0.69731465  0.90569111  0.09742557  1
  Nb  Nb120  1  0.29953556  0.29906136  0.90711474  1
  Nb  Nb121  1  0.10142309  0.50218255  0.50719962  1
  Nb  Nb122  1  0.69101586  0.50149466  0.70273983  1
  Nb  Nb123  1  0.50645168  0.30424132  0.69735898  1
  Nb  Nb124  1  0.10487357  0.50081172  0.69627217  1
  Nb  Nb125  1  -0.00336370  0.59924338  0.00618477  1
  Nb  Nb126  1  0.19856284  -0.00302860  0.80159912  1
  Nb  Nb127  1  0.39996773  0.59883253  -0.00066217  1
  Nb  Nb128  1  0.79404935  0.59633881  0.60757380  1
  Nb  Nb129  1  0.20844383  0.80372659  0.20125965  1
  Nb  Nb130  1  0.39673381  0.20342133  0.39670325  1
  Nb  Nb131  1  0.20090002  0.39701759  0.79963510  1
  Nb  Nb132  1  0.39678751  0.80389377  0.19713702  1
  Nb  Nb133  1  0.00497350  -0.00123260  0.81295825  1
  Nb  Nb134  1  -0.00189174  0.00612962  0.40247219  1
  Nb  Nb135  1  0.60381685  0.00469320  0.39634756  1
  Nb  Nb136  1  0.59929009  0.20714025  0.79500130  1
  Nb  Nb137  1  0.40841398  0.40212126  0.60999338  1
  Nb  Nb138  1  0.00176629  0.78865256  0.60203992  1
  Nb  Nb139  1  0.60259033  0.39734971  0.19961504  1
  Nb  Nb140  1  0.79461407  0.40358795  0.60749549  1
  Nb  Nb141  1  0.19770070  0.00693890  0.60727588  1
  Nb  Nb142  1  0.79494617  -0.00289417  0.00358184  1
  Nb  Nb143  1  0.19685259  0.20351215  0.60334239  1
  Nb  Nb144  1  0.60163494  0.00315548  0.59393126  1
  Nb  Nb145  1  0.19383017  0.59975589  0.40866647  1
  Nb  Nb146  1  0.80460878  0.78695127  0.60904336  1
  Nb  Nb147  1  0.19952915  0.80072540  0.79438491  1
  Nb  Nb148  1  0.80087832  0.79941828  0.79765272  1
  Nb  Nb149  1  -0.00326266  0.60096615  0.19564123  1
  Pd  Pd150  1  -0.00195356  0.79271547  0.00906019  1
  Pd  Pd151  1  0.59194675  0.59403597  -0.00310874  1
  Pd  Pd152  1  0.00150192  0.40333211  0.20769961  1
  Pd  Pd153  1  0.00908384  0.39833212  0.80517988  1
  Pd  Pd154  1  0.19965268  0.79224325  0.39717984  1
  Pd  Pd155  1  0.39099470  0.01197013  -0.00105466  1
  Pd  Pd156  1  0.80809859  0.20111183  0.39530759  1
  Pd  Pd157  1  0.39084613  0.21441335  0.58918859  1
  Pd  Pd158  1  -0.00305035  0.80724552  0.79306755  1
  Pd  Pd159  1  0.20772265  -0.00230633  0.19383415  1
  Pd  Pd160  1  0.19357501  0.00885307  0.40904998  1
  Pd  Pd161  1  0.39731392  0.79352502  0.79482176  1
  Pd  Pd162  1  0.00073208  0.19726318  0.20756498  1
  Pd  Pd163  1  0.80411031  0.18864447  0.01146699  1
  Pd  Pd164  1  0.79407662  -0.00527300  0.59523692  1
  Pd  Pd165  1  0.59430186  0.80395021  0.38879544  1
  Pd  Pd166  1  0.39163278  -0.00313093  0.18552691  1
  Pd  Pd167  1  0.80040963  0.80275822  0.19473067  1
  Pd  Pd168  1  0.80106918  0.20115041  0.19409360  1
  Pd  Pd169  1  0.79184442  0.59943130  0.40591272  1
  Pd  Pd170  1  -0.00592565  0.19494249  0.38786037  1
  Pd  Pd171  1  0.80865485  -0.00487927  0.81069877  1
  Pd  Pd172  1  0.21156317  0.01399765  -0.00699365  1
  Pd  Pd173  1  0.59441050  0.80476844  0.20508814  1
  Pd  Pd174  1  -0.00154038  0.40558999  0.39412170  1
  Pd  Pd175  1  0.21191793  0.58865347  0.59653841  1
  Pd  Pd176  1  -0.00681463  0.40150756  0.60312541  1
  Pd  Pd177  1  0.60231932  0.79349335  0.80146615  1
  Pd  Pd178  1  0.21586384  0.39833348  0.61296090  1
  Pd  Pd179  1  0.59721274  0.20811643  0.20324524  1
  Pd  Pd180  1  0.00721305  0.59006764  0.38998097  1
  Pd  Pd181  1  0.80352756  0.00191543  0.40203523  1
  Pd  Pd182  1  0.59910785  0.38840282  0.38935256  1
  Pd  Pd183  1  0.79640909  0.40480754  0.00000802  1
  Pd  Pd184  1  0.20727865  0.19559363  0.40597835  1
  Pd  Pd185  1  0.80140222  0.40046004  0.79508581  1
  Pd  Pd186  1  -0.00123688  0.80847161  0.40990837  1
  Pd  Pd187  1  0.40088699  0.39392760  0.79894619  1
  Pd  Pd188  1  0.40373049  0.79234316  0.39808558  1
  Pd  Pd189  1  0.39932917  0.59663922  0.59610015  1
  Pd  Pd190  1  0.19917141  0.60568761  -0.00282821  1
  Pd  Pd191  1  0.59119793  0.19856201  0.38377274  1
  Pd  Pd192  1  0.80156853  0.59162896  -0.00224576  1
  Pd  Pd193  1  0.59573384  -0.00384372  0.20220083  1
  Pd  Pd194  1  0.18649707  0.61139398  0.20950703  1
  Pd  Pd195  1  0.60838841  0.19488073  0.60455691  1
  Pd  Pd196  1  0.59900535  0.59209119  0.20015157  1
  Pd  Pd197  1  0.60539502  0.60080226  0.39557300  1
  Pd  Pd198  1  0.79120119  0.81025285  -0.00793456  1
  Pd  Pd199  1  0.40137273  -0.00288713  0.60165238  1
  Rh  Rh200  1  0.01041588  0.58794864  0.80437421  1
  Rh  Rh201  1  0.79227564  0.38735013  0.19620355  1
  Rh  Rh202  1  0.20033139  0.40706669  0.39956585  1
  Rh  Rh203  1  0.19569592  0.80652035  0.60633310  1
  Rh  Rh204  1  0.39311532  -0.00061571  0.79864609  1
  Rh  Rh205  1  0.59375096  0.39474177  0.80294338  1
  Rh  Rh206  1  0.40574757  0.01049504  0.39966952  1
  Rh  Rh207  1  0.79635383  0.21289226  0.60552500  1
  Rh  Rh208  1  0.60596135  0.80509338  -0.00560015  1
  Rh  Rh209  1  0.19442005  0.20289923  0.79865729  1
  Rh  Rh210  1  0.59493919  0.60357565  0.80377683  1
  Rh  Rh211  1  0.40384180  0.38879551  0.40835232  1
  Rh  Rh212  1  0.80066464  -0.00115237  0.18903539  1
  Rh  Rh213  1  0.39133399  0.60546710  0.41205093  1
  Rh  Rh214  1  0.80102074  0.60480733  0.20185910  1
  Rh  Rh215  1  0.79306780  0.20683570  0.79600110  1
  Rh  Rh216  1  -0.01429341  0.00696523  -0.00690994  1
  Rh  Rh217  1  0.00730531  0.79384708  0.19489697  1
  Rh  Rh218  1  0.80385782  0.39455786  0.40808446  1
  Rh  Rh219  1  0.60275782  0.00328450  0.00111883  1
  Rh  Rh220  1  -0.00201511  0.40291849  -0.00254192  1
  Rh  Rh221  1  0.19518204  0.59903425  0.79983681  1
  Rh  Rh222  1  0.20096989  0.20512320  0.19757111  1
  Rh  Rh223  1  0.39979890  0.39607800  0.19313169  1
  Rh  Rh224  1  0.20082079  0.38895471  -0.00213825  1
  Rh  Rh225  1  0.41094927  0.60796219  0.80684918  1
  Rh  Rh226  1  0.39466841  0.20442635  0.20106533  1
  Rh  Rh227  1  0.41168104  0.60206881  0.18794382  1
  Rh  Rh228  1  0.79356120  0.60357364  0.79630388  1
  Rh  Rh229  1  0.00084920  0.00394975  0.21103113  1
  Rh  Rh230  1  0.41376856  0.20953734  0.80902924  1
  Rh  Rh231  1  0.59395144  0.19646879  -0.00584897  1
  Rh  Rh232  1  -0.00472054  0.59666702  0.60586720  1
  Rh  Rh233  1  0.00240748  0.19854893  0.80431862  1
  Rh  Rh234  1  0.40334136  0.20014514  -0.00087921  1
  Rh  Rh235  1  0.20085100  0.20208983  0.00081355  1
  Rh  Rh236  1  0.59535322  0.80367172  0.60668894  1
  Rh  Rh237  1  0.60160151  0.40863707  0.59649619  1
  Rh  Rh238  1  0.39632228  0.79045440  -0.00165355  1
  Rh  Rh239  1  0.80325133  0.79520444  0.40658328  1
  Rh  Rh240  1  0.60226797  0.40316398  0.00553002  1
  Rh  Rh241  1  0.00708626  -0.00983166  0.59143786  1
  Rh  Rh242  1  0.59068520  0.01191622  0.78731623  1
  Rh  Rh243  1  0.39522515  0.40449740  0.00540893  1
  Rh  Rh244  1  0.00772237  0.21524056  0.60410636  1
  Rh  Rh245  1  0.40878089  0.79440548  0.60589517  1
  Rh  Rh246  1  -0.00268246  0.19599427  0.00088033  1
  Rh  Rh247  1  0.60299862  0.59402988  0.59722091  1
  Rh  Rh248  1  0.20442043  0.78996286  -0.00669834  1
  Rh  Rh249  1  0.20287111  0.38928985  0.19802907  1
