# generated using pymatgen
data_ZrScNbPdRh
_symmetry_space_group_name_H-M   'P 1'
_cell_length_a   16.56166319
_cell_length_b   16.56156144
_cell_length_c   16.56162152
_cell_angle_alpha   89.96973485
_cell_angle_beta   89.97409169
_cell_angle_gamma   90.01094857
_symmetry_Int_Tables_number   1
_chemical_formula_structural   ZrScNbPdRh
_chemical_formula_sum   'Zr50 Sc50 Nb50 Pd50 Rh50'
_cell_volume   4542.63634233
_cell_formula_units_Z   50
loop_
 _symmetry_equiv_pos_site_id
 _symmetry_equiv_pos_as_xyz
  1  'x, y, z'
loop_
 _atom_site_type_symbol
 _atom_site_label
 _atom_site_symmetry_multiplicity
 _atom_site_fract_x
 _atom_site_fract_y
 _atom_site_fract_z
 _atom_site_occupancy
  Zr  Zr0  1  0.90031208  0.90360615  0.09599110  1
  Zr  Zr1  1  0.90751711  0.89185806  0.90265508  1
  Zr  Zr2  1  0.69438283  0.29376464  0.90921725  1
  Zr  Zr3  1  0.29747667  0.50375631  0.30186021  1
  Zr  Zr4  1  0.30534640  0.09961375  0.29651671  1
  Zr  Zr5  1  0.69977878  0.49127054  0.90358147  1
  Zr  Zr6  1  0.29382813  0.90747348  0.29427780  1
  Zr  Zr7  1  0.90386620  0.69771527  0.10837403  1
  Zr  Zr8  1  0.49295457  0.29988799  0.70247002  1
  Zr  Zr9  1  0.30172447  0.30575575  0.50116546  1
  Zr  Zr10  1  0.09577030  0.70008474  0.90292417  1
  Zr  Zr11  1  0.50024870  0.49711970  0.70118029  1
  Zr  Zr12  1  0.49076800  0.70430263  0.49235680  1
  Zr  Zr13  1  0.70045495  0.49209953  0.29517868  1
  Zr  Zr14  1  0.89536115  0.50215219  0.49417943  1
  Zr  Zr15  1  0.69074884  0.90441040  0.70352460  1
  Zr  Zr16  1  0.90191931  0.30224658  0.10307704  1
  Zr  Zr17  1  0.69237520  0.50562315  0.69992032  1
  Zr  Zr18  1  0.30137015  0.10165859  0.69439236  1
  Zr  Zr19  1  0.70201974  0.70927951  0.29898968  1
  Zr  Zr20  1  0.29777134  0.29294798  0.69372599  1
  Zr  Zr21  1  0.10278849  0.30510571  0.50432531  1
  Zr  Zr22  1  0.09558278  0.30098495  0.90399945  1
  Zr  Zr23  1  0.70344000  0.49901542  0.09895001  1
  Zr  Zr24  1  0.31010269  0.29980617  0.90579048  1
  Zr  Zr25  1  0.09093580  0.30470803  0.30377446  1
  Zr  Zr26  1  0.09600558  0.10979342  0.09760919  1
  Zr  Zr27  1  0.10176901  0.69836898  0.70629489  1
  Zr  Zr28  1  0.90161548  0.49813783  0.90776584  1
  Zr  Zr29  1  0.90780046  0.69524333  0.90331256  1
  Zr  Zr30  1  0.90148813  0.10348915  0.49674501  1
  Zr  Zr31  1  0.89782040  0.69394690  0.48718109  1
  Zr  Zr32  1  0.30574911  0.29987955  0.30122910  1
  Zr  Zr33  1  0.10302770  0.30079456  0.70442016  1
  Zr  Zr34  1  0.49758477  0.49628518  0.50372613  1
  Zr  Zr35  1  0.50314948  0.90130358  0.30491218  1
  Zr  Zr36  1  0.10550033  0.50673779  0.90164588  1
  Zr  Zr37  1  0.68940311  0.90503051  0.49316238  1
  Zr  Zr38  1  0.29631017  0.70117036  0.49303854  1
  Zr  Zr39  1  0.09330096  0.09674754  0.30322023  1
  Zr  Zr40  1  0.69299090  0.69612884  0.90238388  1
  Zr  Zr41  1  0.89724566  0.09746106  0.11262650  1
  Zr  Zr42  1  0.89842145  0.90101201  0.28746832  1
  Zr  Zr43  1  0.69852019  0.89906442  0.90613156  1
  Zr  Zr44  1  0.90438654  0.30127657  0.49959760  1
  Zr  Zr45  1  0.09852798  0.49476753  0.70401812  1
  Zr  Zr46  1  0.90479897  0.69772730  0.70373675  1
  Zr  Zr47  1  0.49673334  0.69609655  0.10740873  1
  Zr  Zr48  1  0.30858298  0.90647044  0.69623829  1
  Zr  Zr49  1  0.89359112  0.50492396  0.29882304  1
  Sc  Sc50  1  0.49170747  0.30108836  0.49809592  1
  Sc  Sc51  1  0.10497390  0.90768624  0.68116759  1
  Sc  Sc52  1  0.90332456  0.49331183  0.70305279  1
  Sc  Sc53  1  0.30267046  0.70368503  0.70156982  1
  Sc  Sc54  1  0.89656347  0.50237856  0.10201674  1
  Sc  Sc55  1  0.90006723  0.09282587  0.92128179  1
  Sc  Sc56  1  0.69847469  0.10727940  0.29043477  1
  Sc  Sc57  1  0.49914320  0.29766852  0.09505456  1
  Sc  Sc58  1  0.70366331  0.69429675  0.49850941  1
  Sc  Sc59  1  0.70772491  0.89168536  0.10128934  1
  Sc  Sc60  1  0.69634463  0.30138993  0.70828934  1
  Sc  Sc61  1  0.50680302  0.49446956  0.10459287  1
  Sc  Sc62  1  0.50034482  0.69362396  0.71153665  1
  Sc  Sc63  1  0.69822112  0.50208769  0.49524104  1
  Sc  Sc64  1  0.49332863  0.90730234  0.49851440  1
  Sc  Sc65  1  0.50482638  0.29396037  0.29419464  1
  Sc  Sc66  1  0.49272027  0.10130106  0.30033928  1
  Sc  Sc67  1  0.49652852  0.09526207  0.49252940  1
  Sc  Sc68  1  0.29874090  0.50004454  0.71435582  1
  Sc  Sc69  1  0.49240254  0.10357125  0.10266729  1
  Sc  Sc70  1  0.69044438  0.09742094  0.69858438  1
  Sc  Sc71  1  0.10045791  0.50733275  0.29482177  1
  Sc  Sc72  1  0.10154765  0.10560249  0.90409757  1
  Sc  Sc73  1  0.30525697  0.90251292  0.91181124  1
  Sc  Sc74  1  0.29824032  0.69466269  0.89422839  1
  Sc  Sc75  1  0.30923129  0.09758889  0.90374927  1
  Sc  Sc76  1  0.09722225  0.08843556  0.50283414  1
  Sc  Sc77  1  0.69678420  0.30193823  0.10106411  1
  Sc  Sc78  1  0.90732845  0.10363651  0.69074394  1
  Sc  Sc79  1  0.71159461  0.11148475  0.09510086  1
  Sc  Sc80  1  0.10972000  0.89014514  0.10429051  1
  Sc  Sc81  1  0.69589119  0.69518544  0.09490065  1
  Sc  Sc82  1  0.10461974  0.10698374  0.69638123  1
  Sc  Sc83  1  0.49416513  0.50163107  0.29128703  1
  Sc  Sc84  1  0.49821518  0.49385325  0.89348162  1
  Sc  Sc85  1  0.49375114  0.89361960  0.09352778  1
  Sc  Sc86  1  0.69492219  0.30357631  0.49222629  1
  Sc  Sc87  1  0.49636080  0.10759239  0.90200456  1
  Sc  Sc88  1  0.49710682  0.89977849  0.89732882  1
  Sc  Sc89  1  0.49818755  0.69988644  0.90391264  1
  Sc  Sc90  1  0.89936196  0.30830777  0.90313757  1
  Sc  Sc91  1  0.29360384  0.90075223  0.50421014  1
  Sc  Sc92  1  0.10532395  0.49623806  0.48687323  1
  Sc  Sc93  1  0.30143803  0.90439120  0.10107799  1
  Sc  Sc94  1  0.49035292  0.09269432  0.70230357  1
  Sc  Sc95  1  0.29581358  0.70552653  0.11134457  1
  Sc  Sc96  1  0.90525450  0.90325385  0.49717334  1
  Sc  Sc97  1  0.69310196  0.10120004  0.49951796  1
  Sc  Sc98  1  0.30570560  0.09771371  0.09838786  1
  Sc  Sc99  1  0.91112087  0.29968373  0.70169527  1
  Nb  Nb100  1  0.10295038  0.89752583  0.30391642  1
  Nb  Nb101  1  0.50006789  0.90493105  0.69582011  1
  Nb  Nb102  1  0.89557964  0.30193972  0.30193994  1
  Nb  Nb103  1  0.70375691  0.09991914  0.90363123  1
  Nb  Nb104  1  0.29599284  0.49307462  0.10002545  1
  Nb  Nb105  1  0.89961630  0.10360191  0.29866988  1
  Nb  Nb106  1  0.11102696  0.49729135  0.10067738  1
  Nb  Nb107  1  0.70591193  0.30351928  0.29768131  1
  Nb  Nb108  1  0.90132164  0.89848700  0.69950545  1
  Nb  Nb109  1  0.50511004  0.29772859  0.89962213  1
  Nb  Nb110  1  0.30137240  0.50169316  0.49409526  1
  Nb  Nb111  1  0.90842779  0.69529827  0.29840387  1
  Nb  Nb112  1  0.30014101  0.50490210  0.90767674  1
  Nb  Nb113  1  0.10119440  0.69253659  0.11639430  1
  Nb  Nb114  1  0.29553460  0.30314829  0.10237577  1
  Nb  Nb115  1  0.10115921  0.89596442  0.89777926  1
  Nb  Nb116  1  0.10430265  0.69896830  0.29309178  1
  Nb  Nb117  1  0.49045617  0.69755216  0.29809219  1
  Nb  Nb118  1  0.69843130  0.90489317  0.29923228  1
  Nb  Nb119  1  0.10318556  0.70235728  0.49673345  1
  Nb  Nb120  1  0.30765182  0.69158816  0.29994336  1
  Nb  Nb121  1  0.69921682  0.69961625  0.70086518  1
  Nb  Nb122  1  0.30355382  0.10787463  0.49968243  1
  Nb  Nb123  1  0.10203995  0.89183917  0.49582460  1
  Nb  Nb124  1  0.10348387  0.30645640  0.10007539  1
  Nb  Nb125  1  0.79884738  0.19005411  0.80556168  1
  Nb  Nb126  1  0.60445603  0.00409533  0.00388022  1
  Nb  Nb127  1  0.79959864  0.00477118  0.39363995  1
  Nb  Nb128  1  0.59218987  0.60552556  0.39158885  1
  Nb  Nb129  1  0.59253330  0.20129102  0.60090094  1
  Nb  Nb130  1  0.00751978  0.79710577  0.39293677  1
  Nb  Nb131  1  0.79822382  0.79824219  0.79687498  1
  Nb  Nb132  1  0.79668748  0.60262920  0.80216745  1
  Nb  Nb133  1  0.00252389  -0.00476685  0.80009560  1
  Nb  Nb134  1  0.39144535  0.59040799  0.00565582  1
  Nb  Nb135  1  0.00077777  0.79532079  0.59180972  1
  Nb  Nb136  1  0.79932155  0.39855060  0.59873454  1
  Nb  Nb137  1  0.80567378  -0.00112854  0.79923049  1
  Nb  Nb138  1  0.60339369  -0.00249687  0.19535885  1
  Nb  Nb139  1  0.19988312  0.19958757  0.39822519  1
  Nb  Nb140  1  0.79840370  -0.00421326  0.59966344  1
  Nb  Nb141  1  0.39350962  0.59578422  0.59555235  1
  Nb  Nb142  1  0.79838346  0.80234725  0.60371859  1
  Nb  Nb143  1  0.19787189  -0.00391513  0.80232812  1
  Nb  Nb144  1  0.80359858  0.20163688  0.39298902  1
  Nb  Nb145  1  0.59992739  0.80049511  0.60489570  1
  Nb  Nb146  1  0.20101588  0.60010508  0.59502244  1
  Nb  Nb147  1  0.19651519  0.81110063  0.80044781  1
  Nb  Nb148  1  0.19760091  0.20732103  0.19910793  1
  Nb  Nb149  1  0.00694404  0.60191413  0.59265224  1
  Pd  Pd150  1  0.39325351  0.78696661  -0.00071364  1
  Pd  Pd151  1  -0.00148459  0.40995190  0.19626917  1
  Pd  Pd152  1  0.38937919  0.81113203  0.39340996  1
  Pd  Pd153  1  0.39618259  0.80650961  0.20444536  1
  Pd  Pd154  1  0.20458347  0.00703215  0.40770230  1
  Pd  Pd155  1  0.59110079  0.40519877  0.39189421  1
  Pd  Pd156  1  0.58619654  0.59177979  -0.00307556  1
  Pd  Pd157  1  0.59678347  0.80545990  0.19446645  1
  Pd  Pd158  1  0.01328037  -0.00455561  0.00189096  1
  Pd  Pd159  1  0.40801863  0.79416097  0.60523034  1
  Pd  Pd160  1  0.39526649  0.39728346  0.80092751  1
  Pd  Pd161  1  0.00924946  0.79690080  0.01473892  1
  Pd  Pd162  1  0.20604249  0.41116314  0.60148222  1
  Pd  Pd163  1  -0.00826559  0.20567821  -0.00138751  1
  Pd  Pd164  1  -0.00474928  -0.00791570  0.39694402  1
  Pd  Pd165  1  0.80067601  0.79518290  0.19717608  1
  Pd  Pd166  1  0.80158796  0.79090681  -0.00133221  1
  Pd  Pd167  1  0.20865446  0.19926594  0.00418142  1
  Pd  Pd168  1  0.20749019  0.19284918  0.80910147  1
  Pd  Pd169  1  0.19399626  0.00944678  0.19238735  1
  Pd  Pd170  1  0.40383251  0.39727155  0.19731077  1
  Pd  Pd171  1  0.40768250  0.40328543  0.00323297  1
  Pd  Pd172  1  0.80740566  0.59552261  0.60820709  1
  Pd  Pd173  1  0.80063991  0.39610414  0.79432898  1
  Pd  Pd174  1  0.60185304  0.19784977  0.40169232  1
  Pd  Pd175  1  0.78617641  0.20231436  0.60274054  1
  Pd  Pd176  1  0.39593300  0.80348737  0.80287805  1
  Pd  Pd177  1  0.00589512  0.59384997  0.01407207  1
  Pd  Pd178  1  -0.01178622  0.18862705  0.80965878  1
  Pd  Pd179  1  0.80748324  0.80975509  0.40152965  1
  Pd  Pd180  1  0.59488848  0.00734624  0.81143000  1
  Pd  Pd181  1  0.60629884  0.39122937  0.60033624  1
  Pd  Pd182  1  0.58985459  0.61062147  0.59096028  1
  Pd  Pd183  1  0.00941201  0.20034492  0.59729596  1
  Pd  Pd184  1  -0.00224638  0.40896805  0.39724248  1
  Pd  Pd185  1  0.59787416  0.79461389  0.40427745  1
  Pd  Pd186  1  0.40784105  0.40056182  0.39188641  1
  Pd  Pd187  1  0.19729941  0.00322456  -0.00195925  1
  Pd  Pd188  1  0.20526684  0.39518445  0.80935815  1
  Pd  Pd189  1  0.19903445  0.39706417  0.20882117  1
  Pd  Pd190  1  0.59691208  0.79898712  0.79863583  1
  Pd  Pd191  1  0.59988230  0.19390236  0.79568409  1
  Pd  Pd192  1  0.20330518  0.79212438  -0.00200160  1
  Pd  Pd193  1  0.19880920  0.39769037  -0.00706783  1
  Pd  Pd194  1  0.60000731  0.19606221  0.19330211  1
  Pd  Pd195  1  0.00217851  0.20471218  0.20140841  1
  Pd  Pd196  1  0.20493441  0.61060531  0.00896304  1
  Pd  Pd197  1  0.01067594  -0.00666337  0.19457628  1
  Pd  Pd198  1  0.60524427  0.60167706  0.20650509  1
  Pd  Pd199  1  0.20425670  0.79637725  0.38885203  1
  Rh  Rh200  1  0.20451805  0.00558374  0.59740643  1
  Rh  Rh201  1  0.40048978  0.20461247  0.00331196  1
  Rh  Rh202  1  0.00222556  0.59199299  0.19793125  1
  Rh  Rh203  1  0.39604148  -0.00273961  0.80393810  1
  Rh  Rh204  1  0.39246931  0.20612271  0.19392996  1
  Rh  Rh205  1  0.00938913  0.81187379  0.78793084  1
  Rh  Rh206  1  0.20483374  0.79861072  0.20723150  1
  Rh  Rh207  1  0.59911141  0.39706675  0.80329656  1
  Rh  Rh208  1  0.19737575  0.60312799  0.39815467  1
  Rh  Rh209  1  0.59690395  0.80528474  0.00425372  1
  Rh  Rh210  1  0.60153648  0.59548121  0.80725620  1
  Rh  Rh211  1  0.41109449  0.00129666  0.00152754  1
  Rh  Rh212  1  0.20689512  0.59785085  0.19936624  1
  Rh  Rh213  1  0.39008618  0.40817255  0.60776809  1
  Rh  Rh214  1  0.59554607  0.39807427  -0.00063780  1
  Rh  Rh215  1  0.39751802  0.20145124  0.40185851  1
  Rh  Rh216  1  0.40568440  0.59277176  0.40233737  1
  Rh  Rh217  1  0.20165430  0.39597685  0.39435077  1
  Rh  Rh218  1  0.60003741  0.39298264  0.20026659  1
  Rh  Rh219  1  -0.00564856  0.58717315  0.79862485  1
  Rh  Rh220  1  0.59606153  0.19339561  0.00302227  1
  Rh  Rh221  1  0.19529080  0.79383478  0.60746691  1
  Rh  Rh222  1  0.80132511  0.60265604  -0.00346478  1
  Rh  Rh223  1  -0.00412328  -0.00547138  0.60145286  1
  Rh  Rh224  1  0.39062935  -0.00267895  0.40104849  1
  Rh  Rh225  1  0.41153937  -0.00588864  0.19896603  1
  Rh  Rh226  1  0.79604001  0.60600410  0.20158665  1
  Rh  Rh227  1  0.60556023  0.01097439  0.38437264  1
  Rh  Rh228  1  0.20342012  0.60551666  0.79741690  1
  Rh  Rh229  1  -0.00510396  0.40901500  0.59444539  1
  Rh  Rh230  1  0.39934239  0.00449264  0.59211064  1
  Rh  Rh231  1  0.80155882  0.20831333  0.20453389  1
  Rh  Rh232  1  0.80067327  0.39307241  0.40600285  1
  Rh  Rh233  1  0.80728444  0.20720677  -0.00321907  1
  Rh  Rh234  1  0.00463129  0.40141769  0.80787904  1
  Rh  Rh235  1  0.40141718  0.59801108  0.80326219  1
  Rh  Rh236  1  0.80136631  0.39723652  0.19587646  1
  Rh  Rh237  1  0.40843143  0.19670016  0.59612053  1
  Rh  Rh238  1  0.79363689  -0.00274880  0.00205254  1
  Rh  Rh239  1  0.79846166  0.39553728  0.00771311  1
  Rh  Rh240  1  0.00961522  0.60440169  0.39646045  1
  Rh  Rh241  1  0.39706014  0.20265423  0.80134932  1
  Rh  Rh242  1  0.00695192  0.40643428  0.00648492  1
  Rh  Rh243  1  0.39241255  0.59441583  0.19004411  1
  Rh  Rh244  1  0.00075266  0.20125446  0.40180276  1
  Rh  Rh245  1  0.59503102  0.00246528  0.59830050  1
  Rh  Rh246  1  0.79101244  0.00304139  0.20262433  1
  Rh  Rh247  1  0.19611951  0.19651864  0.58821595  1
  Rh  Rh248  1  0.00435217  0.80221722  0.20325777  1
  Rh  Rh249  1  0.78520089  0.60000993  0.38609486  1
