# generated using pymatgen
data_ZrScNbPdRh
_symmetry_space_group_name_H-M   'P 1'
_cell_length_a   16.55852408
_cell_length_b   16.56385322
_cell_length_c   16.56199630
_cell_angle_alpha   90.01713545
_cell_angle_beta   89.99604583
_cell_angle_gamma   90.01632944
_symmetry_Int_Tables_number   1
_chemical_formula_structural   ZrScNbPdRh
_chemical_formula_sum   'Zr50 Sc50 Nb50 Pd50 Rh50'
_cell_volume   4542.50738879
_cell_formula_units_Z   50
loop_
 _symmetry_equiv_pos_site_id
 _symmetry_equiv_pos_as_xyz
  1  'x, y, z'
loop_
 _atom_site_type_symbol
 _atom_site_label
 _atom_site_symmetry_multiplicity
 _atom_site_fract_x
 _atom_site_fract_y
 _atom_site_fract_z
 _atom_site_occupancy
  Zr  Zr0  1  0.09594211  0.49800709  0.50419302  1
  Zr  Zr1  1  0.30175984  0.89870335  0.89840636  1
  Zr  Zr2  1  0.89429549  0.69574741  0.09866495  1
  Zr  Zr3  1  0.89650590  0.29794952  0.90501877  1
  Zr  Zr4  1  0.49939504  0.69908445  0.10214289  1
  Zr  Zr5  1  0.49922994  0.90045638  0.29976094  1
  Zr  Zr6  1  0.09924523  0.90474313  0.69583464  1
  Zr  Zr7  1  0.10006274  0.49462257  0.10447753  1
  Zr  Zr8  1  0.11047531  0.90056297  0.49325511  1
  Zr  Zr9  1  0.90305120  0.91148378  0.29725685  1
  Zr  Zr10  1  0.50375551  0.30030606  0.89557784  1
  Zr  Zr11  1  0.10112080  0.30230040  0.28943312  1
  Zr  Zr12  1  0.50016042  0.69906976  0.50321984  1
  Zr  Zr13  1  0.50234495  0.30464832  0.49676308  1
  Zr  Zr14  1  0.11062072  0.69773957  0.89731362  1
  Zr  Zr15  1  0.30034683  0.09925341  0.49618832  1
  Zr  Zr16  1  0.89849818  0.50260025  0.11001693  1
  Zr  Zr17  1  0.30427266  0.70368828  0.29819239  1
  Zr  Zr18  1  0.29629131  0.49394942  0.29903111  1
  Zr  Zr19  1  0.30514383  0.30558123  0.49770808  1
  Zr  Zr20  1  0.10403917  0.29249815  0.90578617  1
  Zr  Zr21  1  0.49773694  0.49646252  0.50319810  1
  Zr  Zr22  1  0.89797383  0.10013928  0.50405382  1
  Zr  Zr23  1  0.90033416  0.10916524  0.10379192  1
  Zr  Zr24  1  0.70467697  0.89859034  0.91239184  1
  Zr  Zr25  1  0.49976199  0.09228103  0.49239066  1
  Zr  Zr26  1  0.50984334  0.29387810  0.10021982  1
  Zr  Zr27  1  0.50019937  0.50207279  0.09407523  1
  Zr  Zr28  1  0.50830787  0.90716553  0.10750488  1
  Zr  Zr29  1  0.50337105  0.69490254  0.69904518  1
  Zr  Zr30  1  0.88856826  0.69753255  0.50399963  1
  Zr  Zr31  1  0.70335382  0.90315381  0.70250928  1
  Zr  Zr32  1  0.08222310  0.09183287  0.29256858  1
  Zr  Zr33  1  0.90101683  0.69917938  0.89853705  1
  Zr  Zr34  1  0.69292008  0.09999272  0.10062203  1
  Zr  Zr35  1  0.30337780  0.29823757  0.30731423  1
  Zr  Zr36  1  0.49786673  0.10594548  0.89069568  1
  Zr  Zr37  1  0.70942279  0.29768138  0.09693280  1
  Zr  Zr38  1  0.89915740  0.30555695  0.49924366  1
  Zr  Zr39  1  0.90078868  0.49506486  0.49829126  1
  Zr  Zr40  1  0.69864946  0.50249570  0.09190607  1
  Zr  Zr41  1  0.11516601  0.29636822  0.70355398  1
  Zr  Zr42  1  0.09725779  0.11436153  0.09827907  1
  Zr  Zr43  1  0.50502000  0.29957549  0.70499942  1
  Zr  Zr44  1  0.89163960  0.90407825  0.89233911  1
  Zr  Zr45  1  0.90253336  0.50144962  0.70128684  1
  Zr  Zr46  1  0.30643671  0.69924259  0.69726851  1
  Zr  Zr47  1  0.50173358  0.10157609  0.70345178  1
  Zr  Zr48  1  0.10162170  0.09479152  0.69838032  1
  Zr  Zr49  1  0.90261170  0.08710016  0.69911080  1
  Sc  Sc50  1  0.09610777  0.49238812  0.29442115  1
  Sc  Sc51  1  0.30548911  0.09660932  0.10510511  1
  Sc  Sc52  1  0.69574780  0.30200201  0.29635195  1
  Sc  Sc53  1  0.49232980  0.91032724  0.70486867  1
  Sc  Sc54  1  0.29450311  0.51136844  0.90896842  1
  Sc  Sc55  1  0.50909003  0.50210423  0.29649539  1
  Sc  Sc56  1  0.29304874  0.49987456  0.68824932  1
  Sc  Sc57  1  0.09890930  0.90732472  0.09620636  1
  Sc  Sc58  1  0.09447020  0.69620039  0.70024045  1
  Sc  Sc59  1  0.30645715  0.90418840  0.09237288  1
  Sc  Sc60  1  0.70559076  0.50212631  0.29383517  1
  Sc  Sc61  1  0.30393059  0.90477699  0.70603203  1
  Sc  Sc62  1  0.70510166  0.70744807  0.10586468  1
  Sc  Sc63  1  0.89407447  0.31276103  0.29424966  1
  Sc  Sc64  1  0.70113185  0.30789995  0.70460733  1
  Sc  Sc65  1  0.10231795  0.69164024  0.09702196  1
  Sc  Sc66  1  0.69612729  0.50090626  0.50038342  1
  Sc  Sc67  1  0.31121984  0.10102095  0.30261077  1
  Sc  Sc68  1  0.09154638  0.70529422  0.50075959  1
  Sc  Sc69  1  0.70174816  0.09525790  0.90222104  1
  Sc  Sc70  1  0.09958821  0.70900657  0.31006862  1
  Sc  Sc71  1  0.09627852  0.50185897  0.70031353  1
  Sc  Sc72  1  0.10395027  0.09976970  0.50762017  1
  Sc  Sc73  1  0.90171172  0.49671566  0.90265026  1
  Sc  Sc74  1  0.10432259  0.29564580  0.49903209  1
  Sc  Sc75  1  0.88739609  0.89883768  0.09372563  1
  Sc  Sc76  1  0.09557830  0.50060968  0.89497849  1
  Sc  Sc77  1  0.69883583  0.30604970  0.89909589  1
  Sc  Sc78  1  0.30091192  0.69602181  0.09077304  1
  Sc  Sc79  1  0.89984146  0.89632211  0.70141186  1
  Sc  Sc80  1  0.69653959  0.69628236  0.91127226  1
  Sc  Sc81  1  0.70054355  0.08460416  0.50034042  1
  Sc  Sc82  1  0.29937582  0.90239981  0.31287442  1
  Sc  Sc83  1  0.69573914  0.89328442  0.30163941  1
  Sc  Sc84  1  0.51380402  0.50418248  0.90428806  1
  Sc  Sc85  1  0.28863293  0.28633357  0.10964941  1
  Sc  Sc86  1  0.29545686  0.51109229  0.10294727  1
  Sc  Sc87  1  0.10996051  0.90359134  0.89160828  1
  Sc  Sc88  1  0.70054088  0.69422677  0.69056555  1
  Sc  Sc89  1  0.50069934  0.29160870  0.30404196  1
  Sc  Sc90  1  0.30175079  0.09853098  0.70274242  1
  Sc  Sc91  1  0.88271397  0.69744260  0.29274774  1
  Sc  Sc92  1  0.69321647  0.49743936  0.70258846  1
  Sc  Sc93  1  0.69233565  0.09571377  0.30548159  1
  Sc  Sc94  1  0.89678649  0.30397299  0.69549189  1
  Sc  Sc95  1  0.09745284  0.90038555  0.30912760  1
  Sc  Sc96  1  0.51040150  0.50132103  0.69638332  1
  Sc  Sc97  1  0.49433160  0.89906472  0.90328276  1
  Sc  Sc98  1  0.90110836  0.70307687  0.69591653  1
  Sc  Sc99  1  0.89511825  0.89894168  0.49981866  1
  Nb  Nb100  1  0.30040801  0.29678718  0.89700445  1
  Nb  Nb101  1  0.69858539  0.71061840  0.49302849  1
  Nb  Nb102  1  0.70103242  0.50252192  0.89727331  1
  Nb  Nb103  1  0.09471759  0.29755354  0.10060827  1
  Nb  Nb104  1  0.69907937  0.29504490  0.50157871  1
  Nb  Nb105  1  0.49756008  0.10047240  0.11430598  1
  Nb  Nb106  1  0.49730568  0.90351015  0.50070211  1
  Nb  Nb107  1  0.30510974  0.29848832  0.70381953  1
  Nb  Nb108  1  0.89484878  0.09895069  0.30348214  1
  Nb  Nb109  1  0.30729278  0.70420938  0.89780405  1
  Nb  Nb110  1  0.68927282  0.70467453  0.30600157  1
  Nb  Nb111  1  0.50823111  0.70450240  0.29771648  1
  Nb  Nb112  1  0.49965169  0.09710814  0.28852530  1
  Nb  Nb113  1  0.70075479  0.90355090  0.10033515  1
  Nb  Nb114  1  0.09919220  0.09919159  0.89961807  1
  Nb  Nb115  1  0.29532206  0.10086172  0.90510987  1
  Nb  Nb116  1  0.30348119  0.50359855  0.49495285  1
  Nb  Nb117  1  0.69962858  0.10007217  0.70111206  1
  Nb  Nb118  1  0.49632808  0.69772543  0.89883726  1
  Nb  Nb119  1  0.90393510  0.29675505  0.09713295  1
  Nb  Nb120  1  0.30530485  0.69847158  0.50242392  1
  Nb  Nb121  1  0.90154992  0.49973466  0.30138086  1
  Nb  Nb122  1  0.90076917  0.09752836  0.89958309  1
  Nb  Nb123  1  0.30870374  0.90039009  0.49797416  1
  Nb  Nb124  1  0.69361390  0.89431426  0.49541993  1
  Nb  Nb125  1  0.39349512  0.39278119  0.00058973  1
  Nb  Nb126  1  0.40112050  0.59969338  0.80273538  1
  Nb  Nb127  1  0.39853723  0.60134354  0.40051734  1
  Nb  Nb128  1  -0.00124713  0.19365191  0.80193224  1
  Nb  Nb129  1  0.59796066  0.79695154  0.79900305  1
  Nb  Nb130  1  0.19669273  -0.00266228  0.20256469  1
  Nb  Nb131  1  0.79697151  0.00192710  0.19944169  1
  Nb  Nb132  1  -0.00033956  0.80217565  0.19349542  1
  Nb  Nb133  1  0.80237131  0.20017679  0.40388671  1
  Nb  Nb134  1  0.20999025  0.80038571  0.59323497  1
  Nb  Nb135  1  0.20173477  0.39156953  0.00178526  1
  Nb  Nb136  1  0.19753653  0.80629900  0.19884761  1
  Nb  Nb137  1  -0.00278027  0.00349756  -0.00644133  1
  Nb  Nb138  1  -0.00002739  0.80363026  -0.00244049  1
  Nb  Nb139  1  0.39854577  0.20198041  -0.00237262  1
  Nb  Nb140  1  0.40004859  0.39644876  0.19326951  1
  Nb  Nb141  1  0.60203113  0.19759999  0.59996909  1
  Nb  Nb142  1  -0.00612799  0.59467582  0.39852938  1
  Nb  Nb143  1  0.40474943  0.20315362  0.60064009  1
  Nb  Nb144  1  -0.00876269  0.20071196  0.39606290  1
  Nb  Nb145  1  0.80529492  0.19241261  0.79813131  1
  Nb  Nb146  1  0.20275381  0.60009171  0.40692767  1
  Nb  Nb147  1  0.39552238  0.40393892  0.80573146  1
  Nb  Nb148  1  0.79729754  0.59626456  0.80365458  1
  Nb  Nb149  1  0.59935955  0.80711907  0.59648541  1
  Pd  Pd150  1  0.40036687  0.40069695  0.61061705  1
  Pd  Pd151  1  0.00034836  0.38942103  0.79749615  1
  Pd  Pd152  1  0.78996367  0.39644497  0.39796157  1
  Pd  Pd153  1  0.40560189  0.80028271  0.00548430  1
  Pd  Pd154  1  0.79214791  0.19890155  0.60238887  1
  Pd  Pd155  1  0.19514356  0.00634693  0.00654406  1
  Pd  Pd156  1  0.60336113  -0.00848600  0.80836122  1
  Pd  Pd157  1  0.79191378  0.40611084  0.60214602  1
  Pd  Pd158  1  0.19198502  0.40344484  0.40289932  1
  Pd  Pd159  1  0.00341673  0.40139259  0.00354928  1
  Pd  Pd160  1  0.80474588  0.80604174  0.39333435  1
  Pd  Pd161  1  0.20756618  0.40986169  0.80772868  1
  Pd  Pd162  1  0.79526567  0.59241364  0.60423288  1
  Pd  Pd163  1  0.00293652  0.80423349  0.59752790  1
  Pd  Pd164  1  0.78739255  0.78598629  0.79954620  1
  Pd  Pd165  1  0.59809659  0.39808254  0.19925151  1
  Pd  Pd166  1  0.20271246  0.18719688  0.21166258  1
  Pd  Pd167  1  0.40330100  0.59424769  0.20678603  1
  Pd  Pd168  1  0.79990574  -0.00842693  0.59846762  1
  Pd  Pd169  1  0.59060264  0.00552139  -0.00365426  1
  Pd  Pd170  1  0.60450138  0.40342702  0.39574593  1
  Pd  Pd171  1  0.79847673  0.59739798  0.39680227  1
  Pd  Pd172  1  0.20163101  0.19041768  0.79956854  1
  Pd  Pd173  1  0.79594935  0.19723669  0.21071567  1
  Pd  Pd174  1  0.00075589  0.00545702  0.41338199  1
  Pd  Pd175  1  0.00425134  0.60103782  -0.00303944  1
  Pd  Pd176  1  0.59483911  0.79687069  -0.00023773  1
  Pd  Pd177  1  0.00604329  0.80145960  0.80488052  1
  Pd  Pd178  1  0.80222887  0.40456269  0.00129619  1
  Pd  Pd179  1  0.59768062  -0.00165893  0.60199495  1
  Pd  Pd180  1  0.18752905  0.19116849  0.39249362  1
  Pd  Pd181  1  0.59907221  0.19445600  -0.00455039  1
  Pd  Pd182  1  0.20708742  0.59605563  0.79615330  1
  Pd  Pd183  1  0.40586254  0.79568592  0.39963951  1
  Pd  Pd184  1  0.21047908  -0.00651337  0.59998101  1
  Pd  Pd185  1  0.19585016  0.80025894  0.00644717  1
  Pd  Pd186  1  0.40907146  0.00987786  -0.00194042  1
  Pd  Pd187  1  0.20091807  0.39648915  0.59635888  1
  Pd  Pd188  1  0.60765632  0.60566128  0.19568529  1
  Pd  Pd189  1  0.40276732  0.80956232  0.60571410  1
  Pd  Pd190  1  0.19299704  0.60843668  0.59449163  1
  Pd  Pd191  1  -0.01790341  0.79070230  0.39249285  1
  Pd  Pd192  1  0.39282570  0.80666598  0.19487609  1
  Pd  Pd193  1  0.00877104  0.39126384  0.60785907  1
  Pd  Pd194  1  0.20138695  0.79866270  0.78814181  1
  Pd  Pd195  1  0.00524049  0.61084487  0.21188694  1
  Pd  Pd196  1  0.59763844  0.59776835  0.40226239  1
  Pd  Pd197  1  0.19177333  0.60966037  0.21141421  1
  Pd  Pd198  1  0.00275453  0.20580260  0.60283537  1
  Pd  Pd199  1  0.60555962  0.19501313  0.40435699  1
  Rh  Rh200  1  0.79159665  0.80433883  0.59873874  1
  Rh  Rh201  1  0.59565510  -0.00613902  0.39395301  1
  Rh  Rh202  1  0.60255278  0.39954278  -0.00244757  1
  Rh  Rh203  1  -0.00763037  0.60193469  0.79789955  1
  Rh  Rh204  1  0.20461376  0.00390542  0.80117827  1
  Rh  Rh205  1  0.39150520  0.19948473  0.80008996  1
  Rh  Rh206  1  0.59562963  0.40616576  0.80343268  1
  Rh  Rh207  1  0.61882191  0.20113613  0.79611177  1
  Rh  Rh208  1  0.79166407  0.59906096  0.20375810  1
  Rh  Rh209  1  0.79989249  0.59662782  -0.00467698  1
  Rh  Rh210  1  0.40253101  0.58903564  0.60207331  1
  Rh  Rh211  1  0.21427943  0.20399639  0.60043223  1
  Rh  Rh212  1  -0.00085950  -0.00968419  0.59410965  1
  Rh  Rh213  1  0.19279287  0.59514602  -0.00253455  1
  Rh  Rh214  1  0.60369561  0.60663153  0.80470640  1
  Rh  Rh215  1  0.79427825  -0.00114825  0.39520758  1
  Rh  Rh216  1  -0.00984697  0.21176099  0.20924026  1
  Rh  Rh217  1  0.80144377  0.40438824  0.80172067  1
  Rh  Rh218  1  0.60465079  0.19994254  0.20482944  1
  Rh  Rh219  1  0.00410647  0.39871073  0.39562454  1
  Rh  Rh220  1  -0.00373539  0.60251501  0.59389493  1
  Rh  Rh221  1  0.40750435  0.19607080  0.40411192  1
  Rh  Rh222  1  0.40407720  0.00051435  0.39494656  1
  Rh  Rh223  1  0.60745056  0.60646444  0.58957420  1
  Rh  Rh224  1  0.39335939  0.00444103  0.80867685  1
  Rh  Rh225  1  0.40750508  0.79390742  0.79895570  1
  Rh  Rh226  1  0.20780092  0.39835870  0.18977110  1
  Rh  Rh227  1  0.20149799  0.00779836  0.39421594  1
  Rh  Rh228  1  0.39192713  -0.00707221  0.20392961  1
  Rh  Rh229  1  0.80499021  0.01004747  0.01016165  1
  Rh  Rh230  1  0.00525629  -0.00047732  0.80414498  1
  Rh  Rh231  1  0.60485103  0.39174042  0.59755171  1
  Rh  Rh232  1  0.80389774  0.79653649  0.00048442  1
  Rh  Rh233  1  0.20855666  0.79330056  0.40445683  1
  Rh  Rh234  1  0.39777409  0.00652894  0.59884861  1
  Rh  Rh235  1  0.79911130  0.80949078  0.20388187  1
  Rh  Rh236  1  0.60218398  0.60699110  0.00521156  1
  Rh  Rh237  1  -0.00771001  0.39507179  0.19417925  1
  Rh  Rh238  1  -0.00526105  -0.00697821  0.18539815  1
  Rh  Rh239  1  0.60745089  -0.00159050  0.20504458  1
  Rh  Rh240  1  0.40796124  0.41066644  0.38645604  1
  Rh  Rh241  1  0.20580143  0.19877297  0.00143860  1
  Rh  Rh242  1  0.79673374  0.19729796  -0.00700059  1
  Rh  Rh243  1  0.80086761  0.40168580  0.19364772  1
  Rh  Rh244  1  0.40378103  0.20740741  0.19690452  1
  Rh  Rh245  1  0.58999401  0.80333730  0.40467113  1
  Rh  Rh246  1  -0.00396583  0.19637260  -0.00693045  1
  Rh  Rh247  1  0.40338191  0.59708251  -0.00756615  1
  Rh  Rh248  1  0.60278305  0.79900028  0.19780080  1
  Rh  Rh249  1  0.79393010  0.00525674  0.79819368  1
