# generated using pymatgen
data_ZrScNbPdRh
_symmetry_space_group_name_H-M   'P 1'
_cell_length_a   16.56089970
_cell_length_b   16.55972002
_cell_length_c   16.56093752
_cell_angle_alpha   90.03344816
_cell_angle_beta   89.98391965
_cell_angle_gamma   90.00173085
_symmetry_Int_Tables_number   1
_chemical_formula_structural   ZrScNbPdRh
_chemical_formula_sum   'Zr50 Sc50 Nb50 Pd50 Rh50'
_cell_volume   4541.73451199
_cell_formula_units_Z   50
loop_
 _symmetry_equiv_pos_site_id
 _symmetry_equiv_pos_as_xyz
  1  'x, y, z'
loop_
 _atom_site_type_symbol
 _atom_site_label
 _atom_site_symmetry_multiplicity
 _atom_site_fract_x
 _atom_site_fract_y
 _atom_site_fract_z
 _atom_site_occupancy
  Zr  Zr0  1  0.30366640  0.29750723  0.29753670  1
  Zr  Zr1  1  0.70108116  0.09861087  0.10504683  1
  Zr  Zr2  1  0.89277641  0.29639241  0.89396823  1
  Zr  Zr3  1  0.10015304  0.69616341  0.89769580  1
  Zr  Zr4  1  0.50712614  0.50058479  0.70638428  1
  Zr  Zr5  1  0.90185035  0.30437741  0.50784269  1
  Zr  Zr6  1  0.90806617  0.29383450  0.30299056  1
  Zr  Zr7  1  0.50062521  0.09991560  0.68736915  1
  Zr  Zr8  1  0.50084828  0.09888948  0.90152406  1
  Zr  Zr9  1  0.49730884  0.69260343  0.31160213  1
  Zr  Zr10  1  0.30099612  0.30173789  0.09814534  1
  Zr  Zr11  1  0.49802997  0.30841934  0.10646710  1
  Zr  Zr12  1  0.09944739  0.29943774  0.30165862  1
  Zr  Zr13  1  0.30167444  0.69348120  0.90287189  1
  Zr  Zr14  1  0.69678556  0.71176393  0.89334603  1
  Zr  Zr15  1  0.70631413  0.89431783  0.10042041  1
  Zr  Zr16  1  0.48415355  0.69713648  0.10176243  1
  Zr  Zr17  1  0.30152969  0.50367669  0.89827164  1
  Zr  Zr18  1  0.09455975  0.70234066  0.70190291  1
  Zr  Zr19  1  0.70447600  0.09802864  0.69008554  1
  Zr  Zr20  1  0.09537690  0.50688679  0.31741992  1
  Zr  Zr21  1  0.50947675  0.69370113  0.69086974  1
  Zr  Zr22  1  0.71548607  0.10346003  0.90006408  1
  Zr  Zr23  1  0.69659394  0.50947471  0.69295648  1
  Zr  Zr24  1  0.30337031  0.10851065  0.09925671  1
  Zr  Zr25  1  0.10180642  0.50686741  0.89327089  1
  Zr  Zr26  1  0.50301164  0.88446075  0.89784167  1
  Zr  Zr27  1  0.69231597  0.49717780  0.88874031  1
  Zr  Zr28  1  0.70115928  0.29747934  0.10708064  1
  Zr  Zr29  1  0.89977066  0.70804338  0.89141373  1
  Zr  Zr30  1  0.50477614  0.50022688  0.29979434  1
  Zr  Zr31  1  0.89799585  0.49600590  0.89788889  1
  Zr  Zr32  1  0.30012062  0.69973517  0.50097987  1
  Zr  Zr33  1  0.91155385  0.69784167  0.29457843  1
  Zr  Zr34  1  0.70625476  0.89637447  0.89829113  1
  Zr  Zr35  1  0.28713305  0.50365743  0.49915051  1
  Zr  Zr36  1  0.89722889  0.50199223  0.10785866  1
  Zr  Zr37  1  0.29911131  0.50418776  0.30605234  1
  Zr  Zr38  1  0.50376849  0.51247762  0.50601067  1
  Zr  Zr39  1  0.70002604  0.49334774  0.10701100  1
  Zr  Zr40  1  0.29577865  0.10387444  0.30279285  1
  Zr  Zr41  1  0.70069314  0.91230304  0.49876741  1
  Zr  Zr42  1  0.10326206  0.50379153  0.70006030  1
  Zr  Zr43  1  0.50644322  0.09193267  0.50465827  1
  Zr  Zr44  1  0.09766955  0.30291372  0.89446148  1
  Zr  Zr45  1  0.89672276  0.50519624  0.30595144  1
  Zr  Zr46  1  0.10187575  0.09574768  0.50599817  1
  Zr  Zr47  1  0.29277882  0.69462777  0.10125615  1
  Zr  Zr48  1  0.09412860  0.29985011  0.69559530  1
  Zr  Zr49  1  0.09385601  0.31290400  0.49843057  1
  Sc  Sc50  1  0.89894997  0.09692028  0.10681685  1
  Sc  Sc51  1  0.70724413  0.30143568  0.89841252  1
  Sc  Sc52  1  0.90180429  0.90139899  0.50222331  1
  Sc  Sc53  1  0.30104402  0.10027710  0.50514641  1
  Sc  Sc54  1  0.29219232  0.88749119  0.30390374  1
  Sc  Sc55  1  0.30190921  0.30079417  0.69386320  1
  Sc  Sc56  1  0.29766002  0.89592495  0.69298206  1
  Sc  Sc57  1  0.50651956  0.28734956  0.50276909  1
  Sc  Sc58  1  0.49724989  0.89450307  0.68840213  1
  Sc  Sc59  1  0.50750304  0.10397802  0.29987981  1
  Sc  Sc60  1  0.70320267  0.30519139  0.69855605  1
  Sc  Sc61  1  0.89890568  0.29746388  0.69762260  1
  Sc  Sc62  1  0.89236351  0.50134524  0.69915744  1
  Sc  Sc63  1  0.29817617  0.70271334  0.69493601  1
  Sc  Sc64  1  0.90183560  0.10015780  0.69890536  1
  Sc  Sc65  1  0.50232267  0.30611640  0.69252912  1
  Sc  Sc66  1  0.49776933  0.89038509  0.10281336  1
  Sc  Sc67  1  0.10305511  0.89146941  0.50127815  1
  Sc  Sc68  1  0.08477200  0.89950669  0.09951794  1
  Sc  Sc69  1  0.29506032  0.89786742  0.50393857  1
  Sc  Sc70  1  0.89783392  0.30524982  0.10531470  1
  Sc  Sc71  1  0.30340170  0.50118178  0.69463464  1
  Sc  Sc72  1  0.70048384  0.09468650  0.29656786  1
  Sc  Sc73  1  0.29490789  0.09534211  0.69220789  1
  Sc  Sc74  1  0.70037933  0.69931874  0.50531357  1
  Sc  Sc75  1  0.09125497  0.09864614  0.09993682  1
  Sc  Sc76  1  0.09844652  0.09570811  0.89465441  1
  Sc  Sc77  1  0.90193610  0.89786442  0.10199247  1
  Sc  Sc78  1  0.09888771  0.09410421  0.69963704  1
  Sc  Sc79  1  0.30330997  0.70301585  0.29908404  1
  Sc  Sc80  1  0.30621719  0.87986716  0.10857407  1
  Sc  Sc81  1  0.09091162  0.90210922  0.89594465  1
  Sc  Sc82  1  0.08802799  0.70466016  0.10571397  1
  Sc  Sc83  1  0.90030799  0.90651168  0.90595329  1
  Sc  Sc84  1  0.09691173  0.10721355  0.29705388  1
  Sc  Sc85  1  0.70368368  0.90525187  0.30323220  1
  Sc  Sc86  1  0.09032303  0.50305990  0.09835290  1
  Sc  Sc87  1  0.50329899  0.89560841  0.50085812  1
  Sc  Sc88  1  0.89748585  0.89934985  0.29672007  1
  Sc  Sc89  1  0.89553254  0.09710422  0.51179803  1
  Sc  Sc90  1  0.29335210  0.10462342  0.89871268  1
  Sc  Sc91  1  0.30106653  0.29851802  0.90212933  1
  Sc  Sc92  1  0.50856547  0.89754602  0.30637295  1
  Sc  Sc93  1  0.30890099  0.50711705  0.09595065  1
  Sc  Sc94  1  0.89870839  0.70870840  0.50108391  1
  Sc  Sc95  1  0.70975541  0.69253485  0.30955149  1
  Sc  Sc96  1  0.30151864  0.88979418  0.89208366  1
  Sc  Sc97  1  0.50025331  0.31494387  0.90129167  1
  Sc  Sc98  1  0.90277483  0.89852837  0.69264420  1
  Sc  Sc99  1  0.29910797  0.29777481  0.50078769  1
  Nb  Nb100  1  0.89963164  0.10608587  0.90468625  1
  Nb  Nb101  1  0.50091140  0.50660048  0.89836384  1
  Nb  Nb102  1  0.71140829  0.49876449  0.49257408  1
  Nb  Nb103  1  0.50296691  0.30746959  0.30498769  1
  Nb  Nb104  1  0.09548990  0.50655890  0.50051917  1
  Nb  Nb105  1  0.09959566  0.90054634  0.68990658  1
  Nb  Nb106  1  0.69825016  0.89374801  0.70551769  1
  Nb  Nb107  1  0.70513357  0.29551136  0.49783833  1
  Nb  Nb108  1  0.49736162  0.69912495  0.50105762  1
  Nb  Nb109  1  0.09666943  0.30310405  0.09921839  1
  Nb  Nb110  1  0.50115250  0.09626040  0.09764463  1
  Nb  Nb111  1  0.10148370  0.69347968  0.49723621  1
  Nb  Nb112  1  0.49960425  0.69330625  0.89752806  1
  Nb  Nb113  1  0.69618193  0.49814268  0.31143299  1
  Nb  Nb114  1  0.89584702  0.70078516  0.09883593  1
  Nb  Nb115  1  0.10048770  0.70581900  0.30294616  1
  Nb  Nb116  1  0.50347871  0.49984820  0.09657277  1
  Nb  Nb117  1  0.71192770  0.70365736  0.70086513  1
  Nb  Nb118  1  0.10022070  0.89529363  0.29623204  1
  Nb  Nb119  1  0.70147771  0.69810913  0.09669083  1
  Nb  Nb120  1  0.89618529  0.69845708  0.69478374  1
  Nb  Nb121  1  0.68869832  0.30625247  0.30771163  1
  Nb  Nb122  1  0.69867883  0.10371520  0.50366711  1
  Nb  Nb123  1  0.90693630  0.49879151  0.50210660  1
  Nb  Nb124  1  0.90546855  0.09959619  0.29941157  1
  Nb  Nb125  1  0.40611103  0.39886125  0.39977680  1
  Nb  Nb126  1  0.00290078  0.00058230  0.39626114  1
  Nb  Nb127  1  0.40668436  0.19520649  0.79608365  1
  Nb  Nb128  1  0.60129300  -0.00108914  0.79981814  1
  Nb  Nb129  1  0.60195149  0.59821200  0.19732953  1
  Nb  Nb130  1  0.39898184  -0.00269013  0.00151415  1
  Nb  Nb131  1  0.19210881  0.59894665  0.20544687  1
  Nb  Nb132  1  0.59913612  -0.00053108  -0.00166606  1
  Nb  Nb133  1  0.19653249  0.40363241  0.19801438  1
  Nb  Nb134  1  0.60025941  0.19676386  0.00214879  1
  Nb  Nb135  1  0.39628462  0.00135952  0.20157402  1
  Nb  Nb136  1  0.39726528  0.00202278  0.39583568  1
  Nb  Nb137  1  0.40577743  0.00129200  0.80090697  1
  Nb  Nb138  1  0.19594186  0.40094508  0.00403262  1
  Nb  Nb139  1  0.79540872  0.60402478  0.00005676  1
  Nb  Nb140  1  0.79494906  0.20148110  0.40217532  1
  Nb  Nb141  1  0.59917166  0.19532158  0.80177316  1
  Nb  Nb142  1  -0.00163618  0.60159207  0.59742894  1
  Nb  Nb143  1  0.20271106  -0.00393927  0.19622281  1
  Nb  Nb144  1  0.20663758  -0.00806829  0.00727534  1
  Nb  Nb145  1  -0.00482134  0.20375848  -0.00363657  1
  Nb  Nb146  1  0.59860510  0.60068602  0.00099029  1
  Nb  Nb147  1  -0.01227175  0.60379081  -0.00211547  1
  Nb  Nb148  1  0.60501655  0.78536448  0.20022754  1
  Nb  Nb149  1  0.19474512  0.79937897  -0.00009958  1
  Pd  Pd150  1  0.18616234  0.19870002  0.00006837  1
  Pd  Pd151  1  0.19808445  0.40052343  0.60028334  1
  Pd  Pd152  1  0.20633696  0.20187755  0.79254278  1
  Pd  Pd153  1  0.19560011  0.20291220  0.59944475  1
  Pd  Pd154  1  0.60931311  0.79542306  0.39748055  1
  Pd  Pd155  1  0.60565817  0.19270433  0.39822846  1
  Pd  Pd156  1  0.79769051  0.39564557  0.21678479  1
  Pd  Pd157  1  -0.00162189  0.19414924  0.80008771  1
  Pd  Pd158  1  0.79696424  0.79783495  0.20638846  1
  Pd  Pd159  1  0.20867314  0.39675478  0.80151406  1
  Pd  Pd160  1  0.80813014  0.60556265  0.40941906  1
  Pd  Pd161  1  0.79690257  0.40395906  0.60204152  1
  Pd  Pd162  1  0.79607694  0.80724083  0.59809805  1
  Pd  Pd163  1  -0.00654593  -0.00140345  0.79674323  1
  Pd  Pd164  1  0.41207967  0.19606754  0.20440037  1
  Pd  Pd165  1  0.19795012  -0.00357498  0.39338850  1
  Pd  Pd166  1  0.40490874  0.79655301  0.78925607  1
  Pd  Pd167  1  0.79328388  0.60182632  0.20089825  1
  Pd  Pd168  1  -0.00416295  0.80980380  0.79492248  1
  Pd  Pd169  1  0.60676996  0.80045407  0.59689217  1
  Pd  Pd170  1  0.40498648  0.19790557  0.40412253  1
  Pd  Pd171  1  0.59606130  0.79628793  0.00914005  1
  Pd  Pd172  1  0.00122588  0.80744185  0.40119207  1
  Pd  Pd173  1  0.00148049  0.40068069  -0.00249834  1
  Pd  Pd174  1  0.80234585  -0.00044040  0.00781681  1
  Pd  Pd175  1  0.39783248  0.60408759  0.78935841  1
  Pd  Pd176  1  0.59490135  -0.01284023  0.19616928  1
  Pd  Pd177  1  0.39866403  0.39511219  0.79842141  1
  Pd  Pd178  1  0.19553616  0.80276395  0.80120528  1
  Pd  Pd179  1  0.80485103  -0.00374134  0.79198741  1
  Pd  Pd180  1  0.80050863  0.20047445  0.21119173  1
  Pd  Pd181  1  0.39872035  0.80887213  0.40440642  1
  Pd  Pd182  1  0.79632797  0.40236754  -0.00090488  1
  Pd  Pd183  1  0.39518823  0.40844528  0.20383355  1
  Pd  Pd184  1  0.60624218  0.39965319  0.59097906  1
  Pd  Pd185  1  0.60381791  0.39834826  -0.00229111  1
  Pd  Pd186  1  0.80920986  0.01019133  0.39978176  1
  Pd  Pd187  1  0.20648080  -0.00671682  0.80298142  1
  Pd  Pd188  1  0.40784102  0.20358702  -0.00715092  1
  Pd  Pd189  1  0.59460561  0.20322904  0.19926563  1
  Pd  Pd190  1  0.79867372  0.60079067  0.80295692  1
  Pd  Pd191  1  0.59352604  0.40231168  0.41543662  1
  Pd  Pd192  1  0.80562867  0.39254616  0.39615035  1
  Pd  Pd193  1  0.00472961  0.40497269  0.20850317  1
  Pd  Pd194  1  0.40226251  0.40189819  0.58849386  1
  Pd  Pd195  1  0.19122466  0.19998578  0.19355553  1
  Pd  Pd196  1  -0.00682569  0.18962842  0.41367023  1
  Pd  Pd197  1  0.19687091  0.20409021  0.40804688  1
  Pd  Pd198  1  -0.00662646  0.40246485  0.79115360  1
  Pd  Pd199  1  0.80035981  0.80157135  0.40000377  1
  Rh  Rh200  1  0.39764951  0.20057076  0.60338599  1
  Rh  Rh201  1  0.59495329  0.79682863  0.78849607  1
  Rh  Rh202  1  0.19344355  0.60473026  0.60283300  1
  Rh  Rh203  1  0.19466199  0.79642985  0.59987058  1
  Rh  Rh204  1  0.60601574  -0.01015436  0.60481020  1
  Rh  Rh205  1  0.19693068  0.79434138  0.40377853  1
  Rh  Rh206  1  -0.00083273  0.79368737  -0.00287836  1
  Rh  Rh207  1  0.21027486  0.60260200  0.78970036  1
  Rh  Rh208  1  0.80412457  0.20358128  0.00992940  1
  Rh  Rh209  1  0.60209500  0.40292124  0.20492051  1
  Rh  Rh210  1  0.20721750  0.39119815  0.39648075  1
  Rh  Rh211  1  -0.00183408  0.20129393  0.18910019  1
  Rh  Rh212  1  0.80395886  -0.00152320  0.20147447  1
  Rh  Rh213  1  0.60589820  0.60117419  0.40376292  1
  Rh  Rh214  1  0.59865594  0.39383637  0.79742955  1
  Rh  Rh215  1  0.39975201  0.59508424  0.20301066  1
  Rh  Rh216  1  0.60370526  0.61012118  0.80158723  1
  Rh  Rh217  1  0.40822928  0.59563033  -0.00367791  1
  Rh  Rh218  1  0.39149758  0.79884581  -0.00742966  1
  Rh  Rh219  1  -0.00744400  0.60810032  0.41047756  1
  Rh  Rh220  1  -0.00407694  0.80326527  0.20199623  1
  Rh  Rh221  1  0.59666512  0.00417313  0.40086642  1
  Rh  Rh222  1  0.60879501  0.20799026  0.60654191  1
  Rh  Rh223  1  0.00258802  0.19764919  0.60072526  1
  Rh  Rh224  1  0.18365889  0.60184505  0.01224301  1
  Rh  Rh225  1  0.00010089  0.41033246  0.60638860  1
  Rh  Rh226  1  0.79811716  -0.00578663  0.60315367  1
  Rh  Rh227  1  0.39761411  0.60017191  0.60083385  1
  Rh  Rh228  1  0.79768986  0.19902661  0.79062367  1
  Rh  Rh229  1  0.80966328  0.80770024  0.79373221  1
  Rh  Rh230  1  0.00447268  -0.00429339  0.59369724  1
  Rh  Rh231  1  0.80020138  0.20221255  0.59681177  1
  Rh  Rh232  1  0.39481047  -0.00436783  0.59339925  1
  Rh  Rh233  1  0.61092035  0.60385298  0.59354198  1
  Rh  Rh234  1  0.41400920  0.80318677  0.21646732  1
  Rh  Rh235  1  0.39625172  0.59461665  0.40842441  1
  Rh  Rh236  1  0.00087433  0.01112226  -0.00380791  1
  Rh  Rh237  1  0.40010956  0.79542399  0.59509146  1
  Rh  Rh238  1  0.20206012  0.61257067  0.39424913  1
  Rh  Rh239  1  -0.01018224  0.59801019  0.79456344  1
  Rh  Rh240  1  0.80513594  0.59980235  0.59319451  1
  Rh  Rh241  1  0.00417757  -0.00108300  0.21148757  1
  Rh  Rh242  1  -0.00557197  0.40242177  0.39859039  1
  Rh  Rh243  1  0.79791689  0.40095474  0.79236377  1
  Rh  Rh244  1  0.80740401  0.79728883  -0.00102245  1
  Rh  Rh245  1  0.00404166  0.79395973  0.59905708  1
  Rh  Rh246  1  0.00405270  0.60055984  0.19730170  1
  Rh  Rh247  1  0.19887586  -0.00536424  0.60094732  1
  Rh  Rh248  1  0.18765838  0.79816061  0.19422734  1
  Rh  Rh249  1  0.39501571  0.40787956  -0.00352471  1
