# generated using pymatgen
data_ZrScNbPdRh
_symmetry_space_group_name_H-M   'P 1'
_cell_length_a   16.55303889
_cell_length_b   16.55393469
_cell_length_c   16.55398838
_cell_angle_alpha   89.96797074
_cell_angle_beta   89.99492369
_cell_angle_gamma   89.99117890
_symmetry_Int_Tables_number   1
_chemical_formula_structural   ZrScNbPdRh
_chemical_formula_sum   'Zr50 Sc50 Nb50 Pd50 Rh50'
_cell_volume   4536.08875975
_cell_formula_units_Z   50
loop_
 _symmetry_equiv_pos_site_id
 _symmetry_equiv_pos_as_xyz
  1  'x, y, z'
loop_
 _atom_site_type_symbol
 _atom_site_label
 _atom_site_symmetry_multiplicity
 _atom_site_fract_x
 _atom_site_fract_y
 _atom_site_fract_z
 _atom_site_occupancy
  Zr  Zr0  1  0.50489689  0.70372922  0.70608365  1
  Zr  Zr1  1  0.09675321  0.08904692  0.90554256  1
  Zr  Zr2  1  0.29224750  0.90197985  0.90206390  1
  Zr  Zr3  1  0.29912365  0.90253523  0.29295047  1
  Zr  Zr4  1  0.30809559  0.09966550  0.30552405  1
  Zr  Zr5  1  0.90652561  0.49772193  0.50528437  1
  Zr  Zr6  1  0.29354435  0.29188872  0.10911646  1
  Zr  Zr7  1  0.30273144  0.70071532  0.68792925  1
  Zr  Zr8  1  0.09895439  0.30664118  0.29692139  1
  Zr  Zr9  1  0.90607195  0.29957846  0.70071038  1
  Zr  Zr10  1  0.29152716  0.50733788  0.29301234  1
  Zr  Zr11  1  0.30068514  0.30399998  0.89354159  1
  Zr  Zr12  1  0.08768893  0.29514077  0.90371352  1
  Zr  Zr13  1  0.49486834  0.90347685  0.69711964  1
  Zr  Zr14  1  0.09426816  0.50164898  0.69975533  1
  Zr  Zr15  1  0.71247970  0.09838420  0.29963696  1
  Zr  Zr16  1  0.90988738  0.90090544  0.69866152  1
  Zr  Zr17  1  0.29655426  0.90901629  0.69838620  1
  Zr  Zr18  1  0.10102707  0.69033000  0.50057651  1
  Zr  Zr19  1  0.69517071  0.90039002  0.29545412  1
  Zr  Zr20  1  0.09629994  0.89973598  0.29920317  1
  Zr  Zr21  1  0.10376762  0.10396610  0.09643252  1
  Zr  Zr22  1  0.69307402  0.29859970  0.70310630  1
  Zr  Zr23  1  0.69905784  0.70431901  0.29978505  1
  Zr  Zr24  1  0.69356671  0.30533474  0.90578227  1
  Zr  Zr25  1  0.09319780  0.90473364  0.50554764  1
  Zr  Zr26  1  0.50118375  0.09996104  0.10155830  1
  Zr  Zr27  1  0.50374426  0.49300683  0.90140153  1
  Zr  Zr28  1  0.70122840  0.70205672  0.89317479  1
  Zr  Zr29  1  0.89862617  0.90530220  0.30893877  1
  Zr  Zr30  1  0.08842695  0.69512899  0.09072359  1
  Zr  Zr31  1  0.70495056  0.70793338  0.09658311  1
  Zr  Zr32  1  0.90331686  0.70691220  0.49946224  1
  Zr  Zr33  1  0.49933000  0.70710189  0.89922762  1
  Zr  Zr34  1  0.91172080  0.49914453  0.09490497  1
  Zr  Zr35  1  0.89861763  0.89132103  0.09921192  1
  Zr  Zr36  1  0.29104808  0.70080493  0.90265310  1
  Zr  Zr37  1  0.50013396  0.90605655  0.49630908  1
  Zr  Zr38  1  0.49848826  0.11318828  0.70283224  1
  Zr  Zr39  1  0.70336870  0.69852930  0.70409184  1
  Zr  Zr40  1  0.68706194  0.49185374  0.50022130  1
  Zr  Zr41  1  0.29253856  0.50408493  0.70395513  1
  Zr  Zr42  1  0.29798500  0.09469939  0.90355571  1
  Zr  Zr43  1  0.09795945  0.50250953  0.29910541  1
  Zr  Zr44  1  0.89491214  0.29845791  0.90112454  1
  Zr  Zr45  1  0.08926848  0.29296271  0.49893496  1
  Zr  Zr46  1  0.69296390  0.50257284  0.29973821  1
  Zr  Zr47  1  0.70479644  0.70064927  0.50036138  1
  Zr  Zr48  1  0.29452963  0.28983330  0.49845331  1
  Zr  Zr49  1  0.89800277  0.70118921  0.69725234  1
  Sc  Sc50  1  0.90055686  0.10329191  0.89685220  1
  Sc  Sc51  1  0.09394096  0.70407127  0.70149403  1
  Sc  Sc52  1  0.91164803  0.70427822  0.30138574  1
  Sc  Sc53  1  0.90192812  0.69111230  0.90621096  1
  Sc  Sc54  1  0.29176597  0.50475738  0.89493624  1
  Sc  Sc55  1  0.69596712  0.49100847  0.09526327  1
  Sc  Sc56  1  0.70386333  0.89761903  0.90257284  1
  Sc  Sc57  1  0.29830672  0.10063475  0.50184843  1
  Sc  Sc58  1  0.90428036  0.10427837  0.48779404  1
  Sc  Sc59  1  0.10266939  0.09154761  0.30346983  1
  Sc  Sc60  1  0.09183747  0.09445606  0.68876569  1
  Sc  Sc61  1  0.30045391  0.28661827  0.30418525  1
  Sc  Sc62  1  0.91547940  0.49887657  0.29940266  1
  Sc  Sc63  1  0.10051350  0.69441731  0.29981908  1
  Sc  Sc64  1  0.90188444  0.49422420  0.89835002  1
  Sc  Sc65  1  0.30447004  0.29431562  0.70194996  1
  Sc  Sc66  1  0.50887922  0.50025354  0.11119409  1
  Sc  Sc67  1  0.30094796  0.70438788  0.10741886  1
  Sc  Sc68  1  0.49917994  0.90173292  0.09660258  1
  Sc  Sc69  1  0.71211112  0.10660391  0.89735706  1
  Sc  Sc70  1  0.69914619  0.10408298  0.10524088  1
  Sc  Sc71  1  0.69510996  0.30154944  0.50173491  1
  Sc  Sc72  1  0.50076571  0.10295393  0.89934574  1
  Sc  Sc73  1  0.09872469  0.90313019  0.09977806  1
  Sc  Sc74  1  0.71230657  0.89390190  0.71257948  1
  Sc  Sc75  1  0.50601730  0.29521070  0.50098825  1
  Sc  Sc76  1  0.50182345  0.09704601  0.29883812  1
  Sc  Sc77  1  0.49718575  0.90409593  0.90676853  1
  Sc  Sc78  1  0.70079045  0.90657585  0.10089229  1
  Sc  Sc79  1  0.50907775  0.50156436  0.30157971  1
  Sc  Sc80  1  0.30480353  0.90428223  0.50944199  1
  Sc  Sc81  1  0.51617761  0.29794405  0.10103789  1
  Sc  Sc82  1  0.29783311  0.09461512  0.10456486  1
  Sc  Sc83  1  0.49766781  0.28784200  0.30318271  1
  Sc  Sc84  1  0.49626429  0.70058885  0.51081464  1
  Sc  Sc85  1  0.09444164  0.90039250  0.70279200  1
  Sc  Sc86  1  0.70664097  0.49512575  0.89646839  1
  Sc  Sc87  1  0.70042656  0.28867073  0.29954541  1
  Sc  Sc88  1  0.88932319  0.10211319  0.09542154  1
  Sc  Sc89  1  0.90591830  0.30331552  0.08843608  1
  Sc  Sc90  1  0.70779355  0.89858692  0.48043457  1
  Sc  Sc91  1  0.10058083  0.50941927  0.89611626  1
  Sc  Sc92  1  0.29029369  0.51637144  0.50799191  1
  Sc  Sc93  1  0.90095611  0.29256257  0.30759937  1
  Sc  Sc94  1  0.89821250  0.49944205  0.70271694  1
  Sc  Sc95  1  0.50469324  0.50250057  0.69910802  1
  Sc  Sc96  1  0.70124996  0.49582914  0.69413287  1
  Sc  Sc97  1  0.30261269  0.90202023  0.09799444  1
  Sc  Sc98  1  0.10535616  0.10269009  0.50002125  1
  Sc  Sc99  1  0.50592913  0.69789326  0.28422307  1
  Nb  Nb100  1  0.09612356  0.30228210  0.10143337  1
  Nb  Nb101  1  0.89607347  0.30086727  0.49817090  1
  Nb  Nb102  1  0.49890773  0.49170455  0.49555454  1
  Nb  Nb103  1  0.88913687  0.09511851  0.70521917  1
  Nb  Nb104  1  0.10119366  0.29535561  0.69927699  1
  Nb  Nb105  1  0.49969949  0.90256644  0.30554149  1
  Nb  Nb106  1  0.49899230  0.29931617  0.89199958  1
  Nb  Nb107  1  0.29912844  0.49553276  0.10154430  1
  Nb  Nb108  1  0.90187362  0.89847471  0.49905425  1
  Nb  Nb109  1  0.70802423  0.29817173  0.10004576  1
  Nb  Nb110  1  0.70344652  0.10183342  0.50283043  1
  Nb  Nb111  1  0.50429860  0.09870474  0.49874890  1
  Nb  Nb112  1  0.89797109  0.10811892  0.29593187  1
  Nb  Nb113  1  0.29976612  0.70142674  0.30273967  1
  Nb  Nb114  1  0.10021673  0.48764626  0.10906127  1
  Nb  Nb115  1  0.49826857  0.69769776  0.09101450  1
  Nb  Nb116  1  0.09430136  0.89285147  0.89857368  1
  Nb  Nb117  1  0.29616230  0.10266717  0.70267266  1
  Nb  Nb118  1  0.29915465  0.70368908  0.49861488  1
  Nb  Nb119  1  0.91301222  0.91029783  0.89287630  1
  Nb  Nb120  1  0.49821429  0.30018959  0.71256398  1
  Nb  Nb121  1  0.70489495  0.09975396  0.70266731  1
  Nb  Nb122  1  0.09871559  0.49850693  0.49719316  1
  Nb  Nb123  1  0.89746193  0.69115587  0.10017244  1
  Nb  Nb124  1  0.10289017  0.70725334  0.89962301  1
  Nb  Nb125  1  0.59684655  0.60452222  -0.00138689  1
  Nb  Nb126  1  0.80050490  0.59477539  0.39727270  1
  Nb  Nb127  1  0.39710946  0.39906674  0.20196034  1
  Nb  Nb128  1  0.19525858  0.19507904  0.79717844  1
  Nb  Nb129  1  0.40122226  0.20890000  -0.00152826  1
  Nb  Nb130  1  -0.00002431  0.19887049  0.19772185  1
  Nb  Nb131  1  0.80060033  0.40344090  0.39927521  1
  Nb  Nb132  1  0.19821148  0.39954058  0.00839579  1
  Nb  Nb133  1  0.40139368  0.59538914  0.00543890  1
  Nb  Nb134  1  0.80274347  0.40043570  0.20306171  1
  Nb  Nb135  1  0.80381801  0.59767229  0.19969863  1
  Nb  Nb136  1  0.39684392  0.60345265  0.39909895  1
  Nb  Nb137  1  0.20036438  0.40395469  0.40611481  1
  Nb  Nb138  1  0.39688067  0.40019848  0.59654020  1
  Nb  Nb139  1  0.60468082  0.00481986  0.79213578  1
  Nb  Nb140  1  0.60541659  0.80901714  0.60161586  1
  Nb  Nb141  1  0.19667589  0.39613759  0.59845372  1
  Nb  Nb142  1  0.80050216  0.00366304  0.59755478  1
  Nb  Nb143  1  0.39462955  0.40768703  0.40272150  1
  Nb  Nb144  1  0.60965072  0.00388099  0.60078231  1
  Nb  Nb145  1  0.20589999  0.79734604  0.40138122  1
  Nb  Nb146  1  0.39728718  0.39957886  0.00729967  1
  Nb  Nb147  1  0.39273021  0.80219948  0.79991652  1
  Nb  Nb148  1  0.39715251  0.79707083  0.39532538  1
  Nb  Nb149  1  0.80107769  0.19646123  0.60141138  1
  Pd  Pd150  1  0.79456000  0.81203361  0.59682451  1
  Pd  Pd151  1  0.18983973  0.39274115  0.80020299  1
  Pd  Pd152  1  0.20232106  0.79801430  0.79118883  1
  Pd  Pd153  1  0.00435163  0.18988256  0.79649781  1
  Pd  Pd154  1  -0.00999503  0.19156959  0.59990786  1
  Pd  Pd155  1  0.81616500  0.80061419  0.81139044  1
  Pd  Pd156  1  0.40318717  0.59467972  0.19988344  1
  Pd  Pd157  1  0.40784596  0.80348753  0.20175544  1
  Pd  Pd158  1  0.59932111  0.60381082  0.59786645  1
  Pd  Pd159  1  -0.00274384  0.60472549  0.80308444  1
  Pd  Pd160  1  0.19347569  0.60899820  0.18949141  1
  Pd  Pd161  1  0.20399363  0.20641870  -0.00735214  1
  Pd  Pd162  1  0.59966162  0.19665592  -0.00389562  1
  Pd  Pd163  1  0.40260724  0.01418678  0.59839289  1
  Pd  Pd164  1  0.00173407  0.79704395  0.19844399  1
  Pd  Pd165  1  0.79269427  0.59101369  0.00349033  1
  Pd  Pd166  1  -0.00767920  0.00905923  0.19358115  1
  Pd  Pd167  1  0.60245636  0.19935856  0.60119144  1
  Pd  Pd168  1  0.19337524  0.80416650  0.59708273  1
  Pd  Pd169  1  0.60187999  0.80256309  0.00100509  1
  Pd  Pd170  1  0.59298190  0.61020545  0.40659156  1
  Pd  Pd171  1  0.80483743  -0.00276853  0.19777351  1
  Pd  Pd172  1  -0.00555043  0.00074937  0.00822541  1
  Pd  Pd173  1  0.40168733  0.20271887  0.59698135  1
  Pd  Pd174  1  0.59308735  0.80619514  0.19084144  1
  Pd  Pd175  1  0.18826528  0.00486771  0.79462237  1
  Pd  Pd176  1  0.40615070  0.59233206  0.59591473  1
  Pd  Pd177  1  0.39703788  0.60331024  0.80736757  1
  Pd  Pd178  1  0.40610553  0.00056355  0.80413839  1
  Pd  Pd179  1  0.60643597  0.59156305  0.80546996  1
  Pd  Pd180  1  0.60736992  0.00731091  -0.00939924  1
  Pd  Pd181  1  0.19987239  0.59384331  0.00835759  1
  Pd  Pd182  1  0.79965446  0.39766395  0.79588080  1
  Pd  Pd183  1  0.19851761  0.80337278  0.01076097  1
  Pd  Pd184  1  0.40507414  -0.00200509  0.19860677  1
  Pd  Pd185  1  0.80684226  0.79571004  0.20643015  1
  Pd  Pd186  1  -0.00055617  0.00647230  0.40125816  1
  Pd  Pd187  1  0.81010275  0.80372431  -0.00923974  1
  Pd  Pd188  1  0.20640467  -0.00800119  0.40572378  1
  Pd  Pd189  1  -0.00743868  0.79956391  -0.00576760  1
  Pd  Pd190  1  0.19161829  0.79610643  0.19943476  1
  Pd  Pd191  1  0.79989985  -0.00114572  -0.00525373  1
  Pd  Pd192  1  0.40046280  0.40873824  0.79542538  1
  Pd  Pd193  1  0.19193229  0.19188157  0.20992331  1
  Pd  Pd194  1  0.60119951  0.38761673  0.20893609  1
  Pd  Pd195  1  0.00332600  0.39872986  0.60277345  1
  Pd  Pd196  1  0.79881562  0.59325051  0.59548584  1
  Pd  Pd197  1  0.60321111  0.19486849  0.39657867  1
  Pd  Pd198  1  0.60457119  0.00812671  0.39930741  1
  Pd  Pd199  1  0.58763007  0.79125473  0.40544976  1
  Rh  Rh200  1  0.80079790  0.39138659  0.59457075  1
  Rh  Rh201  1  0.60509734  0.19580178  0.20232154  1
  Rh  Rh202  1  -0.01098562  0.00510410  0.59361297  1
  Rh  Rh203  1  0.00020993  0.60289471  0.19621358  1
  Rh  Rh204  1  0.79899738  0.20344332  -0.00008899  1
  Rh  Rh205  1  -0.01133230  0.38780161  0.20233861  1
  Rh  Rh206  1  0.59766008  -0.00155264  0.20331340  1
  Rh  Rh207  1  0.00375141  0.00386582  0.79759919  1
  Rh  Rh208  1  -0.00437845  0.19217466  0.00717678  1
  Rh  Rh209  1  0.39286797  0.79566040  -0.00499152  1
  Rh  Rh210  1  0.01089816  0.80172058  0.40386143  1
  Rh  Rh211  1  0.80195246  0.59768607  0.79757061  1
  Rh  Rh212  1  0.58567409  0.39256660  0.60795713  1
  Rh  Rh213  1  0.79895770  0.21011352  0.79708737  1
  Rh  Rh214  1  0.19094461  0.59899141  0.60686725  1
  Rh  Rh215  1  -0.00058743  0.60108899  0.60167618  1
  Rh  Rh216  1  0.19348443  0.61239886  0.79339986  1
  Rh  Rh217  1  0.80508417  0.00480054  0.40204106  1
  Rh  Rh218  1  0.40798766  0.20384405  0.19074376  1
  Rh  Rh219  1  0.80031556  0.40071323  0.00630671  1
  Rh  Rh220  1  0.61219713  0.60729678  0.18496444  1
  Rh  Rh221  1  0.39786921  -0.00157366  0.40074216  1
  Rh  Rh222  1  0.80612089  0.79403283  0.39255099  1
  Rh  Rh223  1  0.80064832  -0.00541700  0.80271373  1
  Rh  Rh224  1  0.01074163  0.40875983  -0.00805764  1
  Rh  Rh225  1  0.40525084  0.80198564  0.60003235  1
  Rh  Rh226  1  0.20575671  0.39574462  0.20425614  1
  Rh  Rh227  1  0.59655079  0.40076336  -0.00012410  1
  Rh  Rh228  1  0.19960451  0.20055588  0.60935885  1
  Rh  Rh229  1  0.80994689  0.21033303  0.19315783  1
  Rh  Rh230  1  0.59851231  0.39024876  0.39417120  1
  Rh  Rh231  1  0.59060415  0.81640706  0.79672019  1
  Rh  Rh232  1  0.20207567  0.60100554  0.39970693  1
  Rh  Rh233  1  0.00713523  0.59458505  -0.00375292  1
  Rh  Rh234  1  0.20077967  0.00147211  0.19922846  1
  Rh  Rh235  1  0.60550396  0.19636376  0.80617540  1
  Rh  Rh236  1  0.79695602  0.20581359  0.40850371  1
  Rh  Rh237  1  -0.00039154  0.39864887  0.40206527  1
  Rh  Rh238  1  0.00226030  0.39915937  0.80161632  1
  Rh  Rh239  1  0.00474393  0.19506105  0.39051758  1
  Rh  Rh240  1  -0.00494585  0.60076428  0.40292694  1
  Rh  Rh241  1  0.19575482  -0.00974735  0.00374479  1
  Rh  Rh242  1  0.19275770  0.20086149  0.39567524  1
  Rh  Rh243  1  0.39963050  0.00946945  0.00391271  1
  Rh  Rh244  1  0.60087893  0.40299327  0.79533161  1
  Rh  Rh245  1  0.39061850  0.19418584  0.80729707  1
  Rh  Rh246  1  0.19891847  0.00265814  0.60109662  1
  Rh  Rh247  1  0.40686817  0.19444847  0.40859747  1
  Rh  Rh248  1  0.00314753  0.79881353  0.59772331  1
  Rh  Rh249  1  -0.00297290  0.79473070  0.80809302  1
