# generated using pymatgen
data_ZrScNbPdRh
_symmetry_space_group_name_H-M   'P 1'
_cell_length_a   16.55391547
_cell_length_b   16.55419156
_cell_length_c   16.55078720
_cell_angle_alpha   90.03002812
_cell_angle_beta   89.98896236
_cell_angle_gamma   89.99725816
_symmetry_Int_Tables_number   1
_chemical_formula_structural   ZrScNbPdRh
_chemical_formula_sum   'Zr50 Sc50 Nb50 Pd50 Rh50'
_cell_volume   4535.52219214
_cell_formula_units_Z   50
loop_
 _symmetry_equiv_pos_site_id
 _symmetry_equiv_pos_as_xyz
  1  'x, y, z'
loop_
 _atom_site_type_symbol
 _atom_site_label
 _atom_site_symmetry_multiplicity
 _atom_site_fract_x
 _atom_site_fract_y
 _atom_site_fract_z
 _atom_site_occupancy
  Zr  Zr0  1  0.49769761  0.89824599  0.30683816  1
  Zr  Zr1  1  0.29877455  0.10370349  0.30989139  1
  Zr  Zr2  1  0.50395720  0.49926513  0.29436358  1
  Zr  Zr3  1  0.10457912  0.68817797  0.90180238  1
  Zr  Zr4  1  0.90113719  0.30156903  0.90115352  1
  Zr  Zr5  1  0.49939296  0.70045175  0.90947252  1
  Zr  Zr6  1  0.90574401  0.49812343  0.50164692  1
  Zr  Zr7  1  0.70230132  0.70537339  0.91062797  1
  Zr  Zr8  1  0.50136180  0.09464274  0.70412252  1
  Zr  Zr9  1  0.50590432  0.09972549  0.90426678  1
  Zr  Zr10  1  0.10487735  0.49774754  0.30458484  1
  Zr  Zr11  1  0.29970642  0.09807847  0.10550085  1
  Zr  Zr12  1  0.30085454  0.70496183  0.09430907  1
  Zr  Zr13  1  0.49754078  0.70217998  0.29529809  1
  Zr  Zr14  1  0.10526672  0.29546656  0.09569590  1
  Zr  Zr15  1  0.88753039  0.10211233  0.30529714  1
  Zr  Zr16  1  0.89743337  0.09734714  0.69278036  1
  Zr  Zr17  1  0.10018321  0.30068398  0.89767036  1
  Zr  Zr18  1  0.09679673  0.70626952  0.29345848  1
  Zr  Zr19  1  0.48831615  0.30268045  0.30648143  1
  Zr  Zr20  1  0.90137611  0.69890842  0.30072662  1
  Zr  Zr21  1  0.89545744  0.69800245  0.50081270  1
  Zr  Zr22  1  0.69037237  0.89871416  0.49739553  1
  Zr  Zr23  1  0.69947472  0.49851147  0.30288909  1
  Zr  Zr24  1  0.50336470  0.49299414  0.90307191  1
  Zr  Zr25  1  0.89275784  0.50782040  0.29034350  1
  Zr  Zr26  1  0.90603620  0.69945692  0.89449920  1
  Zr  Zr27  1  0.10570994  0.10961557  0.89995361  1
  Zr  Zr28  1  0.50303951  0.29643032  0.90522664  1
  Zr  Zr29  1  0.50642636  0.90296117  0.69622401  1
  Zr  Zr30  1  0.70691331  0.50002018  0.51422113  1
  Zr  Zr31  1  0.90315107  0.28834329  0.49900751  1
  Zr  Zr32  1  0.50695614  0.29851492  0.49811612  1
  Zr  Zr33  1  0.91020469  0.50339704  0.89724835  1
  Zr  Zr34  1  0.89654212  0.90086679  0.69901835  1
  Zr  Zr35  1  0.88457970  0.50031501  0.70630343  1
  Zr  Zr36  1  0.70058616  0.50724731  0.11184282  1
  Zr  Zr37  1  0.29351842  0.89467760  0.09768126  1
  Zr  Zr38  1  0.69361064  0.30172719  0.89755920  1
  Zr  Zr39  1  0.30450037  0.91566393  0.48722941  1
  Zr  Zr40  1  0.30523790  0.50768460  0.89569127  1
  Zr  Zr41  1  0.30176709  0.49545150  0.30163427  1
  Zr  Zr42  1  0.69990282  0.90499011  0.70122091  1
  Zr  Zr43  1  0.09301271  0.10232505  0.50148694  1
  Zr  Zr44  1  0.50190449  0.50030139  0.70071765  1
  Zr  Zr45  1  0.09404593  0.31117749  0.50011985  1
  Zr  Zr46  1  0.28280227  0.50063101  0.49895616  1
  Zr  Zr47  1  0.30087902  0.29416750  0.90593441  1
  Zr  Zr48  1  0.70073850  0.69317105  0.29358744  1
  Zr  Zr49  1  0.30441404  0.29756350  0.48472169  1
  Sc  Sc50  1  0.50307631  0.70365607  0.10230228  1
  Sc  Sc51  1  0.10404932  0.90016042  0.29550532  1
  Sc  Sc52  1  0.70254269  0.69830341  0.68867460  1
  Sc  Sc53  1  0.50622609  0.50022917  0.50365383  1
  Sc  Sc54  1  0.90179534  0.70188945  0.70394797  1
  Sc  Sc55  1  0.31060948  0.90857264  0.71151783  1
  Sc  Sc56  1  0.49504717  0.29633899  0.09631295  1
  Sc  Sc57  1  0.29535947  0.09843517  0.71145445  1
  Sc  Sc58  1  0.90831816  0.69857309  0.10272907  1
  Sc  Sc59  1  0.89852888  0.89893960  0.09786052  1
  Sc  Sc60  1  0.30296099  0.69762481  0.30110918  1
  Sc  Sc61  1  0.10712952  0.70414128  0.09778236  1
  Sc  Sc62  1  0.89045513  0.11177386  0.10516112  1
  Sc  Sc63  1  0.90206956  0.30138371  0.69650942  1
  Sc  Sc64  1  0.30614684  0.49364449  0.09560952  1
  Sc  Sc65  1  0.10207519  0.09883870  0.09657168  1
  Sc  Sc66  1  0.09476052  0.69045867  0.50149878  1
  Sc  Sc67  1  0.50596482  0.09954445  0.29543101  1
  Sc  Sc68  1  0.89291030  0.89703653  0.89264574  1
  Sc  Sc69  1  0.51385588  0.30011762  0.70180566  1
  Sc  Sc70  1  0.50386268  0.70013394  0.69464020  1
  Sc  Sc71  1  0.69222082  0.91038709  0.29875097  1
  Sc  Sc72  1  0.10932617  0.10413586  0.29392861  1
  Sc  Sc73  1  0.68278331  0.29873912  0.30495888  1
  Sc  Sc74  1  0.09468263  0.10261305  0.70535610  1
  Sc  Sc75  1  0.30239104  0.68960930  0.70322648  1
  Sc  Sc76  1  0.09440811  0.69972293  0.70650519  1
  Sc  Sc77  1  0.10160331  0.50173096  0.69103299  1
  Sc  Sc78  1  0.09782925  0.91095962  0.90510327  1
  Sc  Sc79  1  0.30007643  0.69044160  0.49783753  1
  Sc  Sc80  1  0.29840558  0.90548252  0.29282656  1
  Sc  Sc81  1  0.69550611  0.09858707  0.70549414  1
  Sc  Sc82  1  0.69328815  0.09706488  0.90291625  1
  Sc  Sc83  1  0.69964914  0.29268809  0.09934316  1
  Sc  Sc84  1  0.69618568  0.89663384  0.89912394  1
  Sc  Sc85  1  0.30425499  0.29802933  0.10212816  1
  Sc  Sc86  1  0.70211368  0.31021571  0.69576481  1
  Sc  Sc87  1  0.69641751  0.29817843  0.50137518  1
  Sc  Sc88  1  0.69334702  0.09573526  0.11185698  1
  Sc  Sc89  1  0.50096241  0.89874298  0.10499547  1
  Sc  Sc90  1  0.50191175  0.09679808  0.09675609  1
  Sc  Sc91  1  0.50508674  0.70527028  0.50028044  1
  Sc  Sc92  1  0.29974101  0.09017415  0.90355159  1
  Sc  Sc93  1  0.90190770  0.89574706  0.29981361  1
  Sc  Sc94  1  0.90132369  0.09592253  0.90199651  1
  Sc  Sc95  1  0.29942184  0.29817943  0.70514946  1
  Sc  Sc96  1  0.30165117  0.69805888  0.90634080  1
  Sc  Sc97  1  0.08548885  0.90157137  0.70012667  1
  Sc  Sc98  1  0.49751413  0.49921297  0.09869961  1
  Sc  Sc99  1  0.49876510  0.89892100  0.89773618  1
  Nb  Nb100  1  0.10027061  0.89504711  0.10596164  1
  Nb  Nb101  1  0.29992632  0.89245655  0.90106699  1
  Nb  Nb102  1  0.10532974  0.29508556  0.70167848  1
  Nb  Nb103  1  0.69837287  0.70954445  0.09767753  1
  Nb  Nb104  1  0.69739048  0.89329449  0.09556347  1
  Nb  Nb105  1  0.90284663  0.90279191  0.50113154  1
  Nb  Nb106  1  0.89973501  0.49829558  0.09867904  1
  Nb  Nb107  1  0.89873566  0.30327909  0.10253536  1
  Nb  Nb108  1  0.10216211  0.30331716  0.29136445  1
  Nb  Nb109  1  0.49698363  0.90462058  0.50264322  1
  Nb  Nb110  1  0.29679660  0.10321842  0.49817995  1
  Nb  Nb111  1  0.09715602  0.50352066  0.08675914  1
  Nb  Nb112  1  0.10475145  0.50302204  0.90089653  1
  Nb  Nb113  1  0.89594352  0.10140871  0.49711165  1
  Nb  Nb114  1  0.10385977  0.49817900  0.49750650  1
  Nb  Nb115  1  0.90769365  0.30187684  0.29441298  1
  Nb  Nb116  1  0.70017658  0.69705358  0.49871206  1
  Nb  Nb117  1  0.30363776  0.49814415  0.70022501  1
  Nb  Nb118  1  0.69656830  0.09497612  0.30726945  1
  Nb  Nb119  1  0.70067891  0.50122209  0.70601184  1
  Nb  Nb120  1  0.70562685  0.09971055  0.47903858  1
  Nb  Nb121  1  0.29290152  0.30217374  0.29593131  1
  Nb  Nb122  1  0.09923386  0.90257207  0.50159936  1
  Nb  Nb123  1  0.70944024  0.49927121  0.89682874  1
  Nb  Nb124  1  0.49417769  0.09522023  0.50026677  1
  Nb  Nb125  1  0.39450204  0.39826380  0.60133755  1
  Nb  Nb126  1  0.60771551  0.59558976  0.80515506  1
  Nb  Nb127  1  0.80385930  0.40475253  0.00399425  1
  Nb  Nb128  1  0.80738589  0.39772896  0.39699715  1
  Nb  Nb129  1  0.00017582  0.39909751  0.19284376  1
  Nb  Nb130  1  0.79644808  0.79861578  0.40067789  1
  Nb  Nb131  1  0.79902220  0.20131785  0.80161393  1
  Nb  Nb132  1  0.19959680  0.59437386  0.19625820  1
  Nb  Nb133  1  -0.00198240  0.00186330  0.20199754  1
  Nb  Nb134  1  -0.00337670  0.00192615  0.40146071  1
  Nb  Nb135  1  0.80065493  0.00320024  0.58580197  1
  Nb  Nb136  1  0.20028068  0.40543277  0.80050509  1
  Nb  Nb137  1  0.00423727  0.80140863  -0.00125295  1
  Nb  Nb138  1  0.19681554  0.80436568  0.40899647  1
  Nb  Nb139  1  0.79369364  0.79943040  0.19926912  1
  Nb  Nb140  1  0.60659881  0.60133054  0.40058911  1
  Nb  Nb141  1  0.40616746  0.19790680  0.80050507  1
  Nb  Nb142  1  0.39604798  0.81018445  0.59453484  1
  Nb  Nb143  1  0.79420751  -0.00435613  0.00485099  1
  Nb  Nb144  1  0.20463459  0.80917090  0.59962302  1
  Nb  Nb145  1  0.20305993  0.19886864  0.59637849  1
  Nb  Nb146  1  0.80170708  0.59704276  0.00165886  1
  Nb  Nb147  1  0.20220532  0.80334132  0.80129083  1
  Nb  Nb148  1  0.19926650  0.00062965  0.59650725  1
  Nb  Nb149  1  0.39801163  0.19784137  0.59970079  1
  Pd  Pd150  1  0.80138938  -0.00743176  0.19667608  1
  Pd  Pd151  1  0.00244759  0.19691958  0.19907450  1
  Pd  Pd152  1  0.00623902  0.19493415  0.38854847  1
  Pd  Pd153  1  0.01008371  0.59401359  0.19298996  1
  Pd  Pd154  1  0.00368198  0.59629235  0.39913234  1
  Pd  Pd155  1  0.78905634  0.19527282  0.60570947  1
  Pd  Pd156  1  0.20636518  0.39179891  0.60579929  1
  Pd  Pd157  1  -0.00515113  0.40397413  0.39041262  1
  Pd  Pd158  1  0.60398265  0.79406176  0.39636009  1
  Pd  Pd159  1  0.41013709  0.59503987  0.40666592  1
  Pd  Pd160  1  0.79806778  0.80571290  0.59489520  1
  Pd  Pd161  1  -0.00302846  0.40199920  0.60856146  1
  Pd  Pd162  1  0.39693606  0.79286467  0.79401330  1
  Pd  Pd163  1  -0.00168405  0.39749870  0.00345677  1
  Pd  Pd164  1  0.20645931  0.40383289  -0.00580172  1
  Pd  Pd165  1  0.60477630  0.59590336  0.00076082  1
  Pd  Pd166  1  0.39506514  0.59968207  0.19242261  1
  Pd  Pd167  1  0.19275176  -0.00864318  0.79421025  1
  Pd  Pd168  1  0.39082379  0.00444182  0.60394532  1
  Pd  Pd169  1  0.60303132  0.19094964  0.59538490  1
  Pd  Pd170  1  0.39974941  0.19821901  0.20298401  1
  Pd  Pd171  1  0.60298800  0.79022610  0.79676319  1
  Pd  Pd172  1  0.01010342  0.40498286  0.78981635  1
  Pd  Pd173  1  -0.00935638  0.19755851  0.79633986  1
  Pd  Pd174  1  -0.00363555  0.19538180  0.00514228  1
  Pd  Pd175  1  0.60998630  0.01163099  0.59077970  1
  Pd  Pd176  1  0.78900921  0.20841503  0.21076879  1
  Pd  Pd177  1  0.18724586  0.20772054  0.40173738  1
  Pd  Pd178  1  0.79544591  0.21477142  0.38961421  1
  Pd  Pd179  1  0.00112392  0.80564590  0.40335820  1
  Pd  Pd180  1  -0.00813567  -0.00107811  0.00820044  1
  Pd  Pd181  1  0.19653577  0.60896566  0.60621244  1
  Pd  Pd182  1  0.39907615  0.39089556  0.79617223  1
  Pd  Pd183  1  0.60908411  0.40190760  0.01001866  1
  Pd  Pd184  1  0.59294520  0.39125827  0.19226550  1
  Pd  Pd185  1  0.40189936  -0.00008626  0.20292979  1
  Pd  Pd186  1  0.79864613  0.38884804  0.20261907  1
  Pd  Pd187  1  0.40225625  0.41148544  0.40783413  1
  Pd  Pd188  1  0.40167084  -0.00668656  -0.00009574  1
  Pd  Pd189  1  0.39093044  0.79779009  0.40463301  1
  Pd  Pd190  1  0.19671496  0.40575015  0.19052662  1
  Pd  Pd191  1  0.00459939  0.79538358  0.59956206  1
  Pd  Pd192  1  -0.00441290  0.59805453  0.60632571  1
  Pd  Pd193  1  0.79438107  0.19604970  -0.00563314  1
  Pd  Pd194  1  -0.00206342  0.00206385  0.80425379  1
  Pd  Pd195  1  0.79281040  0.79431575  0.79483855  1
  Pd  Pd196  1  0.40182813  0.59849073  0.59333185  1
  Pd  Pd197  1  0.41100976  0.60692449  0.80084710  1
  Pd  Pd198  1  0.19951612  -0.00144090  0.00326690  1
  Pd  Pd199  1  0.59539278  0.20145539  0.20077965  1
  Rh  Rh200  1  0.60532428  -0.00566249  0.00314905  1
  Rh  Rh201  1  0.59817946  -0.00407855  0.19950191  1
  Rh  Rh202  1  0.79924436  0.39084611  0.80627566  1
  Rh  Rh203  1  0.19944966  0.59755698  0.79478909  1
  Rh  Rh204  1  0.81033250  0.79887075  0.00728742  1
  Rh  Rh205  1  -0.00269824  0.60688525  0.00196120  1
  Rh  Rh206  1  0.79602717  0.59628361  0.40923284  1
  Rh  Rh207  1  0.20773053  0.59336613  0.00805300  1
  Rh  Rh208  1  0.39797832  0.19301414  -0.00322825  1
  Rh  Rh209  1  0.20582208  0.19467582  0.00366836  1
  Rh  Rh210  1  0.79255143  0.61046266  0.80478290  1
  Rh  Rh211  1  0.80110362  0.61298621  0.18634585  1
  Rh  Rh212  1  0.59635185  0.40290789  0.60195152  1
  Rh  Rh213  1  0.80500446  -0.01061169  0.40178202  1
  Rh  Rh214  1  0.19427480  0.00242426  0.19518718  1
  Rh  Rh215  1  0.60256447  0.60017733  0.60176093  1
  Rh  Rh216  1  0.40723133  0.19302785  0.39938993  1
  Rh  Rh217  1  0.40395972  0.80505997  0.00301692  1
  Rh  Rh218  1  0.40045433  0.39868210  -0.00037322  1
  Rh  Rh219  1  0.20654999  0.20528951  0.79805891  1
  Rh  Rh220  1  0.19637279  0.39214811  0.39640154  1
  Rh  Rh221  1  0.40051331  0.39483614  0.20068700  1
  Rh  Rh222  1  0.60276789  0.40649170  0.79874359  1
  Rh  Rh223  1  0.59378333  0.60459179  0.19988873  1
  Rh  Rh224  1  0.20559111  0.20104191  0.19821533  1
  Rh  Rh225  1  0.18989531  0.80577024  -0.01141439  1
  Rh  Rh226  1  0.18889325  -0.00361658  0.40081651  1
  Rh  Rh227  1  0.80839303  0.39197229  0.59098991  1
  Rh  Rh228  1  0.60349559  0.80456973  0.20237432  1
  Rh  Rh229  1  0.40215113  0.60021861  0.00353004  1
  Rh  Rh230  1  0.20733192  0.79311152  0.20838327  1
  Rh  Rh231  1  0.39760542  0.80324370  0.19947300  1
  Rh  Rh232  1  0.19090913  0.61173592  0.39048290  1
  Rh  Rh233  1  0.80485503  0.60224038  0.60398538  1
  Rh  Rh234  1  0.60324180  0.20192603  0.79864999  1
  Rh  Rh235  1  0.59425261  0.79942935  0.59896756  1
  Rh  Rh236  1  0.00399507  0.59089435  0.79143584  1
  Rh  Rh237  1  0.79740971  0.00896991  0.80512248  1
  Rh  Rh238  1  0.40553922  0.00491504  0.81099206  1
  Rh  Rh239  1  0.40701955  0.00808171  0.39153252  1
  Rh  Rh240  1  0.58999064  0.80733714  0.00066315  1
  Rh  Rh241  1  0.60247051  0.19607311  0.00840783  1
  Rh  Rh242  1  -0.00661413  0.80932138  0.19161877  1
  Rh  Rh243  1  0.59043763  0.00562373  0.40264190  1
  Rh  Rh244  1  -0.00434307  0.00408168  0.59538977  1
  Rh  Rh245  1  0.59983633  -0.00602754  0.80583205  1
  Rh  Rh246  1  0.01203503  0.80345833  0.81204819  1
  Rh  Rh247  1  0.00744222  0.20254240  0.60544874  1
  Rh  Rh248  1  0.59273331  0.19207730  0.40228570  1
  Rh  Rh249  1  0.60980631  0.41032356  0.40965386  1
