# generated using pymatgen
data_ZrScNbPdRh
_symmetry_space_group_name_H-M   'P 1'
_cell_length_a   16.55608132
_cell_length_b   16.55355663
_cell_length_c   16.55446983
_cell_angle_alpha   90.00466641
_cell_angle_beta   90.04435875
_cell_angle_gamma   90.02209273
_symmetry_Int_Tables_number   1
_chemical_formula_structural   ZrScNbPdRh
_chemical_formula_sum   'Zr50 Sc50 Nb50 Pd50 Rh50'
_cell_volume   4536.94989014
_cell_formula_units_Z   50
loop_
 _symmetry_equiv_pos_site_id
 _symmetry_equiv_pos_as_xyz
  1  'x, y, z'
loop_
 _atom_site_type_symbol
 _atom_site_label
 _atom_site_symmetry_multiplicity
 _atom_site_fract_x
 _atom_site_fract_y
 _atom_site_fract_z
 _atom_site_occupancy
  Zr  Zr0  1  0.29430974  0.29984505  0.30042547  1
  Zr  Zr1  1  0.91156387  0.49510114  0.10529527  1
  Zr  Zr2  1  0.70598083  0.30146072  0.89963510  1
  Zr  Zr3  1  0.90095839  0.29607630  0.70067950  1
  Zr  Zr4  1  0.29283019  0.70346283  0.49676917  1
  Zr  Zr5  1  0.29700851  0.89525293  0.09258607  1
  Zr  Zr6  1  0.29377297  0.51062246  0.90190129  1
  Zr  Zr7  1  0.50958356  0.30424344  0.50122815  1
  Zr  Zr8  1  0.50531763  0.30091412  0.70170017  1
  Zr  Zr9  1  0.09569554  0.30532482  0.10186345  1
  Zr  Zr10  1  0.50960973  0.30535855  0.31244525  1
  Zr  Zr11  1  0.29890623  0.29511568  0.70190258  1
  Zr  Zr12  1  0.89398102  0.49770521  0.90412199  1
  Zr  Zr13  1  0.90520292  0.89319207  0.09752577  1
  Zr  Zr14  1  0.70197421  0.69658227  0.30371052  1
  Zr  Zr15  1  0.69955513  0.48995900  0.30156868  1
  Zr  Zr16  1  0.30747541  0.29525874  0.90069239  1
  Zr  Zr17  1  0.89453881  0.70340940  0.89667807  1
  Zr  Zr18  1  0.29979085  0.49872850  0.69968486  1
  Zr  Zr19  1  0.29569380  0.70541940  0.90851437  1
  Zr  Zr20  1  0.69733865  0.89174502  0.89923755  1
  Zr  Zr21  1  0.49925188  0.49390097  0.69920438  1
  Zr  Zr22  1  0.29984339  0.09858508  0.69630085  1
  Zr  Zr23  1  0.10636679  0.50233666  0.10575714  1
  Zr  Zr24  1  0.29691612  0.69795319  0.70340665  1
  Zr  Zr25  1  0.89544512  0.30473396  0.29833289  1
  Zr  Zr26  1  0.30841426  0.89496566  0.89139668  1
  Zr  Zr27  1  0.90050954  0.09057541  0.49867289  1
  Zr  Zr28  1  0.90632458  0.69908468  0.29882182  1
  Zr  Zr29  1  0.70667790  0.89866178  0.49985712  1
  Zr  Zr30  1  0.10241238  0.09964854  0.29855014  1
  Zr  Zr31  1  0.50058827  0.09422037  0.29914980  1
  Zr  Zr32  1  0.90399283  0.09645188  0.09629680  1
  Zr  Zr33  1  0.09627331  0.50589617  0.70807062  1
  Zr  Zr34  1  0.09518565  0.09742330  0.10130683  1
  Zr  Zr35  1  0.69891023  0.70291532  0.70466401  1
  Zr  Zr36  1  0.09464520  0.89174542  0.90612188  1
  Zr  Zr37  1  0.50124646  0.10597793  0.88895400  1
  Zr  Zr38  1  0.49827822  0.89499417  0.71181816  1
  Zr  Zr39  1  0.89051830  0.70114787  0.48880982  1
  Zr  Zr40  1  0.08462896  0.10088316  0.90460493  1
  Zr  Zr41  1  0.50278306  0.10752658  0.49813084  1
  Zr  Zr42  1  0.50239245  0.10067795  0.09705588  1
  Zr  Zr43  1  0.09341891  0.90090237  0.50622222  1
  Zr  Zr44  1  0.08815053  0.10220838  0.69839443  1
  Zr  Zr45  1  0.30409282  0.09423127  0.49695565  1
  Zr  Zr46  1  0.70471009  0.09692575  0.49825252  1
  Zr  Zr47  1  0.89867742  0.10376503  0.30121374  1
  Zr  Zr48  1  0.10155907  0.70845555  0.49978217  1
  Zr  Zr49  1  0.50531332  0.30140720  0.89394675  1
  Sc  Sc50  1  0.30438283  0.50468069  0.49648968  1
  Sc  Sc51  1  0.89714842  0.90172494  0.49760108  1
  Sc  Sc52  1  0.70412707  0.89777402  0.09593538  1
  Sc  Sc53  1  0.09727329  0.29324239  0.91031968  1
  Sc  Sc54  1  0.49143162  0.89839573  0.29083876  1
  Sc  Sc55  1  0.29443735  0.30179696  0.09842874  1
  Sc  Sc56  1  0.50153882  0.30209571  0.09210824  1
  Sc  Sc57  1  0.69431753  0.49650717  0.09163162  1
  Sc  Sc58  1  0.90655358  0.69626812  0.09532951  1
  Sc  Sc59  1  0.69778738  0.50123964  0.90014527  1
  Sc  Sc60  1  0.10235698  0.29589484  0.30820787  1
  Sc  Sc61  1  0.10183503  0.69963614  0.30063538  1
  Sc  Sc62  1  0.50741887  0.89406832  0.10185920  1
  Sc  Sc63  1  0.70347565  0.90553414  0.29441491  1
  Sc  Sc64  1  0.29565341  0.50791392  0.10427811  1
  Sc  Sc65  1  0.70564576  0.29995388  0.30492814  1
  Sc  Sc66  1  0.70267375  0.50039948  0.70643615  1
  Sc  Sc67  1  0.48729275  0.69863573  0.49312386  1
  Sc  Sc68  1  0.30176442  0.90561716  0.69294546  1
  Sc  Sc69  1  0.30646269  0.69372377  0.10107590  1
  Sc  Sc70  1  0.50208279  0.90115915  0.51072557  1
  Sc  Sc71  1  0.89654791  0.89783966  0.90187679  1
  Sc  Sc72  1  0.90738439  0.30827224  0.49798057  1
  Sc  Sc73  1  0.29249188  0.50825612  0.29566911  1
  Sc  Sc74  1  0.50733936  0.70967299  0.90562130  1
  Sc  Sc75  1  0.70273417  0.69831283  0.90344917  1
  Sc  Sc76  1  0.09858342  0.10473489  0.49344474  1
  Sc  Sc77  1  0.49986503  0.09511156  0.69567971  1
  Sc  Sc78  1  0.09789314  0.70293359  0.10192531  1
  Sc  Sc79  1  0.30281146  0.10992169  0.89336562  1
  Sc  Sc80  1  0.50686013  0.51212642  0.10265236  1
  Sc  Sc81  1  0.71202701  0.09149097  0.10945778  1
  Sc  Sc82  1  0.09395102  0.49778956  0.49151392  1
  Sc  Sc83  1  0.09084798  0.90299577  0.10017512  1
  Sc  Sc84  1  0.88786438  0.49526897  0.69590747  1
  Sc  Sc85  1  0.29937413  0.29301243  0.49524965  1
  Sc  Sc86  1  0.29741739  0.10332941  0.10216036  1
  Sc  Sc87  1  0.70187272  0.30814250  0.70214933  1
  Sc  Sc88  1  0.70326482  0.70592806  0.50552316  1
  Sc  Sc89  1  0.30594391  0.70228172  0.30351974  1
  Sc  Sc90  1  0.90509962  0.89724646  0.30680810  1
  Sc  Sc91  1  0.71315101  0.49873375  0.50471439  1
  Sc  Sc92  1  0.09613630  0.69186211  0.89591440  1
  Sc  Sc93  1  0.69626527  0.89601370  0.69263244  1
  Sc  Sc94  1  0.09637410  0.49978444  0.91032830  1
  Sc  Sc95  1  0.09348726  0.90581904  0.29741422  1
  Sc  Sc96  1  0.89790478  0.29897718  0.10037924  1
  Sc  Sc97  1  0.70315336  0.09398368  0.70682749  1
  Sc  Sc98  1  0.29463283  0.90064819  0.49728283  1
  Sc  Sc99  1  0.10253904  0.50481995  0.29688612  1
  Nb  Nb100  1  0.69085045  0.69697884  0.10374537  1
  Nb  Nb101  1  0.29577480  0.91247547  0.29137663  1
  Nb  Nb102  1  0.89458526  0.50215029  0.30831654  1
  Nb  Nb103  1  0.69651690  0.29564325  0.10125315  1
  Nb  Nb104  1  0.51372408  0.69657033  0.11211534  1
  Nb  Nb105  1  0.50326847  0.49723460  0.30499462  1
  Nb  Nb106  1  0.90325487  0.70283322  0.70488134  1
  Nb  Nb107  1  0.09401105  0.89368983  0.69888113  1
  Nb  Nb108  1  0.89910682  0.29463433  0.89672840  1
  Nb  Nb109  1  0.09369318  0.70322300  0.69879231  1
  Nb  Nb110  1  0.49938993  0.90373416  0.89966949  1
  Nb  Nb111  1  0.50206570  0.49854077  0.49729653  1
  Nb  Nb112  1  0.10113166  0.29989133  0.50272614  1
  Nb  Nb113  1  0.50445210  0.49956932  0.90236377  1
  Nb  Nb114  1  0.70610230  0.10083417  0.89882216  1
  Nb  Nb115  1  0.70171549  0.10093914  0.30096025  1
  Nb  Nb116  1  0.70060793  0.29460080  0.50184263  1
  Nb  Nb117  1  0.29913336  0.09271045  0.29966839  1
  Nb  Nb118  1  0.09621128  0.30117373  0.69396247  1
  Nb  Nb119  1  0.89831641  0.50371592  0.49458508  1
  Nb  Nb120  1  0.89824470  0.09924162  0.70511208  1
  Nb  Nb121  1  0.91220454  0.90615801  0.69622388  1
  Nb  Nb122  1  0.89129676  0.11170749  0.88988834  1
  Nb  Nb123  1  0.50513188  0.69356095  0.29038664  1
  Nb  Nb124  1  0.50188569  0.70070923  0.69975501  1
  Nb  Nb125  1  -0.00551897  0.60525668  0.59964017  1
  Nb  Nb126  1  0.39959678  0.79467151  0.60392705  1
  Nb  Nb127  1  0.40298416  0.40893764  -0.00054949  1
  Nb  Nb128  1  0.59213926  0.59978997  0.59644042  1
  Nb  Nb129  1  0.60075928  0.00424399  -0.00808804  1
  Nb  Nb130  1  0.19013507  0.60001764  0.60239047  1
  Nb  Nb131  1  0.60188269  -0.00052778  0.39812334  1
  Nb  Nb132  1  0.20302655  -0.00109946  -0.00823278  1
  Nb  Nb133  1  0.61063515  0.19486575  0.00017861  1
  Nb  Nb134  1  0.60267069  0.19983808  0.19981058  1
  Nb  Nb135  1  0.80370049  0.19688487  0.60121105  1
  Nb  Nb136  1  0.40336949  -0.00061429  -0.00610654  1
  Nb  Nb137  1  0.19214929  0.80286825  0.79356277  1
  Nb  Nb138  1  0.00063267  0.39362047  0.80069542  1
  Nb  Nb139  1  0.59569401  0.59787076  0.40185818  1
  Nb  Nb140  1  0.40444460  0.20369597  0.20635493  1
  Nb  Nb141  1  0.59615865  0.79868759  0.39641445  1
  Nb  Nb142  1  0.20467913  0.80811847  0.20099225  1
  Nb  Nb143  1  0.40677067  0.60185518  0.80354282  1
  Nb  Nb144  1  0.40425907  0.40105834  0.20197343  1
  Nb  Nb145  1  0.19428316  0.39442643  0.79798975  1
  Nb  Nb146  1  0.19134001  -0.00352323  0.80051524  1
  Nb  Nb147  1  0.19269543  0.39899153  0.60190214  1
  Nb  Nb148  1  0.80081365  0.59731667  0.20048315  1
  Nb  Nb149  1  0.80084651  0.78977022  0.19784325  1
  Pd  Pd150  1  0.79993823  -0.00135466  -0.00550936  1
  Pd  Pd151  1  0.81079783  -0.00947126  0.20411947  1
  Pd  Pd152  1  0.39425287  0.79595107  0.19604488  1
  Pd  Pd153  1  0.80179215  0.39811640  0.00543995  1
  Pd  Pd154  1  -0.00201862  0.20360076  0.20244835  1
  Pd  Pd155  1  0.00008458  0.41142267  0.60240574  1
  Pd  Pd156  1  0.39258929  0.39327149  0.58978622  1
  Pd  Pd157  1  -0.00727482  0.19676543  0.59083657  1
  Pd  Pd158  1  0.79978264  0.19872853  0.00673153  1
  Pd  Pd159  1  0.18873375  0.19890117  0.80249851  1
  Pd  Pd160  1  0.60027822  0.00189374  0.59791728  1
  Pd  Pd161  1  0.39716335  0.00388753  0.18758523  1
  Pd  Pd162  1  0.40238667  0.20434465  0.59993759  1
  Pd  Pd163  1  -0.01379520  0.79533170  0.59366893  1
  Pd  Pd164  1  0.00438704  0.60242423  0.40258189  1
  Pd  Pd165  1  0.79953547  0.60439103  0.60461083  1
  Pd  Pd166  1  0.40007802  0.60407097  0.60342468  1
  Pd  Pd167  1  0.80247317  0.80867290  0.79169248  1
  Pd  Pd168  1  -0.00251250  -0.00439483  0.80645960  1
  Pd  Pd169  1  0.59596368  0.60142658  0.79972902  1
  Pd  Pd170  1  0.60766311  0.80756069  0.20633862  1
  Pd  Pd171  1  0.39093938  0.40465804  0.39674920  1
  Pd  Pd172  1  0.00341274  0.60190117  -0.00034319  1
  Pd  Pd173  1  0.79713250  0.40445368  0.19204187  1
  Pd  Pd174  1  0.40755197  -0.00997006  0.40529044  1
  Pd  Pd175  1  0.40142553  0.59685970  0.39098747  1
  Pd  Pd176  1  0.80508197  0.20567640  0.40750680  1
  Pd  Pd177  1  0.19660058  0.81153048  0.38717319  1
  Pd  Pd178  1  0.80103479  -0.01098399  0.79594262  1
  Pd  Pd179  1  0.61179503  0.19671964  0.61018500  1
  Pd  Pd180  1  0.20067199  0.19283746  0.00125736  1
  Pd  Pd181  1  0.00616517  0.40080444  0.21238204  1
  Pd  Pd182  1  0.40409607  0.81076036  0.40152254  1
  Pd  Pd183  1  0.39467900  0.40755107  0.80880155  1
  Pd  Pd184  1  0.79583202  0.60154363  0.00871661  1
  Pd  Pd185  1  0.19198773  0.00267350  0.60303793  1
  Pd  Pd186  1  0.00217566  0.39947642  0.39306558  1
  Pd  Pd187  1  0.20150854  0.40500725  0.40549477  1
  Pd  Pd188  1  -0.01371074  0.59199173  0.79786052  1
  Pd  Pd189  1  0.41144074  0.60020347  -0.00117762  1
  Pd  Pd190  1  0.19826418  0.19925667  0.59316279  1
  Pd  Pd191  1  0.59456286  0.39637537  0.19368428  1
  Pd  Pd192  1  0.60966903  0.40928499  0.59791206  1
  Pd  Pd193  1  0.80956036  0.80432417  0.60823731  1
  Pd  Pd194  1  0.39663272  0.19950771  0.39358998  1
  Pd  Pd195  1  0.20239017  0.20034092  0.19937556  1
  Pd  Pd196  1  0.41267020  0.79851220  0.00953498  1
  Pd  Pd197  1  0.60470913  -0.00280776  0.80184358  1
  Pd  Pd198  1  0.19395682  -0.00326565  0.40150340  1
  Pd  Pd199  1  0.20617112  0.40040733  -0.00405761  1
  Rh  Rh200  1  0.19195676  0.60640574  0.00691578  1
  Rh  Rh201  1  0.40423809  0.59505638  0.20435313  1
  Rh  Rh202  1  0.79334352  0.80681056  0.39030590  1
  Rh  Rh203  1  -0.00282726  0.20415361  0.40072054  1
  Rh  Rh204  1  0.79569556  -0.00303214  0.39227715  1
  Rh  Rh205  1  0.80119767  0.39002620  0.59212864  1
  Rh  Rh206  1  0.80686613  0.00149260  0.61053874  1
  Rh  Rh207  1  0.20287726  0.60482765  0.79965703  1
  Rh  Rh208  1  0.59997197  0.80251395  0.00213639  1
  Rh  Rh209  1  0.20119535  0.61602317  0.20105537  1
  Rh  Rh210  1  0.00233875  0.00121039  0.39998979  1
  Rh  Rh211  1  0.40432837  0.20349512  0.00691502  1
  Rh  Rh212  1  -0.00588279  0.39394489  -0.00649022  1
  Rh  Rh213  1  0.60122704  0.79842698  0.80257562  1
  Rh  Rh214  1  0.39338597  0.00812201  0.80108762  1
  Rh  Rh215  1  0.58909690  0.78697390  0.58995314  1
  Rh  Rh216  1  0.79206821  0.59486892  0.39602631  1
  Rh  Rh217  1  0.80573801  0.40004189  0.80479709  1
  Rh  Rh218  1  0.60590695  0.19373585  0.39425520  1
  Rh  Rh219  1  -0.00933743  0.00208970  -0.00723371  1
  Rh  Rh220  1  0.39752503  0.79053492  0.79427773  1
  Rh  Rh221  1  0.00293045  0.80261803  0.40163402  1
  Rh  Rh222  1  -0.01129818  0.20273741  0.00273940  1
  Rh  Rh223  1  -0.00022898  0.00302003  0.59845469  1
  Rh  Rh224  1  0.19798289  0.59946603  0.40558021  1
  Rh  Rh225  1  0.60016258  0.60595265  -0.00227652  1
  Rh  Rh226  1  0.00189031  0.79998528  0.20122074  1
  Rh  Rh227  1  0.19310726  0.79983927  0.00202761  1
  Rh  Rh228  1  0.20704221  0.79804562  0.60832340  1
  Rh  Rh229  1  0.61226399  0.40593064  0.41383700  1
  Rh  Rh230  1  0.20246818  0.39879785  0.20018178  1
  Rh  Rh231  1  0.79789409  0.79114352  0.01010711  1
  Rh  Rh232  1  0.80021458  0.39564002  0.40863857  1
  Rh  Rh233  1  0.40296808  -0.00597448  0.59802516  1
  Rh  Rh234  1  -0.00311919  0.59544491  0.20434662  1
  Rh  Rh235  1  0.60843089  0.20116079  0.79915110  1
  Rh  Rh236  1  0.40575634  0.19742515  0.78620394  1
  Rh  Rh237  1  0.00225851  0.20630170  0.80247616  1
  Rh  Rh238  1  -0.00183594  0.79056443  -0.00359325  1
  Rh  Rh239  1  0.60607979  0.40280533  0.80266785  1
  Rh  Rh240  1  0.79369837  0.20258103  0.79056651  1
  Rh  Rh241  1  0.79608699  0.20169524  0.19969210  1
  Rh  Rh242  1  0.20213276  0.19384527  0.40244198  1
  Rh  Rh243  1  0.60374755  0.00296975  0.20056230  1
  Rh  Rh244  1  0.19809796  -0.00395858  0.18932173  1
  Rh  Rh245  1  0.80099443  0.60033913  0.79907244  1
  Rh  Rh246  1  -0.00611234  0.00231118  0.20497079  1
  Rh  Rh247  1  -0.00012456  0.80117769  0.80265976  1
  Rh  Rh248  1  0.60792435  0.58946330  0.20771320  1
  Rh  Rh249  1  0.59605450  0.39568584  -0.00242250  1
