# generated using pymatgen
data_ZrScNbPdRh
_symmetry_space_group_name_H-M   'P 1'
_cell_length_a   16.55895327
_cell_length_b   16.55661970
_cell_length_c   16.56098035
_cell_angle_alpha   89.95350376
_cell_angle_beta   90.01025899
_cell_angle_gamma   89.99536648
_symmetry_Int_Tables_number   1
_chemical_formula_structural   ZrScNbPdRh
_chemical_formula_sum   'Zr50 Sc50 Nb50 Pd50 Rh50'
_cell_volume   4540.36162494
_cell_formula_units_Z   50
loop_
 _symmetry_equiv_pos_site_id
 _symmetry_equiv_pos_as_xyz
  1  'x, y, z'
loop_
 _atom_site_type_symbol
 _atom_site_label
 _atom_site_symmetry_multiplicity
 _atom_site_fract_x
 _atom_site_fract_y
 _atom_site_fract_z
 _atom_site_occupancy
  Zr  Zr0  1  0.29340324  0.30882336  0.29513377  1
  Zr  Zr1  1  0.10042630  0.69871215  0.10021612  1
  Zr  Zr2  1  0.29848960  0.30160907  0.10183502  1
  Zr  Zr3  1  0.70201943  0.89946543  0.70193482  1
  Zr  Zr4  1  0.29652302  0.10091393  0.49781959  1
  Zr  Zr5  1  0.30880957  0.69452302  0.30440810  1
  Zr  Zr6  1  0.71184972  0.90072024  0.10392250  1
  Zr  Zr7  1  0.70896483  0.89974847  0.90130778  1
  Zr  Zr8  1  0.10102139  0.91116898  0.30054256  1
  Zr  Zr9  1  0.90100708  0.10808270  0.50098460  1
  Zr  Zr10  1  0.89898078  0.10888746  0.09392894  1
  Zr  Zr11  1  0.49902898  0.90231999  0.90877440  1
  Zr  Zr12  1  0.10596750  0.29130876  0.89606088  1
  Zr  Zr13  1  0.69449729  0.49614656  0.70083277  1
  Zr  Zr14  1  0.50169934  0.69880520  0.29816796  1
  Zr  Zr15  1  0.29526367  0.69991094  0.50539685  1
  Zr  Zr16  1  0.10023347  0.29452991  0.49772756  1
  Zr  Zr17  1  0.50394653  0.90763217  0.30286845  1
  Zr  Zr18  1  0.70661033  0.30621825  0.69615895  1
  Zr  Zr19  1  0.10181718  0.10570118  0.29878857  1
  Zr  Zr20  1  0.89477307  0.69367758  0.30030525  1
  Zr  Zr21  1  0.30399037  0.30039007  0.90685976  1
  Zr  Zr22  1  0.30202565  0.90539528  0.90993631  1
  Zr  Zr23  1  0.08730355  0.30243112  0.69821998  1
  Zr  Zr24  1  0.69552903  0.50519744  0.29162923  1
  Zr  Zr25  1  0.50981190  0.90876230  0.70057728  1
  Zr  Zr26  1  0.50133874  0.10456713  0.90395640  1
  Zr  Zr27  1  0.69418357  0.69684620  0.90874066  1
  Zr  Zr28  1  0.69669477  0.49383541  0.90005770  1
  Zr  Zr29  1  0.90448891  0.10139483  0.90513225  1
  Zr  Zr30  1  0.90184036  0.90158840  0.50431327  1
  Zr  Zr31  1  0.70141255  0.69346041  0.10666046  1
  Zr  Zr32  1  0.90293078  0.70412342  0.69371732  1
  Zr  Zr33  1  0.69215917  0.90331966  0.50147631  1
  Zr  Zr34  1  0.49735529  0.49966786  0.69681937  1
  Zr  Zr35  1  0.89943883  0.47926024  0.68990085  1
  Zr  Zr36  1  0.30587439  0.10203297  0.30041592  1
  Zr  Zr37  1  0.69204532  0.29975101  0.89954102  1
  Zr  Zr38  1  0.29754375  0.69592747  0.89639670  1
  Zr  Zr39  1  0.29379192  0.88975224  0.69727492  1
  Zr  Zr40  1  0.09664056  0.09949228  0.09851419  1
  Zr  Zr41  1  0.69814518  0.49690213  0.10092177  1
  Zr  Zr42  1  0.49400908  0.10340356  0.48927469  1
  Zr  Zr43  1  0.30174480  0.09716537  0.70321506  1
  Zr  Zr44  1  0.29838800  0.10540749  0.90518285  1
  Zr  Zr45  1  0.29298197  0.90017849  0.50143147  1
  Zr  Zr46  1  0.09419570  0.90232963  0.69418524  1
  Zr  Zr47  1  0.30043898  0.68994095  0.69783902  1
  Zr  Zr48  1  0.09948336  0.69704984  0.90331532  1
  Zr  Zr49  1  0.50383153  0.10120363  0.29674981  1
  Sc  Sc50  1  0.50321638  0.09673653  0.70771034  1
  Sc  Sc51  1  0.50292138  0.49734906  0.50708171  1
  Sc  Sc52  1  0.89280719  0.90348975  0.28872275  1
  Sc  Sc53  1  0.50414117  0.90104713  0.49588954  1
  Sc  Sc54  1  0.50712059  0.50567924  0.89732384  1
  Sc  Sc55  1  0.50258566  0.70775304  0.10046708  1
  Sc  Sc56  1  0.29591833  0.09582995  0.10557285  1
  Sc  Sc57  1  0.89469053  0.09875216  0.30312567  1
  Sc  Sc58  1  0.90078545  0.89707710  0.70575861  1
  Sc  Sc59  1  0.29545065  0.50363633  0.49412132  1
  Sc  Sc60  1  0.30913375  0.48733886  0.10165311  1
  Sc  Sc61  1  0.09539091  0.91051613  0.10270088  1
  Sc  Sc62  1  0.90361366  0.90328236  0.89933860  1
  Sc  Sc63  1  0.70109115  0.70444110  0.69860569  1
  Sc  Sc64  1  0.70097132  0.10062791  0.09429960  1
  Sc  Sc65  1  0.69369814  0.69703141  0.49990055  1
  Sc  Sc66  1  0.30627218  0.29400706  0.50218692  1
  Sc  Sc67  1  0.09517649  0.49915433  0.09821646  1
  Sc  Sc68  1  0.90065197  0.30069228  0.91163924  1
  Sc  Sc69  1  0.10598934  0.69973733  0.69689090  1
  Sc  Sc70  1  0.09266015  0.29758122  0.10906634  1
  Sc  Sc71  1  0.89444676  0.50689654  0.29464748  1
  Sc  Sc72  1  0.68982576  0.09215793  0.70462257  1
  Sc  Sc73  1  0.30846455  0.90811477  0.29545387  1
  Sc  Sc74  1  0.29446220  0.49793449  0.90220453  1
  Sc  Sc75  1  0.50908321  0.29279885  0.29493963  1
  Sc  Sc76  1  0.09915732  0.49575799  0.90229490  1
  Sc  Sc77  1  0.49891511  0.30515376  0.09845402  1
  Sc  Sc78  1  0.09708676  0.49909796  0.69803784  1
  Sc  Sc79  1  0.49455871  0.68669691  0.69675931  1
  Sc  Sc80  1  0.90649540  0.09900527  0.69813585  1
  Sc  Sc81  1  0.50501401  0.49580266  0.10310937  1
  Sc  Sc82  1  0.49255881  0.90155546  0.10428294  1
  Sc  Sc83  1  0.90130728  0.71164474  0.90069889  1
  Sc  Sc84  1  0.11292222  0.49424722  0.30700831  1
  Sc  Sc85  1  0.70034779  0.10130577  0.90388329  1
  Sc  Sc86  1  0.10202147  0.50597659  0.49872043  1
  Sc  Sc87  1  0.09289166  0.69014474  0.29962745  1
  Sc  Sc88  1  0.49841660  0.30737438  0.69192483  1
  Sc  Sc89  1  0.90453853  0.70321697  0.10847837  1
  Sc  Sc90  1  0.09342924  0.10319465  0.69919140  1
  Sc  Sc91  1  0.69460858  0.50138740  0.49586168  1
  Sc  Sc92  1  0.69669271  0.30893784  0.09697767  1
  Sc  Sc93  1  0.90712824  0.30010054  0.29101800  1
  Sc  Sc94  1  0.10470135  0.30023498  0.29702690  1
  Sc  Sc95  1  0.29780717  0.29462151  0.70049486  1
  Sc  Sc96  1  0.09674361  0.68833726  0.50363127  1
  Sc  Sc97  1  0.49734848  0.69902503  0.50002219  1
  Sc  Sc98  1  0.70399727  0.10152623  0.48318396  1
  Sc  Sc99  1  0.70187545  0.29546939  0.49270225  1
  Nb  Nb100  1  0.89597542  0.90660044  0.10143511  1
  Nb  Nb101  1  0.90127273  0.68997910  0.49322528  1
  Nb  Nb102  1  0.29959290  0.89527038  0.10318713  1
  Nb  Nb103  1  0.10039474  0.90509318  0.90291797  1
  Nb  Nb104  1  0.89521800  0.48355677  0.09385575  1
  Nb  Nb105  1  0.30783863  0.49872042  0.69573184  1
  Nb  Nb106  1  0.70138717  0.29917952  0.29692753  1
  Nb  Nb107  1  0.30303410  0.49786222  0.29892307  1
  Nb  Nb108  1  0.49564191  0.49783947  0.29707967  1
  Nb  Nb109  1  0.09665775  0.09212450  0.90533994  1
  Nb  Nb110  1  0.49853739  0.70014926  0.90315852  1
  Nb  Nb111  1  0.89832825  0.30710290  0.51585788  1
  Nb  Nb112  1  0.50583522  0.10318071  0.11000764  1
  Nb  Nb113  1  0.70026459  0.10393565  0.29576892  1
  Nb  Nb114  1  0.10083098  0.90759113  0.49653451  1
  Nb  Nb115  1  0.89599153  0.30429713  0.10267925  1
  Nb  Nb116  1  0.49633896  0.29749280  0.49437202  1
  Nb  Nb117  1  0.30574179  0.70796379  0.10260204  1
  Nb  Nb118  1  0.90165121  0.50514121  0.49612115  1
  Nb  Nb119  1  0.70535218  0.90845369  0.30442727  1
  Nb  Nb120  1  0.49541582  0.30271798  0.90151025  1
  Nb  Nb121  1  0.89961391  0.49955807  0.90296118  1
  Nb  Nb122  1  0.70619539  0.69634793  0.29589058  1
  Nb  Nb123  1  0.89938313  0.29432692  0.68565426  1
  Nb  Nb124  1  0.09748643  0.08772968  0.49413114  1
  Nb  Nb125  1  0.80604123  0.59236291  -0.00205323  1
  Nb  Nb126  1  -0.01096225  0.59583065  0.80045107  1
  Nb  Nb127  1  0.80329971  0.20585730  0.79514934  1
  Nb  Nb128  1  -0.00214588  0.80110241  0.40189994  1
  Nb  Nb129  1  0.80555912  0.59669156  0.59988017  1
  Nb  Nb130  1  0.61145185  0.80374086  0.21001550  1
  Nb  Nb131  1  0.39901471  0.40114933  0.80138664  1
  Nb  Nb132  1  -0.00842039  0.40083425  0.40672158  1
  Nb  Nb133  1  0.40500296  0.79746233  0.80301307  1
  Nb  Nb134  1  0.21200441  0.60143673  0.19872265  1
  Nb  Nb135  1  0.40038343  0.60610342  0.00010369  1
  Nb  Nb136  1  0.20151088  0.80296706  0.00627978  1
  Nb  Nb137  1  0.19461139  0.00019205  0.80711949  1
  Nb  Nb138  1  0.59685141  0.20046981  0.59224165  1
  Nb  Nb139  1  0.59312855  0.79950124  0.80674095  1
  Nb  Nb140  1  0.79969538  0.79678862  0.39747721  1
  Nb  Nb141  1  0.79627956  0.20536689  0.19836068  1
  Nb  Nb142  1  0.39833671  -0.00068341  0.59950876  1
  Nb  Nb143  1  0.20187543  0.39885213  0.60081635  1
  Nb  Nb144  1  0.19286213  0.80215856  0.39746702  1
  Nb  Nb145  1  0.79709849  -0.00139123  0.59791175  1
  Nb  Nb146  1  0.80596457  0.59510572  0.80039100  1
  Nb  Nb147  1  0.80475250  0.40037117  0.39861885  1
  Nb  Nb148  1  0.20346046  0.79752359  0.20121270  1
  Nb  Nb149  1  0.40361116  0.40076043  0.39491793  1
  Pd  Pd150  1  0.19508409  0.20139011  0.00788589  1
  Pd  Pd151  1  0.40722418  0.59068529  0.40830776  1
  Pd  Pd152  1  -0.00635355  0.20840789  0.40060391  1
  Pd  Pd153  1  0.80987219  0.39295398  0.80663813  1
  Pd  Pd154  1  0.19319022  0.19967102  0.60235735  1
  Pd  Pd155  1  0.60404218  0.39190949  0.59063379  1
  Pd  Pd156  1  0.21063271  0.59928202  0.01188757  1
  Pd  Pd157  1  0.39395757  -0.00792252  0.79708227  1
  Pd  Pd158  1  0.19975810  0.80555250  0.80813388  1
  Pd  Pd159  1  0.19136233  0.58984643  0.79560889  1
  Pd  Pd160  1  0.00626453  0.79662353  0.59025617  1
  Pd  Pd161  1  0.80751599  0.79339854  0.00533489  1
  Pd  Pd162  1  0.60764908  0.79520507  0.39427217  1
  Pd  Pd163  1  0.60155225  0.20698520  0.79066778  1
  Pd  Pd164  1  0.00468079  0.80480351  0.20613652  1
  Pd  Pd165  1  0.40419597  0.19459711  0.01256546  1
  Pd  Pd166  1  0.00871719  0.39185888  -0.00305160  1
  Pd  Pd167  1  0.80475820  0.01147820  0.79563546  1
  Pd  Pd168  1  0.59650659  0.59965627  0.39927932  1
  Pd  Pd169  1  0.00322171  0.80949200  0.00650006  1
  Pd  Pd170  1  0.19903210  0.00629746  0.60733251  1
  Pd  Pd171  1  0.60521544  0.60788759  0.79487699  1
  Pd  Pd172  1  0.59863362  0.39746391  0.39534393  1
  Pd  Pd173  1  -0.00908139  0.60018700  -0.00224499  1
  Pd  Pd174  1  -0.00844104  0.00881529  0.20148344  1
  Pd  Pd175  1  0.59763146  0.20410986  0.00765625  1
  Pd  Pd176  1  0.80910545  0.21262167  0.39168077  1
  Pd  Pd177  1  0.41118986  0.80495801  0.60703043  1
  Pd  Pd178  1  -0.00613332  0.39789347  0.80594131  1
  Pd  Pd179  1  0.00346095  0.40855982  0.21098423  1
  Pd  Pd180  1  0.20667222  0.40304930  0.79214544  1
  Pd  Pd181  1  0.40692311  0.20878039  0.79482459  1
  Pd  Pd182  1  0.60144206  0.80573883  0.00832852  1
  Pd  Pd183  1  0.40238735  0.59660771  0.18865236  1
  Pd  Pd184  1  0.20235132  0.20124882  0.39798562  1
  Pd  Pd185  1  0.59177783  0.79145314  0.60706288  1
  Pd  Pd186  1  0.19634212  0.19172890  0.79691857  1
  Pd  Pd187  1  0.19140063  0.39751728  0.00665196  1
  Pd  Pd188  1  0.40222868  0.01230524  0.01258283  1
  Pd  Pd189  1  0.40837441  0.19282781  0.60766696  1
  Pd  Pd190  1  0.39498048  0.80587895  0.39890362  1
  Pd  Pd191  1  0.60723175  -0.00352488  0.19675402  1
  Pd  Pd192  1  0.60104127  -0.00141247  0.00551404  1
  Pd  Pd193  1  0.00678520  0.79577407  0.80041561  1
  Pd  Pd194  1  0.78646382  0.18573500  0.60661894  1
  Pd  Pd195  1  -0.01069337  -0.00258579  0.39475197  1
  Pd  Pd196  1  0.79962692  0.79732458  0.59034846  1
  Pd  Pd197  1  0.00274105  0.58743045  0.19994505  1
  Pd  Pd198  1  -0.00819338  0.20232883  0.80373915  1
  Pd  Pd199  1  0.40102245  0.20550168  0.19738488  1
  Rh  Rh200  1  0.40199255  0.00351041  0.19527161  1
  Rh  Rh201  1  0.20633582  0.00007225  0.39322455  1
  Rh  Rh202  1  0.60235944  -0.00427032  0.81710958  1
  Rh  Rh203  1  0.59334616  0.40022213  -0.00268061  1
  Rh  Rh204  1  0.59171012  0.60485430  0.19925788  1
  Rh  Rh205  1  0.20440548  0.39581064  0.41062698  1
  Rh  Rh206  1  0.19559170  0.40976281  0.19240466  1
  Rh  Rh207  1  0.39808522  0.59571279  0.58992461  1
  Rh  Rh208  1  0.39530946  -0.00509185  0.40797773  1
  Rh  Rh209  1  0.79522203  0.39901635  -0.00403311  1
  Rh  Rh210  1  0.79082142  0.79205600  0.80482113  1
  Rh  Rh211  1  0.00750724  0.19237095  0.59207354  1
  Rh  Rh212  1  0.80227864  -0.00703194  0.40572299  1
  Rh  Rh213  1  -0.00495728  0.00350565  0.59947881  1
  Rh  Rh214  1  0.39342234  0.79350697  -0.00659883  1
  Rh  Rh215  1  0.39823415  0.59425132  0.80859444  1
  Rh  Rh216  1  0.39702561  0.21361367  0.38713234  1
  Rh  Rh217  1  0.40686937  0.39348925  0.20798491  1
  Rh  Rh218  1  0.79890293  0.39599511  0.20764509  1
  Rh  Rh219  1  -0.00673819  0.59488327  0.60930802  1
  Rh  Rh220  1  0.60240666  0.00868021  0.39689273  1
  Rh  Rh221  1  0.39069553  0.40081866  0.59498392  1
  Rh  Rh222  1  0.60584784  0.60194942  0.60178797  1
  Rh  Rh223  1  0.01276529  0.40425249  0.58861267  1
  Rh  Rh224  1  0.59872022  0.01629662  0.58542970  1
  Rh  Rh225  1  0.00469107  0.59419873  0.39311151  1
  Rh  Rh226  1  0.59974472  0.19978036  0.40010624  1
  Rh  Rh227  1  0.78913689  0.40847845  0.58567715  1
  Rh  Rh228  1  0.20323560  -0.00132427  0.20104752  1
  Rh  Rh229  1  0.00680283  0.20741172  0.00091987  1
  Rh  Rh230  1  0.19969207  0.19760639  0.19786571  1
  Rh  Rh231  1  0.79099031  0.59915190  0.40782543  1
  Rh  Rh232  1  0.18618453  0.79639846  0.58703402  1
  Rh  Rh233  1  0.80898475  0.59227212  0.18446940  1
  Rh  Rh234  1  0.79509643  0.20870719  0.00082923  1
  Rh  Rh235  1  0.40592117  0.80588566  0.20841538  1
  Rh  Rh236  1  0.79894915  0.01473948  0.19603932  1
  Rh  Rh237  1  0.40793789  0.41161249  -0.01225492  1
  Rh  Rh238  1  0.58569146  0.39225371  0.80070248  1
  Rh  Rh239  1  0.59974014  0.39831417  0.20418854  1
  Rh  Rh240  1  0.59632357  0.59703629  0.00866574  1
  Rh  Rh241  1  0.60987181  0.20204494  0.19352076  1
  Rh  Rh242  1  0.20257048  0.59034134  0.60534771  1
  Rh  Rh243  1  0.80546522  -0.00000052  -0.00062267  1
  Rh  Rh244  1  0.19902635  -0.00291224  0.00080627  1
  Rh  Rh245  1  -0.00689131  -0.00467186  0.00283431  1
  Rh  Rh246  1  0.19928189  0.60849551  0.39186964  1
  Rh  Rh247  1  0.79794781  0.80156801  0.20548200  1
  Rh  Rh248  1  -0.00688511  0.19582629  0.19968292  1
  Rh  Rh249  1  0.00564858  -0.00175735  0.80177616  1
