# generated using pymatgen
data_ZrScNbPdRh
_symmetry_space_group_name_H-M   'P 1'
_cell_length_a   16.56522256
_cell_length_b   16.56201321
_cell_length_c   16.56157012
_cell_angle_alpha   90.00450549
_cell_angle_beta   89.99656371
_cell_angle_gamma   89.99448270
_symmetry_Int_Tables_number   1
_chemical_formula_structural   ZrScNbPdRh
_chemical_formula_sum   'Zr50 Sc50 Nb50 Pd50 Rh50'
_cell_volume   4543.72360463
_cell_formula_units_Z   50
loop_
 _symmetry_equiv_pos_site_id
 _symmetry_equiv_pos_as_xyz
  1  'x, y, z'
loop_
 _atom_site_type_symbol
 _atom_site_label
 _atom_site_symmetry_multiplicity
 _atom_site_fract_x
 _atom_site_fract_y
 _atom_site_fract_z
 _atom_site_occupancy
  Zr  Zr0  1  0.70377426  0.89970273  0.69872037  1
  Zr  Zr1  1  0.69385432  0.49753459  0.69684843  1
  Zr  Zr2  1  0.09792636  0.10034258  0.10140592  1
  Zr  Zr3  1  0.70135247  0.10108788  0.69180865  1
  Zr  Zr4  1  0.49567629  0.30299731  0.89487722  1
  Zr  Zr5  1  0.29751483  0.29818536  0.09022167  1
  Zr  Zr6  1  0.49688459  0.31141963  0.70095073  1
  Zr  Zr7  1  0.49613131  0.28875085  0.29908615  1
  Zr  Zr8  1  0.29779201  0.89464447  0.30240097  1
  Zr  Zr9  1  0.29191252  0.49229924  0.09789154  1
  Zr  Zr10  1  0.29578008  0.69249841  0.49573346  1
  Zr  Zr11  1  0.09922112  0.89082672  0.90303286  1
  Zr  Zr12  1  0.10341962  0.10938819  0.50070442  1
  Zr  Zr13  1  0.50510677  0.69685682  0.89469693  1
  Zr  Zr14  1  0.70311450  0.49678108  0.30313777  1
  Zr  Zr15  1  0.90804026  0.70068319  0.90903462  1
  Zr  Zr16  1  0.89296853  0.49613420  0.49329480  1
  Zr  Zr17  1  0.69296683  0.08993208  0.09491816  1
  Zr  Zr18  1  0.90622310  0.09623609  0.10479486  1
  Zr  Zr19  1  0.70558745  0.90456380  0.89929773  1
  Zr  Zr20  1  0.70280968  0.29772822  0.29770597  1
  Zr  Zr21  1  0.50717304  0.10374618  0.90695629  1
  Zr  Zr22  1  0.89733996  0.89921785  0.49810998  1
  Zr  Zr23  1  0.90702122  0.89758070  0.10281114  1
  Zr  Zr24  1  0.50377600  0.70295245  0.10444946  1
  Zr  Zr25  1  0.69477880  0.70477395  0.70435257  1
  Zr  Zr26  1  0.50275579  0.49876323  0.88997561  1
  Zr  Zr27  1  0.70176944  0.49563214  0.49382046  1
  Zr  Zr28  1  0.29695369  0.10818335  0.69904679  1
  Zr  Zr29  1  0.30609314  0.70369776  0.89679395  1
  Zr  Zr30  1  0.69717947  0.10172078  0.29888570  1
  Zr  Zr31  1  0.69756337  0.29807122  0.69417986  1
  Zr  Zr32  1  0.09986519  0.90009447  0.69932222  1
  Zr  Zr33  1  0.90285193  0.28619594  0.29750463  1
  Zr  Zr34  1  0.10131158  0.49356002  0.28847043  1
  Zr  Zr35  1  0.90180957  0.50530328  0.10249150  1
  Zr  Zr36  1  0.30109114  0.11365037  0.90628047  1
  Zr  Zr37  1  0.50053762  0.49109343  0.30461145  1
  Zr  Zr38  1  0.49879367  0.89768116  0.50611090  1
  Zr  Zr39  1  0.69252365  0.90038510  0.29480230  1
  Zr  Zr40  1  0.70434260  0.48793095  0.09755993  1
  Zr  Zr41  1  0.48871091  0.30149731  0.49668500  1
  Zr  Zr42  1  0.09849706  0.10057596  0.90244140  1
  Zr  Zr43  1  0.89747900  0.89741651  0.90075784  1
  Zr  Zr44  1  0.69969636  0.89684699  0.49527418  1
  Zr  Zr45  1  0.30679015  0.69943362  0.10491967  1
  Zr  Zr46  1  0.89915144  0.50834225  0.30256271  1
  Zr  Zr47  1  0.50199228  0.10714026  0.68675712  1
  Zr  Zr48  1  0.30220184  0.10345070  0.10135941  1
  Zr  Zr49  1  0.10233045  0.69709880  0.30037800  1
  Sc  Sc50  1  0.90601777  0.09369506  0.89992452  1
  Sc  Sc51  1  0.11338732  0.50113983  0.49862558  1
  Sc  Sc52  1  0.50235742  0.70521372  0.70777342  1
  Sc  Sc53  1  0.68766970  0.30439835  0.89752840  1
  Sc  Sc54  1  0.50395078  0.49487287  0.09418506  1
  Sc  Sc55  1  0.09031914  0.70007411  0.09216155  1
  Sc  Sc56  1  0.68900050  0.70290639  0.49143711  1
  Sc  Sc57  1  0.09078498  0.49580530  0.70171180  1
  Sc  Sc58  1  0.69895431  0.50162981  0.90068889  1
  Sc  Sc59  1  0.89990059  0.70119899  0.71144157  1
  Sc  Sc60  1  0.09032872  0.10586015  0.69996162  1
  Sc  Sc61  1  0.30129060  0.70140346  0.30140846  1
  Sc  Sc62  1  0.29640216  0.30374403  0.31431582  1
  Sc  Sc63  1  0.30861351  0.89602566  0.49737469  1
  Sc  Sc64  1  0.09741194  0.29107378  0.89864096  1
  Sc  Sc65  1  0.30213962  0.50423006  0.30777162  1
  Sc  Sc66  1  0.30392931  0.10772890  0.30561219  1
  Sc  Sc67  1  0.89778992  0.69695937  0.29429961  1
  Sc  Sc68  1  0.90664713  0.30091044  0.89117847  1
  Sc  Sc69  1  0.31014834  0.89297888  0.70550673  1
  Sc  Sc70  1  0.89941845  0.09690035  0.30175214  1
  Sc  Sc71  1  0.70474304  0.89912460  0.10337752  1
  Sc  Sc72  1  0.30457833  0.89319910  0.90365246  1
  Sc  Sc73  1  0.50119693  0.89562442  0.90479758  1
  Sc  Sc74  1  0.09725836  0.69980997  0.70298915  1
  Sc  Sc75  1  0.50315925  0.49791911  0.49929662  1
  Sc  Sc76  1  0.90018227  0.70355387  0.10297809  1
  Sc  Sc77  1  0.30463462  0.11102627  0.50120071  1
  Sc  Sc78  1  0.70631450  0.70540528  0.89719194  1
  Sc  Sc79  1  0.89579194  0.09966399  0.49928043  1
  Sc  Sc80  1  0.10523044  0.69712823  0.49817942  1
  Sc  Sc81  1  0.89692108  0.48837781  0.70327309  1
  Sc  Sc82  1  0.90077772  0.90714067  0.70040362  1
  Sc  Sc83  1  0.70093329  0.70927484  0.30166975  1
  Sc  Sc84  1  0.51236221  0.90338201  0.10550518  1
  Sc  Sc85  1  0.10110276  0.89776521  0.29276912  1
  Sc  Sc86  1  0.09049482  0.10509537  0.30315785  1
  Sc  Sc87  1  0.49739153  0.70510428  0.29958618  1
  Sc  Sc88  1  0.89253972  0.89931337  0.29553878  1
  Sc  Sc89  1  0.29982334  0.89615087  0.10668887  1
  Sc  Sc90  1  0.70272337  0.70541975  0.09765495  1
  Sc  Sc91  1  0.89708133  0.29839265  0.50058383  1
  Sc  Sc92  1  0.90030261  0.30125905  0.69595283  1
  Sc  Sc93  1  0.49815938  0.10339608  0.10018218  1
  Sc  Sc94  1  0.30064661  0.49594813  0.69600498  1
  Sc  Sc95  1  0.90132703  0.50221291  0.89690585  1
  Sc  Sc96  1  0.30356741  0.49297446  0.90600537  1
  Sc  Sc97  1  0.09156572  0.29748976  0.69439725  1
  Sc  Sc98  1  0.50614092  0.29662055  0.09789519  1
  Sc  Sc99  1  0.09470992  0.89778872  0.50196875  1
  Nb  Nb100  1  0.10354667  0.49378414  0.09696321  1
  Nb  Nb101  1  0.49978796  0.70335005  0.50568010  1
  Nb  Nb102  1  0.50592339  0.90385193  0.70204480  1
  Nb  Nb103  1  0.30355235  0.69410976  0.70538378  1
  Nb  Nb104  1  0.49610973  0.09912362  0.49231027  1
  Nb  Nb105  1  0.29844189  0.29936092  0.89396010  1
  Nb  Nb106  1  0.49738849  0.50592559  0.70084431  1
  Nb  Nb107  1  0.28801270  0.31280348  0.50789344  1
  Nb  Nb108  1  0.89684016  0.29820118  0.09951111  1
  Nb  Nb109  1  0.10177203  0.50074208  0.90922779  1
  Nb  Nb110  1  0.10021776  0.29880973  0.30123034  1
  Nb  Nb111  1  0.89233839  0.10095032  0.70015908  1
  Nb  Nb112  1  0.71065954  0.30187664  0.09899132  1
  Nb  Nb113  1  0.49866848  0.90770819  0.30408712  1
  Nb  Nb114  1  0.49392373  0.10483732  0.30631135  1
  Nb  Nb115  1  0.71166131  0.29759436  0.49866877  1
  Nb  Nb116  1  0.29996036  0.30334747  0.70242682  1
  Nb  Nb117  1  0.09996592  0.30829278  0.10994373  1
  Nb  Nb118  1  0.10064227  0.69258561  0.90150040  1
  Nb  Nb119  1  0.69962847  0.10048988  0.89672525  1
  Nb  Nb120  1  0.89668264  0.69531346  0.49245001  1
  Nb  Nb121  1  0.09707072  0.90642932  0.10394122  1
  Nb  Nb122  1  0.10954626  0.29753293  0.48865788  1
  Nb  Nb123  1  0.70070142  0.10384088  0.50267299  1
  Nb  Nb124  1  0.30246533  0.49401071  0.49980187  1
  Nb  Nb125  1  0.20489627  0.00118754  0.80272955  1
  Nb  Nb126  1  0.19820887  0.59754957  0.80775159  1
  Nb  Nb127  1  0.40494003  0.00552314  0.79907307  1
  Nb  Nb128  1  0.39793853  0.39537165  0.20103959  1
  Nb  Nb129  1  0.40334179  0.60221355  -0.00111957  1
  Nb  Nb130  1  0.80319440  0.79231477  0.59567300  1
  Nb  Nb131  1  -0.01117221  0.60017371  0.59461662  1
  Nb  Nb132  1  0.19747615  0.59605993  0.19279888  1
  Nb  Nb133  1  0.20215153  -0.00245466  0.60247074  1
  Nb  Nb134  1  0.00626166  0.39466525  0.39611904  1
  Nb  Nb135  1  0.59327090  0.00839715  0.40345086  1
  Nb  Nb136  1  0.19541332  0.20848020  0.20091292  1
  Nb  Nb137  1  0.59751270  0.00450831  0.79701255  1
  Nb  Nb138  1  0.79523121  0.19381173  0.80225325  1
  Nb  Nb139  1  0.20109519  0.00112608  0.40493624  1
  Nb  Nb140  1  0.00363345  0.39974386  0.00746276  1
  Nb  Nb141  1  0.20554852  0.79850730  0.60354495  1
  Nb  Nb142  1  0.40074822  0.60142222  0.59995760  1
  Nb  Nb143  1  0.20031333  0.39792447  0.80370994  1
  Nb  Nb144  1  0.79801495  0.20165502  -0.00079285  1
  Nb  Nb145  1  0.19769097  -0.00115235  0.00046136  1
  Nb  Nb146  1  0.40350832  0.00242922  0.20986761  1
  Nb  Nb147  1  -0.00343216  0.79509417  0.39979373  1
  Nb  Nb148  1  0.60206002  0.59453190  0.20097256  1
  Nb  Nb149  1  0.79952554  0.60376456  0.59711457  1
  Pd  Pd150  1  0.00961795  0.59584665  0.40458669  1
  Pd  Pd151  1  0.20062598  0.79711696  0.79512007  1
  Pd  Pd152  1  -0.00663207  0.20090499  0.59365326  1
  Pd  Pd153  1  0.59691935  0.60503611  0.60120772  1
  Pd  Pd154  1  0.79246466  0.00436742  0.39847984  1
  Pd  Pd155  1  0.80934320  0.39985223  0.20785291  1
  Pd  Pd156  1  0.39768928  0.79069276  0.60722574  1
  Pd  Pd157  1  0.40598421  0.39931708  0.00211569  1
  Pd  Pd158  1  0.19307305  0.78990599  0.19181285  1
  Pd  Pd159  1  0.59759791  0.20976751  0.58780203  1
  Pd  Pd160  1  0.00474267  0.40515974  0.58512277  1
  Pd  Pd161  1  0.79856661  0.60324756  0.00106305  1
  Pd  Pd162  1  0.59810250  0.39746975  0.59224989  1
  Pd  Pd163  1  -0.00419561  0.20848492  0.00337280  1
  Pd  Pd164  1  0.00260255  0.59524512  0.79706472  1
  Pd  Pd165  1  0.79665052  0.19066291  0.19212948  1
  Pd  Pd166  1  0.40668309  0.60041956  0.40775093  1
  Pd  Pd167  1  0.60189372  0.19718132  0.19277564  1
  Pd  Pd168  1  0.59472049  0.39886176  0.19808176  1
  Pd  Pd169  1  0.60060904  0.59911015  0.00427623  1
  Pd  Pd170  1  0.79793455  0.59744890  0.79572369  1
  Pd  Pd171  1  0.40690144  0.80070106  0.00598352  1
  Pd  Pd172  1  0.19971248  0.60228026  0.61130001  1
  Pd  Pd173  1  0.80563117  0.00482233  0.00281946  1
  Pd  Pd174  1  0.60371259  0.20146434  0.40842221  1
  Pd  Pd175  1  0.79500611  0.39111731  0.80356885  1
  Pd  Pd176  1  0.00640850  -0.00873538  0.39480487  1
  Pd  Pd177  1  0.60711108  0.20682095  0.00400090  1
  Pd  Pd178  1  0.60222381  -0.00064779  0.59514306  1
  Pd  Pd179  1  0.19688116  0.80178835  0.00900146  1
  Pd  Pd180  1  -0.00118767  0.78822138  0.59434498  1
  Pd  Pd181  1  0.20576642  0.01122373  0.20625448  1
  Pd  Pd182  1  0.39585676  -0.00587818  0.00465450  1
  Pd  Pd183  1  0.78937577  0.60615766  0.19821696  1
  Pd  Pd184  1  0.40762176  0.19684814  0.79749897  1
  Pd  Pd185  1  -0.00162846  0.79958432  0.80039000  1
  Pd  Pd186  1  0.60672717  0.80317145  -0.00212700  1
  Pd  Pd187  1  0.60277798  0.38674085  0.40418819  1
  Pd  Pd188  1  0.39380845  0.20962326  0.59664068  1
  Pd  Pd189  1  0.40345376  0.79549636  0.39887333  1
  Pd  Pd190  1  0.20791886  0.60700345  0.00099322  1
  Pd  Pd191  1  0.40259144  0.58745305  0.19428745  1
  Pd  Pd192  1  0.19171704  0.39925663  0.61051535  1
  Pd  Pd193  1  0.39212875  0.00034019  0.60409744  1
  Pd  Pd194  1  0.59606100  0.60520557  0.39212406  1
  Pd  Pd195  1  0.80833320  0.39321170  -0.01196637  1
  Pd  Pd196  1  -0.01129379  0.39835003  0.20163039  1
  Pd  Pd197  1  0.19233563  0.20350288  0.79219544  1
  Pd  Pd198  1  0.00058703  0.00764933  0.59839198  1
  Pd  Pd199  1  0.00357994  0.00090149  0.79957305  1
  Rh  Rh200  1  0.20116276  0.19430843  0.39549981  1
  Rh  Rh201  1  0.18913929  0.38580989  -0.01223998  1
  Rh  Rh202  1  -0.01296185  0.19737506  0.79398157  1
  Rh  Rh203  1  0.39638302  0.39878751  0.39974728  1
  Rh  Rh204  1  0.79594126  0.00712678  0.79743103  1
  Rh  Rh205  1  -0.00320717  0.20534101  0.40688489  1
  Rh  Rh206  1  0.39158135  0.20347294  0.19946041  1
  Rh  Rh207  1  0.58934298  0.80677098  0.39906542  1
  Rh  Rh208  1  0.79708326  0.40328496  0.60037724  1
  Rh  Rh209  1  0.39987377  0.40725054  0.60031205  1
  Rh  Rh210  1  0.39256831  0.59155946  0.79973548  1
  Rh  Rh211  1  0.60387818  0.79755664  0.60102660  1
  Rh  Rh212  1  0.80218216  -0.00553279  0.59580682  1
  Rh  Rh213  1  0.39745316  0.00142247  0.39774703  1
  Rh  Rh214  1  0.59042359  0.00930731  0.20956246  1
  Rh  Rh215  1  0.80949662  0.38832911  0.39131056  1
  Rh  Rh216  1  0.19152435  0.81063080  0.40998607  1
  Rh  Rh217  1  0.80657129  0.80175901  0.79605285  1
  Rh  Rh218  1  0.00209543  0.80242189  0.00240290  1
  Rh  Rh219  1  0.60158090  0.19485246  0.79566041  1
  Rh  Rh220  1  0.40956741  0.80604789  0.79835428  1
  Rh  Rh221  1  0.19926726  0.20370026  0.60283460  1
  Rh  Rh222  1  0.59896122  0.79468817  0.20432938  1
  Rh  Rh223  1  0.60125597  0.40435747  0.79601878  1
  Rh  Rh224  1  0.80682238  0.79769610  0.40047543  1
  Rh  Rh225  1  -0.00109733  -0.00182489  0.20820652  1
  Rh  Rh226  1  0.60664747  0.59854861  0.79963145  1
  Rh  Rh227  1  0.60010175  -0.00626910  -0.00740186  1
  Rh  Rh228  1  0.80357111  0.79994486  0.00144328  1
  Rh  Rh229  1  0.00544584  -0.00764448  -0.00140675  1
  Rh  Rh230  1  0.19185699  0.20134336  0.00832725  1
  Rh  Rh231  1  0.19654861  0.40653079  0.39685548  1
  Rh  Rh232  1  0.80000686  0.80153439  0.19863439  1
  Rh  Rh233  1  0.21111782  0.39772523  0.20801793  1
  Rh  Rh234  1  0.80125219  0.00112176  0.19765859  1
  Rh  Rh235  1  0.78747543  0.60744211  0.40114751  1
  Rh  Rh236  1  0.01123019  0.40236098  0.81186508  1
  Rh  Rh237  1  0.00497261  0.19976351  0.19706133  1
  Rh  Rh238  1  0.40643268  0.20861067  -0.00080205  1
  Rh  Rh239  1  0.00814981  0.60222433  0.19288040  1
  Rh  Rh240  1  -0.00248421  0.59238825  0.00258945  1
  Rh  Rh241  1  0.19983775  0.59385355  0.39104806  1
  Rh  Rh242  1  0.40697045  0.81337143  0.20288096  1
  Rh  Rh243  1  0.39008268  0.20880609  0.40866747  1
  Rh  Rh244  1  0.59896853  0.81073933  0.80544267  1
  Rh  Rh245  1  0.00171759  0.79983043  0.20570637  1
  Rh  Rh246  1  0.80408785  0.20080418  0.60274292  1
  Rh  Rh247  1  0.60176013  0.39672044  -0.00052541  1
  Rh  Rh248  1  0.39125229  0.40504517  0.79613028  1
  Rh  Rh249  1  0.79955552  0.19626884  0.40226646  1
