# generated using pymatgen
data_ZrScNbPdRh
_symmetry_space_group_name_H-M   'P 1'
_cell_length_a   16.56477021
_cell_length_b   16.55794743
_cell_length_c   16.56090100
_cell_angle_alpha   89.95729488
_cell_angle_beta   90.03562989
_cell_angle_gamma   89.98256559
_symmetry_Int_Tables_number   1
_chemical_formula_structural   ZrScNbPdRh
_chemical_formula_sum   'Zr50 Sc50 Nb50 Pd50 Rh50'
_cell_volume   4542.29829739
_cell_formula_units_Z   50
loop_
 _symmetry_equiv_pos_site_id
 _symmetry_equiv_pos_as_xyz
  1  'x, y, z'
loop_
 _atom_site_type_symbol
 _atom_site_label
 _atom_site_symmetry_multiplicity
 _atom_site_fract_x
 _atom_site_fract_y
 _atom_site_fract_z
 _atom_site_occupancy
  Zr  Zr0  1  0.50859811  0.70732314  0.10231790  1
  Zr  Zr1  1  0.30499189  0.89823056  0.49355322  1
  Zr  Zr2  1  0.09333345  0.30068208  0.90438168  1
  Zr  Zr3  1  0.10212317  0.70107362  0.50007338  1
  Zr  Zr4  1  0.30407263  0.10285343  0.10140534  1
  Zr  Zr5  1  0.50850941  0.29772606  0.89842483  1
  Zr  Zr6  1  0.30142399  0.90610810  0.29641786  1
  Zr  Zr7  1  0.89849031  0.69829362  0.91158167  1
  Zr  Zr8  1  0.49947384  0.91013678  0.50547832  1
  Zr  Zr9  1  0.89937881  0.91027472  0.49499977  1
  Zr  Zr10  1  0.70124170  0.08663389  0.09355401  1
  Zr  Zr11  1  0.69632533  0.49969689  0.49809011  1
  Zr  Zr12  1  0.10724453  0.69672049  0.69024926  1
  Zr  Zr13  1  0.49336985  0.90547037  0.89890547  1
  Zr  Zr14  1  0.29667567  0.90861291  0.90375666  1
  Zr  Zr15  1  0.29421899  0.90322992  0.10121067  1
  Zr  Zr16  1  0.09452342  0.69270340  0.30286435  1
  Zr  Zr17  1  0.09803759  0.69350498  0.89912712  1
  Zr  Zr18  1  0.50617127  0.10814811  0.49778239  1
  Zr  Zr19  1  0.10716737  0.50818478  0.49813724  1
  Zr  Zr20  1  0.09703152  0.50420106  0.70472088  1
  Zr  Zr21  1  0.90607461  0.70606983  0.48890835  1
  Zr  Zr22  1  0.30320961  0.29965025  0.69602949  1
  Zr  Zr23  1  0.29559189  0.71038892  0.30603473  1
  Zr  Zr24  1  0.49144371  0.69960887  0.69569673  1
  Zr  Zr25  1  0.70351852  0.30414390  0.70351010  1
  Zr  Zr26  1  0.89640925  0.30077458  0.70591296  1
  Zr  Zr27  1  0.69273499  0.30056626  0.50000201  1
  Zr  Zr28  1  0.50134956  0.29921671  0.31107421  1
  Zr  Zr29  1  0.50088607  0.49525924  0.69713744  1
  Zr  Zr30  1  0.29515520  0.29284215  0.30167080  1
  Zr  Zr31  1  0.70257900  0.69795262  0.91431781  1
  Zr  Zr32  1  0.09290634  0.89861058  0.50446578  1
  Zr  Zr33  1  0.49948843  0.09393468  0.90445865  1
  Zr  Zr34  1  0.71003726  0.10090006  0.49943158  1
  Zr  Zr35  1  0.49010042  0.50762583  0.09882521  1
  Zr  Zr36  1  0.70282904  0.30510497  0.30032545  1
  Zr  Zr37  1  0.70541019  0.71440467  0.29586017  1
  Zr  Zr38  1  0.89554785  0.49231984  0.69982486  1
  Zr  Zr39  1  0.10032761  0.49728393  0.11204968  1
  Zr  Zr40  1  0.50329453  0.90039173  0.70082331  1
  Zr  Zr41  1  0.49564051  0.49336012  0.49821599  1
  Zr  Zr42  1  0.49826608  0.50033029  0.30931282  1
  Zr  Zr43  1  0.29495138  0.10371868  0.70356882  1
  Zr  Zr44  1  0.70230737  0.90379199  0.50016214  1
  Zr  Zr45  1  0.09811101  0.90295205  0.70447406  1
  Zr  Zr46  1  0.09163345  0.10419659  0.09741111  1
  Zr  Zr47  1  0.30054133  0.28883779  0.90035290  1
  Zr  Zr48  1  0.70180692  0.30070391  0.09174921  1
  Zr  Zr49  1  0.50450096  0.30567666  0.70001048  1
  Sc  Sc50  1  0.08809481  0.10876405  0.49696711  1
  Sc  Sc51  1  0.69749423  0.91170946  0.90898477  1
  Sc  Sc52  1  0.89265954  0.50002400  0.49282309  1
  Sc  Sc53  1  0.69921117  0.49268159  0.90374129  1
  Sc  Sc54  1  0.50301823  0.90958220  0.29997972  1
  Sc  Sc55  1  0.10216474  0.89967322  0.09929883  1
  Sc  Sc56  1  0.49636838  0.69421641  0.91231708  1
  Sc  Sc57  1  0.70818091  0.49613465  0.09503344  1
  Sc  Sc58  1  0.10040491  0.30216562  0.10273372  1
  Sc  Sc59  1  0.90682343  0.49703438  0.10227126  1
  Sc  Sc60  1  0.68540009  0.70754065  0.68758351  1
  Sc  Sc61  1  0.30373544  0.49658439  0.89770716  1
  Sc  Sc62  1  0.08922216  0.10862316  0.29806614  1
  Sc  Sc63  1  0.89805881  0.30216126  0.90271667  1
  Sc  Sc64  1  0.10848162  0.28912757  0.68941318  1
  Sc  Sc65  1  0.10100903  0.29624506  0.29733306  1
  Sc  Sc66  1  0.09058787  0.70217368  0.10840959  1
  Sc  Sc67  1  0.90513039  0.70869170  0.29760129  1
  Sc  Sc68  1  0.50075104  0.69277116  0.50007562  1
  Sc  Sc69  1  0.90650843  0.89977014  0.89875824  1
  Sc  Sc70  1  0.49915733  0.69601767  0.30574223  1
  Sc  Sc71  1  0.89472242  0.29375967  0.49936580  1
  Sc  Sc72  1  0.90523552  0.09792079  0.09905554  1
  Sc  Sc73  1  0.89982810  0.49640394  0.29511231  1
  Sc  Sc74  1  0.08968073  0.49596952  0.90305272  1
  Sc  Sc75  1  0.10489147  0.09210603  0.89664557  1
  Sc  Sc76  1  0.90406769  0.50109127  0.90420125  1
  Sc  Sc77  1  0.49807817  0.49336833  0.89441861  1
  Sc  Sc78  1  0.91397897  0.70333168  0.69829724  1
  Sc  Sc79  1  0.69074664  0.89037103  0.10885396  1
  Sc  Sc80  1  0.69363809  0.90695428  0.69374048  1
  Sc  Sc81  1  0.70463064  0.49588902  0.30805381  1
  Sc  Sc82  1  0.30481019  0.69825483  0.90242309  1
  Sc  Sc83  1  0.09977343  0.88823850  0.28778316  1
  Sc  Sc84  1  0.89831120  0.10018121  0.90533740  1
  Sc  Sc85  1  0.90280510  0.89880929  0.09834656  1
  Sc  Sc86  1  0.29421981  0.50280076  0.29856010  1
  Sc  Sc87  1  0.90991311  0.90505561  0.69531631  1
  Sc  Sc88  1  0.09767903  0.09564761  0.69869083  1
  Sc  Sc89  1  0.30846138  0.50318996  0.69807500  1
  Sc  Sc90  1  0.90649699  0.30161253  0.10167432  1
  Sc  Sc91  1  0.10428833  0.90369492  0.90029615  1
  Sc  Sc92  1  0.90132018  0.09954187  0.68906130  1
  Sc  Sc93  1  0.69805131  0.10401709  0.90131562  1
  Sc  Sc94  1  0.49393638  0.09690798  0.30167715  1
  Sc  Sc95  1  0.49912793  0.09492730  0.70053437  1
  Sc  Sc96  1  0.30730593  0.69573568  0.09807354  1
  Sc  Sc97  1  0.30850740  0.10727204  0.50124180  1
  Sc  Sc98  1  0.31400762  0.90216231  0.69886056  1
  Sc  Sc99  1  0.90251035  0.30283829  0.29619854  1
  Nb  Nb100  1  0.89859672  0.09929594  0.30828660  1
  Nb  Nb101  1  0.90172081  0.09523280  0.48944449  1
  Nb  Nb102  1  0.49442676  0.30165033  0.49959320  1
  Nb  Nb103  1  0.10591250  0.30383837  0.49792277  1
  Nb  Nb104  1  0.49889537  0.90896411  0.10470484  1
  Nb  Nb105  1  0.70027088  0.49798701  0.69604791  1
  Nb  Nb106  1  0.69962617  0.70084493  0.49571603  1
  Nb  Nb107  1  0.89307974  0.69786933  0.09725941  1
  Nb  Nb108  1  0.70135861  0.69982257  0.10182164  1
  Nb  Nb109  1  0.49783607  0.29446293  0.10327491  1
  Nb  Nb110  1  0.29900241  0.30195514  0.10245372  1
  Nb  Nb111  1  0.29838009  0.69805402  0.69770598  1
  Nb  Nb112  1  0.70032519  0.29386715  0.89562587  1
  Nb  Nb113  1  0.69760120  0.10144649  0.29963190  1
  Nb  Nb114  1  0.29404094  0.30690740  0.50218427  1
  Nb  Nb115  1  0.50252724  0.09515277  0.10488571  1
  Nb  Nb116  1  0.29958026  0.09275002  0.90023921  1
  Nb  Nb117  1  0.70950093  0.10212257  0.70521216  1
  Nb  Nb118  1  0.09452858  0.50279125  0.29862716  1
  Nb  Nb119  1  0.30279208  0.49234147  0.50198907  1
  Nb  Nb120  1  0.29623305  0.49312487  0.10121839  1
  Nb  Nb121  1  0.70328788  0.90181418  0.29933820  1
  Nb  Nb122  1  0.29649593  0.09463899  0.30096108  1
  Nb  Nb123  1  0.29399025  0.69753272  0.51051025  1
  Nb  Nb124  1  0.89153650  0.89639589  0.30245478  1
  Nb  Nb125  1  0.20005178  0.39557437  0.79930230  1
  Nb  Nb126  1  0.80039558  0.00029061  0.20968816  1
  Nb  Nb127  1  0.79347887  0.79948669  0.79594520  1
  Nb  Nb128  1  0.00957464  0.39992915  0.40497640  1
  Nb  Nb129  1  0.00520764  0.39759634  0.59302763  1
  Nb  Nb130  1  0.79143504  0.60643916  0.79199995  1
  Nb  Nb131  1  0.79902797  0.00004491  0.79625402  1
  Nb  Nb132  1  0.39732035  0.38992177  0.00860426  1
  Nb  Nb133  1  0.60606004  0.80499715  0.40222691  1
  Nb  Nb134  1  0.19961444  0.00273707  0.39862462  1
  Nb  Nb135  1  0.60542237  0.60188065  0.79625741  1
  Nb  Nb136  1  0.59254684  0.39947307  0.19556956  1
  Nb  Nb137  1  0.20491127  0.79431027  0.79536460  1
  Nb  Nb138  1  0.40251846  0.80636824  0.19892454  1
  Nb  Nb139  1  0.80054746  0.79756339  0.59816942  1
  Nb  Nb140  1  0.79716819  0.60832105  0.19471658  1
  Nb  Nb141  1  0.60104527  0.19900567  0.19736685  1
  Nb  Nb142  1  0.19882798  0.59283242  0.00565386  1
  Nb  Nb143  1  0.20109270  0.00035798  0.59282807  1
  Nb  Nb144  1  0.60109171  0.79630700  0.80556499  1
  Nb  Nb145  1  0.60694559  0.59921319  0.19914841  1
  Nb  Nb146  1  0.79519187  0.19159763  0.20252045  1
  Nb  Nb147  1  0.79512969  0.60571791  0.60172937  1
  Nb  Nb148  1  -0.00217411  0.20053235  0.79945928  1
  Nb  Nb149  1  0.39821657  0.39439550  0.19659622  1
  Pd  Pd150  1  0.19844160  0.19142889  0.40578764  1
  Pd  Pd151  1  0.59951286  0.19500452  0.00445082  1
  Pd  Pd152  1  -0.00643300  -0.00470445  0.20551899  1
  Pd  Pd153  1  0.40309112  0.19758057  0.00003119  1
  Pd  Pd154  1  0.01095801  -0.00663312  0.38758304  1
  Pd  Pd155  1  0.20671498  0.81148074  0.60752324  1
  Pd  Pd156  1  0.80750580  0.40040992  -0.00354102  1
  Pd  Pd157  1  0.40422892  0.19906312  0.20564157  1
  Pd  Pd158  1  0.19474541  0.19602636  0.19682866  1
  Pd  Pd159  1  0.00324787  0.79753462  0.80301006  1
  Pd  Pd160  1  0.20766669  0.59970364  0.40045050  1
  Pd  Pd161  1  0.39625991  0.20057265  0.40084091  1
  Pd  Pd162  1  0.00287374  -0.00354711  -0.00450996  1
  Pd  Pd163  1  0.19602589  0.19454791  0.00139261  1
  Pd  Pd164  1  0.39983123  0.79494750  0.80501051  1
  Pd  Pd165  1  0.79638388  0.40505673  0.81061558  1
  Pd  Pd166  1  0.59259768  0.40334903  0.00326258  1
  Pd  Pd167  1  0.40105446  0.79679578  0.59308488  1
  Pd  Pd168  1  0.20175606  0.40312248  -0.00715087  1
  Pd  Pd169  1  0.59960242  0.59579040  0.59980193  1
  Pd  Pd170  1  0.38736425  0.60180424  0.40819141  1
  Pd  Pd171  1  0.19758149  0.40792622  0.60919137  1
  Pd  Pd172  1  0.18867350  0.00911784  0.20379963  1
  Pd  Pd173  1  0.60402055  0.19721613  0.60792297  1
  Pd  Pd174  1  0.79838665  0.81279390  0.00025823  1
  Pd  Pd175  1  0.60255457  0.00074544  0.39833685  1
  Pd  Pd176  1  -0.00332275  0.20379473  0.59928731  1
  Pd  Pd177  1  0.18995189  0.20116874  0.80376762  1
  Pd  Pd178  1  0.41259084  0.80151789  0.39753898  1
  Pd  Pd179  1  0.00664525  0.80166371  0.00231727  1
  Pd  Pd180  1  0.39995189  0.60418913  0.20395798  1
  Pd  Pd181  1  0.60438579  0.01305446  0.60260556  1
  Pd  Pd182  1  0.19798645  0.40344132  0.39134408  1
  Pd  Pd183  1  0.59932190  0.19274857  0.79455941  1
  Pd  Pd184  1  0.80227503  0.60383024  0.39243447  1
  Pd  Pd185  1  0.40195140  0.20293352  0.60084660  1
  Pd  Pd186  1  0.40703478  0.60157832  0.80370276  1
  Pd  Pd187  1  0.19719540  0.78912882  -0.00328950  1
  Pd  Pd188  1  0.20271843  0.60775857  0.19543370  1
  Pd  Pd189  1  0.80210701  0.19958101  0.59903571  1
  Pd  Pd190  1  -0.01104728  0.60236106  0.80204845  1
  Pd  Pd191  1  0.40733512  0.19560272  0.79927902  1
  Pd  Pd192  1  -0.01154111  0.59226415  0.59308028  1
  Pd  Pd193  1  0.19284279  0.80650360  0.39971088  1
  Pd  Pd194  1  0.40009047  0.80677169  0.00761708  1
  Pd  Pd195  1  0.20451197  0.59634359  0.80797268  1
  Pd  Pd196  1  0.60194375  0.58919161  0.00047881  1
  Pd  Pd197  1  0.80535450  0.19869348  0.00480793  1
  Pd  Pd198  1  0.80250227  0.20572106  0.39499082  1
  Pd  Pd199  1  0.59734086  0.80969093  -0.00463387  1
  Rh  Rh200  1  0.39689474  0.00765503  0.59943086  1
  Rh  Rh201  1  0.79694999  0.80275833  0.40761582  1
  Rh  Rh202  1  0.38799303  0.39559758  0.39825681  1
  Rh  Rh203  1  0.40036936  0.39542493  0.59587109  1
  Rh  Rh204  1  0.80445681  -0.00402595  -0.00019877  1
  Rh  Rh205  1  0.59750269  0.80406269  0.59100094  1
  Rh  Rh206  1  0.00422334  0.00719708  0.59504554  1
  Rh  Rh207  1  0.60105771  0.19846925  0.39825290  1
  Rh  Rh208  1  0.20264590  0.39638000  0.20847889  1
  Rh  Rh209  1  0.39490677  0.59737208  0.59290040  1
  Rh  Rh210  1  0.39991071  -0.00022562  0.19729987  1
  Rh  Rh211  1  0.60474900  0.00560264  0.20167953  1
  Rh  Rh212  1  0.20755561  0.79295235  0.19356976  1
  Rh  Rh213  1  0.80946969  0.39489582  0.40357469  1
  Rh  Rh214  1  -0.00671273  0.80058275  0.19747796  1
  Rh  Rh215  1  -0.00531140  0.21099508  0.39986792  1
  Rh  Rh216  1  0.00033371  0.20041688  -0.00593401  1
  Rh  Rh217  1  0.59817237  0.39749827  0.59618935  1
  Rh  Rh218  1  0.80846638  0.80447867  0.19063448  1
  Rh  Rh219  1  0.79356981  0.39990157  0.19781309  1
  Rh  Rh220  1  -0.01122391  0.01162260  0.80219950  1
  Rh  Rh221  1  0.39209479  0.39132333  0.80654961  1
  Rh  Rh222  1  -0.00978580  0.20049959  0.20013623  1
  Rh  Rh223  1  0.60798159  0.40361850  0.80097286  1
  Rh  Rh224  1  0.58816361  0.79851509  0.21190534  1
  Rh  Rh225  1  0.59492639  -0.00329982  0.00288017  1
  Rh  Rh226  1  0.00669803  0.39733499  0.20850811  1
  Rh  Rh227  1  0.80670180  0.19269607  0.80393123  1
  Rh  Rh228  1  -0.00686665  0.80029408  0.59609818  1
  Rh  Rh229  1  0.60835703  -0.00076621  0.79927374  1
  Rh  Rh230  1  0.20163416  0.19014781  0.58970794  1
  Rh  Rh231  1  0.39039133  0.58906058  -0.00441774  1
  Rh  Rh232  1  0.61027252  0.60954725  0.38945764  1
  Rh  Rh233  1  0.00738128  0.59729579  0.00864649  1
  Rh  Rh234  1  -0.00063340  0.40022927  0.00867655  1
  Rh  Rh235  1  -0.01248846  0.60216082  0.20130035  1
  Rh  Rh236  1  0.20931090  0.59200878  0.60008792  1
  Rh  Rh237  1  0.39681983  0.00637792  0.79843731  1
  Rh  Rh238  1  0.39906525  0.00332398  0.00675597  1
  Rh  Rh239  1  0.01417600  0.38534860  0.78485078  1
  Rh  Rh240  1  0.79733895  0.00278407  0.39351355  1
  Rh  Rh241  1  0.20820799  -0.00881016  0.79011318  1
  Rh  Rh242  1  0.59956481  0.39899227  0.40203095  1
  Rh  Rh243  1  0.39604942  0.00712869  0.40166196  1
  Rh  Rh244  1  0.00506651  0.80711473  0.39504579  1
  Rh  Rh245  1  0.80313938  0.40452622  0.59203930  1
  Rh  Rh246  1  0.19806731  0.00806797  0.00753208  1
  Rh  Rh247  1  0.80335582  0.59290662  0.00352246  1
  Rh  Rh248  1  -0.00478168  0.59146386  0.39489290  1
  Rh  Rh249  1  0.80430141  -0.00209832  0.60453752  1
