# generated using pymatgen
data_ZrScNbPdRh
_symmetry_space_group_name_H-M   'P 1'
_cell_length_a   16.55332263
_cell_length_b   16.55293879
_cell_length_c   16.55191258
_cell_angle_alpha   90.03187549
_cell_angle_beta   89.98059525
_cell_angle_gamma   90.01850055
_symmetry_Int_Tables_number   1
_chemical_formula_structural   ZrScNbPdRh
_chemical_formula_sum   'Zr50 Sc50 Nb50 Pd50 Rh50'
_cell_volume   4535.32441727
_cell_formula_units_Z   50
loop_
 _symmetry_equiv_pos_site_id
 _symmetry_equiv_pos_as_xyz
  1  'x, y, z'
loop_
 _atom_site_type_symbol
 _atom_site_label
 _atom_site_symmetry_multiplicity
 _atom_site_fract_x
 _atom_site_fract_y
 _atom_site_fract_z
 _atom_site_occupancy
  Zr  Zr0  1  0.70453213  0.69776550  0.69325634  1
  Zr  Zr1  1  0.49569864  0.29879634  0.70692690  1
  Zr  Zr2  1  0.30106358  0.69479190  0.50164887  1
  Zr  Zr3  1  0.89876524  0.49265014  0.09632869  1
  Zr  Zr4  1  0.50142037  0.70807256  0.48993893  1
  Zr  Zr5  1  0.09167426  0.70440632  0.70388899  1
  Zr  Zr6  1  0.10182079  0.89978881  0.29724017  1
  Zr  Zr7  1  0.10249718  0.49540006  0.10083561  1
  Zr  Zr8  1  0.70097749  0.09662599  0.90347267  1
  Zr  Zr9  1  0.09893826  0.09955037  0.89858204  1
  Zr  Zr10  1  0.69570466  0.70586043  0.10482026  1
  Zr  Zr11  1  0.68838091  0.30297297  0.70444066  1
  Zr  Zr12  1  0.90336814  0.29763948  0.30094621  1
  Zr  Zr13  1  0.10166486  0.48896800  0.69995185  1
  Zr  Zr14  1  0.69652958  0.90319718  0.09523618  1
  Zr  Zr15  1  0.50732498  0.29411012  0.89505901  1
  Zr  Zr16  1  0.30269518  0.29749925  0.89887981  1
  Zr  Zr17  1  0.30476079  0.70005603  0.69978215  1
  Zr  Zr18  1  0.70132996  0.29555886  0.30040023  1
  Zr  Zr19  1  0.70121716  0.50149162  0.69934760  1
  Zr  Zr20  1  0.30627284  0.90349455  0.90234534  1
  Zr  Zr21  1  0.30096035  0.90093292  0.49052894  1
  Zr  Zr22  1  0.10236921  0.69845697  0.50050097  1
  Zr  Zr23  1  0.90031111  0.30043791  0.10219288  1
  Zr  Zr24  1  0.69901454  0.09402281  0.11084808  1
  Zr  Zr25  1  0.29725243  0.50062500  0.69096696  1
  Zr  Zr26  1  0.28961739  0.69169753  0.09254285  1
  Zr  Zr27  1  0.49820845  0.70512603  0.69731278  1
  Zr  Zr28  1  0.29886291  0.30754837  0.70057370  1
  Zr  Zr29  1  0.09758328  0.48882415  0.29921793  1
  Zr  Zr30  1  0.29863729  0.50530690  0.49966645  1
  Zr  Zr31  1  0.50212435  0.89753844  0.10377350  1
  Zr  Zr32  1  0.89528510  0.70045667  0.70037403  1
  Zr  Zr33  1  0.11447993  0.09892254  0.09618419  1
  Zr  Zr34  1  0.10490938  0.10454727  0.30172062  1
  Zr  Zr35  1  0.29954065  0.10759803  0.28885045  1
  Zr  Zr36  1  0.89713803  0.29714974  0.90734920  1
  Zr  Zr37  1  0.49935869  0.50451565  0.10472071  1
  Zr  Zr38  1  0.89750361  0.89730820  0.70330892  1
  Zr  Zr39  1  0.49957824  0.49662847  0.89920625  1
  Zr  Zr40  1  0.50007147  0.10742564  0.30471021  1
  Zr  Zr41  1  0.09625068  0.10189423  0.69699689  1
  Zr  Zr42  1  0.10893027  0.90842059  0.49759625  1
  Zr  Zr43  1  0.91093807  0.29530438  0.69328796  1
  Zr  Zr44  1  0.89875451  0.50095618  0.71073943  1
  Zr  Zr45  1  0.89599679  0.10410458  0.09846104  1
  Zr  Zr46  1  0.69823601  0.49814587  0.50303080  1
  Zr  Zr47  1  0.10170606  0.70609969  0.91490476  1
  Zr  Zr48  1  0.50297306  0.29572283  0.49558916  1
  Zr  Zr49  1  0.30135482  0.09942854  0.48889747  1
  Sc  Sc50  1  0.90055551  0.29603516  0.49079125  1
  Sc  Sc51  1  0.89252167  0.49980447  0.29840197  1
  Sc  Sc52  1  0.10528565  0.49709378  0.49801896  1
  Sc  Sc53  1  0.50619051  0.09721720  0.10941022  1
  Sc  Sc54  1  0.89211168  0.70135152  0.29877821  1
  Sc  Sc55  1  0.69729193  0.49583085  0.30113444  1
  Sc  Sc56  1  0.89203731  0.90555267  0.49775950  1
  Sc  Sc57  1  0.69429914  0.29394448  0.90201872  1
  Sc  Sc58  1  0.71092241  0.49157012  0.90262342  1
  Sc  Sc59  1  0.89698399  0.89669629  0.89422062  1
  Sc  Sc60  1  0.69221683  0.29908939  0.10226270  1
  Sc  Sc61  1  0.10207163  0.10126208  0.49416446  1
  Sc  Sc62  1  0.29910158  0.50465393  0.10570822  1
  Sc  Sc63  1  0.70359944  0.08487264  0.70336301  1
  Sc  Sc64  1  0.89907856  0.09784989  0.70793818  1
  Sc  Sc65  1  0.30653294  0.51206206  0.90647745  1
  Sc  Sc66  1  0.10675182  0.70838098  0.29278587  1
  Sc  Sc67  1  0.50888895  0.29798522  0.30121979  1
  Sc  Sc68  1  0.29738375  0.90285112  0.29651569  1
  Sc  Sc69  1  0.30906819  0.90509018  0.70003911  1
  Sc  Sc70  1  0.70508027  0.90760779  0.29887011  1
  Sc  Sc71  1  0.29850152  0.49831404  0.30688040  1
  Sc  Sc72  1  0.08776646  0.29995342  0.49593924  1
  Sc  Sc73  1  0.30339327  0.69964351  0.29966033  1
  Sc  Sc74  1  0.70018187  0.90433831  0.50926397  1
  Sc  Sc75  1  0.49395362  0.89254335  0.30094294  1
  Sc  Sc76  1  0.89660840  0.90319037  0.30093405  1
  Sc  Sc77  1  0.89357125  0.70371594  0.10163316  1
  Sc  Sc78  1  0.30971479  0.30537308  0.49628959  1
  Sc  Sc79  1  0.89837887  0.89452859  0.10643693  1
  Sc  Sc80  1  0.50121630  0.49715663  0.49073843  1
  Sc  Sc81  1  0.50328021  0.49088181  0.69873776  1
  Sc  Sc82  1  0.09635426  0.30189200  0.10683974  1
  Sc  Sc83  1  0.90238579  0.70063571  0.89850918  1
  Sc  Sc84  1  0.69499220  0.30665305  0.48874673  1
  Sc  Sc85  1  0.89288074  0.69753199  0.49999846  1
  Sc  Sc86  1  0.90285373  0.49872395  0.48870353  1
  Sc  Sc87  1  0.30136261  0.09638461  0.69747901  1
  Sc  Sc88  1  0.29644805  0.09291483  0.91244637  1
  Sc  Sc89  1  0.10494429  0.29672965  0.89340315  1
  Sc  Sc90  1  0.88913701  0.10339210  0.30256205  1
  Sc  Sc91  1  0.49720845  0.90922556  0.90134699  1
  Sc  Sc92  1  0.90135030  0.10130195  0.49563349  1
  Sc  Sc93  1  0.50215028  0.90259822  0.70101204  1
  Sc  Sc94  1  0.49918711  0.10064970  0.70901437  1
  Sc  Sc95  1  0.48487494  0.70066928  0.89781763  1
  Sc  Sc96  1  0.09819126  0.88636739  0.09889347  1
  Sc  Sc97  1  0.70813279  0.70774136  0.90920964  1
  Sc  Sc98  1  0.70599109  0.49653219  0.10258292  1
  Sc  Sc99  1  0.69510601  0.69834337  0.49827252  1
  Nb  Nb100  1  0.50294310  0.29979282  0.10003588  1
  Nb  Nb101  1  0.70229079  0.09872169  0.50101522  1
  Nb  Nb102  1  0.69773828  0.10006239  0.30198618  1
  Nb  Nb103  1  0.49872606  0.10518628  0.49516883  1
  Nb  Nb104  1  0.90207466  0.10103291  0.90276214  1
  Nb  Nb105  1  0.09546949  0.90010685  0.70237467  1
  Nb  Nb106  1  0.49934092  0.90489845  0.49439713  1
  Nb  Nb107  1  0.30294186  0.92279885  0.09448829  1
  Nb  Nb108  1  0.09353444  0.69701135  0.10105382  1
  Nb  Nb109  1  0.49838886  0.10443336  0.90245983  1
  Nb  Nb110  1  0.30194598  0.29324749  0.10300295  1
  Nb  Nb111  1  0.29861668  0.70340067  0.89919335  1
  Nb  Nb112  1  0.29531505  0.29874100  0.29013667  1
  Nb  Nb113  1  0.09340341  0.89947320  0.89885832  1
  Nb  Nb114  1  0.49611184  0.70016080  0.10889280  1
  Nb  Nb115  1  0.90683795  0.49143025  0.90641388  1
  Nb  Nb116  1  0.49476402  0.50683293  0.29360365  1
  Nb  Nb117  1  0.10548649  0.29860394  0.69145936  1
  Nb  Nb118  1  0.50411286  0.69134587  0.28786944  1
  Nb  Nb119  1  0.70768247  0.90006271  0.71005426  1
  Nb  Nb120  1  0.09741268  0.49807363  0.90105508  1
  Nb  Nb121  1  0.30142448  0.10150193  0.10094834  1
  Nb  Nb122  1  0.69849564  0.90015321  0.89468202  1
  Nb  Nb123  1  0.10338966  0.30144195  0.29714648  1
  Nb  Nb124  1  0.69520870  0.69716469  0.29939514  1
  Nb  Nb125  1  0.59653201  0.60571126  0.00111280  1
  Nb  Nb126  1  0.19951348  0.20519093  0.60017858  1
  Nb  Nb127  1  0.00087835  0.59432368  0.00246196  1
  Nb  Nb128  1  -0.00023085  0.59816504  0.60469808  1
  Nb  Nb129  1  0.19808599  0.60509146  0.80421561  1
  Nb  Nb130  1  0.80067654  0.39525468  0.60203395  1
  Nb  Nb131  1  0.19957921  0.80205930  0.80195859  1
  Nb  Nb132  1  0.60606418  0.80031661  0.80073241  1
  Nb  Nb133  1  0.40397550  0.19951519  0.00783847  1
  Nb  Nb134  1  0.00195544  0.00418678  0.19494847  1
  Nb  Nb135  1  0.40106929  0.39208877  0.00664003  1
  Nb  Nb136  1  0.40837409  0.00302536  0.58658448  1
  Nb  Nb137  1  0.40125010  0.39455258  0.19825823  1
  Nb  Nb138  1  0.59669364  0.00509149  0.40666313  1
  Nb  Nb139  1  0.00309155  0.80221497  0.40121026  1
  Nb  Nb140  1  0.60280151  0.60615754  0.80469705  1
  Nb  Nb141  1  0.20588622  0.39828258  0.00147148  1
  Nb  Nb142  1  0.00162737  0.60005649  0.19469804  1
  Nb  Nb143  1  0.00334986  -0.00438302  0.60341275  1
  Nb  Nb144  1  0.39598818  0.79987475  0.00918578  1
  Nb  Nb145  1  0.60190012  0.19294560  0.59706557  1
  Nb  Nb146  1  0.19915723  0.80518086  0.60646108  1
  Nb  Nb147  1  0.79224263  0.20209989  0.59884680  1
  Nb  Nb148  1  -0.00105937  0.00103891  -0.00109202  1
  Nb  Nb149  1  0.19203155  -0.00796571  0.80007786  1
  Pd  Pd150  1  0.79636031  0.80250841  0.59365877  1
  Pd  Pd151  1  0.20331056  0.21216607  0.40693813  1
  Pd  Pd152  1  0.78878075  0.20252935  0.00571532  1
  Pd  Pd153  1  0.80208364  0.38905374  0.79882173  1
  Pd  Pd154  1  0.19519826  0.60279530  0.39070024  1
  Pd  Pd155  1  0.41370202  0.59416574  0.59456997  1
  Pd  Pd156  1  0.80124476  0.59951936  -0.00088905  1
  Pd  Pd157  1  0.60330810  0.80701357  0.60453405  1
  Pd  Pd158  1  0.40600100  0.00232558  0.20547392  1
  Pd  Pd159  1  0.59559020  0.00411583  -0.00045575  1
  Pd  Pd160  1  0.40673195  0.40338892  0.59636386  1
  Pd  Pd161  1  0.79353488  0.80219753  0.20488855  1
  Pd  Pd162  1  0.00045491  0.20509103  0.80140406  1
  Pd  Pd163  1  0.39887473  0.19428398  0.60147770  1
  Pd  Pd164  1  0.61158003  0.59392235  0.19580344  1
  Pd  Pd165  1  0.59774474  0.59697042  0.39574840  1
  Pd  Pd166  1  0.79506584  0.60296586  0.81356854  1
  Pd  Pd167  1  0.79299145  0.59927601  0.39747508  1
  Pd  Pd168  1  0.00389993  0.60836755  0.39339326  1
  Pd  Pd169  1  0.80553978  0.80714831  0.00016978  1
  Pd  Pd170  1  0.39912357  0.79446066  0.39228617  1
  Pd  Pd171  1  0.40517707  0.39672029  0.38763964  1
  Pd  Pd172  1  0.38717044  0.79852744  0.19313145  1
  Pd  Pd173  1  0.19663086  0.59749422  0.20868631  1
  Pd  Pd174  1  -0.00629533  0.40702398  0.59251533  1
  Pd  Pd175  1  0.20745221  0.81058777  0.00326689  1
  Pd  Pd176  1  0.79763777  0.80059492  0.40174378  1
  Pd  Pd177  1  0.80771235  -0.00780577  -0.00291546  1
  Pd  Pd178  1  -0.00014415  0.80293197  0.58778707  1
  Pd  Pd179  1  0.21043110  0.80557129  0.18950003  1
  Pd  Pd180  1  0.58712801  0.79382782  -0.01074545  1
  Pd  Pd181  1  -0.00401987  -0.00219148  0.39726967  1
  Pd  Pd182  1  0.59108364  0.59959828  0.60160812  1
  Pd  Pd183  1  0.20626812  0.19020299  0.79406383  1
  Pd  Pd184  1  0.00254870  0.19323075  0.20185183  1
  Pd  Pd185  1  0.00785817  0.20126372  0.00141973  1
  Pd  Pd186  1  0.59404427  0.00394974  0.59881437  1
  Pd  Pd187  1  0.79806544  0.39563901  0.20134633  1
  Pd  Pd188  1  0.79633462  0.19922881  0.79471022  1
  Pd  Pd189  1  0.60109830  0.40707367  0.00078096  1
  Pd  Pd190  1  0.20886309  0.41157812  0.81038448  1
  Pd  Pd191  1  0.00073770  0.38776926  0.80418354  1
  Pd  Pd192  1  0.60501219  0.80748893  0.21095476  1
  Pd  Pd193  1  0.39705354  0.81030342  0.59586027  1
  Pd  Pd194  1  0.38981429  0.18914099  0.80666369  1
  Pd  Pd195  1  0.40083305  0.59400748  0.79443421  1
  Pd  Pd196  1  0.00482126  0.60065388  0.80599134  1
  Pd  Pd197  1  0.60768255  0.80902362  0.39234945  1
  Pd  Pd198  1  0.59587614  -0.00162071  0.80212001  1
  Pd  Pd199  1  0.19930628  0.39213108  0.40512763  1
  Rh  Rh200  1  0.59537214  0.40646664  0.39185960  1
  Rh  Rh201  1  0.19239405  0.59055555  -0.00651072  1
  Rh  Rh202  1  0.39632075  0.00504501  0.79636283  1
  Rh  Rh203  1  0.20012084  0.38950141  0.58737122  1
  Rh  Rh204  1  0.41162210  0.00751424  0.00662000  1
  Rh  Rh205  1  0.40737389  0.20532395  0.19875586  1
  Rh  Rh206  1  0.60837194  0.18698035  0.79462421  1
  Rh  Rh207  1  0.19451464  0.20579208  0.19526212  1
  Rh  Rh208  1  0.19498367  -0.00450820  0.19728356  1
  Rh  Rh209  1  0.59993560  0.39121651  0.59531088  1
  Rh  Rh210  1  0.60352581  0.40987557  0.80555668  1
  Rh  Rh211  1  0.20430476  0.20875203  0.00426857  1
  Rh  Rh212  1  0.59586417  -0.00527955  0.21403234  1
  Rh  Rh213  1  0.79948002  0.60379218  0.20229762  1
  Rh  Rh214  1  0.79195843  0.00319765  0.40089213  1
  Rh  Rh215  1  0.20809610  0.39678863  0.19459295  1
  Rh  Rh216  1  -0.00091883  0.39829255  0.39463947  1
  Rh  Rh217  1  -0.00241718  -0.00045740  0.80241199  1
  Rh  Rh218  1  0.00017543  0.19043876  0.59498442  1
  Rh  Rh219  1  0.39455219  0.40642834  0.80404057  1
  Rh  Rh220  1  -0.00438078  0.79789550  0.21026782  1
  Rh  Rh221  1  0.81161034  0.00636934  0.60209279  1
  Rh  Rh222  1  0.60978994  0.19357168  0.40465495  1
  Rh  Rh223  1  0.39340633  0.20810532  0.38976145  1
  Rh  Rh224  1  0.00146705  0.19903090  0.39248936  1
  Rh  Rh225  1  0.59332463  0.40269756  0.20527828  1
  Rh  Rh226  1  0.80644125  0.00194861  0.20103351  1
  Rh  Rh227  1  0.81219859  0.58547949  0.59252180  1
  Rh  Rh228  1  0.39134692  0.59712882  0.20431876  1
  Rh  Rh229  1  0.60225478  0.20114743  0.19928966  1
  Rh  Rh230  1  0.80597344  0.00248504  0.80920142  1
  Rh  Rh231  1  -0.00907059  0.79947969  0.00060626  1
  Rh  Rh232  1  0.79642710  0.19917442  0.40489021  1
  Rh  Rh233  1  -0.00725886  0.40318960  0.20670383  1
  Rh  Rh234  1  0.20717117  0.00528074  0.38610816  1
  Rh  Rh235  1  0.18958637  -0.00802722  -0.00390424  1
  Rh  Rh236  1  0.59639140  0.19023246  0.00403940  1
  Rh  Rh237  1  0.18871374  0.60605123  0.61074286  1
  Rh  Rh238  1  0.40603095  0.60668881  0.39630985  1
  Rh  Rh239  1  0.40263733  0.00189187  0.39522587  1
  Rh  Rh240  1  0.20012508  0.00148218  0.60908768  1
  Rh  Rh241  1  0.79524618  0.79513298  0.80128821  1
  Rh  Rh242  1  0.79631846  0.39016193  0.00076330  1
  Rh  Rh243  1  0.19988737  0.79513745  0.40741455  1
  Rh  Rh244  1  0.79989885  0.39987502  0.40330456  1
  Rh  Rh245  1  0.00943771  0.39590673  -0.00469018  1
  Rh  Rh246  1  0.40415553  0.80835852  0.80835910  1
  Rh  Rh247  1  -0.00116192  0.79897698  0.80673460  1
  Rh  Rh248  1  0.40721417  0.60618215  0.00701714  1
  Rh  Rh249  1  0.79411858  0.20071185  0.19961741  1
