# generated using pymatgen
data_ZrScNbPdRh
_symmetry_space_group_name_H-M   'P 1'
_cell_length_a   16.55465363
_cell_length_b   16.55444549
_cell_length_c   16.55399347
_cell_angle_alpha   90.02080074
_cell_angle_beta   89.98647167
_cell_angle_gamma   89.99555496
_symmetry_Int_Tables_number   1
_chemical_formula_structural   ZrScNbPdRh
_chemical_formula_sum   'Zr50 Sc50 Nb50 Pd50 Rh50'
_cell_volume   4536.67297330
_cell_formula_units_Z   50
loop_
 _symmetry_equiv_pos_site_id
 _symmetry_equiv_pos_as_xyz
  1  'x, y, z'
loop_
 _atom_site_type_symbol
 _atom_site_label
 _atom_site_symmetry_multiplicity
 _atom_site_fract_x
 _atom_site_fract_y
 _atom_site_fract_z
 _atom_site_occupancy
  Zr  Zr0  1  0.49933075  0.70409033  0.90064451  1
  Zr  Zr1  1  0.69726026  0.09723057  0.69296114  1
  Zr  Zr2  1  0.30457188  0.70766715  0.10095173  1
  Zr  Zr3  1  0.30463724  0.89863600  0.91212073  1
  Zr  Zr4  1  0.50196899  0.30768126  0.49083817  1
  Zr  Zr5  1  0.09675689  0.29161601  0.10257679  1
  Zr  Zr6  1  0.10151723  0.50317234  0.89997395  1
  Zr  Zr7  1  0.09550800  0.09130129  0.70094178  1
  Zr  Zr8  1  0.09543508  0.69470526  0.89538704  1
  Zr  Zr9  1  0.29867442  0.29449266  0.10400133  1
  Zr  Zr10  1  0.29687798  0.09666012  0.49503438  1
  Zr  Zr11  1  0.49552974  0.49988622  0.90267957  1
  Zr  Zr12  1  0.90616088  0.90354453  0.09670321  1
  Zr  Zr13  1  0.09596492  0.70401433  0.49811419  1
  Zr  Zr14  1  0.50656831  0.90834510  0.69242188  1
  Zr  Zr15  1  0.90996499  0.50501716  0.10697012  1
  Zr  Zr16  1  0.89597015  0.30359095  0.69822908  1
  Zr  Zr17  1  0.30184912  0.50189008  0.09280443  1
  Zr  Zr18  1  0.69853020  0.90150422  0.49972906  1
  Zr  Zr19  1  0.69784478  0.50290107  0.10448079  1
  Zr  Zr20  1  0.10166949  0.90996492  0.10071380  1
  Zr  Zr21  1  0.09773236  0.90308630  0.49191845  1
  Zr  Zr22  1  0.70490499  0.29482860  0.69809211  1
  Zr  Zr23  1  0.89157458  0.10615549  0.29765083  1
  Zr  Zr24  1  0.30338550  0.29590694  0.90968107  1
  Zr  Zr25  1  0.89457351  0.29916976  0.49899043  1
  Zr  Zr26  1  0.30010416  0.69561578  0.70416346  1
  Zr  Zr27  1  0.49746886  0.50645832  0.69703670  1
  Zr  Zr28  1  0.09431258  0.50298087  0.29010524  1
  Zr  Zr29  1  0.30071583  0.50008888  0.69652693  1
  Zr  Zr30  1  0.48897533  0.89942859  0.49851544  1
  Zr  Zr31  1  0.69552258  0.50091902  0.90390443  1
  Zr  Zr32  1  0.29991470  0.29768079  0.30701194  1
  Zr  Zr33  1  0.29647292  0.89895484  0.70619677  1
  Zr  Zr34  1  0.09598282  0.30366153  0.70045917  1
  Zr  Zr35  1  0.90161211  0.28865555  0.10585390  1
  Zr  Zr36  1  0.29761219  0.70384893  0.49728472  1
  Zr  Zr37  1  0.49740181  0.89352347  0.30044891  1
  Zr  Zr38  1  0.30609837  0.10536909  0.69415411  1
  Zr  Zr39  1  0.50161190  0.49934380  0.50073925  1
  Zr  Zr40  1  0.89486619  0.49876643  0.50224957  1
  Zr  Zr41  1  0.90165495  0.51019151  0.89831900  1
  Zr  Zr42  1  0.90442158  0.49959281  0.69724627  1
  Zr  Zr43  1  0.70377254  0.69693975  0.50103792  1
  Zr  Zr44  1  0.70757667  0.10916959  0.11063189  1
  Zr  Zr45  1  0.70334852  0.29418868  0.50330265  1
  Zr  Zr46  1  0.49327297  0.09370132  0.90365744  1
  Zr  Zr47  1  0.49551905  0.09695804  0.69829085  1
  Zr  Zr48  1  0.09628322  0.29855283  0.90353759  1
  Zr  Zr49  1  0.50660034  0.49637475  0.10266161  1
  Sc  Sc50  1  0.09613144  0.50790803  0.50066245  1
  Sc  Sc51  1  0.50223868  0.48773440  0.30322687  1
  Sc  Sc52  1  0.49783608  0.10078739  0.09927344  1
  Sc  Sc53  1  0.89604754  0.70242472  0.10118900  1
  Sc  Sc54  1  0.09458275  0.69489847  0.10431324  1
  Sc  Sc55  1  0.29781102  0.09870826  0.30097436  1
  Sc  Sc56  1  0.71437824  0.70455840  0.90059282  1
  Sc  Sc57  1  0.30620790  0.09529125  0.90617878  1
  Sc  Sc58  1  0.50646429  0.88888688  0.09661061  1
  Sc  Sc59  1  0.69931064  0.70504733  0.10456633  1
  Sc  Sc60  1  0.30310960  0.70534904  0.30689298  1
  Sc  Sc61  1  0.11019732  0.90459053  0.89606382  1
  Sc  Sc62  1  0.09528947  0.09649953  0.90627273  1
  Sc  Sc63  1  0.70126415  0.89616498  0.08980176  1
  Sc  Sc64  1  0.70801856  0.30018576  0.89825557  1
  Sc  Sc65  1  0.29986026  0.70111320  0.89588777  1
  Sc  Sc66  1  0.09702933  0.29363629  0.30212315  1
  Sc  Sc67  1  0.71181304  0.70613433  0.29314613  1
  Sc  Sc68  1  0.29918143  0.89887494  0.31388110  1
  Sc  Sc69  1  0.29993739  0.29947684  0.50316585  1
  Sc  Sc70  1  0.49168284  0.29587756  0.68408474  1
  Sc  Sc71  1  0.89929508  0.09740440  0.90584075  1
  Sc  Sc72  1  0.49550962  0.69847509  0.50506224  1
  Sc  Sc73  1  0.49954433  0.30108016  0.10407447  1
  Sc  Sc74  1  0.90118341  0.89727102  0.29509538  1
  Sc  Sc75  1  0.90285851  0.50090277  0.30653646  1
  Sc  Sc76  1  0.90362930  0.09521727  0.09945236  1
  Sc  Sc77  1  0.49798475  0.29674213  0.29613908  1
  Sc  Sc78  1  0.90015642  0.69629494  0.49590672  1
  Sc  Sc79  1  0.10079616  0.50902501  0.09883986  1
  Sc  Sc80  1  0.89873573  0.09550586  0.71008840  1
  Sc  Sc81  1  0.69409450  0.29572355  0.29679799  1
  Sc  Sc82  1  0.90920346  0.30160703  0.30248010  1
  Sc  Sc83  1  0.09019895  0.69888183  0.70142460  1
  Sc  Sc84  1  0.30144112  0.50322653  0.30497262  1
  Sc  Sc85  1  0.10019680  0.09439230  0.29882841  1
  Sc  Sc86  1  0.69849236  0.50903537  0.69504318  1
  Sc  Sc87  1  0.88500760  0.90186940  0.89709576  1
  Sc  Sc88  1  0.69150908  0.30178721  0.10200435  1
  Sc  Sc89  1  0.90942353  0.89720116  0.50025359  1
  Sc  Sc90  1  0.70911283  0.09022953  0.89774148  1
  Sc  Sc91  1  0.89936392  0.29501855  0.88915107  1
  Sc  Sc92  1  0.09507356  0.09857146  0.48949243  1
  Sc  Sc93  1  0.49311639  0.09131602  0.50658451  1
  Sc  Sc94  1  0.30337664  0.50173386  0.49843516  1
  Sc  Sc95  1  0.70148579  0.49524788  0.49674185  1
  Sc  Sc96  1  0.10639370  0.29647479  0.49346946  1
  Sc  Sc97  1  0.29443006  0.09479015  0.09778811  1
  Sc  Sc98  1  0.49992234  0.69577049  0.69841290  1
  Sc  Sc99  1  0.09673544  0.50451188  0.69845684  1
  Nb  Nb100  1  0.08938543  0.90288888  0.68800938  1
  Nb  Nb101  1  0.70107880  0.09408424  0.30551826  1
  Nb  Nb102  1  0.09308312  0.09364368  0.10059795  1
  Nb  Nb103  1  0.50806167  0.70414364  0.10889788  1
  Nb  Nb104  1  0.90533415  0.70777504  0.29587328  1
  Nb  Nb105  1  0.50180029  0.09538985  0.29904630  1
  Nb  Nb106  1  0.10022405  0.89873076  0.29485793  1
  Nb  Nb107  1  0.50814996  0.70508503  0.28976233  1
  Nb  Nb108  1  0.90416592  0.70482646  0.89646565  1
  Nb  Nb109  1  0.29973265  0.49971356  0.89704128  1
  Nb  Nb110  1  0.89579904  0.10666756  0.49797388  1
  Nb  Nb111  1  0.29726451  0.89777237  0.49930113  1
  Nb  Nb112  1  0.09811099  0.70772634  0.29921351  1
  Nb  Nb113  1  0.89863406  0.70794818  0.71138306  1
  Nb  Nb114  1  0.69461402  0.49962431  0.29570946  1
  Nb  Nb115  1  0.50158784  0.29769167  0.90245932  1
  Nb  Nb116  1  0.69733731  0.89912893  0.89973667  1
  Nb  Nb117  1  0.69870585  0.70714836  0.69906518  1
  Nb  Nb118  1  0.90413476  0.89889005  0.69521271  1
  Nb  Nb119  1  0.71157920  0.10035366  0.49462060  1
  Nb  Nb120  1  0.70112836  0.90349616  0.30783100  1
  Nb  Nb121  1  0.29709169  0.30029598  0.69806681  1
  Nb  Nb122  1  0.29869934  0.90138626  0.10656279  1
  Nb  Nb123  1  0.70529364  0.90347923  0.70152814  1
  Nb  Nb124  1  0.51163048  0.90214827  0.90421573  1
  Nb  Nb125  1  0.80701501  0.40322914  0.00627371  1
  Nb  Nb126  1  0.20360289  0.20387061  0.79761075  1
  Nb  Nb127  1  0.60223209  0.60467792  0.39060039  1
  Nb  Nb128  1  0.60206668  0.79735226  0.39724400  1
  Nb  Nb129  1  0.20715075  0.39690856  0.80172259  1
  Nb  Nb130  1  0.40941007  0.60590673  0.19895513  1
  Nb  Nb131  1  -0.00168590  0.79935494  -0.00648063  1
  Nb  Nb132  1  0.19542815  0.80634208  0.60048189  1
  Nb  Nb133  1  0.40319305  -0.00692485  0.20207567  1
  Nb  Nb134  1  0.59186919  0.39304803  0.79965709  1
  Nb  Nb135  1  -0.00465858  0.19779452  0.59803438  1
  Nb  Nb136  1  0.19705542  -0.00635721  0.59843470  1
  Nb  Nb137  1  -0.00529170  0.39927447  0.00080042  1
  Nb  Nb138  1  0.59663518  0.60435266  0.00459671  1
  Nb  Nb139  1  0.80175231  0.80310033  0.60903068  1
  Nb  Nb140  1  0.80081847  0.40272974  0.19808993  1
  Nb  Nb141  1  0.59479940  0.20112196  0.80280347  1
  Nb  Nb142  1  0.60363885  0.18559126  0.40021893  1
  Nb  Nb143  1  0.80387033  -0.00246564  0.59854584  1
  Nb  Nb144  1  0.60669001  0.80799928  0.79873973  1
  Nb  Nb145  1  0.19621261  0.80508082  0.20320486  1
  Nb  Nb146  1  0.59850958  0.19921899  -0.00867661  1
  Nb  Nb147  1  0.60250193  0.00013872  0.20852936  1
  Nb  Nb148  1  0.39785000  0.39597555  0.80168077  1
  Nb  Nb149  1  0.20016438  0.39869614  0.19755747  1
  Pd  Pd150  1  0.60222077  0.00276625  0.80207551  1
  Pd  Pd151  1  0.19611194  0.19720007  0.20516476  1
  Pd  Pd152  1  0.19032256  0.79523125  0.00715132  1
  Pd  Pd153  1  0.80585751  0.60834008  0.60782828  1
  Pd  Pd154  1  0.79556790  -0.00859359  0.19566900  1
  Pd  Pd155  1  0.19682482  0.40587198  0.39496558  1
  Pd  Pd156  1  0.79696857  0.60017337  0.79515189  1
  Pd  Pd157  1  -0.00599268  -0.00894444  0.80996757  1
  Pd  Pd158  1  -0.00531183  0.80192565  0.39712056  1
  Pd  Pd159  1  0.00431584  0.81286216  0.80692131  1
  Pd  Pd160  1  0.59351770  -0.00134780  0.40384488  1
  Pd  Pd161  1  0.00597733  0.39507060  0.58928645  1
  Pd  Pd162  1  0.60456627  0.40241310  0.60654812  1
  Pd  Pd163  1  0.40521073  0.80257060  0.00289555  1
  Pd  Pd164  1  0.81351318  -0.00808182  0.40550135  1
  Pd  Pd165  1  0.19811057  0.18822182  -0.00354823  1
  Pd  Pd166  1  0.79453612  0.39396460  0.38897163  1
  Pd  Pd167  1  0.59353424  0.19299136  0.59226475  1
  Pd  Pd168  1  0.79426696  0.40734370  0.80215532  1
  Pd  Pd169  1  0.19688035  0.40404653  0.59880565  1
  Pd  Pd170  1  0.39889304  0.18900458  0.19785660  1
  Pd  Pd171  1  0.20300101  0.61007488  -0.00272701  1
  Pd  Pd172  1  0.40483724  0.60758568  0.00501965  1
  Pd  Pd173  1  0.19246558  0.40206357  0.00475513  1
  Pd  Pd174  1  0.60215537  0.79900449  0.59908723  1
  Pd  Pd175  1  0.00659920  0.40024482  0.40534786  1
  Pd  Pd176  1  0.39431395  0.79848617  0.60662754  1
  Pd  Pd177  1  0.40729368  0.19500225  0.40375284  1
  Pd  Pd178  1  0.20532051  0.00822995  0.79995416  1
  Pd  Pd179  1  0.21087396  0.60423500  0.20577790  1
  Pd  Pd180  1  0.60659259  0.00931171  0.01156002  1
  Pd  Pd181  1  0.18920699  0.79833766  0.79258631  1
  Pd  Pd182  1  0.79616623  0.60173844  0.38982835  1
  Pd  Pd183  1  0.39290829  0.40677970  0.20401351  1
  Pd  Pd184  1  0.60431619  0.60781061  0.80643145  1
  Pd  Pd185  1  0.79652139  0.20331683  -0.00254158  1
  Pd  Pd186  1  0.40066103  0.20613843  0.79922045  1
  Pd  Pd187  1  0.39793264  -0.00861691  0.80344851  1
  Pd  Pd188  1  0.79779581  0.60255969  0.00460331  1
  Pd  Pd189  1  0.41186936  0.60410639  0.39164727  1
  Pd  Pd190  1  -0.00840172  0.00302742  0.39015817  1
  Pd  Pd191  1  0.80641906  0.59699251  0.20801974  1
  Pd  Pd192  1  0.19628154  0.59915409  0.39574660  1
  Pd  Pd193  1  0.00192335  0.19619641  0.79671749  1
  Pd  Pd194  1  0.41211015  0.80872764  0.79858054  1
  Pd  Pd195  1  0.79846118  0.80948806  0.19610020  1
  Pd  Pd196  1  0.19712263  0.60667791  0.60019715  1
  Pd  Pd197  1  -0.00052280  0.60256516  0.39556233  1
  Pd  Pd198  1  0.19034961  0.19157257  0.60113204  1
  Pd  Pd199  1  0.40252099  0.39535764  0.00170985  1
  Rh  Rh200  1  0.40606015  0.20076397  0.01032126  1
  Rh  Rh201  1  0.20119948  0.00292052  0.00022209  1
  Rh  Rh202  1  0.80103734  0.80031568  0.40398279  1
  Rh  Rh203  1  0.19409963  0.80017476  0.39899106  1
  Rh  Rh204  1  0.00068932  -0.00749813  -0.00566059  1
  Rh  Rh205  1  0.80181236  -0.00186281  0.79549083  1
  Rh  Rh206  1  0.38712085  -0.00603756  0.59918079  1
  Rh  Rh207  1  0.39742492  0.60114049  0.59731565  1
  Rh  Rh208  1  0.00232483  0.18860914  0.20431837  1
  Rh  Rh209  1  0.39613999  0.59641727  0.80158042  1
  Rh  Rh210  1  0.19949182  -0.00100282  0.40031650  1
  Rh  Rh211  1  0.80649391  0.80005927  0.00105579  1
  Rh  Rh212  1  0.39770043  0.40066414  0.59821229  1
  Rh  Rh213  1  0.60596341  0.78980876  -0.00984167  1
  Rh  Rh214  1  0.60114706  0.60141916  0.59077240  1
  Rh  Rh215  1  -0.00270883  0.59766450  0.79335494  1
  Rh  Rh216  1  0.79895655  0.20956711  0.20840599  1
  Rh  Rh217  1  0.59761381  0.19171387  0.20180379  1
  Rh  Rh218  1  -0.00387745  0.19925722  0.00084469  1
  Rh  Rh219  1  -0.00308623  0.00480496  0.20471901  1
  Rh  Rh220  1  0.39574707  0.00250790  0.39510471  1
  Rh  Rh221  1  0.00563185  0.79927205  0.19248000  1
  Rh  Rh222  1  0.40778134  0.79155274  0.40146554  1
  Rh  Rh223  1  0.20081140  0.59619780  0.79887122  1
  Rh  Rh224  1  0.60709633  0.00351778  0.59116127  1
  Rh  Rh225  1  0.60511117  0.39774425  0.39667288  1
  Rh  Rh226  1  0.79636027  0.80306323  0.79589781  1
  Rh  Rh227  1  0.00438505  0.40673155  0.80796717  1
  Rh  Rh228  1  0.20667291  -0.00584214  0.20437007  1
  Rh  Rh229  1  0.79493894  0.19275289  0.79940913  1
  Rh  Rh230  1  0.79349792  0.40514687  0.60207398  1
  Rh  Rh231  1  -0.00351339  0.78950149  0.60029325  1
  Rh  Rh232  1  0.61353414  0.81267714  0.20653900  1
  Rh  Rh233  1  0.81014509  0.18971645  0.60826709  1
  Rh  Rh234  1  0.60293118  0.39423717  0.20541175  1
  Rh  Rh235  1  -0.00420409  0.60984134  0.20728430  1
  Rh  Rh236  1  -0.00220354  0.19817663  0.40385852  1
  Rh  Rh237  1  0.79521020  0.20777745  0.39200823  1
  Rh  Rh238  1  0.79630930  -0.00053014  0.00395227  1
  Rh  Rh239  1  -0.00503581  0.01200195  0.59503393  1
  Rh  Rh240  1  0.00378749  0.39790864  0.19411845  1
  Rh  Rh241  1  0.39533530  0.39804426  0.40088121  1
  Rh  Rh242  1  0.59684991  0.59854022  0.20226988  1
  Rh  Rh243  1  0.39977648  0.20340709  0.58971838  1
  Rh  Rh244  1  0.60809529  0.39523756  -0.00656829  1
  Rh  Rh245  1  0.19953603  0.19756202  0.39615230  1
  Rh  Rh246  1  0.40340918  -0.01118420  0.01125974  1
  Rh  Rh247  1  -0.00931502  0.60576822  0.60185565  1
  Rh  Rh248  1  -0.00325723  0.60579099  -0.00085988  1
  Rh  Rh249  1  0.38997999  0.80124742  0.20274783  1
