# generated using pymatgen
data_ZrScNbPdRh
_symmetry_space_group_name_H-M   'P 1'
_cell_length_a   16.55723666
_cell_length_b   16.55471751
_cell_length_c   16.55328665
_cell_angle_alpha   89.99967546
_cell_angle_beta   90.01868528
_cell_angle_gamma   90.00969562
_symmetry_Int_Tables_number   1
_chemical_formula_structural   ZrScNbPdRh
_chemical_formula_sum   'Zr50 Sc50 Nb50 Pd50 Rh50'
_cell_volume   4537.26178065
_cell_formula_units_Z   50
loop_
 _symmetry_equiv_pos_site_id
 _symmetry_equiv_pos_as_xyz
  1  'x, y, z'
loop_
 _atom_site_type_symbol
 _atom_site_label
 _atom_site_symmetry_multiplicity
 _atom_site_fract_x
 _atom_site_fract_y
 _atom_site_fract_z
 _atom_site_occupancy
  Zr  Zr0  1  0.29365986  0.69856702  0.29597532  1
  Zr  Zr1  1  0.29528037  0.30363263  0.09079479  1
  Zr  Zr2  1  0.09989441  0.70001479  0.30192983  1
  Zr  Zr3  1  0.90000125  0.89683151  0.49619803  1
  Zr  Zr4  1  0.29491861  0.70840021  0.91371785  1
  Zr  Zr5  1  0.70172845  0.09698588  0.90642700  1
  Zr  Zr6  1  0.71043829  0.50261508  0.50212410  1
  Zr  Zr7  1  0.50826276  0.30174006  0.69548293  1
  Zr  Zr8  1  0.50816047  0.30211604  0.49698362  1
  Zr  Zr9  1  0.29925076  0.70361959  0.49771399  1
  Zr  Zr10  1  0.10104783  0.49187516  0.10639807  1
  Zr  Zr11  1  0.10021409  0.29721516  0.50070530  1
  Zr  Zr12  1  0.09590591  0.09442157  0.31189078  1
  Zr  Zr13  1  0.70150329  0.29488493  0.89864476  1
  Zr  Zr14  1  0.89896767  0.89844330  0.29873554  1
  Zr  Zr15  1  0.50444419  0.09737663  0.90222614  1
  Zr  Zr16  1  0.30591884  0.90680469  0.69458615  1
  Zr  Zr17  1  0.30578147  0.11246102  0.90337473  1
  Zr  Zr18  1  0.49581120  0.09417880  0.70113213  1
  Zr  Zr19  1  0.69793375  0.49296853  0.89085771  1
  Zr  Zr20  1  0.10266922  0.30160463  0.69958540  1
  Zr  Zr21  1  0.90934033  0.29108379  0.10457674  1
  Zr  Zr22  1  0.30230854  0.31010409  0.30267526  1
  Zr  Zr23  1  0.90091115  0.70765827  0.69930929  1
  Zr  Zr24  1  0.09831425  0.08715218  0.89974890  1
  Zr  Zr25  1  0.69633895  0.71334074  0.90431795  1
  Zr  Zr26  1  0.89696170  0.69248458  0.49774593  1
  Zr  Zr27  1  0.70041874  0.30702277  0.69743319  1
  Zr  Zr28  1  0.69775108  0.09916075  0.10371031  1
  Zr  Zr29  1  0.09808893  0.90338468  0.49555201  1
  Zr  Zr30  1  0.10072758  0.30253527  0.90460062  1
  Zr  Zr31  1  0.29914731  0.31077951  0.49879578  1
  Zr  Zr32  1  0.09205047  0.10790842  0.09578258  1
  Zr  Zr33  1  0.89952351  0.90805596  0.90443965  1
  Zr  Zr34  1  0.30182570  0.50869094  0.10229397  1
  Zr  Zr35  1  0.88981394  0.50135755  0.69625049  1
  Zr  Zr36  1  0.90537379  0.09665741  0.69627672  1
  Zr  Zr37  1  0.10467234  0.69824181  0.49796950  1
  Zr  Zr38  1  0.69503904  0.88911428  0.70242147  1
  Zr  Zr39  1  0.70391618  0.29300973  0.10503559  1
  Zr  Zr40  1  0.89488462  0.90393943  0.10313453  1
  Zr  Zr41  1  0.09323765  0.30559178  0.29796282  1
  Zr  Zr42  1  0.50259862  0.69770309  0.10026581  1
  Zr  Zr43  1  0.09109174  0.10345232  0.69485072  1
  Zr  Zr44  1  0.49047140  0.30218192  0.90139454  1
  Zr  Zr45  1  0.50927265  0.09326503  0.29404210  1
  Zr  Zr46  1  0.29837582  0.29924953  0.90081985  1
  Zr  Zr47  1  0.90896668  0.69720849  0.90094755  1
  Zr  Zr48  1  0.69941511  0.09887106  0.30539811  1
  Zr  Zr49  1  0.69190592  0.70406244  0.29174410  1
  Sc  Sc50  1  0.69473151  0.90343236  0.90387793  1
  Sc  Sc51  1  0.50449588  0.30520023  0.09818691  1
  Sc  Sc52  1  0.30317888  0.89337902  0.50305029  1
  Sc  Sc53  1  0.11124788  0.69213195  0.09771181  1
  Sc  Sc54  1  0.89424299  0.29983762  0.30258396  1
  Sc  Sc55  1  0.29911795  0.89843746  0.30011642  1
  Sc  Sc56  1  0.49035401  0.70557400  0.89723390  1
  Sc  Sc57  1  0.50302122  0.89936404  0.10407375  1
  Sc  Sc58  1  0.70353437  0.49344102  0.30050810  1
  Sc  Sc59  1  0.69209928  0.50138084  0.69684702  1
  Sc  Sc60  1  0.89354374  0.09585708  0.30372195  1
  Sc  Sc61  1  0.51502524  0.49972268  0.49476976  1
  Sc  Sc62  1  0.90504754  0.09777495  0.49624133  1
  Sc  Sc63  1  0.69593032  0.30179980  0.49444830  1
  Sc  Sc64  1  0.70546868  0.90378197  0.29630639  1
  Sc  Sc65  1  0.29280889  0.30066065  0.70710149  1
  Sc  Sc66  1  0.09787391  0.50294489  0.30054639  1
  Sc  Sc67  1  0.29556913  0.89692521  0.89999247  1
  Sc  Sc68  1  0.30181300  0.10355230  0.70591048  1
  Sc  Sc69  1  0.91101374  0.50238104  0.09745475  1
  Sc  Sc70  1  0.50926589  0.70498115  0.70360579  1
  Sc  Sc71  1  0.50198938  0.49289233  0.29132214  1
  Sc  Sc72  1  0.89949447  0.29578230  0.48960235  1
  Sc  Sc73  1  0.89832210  0.70938913  0.09933311  1
  Sc  Sc74  1  0.69917644  0.08970801  0.70438158  1
  Sc  Sc75  1  0.89549352  0.10112712  0.90102139  1
  Sc  Sc76  1  0.29378401  0.49758897  0.70266873  1
  Sc  Sc77  1  0.90459788  0.49899525  0.89946006  1
  Sc  Sc78  1  0.30638589  0.49968734  0.89739454  1
  Sc  Sc79  1  0.50911481  0.89762373  0.29981980  1
  Sc  Sc80  1  0.90032452  0.50238040  0.30299698  1
  Sc  Sc81  1  0.90445530  0.69934276  0.30430067  1
  Sc  Sc82  1  0.09115422  0.50318517  0.90433235  1
  Sc  Sc83  1  0.90199088  0.29534952  0.70691237  1
  Sc  Sc84  1  0.89413975  0.50425761  0.49198487  1
  Sc  Sc85  1  0.51528809  0.10494403  0.49641731  1
  Sc  Sc86  1  0.09605812  0.89515782  0.30420282  1
  Sc  Sc87  1  0.30123382  0.89672505  0.09751909  1
  Sc  Sc88  1  0.70351764  0.89920955  0.49422692  1
  Sc  Sc89  1  0.29191723  0.49935323  0.49697980  1
  Sc  Sc90  1  0.30201550  0.10196582  0.09626033  1
  Sc  Sc91  1  0.30069525  0.49581815  0.29908549  1
  Sc  Sc92  1  0.30145029  0.70786790  0.69827204  1
  Sc  Sc93  1  0.90083531  0.90068688  0.69361481  1
  Sc  Sc94  1  0.69018101  0.48701720  0.10757526  1
  Sc  Sc95  1  0.30683262  0.09108483  0.29688486  1
  Sc  Sc96  1  0.49721129  0.89593960  0.70680233  1
  Sc  Sc97  1  0.09769883  0.90771174  0.09575751  1
  Sc  Sc98  1  0.30203004  0.09180323  0.50691825  1
  Sc  Sc99  1  0.69418031  0.69578141  0.50209901  1
  Nb  Nb100  1  0.09616198  0.90151704  0.70892808  1
  Nb  Nb101  1  0.10229339  0.30052222  0.10491176  1
  Nb  Nb102  1  0.49767420  0.09730747  0.10698364  1
  Nb  Nb103  1  0.70094189  0.70179132  0.70387196  1
  Nb  Nb104  1  0.89044012  0.30121664  0.90016820  1
  Nb  Nb105  1  0.10109861  0.49965688  0.70000896  1
  Nb  Nb106  1  0.70846329  0.87809099  0.09831004  1
  Nb  Nb107  1  0.49832573  0.89777323  0.90206083  1
  Nb  Nb108  1  0.30330188  0.70064884  0.10016486  1
  Nb  Nb109  1  0.50109202  0.70121499  0.30149809  1
  Nb  Nb110  1  0.09853766  0.70747627  0.89536457  1
  Nb  Nb111  1  0.50139205  0.49843012  0.89391423  1
  Nb  Nb112  1  0.49662855  0.50321793  0.70724078  1
  Nb  Nb113  1  0.69926042  0.70303698  0.09671035  1
  Nb  Nb114  1  0.09623305  0.10198044  0.50277385  1
  Nb  Nb115  1  0.10069070  0.89627367  0.89676155  1
  Nb  Nb116  1  0.69835936  0.29786193  0.29317724  1
  Nb  Nb117  1  0.50016515  0.70490946  0.49434633  1
  Nb  Nb118  1  0.49863488  0.29849693  0.30351728  1
  Nb  Nb119  1  0.89653897  0.09303130  0.09459455  1
  Nb  Nb120  1  0.69908369  0.10285691  0.49775220  1
  Nb  Nb121  1  0.10333953  0.49841429  0.50801744  1
  Nb  Nb122  1  0.49900236  0.49945682  0.09034512  1
  Nb  Nb123  1  0.50058157  0.89825036  0.50598525  1
  Nb  Nb124  1  0.09440279  0.70488886  0.70693368  1
  Nb  Nb125  1  0.79530698  0.60728333  0.80181067  1
  Nb  Nb126  1  0.79369476  0.60392086  0.19081098  1
  Nb  Nb127  1  0.19016431  0.60824153  0.79936003  1
  Nb  Nb128  1  0.20329222  0.19698919  0.39849278  1
  Nb  Nb129  1  0.59908169  0.19889499  0.80239063  1
  Nb  Nb130  1  0.40607721  0.40573205  0.60092054  1
  Nb  Nb131  1  0.40659000  0.00151329  0.00000094  1
  Nb  Nb132  1  0.40400173  0.20659996  0.59428825  1
  Nb  Nb133  1  0.41096018  -0.00042031  0.40410511  1
  Nb  Nb134  1  0.40091312  0.19805120  0.39826519  1
  Nb  Nb135  1  0.00325687  0.40577102  0.59977203  1
  Nb  Nb136  1  0.40051522  0.78998294  0.19982864  1
  Nb  Nb137  1  0.00844808  0.59817395  0.60406316  1
  Nb  Nb138  1  0.59874764  0.59509421  -0.00161502  1
  Nb  Nb139  1  0.00669279  0.80222946  -0.00618478  1
  Nb  Nb140  1  0.40698005  0.60704719  0.40205453  1
  Nb  Nb141  1  0.80181250  0.39593218  0.00000775  1
  Nb  Nb142  1  0.40182935  0.20252445  0.20279284  1
  Nb  Nb143  1  0.59906420  -0.00535443  0.59706680  1
  Nb  Nb144  1  0.40689957  0.59827454  0.59676782  1
  Nb  Nb145  1  0.20011442  0.20092881  0.20322349  1
  Nb  Nb146  1  0.79073394  0.59656847  0.00121710  1
  Nb  Nb147  1  0.18907371  -0.00030494  0.60358171  1
  Nb  Nb148  1  0.19631160  0.00771936  0.20024609  1
  Nb  Nb149  1  0.79487821  0.19433899  0.59692855  1
  Pd  Pd150  1  0.79400781  0.19505241  0.79047068  1
  Pd  Pd151  1  0.60193121  0.60766701  0.80673127  1
  Pd  Pd152  1  0.80972286  0.40783821  0.19390784  1
  Pd  Pd153  1  0.60210666  0.59414685  0.19681217  1
  Pd  Pd154  1  0.60728014  0.40045704  0.39273729  1
  Pd  Pd155  1  -0.00423591  0.20030706  -0.00978429  1
  Pd  Pd156  1  0.00716352  0.79675151  0.18943247  1
  Pd  Pd157  1  0.40380158  0.60096963  0.20799233  1
  Pd  Pd158  1  0.20637340  0.79929438  0.79517987  1
  Pd  Pd159  1  0.40531916  0.59814918  -0.00738859  1
  Pd  Pd160  1  -0.00261893  0.19235024  0.21026992  1
  Pd  Pd161  1  -0.00182215  0.59499015  0.79376771  1
  Pd  Pd162  1  0.79510342  0.79301686  0.39621602  1
  Pd  Pd163  1  0.60074724  -0.00919723  0.01026315  1
  Pd  Pd164  1  0.20364033  0.00384027  0.79459253  1
  Pd  Pd165  1  0.59534683  0.60130203  0.60243471  1
  Pd  Pd166  1  0.60044545  0.59688253  0.39314754  1
  Pd  Pd167  1  0.40039361  0.80426729  0.39127317  1
  Pd  Pd168  1  0.00183156  0.19994154  0.80956112  1
  Pd  Pd169  1  0.19127067  0.19549679  0.80434622  1
  Pd  Pd170  1  0.39587793  -0.00474416  0.81177416  1
  Pd  Pd171  1  0.20407897  0.60293695  0.61029717  1
  Pd  Pd172  1  0.80624473  0.19127803  0.20339550  1
  Pd  Pd173  1  0.40882185  0.79233156  0.60537784  1
  Pd  Pd174  1  0.61133040  -0.01231255  0.19162507  1
  Pd  Pd175  1  0.20957017  0.19379995  0.59545556  1
  Pd  Pd176  1  0.21055955  0.00037961  0.40320784  1
  Pd  Pd177  1  0.40285856  0.39662812  0.19031886  1
  Pd  Pd178  1  -0.00624451  0.60613887  0.19623629  1
  Pd  Pd179  1  0.20775010  -0.00019722  0.00425229  1
  Pd  Pd180  1  0.19599637  0.59445393  -0.00714433  1
  Pd  Pd181  1  -0.00121242  0.40701619  0.40531112  1
  Pd  Pd182  1  0.80552594  0.80311774  0.80655502  1
  Pd  Pd183  1  0.38939837  0.60818990  0.79529548  1
  Pd  Pd184  1  0.60573509  0.80440190  0.40179782  1
  Pd  Pd185  1  0.39677650  0.39688908  0.79316754  1
  Pd  Pd186  1  0.60373461  0.39982523  -0.00311201  1
  Pd  Pd187  1  -0.00567777  0.39342536  0.00137172  1
  Pd  Pd188  1  0.79274894  0.79554989  0.59284539  1
  Pd  Pd189  1  0.19902057  0.80888580  0.19419779  1
  Pd  Pd190  1  0.79366173  0.00310000  0.59407127  1
  Pd  Pd191  1  0.19255278  0.80885661  0.60530853  1
  Pd  Pd192  1  0.00590884  0.79741712  0.59538582  1
  Pd  Pd193  1  0.20367598  0.59325613  0.39440018  1
  Pd  Pd194  1  0.80002790  -0.00465324  0.79805670  1
  Pd  Pd195  1  0.00258489  0.00285395  0.20314538  1
  Pd  Pd196  1  0.59398927  0.20171115  0.00046822  1
  Pd  Pd197  1  -0.00248532  0.39997389  0.79597133  1
  Pd  Pd198  1  0.80988189  0.38714705  0.59228879  1
  Pd  Pd199  1  0.20137392  0.41117652  -0.00556262  1
  Rh  Rh200  1  0.80028067  0.60917778  0.60886947  1
  Rh  Rh201  1  0.19246214  0.80245767  0.00651052  1
  Rh  Rh202  1  0.19493795  0.40991649  0.80847657  1
  Rh  Rh203  1  0.39803266  0.40701024  0.00065789  1
  Rh  Rh204  1  -0.01277344  0.21068232  0.59415970  1
  Rh  Rh205  1  0.40744570  0.20810360  0.78828567  1
  Rh  Rh206  1  -0.00578284  0.81251642  0.80494620  1
  Rh  Rh207  1  0.60360285  0.20466346  0.38839707  1
  Rh  Rh208  1  0.00422232  -0.00638147  0.59788377  1
  Rh  Rh209  1  0.80528857  0.40610904  0.80339050  1
  Rh  Rh210  1  -0.00128994  -0.00314532  -0.00097588  1
  Rh  Rh211  1  0.39582940  0.80097322  0.80102042  1
  Rh  Rh212  1  0.80735364  0.20138127  0.00686893  1
  Rh  Rh213  1  0.20083005  0.39919991  0.60537235  1
  Rh  Rh214  1  0.79223313  0.20020870  0.40358763  1
  Rh  Rh215  1  0.18925203  0.40085029  0.39581633  1
  Rh  Rh216  1  0.00543601  0.59695088  0.40898503  1
  Rh  Rh217  1  0.79582161  0.39648053  0.39764496  1
  Rh  Rh218  1  0.20089585  0.39955751  0.20131164  1
  Rh  Rh219  1  0.79031395  0.60315563  0.38491317  1
  Rh  Rh220  1  -0.00821684  -0.00201907  0.40140559  1
  Rh  Rh221  1  0.39380820  -0.00480366  0.19623697  1
  Rh  Rh222  1  0.19983228  0.80249992  0.39965613  1
  Rh  Rh223  1  0.40753583  0.00632215  0.59128107  1
  Rh  Rh224  1  0.59875358  -0.00298871  0.79575293  1
  Rh  Rh225  1  -0.00433497  -0.00197475  0.80003492  1
  Rh  Rh226  1  0.40820318  0.40914825  0.40924442  1
  Rh  Rh227  1  0.59594489  0.80340299  0.19776741  1
  Rh  Rh228  1  0.79063727  -0.00176266  0.00794366  1
  Rh  Rh229  1  0.40810636  0.19487832  0.01227768  1
  Rh  Rh230  1  -0.00037495  0.79630712  0.40318061  1
  Rh  Rh231  1  0.59330388  0.20659707  0.20324494  1
  Rh  Rh232  1  0.59685847  0.41456032  0.60272240  1
  Rh  Rh233  1  0.81018053  0.79802145  -0.00654699  1
  Rh  Rh234  1  0.60556998  0.18564337  0.61260872  1
  Rh  Rh235  1  0.60096492  0.80246886  0.59747740  1
  Rh  Rh236  1  0.80174315  -0.00010999  0.40349381  1
  Rh  Rh237  1  0.59046675  0.79935781  -0.00061922  1
  Rh  Rh238  1  0.59604987  0.39397639  0.79998413  1
  Rh  Rh239  1  0.59902728  -0.00903237  0.40892440  1
  Rh  Rh240  1  0.19997904  0.59524959  0.20127766  1
  Rh  Rh241  1  0.79537453  0.00065038  0.19519976  1
  Rh  Rh242  1  0.00249755  0.61021604  0.00665537  1
  Rh  Rh243  1  -0.00549273  0.40131749  0.20262378  1
  Rh  Rh244  1  0.00350756  0.19794569  0.39858725  1
  Rh  Rh245  1  0.59495726  0.39377198  0.20200509  1
  Rh  Rh246  1  0.59508954  0.80284142  0.80598671  1
  Rh  Rh247  1  0.40407671  0.80799125  0.00736207  1
  Rh  Rh248  1  0.19265870  0.19984507  0.00105930  1
  Rh  Rh249  1  0.80345242  0.79243739  0.20737430  1
