# generated using pymatgen
data_ZrScNbPdRh
_symmetry_space_group_name_H-M   'P 1'
_cell_length_a   16.55348610
_cell_length_b   16.55355206
_cell_length_c   16.55327779
_cell_angle_alpha   89.99892839
_cell_angle_beta   89.96533360
_cell_angle_gamma   89.95878961
_symmetry_Int_Tables_number   1
_chemical_formula_structural   ZrScNbPdRh
_chemical_formula_sum   'Zr50 Sc50 Nb50 Pd50 Rh50'
_cell_volume   4535.91052048
_cell_formula_units_Z   50
loop_
 _symmetry_equiv_pos_site_id
 _symmetry_equiv_pos_as_xyz
  1  'x, y, z'
loop_
 _atom_site_type_symbol
 _atom_site_label
 _atom_site_symmetry_multiplicity
 _atom_site_fract_x
 _atom_site_fract_y
 _atom_site_fract_z
 _atom_site_occupancy
  Zr  Zr0  1  0.49820690  0.69500372  0.48865236  1
  Zr  Zr1  1  0.90167967  0.69204798  0.69808185  1
  Zr  Zr2  1  0.69770604  0.50531183  0.10367527  1
  Zr  Zr3  1  0.70286446  0.89792034  0.49518998  1
  Zr  Zr4  1  0.11212869  0.10563500  0.70437008  1
  Zr  Zr5  1  0.29656795  0.89733037  0.29937792  1
  Zr  Zr6  1  0.89383559  0.09891409  0.90201282  1
  Zr  Zr7  1  0.69597864  0.49706646  0.49236112  1
  Zr  Zr8  1  0.30302580  0.89894511  0.91460957  1
  Zr  Zr9  1  0.10270228  0.09827895  0.10286537  1
  Zr  Zr10  1  0.50460765  0.09674785  0.29227401  1
  Zr  Zr11  1  0.10658728  0.69972750  0.89523107  1
  Zr  Zr12  1  0.68420979  0.69303044  0.28981805  1
  Zr  Zr13  1  0.10550009  0.90488623  0.90329648  1
  Zr  Zr14  1  0.70312287  0.49707029  0.30372242  1
  Zr  Zr15  1  0.89934978  0.89545614  0.69894719  1
  Zr  Zr16  1  0.68989733  0.49481071  0.89714932  1
  Zr  Zr17  1  0.90700482  0.70393910  0.29821643  1
  Zr  Zr18  1  0.10390273  0.30567900  0.90355383  1
  Zr  Zr19  1  0.90517931  0.30628268  0.30335249  1
  Zr  Zr20  1  0.51415137  0.69646847  0.10547209  1
  Zr  Zr21  1  0.10144021  0.70628161  0.29556958  1
  Zr  Zr22  1  0.49408065  0.91405213  0.09536005  1
  Zr  Zr23  1  0.49677259  0.69424421  0.69999954  1
  Zr  Zr24  1  0.30492582  0.30280027  0.50177398  1
  Zr  Zr25  1  0.10480117  0.89675832  0.10713905  1
  Zr  Zr26  1  0.89646312  0.29324552  0.69638997  1
  Zr  Zr27  1  0.09565276  0.09671738  0.50255987  1
  Zr  Zr28  1  0.09903567  0.70254855  0.69737796  1
  Zr  Zr29  1  0.50744889  0.89697086  0.90362879  1
  Zr  Zr30  1  0.69880490  0.49430524  0.70417453  1
  Zr  Zr31  1  0.51252326  0.29249384  0.69139248  1
  Zr  Zr32  1  0.89703947  0.49887712  0.89782726  1
  Zr  Zr33  1  0.30156322  0.50016781  0.69108884  1
  Zr  Zr34  1  0.09917142  0.09369372  0.90193355  1
  Zr  Zr35  1  0.50449175  0.90036320  0.30309913  1
  Zr  Zr36  1  0.69686695  0.10661855  0.10888204  1
  Zr  Zr37  1  0.69166707  0.71098105  0.90760410  1
  Zr  Zr38  1  0.90376933  0.70928138  0.50076409  1
  Zr  Zr39  1  0.50279916  0.50033795  0.70417158  1
  Zr  Zr40  1  0.69450980  0.30298435  0.50208100  1
  Zr  Zr41  1  0.09570260  0.69728506  0.10665028  1
  Zr  Zr42  1  0.90495804  0.69659603  0.89989642  1
  Zr  Zr43  1  0.30128233  0.50102431  0.29169836  1
  Zr  Zr44  1  0.09785335  0.29865461  0.50171515  1
  Zr  Zr45  1  0.30297617  0.10044573  0.69447193  1
  Zr  Zr46  1  0.09221854  0.70026931  0.50102134  1
  Zr  Zr47  1  0.09729969  0.49980482  0.50025242  1
  Zr  Zr48  1  0.29110480  0.09827832  0.89556951  1
  Zr  Zr49  1  0.30960790  0.30628860  0.10314121  1
  Sc  Sc50  1  0.29638099  0.90536175  0.69437191  1
  Sc  Sc51  1  0.50248949  0.30090697  0.91450508  1
  Sc  Sc52  1  0.09467754  0.49291513  0.29794490  1
  Sc  Sc53  1  0.30683355  0.09868557  0.49951857  1
  Sc  Sc54  1  0.28989395  0.69118433  0.69985495  1
  Sc  Sc55  1  0.69508004  0.70125737  0.70082989  1
  Sc  Sc56  1  0.30137935  0.90601747  0.49582493  1
  Sc  Sc57  1  0.89396368  0.90453117  0.09710466  1
  Sc  Sc58  1  0.50251806  0.90524701  0.49732237  1
  Sc  Sc59  1  0.11109149  0.50590534  0.69859679  1
  Sc  Sc60  1  0.10607913  0.10126467  0.30318546  1
  Sc  Sc61  1  0.50560439  0.69562593  0.89555088  1
  Sc  Sc62  1  0.50806140  0.89898247  0.69360730  1
  Sc  Sc63  1  0.89925219  0.29878225  0.10660049  1
  Sc  Sc64  1  0.10248611  0.30248291  0.30297352  1
  Sc  Sc65  1  0.29008730  0.50139858  0.90044273  1
  Sc  Sc66  1  0.91169660  0.49835743  0.09825870  1
  Sc  Sc67  1  0.49775966  0.29757589  0.49694443  1
  Sc  Sc68  1  0.50278682  0.10253254  0.68941527  1
  Sc  Sc69  1  0.69443025  0.90082126  0.09007261  1
  Sc  Sc70  1  0.29970429  0.30012363  0.30289231  1
  Sc  Sc71  1  0.69984097  0.11404206  0.70082980  1
  Sc  Sc72  1  0.49731493  0.50763313  0.30422564  1
  Sc  Sc73  1  0.49392154  0.09955754  0.50009849  1
  Sc  Sc74  1  0.70082938  0.09390107  0.49397157  1
  Sc  Sc75  1  0.10539058  0.50077219  0.10423079  1
  Sc  Sc76  1  0.90277887  0.29146852  0.49584791  1
  Sc  Sc77  1  0.90688369  0.09640309  0.49701202  1
  Sc  Sc78  1  0.89938564  0.09930052  0.70010212  1
  Sc  Sc79  1  0.09515332  0.50422073  0.91188856  1
  Sc  Sc80  1  0.49813441  0.48950156  0.09304981  1
  Sc  Sc81  1  0.30432797  0.69528103  0.29860638  1
  Sc  Sc82  1  0.50040772  0.28922605  0.09728337  1
  Sc  Sc83  1  0.88592816  0.09906117  0.29926359  1
  Sc  Sc84  1  0.71356609  0.30060637  0.30047513  1
  Sc  Sc85  1  0.48934694  0.29107148  0.29350780  1
  Sc  Sc86  1  0.89655768  0.90356375  0.30608962  1
  Sc  Sc87  1  0.89883682  0.49713679  0.30611027  1
  Sc  Sc88  1  0.29942159  0.69365829  0.50133983  1
  Sc  Sc89  1  0.09639753  0.30795602  0.11132488  1
  Sc  Sc90  1  0.70309143  0.69910750  0.49491737  1
  Sc  Sc91  1  0.10140479  0.89986456  0.69779046  1
  Sc  Sc92  1  0.10049045  0.89700785  0.30336026  1
  Sc  Sc93  1  0.50114668  0.10879316  0.91340669  1
  Sc  Sc94  1  0.90122658  0.51389478  0.49758553  1
  Sc  Sc95  1  0.30481767  0.10259166  0.30306788  1
  Sc  Sc96  1  0.49375120  0.49269453  0.49543057  1
  Sc  Sc97  1  0.30361417  0.49732445  0.50011150  1
  Sc  Sc98  1  0.89868610  0.91319719  0.90186382  1
  Sc  Sc99  1  0.30151664  0.30351821  0.90736911  1
  Nb  Nb100  1  0.90128150  0.29997653  0.90460904  1
  Nb  Nb101  1  0.69825735  0.28821294  0.90105596  1
  Nb  Nb102  1  0.90373176  0.90068051  0.49878548  1
  Nb  Nb103  1  0.30707595  0.09427602  0.09745675  1
  Nb  Nb104  1  0.29180241  0.29918944  0.70310213  1
  Nb  Nb105  1  0.69844487  0.90095527  0.70117736  1
  Nb  Nb106  1  0.89503002  0.49826644  0.70260879  1
  Nb  Nb107  1  0.30211777  0.69822153  0.10342248  1
  Nb  Nb108  1  0.30180839  0.70338822  0.90331835  1
  Nb  Nb109  1  0.70151752  0.91639969  0.29769570  1
  Nb  Nb110  1  0.90023776  0.70458376  0.10036657  1
  Nb  Nb111  1  0.70145617  0.10287686  0.89626769  1
  Nb  Nb112  1  0.49538151  0.49798246  0.89705902  1
  Nb  Nb113  1  0.49636361  0.10621932  0.10547972  1
  Nb  Nb114  1  0.30354958  0.50834258  0.10565475  1
  Nb  Nb115  1  0.08328794  0.90152764  0.49633224  1
  Nb  Nb116  1  0.10297779  0.30054163  0.69923782  1
  Nb  Nb117  1  0.70444612  0.69956776  0.10034850  1
  Nb  Nb118  1  0.69485906  0.30362127  0.09592686  1
  Nb  Nb119  1  0.69694071  0.09154728  0.29876819  1
  Nb  Nb120  1  0.49616346  0.70057021  0.29785986  1
  Nb  Nb121  1  0.90273674  0.09665053  0.09956678  1
  Nb  Nb122  1  0.70075318  0.90471837  0.89412453  1
  Nb  Nb123  1  0.30314374  0.89817967  0.10016627  1
  Nb  Nb124  1  0.69631007  0.29992674  0.69806615  1
  Nb  Nb125  1  0.60433560  0.39552993  0.19796032  1
  Nb  Nb126  1  -0.00430836  0.40079472  0.60899548  1
  Nb  Nb127  1  0.80137437  0.39994162  0.60467216  1
  Nb  Nb128  1  0.00026741  0.19816185  -0.00017659  1
  Nb  Nb129  1  0.79450980  0.39664188  -0.00375285  1
  Nb  Nb130  1  0.79260244  0.79724873  0.19752699  1
  Nb  Nb131  1  0.60304209  0.19496061  0.39071221  1
  Nb  Nb132  1  0.00272305  0.20633945  0.80508855  1
  Nb  Nb133  1  0.80008989  -0.00837540  0.59998883  1
  Nb  Nb134  1  0.39788164  0.20387272  0.79653786  1
  Nb  Nb135  1  0.39743296  0.80092641  0.79962335  1
  Nb  Nb136  1  -0.00326819  0.00362049  0.19799220  1
  Nb  Nb137  1  0.39612078  0.60133354  0.00053219  1
  Nb  Nb138  1  0.59708088  0.59482605  0.59719756  1
  Nb  Nb139  1  0.40259707  0.79943078  0.19552605  1
  Nb  Nb140  1  0.60383956  0.00451291  0.80354974  1
  Nb  Nb141  1  0.19782118  0.19850659  0.00749372  1
  Nb  Nb142  1  0.00207063  0.79905755  0.00193691  1
  Nb  Nb143  1  -0.00227416  0.39676330  0.79489237  1
  Nb  Nb144  1  0.79618138  0.80562826  0.80252715  1
  Nb  Nb145  1  0.40671954  0.00020482  0.80225140  1
  Nb  Nb146  1  0.19490004  0.59921396  0.39617714  1
  Nb  Nb147  1  0.79841708  0.60149075  0.00329976  1
  Nb  Nb148  1  0.40100337  0.39592395  0.79743600  1
  Nb  Nb149  1  0.40131478  0.79631308  0.60240366  1
  Pd  Pd150  1  0.58950820  0.38739103  0.38533003  1
  Pd  Pd151  1  0.79997717  0.20200782  0.19992338  1
  Pd  Pd152  1  0.39568570  0.80011781  0.40074130  1
  Pd  Pd153  1  0.39514395  -0.00212025  0.20616028  1
  Pd  Pd154  1  0.19744211  -0.00458101  0.59138781  1
  Pd  Pd155  1  0.19818680  0.00152757  0.40359181  1
  Pd  Pd156  1  0.19443252  0.79341984  0.00752201  1
  Pd  Pd157  1  0.79649234  0.19471141  0.59120538  1
  Pd  Pd158  1  0.80218879  0.20274147  0.79983467  1
  Pd  Pd159  1  0.60587132  0.80087720  0.39673402  1
  Pd  Pd160  1  0.78867756  0.61056695  0.80724231  1
  Pd  Pd161  1  0.60513991  0.01127774  -0.00175446  1
  Pd  Pd162  1  0.79664870  0.80085656  0.60456157  1
  Pd  Pd163  1  0.40435967  0.39364201  0.60683594  1
  Pd  Pd164  1  0.79240273  0.79696884  0.38599000  1
  Pd  Pd165  1  0.80986467  0.60149828  0.19738521  1
  Pd  Pd166  1  0.80645162  0.80036126  -0.00275373  1
  Pd  Pd167  1  0.20307616  0.40560578  0.39849673  1
  Pd  Pd168  1  0.59180279  0.38568323  0.80603324  1
  Pd  Pd169  1  0.79138088  0.59512530  0.59825707  1
  Pd  Pd170  1  0.80078200  0.40220516  0.19190946  1
  Pd  Pd171  1  0.19953718  0.00086485  0.20364465  1
  Pd  Pd172  1  0.79531028  0.19620827  0.40276165  1
  Pd  Pd173  1  0.59607830  0.59631919  -0.00256247  1
  Pd  Pd174  1  0.00892752  0.58899327  0.79583413  1
  Pd  Pd175  1  -0.00582081  0.80739097  0.80813926  1
  Pd  Pd176  1  -0.00258015  0.19460548  0.20299166  1
  Pd  Pd177  1  0.19962750  0.40672109  0.80059852  1
  Pd  Pd178  1  0.20329970  0.19817176  0.40564651  1
  Pd  Pd179  1  0.60069337  0.81285469  0.19458255  1
  Pd  Pd180  1  0.20437569  0.60320014  0.00370175  1
  Pd  Pd181  1  0.39038865  0.59796247  0.80746020  1
  Pd  Pd182  1  -0.00266837  0.59253530  0.20444209  1
  Pd  Pd183  1  0.80012928  0.38795607  0.80181146  1
  Pd  Pd184  1  0.80107493  0.60894341  0.39507271  1
  Pd  Pd185  1  0.20271143  0.39938625  0.01101909  1
  Pd  Pd186  1  0.78952303  0.00575843  0.00589876  1
  Pd  Pd187  1  0.59509322  0.79120235  0.59374248  1
  Pd  Pd188  1  0.00219830  0.00406055  0.79247728  1
  Pd  Pd189  1  0.20810002  0.20429685  0.19714160  1
  Pd  Pd190  1  0.00048380  0.19283152  0.39010131  1
  Pd  Pd191  1  0.20373484  0.20011806  0.59054299  1
  Pd  Pd192  1  0.41075905  0.40244283  0.20223341  1
  Pd  Pd193  1  0.21041808  0.80496829  0.79748579  1
  Pd  Pd194  1  -0.00261232  0.00183794  0.60755699  1
  Pd  Pd195  1  0.20081099  0.79428796  0.40725356  1
  Pd  Pd196  1  0.41062068  0.78774842  0.00249743  1
  Pd  Pd197  1  0.80299411  0.20329074  0.00722448  1
  Pd  Pd198  1  0.20396153  0.80414123  0.59070006  1
  Pd  Pd199  1  0.60837226  0.00738936  0.60266664  1
  Rh  Rh200  1  0.00249435  0.80254245  0.60141432  1
  Rh  Rh201  1  0.20120187  0.20765015  0.80841022  1
  Rh  Rh202  1  0.59620459  0.80224727  0.00679577  1
  Rh  Rh203  1  -0.00094984  0.00140531  0.39028064  1
  Rh  Rh204  1  0.40836366  0.60482082  0.19195963  1
  Rh  Rh205  1  0.38885919  0.19388192  -0.00221583  1
  Rh  Rh206  1  -0.00632874  0.39464846  -0.00127099  1
  Rh  Rh207  1  0.21366551  0.79670430  0.19772583  1
  Rh  Rh208  1  0.00561178  0.60298908  0.39305248  1
  Rh  Rh209  1  0.79130511  -0.00111348  0.79017941  1
  Rh  Rh210  1  0.40586376  0.60467538  0.59351554  1
  Rh  Rh211  1  0.80090207  -0.00531846  0.19528998  1
  Rh  Rh212  1  0.00260628  -0.00332817  0.01017751  1
  Rh  Rh213  1  0.00026269  0.59355009  0.60681383  1
  Rh  Rh214  1  0.19683720  0.60041951  0.58908750  1
  Rh  Rh215  1  -0.00162424  0.40134645  0.20312256  1
  Rh  Rh216  1  0.39306967  0.41354098  -0.00760729  1
  Rh  Rh217  1  0.19702858  0.60142101  0.20624784  1
  Rh  Rh218  1  0.20020274  0.59841721  0.80338835  1
  Rh  Rh219  1  0.60446608  0.60201927  0.79790766  1
  Rh  Rh220  1  -0.00389995  0.39957212  0.40990800  1
  Rh  Rh221  1  0.59349532  0.19757303  0.80644979  1
  Rh  Rh222  1  0.20456891  0.00270340  0.00928602  1
  Rh  Rh223  1  0.39090191  0.59663248  0.39862177  1
  Rh  Rh224  1  -0.01467183  0.81530651  0.19432160  1
  Rh  Rh225  1  0.39312820  0.19578358  0.19737898  1
  Rh  Rh226  1  0.39946482  0.39886876  0.39379903  1
  Rh  Rh227  1  0.59958236  0.80696827  0.79763589  1
  Rh  Rh228  1  0.00687659  0.20036315  0.60792236  1
  Rh  Rh229  1  0.40362924  -0.01057927  0.60412630  1
  Rh  Rh230  1  0.40230208  0.00011417  0.39660469  1
  Rh  Rh231  1  -0.00287960  0.60748097  0.00499371  1
  Rh  Rh232  1  0.60572080  0.20845120  0.20610419  1
  Rh  Rh233  1  0.80460018  -0.00005633  0.40860465  1
  Rh  Rh234  1  0.60551526  0.19370311  0.58392507  1
  Rh  Rh235  1  0.59730634  0.59862704  0.40094386  1
  Rh  Rh236  1  0.59686638  0.00600541  0.40150451  1
  Rh  Rh237  1  0.60279658  0.39768045  0.00130671  1
  Rh  Rh238  1  0.60586634  0.19507250  0.00375105  1
  Rh  Rh239  1  0.20751697  -0.01111309  0.79933210  1
  Rh  Rh240  1  0.39519811  0.20636317  0.60381649  1
  Rh  Rh241  1  -0.00064066  0.80469784  0.39705380  1
  Rh  Rh242  1  0.59164560  0.58612782  0.20251253  1
  Rh  Rh243  1  0.60140596  -0.00272041  0.19215522  1
  Rh  Rh244  1  0.40599667  0.19847964  0.40024451  1
  Rh  Rh245  1  0.81075260  0.40004328  0.41373798  1
  Rh  Rh246  1  0.19554589  0.39804708  0.59711581  1
  Rh  Rh247  1  0.20330253  0.40082172  0.19859555  1
  Rh  Rh248  1  0.39972951  0.00885156  -0.00528529  1
  Rh  Rh249  1  0.60366156  0.40671135  0.59766610  1
