# generated using pymatgen
data_ZrScNbPdRh
_symmetry_space_group_name_H-M   'P 1'
_cell_length_a   16.55763547
_cell_length_b   16.55686262
_cell_length_c   16.56247097
_cell_angle_alpha   90.00290680
_cell_angle_beta   90.00851811
_cell_angle_gamma   90.02084236
_symmetry_Int_Tables_number   1
_chemical_formula_structural   ZrScNbPdRh
_chemical_formula_sum   'Zr50 Sc50 Nb50 Pd50 Rh50'
_cell_volume   4540.47677219
_cell_formula_units_Z   50
loop_
 _symmetry_equiv_pos_site_id
 _symmetry_equiv_pos_as_xyz
  1  'x, y, z'
loop_
 _atom_site_type_symbol
 _atom_site_label
 _atom_site_symmetry_multiplicity
 _atom_site_fract_x
 _atom_site_fract_y
 _atom_site_fract_z
 _atom_site_occupancy
  Zr  Zr0  1  0.69764680  0.89707744  0.90013407  1
  Zr  Zr1  1  0.09661914  0.70334847  0.50093548  1
  Zr  Zr2  1  0.29806190  0.50175953  0.29995232  1
  Zr  Zr3  1  0.50209375  0.90615656  0.30285249  1
  Zr  Zr4  1  0.49294997  0.90462192  0.69485278  1
  Zr  Zr5  1  0.29283695  0.90025965  0.30135060  1
  Zr  Zr6  1  0.29796362  0.30376303  0.29849728  1
  Zr  Zr7  1  0.69895087  0.90052098  0.49981779  1
  Zr  Zr8  1  0.09654568  0.48998722  0.70256291  1
  Zr  Zr9  1  0.50305464  0.29309264  0.90370486  1
  Zr  Zr10  1  0.30089266  0.30801387  0.91059651  1
  Zr  Zr11  1  0.69164130  0.09646560  0.70049769  1
  Zr  Zr12  1  0.49853280  0.50249508  0.69858498  1
  Zr  Zr13  1  0.70668687  0.50224820  0.70587147  1
  Zr  Zr14  1  0.29572821  0.70083148  0.30221520  1
  Zr  Zr15  1  0.89921770  0.31757089  0.29506242  1
  Zr  Zr16  1  0.90124821  0.50466514  0.11139598  1
  Zr  Zr17  1  0.90092159  0.70435672  0.89442082  1
  Zr  Zr18  1  0.29768943  0.87717013  0.90779206  1
  Zr  Zr19  1  0.69919087  0.10774506  0.89869698  1
  Zr  Zr20  1  0.50353713  0.09949830  0.88967320  1
  Zr  Zr21  1  0.30872558  0.50000886  0.50190124  1
  Zr  Zr22  1  0.69261830  0.50358898  0.10074714  1
  Zr  Zr23  1  0.29770074  0.68808421  0.89594979  1
  Zr  Zr24  1  0.70409451  0.10148638  0.50452698  1
  Zr  Zr25  1  0.09984774  0.90261643  0.49570736  1
  Zr  Zr26  1  0.50353615  0.29673756  0.50161791  1
  Zr  Zr27  1  0.10062916  0.30303257  0.30498178  1
  Zr  Zr28  1  0.50083960  0.10620035  0.10015556  1
  Zr  Zr29  1  0.49783671  0.89642588  0.89736258  1
  Zr  Zr30  1  0.89784453  0.70645787  0.69270847  1
  Zr  Zr31  1  0.29975031  0.09497943  0.69651723  1
  Zr  Zr32  1  0.09407509  0.70103370  0.70162749  1
  Zr  Zr33  1  0.90763531  0.50133562  0.49411486  1
  Zr  Zr34  1  0.89654593  0.51000306  0.30397629  1
  Zr  Zr35  1  0.30516587  0.29989044  0.49665705  1
  Zr  Zr36  1  0.10661819  0.29777792  0.50166255  1
  Zr  Zr37  1  0.70822324  0.10868902  0.10655215  1
  Zr  Zr38  1  0.89479338  0.70159174  0.10968451  1
  Zr  Zr39  1  0.49879312  0.49510124  0.50552940  1
  Zr  Zr40  1  0.30587218  0.09953908  0.30493847  1
  Zr  Zr41  1  0.70186167  0.70388596  0.70333690  1
  Zr  Zr42  1  0.69640858  0.89761535  0.68936629  1
  Zr  Zr43  1  0.09944060  0.09929433  0.50490927  1
  Zr  Zr44  1  0.90035353  0.30256486  0.49248335  1
  Zr  Zr45  1  0.09680042  0.49987237  0.29281197  1
  Zr  Zr46  1  0.89016474  0.48960949  0.89468409  1
  Zr  Zr47  1  0.29896614  0.48211763  0.09985133  1
  Zr  Zr48  1  0.90170153  0.90314941  0.10599958  1
  Zr  Zr49  1  0.70225192  0.89595975  0.09702491  1
  Sc  Sc50  1  0.10983644  0.50923163  0.90136569  1
  Sc  Sc51  1  0.10053713  0.29972300  0.70461876  1
  Sc  Sc52  1  0.10646945  0.30605908  0.09540803  1
  Sc  Sc53  1  0.30292804  0.49801334  0.70986249  1
  Sc  Sc54  1  0.70457037  0.29977113  0.28704274  1
  Sc  Sc55  1  0.50411540  0.69996519  0.89819725  1
  Sc  Sc56  1  0.50652407  0.50508814  0.30335211  1
  Sc  Sc57  1  0.70504223  0.69862603  0.30788846  1
  Sc  Sc58  1  0.09005667  0.09894080  0.09228448  1
  Sc  Sc59  1  0.90570670  0.30461204  0.71085232  1
  Sc  Sc60  1  0.70672213  0.50028745  0.29755891  1
  Sc  Sc61  1  0.09998849  0.10327091  0.69409638  1
  Sc  Sc62  1  0.88821348  0.30059100  0.09960772  1
  Sc  Sc63  1  0.49250006  0.69338219  0.50410562  1
  Sc  Sc64  1  0.50555846  0.69750441  0.30560466  1
  Sc  Sc65  1  0.28927035  0.70869783  0.08728148  1
  Sc  Sc66  1  0.89665983  0.29775892  0.90303494  1
  Sc  Sc67  1  0.89711418  0.90360055  0.91110461  1
  Sc  Sc68  1  0.49824642  0.70136138  0.69836810  1
  Sc  Sc69  1  0.28829972  0.09767036  0.50017692  1
  Sc  Sc70  1  0.50483384  0.30222175  0.69251446  1
  Sc  Sc71  1  0.11139899  0.69830576  0.89825434  1
  Sc  Sc72  1  0.50104917  0.50282795  0.89513174  1
  Sc  Sc73  1  0.30190405  0.69806656  0.49995277  1
  Sc  Sc74  1  0.09564700  0.29817231  0.89691588  1
  Sc  Sc75  1  0.30464425  0.69655063  0.69750029  1
  Sc  Sc76  1  0.69587278  0.30809639  0.09400954  1
  Sc  Sc77  1  0.30447053  0.10584749  0.09662990  1
  Sc  Sc78  1  0.70534176  0.28479252  0.69454417  1
  Sc  Sc79  1  0.71128717  0.50240591  0.49160144  1
  Sc  Sc80  1  0.69776404  0.50095133  0.90195110  1
  Sc  Sc81  1  0.50877413  0.10331676  0.48830058  1
  Sc  Sc82  1  0.10335349  0.70586114  0.30457570  1
  Sc  Sc83  1  0.69697005  0.89652821  0.30976596  1
  Sc  Sc84  1  0.29256635  0.30229667  0.70602000  1
  Sc  Sc85  1  0.30437066  0.11189734  0.89648215  1
  Sc  Sc86  1  0.89871565  0.69871222  0.49470676  1
  Sc  Sc87  1  0.10140691  0.09777614  0.31313873  1
  Sc  Sc88  1  0.90110939  0.09794750  0.30138461  1
  Sc  Sc89  1  0.50556943  0.89317427  0.10259076  1
  Sc  Sc90  1  0.90302790  0.09418496  0.50214450  1
  Sc  Sc91  1  0.90070849  0.10140826  0.91297928  1
  Sc  Sc92  1  0.09283577  0.10376715  0.90515265  1
  Sc  Sc93  1  0.29678492  0.90463846  0.50902288  1
  Sc  Sc94  1  0.50678476  0.09829044  0.29933068  1
  Sc  Sc95  1  0.09429259  0.89785126  0.10319632  1
  Sc  Sc96  1  0.09689879  0.89024179  0.68934594  1
  Sc  Sc97  1  0.89692419  0.10139398  0.68787706  1
  Sc  Sc98  1  0.49666458  0.28808362  0.30277807  1
  Sc  Sc99  1  0.90074375  0.10133280  0.09526184  1
  Nb  Nb100  1  0.89632659  0.90365703  0.50407122  1
  Nb  Nb101  1  0.48362817  0.31023529  0.09542004  1
  Nb  Nb102  1  0.69804467  0.29341484  0.50323129  1
  Nb  Nb103  1  0.89528793  0.70605526  0.30210429  1
  Nb  Nb104  1  0.70427661  0.30322940  0.89723038  1
  Nb  Nb105  1  0.09930374  0.90071551  0.29981148  1
  Nb  Nb106  1  0.90303001  0.89135143  0.29924432  1
  Nb  Nb107  1  0.50143316  0.50355115  0.09953647  1
  Nb  Nb108  1  0.30173008  0.90536075  0.69749127  1
  Nb  Nb109  1  0.30703243  0.30141202  0.10105386  1
  Nb  Nb110  1  0.30278902  0.50254074  0.89694129  1
  Nb  Nb111  1  0.09743405  0.50213695  0.50130455  1
  Nb  Nb112  1  0.90013458  0.49756853  0.70102683  1
  Nb  Nb113  1  0.70130032  0.70666241  0.50681694  1
  Nb  Nb114  1  0.09816138  0.89432460  0.89569026  1
  Nb  Nb115  1  0.09614985  0.68523455  0.08820866  1
  Nb  Nb116  1  0.90129023  0.89938226  0.69832116  1
  Nb  Nb117  1  0.69058340  0.70080441  0.09117719  1
  Nb  Nb118  1  0.09613906  0.50618715  0.10116100  1
  Nb  Nb119  1  0.50405957  0.69590931  0.09859629  1
  Nb  Nb120  1  0.50147963  0.89328811  0.50050582  1
  Nb  Nb121  1  0.49733175  0.09880781  0.70549161  1
  Nb  Nb122  1  0.69594088  0.69886660  0.90215063  1
  Nb  Nb123  1  0.69990800  0.10196524  0.30108005  1
  Nb  Nb124  1  0.30083283  0.89864765  0.09924433  1
  Nb  Nb125  1  0.19962932  0.19871742  0.19952547  1
  Nb  Nb126  1  0.79481129  0.60731536  0.00192630  1
  Nb  Nb127  1  0.40190645  0.59606838  0.00664935  1
  Nb  Nb128  1  -0.00030507  0.41066566  0.00463957  1
  Nb  Nb129  1  0.20498819  -0.00708115  -0.00185627  1
  Nb  Nb130  1  0.80253964  -0.00217136  0.79628265  1
  Nb  Nb131  1  -0.00243745  -0.00670228  0.79721840  1
  Nb  Nb132  1  0.00399670  0.20504491  0.20208126  1
  Nb  Nb133  1  0.80408608  0.40004355  0.59953798  1
  Nb  Nb134  1  0.60909217  0.60135260  0.59912149  1
  Nb  Nb135  1  0.19391922  0.59312005  0.59941035  1
  Nb  Nb136  1  0.79587516  0.20145286  0.39838549  1
  Nb  Nb137  1  0.40158985  0.19432942  0.60188586  1
  Nb  Nb138  1  0.19968948  0.00170088  0.19702035  1
  Nb  Nb139  1  0.60708868  0.39455104  0.79951514  1
  Nb  Nb140  1  0.00252596  0.79281194  0.00256949  1
  Nb  Nb141  1  0.40026165  0.80651081  0.39784038  1
  Nb  Nb142  1  0.80167349  -0.00448369  0.20533570  1
  Nb  Nb143  1  0.19694373  -0.00863698  0.80417856  1
  Nb  Nb144  1  0.59839986  0.00379583  -0.00043837  1
  Nb  Nb145  1  0.39891545  0.79579536  0.20034145  1
  Nb  Nb146  1  -0.00606260  0.59600876  0.79528505  1
  Nb  Nb147  1  0.40108284  0.60358034  0.19133471  1
  Nb  Nb148  1  0.39994844  -0.00452175  -0.00005424  1
  Nb  Nb149  1  0.60542892  0.39229310  0.40421424  1
  Pd  Pd150  1  0.59512891  0.40273208  -0.00734994  1
  Pd  Pd151  1  -0.00252476  0.20760287  0.60321913  1
  Pd  Pd152  1  0.20659451  0.60299692  0.18986847  1
  Pd  Pd153  1  0.59206976  0.39386504  0.20789308  1
  Pd  Pd154  1  0.41112081  0.40643175  0.21140467  1
  Pd  Pd155  1  0.60246762  0.60607469  0.20533145  1
  Pd  Pd156  1  0.20419860  0.80165082  0.78697400  1
  Pd  Pd157  1  -0.00503385  -0.00450547  0.39865665  1
  Pd  Pd158  1  0.19426459  0.19316729  0.80120838  1
  Pd  Pd159  1  0.19157633  0.40423551  -0.00501147  1
  Pd  Pd160  1  0.59555203  0.21130264  0.19484443  1
  Pd  Pd161  1  0.19642937  0.59664194  0.40786878  1
  Pd  Pd162  1  0.80475081  0.79451098  -0.00036173  1
  Pd  Pd163  1  -0.00786520  0.19964254  0.39478486  1
  Pd  Pd164  1  -0.00600692  0.18734697  0.79882884  1
  Pd  Pd165  1  -0.00418039  0.80143899  0.40229971  1
  Pd  Pd166  1  0.78895329  0.80173571  0.20698961  1
  Pd  Pd167  1  0.60447067  0.59497235  0.40990623  1
  Pd  Pd168  1  0.80190025  0.60388160  0.80603490  1
  Pd  Pd169  1  0.39708932  -0.00437685  0.19218528  1
  Pd  Pd170  1  0.40153281  0.21036448  0.79017371  1
  Pd  Pd171  1  0.60027184  0.79364200  0.20560735  1
  Pd  Pd172  1  0.19460833  0.79999116  0.19211589  1
  Pd  Pd173  1  0.60253008  0.20216806  0.00644653  1
  Pd  Pd174  1  0.00276880  0.61314581  0.21153016  1
  Pd  Pd175  1  0.60957930  -0.00052168  0.19600688  1
  Pd  Pd176  1  0.79969511  0.59606468  0.59447570  1
  Pd  Pd177  1  0.00266194  0.00882933  0.20646117  1
  Pd  Pd178  1  0.41160723  0.40054415  0.39204094  1
  Pd  Pd179  1  0.20766025  0.79242501  0.60012650  1
  Pd  Pd180  1  0.39732664  0.19917222  0.20085142  1
  Pd  Pd181  1  0.20578875  0.40372780  0.60156605  1
  Pd  Pd182  1  0.59487761  0.80163651  0.79445148  1
  Pd  Pd183  1  0.00081427  0.59888054  0.60382163  1
  Pd  Pd184  1  0.19890027  0.19554222  0.00571263  1
  Pd  Pd185  1  0.59002309  0.00400026  0.59349038  1
  Pd  Pd186  1  0.61549280  0.40790040  0.60019010  1
  Pd  Pd187  1  0.39802558  0.79384734  0.79411492  1
  Pd  Pd188  1  0.40119069  -0.00211162  0.40982542  1
  Pd  Pd189  1  0.40824386  0.39392678  0.80087956  1
  Pd  Pd190  1  0.80131559  0.00187138  0.39408034  1
  Pd  Pd191  1  0.01066941  0.79022978  0.19614205  1
  Pd  Pd192  1  0.80085467  0.80844030  0.80086120  1
  Pd  Pd193  1  0.19656171  0.40846933  0.40302334  1
  Pd  Pd194  1  0.40754943  0.00963756  0.58821581  1
  Pd  Pd195  1  0.59421453  0.79432637  0.40646128  1
  Pd  Pd196  1  0.38563429  -0.00553559  0.81118497  1
  Pd  Pd197  1  0.80944157  0.19155674  0.80069484  1
  Pd  Pd198  1  -0.01095012  0.59828274  -0.01212466  1
  Pd  Pd199  1  -0.00393763  0.39117147  0.59808915  1
  Rh  Rh200  1  0.60029910  0.59698401  0.79394614  1
  Rh  Rh201  1  0.19958948  0.39936500  0.81017100  1
  Rh  Rh202  1  0.19154322  -0.00280236  0.60988358  1
  Rh  Rh203  1  0.79012309  0.60710909  0.19728333  1
  Rh  Rh204  1  0.01037357  -0.01170391  -0.00919960  1
  Rh  Rh205  1  0.19408366  0.39490509  0.19846027  1
  Rh  Rh206  1  0.39097501  0.39045963  0.60775015  1
  Rh  Rh207  1  0.20654502  0.20512703  0.60064378  1
  Rh  Rh208  1  0.19426311  0.59607781  0.78685992  1
  Rh  Rh209  1  0.40093815  0.19710091  0.00061862  1
  Rh  Rh210  1  0.61242076  0.20571825  0.39169771  1
  Rh  Rh211  1  0.78878551  0.38912167  0.40470201  1
  Rh  Rh212  1  0.40484916  0.60284135  0.80594512  1
  Rh  Rh213  1  -0.00841423  0.80422278  0.58834322  1
  Rh  Rh214  1  0.41055947  0.79501081  0.00929526  1
  Rh  Rh215  1  0.18317433  0.80487347  0.00791835  1
  Rh  Rh216  1  0.79136673  0.38959386  0.78983670  1
  Rh  Rh217  1  0.80175027  0.40799197  0.00663141  1
  Rh  Rh218  1  0.81234674  0.19084282  0.20863516  1
  Rh  Rh219  1  -0.00335946  0.21783711  0.00955781  1
  Rh  Rh220  1  0.80188032  0.60920559  0.40093449  1
  Rh  Rh221  1  0.40588691  0.40794274  -0.00856767  1
  Rh  Rh222  1  0.00537321  0.40702279  0.81339549  1
  Rh  Rh223  1  0.81157474  0.20809154  0.59142369  1
  Rh  Rh224  1  0.78814264  0.00612610  0.00186632  1
  Rh  Rh225  1  0.39812031  0.60604973  0.39118311  1
  Rh  Rh226  1  0.79480318  0.40863489  0.19364588  1
  Rh  Rh227  1  0.80162148  -0.00462033  0.60510458  1
  Rh  Rh228  1  0.00288565  -0.00438579  0.60475090  1
  Rh  Rh229  1  -0.00176254  0.80030117  0.80598846  1
  Rh  Rh230  1  0.39776425  0.59619142  0.60467873  1
  Rh  Rh231  1  0.00314521  0.60454276  0.39283088  1
  Rh  Rh232  1  0.59541046  0.80270780  -0.00235343  1
  Rh  Rh233  1  0.00972145  0.40620357  0.40148769  1
  Rh  Rh234  1  0.20462921  0.19777102  0.39638584  1
  Rh  Rh235  1  0.59855208  0.60086635  -0.00642450  1
  Rh  Rh236  1  0.60366562  0.00009217  0.40305510  1
  Rh  Rh237  1  0.79735652  0.20476891  -0.00170301  1
  Rh  Rh238  1  0.20460202  0.80660388  0.40822357  1
  Rh  Rh239  1  0.39555242  0.19376102  0.40711708  1
  Rh  Rh240  1  0.80410857  0.80329022  0.59315835  1
  Rh  Rh241  1  0.60764069  -0.00578363  0.80220718  1
  Rh  Rh242  1  0.21447965  0.58883490  0.00695730  1
  Rh  Rh243  1  0.19644326  -0.00323399  0.39665483  1
  Rh  Rh244  1  0.80499886  0.80253418  0.40578521  1
  Rh  Rh245  1  0.00533686  0.39349131  0.18940467  1
  Rh  Rh246  1  0.39845886  0.80405387  0.59442003  1
  Rh  Rh247  1  0.59770890  0.21014535  0.79357777  1
  Rh  Rh248  1  0.59325589  0.79167392  0.59784616  1
  Rh  Rh249  1  0.58912688  0.18920187  0.60530547  1
