# generated using pymatgen
data_ZrScNbPdRh
_symmetry_space_group_name_H-M   'P 1'
_cell_length_a   16.55669089
_cell_length_b   16.55808914
_cell_length_c   16.56582189
_cell_angle_alpha   90.03015692
_cell_angle_beta   90.03089554
_cell_angle_gamma   89.98035793
_symmetry_Int_Tables_number   1
_chemical_formula_structural   ZrScNbPdRh
_chemical_formula_sum   'Zr50 Sc50 Nb50 Pd50 Rh50'
_cell_volume   4541.47152797
_cell_formula_units_Z   50
loop_
 _symmetry_equiv_pos_site_id
 _symmetry_equiv_pos_as_xyz
  1  'x, y, z'
loop_
 _atom_site_type_symbol
 _atom_site_label
 _atom_site_symmetry_multiplicity
 _atom_site_fract_x
 _atom_site_fract_y
 _atom_site_fract_z
 _atom_site_occupancy
  Zr  Zr0  1  0.10553794  0.89362515  0.89979323  1
  Zr  Zr1  1  0.70541824  0.30199117  0.69615677  1
  Zr  Zr2  1  0.69059864  0.50105452  0.49131784  1
  Zr  Zr3  1  0.30852065  0.89736884  0.09445811  1
  Zr  Zr4  1  0.09904948  0.50001054  0.10905342  1
  Zr  Zr5  1  0.30417315  0.30902994  0.09635178  1
  Zr  Zr6  1  0.90303618  0.70009117  0.49160979  1
  Zr  Zr7  1  0.49873785  0.10770393  0.89671323  1
  Zr  Zr8  1  0.29040233  0.70973799  0.90237004  1
  Zr  Zr9  1  0.71204606  0.70423743  0.10359139  1
  Zr  Zr10  1  0.30078146  0.49391896  0.68280617  1
  Zr  Zr11  1  0.69951017  0.50005080  0.10187587  1
  Zr  Zr12  1  0.89918995  0.89230610  0.10347984  1
  Zr  Zr13  1  0.49635428  0.90568736  0.70304423  1
  Zr  Zr14  1  0.10844382  0.30075564  0.10696771  1
  Zr  Zr15  1  0.30394535  0.10171384  0.49703094  1
  Zr  Zr16  1  0.10019798  0.70302398  0.49714815  1
  Zr  Zr17  1  0.10165927  0.69851607  0.90335733  1
  Zr  Zr18  1  0.09310779  0.69647242  0.30491691  1
  Zr  Zr19  1  0.49402902  0.49285677  0.10316091  1
  Zr  Zr20  1  0.89765564  0.30009178  0.69288032  1
  Zr  Zr21  1  0.90115582  0.91246275  0.89576951  1
  Zr  Zr22  1  0.09569785  0.09246659  0.49570739  1
  Zr  Zr23  1  0.09431516  0.29566114  0.48795961  1
  Zr  Zr24  1  0.11029904  0.30267885  0.89369770  1
  Zr  Zr25  1  0.50009594  0.49468838  0.90653968  1
  Zr  Zr26  1  0.09519224  0.09686601  0.91011537  1
  Zr  Zr27  1  0.90652122  0.90884509  0.50056744  1
  Zr  Zr28  1  0.30402130  0.89848831  0.30682389  1
  Zr  Zr29  1  0.70033346  0.69210790  0.70073832  1
  Zr  Zr30  1  0.49542546  0.70764979  0.09672637  1
  Zr  Zr31  1  0.70208387  0.09903775  0.10658900  1
  Zr  Zr32  1  0.50565228  0.28934778  0.70650239  1
  Zr  Zr33  1  0.28741629  0.29427862  0.69882200  1
  Zr  Zr34  1  0.10699046  0.89950964  0.49920371  1
  Zr  Zr35  1  0.49897627  0.90159895  0.09960245  1
  Zr  Zr36  1  0.70026253  0.29619914  0.11431538  1
  Zr  Zr37  1  0.49688184  0.10139765  0.69910883  1
  Zr  Zr38  1  0.29873311  0.70430397  0.09502288  1
  Zr  Zr39  1  0.50310104  0.10438762  0.49925624  1
  Zr  Zr40  1  0.49655298  0.29592791  0.90244669  1
  Zr  Zr41  1  0.90014465  0.69270478  0.69401784  1
  Zr  Zr42  1  0.10259153  0.10570567  0.30524104  1
  Zr  Zr43  1  0.48776552  0.49616957  0.50203942  1
  Zr  Zr44  1  0.30595369  0.30479776  0.50428513  1
  Zr  Zr45  1  0.09750675  0.50154317  0.90361630  1
  Zr  Zr46  1  0.10001192  0.49995709  0.69983293  1
  Zr  Zr47  1  0.49627367  0.71466948  0.30172525  1
  Zr  Zr48  1  0.10874708  0.10018153  0.70055464  1
  Zr  Zr49  1  0.69893315  0.90165167  0.10201313  1
  Sc  Sc50  1  0.90323383  0.50024101  0.49918582  1
  Sc  Sc51  1  0.70439606  0.08957200  0.90189512  1
  Sc  Sc52  1  0.30386006  0.49369100  0.31211086  1
  Sc  Sc53  1  0.70447620  0.90534690  0.90389004  1
  Sc  Sc54  1  0.70396245  0.29138731  0.50399059  1
  Sc  Sc55  1  0.50033406  0.90321660  0.48762330  1
  Sc  Sc56  1  0.49862705  0.09388838  0.09658679  1
  Sc  Sc57  1  0.50139089  0.30538387  0.10275438  1
  Sc  Sc58  1  0.08733723  0.90072859  0.09791699  1
  Sc  Sc59  1  0.69545580  0.30220671  0.88954549  1
  Sc  Sc60  1  0.90639786  0.69842914  0.91191917  1
  Sc  Sc61  1  0.69855932  0.69948342  0.48329547  1
  Sc  Sc62  1  0.49046051  0.69083778  0.89423553  1
  Sc  Sc63  1  0.90145604  0.29909023  0.30440906  1
  Sc  Sc64  1  0.89652345  0.70163249  0.29744069  1
  Sc  Sc65  1  0.70148947  0.91271869  0.70009354  1
  Sc  Sc66  1  0.69806500  0.90723233  0.49083117  1
  Sc  Sc67  1  0.69682647  0.89607370  0.29504678  1
  Sc  Sc68  1  0.90136368  0.89822329  0.29768019  1
  Sc  Sc69  1  0.69224907  0.29491899  0.30167060  1
  Sc  Sc70  1  0.29829323  0.90110915  0.89715552  1
  Sc  Sc71  1  0.90194006  0.50218144  0.90082806  1
  Sc  Sc72  1  0.90142177  0.09715607  0.30411545  1
  Sc  Sc73  1  0.09113794  0.90126567  0.30456468  1
  Sc  Sc74  1  0.29396865  0.49950499  0.91059336  1
  Sc  Sc75  1  0.69236820  0.49959973  0.30077340  1
  Sc  Sc76  1  0.89470781  0.29699464  0.49982729  1
  Sc  Sc77  1  0.50037778  0.10192361  0.30682671  1
  Sc  Sc78  1  0.29980097  0.69547499  0.70537920  1
  Sc  Sc79  1  0.50242997  0.30263755  0.29978352  1
  Sc  Sc80  1  0.49660845  0.91177289  0.90209550  1
  Sc  Sc81  1  0.10081421  0.50324656  0.49379643  1
  Sc  Sc82  1  0.48684106  0.50769476  0.70073402  1
  Sc  Sc83  1  0.69453406  0.10569686  0.69033398  1
  Sc  Sc84  1  0.49612275  0.70062927  0.49265625  1
  Sc  Sc85  1  0.89534158  0.10104142  0.49776246  1
  Sc  Sc86  1  0.69763538  0.10439226  0.30170557  1
  Sc  Sc87  1  0.49986649  0.90278288  0.29848458  1
  Sc  Sc88  1  0.91317315  0.29722246  0.89581887  1
  Sc  Sc89  1  0.89493405  0.49533871  0.69375347  1
  Sc  Sc90  1  0.50280617  0.49299119  0.30954515  1
  Sc  Sc91  1  0.70344090  0.68904427  0.90186681  1
  Sc  Sc92  1  0.69874834  0.49806066  0.89437620  1
  Sc  Sc93  1  0.29330372  0.29805832  0.30562401  1
  Sc  Sc94  1  0.30059925  0.10041475  0.30773449  1
  Sc  Sc95  1  0.29827599  0.10230705  0.09140037  1
  Sc  Sc96  1  0.49914380  0.29643145  0.49671478  1
  Sc  Sc97  1  0.11550534  0.90782063  0.69701159  1
  Sc  Sc98  1  0.29551832  0.69878219  0.49133006  1
  Sc  Sc99  1  0.90788580  0.50073165  0.29387844  1
  Nb  Nb100  1  0.49842466  0.70313631  0.69689200  1
  Nb  Nb101  1  0.29524477  0.89906065  0.50190695  1
  Nb  Nb102  1  0.30748663  0.11320731  0.90348852  1
  Nb  Nb103  1  0.30562715  0.29561149  0.90307244  1
  Nb  Nb104  1  0.09659666  0.30176062  0.30197785  1
  Nb  Nb105  1  0.29630104  0.70331156  0.29688944  1
  Nb  Nb106  1  0.70211438  0.49718149  0.69443401  1
  Nb  Nb107  1  0.09180117  0.70359479  0.09837828  1
  Nb  Nb108  1  0.09903600  0.69993039  0.70598932  1
  Nb  Nb109  1  0.91032638  0.69478298  0.10380999  1
  Nb  Nb110  1  0.30023774  0.49936544  0.10781500  1
  Nb  Nb111  1  0.30329548  0.09568084  0.69511438  1
  Nb  Nb112  1  0.90251263  0.49733081  0.10470776  1
  Nb  Nb113  1  0.90065031  0.29971642  0.10574764  1
  Nb  Nb114  1  0.30910460  0.49831625  0.50784904  1
  Nb  Nb115  1  0.90307903  0.10063726  0.89839065  1
  Nb  Nb116  1  0.90317282  0.08954254  0.70177044  1
  Nb  Nb117  1  0.69956166  0.10691313  0.49381301  1
  Nb  Nb118  1  0.30092456  0.90491968  0.69412689  1
  Nb  Nb119  1  0.09697601  0.29942988  0.69876655  1
  Nb  Nb120  1  0.90043995  0.90208486  0.69677305  1
  Nb  Nb121  1  0.09444914  0.49050544  0.30143879  1
  Nb  Nb122  1  0.69147841  0.70112556  0.29606045  1
  Nb  Nb123  1  0.91287525  0.09847682  0.09609355  1
  Nb  Nb124  1  0.09698508  0.09637354  0.10442825  1
  Nb  Nb125  1  0.60025997  0.40549688  0.60407302  1
  Nb  Nb126  1  0.00001507  0.80175493  0.60618322  1
  Nb  Nb127  1  0.39328064  0.39259741  0.80257229  1
  Nb  Nb128  1  0.60080280  0.79906564  -0.00491506  1
  Nb  Nb129  1  -0.00124173  0.39800002  0.01075272  1
  Nb  Nb130  1  0.80744535  0.39228100  0.00775834  1
  Nb  Nb131  1  -0.00109482  0.80026705  0.79100886  1
  Nb  Nb132  1  0.20240317  0.60162041  0.20404893  1
  Nb  Nb133  1  0.59330045  0.60709136  0.20000430  1
  Nb  Nb134  1  0.79741695  0.40058661  0.39949371  1
  Nb  Nb135  1  0.80916702  0.19122803  0.80140978  1
  Nb  Nb136  1  0.59914822  0.79706945  0.60463114  1
  Nb  Nb137  1  0.00192150  0.19819422  0.60708359  1
  Nb  Nb138  1  0.19629089  0.79875644  0.19922667  1
  Nb  Nb139  1  0.39575871  0.60121687  0.20216612  1
  Nb  Nb140  1  0.80076658  0.80226864  0.60059921  1
  Nb  Nb141  1  0.59718742  0.60042728  0.60066400  1
  Nb  Nb142  1  0.60269535  0.79834604  0.79887116  1
  Nb  Nb143  1  0.00559328  0.20077036  0.19753607  1
  Nb  Nb144  1  0.60886470  0.19852664  0.00291174  1
  Nb  Nb145  1  0.39758955  0.20254027  0.19816859  1
  Nb  Nb146  1  0.19730894  -0.00272501  0.19821961  1
  Nb  Nb147  1  0.80684755  0.20056878  0.00019719  1
  Nb  Nb148  1  0.80391021  0.80079187  0.79373040  1
  Nb  Nb149  1  0.39779740  0.80589050  0.60221922  1
  Pd  Pd150  1  0.80355083  0.59201427  0.38887105  1
  Pd  Pd151  1  0.20764005  0.40782887  0.80049361  1
  Pd  Pd152  1  0.58987393  0.41067893  0.79016017  1
  Pd  Pd153  1  0.38956717  0.00669413  0.80547996  1
  Pd  Pd154  1  0.79237898  0.60106376  0.58791992  1
  Pd  Pd155  1  0.00586350  0.60053448  0.59680640  1
  Pd  Pd156  1  0.40191762  0.80298216  0.79924784  1
  Pd  Pd157  1  0.18765540  0.39855361  0.58974785  1
  Pd  Pd158  1  0.80727697  0.00547345  0.00816424  1
  Pd  Pd159  1  0.79389439  0.00223364  0.59597364  1
  Pd  Pd160  1  0.80490462  0.59079700  0.00192302  1
  Pd  Pd161  1  0.61174937  0.39060167  0.00320879  1
  Pd  Pd162  1  0.79589725  -0.00000110  0.39264557  1
  Pd  Pd163  1  0.20162582  0.40364816  0.40676644  1
  Pd  Pd164  1  0.01056171  -0.00550428  0.79586316  1
  Pd  Pd165  1  0.00008835  0.19702075  0.79320438  1
  Pd  Pd166  1  0.80558513  0.00262974  0.20394345  1
  Pd  Pd167  1  0.60456619  0.00098562  0.80217826  1
  Pd  Pd168  1  0.81163667  0.19274379  0.20403886  1
  Pd  Pd169  1  0.20939741  0.00887508  0.80875274  1
  Pd  Pd170  1  0.80855217  0.39471873  0.80905976  1
  Pd  Pd171  1  0.20323591  0.79148951  0.60780311  1
  Pd  Pd172  1  0.59560960  0.59639917  0.79580903  1
  Pd  Pd173  1  0.20211078  0.59166815  0.39626254  1
  Pd  Pd174  1  0.00465958  0.39529414  0.59303710  1
  Pd  Pd175  1  0.39490500  0.59816648  0.00234357  1
  Pd  Pd176  1  0.19433090  0.19719755  0.58974936  1
  Pd  Pd177  1  0.20488880  0.19225042  0.20098584  1
  Pd  Pd178  1  0.60025501  0.60651145  0.00581948  1
  Pd  Pd179  1  0.79965099  0.79919913  -0.00910235  1
  Pd  Pd180  1  -0.00362160  0.40375533  0.80119723  1
  Pd  Pd181  1  0.00216818  0.20853638  0.00558505  1
  Pd  Pd182  1  0.40012139  0.60185992  0.39358444  1
  Pd  Pd183  1  -0.00570368  0.60079530  0.80047539  1
  Pd  Pd184  1  0.20027637  0.60579734  0.59792138  1
  Pd  Pd185  1  0.80766390  0.60001208  0.80476912  1
  Pd  Pd186  1  0.79803370  0.80593261  0.39948423  1
  Pd  Pd187  1  0.79610787  0.59899633  0.20746376  1
  Pd  Pd188  1  0.79904233  0.40155070  0.20861662  1
  Pd  Pd189  1  0.20212779  -0.00337168  0.00470340  1
  Pd  Pd190  1  0.60011507  -0.00432186  0.59192138  1
  Pd  Pd191  1  0.20259730  0.19103464  0.80474136  1
  Pd  Pd192  1  0.40244835  -0.00471986  0.58959161  1
  Pd  Pd193  1  0.20697148  0.40574802  0.21048555  1
  Pd  Pd194  1  0.59621413  0.00443069  0.20729510  1
  Pd  Pd195  1  0.19847616  0.20108627  0.00115395  1
  Pd  Pd196  1  0.20660592  0.59208458  0.79795246  1
  Pd  Pd197  1  0.19652738  0.59895027  0.00969500  1
  Pd  Pd198  1  0.39248592  0.01060492  0.20242976  1
  Pd  Pd199  1  0.38737393  0.59069676  0.80452186  1
  Rh  Rh200  1  -0.00271418  0.80328997  0.40449685  1
  Rh  Rh201  1  0.60320069  0.00457053  0.39619463  1
  Rh  Rh202  1  0.20090036  -0.00364057  0.39580212  1
  Rh  Rh203  1  0.80985887  0.18670028  0.60665871  1
  Rh  Rh204  1  -0.00168615  -0.00571552  0.00018575  1
  Rh  Rh205  1  0.79804313  0.20485833  0.39687236  1
  Rh  Rh206  1  0.60074324  -0.00051259  0.00202725  1
  Rh  Rh207  1  -0.00230336  -0.00030453  0.39669734  1
  Rh  Rh208  1  0.40060337  0.20459487  0.39181677  1
  Rh  Rh209  1  -0.00012513  0.59244374  0.00810820  1
  Rh  Rh210  1  -0.00820535  0.40166454  0.39884791  1
  Rh  Rh211  1  -0.00191600  0.59593935  0.39627750  1
  Rh  Rh212  1  -0.00577289  0.19875942  0.39886541  1
  Rh  Rh213  1  0.19647539  0.39987118  -0.00042060  1
  Rh  Rh214  1  0.41009878  0.38587923  0.61171277  1
  Rh  Rh215  1  0.00008511  0.39064470  0.20182742  1
  Rh  Rh216  1  0.58501790  0.19509901  0.19371720  1
  Rh  Rh217  1  0.61605714  0.18836511  0.80996121  1
  Rh  Rh218  1  0.41024658  0.80260895  -0.01621349  1
  Rh  Rh219  1  0.39825369  0.39346749  0.40031794  1
  Rh  Rh220  1  0.39207922  0.79943705  0.20273101  1
  Rh  Rh221  1  0.19781820  0.80357435  0.39174129  1
  Rh  Rh222  1  0.39896813  0.20065883  0.60416466  1
  Rh  Rh223  1  0.60246171  0.80376805  0.40329971  1
  Rh  Rh224  1  0.58970662  0.60728397  0.39384352  1
  Rh  Rh225  1  0.19742976  0.80112909  0.79195800  1
  Rh  Rh226  1  0.20616233  0.00714586  0.59386755  1
  Rh  Rh227  1  0.79712923  0.00456854  0.79403359  1
  Rh  Rh228  1  0.60141461  0.79815277  0.19171433  1
  Rh  Rh229  1  0.39970720  -0.00006131  0.40349581  1
  Rh  Rh230  1  0.20330103  0.20367332  0.40562756  1
  Rh  Rh231  1  0.39526919  0.00477784  -0.00613327  1
  Rh  Rh232  1  0.00467932  0.60223197  0.20198374  1
  Rh  Rh233  1  0.60561141  0.38843833  0.40923509  1
  Rh  Rh234  1  0.00372391  0.00764051  0.20499680  1
  Rh  Rh235  1  0.60036932  0.20092122  0.40241392  1
  Rh  Rh236  1  0.80459947  0.79745912  0.20341727  1
  Rh  Rh237  1  0.39459543  0.80322130  0.40864174  1
  Rh  Rh238  1  0.00576152  0.00210423  0.60346610  1
  Rh  Rh239  1  0.59845713  0.20469371  0.59427567  1
  Rh  Rh240  1  0.38798489  0.20216377  0.79076738  1
  Rh  Rh241  1  0.40973529  0.20084944  0.01118581  1
  Rh  Rh242  1  0.59844465  0.40881756  0.20287612  1
  Rh  Rh243  1  0.79152339  0.40969552  0.58586592  1
  Rh  Rh244  1  0.00098559  0.79499478  0.20230190  1
  Rh  Rh245  1  -0.00500831  0.80410336  -0.00609700  1
  Rh  Rh246  1  0.39506097  0.40213591  -0.00592065  1
  Rh  Rh247  1  0.39901373  0.61506955  0.59262223  1
  Rh  Rh248  1  0.19319653  0.80620345  0.01035949  1
  Rh  Rh249  1  0.39691755  0.39759010  0.20890068  1
