# generated using pymatgen
data_ZrScNbPdRh
_symmetry_space_group_name_H-M   'P 1'
_cell_length_a   16.56826510
_cell_length_b   16.56606299
_cell_length_c   16.56299125
_cell_angle_alpha   90.01640534
_cell_angle_beta   90.01211779
_cell_angle_gamma   89.97867444
_symmetry_Int_Tables_number   1
_chemical_formula_structural   ZrScNbPdRh
_chemical_formula_sum   'Zr50 Sc50 Nb50 Pd50 Rh50'
_cell_volume   4546.05889654
_cell_formula_units_Z   50
loop_
 _symmetry_equiv_pos_site_id
 _symmetry_equiv_pos_as_xyz
  1  'x, y, z'
loop_
 _atom_site_type_symbol
 _atom_site_label
 _atom_site_symmetry_multiplicity
 _atom_site_fract_x
 _atom_site_fract_y
 _atom_site_fract_z
 _atom_site_occupancy
  Zr  Zr0  1  0.89933222  0.89846661  0.50799233  1
  Zr  Zr1  1  0.30240967  0.27789213  0.50179908  1
  Zr  Zr2  1  0.29196500  0.50243612  0.70451604  1
  Zr  Zr3  1  0.29354108  0.90462031  0.10643359  1
  Zr  Zr4  1  0.30691239  0.49605757  0.89956141  1
  Zr  Zr5  1  0.70352222  0.10063334  0.50195836  1
  Zr  Zr6  1  0.49962191  0.90116442  0.69921365  1
  Zr  Zr7  1  0.48720058  0.29577890  0.30652191  1
  Zr  Zr8  1  0.49872152  0.50477763  0.90816854  1
  Zr  Zr9  1  0.90278706  0.50922413  0.50318052  1
  Zr  Zr10  1  0.09915785  0.69901493  0.50597406  1
  Zr  Zr11  1  0.90456540  0.70184196  0.49137238  1
  Zr  Zr12  1  0.10057546  0.30936205  0.70180769  1
  Zr  Zr13  1  0.70350825  0.10687615  0.70654337  1
  Zr  Zr14  1  0.69870201  0.30264941  0.70892103  1
  Zr  Zr15  1  0.70441938  0.50081609  0.89509187  1
  Zr  Zr16  1  0.50132280  0.29919561  0.69931114  1
  Zr  Zr17  1  0.10509798  0.69733830  0.69920724  1
  Zr  Zr18  1  0.29977746  0.69848981  0.69140937  1
  Zr  Zr19  1  0.49377487  0.49832626  0.09383254  1
  Zr  Zr20  1  0.69966244  0.10208108  0.89762208  1
  Zr  Zr21  1  0.11427538  0.10659197  0.50725599  1
  Zr  Zr22  1  0.29809032  0.90139592  0.50957568  1
  Zr  Zr23  1  0.69188313  0.30570482  0.50925147  1
  Zr  Zr24  1  0.30022180  0.70266799  0.10423896  1
  Zr  Zr25  1  0.70833095  0.70500347  0.29587145  1
  Zr  Zr26  1  0.09734401  0.49682478  0.50540380  1
  Zr  Zr27  1  0.50080420  0.70832249  0.70658971  1
  Zr  Zr28  1  0.29940327  0.10268065  0.90518286  1
  Zr  Zr29  1  0.09925095  0.69679952  0.29639433  1
  Zr  Zr30  1  0.89301910  0.29456861  0.10838775  1
  Zr  Zr31  1  0.69990905  0.69987974  0.90011520  1
  Zr  Zr32  1  0.49768869  0.89540072  0.89369231  1
  Zr  Zr33  1  0.30580501  0.90067903  0.69993684  1
  Zr  Zr34  1  0.10181652  0.10120771  0.70719402  1
  Zr  Zr35  1  0.09051921  0.89910325  0.08677920  1
  Zr  Zr36  1  0.70385163  0.69911907  0.50065114  1
  Zr  Zr37  1  0.69572116  0.89342765  0.29848163  1
  Zr  Zr38  1  0.29878599  0.49811839  0.10141791  1
  Zr  Zr39  1  0.29883851  0.49940465  0.29631019  1
  Zr  Zr40  1  0.50859806  0.70106662  0.29979484  1
  Zr  Zr41  1  0.49426639  0.11341278  0.49250450  1
  Zr  Zr42  1  0.70296281  0.89437550  0.69676976  1
  Zr  Zr43  1  0.29790646  0.09595011  0.68510141  1
  Zr  Zr44  1  0.29284849  0.90428948  0.90158438  1
  Zr  Zr45  1  0.89670048  0.50055966  0.30054802  1
  Zr  Zr46  1  0.50695183  0.49163157  0.50109228  1
  Zr  Zr47  1  0.09804387  0.89257442  0.50630835  1
  Zr  Zr48  1  0.90291927  0.50328438  0.90043288  1
  Zr  Zr49  1  0.91103384  0.89881643  0.90323186  1
  Sc  Sc50  1  0.49207993  0.49424081  0.69830130  1
  Sc  Sc51  1  0.70022534  0.09704911  0.31044119  1
  Sc  Sc52  1  0.10432694  0.30044543  0.89505694  1
  Sc  Sc53  1  0.71113096  0.10956019  0.09201995  1
  Sc  Sc54  1  0.69837161  0.29455018  0.89615639  1
  Sc  Sc55  1  0.88877519  0.89490713  0.30893821  1
  Sc  Sc56  1  0.89692213  0.90279820  0.09031384  1
  Sc  Sc57  1  0.30081096  0.30709048  0.70535900  1
  Sc  Sc58  1  0.10867962  0.49590426  0.29594845  1
  Sc  Sc59  1  0.49881009  0.30152516  0.50269994  1
  Sc  Sc60  1  0.29461142  0.30298754  0.90424335  1
  Sc  Sc61  1  0.69402794  0.50283977  0.09623295  1
  Sc  Sc62  1  0.50272007  0.89902391  0.29738697  1
  Sc  Sc63  1  0.90282236  0.10004697  0.89910383  1
  Sc  Sc64  1  0.90490389  0.09779247  0.70639608  1
  Sc  Sc65  1  0.91896319  0.31908820  0.49196726  1
  Sc  Sc66  1  0.90370610  0.10532885  0.29564729  1
  Sc  Sc67  1  0.69916689  0.50332109  0.50444433  1
  Sc  Sc68  1  0.30021269  0.29912246  0.10019108  1
  Sc  Sc69  1  0.30191622  0.69962928  0.88668397  1
  Sc  Sc70  1  0.89353619  0.70090810  0.69075485  1
  Sc  Sc71  1  0.71548517  0.30435115  0.29182674  1
  Sc  Sc72  1  0.09500163  0.69485145  0.09865470  1
  Sc  Sc73  1  0.30444793  0.49879089  0.50180278  1
  Sc  Sc74  1  0.50209690  0.69144366  0.50157131  1
  Sc  Sc75  1  0.70217514  0.29626462  0.09731702  1
  Sc  Sc76  1  0.49907623  0.30423434  0.90774210  1
  Sc  Sc77  1  0.09730988  0.50313704  0.10225197  1
  Sc  Sc78  1  0.49598057  0.49695798  0.30853204  1
  Sc  Sc79  1  0.89910030  0.09002887  0.50550641  1
  Sc  Sc80  1  0.10346540  0.09567508  0.89621867  1
  Sc  Sc81  1  0.49271028  0.88631528  0.09182341  1
  Sc  Sc82  1  0.10260323  0.90131863  0.28905440  1
  Sc  Sc83  1  0.10852540  0.30495663  0.48959979  1
  Sc  Sc84  1  0.70059728  0.50237865  0.30399194  1
  Sc  Sc85  1  0.69771761  0.70596015  0.10190929  1
  Sc  Sc86  1  0.70971190  0.90307013  0.49017917  1
  Sc  Sc87  1  0.48060473  0.11026903  0.09423672  1
  Sc  Sc88  1  0.28674668  0.30422320  0.29652051  1
  Sc  Sc89  1  0.10006569  0.09617828  0.10350887  1
  Sc  Sc90  1  0.50155009  0.09567691  0.70434235  1
  Sc  Sc91  1  0.70335746  0.89091361  0.90655026  1
  Sc  Sc92  1  0.09458344  0.90013960  0.70779512  1
  Sc  Sc93  1  0.50379697  0.89623272  0.49681207  1
  Sc  Sc94  1  0.89959903  0.09477179  0.09544992  1
  Sc  Sc95  1  0.70238070  0.70096392  0.69827374  1
  Sc  Sc96  1  0.29105275  0.10566650  0.10069719  1
  Sc  Sc97  1  0.09324294  0.49073880  0.90694167  1
  Sc  Sc98  1  0.89850509  0.69909150  0.90951721  1
  Sc  Sc99  1  0.10070151  0.10694361  0.29264943  1
  Nb  Nb100  1  0.09712663  0.50432688  0.69472477  1
  Nb  Nb101  1  0.91105289  0.50288740  0.09350082  1
  Nb  Nb102  1  0.09518237  0.89390280  0.90030272  1
  Nb  Nb103  1  0.29285746  0.70379666  0.49952992  1
  Nb  Nb104  1  0.91495405  0.30526486  0.89517913  1
  Nb  Nb105  1  0.10279996  0.29775640  0.10173034  1
  Nb  Nb106  1  0.89644305  0.69686929  0.29393859  1
  Nb  Nb107  1  0.71147802  0.50504788  0.70578868  1
  Nb  Nb108  1  0.90319865  0.68742839  0.10915768  1
  Nb  Nb109  1  0.09696310  0.70889569  0.89894123  1
  Nb  Nb110  1  0.49597536  0.30251692  0.10492129  1
  Nb  Nb111  1  0.30117297  0.09305682  0.49939947  1
  Nb  Nb112  1  0.89806646  0.90430307  0.69646895  1
  Nb  Nb113  1  0.90234291  0.50157589  0.70326993  1
  Nb  Nb114  1  0.90678644  0.30069863  0.70996048  1
  Nb  Nb115  1  0.50016648  0.09894357  0.89963737  1
  Nb  Nb116  1  0.29925945  0.08953324  0.29288203  1
  Nb  Nb117  1  0.29938900  0.89804884  0.29645313  1
  Nb  Nb118  1  0.50280879  0.70091306  0.90798595  1
  Nb  Nb119  1  0.29672387  0.70244700  0.29835961  1
  Nb  Nb120  1  0.09114916  0.30157928  0.29863275  1
  Nb  Nb121  1  0.90372776  0.30067853  0.30131606  1
  Nb  Nb122  1  0.50007312  0.69020188  0.08814887  1
  Nb  Nb123  1  0.69827175  0.90524277  0.09949512  1
  Nb  Nb124  1  0.49835167  0.10077607  0.29787257  1
  Nb  Nb125  1  0.59957900  0.59977272  0.80290716  1
  Nb  Nb126  1  0.60362598  0.00258288  0.59821696  1
  Nb  Nb127  1  0.59167461  0.39231042  0.19803120  1
  Nb  Nb128  1  0.78987473  -0.00461093  0.19864425  1
  Nb  Nb129  1  0.38883127  0.79871280  0.39595971  1
  Nb  Nb130  1  0.20018068  0.60305068  -0.00503664  1
  Nb  Nb131  1  -0.01183068  0.79349964  0.19881450  1
  Nb  Nb132  1  -0.00062791  0.20718382  0.60289373  1
  Nb  Nb133  1  0.59829946  0.00754774  0.19065542  1
  Nb  Nb134  1  -0.00452522  0.39464980  0.20012156  1
  Nb  Nb135  1  0.40274372  0.60632135  0.19985067  1
  Nb  Nb136  1  0.20519895  0.60678980  0.40139339  1
  Nb  Nb137  1  0.80708887  0.40109432  0.61128356  1
  Nb  Nb138  1  0.39331879  -0.00031640  0.39413291  1
  Nb  Nb139  1  0.81165699  0.21310301  0.60117076  1
  Nb  Nb140  1  0.00849889  -0.00026611  0.40280547  1
  Nb  Nb141  1  0.59728762  0.00264407  0.00296395  1
  Nb  Nb142  1  0.20420334  -0.00153650  0.39759304  1
  Nb  Nb143  1  0.00248034  0.20678098  -0.00021039  1
  Nb  Nb144  1  0.80318384  -0.00758922  0.80041715  1
  Nb  Nb145  1  0.80749968  0.20842385  0.40841235  1
  Nb  Nb146  1  0.59306446  0.19822331  0.20183608  1
  Nb  Nb147  1  0.81126722  0.40064366  -0.00216268  1
  Nb  Nb148  1  0.40106845  0.19539025  0.80471912  1
  Nb  Nb149  1  0.00122275  0.59981165  0.79817182  1
  Pd  Pd150  1  0.00149642  0.20117255  0.19167628  1
  Pd  Pd151  1  0.59014222  -0.00084755  0.40023144  1
  Pd  Pd152  1  0.81244252  0.20918528  -0.01377955  1
  Pd  Pd153  1  0.59439992  0.59047349  0.20053606  1
  Pd  Pd154  1  0.20923475  0.20132572  0.79710914  1
  Pd  Pd155  1  0.39537851  0.60651489  0.39816090  1
  Pd  Pd156  1  0.39407551  0.00715526  0.80148827  1
  Pd  Pd157  1  0.18702648  0.80046328  0.19198517  1
  Pd  Pd158  1  0.61175351  0.21173680  0.38961932  1
  Pd  Pd159  1  0.18742754  0.59276521  0.81175439  1
  Pd  Pd160  1  0.59361292  0.19609605  0.00665628  1
  Pd  Pd161  1  0.19329765  0.00430865  0.00035468  1
  Pd  Pd162  1  0.38948802  0.39346604  0.40683343  1
  Pd  Pd163  1  -0.00411831  0.19181837  0.41090941  1
  Pd  Pd164  1  0.79790899  0.39885242  0.41140017  1
  Pd  Pd165  1  0.80466619  0.79554319  0.00929813  1
  Pd  Pd166  1  0.38984755  0.79553772  -0.00807430  1
  Pd  Pd167  1  0.80510377  0.39483617  0.80502568  1
  Pd  Pd168  1  0.79930941  0.41143673  0.18940460  1
  Pd  Pd169  1  0.00933020  0.59325910  0.39258870  1
  Pd  Pd170  1  -0.01409243  -0.01181194  0.20703495  1
  Pd  Pd171  1  0.00220069  0.80737351  0.38923286  1
  Pd  Pd172  1  0.40564563  0.79543402  0.59063307  1
  Pd  Pd173  1  0.40797645  0.79513858  0.20396486  1
  Pd  Pd174  1  0.40875993  0.60140507  0.79886499  1
  Pd  Pd175  1  0.20305462  0.19329356  0.38745053  1
  Pd  Pd176  1  0.80909900  0.80032652  0.79956860  1
  Pd  Pd177  1  0.79385485  0.59142768  0.19364998  1
  Pd  Pd178  1  0.60594416  0.39234053  0.38833842  1
  Pd  Pd179  1  0.39292129  0.39474371  0.59589053  1
  Pd  Pd180  1  0.19918216  0.80292764  0.39702796  1
  Pd  Pd181  1  0.60645340  0.60060703  0.39931350  1
  Pd  Pd182  1  0.59302781  0.40827632  0.80043337  1
  Pd  Pd183  1  0.00746692  0.00646509  0.59927613  1
  Pd  Pd184  1  0.60890283  0.39483592  0.00355641  1
  Pd  Pd185  1  0.79629413  0.59736192  0.00867193  1
  Pd  Pd186  1  0.61004148  -0.00730286  0.80321877  1
  Pd  Pd187  1  0.19780210  0.40368096  0.00379432  1
  Pd  Pd188  1  0.39180616  0.20174922  0.20380462  1
  Pd  Pd189  1  0.60390222  0.80538765  0.59204505  1
  Pd  Pd190  1  0.20269454  0.80572578  0.79525253  1
  Pd  Pd191  1  0.20272616  0.79296485  -0.00063134  1
  Pd  Pd192  1  0.59919287  0.19346773  0.60428383  1
  Pd  Pd193  1  0.40230334  -0.00241895  0.00532725  1
  Pd  Pd194  1  0.40119192  0.59927067  0.59826995  1
  Pd  Pd195  1  0.40784655  -0.00268682  0.19595261  1
  Pd  Pd196  1  0.59930573  0.59405025  0.61297596  1
  Pd  Pd197  1  0.59366474  0.80303408  0.18988480  1
  Pd  Pd198  1  0.20766953  0.39599410  0.59406304  1
  Pd  Pd199  1  -0.00891136  0.79093843  0.79327028  1
  Rh  Rh200  1  0.60989549  0.41077518  0.61209584  1
  Rh  Rh201  1  0.19500888  0.20964546  0.60946811  1
  Rh  Rh202  1  0.80293565  0.61023504  0.79768268  1
  Rh  Rh203  1  0.81125929  0.19666817  0.80118706  1
  Rh  Rh204  1  0.20037395  0.40638541  0.40199603  1
  Rh  Rh205  1  0.39641526  0.79915921  0.80278918  1
  Rh  Rh206  1  0.40332140  0.39197845  0.80474877  1
  Rh  Rh207  1  -0.00046874  0.59440565  0.20698326  1
  Rh  Rh208  1  0.01037908  0.60755057  -0.00979094  1
  Rh  Rh209  1  0.19562801  0.40823701  0.80229054  1
  Rh  Rh210  1  -0.00373904  0.39760899  0.60795854  1
  Rh  Rh211  1  0.80137442  0.59588166  0.59847864  1
  Rh  Rh212  1  0.80001423  0.79369427  0.40318513  1
  Rh  Rh213  1  0.79259736  0.00537161  0.61253957  1
  Rh  Rh214  1  -0.00193905  0.79682083  0.60830801  1
  Rh  Rh215  1  0.20574839  0.60121200  0.19784376  1
  Rh  Rh216  1  -0.00306512  0.60553369  0.60673473  1
  Rh  Rh217  1  0.40202186  0.19887238  0.61121200  1
  Rh  Rh218  1  0.19156270  -0.00761849  0.60211243  1
  Rh  Rh219  1  -0.00600954  0.78989567  0.00886738  1
  Rh  Rh220  1  0.79188912  0.18631104  0.21304739  1
  Rh  Rh221  1  0.19763802  0.80401025  0.61095320  1
  Rh  Rh222  1  0.60032556  0.79438250  0.80534495  1
  Rh  Rh223  1  0.39549983  0.39255853  0.00128075  1
  Rh  Rh224  1  -0.00370274  -0.00272952  0.80398365  1
  Rh  Rh225  1  0.81351605  0.01122253  0.39079945  1
  Rh  Rh226  1  0.40470635  0.40719536  0.20134043  1
  Rh  Rh227  1  0.60703638  0.60296637  -0.00459725  1
  Rh  Rh228  1  0.19976467  0.20235846  0.20179972  1
  Rh  Rh229  1  0.58615689  0.20479884  0.80630665  1
  Rh  Rh230  1  0.79088117  0.00048241  -0.00525235  1
  Rh  Rh231  1  -0.00426452  0.38737896  0.01403150  1
  Rh  Rh232  1  0.00596629  0.41044171  0.38742472  1
  Rh  Rh233  1  0.00587394  0.01052559  -0.00660283  1
  Rh  Rh234  1  0.38543815  0.19240837  0.38722859  1
  Rh  Rh235  1  0.80783551  0.80531659  0.19108733  1
  Rh  Rh236  1  0.00379733  0.19796684  0.80314383  1
  Rh  Rh237  1  0.41839585  0.00404905  0.58874850  1
  Rh  Rh238  1  0.19508726  -0.00232679  0.19838207  1
  Rh  Rh239  1  0.20012930  -0.00584059  0.79984093  1
  Rh  Rh240  1  0.18995935  0.39447024  0.19624280  1
  Rh  Rh241  1  0.59867635  0.79509200  0.40383982  1
  Rh  Rh242  1  0.59917294  0.80280013  0.00154626  1
  Rh  Rh243  1  0.38695062  0.60816993  0.00205660  1
  Rh  Rh244  1  0.39669885  0.20631393  -0.00752351  1
  Rh  Rh245  1  0.20450045  0.59482434  0.59052334  1
  Rh  Rh246  1  0.19015890  0.20048076  0.00225453  1
  Rh  Rh247  1  0.79689021  0.60171738  0.39919055  1
  Rh  Rh248  1  0.00705712  0.41154336  0.79432338  1
  Rh  Rh249  1  0.80043238  0.79918185  0.59368295  1
