# generated using pymatgen
data_ZrScNbPdRh
_symmetry_space_group_name_H-M   'P 1'
_cell_length_a   16.55913418
_cell_length_b   16.56065193
_cell_length_c   16.56170001
_cell_angle_alpha   89.96992367
_cell_angle_beta   90.03600284
_cell_angle_gamma   90.01431579
_symmetry_Int_Tables_number   1
_chemical_formula_structural   ZrScNbPdRh
_chemical_formula_sum   'Zr50 Sc50 Nb50 Pd50 Rh50'
_cell_volume   4541.71428223
_cell_formula_units_Z   50
loop_
 _symmetry_equiv_pos_site_id
 _symmetry_equiv_pos_as_xyz
  1  'x, y, z'
loop_
 _atom_site_type_symbol
 _atom_site_label
 _atom_site_symmetry_multiplicity
 _atom_site_fract_x
 _atom_site_fract_y
 _atom_site_fract_z
 _atom_site_occupancy
  Zr  Zr0  1  0.49867089  0.90825930  0.90430878  1
  Zr  Zr1  1  0.49996014  0.10329451  0.70599186  1
  Zr  Zr2  1  0.29816182  0.70248422  0.48943583  1
  Zr  Zr3  1  0.70397906  0.69851129  0.90083066  1
  Zr  Zr4  1  0.69180753  0.50182557  0.49874102  1
  Zr  Zr5  1  0.09489392  0.71135688  0.50232393  1
  Zr  Zr6  1  0.69314131  0.50741246  0.10334736  1
  Zr  Zr7  1  0.90096268  0.89412125  0.29974687  1
  Zr  Zr8  1  0.89532082  0.29598004  0.50580218  1
  Zr  Zr9  1  0.10082809  0.30214745  0.30252824  1
  Zr  Zr10  1  0.70027320  0.29044342  0.09789675  1
  Zr  Zr11  1  0.50014679  0.49698865  0.50398747  1
  Zr  Zr12  1  0.10566939  0.70195243  0.09574311  1
  Zr  Zr13  1  0.89402328  0.10221773  0.10386078  1
  Zr  Zr14  1  0.29589669  0.69761378  0.90407394  1
  Zr  Zr15  1  0.50293273  0.49913574  0.10146318  1
  Zr  Zr16  1  0.89191696  0.49614014  0.70842160  1
  Zr  Zr17  1  0.69642082  0.69534463  0.09635099  1
  Zr  Zr18  1  0.90920750  0.90764836  0.11064037  1
  Zr  Zr19  1  0.30503997  0.30061752  0.70213782  1
  Zr  Zr20  1  0.89675972  0.70068634  0.89978504  1
  Zr  Zr21  1  0.10175559  0.69040748  0.29397647  1
  Zr  Zr22  1  0.69744828  0.89089988  0.89732272  1
  Zr  Zr23  1  0.51122980  0.09652212  0.09136202  1
  Zr  Zr24  1  0.50189138  0.70777358  0.90031921  1
  Zr  Zr25  1  0.28965581  0.90241064  0.49556256  1
  Zr  Zr26  1  0.70538036  0.30275436  0.70353141  1
  Zr  Zr27  1  0.30031011  0.70277674  0.10041956  1
  Zr  Zr28  1  0.49713963  0.90041734  0.71405550  1
  Zr  Zr29  1  0.89749208  0.71223827  0.50028262  1
  Zr  Zr30  1  0.10626701  0.30083952  0.69327521  1
  Zr  Zr31  1  0.49791622  0.31106036  0.10151641  1
  Zr  Zr32  1  0.29876923  0.30031825  0.50443060  1
  Zr  Zr33  1  0.69436785  0.29467313  0.30491616  1
  Zr  Zr34  1  0.70182131  0.29396894  0.89967720  1
  Zr  Zr35  1  0.50469078  0.29954593  0.48927072  1
  Zr  Zr36  1  0.30751516  0.29291373  0.90504573  1
  Zr  Zr37  1  0.89624407  0.30956281  0.89601978  1
  Zr  Zr38  1  0.11417671  0.09531924  0.49597400  1
  Zr  Zr39  1  0.70182855  0.69745206  0.49500180  1
  Zr  Zr40  1  0.89640655  0.29849052  0.09259559  1
  Zr  Zr41  1  0.10745593  0.88899803  0.69085026  1
  Zr  Zr42  1  0.10388406  0.50855468  0.10928063  1
  Zr  Zr43  1  0.09606636  0.50575172  0.49682566  1
  Zr  Zr44  1  0.31059571  0.49132451  0.11274178  1
  Zr  Zr45  1  0.50334022  0.69576336  0.10523127  1
  Zr  Zr46  1  0.69538493  0.69880415  0.29933984  1
  Zr  Zr47  1  0.30516408  0.49971245  0.50249529  1
  Zr  Zr48  1  0.88908058  0.09333468  0.49974199  1
  Zr  Zr49  1  0.10789439  0.09906059  0.29391424  1
  Sc  Sc50  1  0.69429511  0.30163762  0.50016608  1
  Sc  Sc51  1  0.88469584  0.09488868  0.29639055  1
  Sc  Sc52  1  0.69250079  0.50462932  0.69776866  1
  Sc  Sc53  1  0.49817960  0.69319320  0.49433551  1
  Sc  Sc54  1  0.09614821  0.30201871  0.90485904  1
  Sc  Sc55  1  0.89896270  0.89449619  0.89253137  1
  Sc  Sc56  1  0.90141209  0.50357544  0.90076945  1
  Sc  Sc57  1  0.31484831  0.89756261  0.89708861  1
  Sc  Sc58  1  0.09949743  0.89672148  0.28691106  1
  Sc  Sc59  1  0.29980164  0.89501756  0.09436101  1
  Sc  Sc60  1  0.49736971  0.89583212  0.09366904  1
  Sc  Sc61  1  0.29861487  0.09972829  0.71351642  1
  Sc  Sc62  1  0.29203981  0.70792701  0.70782580  1
  Sc  Sc63  1  0.50101954  0.09836741  0.48047763  1
  Sc  Sc64  1  0.89960895  0.69929790  0.29957485  1
  Sc  Sc65  1  0.08718669  0.90649220  0.88325644  1
  Sc  Sc66  1  0.50873608  0.30205647  0.70492211  1
  Sc  Sc67  1  0.88826107  0.29757300  0.31303812  1
  Sc  Sc68  1  0.90874958  0.10037301  0.90237258  1
  Sc  Sc69  1  0.10112660  0.51129533  0.90678656  1
  Sc  Sc70  1  0.09274364  0.09697704  0.10073978  1
  Sc  Sc71  1  0.50755717  0.49273412  0.89985531  1
  Sc  Sc72  1  0.69885118  0.89552297  0.10487344  1
  Sc  Sc73  1  0.09743662  0.50721089  0.70503735  1
  Sc  Sc74  1  0.70045880  0.50792413  0.30561022  1
  Sc  Sc75  1  0.90282823  0.50836098  0.09154316  1
  Sc  Sc76  1  0.89614303  0.89245686  0.69772879  1
  Sc  Sc77  1  0.50169531  0.89743098  0.48549458  1
  Sc  Sc78  1  0.10553853  0.09356548  0.70456562  1
  Sc  Sc79  1  0.29846188  0.30264029  0.29262621  1
  Sc  Sc80  1  0.69579855  0.10944096  0.70167668  1
  Sc  Sc81  1  0.50015474  0.29677973  0.90131310  1
  Sc  Sc82  1  0.29322106  0.10881754  0.09784216  1
  Sc  Sc83  1  0.89280430  0.50725655  0.49450287  1
  Sc  Sc84  1  0.50531984  0.90237031  0.30207399  1
  Sc  Sc85  1  0.90023821  0.69789890  0.10292533  1
  Sc  Sc86  1  0.10457326  0.69872580  0.89245350  1
  Sc  Sc87  1  0.71245686  0.89510963  0.49872641  1
  Sc  Sc88  1  0.49670112  0.49331914  0.30168689  1
  Sc  Sc89  1  0.89080825  0.10450841  0.69056316  1
  Sc  Sc90  1  0.29900832  0.50417875  0.89921168  1
  Sc  Sc91  1  0.29939030  0.09880140  0.31030410  1
  Sc  Sc92  1  0.30070092  0.89790163  0.29911954  1
  Sc  Sc93  1  0.90012932  0.69893159  0.70026260  1
  Sc  Sc94  1  0.10724593  0.29547590  0.10570474  1
  Sc  Sc95  1  0.69739962  0.89710643  0.30231802  1
  Sc  Sc96  1  0.30203654  0.70057121  0.29842553  1
  Sc  Sc97  1  0.10364635  0.29720884  0.50512435  1
  Sc  Sc98  1  0.69549316  0.09763939  0.29646385  1
  Sc  Sc99  1  0.70581373  0.50442403  0.89772386  1
  Nb  Nb100  1  0.09931676  0.50133249  0.30054220  1
  Nb  Nb101  1  0.50271037  0.70658793  0.30667341  1
  Nb  Nb102  1  0.10293903  0.70103854  0.69824224  1
  Nb  Nb103  1  0.69993819  0.70612981  0.70102719  1
  Nb  Nb104  1  0.30345904  0.30361159  0.10150304  1
  Nb  Nb105  1  0.68981435  0.10219103  0.90976381  1
  Nb  Nb106  1  0.10381277  0.09938092  0.89502983  1
  Nb  Nb107  1  0.50342786  0.28726536  0.30419859  1
  Nb  Nb108  1  0.09488390  0.89785833  0.49878663  1
  Nb  Nb109  1  0.69997193  0.09043860  0.50144462  1
  Nb  Nb110  1  0.70014992  0.90231218  0.69895551  1
  Nb  Nb111  1  0.30022512  0.49583722  0.69449442  1
  Nb  Nb112  1  0.30360070  0.09985776  0.90356155  1
  Nb  Nb113  1  0.90622630  0.49766045  0.29959550  1
  Nb  Nb114  1  0.90499543  0.89601117  0.49919030  1
  Nb  Nb115  1  0.90066355  0.30103215  0.70199513  1
  Nb  Nb116  1  0.70778011  0.10338937  0.09544439  1
  Nb  Nb117  1  0.49329218  0.50631039  0.69494906  1
  Nb  Nb118  1  0.28743317  0.50102220  0.30008008  1
  Nb  Nb119  1  0.49781596  0.10077711  0.29993617  1
  Nb  Nb120  1  0.09968072  0.89976672  0.09936856  1
  Nb  Nb121  1  0.30786354  0.09575099  0.49601019  1
  Nb  Nb122  1  0.30629193  0.89923585  0.69523073  1
  Nb  Nb123  1  0.49289379  0.09615354  0.90081905  1
  Nb  Nb124  1  0.49991369  0.69823643  0.69893987  1
  Nb  Nb125  1  -0.00667718  0.39866379  0.60421658  1
  Nb  Nb126  1  0.40376046  0.59945017  -0.00098033  1
  Nb  Nb127  1  -0.00135590  0.19051161  0.40160318  1
  Nb  Nb128  1  0.00491735  0.80419884  0.00315269  1
  Nb  Nb129  1  0.59756625  0.80141692  0.60544559  1
  Nb  Nb130  1  0.40107866  0.19258047  0.59407060  1
  Nb  Nb131  1  0.20804895  0.39820730  0.00410650  1
  Nb  Nb132  1  0.00172265  -0.00270680  0.40299030  1
  Nb  Nb133  1  0.19883301  0.40799453  0.39874756  1
  Nb  Nb134  1  0.19503934  0.00350752  -0.00960234  1
  Nb  Nb135  1  0.40351769  0.59833085  0.79410755  1
  Nb  Nb136  1  0.79621174  0.00246708  -0.00238511  1
  Nb  Nb137  1  0.79093670  0.00128791  0.80426379  1
  Nb  Nb138  1  0.59863957  -0.00530699  0.59923787  1
  Nb  Nb139  1  0.40176450  -0.00060763  0.59744186  1
  Nb  Nb140  1  0.19895551  0.60504890  0.60074200  1
  Nb  Nb141  1  0.40220653  0.80430692  0.60214273  1
  Nb  Nb142  1  0.00056495  -0.00556588  0.59166529  1
  Nb  Nb143  1  -0.00009022  0.20468805  0.79411070  1
  Nb  Nb144  1  0.80301826  0.40194260  0.20066733  1
  Nb  Nb145  1  -0.00636574  0.20487174  0.20812948  1
  Nb  Nb146  1  0.40483549  0.00900823  0.19895214  1
  Nb  Nb147  1  0.20428645  0.40079154  0.80154296  1
  Nb  Nb148  1  0.40669753  0.19863137  0.20129502  1
  Nb  Nb149  1  -0.00577730  0.40021024  0.20591320  1
  Pd  Pd150  1  0.20165884  0.80971142  0.80782436  1
  Pd  Pd151  1  0.21116545  -0.00198539  0.18990235  1
  Pd  Pd152  1  0.60651528  0.00777870  0.79844126  1
  Pd  Pd153  1  0.59740978  0.19568498  0.19649803  1
  Pd  Pd154  1  0.00356336  0.19995739  -0.00085767  1
  Pd  Pd155  1  0.59487789  0.19220661  0.59047355  1
  Pd  Pd156  1  0.01212642  0.40430240  0.01065611  1
  Pd  Pd157  1  0.20414295  0.20740120  0.39791564  1
  Pd  Pd158  1  0.20366319  0.00308658  0.60410264  1
  Pd  Pd159  1  0.79909464  0.79848985  0.19812917  1
  Pd  Pd160  1  0.81066744  0.80899770  0.01025583  1
  Pd  Pd161  1  0.60927937  -0.00878388  0.00361924  1
  Pd  Pd162  1  0.39338877  0.39536993  0.39268285  1
  Pd  Pd163  1  0.79313295  0.40440801  0.39825672  1
  Pd  Pd164  1  0.00011904  -0.00464954  -0.00387267  1
  Pd  Pd165  1  0.60034754  0.60753632  0.59897955  1
  Pd  Pd166  1  0.20952531  -0.01055575  0.80582619  1
  Pd  Pd167  1  0.38847335  0.61398573  0.60593850  1
  Pd  Pd168  1  0.40687656  0.19619371  0.00857586  1
  Pd  Pd169  1  0.39841571  0.40653180  0.80458025  1
  Pd  Pd170  1  0.19442181  0.20806463  0.80610588  1
  Pd  Pd171  1  0.59606264  0.80190277  0.20017997  1
  Pd  Pd172  1  0.79872046  -0.00788131  0.39488142  1
  Pd  Pd173  1  0.60888233  0.39808006  -0.00399749  1
  Pd  Pd174  1  0.60035668  0.79661512  0.79744524  1
  Pd  Pd175  1  0.60392744  0.40379962  0.79761290  1
  Pd  Pd176  1  0.00352015  0.19406296  0.60015135  1
  Pd  Pd177  1  0.78729869  0.20177994  0.59600900  1
  Pd  Pd178  1  -0.00632634  0.60856550  0.39934215  1
  Pd  Pd179  1  0.19038731  0.81683146  -0.01534224  1
  Pd  Pd180  1  0.60654943  0.40178106  0.20951828  1
  Pd  Pd181  1  0.79874648  0.60147047  0.60277063  1
  Pd  Pd182  1  0.80666189  0.19066651  0.80734613  1
  Pd  Pd183  1  0.59938342  -0.00112378  0.19826245  1
  Pd  Pd184  1  0.19184008  0.80308618  0.38763426  1
  Pd  Pd185  1  0.40460637  0.80918541  0.20404012  1
  Pd  Pd186  1  0.00247612  0.39227136  0.40638034  1
  Pd  Pd187  1  -0.01329933  0.00888371  0.78428126  1
  Pd  Pd188  1  0.59737834  0.59901712  0.80147345  1
  Pd  Pd189  1  0.41238723  0.38762235  0.60253085  1
  Pd  Pd190  1  -0.00225137  0.60422406  0.80124706  1
  Pd  Pd191  1  0.40268986  0.60059394  0.20682465  1
  Pd  Pd192  1  0.79968849  0.40416618  0.59837692  1
  Pd  Pd193  1  0.80523936  0.59440789  0.20157030  1
  Pd  Pd194  1  0.40275706  0.59821332  0.38960684  1
  Pd  Pd195  1  0.21149640  0.18617975  0.60435024  1
  Pd  Pd196  1  0.19380084  0.19972345  0.00006216  1
  Pd  Pd197  1  -0.00087090  0.59672076  0.60282718  1
  Pd  Pd198  1  0.79288147  0.40994072  0.00517419  1
  Pd  Pd199  1  0.01106346  0.39851121  0.79716831  1
  Rh  Rh200  1  0.60740382  -0.00020116  0.40326342  1
  Rh  Rh201  1  0.79710685  0.60346943  0.79653965  1
  Rh  Rh202  1  0.20864418  0.79378492  0.59602355  1
  Rh  Rh203  1  0.19231970  0.39985831  0.19990459  1
  Rh  Rh204  1  0.00419432  0.79112761  0.19383165  1
  Rh  Rh205  1  0.19407027  -0.00918999  0.39300655  1
  Rh  Rh206  1  0.39869893  0.79090058  0.79770332  1
  Rh  Rh207  1  0.39374347  0.20529391  0.39766560  1
  Rh  Rh208  1  0.60051773  0.40311758  0.39668129  1
  Rh  Rh209  1  0.80402687  0.60292987  0.39710837  1
  Rh  Rh210  1  0.40436987  0.19771319  0.79916202  1
  Rh  Rh211  1  0.60973546  0.18924341  0.40348063  1
  Rh  Rh212  1  0.79758671  -0.00342397  0.60895032  1
  Rh  Rh213  1  -0.00435762  0.59753626  0.20094881  1
  Rh  Rh214  1  0.79326590  0.19407288  0.40769324  1
  Rh  Rh215  1  0.59517540  0.59984031  -0.00780441  1
  Rh  Rh216  1  0.00444316  0.80156740  0.38936262  1
  Rh  Rh217  1  0.79054330  -0.00415114  0.19397951  1
  Rh  Rh218  1  0.79471899  0.79845929  0.60275525  1
  Rh  Rh219  1  0.79967473  0.80100403  0.79359346  1
  Rh  Rh220  1  0.39839637  -0.00724841  0.39405958  1
  Rh  Rh221  1  0.40105437  0.80180519  0.40098246  1
  Rh  Rh222  1  0.59936662  0.80053483  0.00381553  1
  Rh  Rh223  1  -0.00173426  0.01012404  0.21074022  1
  Rh  Rh224  1  0.80512510  0.19183011  -0.01159169  1
  Rh  Rh225  1  0.79952024  0.59944664  0.00040424  1
  Rh  Rh226  1  0.20391859  0.19897534  0.19979360  1
  Rh  Rh227  1  -0.00409303  0.80236613  0.60831635  1
  Rh  Rh228  1  0.00063749  0.61287487  -0.00395906  1
  Rh  Rh229  1  0.59156052  0.60001168  0.21293074  1
  Rh  Rh230  1  0.19970952  0.59711164  0.40568214  1
  Rh  Rh231  1  0.79288630  0.40322755  0.80175764  1
  Rh  Rh232  1  0.18740016  0.41611443  0.60030402  1
  Rh  Rh233  1  0.00088610  0.79136962  0.79974979  1
  Rh  Rh234  1  0.20754658  0.60447227  0.19884852  1
  Rh  Rh235  1  0.38841573  0.00720320  0.00949404  1
  Rh  Rh236  1  0.80110029  0.20875677  0.20381411  1
  Rh  Rh237  1  0.59147691  0.59913660  0.39710103  1
  Rh  Rh238  1  0.79934895  0.79888343  0.39470358  1
  Rh  Rh239  1  0.59574331  0.19815898  0.81133918  1
  Rh  Rh240  1  0.20771790  0.59224532  0.78779102  1
  Rh  Rh241  1  0.39508065  0.00528756  0.80059062  1
  Rh  Rh242  1  0.39414638  0.40783492  -0.00655840  1
  Rh  Rh243  1  0.21585622  0.58710435  0.01435445  1
  Rh  Rh244  1  0.59668336  0.40042428  0.60414991  1
  Rh  Rh245  1  0.40352431  0.79194522  0.00093624  1
  Rh  Rh246  1  0.40542076  0.39078872  0.21307933  1
  Rh  Rh247  1  0.20118936  0.79931177  0.20135375  1
  Rh  Rh248  1  0.60249284  0.79681892  0.40547081  1
  Rh  Rh249  1  0.59248958  0.20417946  -0.00193569  1
