# generated using pymatgen
data_ZrScNbPdRh
_symmetry_space_group_name_H-M   'P 1'
_cell_length_a   16.56023368
_cell_length_b   16.56069333
_cell_length_c   16.55255495
_cell_angle_alpha   89.97512302
_cell_angle_beta   90.00677460
_cell_angle_gamma   89.96884826
_symmetry_Int_Tables_number   1
_chemical_formula_structural   ZrScNbPdRh
_chemical_formula_sum   'Zr50 Sc50 Nb50 Pd50 Rh50'
_cell_volume   4539.51970713
_cell_formula_units_Z   50
loop_
 _symmetry_equiv_pos_site_id
 _symmetry_equiv_pos_as_xyz
  1  'x, y, z'
loop_
 _atom_site_type_symbol
 _atom_site_label
 _atom_site_symmetry_multiplicity
 _atom_site_fract_x
 _atom_site_fract_y
 _atom_site_fract_z
 _atom_site_occupancy
  Zr  Zr0  1  0.69096894  0.10683761  0.49317954  1
  Zr  Zr1  1  0.50736797  0.69574638  0.69242958  1
  Zr  Zr2  1  0.09095590  0.70317827  0.09912779  1
  Zr  Zr3  1  0.28723069  0.29551386  0.90062995  1
  Zr  Zr4  1  0.50065088  0.49375541  0.09931092  1
  Zr  Zr5  1  0.91349366  0.10401635  0.49903585  1
  Zr  Zr6  1  0.30048681  0.50232074  0.50536085  1
  Zr  Zr7  1  0.31046634  0.70302233  0.29903640  1
  Zr  Zr8  1  0.70630176  0.90145296  0.30692571  1
  Zr  Zr9  1  0.50166031  0.30165719  0.90594889  1
  Zr  Zr10  1  0.70771273  0.70372035  0.10623308  1
  Zr  Zr11  1  0.30170558  0.09888980  0.09853826  1
  Zr  Zr12  1  0.29166224  0.90757138  0.50701821  1
  Zr  Zr13  1  0.50364229  0.50722213  0.70186623  1
  Zr  Zr14  1  0.89549629  0.70094483  0.29712696  1
  Zr  Zr15  1  0.30170288  0.69633667  0.50136048  1
  Zr  Zr16  1  0.70355490  0.50005276  0.29433633  1
  Zr  Zr17  1  0.49425608  0.30682287  0.29867923  1
  Zr  Zr18  1  0.09999715  0.90500235  0.89455970  1
  Zr  Zr19  1  0.90933945  0.89898026  0.09785244  1
  Zr  Zr20  1  0.70570090  0.10098806  0.29595564  1
  Zr  Zr21  1  0.90470514  0.50038118  0.69620926  1
  Zr  Zr22  1  0.09571799  0.49486696  0.09533008  1
  Zr  Zr23  1  0.29444103  0.90031494  0.70481156  1
  Zr  Zr24  1  0.30389447  0.69863678  0.90345038  1
  Zr  Zr25  1  0.29018773  0.10390918  0.29767442  1
  Zr  Zr26  1  0.70487790  0.29793586  0.89969269  1
  Zr  Zr27  1  0.50005380  0.69562781  0.90011765  1
  Zr  Zr28  1  0.10235719  0.49267136  0.69690118  1
  Zr  Zr29  1  0.29885270  0.49945132  0.69719215  1
  Zr  Zr30  1  0.10310645  0.50030521  0.49650573  1
  Zr  Zr31  1  0.70710629  0.90008152  0.89599853  1
  Zr  Zr32  1  0.30946183  0.29382200  0.10161212  1
  Zr  Zr33  1  0.50467345  0.28715318  0.49480678  1
  Zr  Zr34  1  0.89550944  0.30692359  0.51392198  1
  Zr  Zr35  1  0.49829501  0.10045982  0.69500190  1
  Zr  Zr36  1  0.10976526  0.30515351  0.29738995  1
  Zr  Zr37  1  0.69655503  0.89765995  0.50125917  1
  Zr  Zr38  1  0.09390423  0.69728252  0.30480861  1
  Zr  Zr39  1  0.70517081  0.48988841  0.48587867  1
  Zr  Zr40  1  0.30217475  0.29502769  0.29871182  1
  Zr  Zr41  1  0.09437859  0.29119940  0.50718376  1
  Zr  Zr42  1  0.30067785  0.90970637  0.09897796  1
  Zr  Zr43  1  0.89967201  0.70197458  0.70460140  1
  Zr  Zr44  1  0.89366732  0.50310253  0.30501814  1
  Zr  Zr45  1  0.70257762  0.10709530  0.09975660  1
  Zr  Zr46  1  0.90265786  0.70478179  0.09257943  1
  Zr  Zr47  1  0.49353406  0.69836215  0.11568664  1
  Zr  Zr48  1  0.71086502  0.28773247  0.69915125  1
  Zr  Zr49  1  0.50254296  0.29824085  0.10109308  1
  Sc  Sc50  1  0.10146646  0.10946724  0.89880802  1
  Sc  Sc51  1  0.49566855  0.10564725  0.09859259  1
  Sc  Sc52  1  0.09742957  0.30848651  0.09548689  1
  Sc  Sc53  1  0.89683010  0.50030111  0.90053126  1
  Sc  Sc54  1  0.70902316  0.10054912  0.89309636  1
  Sc  Sc55  1  0.49935580  0.28153476  0.70074280  1
  Sc  Sc56  1  0.09758226  0.70227993  0.70670248  1
  Sc  Sc57  1  0.89668975  0.89856417  0.89667275  1
  Sc  Sc58  1  0.69959408  0.51102633  0.70358773  1
  Sc  Sc59  1  0.30550460  0.69513274  0.09943486  1
  Sc  Sc60  1  0.29174774  0.29102533  0.69772746  1
  Sc  Sc61  1  0.10611367  0.69260157  0.50308470  1
  Sc  Sc62  1  0.49850137  0.88889683  0.30062251  1
  Sc  Sc63  1  0.09356945  0.91314074  0.29230387  1
  Sc  Sc64  1  0.69345387  0.70862811  0.50371238  1
  Sc  Sc65  1  0.30229486  0.09702411  0.69599760  1
  Sc  Sc66  1  0.90216139  0.10218647  0.90418688  1
  Sc  Sc67  1  0.90011689  0.11076917  0.70364326  1
  Sc  Sc68  1  0.30490120  0.30142675  0.49104801  1
  Sc  Sc69  1  0.50126384  0.50841961  0.49178231  1
  Sc  Sc70  1  0.70420237  0.89424623  0.70123171  1
  Sc  Sc71  1  0.69907234  0.30186782  0.09746112  1
  Sc  Sc72  1  0.50203503  0.90010700  0.49515370  1
  Sc  Sc73  1  0.09428781  0.08829054  0.09737860  1
  Sc  Sc74  1  0.29850065  0.48687655  0.31327300  1
  Sc  Sc75  1  0.89362121  0.90791861  0.49895032  1
  Sc  Sc76  1  0.50454527  0.11026656  0.30857489  1
  Sc  Sc77  1  0.49563381  0.90353952  0.70133674  1
  Sc  Sc78  1  0.48354028  0.90153834  0.90090604  1
  Sc  Sc79  1  0.89552365  0.10011210  0.09617162  1
  Sc  Sc80  1  0.70049946  0.70040751  0.30020264  1
  Sc  Sc81  1  0.69576780  0.30555736  0.29893172  1
  Sc  Sc82  1  0.10393880  0.10632723  0.69457405  1
  Sc  Sc83  1  0.48988702  0.90126297  0.10448899  1
  Sc  Sc84  1  0.89992035  0.50199097  0.50259546  1
  Sc  Sc85  1  0.70110431  0.49779620  0.90208673  1
  Sc  Sc86  1  0.30401290  0.09566398  0.49834000  1
  Sc  Sc87  1  0.50014273  0.50116135  0.90359171  1
  Sc  Sc88  1  0.29613665  0.69670384  0.69839237  1
  Sc  Sc89  1  0.89495067  0.31076957  0.29244751  1
  Sc  Sc90  1  0.50227274  0.10116187  0.88998939  1
  Sc  Sc91  1  0.30207559  0.91222000  0.29876446  1
  Sc  Sc92  1  0.71282395  0.69742894  0.90224491  1
  Sc  Sc93  1  0.89510467  0.69249011  0.50084855  1
  Sc  Sc94  1  0.11004600  0.90167233  0.69744256  1
  Sc  Sc95  1  0.89553656  0.48938690  0.10395208  1
  Sc  Sc96  1  0.30179489  0.49956243  0.08657377  1
  Sc  Sc97  1  0.08720895  0.69756548  0.90302350  1
  Sc  Sc98  1  0.70072018  0.70317824  0.69403817  1
  Sc  Sc99  1  0.89551320  0.89809123  0.70427353  1
  Nb  Nb100  1  0.29244835  0.08996592  0.90261970  1
  Nb  Nb101  1  0.90377660  0.30051739  0.09736006  1
  Nb  Nb102  1  0.89735806  0.90602337  0.30402897  1
  Nb  Nb103  1  0.10109001  0.09094846  0.49530288  1
  Nb  Nb104  1  0.10995217  0.48357005  0.90673972  1
  Nb  Nb105  1  0.09145227  0.10926364  0.30937937  1
  Nb  Nb106  1  0.89832375  0.09798273  0.30339594  1
  Nb  Nb107  1  0.10164181  0.90244796  0.50417451  1
  Nb  Nb108  1  0.69775154  0.09591947  0.70426735  1
  Nb  Nb109  1  0.69872472  0.50361462  0.09846795  1
  Nb  Nb110  1  0.50432707  0.50321009  0.30254080  1
  Nb  Nb111  1  0.49721383  0.70558357  0.49310952  1
  Nb  Nb112  1  0.69978691  0.30112118  0.49852163  1
  Nb  Nb113  1  0.69924192  0.89987930  0.09820849  1
  Nb  Nb114  1  0.90521306  0.29449834  0.89869269  1
  Nb  Nb115  1  0.29482165  0.90337297  0.90002991  1
  Nb  Nb116  1  0.09844079  0.30366174  0.89589748  1
  Nb  Nb117  1  0.09819855  0.29633830  0.70691871  1
  Nb  Nb118  1  0.49675955  0.69382862  0.31029830  1
  Nb  Nb119  1  0.09719788  0.49745596  0.29863581  1
  Nb  Nb120  1  0.90923292  0.30085191  0.70365274  1
  Nb  Nb121  1  0.29816169  0.49449907  0.89982010  1
  Nb  Nb122  1  0.49789315  0.10282002  0.50708787  1
  Nb  Nb123  1  0.09428728  0.89305064  0.09752744  1
  Nb  Nb124  1  0.90374926  0.70747161  0.89602436  1
  Nb  Nb125  1  0.00415149  0.40143320  0.39892031  1
  Nb  Nb126  1  0.19408164  0.80659376  0.39752030  1
  Nb  Nb127  1  0.19742717  0.58877156  0.81061324  1
  Nb  Nb128  1  0.59821361  0.79766738  0.80743130  1
  Nb  Nb129  1  0.60289763  0.60537373  0.00974191  1
  Nb  Nb130  1  0.40985994  0.39833688  0.60402037  1
  Nb  Nb131  1  0.59710782  0.39501861  0.79358576  1
  Nb  Nb132  1  0.80251602  0.20249001  0.40081290  1
  Nb  Nb133  1  0.39874243  0.39803132  0.79733571  1
  Nb  Nb134  1  0.60294870  -0.00634339  0.00276645  1
  Nb  Nb135  1  0.19404471  0.59886198  0.20173093  1
  Nb  Nb136  1  0.00306415  0.39384081  0.80163798  1
  Nb  Nb137  1  0.60063067  0.39438484  0.60094183  1
  Nb  Nb138  1  0.19612470  0.80004115  0.19819484  1
  Nb  Nb139  1  0.60637887  -0.00147536  0.19606429  1
  Nb  Nb140  1  0.60199932  0.00565046  0.60023562  1
  Nb  Nb141  1  -0.00205108  0.19792670  0.20642036  1
  Nb  Nb142  1  0.19943432  0.80618908  0.00286452  1
  Nb  Nb143  1  0.00201551  0.80663306  0.40375368  1
  Nb  Nb144  1  0.79278421  0.00846076  0.60035938  1
  Nb  Nb145  1  0.60060488  0.80123223  0.00245248  1
  Nb  Nb146  1  0.00094207  0.59492873  0.20140875  1
  Nb  Nb147  1  0.00251741  0.80482773  0.59271357  1
  Nb  Nb148  1  0.00309433  0.00300128  0.79861778  1
  Nb  Nb149  1  0.40055277  0.79728381  0.59619225  1
  Pd  Pd150  1  0.60077058  0.59996118  0.20096415  1
  Pd  Pd151  1  0.39082016  0.80950471  0.40551286  1
  Pd  Pd152  1  0.39003613  0.20074970  0.80418647  1
  Pd  Pd153  1  0.80327001  0.59858233  0.00267853  1
  Pd  Pd154  1  -0.00466763  -0.00349381  0.61075268  1
  Pd  Pd155  1  0.18590136  0.19466957  0.18809942  1
  Pd  Pd156  1  0.80063498  0.19154761  0.59429806  1
  Pd  Pd157  1  0.60235465  0.18899428  -0.00686988  1
  Pd  Pd158  1  0.80162351  0.40084069  0.79463188  1
  Pd  Pd159  1  0.79085832  0.40748093  0.61078780  1
  Pd  Pd160  1  0.19657540  0.78845066  0.81035472  1
  Pd  Pd161  1  0.39238687  0.59565373  0.80149481  1
  Pd  Pd162  1  0.60749943  0.60596387  0.40127204  1
  Pd  Pd163  1  0.79975560  -0.00116791  -0.00004180  1
  Pd  Pd164  1  0.00765713  0.58657326  0.80849240  1
  Pd  Pd165  1  0.19245268  -0.00267402  0.00078311  1
  Pd  Pd166  1  0.80622378  0.20820443  0.20216584  1
  Pd  Pd167  1  -0.00797346  0.58939090  -0.00015389  1
  Pd  Pd168  1  0.39796665  0.80133291  0.00586682  1
  Pd  Pd169  1  0.00447652  0.60872185  0.59983202  1
  Pd  Pd170  1  -0.01023331  0.21588052  0.39200723  1
  Pd  Pd171  1  0.79263168  0.59804232  0.59474413  1
  Pd  Pd172  1  0.20758092  0.60321821  0.39154993  1
  Pd  Pd173  1  0.19083932  0.20063476  0.00825270  1
  Pd  Pd174  1  0.80217196  0.39485260  0.00239407  1
  Pd  Pd175  1  0.20519804  0.19450309  0.59188592  1
  Pd  Pd176  1  0.39964690  0.19190921  -0.01135762  1
  Pd  Pd177  1  0.19739180  0.60756151  -0.00025099  1
  Pd  Pd178  1  0.40516378  0.00392759  0.39801797  1
  Pd  Pd179  1  0.59879912  -0.00894198  0.80131060  1
  Pd  Pd180  1  0.80567310  0.79607269  0.40725321  1
  Pd  Pd181  1  0.60674667  0.59302240  0.58571655  1
  Pd  Pd182  1  0.59888129  0.80420785  0.20282291  1
  Pd  Pd183  1  0.59294449  -0.00176561  0.39624975  1
  Pd  Pd184  1  0.00377031  0.20048660  0.00879444  1
  Pd  Pd185  1  0.40313044  0.79465925  0.78928491  1
  Pd  Pd186  1  0.00208106  -0.00706190  0.40029433  1
  Pd  Pd187  1  0.39009074  0.58393208  0.20804282  1
  Pd  Pd188  1  0.19177549  0.00178058  0.20063752  1
  Pd  Pd189  1  0.39375710  0.40856097  0.20029283  1
  Pd  Pd190  1  -0.00537942  0.00847010  0.20011215  1
  Pd  Pd191  1  0.80041992  0.60236935  0.79987055  1
  Pd  Pd192  1  0.21111090  0.40820979  0.19258533  1
  Pd  Pd193  1  0.60399325  0.39920707  0.19861630  1
  Pd  Pd194  1  0.80563460  0.80988020  0.19996172  1
  Pd  Pd195  1  0.80185131  -0.00576714  0.19438033  1
  Pd  Pd196  1  0.39358527  0.00506845  0.80154467  1
  Pd  Pd197  1  0.20289404  0.19767007  0.40922074  1
  Pd  Pd198  1  0.41389566  0.00975138  0.20938416  1
  Pd  Pd199  1  0.20491541  0.38967991  0.59516337  1
  Rh  Rh200  1  0.19851836  0.00876342  0.60222536  1
  Rh  Rh201  1  -0.00537041  0.59569807  0.39843956  1
  Rh  Rh202  1  0.20730518  0.39027889  0.00769449  1
  Rh  Rh203  1  0.81089531  0.80616275  0.59823618  1
  Rh  Rh204  1  -0.00071159  -0.00216195  -0.00954802  1
  Rh  Rh205  1  0.19328837  0.39482326  0.40791594  1
  Rh  Rh206  1  0.40916048  0.40368050  0.40772806  1
  Rh  Rh207  1  0.40908225  0.59633852  0.00088700  1
  Rh  Rh208  1  0.59259475  0.39758208  0.40157810  1
  Rh  Rh209  1  0.00398819  0.19632320  0.60435707  1
  Rh  Rh210  1  0.59697621  0.19891328  0.20090785  1
  Rh  Rh211  1  0.39519044  0.19310458  0.39892728  1
  Rh  Rh212  1  0.40681094  -0.00753450  0.59723681  1
  Rh  Rh213  1  0.80919814  0.39180051  0.40039028  1
  Rh  Rh214  1  0.80290277  0.01192589  0.40953459  1
  Rh  Rh215  1  0.79289426  0.39920571  0.19277381  1
  Rh  Rh216  1  0.79260510  0.60558764  0.40519111  1
  Rh  Rh217  1  0.39239912  0.20450336  0.59363668  1
  Rh  Rh218  1  0.60691441  0.20861919  0.39052236  1
  Rh  Rh219  1  0.00431752  0.39873301  0.60093185  1
  Rh  Rh220  1  0.20105261  0.19320410  0.80078943  1
  Rh  Rh221  1  -0.00094370  0.39840091  0.20529528  1
  Rh  Rh222  1  0.39841674  0.59353613  0.39658121  1
  Rh  Rh223  1  0.00047422  0.80906015  0.79354287  1
  Rh  Rh224  1  0.60441433  0.19820400  0.60452063  1
  Rh  Rh225  1  0.59999114  0.79521539  0.39167664  1
  Rh  Rh226  1  0.00026292  0.80839061  -0.01426106  1
  Rh  Rh227  1  -0.00912013  0.39835541  -0.01053761  1
  Rh  Rh228  1  0.40353995  0.19443147  0.20519430  1
  Rh  Rh229  1  0.58768143  0.80997876  0.60654672  1
  Rh  Rh230  1  0.81198120  0.00729614  0.79223805  1
  Rh  Rh231  1  0.80568228  0.19764417  0.80316983  1
  Rh  Rh232  1  0.80754846  0.59744087  0.19306884  1
  Rh  Rh233  1  0.40636827  0.60331266  0.59448165  1
  Rh  Rh234  1  0.80230880  0.80267769  -0.00065780  1
  Rh  Rh235  1  0.00126352  0.20056722  0.80026463  1
  Rh  Rh236  1  0.19328864  0.00030318  0.39560676  1
  Rh  Rh237  1  0.80456814  0.20602017  -0.00166211  1
  Rh  Rh238  1  0.39553519  0.39472898  -0.00668661  1
  Rh  Rh239  1  0.19226915  0.60417577  0.61292096  1
  Rh  Rh240  1  0.60492193  0.20394870  0.80203920  1
  Rh  Rh241  1  0.79537522  0.79156169  0.79930825  1
  Rh  Rh242  1  0.19741729  0.00882967  0.79671011  1
  Rh  Rh243  1  0.40404101  0.00720286  -0.00731359  1
  Rh  Rh244  1  0.60969431  0.60324105  0.81452376  1
  Rh  Rh245  1  0.39246982  0.80519152  0.20122123  1
  Rh  Rh246  1  -0.00231296  0.80080105  0.21319411  1
  Rh  Rh247  1  0.20089837  0.39935757  0.79639540  1
  Rh  Rh248  1  0.20084711  0.79461590  0.59342360  1
  Rh  Rh249  1  0.60496655  0.40754225  -0.00492990  1
