# generated using pymatgen
data_ZrScNbPdRh
_symmetry_space_group_name_H-M   'P 1'
_cell_length_a   16.55254852
_cell_length_b   16.55813954
_cell_length_c   16.55073134
_cell_angle_alpha   90.02364902
_cell_angle_beta   89.96147449
_cell_angle_gamma   90.03606736
_symmetry_Int_Tables_number   1
_chemical_formula_structural   ZrScNbPdRh
_chemical_formula_sum   'Zr50 Sc50 Nb50 Pd50 Rh50'
_cell_volume   4536.21233805
_cell_formula_units_Z   50
loop_
 _symmetry_equiv_pos_site_id
 _symmetry_equiv_pos_as_xyz
  1  'x, y, z'
loop_
 _atom_site_type_symbol
 _atom_site_label
 _atom_site_symmetry_multiplicity
 _atom_site_fract_x
 _atom_site_fract_y
 _atom_site_fract_z
 _atom_site_occupancy
  Zr  Zr0  1  0.09438380  0.28680132  0.50959868  1
  Zr  Zr1  1  0.50362087  0.90227953  0.10450699  1
  Zr  Zr2  1  0.50676331  0.50117285  0.10593332  1
  Zr  Zr3  1  0.29890344  0.89441196  0.29849360  1
  Zr  Zr4  1  0.49835023  0.10068229  0.09660478  1
  Zr  Zr5  1  0.29687588  0.70465202  0.49504450  1
  Zr  Zr6  1  0.90333169  0.09135573  0.10174658  1
  Zr  Zr7  1  0.70427398  0.89019673  0.29682491  1
  Zr  Zr8  1  0.70312917  0.89695136  0.09991304  1
  Zr  Zr9  1  0.09589834  0.70104422  0.50048081  1
  Zr  Zr10  1  0.49728480  0.70272168  0.50007525  1
  Zr  Zr11  1  0.69485488  0.70781189  0.90261400  1
  Zr  Zr12  1  0.90107639  0.69947679  0.69756012  1
  Zr  Zr13  1  0.10978175  0.69689864  0.29909440  1
  Zr  Zr14  1  0.50264971  0.89880347  0.90157033  1
  Zr  Zr15  1  0.50159577  0.30567478  0.29849501  1
  Zr  Zr16  1  0.29882233  0.90328602  0.69778597  1
  Zr  Zr17  1  0.30073279  0.69893342  0.30476789  1
  Zr  Zr18  1  0.29602239  0.70704643  0.69755839  1
  Zr  Zr19  1  0.50216996  0.49798964  0.49547741  1
  Zr  Zr20  1  0.29223526  0.09823587  0.51365589  1
  Zr  Zr21  1  0.10291785  0.89093298  0.09445526  1
  Zr  Zr22  1  0.49715707  0.49725062  0.69826710  1
  Zr  Zr23  1  0.49240646  0.30511960  0.50107319  1
  Zr  Zr24  1  0.70127263  0.49744175  0.69990929  1
  Zr  Zr25  1  0.50370247  0.90071826  0.29882205  1
  Zr  Zr26  1  0.29742495  0.10523751  0.89610078  1
  Zr  Zr27  1  0.90037983  0.90324687  0.29664557  1
  Zr  Zr28  1  0.10193906  0.91000702  0.29945848  1
  Zr  Zr29  1  0.50433606  0.49887017  0.29937285  1
  Zr  Zr30  1  0.90415426  0.69196127  0.09121491  1
  Zr  Zr31  1  0.91401374  0.10793470  0.49858366  1
  Zr  Zr32  1  0.49350711  0.50829724  0.90522320  1
  Zr  Zr33  1  0.51057968  0.69796795  0.09515604  1
  Zr  Zr34  1  0.50618693  0.70540960  0.29593257  1
  Zr  Zr35  1  0.30650326  0.49734631  0.49530360  1
  Zr  Zr36  1  0.50108549  0.10516705  0.70215214  1
  Zr  Zr37  1  0.10467888  0.50213520  0.28897685  1
  Zr  Zr38  1  0.30104492  0.10934895  0.09306319  1
  Zr  Zr39  1  0.29993923  0.89631925  0.50500836  1
  Zr  Zr40  1  0.49157585  0.90351562  0.50210897  1
  Zr  Zr41  1  0.09818280  0.50486550  0.49806399  1
  Zr  Zr42  1  0.49460366  0.29853008  0.10561994  1
  Zr  Zr43  1  0.09743518  0.29292851  0.28751937  1
  Zr  Zr44  1  0.70052443  0.10449922  0.50659556  1
  Zr  Zr45  1  0.29780858  0.91031019  0.09785585  1
  Zr  Zr46  1  0.10600164  0.30810891  0.09857245  1
  Zr  Zr47  1  0.70289402  0.69949003  0.50376439  1
  Zr  Zr48  1  0.89599663  0.89672512  0.10001251  1
  Zr  Zr49  1  0.70432257  0.69857602  0.69971456  1
  Sc  Sc50  1  0.09702110  0.10500090  0.69465569  1
  Sc  Sc51  1  0.29544009  0.49453172  0.10483396  1
  Sc  Sc52  1  0.08938111  0.70725263  0.90533254  1
  Sc  Sc53  1  0.90859487  0.30808960  0.09617451  1
  Sc  Sc54  1  0.70724066  0.30316557  0.09446187  1
  Sc  Sc55  1  0.08882773  0.49372865  0.70669322  1
  Sc  Sc56  1  0.70345792  0.49445450  0.29687463  1
  Sc  Sc57  1  0.89797768  0.49876671  0.50219684  1
  Sc  Sc58  1  0.09360040  0.70448445  0.70044317  1
  Sc  Sc59  1  0.89904845  0.49848577  0.70161769  1
  Sc  Sc60  1  0.90504262  0.90142931  0.70466019  1
  Sc  Sc61  1  0.09572562  0.10867018  0.89535212  1
  Sc  Sc62  1  0.89542367  0.70429181  0.89682810  1
  Sc  Sc63  1  0.49757578  0.90928794  0.69788806  1
  Sc  Sc64  1  0.29059874  0.09475098  0.28656983  1
  Sc  Sc65  1  0.69588791  0.09845116  0.30875415  1
  Sc  Sc66  1  0.70599905  0.89463078  0.89630971  1
  Sc  Sc67  1  0.09942863  0.10372447  0.10762431  1
  Sc  Sc68  1  0.29886652  0.49870565  0.90087369  1
  Sc  Sc69  1  0.89412256  0.30257984  0.50320739  1
  Sc  Sc70  1  0.29909758  0.28594724  0.69711204  1
  Sc  Sc71  1  0.50384669  0.69849650  0.69690185  1
  Sc  Sc72  1  0.09739608  0.29758057  0.70861195  1
  Sc  Sc73  1  0.29884511  0.50371398  0.30026675  1
  Sc  Sc74  1  0.90240643  0.30233996  0.70154034  1
  Sc  Sc75  1  0.10135490  0.90513416  0.50062996  1
  Sc  Sc76  1  0.70382976  0.29472305  0.70232627  1
  Sc  Sc77  1  0.50840308  0.28885245  0.89343299  1
  Sc  Sc78  1  0.90189623  0.90390977  0.90274935  1
  Sc  Sc79  1  0.90089740  0.69734711  0.50056419  1
  Sc  Sc80  1  0.70280259  0.29878017  0.89172137  1
  Sc  Sc81  1  0.70266076  0.29903313  0.49318228  1
  Sc  Sc82  1  0.49477311  0.09971704  0.89302586  1
  Sc  Sc83  1  0.70654042  0.49504101  0.49870648  1
  Sc  Sc84  1  0.70600058  0.69832813  0.10336958  1
  Sc  Sc85  1  0.09858194  0.89678286  0.70126237  1
  Sc  Sc86  1  0.50081313  0.09407045  0.30134032  1
  Sc  Sc87  1  0.70033161  0.09519110  0.09870789  1
  Sc  Sc88  1  0.90211325  0.49623024  0.90201531  1
  Sc  Sc89  1  0.90799081  0.89198704  0.50200996  1
  Sc  Sc90  1  0.09684884  0.90470022  0.89869559  1
  Sc  Sc91  1  0.89947724  0.29817730  0.30307903  1
  Sc  Sc92  1  0.69796270  0.89977762  0.70255361  1
  Sc  Sc93  1  0.88903034  0.70485876  0.30956398  1
  Sc  Sc94  1  0.50303592  0.09607821  0.50256081  1
  Sc  Sc95  1  0.69646329  0.89938815  0.50505079  1
  Sc  Sc96  1  0.89249009  0.49964437  0.30275228  1
  Sc  Sc97  1  0.10054674  0.30349417  0.90139221  1
  Sc  Sc98  1  0.28746242  0.70738946  0.10790640  1
  Sc  Sc99  1  0.29370998  0.91256420  0.89880354  1
  Nb  Nb100  1  0.70474539  0.09864739  0.70239622  1
  Nb  Nb101  1  0.70154220  0.69916786  0.30502991  1
  Nb  Nb102  1  0.90166250  0.50153382  0.09558381  1
  Nb  Nb103  1  0.89981032  0.10221279  0.89315414  1
  Nb  Nb104  1  0.29665651  0.29845299  0.49831561  1
  Nb  Nb105  1  0.08729369  0.09947807  0.30375464  1
  Nb  Nb106  1  0.30107323  0.29530962  0.10578626  1
  Nb  Nb107  1  0.09502166  0.69338703  0.10263786  1
  Nb  Nb108  1  0.09805870  0.10222113  0.49272322  1
  Nb  Nb109  1  0.90819307  0.29117953  0.89791582  1
  Nb  Nb110  1  0.30429416  0.69268069  0.90018435  1
  Nb  Nb111  1  0.70135668  0.29709304  0.30085609  1
  Nb  Nb112  1  0.29900084  0.49803094  0.70000635  1
  Nb  Nb113  1  0.71153006  0.49940787  0.09506681  1
  Nb  Nb114  1  0.70200914  0.10521510  0.89091214  1
  Nb  Nb115  1  0.89762312  0.10194528  0.71111031  1
  Nb  Nb116  1  0.49655276  0.69835166  0.90474602  1
  Nb  Nb117  1  0.10205507  0.49741445  0.90258591  1
  Nb  Nb118  1  0.69800436  0.49564779  0.89801158  1
  Nb  Nb119  1  0.29356440  0.29853401  0.90431887  1
  Nb  Nb120  1  0.49644408  0.30096239  0.70036164  1
  Nb  Nb121  1  0.08619440  0.50648079  0.09676314  1
  Nb  Nb122  1  0.29771644  0.29631907  0.28528641  1
  Nb  Nb123  1  0.91357291  0.09651258  0.29633336  1
  Nb  Nb124  1  0.30306115  0.09823673  0.70768387  1
  Nb  Nb125  1  0.60158305  0.40554701  -0.00199930  1
  Nb  Nb126  1  0.59519200  0.39583472  0.60260642  1
  Nb  Nb127  1  0.19792349  0.19815677  0.39833479  1
  Nb  Nb128  1  0.20223890  0.59423270  0.60564016  1
  Nb  Nb129  1  0.40469041  0.60262727  0.20040384  1
  Nb  Nb130  1  0.80055272  0.19784214  0.19971711  1
  Nb  Nb131  1  0.39981645  0.39251460  -0.00130360  1
  Nb  Nb132  1  0.60351856  0.00263466  -0.00535629  1
  Nb  Nb133  1  0.80730252  0.00282945  0.40527816  1
  Nb  Nb134  1  0.80719143  0.19439563  -0.00493449  1
  Nb  Nb135  1  0.39571303  0.39355960  0.80207240  1
  Nb  Nb136  1  0.39771545  0.79605695  -0.00422724  1
  Nb  Nb137  1  0.80411639  0.00987257  0.60195300  1
  Nb  Nb138  1  0.39430383  0.59797171  0.59892338  1
  Nb  Nb139  1  0.39912784  0.79565153  0.80760275  1
  Nb  Nb140  1  0.60398497  0.60281509  0.39815746  1
  Nb  Nb141  1  0.60616512  0.20460659  0.20164061  1
  Nb  Nb142  1  0.00928192  0.39772335  0.39976157  1
  Nb  Nb143  1  0.19126118  0.59865688  -0.00105075  1
  Nb  Nb144  1  0.19940450  0.59910451  0.80326356  1
  Nb  Nb145  1  0.20386588  0.39997517  0.59730455  1
  Nb  Nb146  1  0.38689551  0.20365226  0.39763812  1
  Nb  Nb147  1  0.00315791  0.79408480  0.19748666  1
  Nb  Nb148  1  0.19857451  0.38801277  0.39949015  1
  Nb  Nb149  1  0.60042875  0.59821501  0.80605175  1
  Pd  Pd150  1  0.80792313  0.19236963  0.39190052  1
  Pd  Pd151  1  -0.00377198  0.80475656  0.80410485  1
  Pd  Pd152  1  0.60761065  -0.00506578  0.40365244  1
  Pd  Pd153  1  -0.01366519  0.60628109  0.21124558  1
  Pd  Pd154  1  0.40132031  0.20638777  -0.00972135  1
  Pd  Pd155  1  0.61394469  0.39606485  0.19260061  1
  Pd  Pd156  1  0.79636782  0.60016390  0.80632738  1
  Pd  Pd157  1  0.61303344  0.59549959  -0.00119603  1
  Pd  Pd158  1  0.00424253  0.59959184  0.80495268  1
  Pd  Pd159  1  0.20259235  0.79640487  0.81075758  1
  Pd  Pd160  1  0.20458874  0.79315880  -0.00964157  1
  Pd  Pd161  1  0.59312304  0.79506820  0.79336545  1
  Pd  Pd162  1  0.00491940  0.80187741  0.39272515  1
  Pd  Pd163  1  0.80089624  0.39338167  -0.00816313  1
  Pd  Pd164  1  0.20330247  0.40453636  0.00418043  1
  Pd  Pd165  1  -0.00532373  0.59484337  0.39298137  1
  Pd  Pd166  1  0.80159671  -0.00675567  0.79746894  1
  Pd  Pd167  1  0.39994009  0.79482602  0.19144771  1
  Pd  Pd168  1  0.20352088  0.39907902  0.79345510  1
  Pd  Pd169  1  0.38960093  0.39314052  0.38630521  1
  Pd  Pd170  1  0.79244349  0.00965450  0.21087795  1
  Pd  Pd171  1  0.79327656  0.00513506  -0.00969990  1
  Pd  Pd172  1  0.40127390  0.19486114  0.59608586  1
  Pd  Pd173  1  0.00058644  0.19948320  0.00537328  1
  Pd  Pd174  1  0.80610742  0.59518226  0.59807738  1
  Pd  Pd175  1  0.39887426  0.00561376  0.20079286  1
  Pd  Pd176  1  0.60000623  0.20761856  0.60353832  1
  Pd  Pd177  1  0.80225908  0.60100103  0.20235677  1
  Pd  Pd178  1  0.79895051  0.59970910  -0.00961505  1
  Pd  Pd179  1  0.00629367  0.00332160  -0.00128146  1
  Pd  Pd180  1  0.60201958  0.00240353  0.80387024  1
  Pd  Pd181  1  -0.00209961  0.00206532  0.60368102  1
  Pd  Pd182  1  0.19089480  0.00055700  0.60724242  1
  Pd  Pd183  1  0.39985436  0.60153279  0.79114319  1
  Pd  Pd184  1  0.20568854  0.00545368  0.39947135  1
  Pd  Pd185  1  0.80448466  0.81055041  0.60254792  1
  Pd  Pd186  1  0.18939772  0.01195191  -0.00068573  1
  Pd  Pd187  1  0.59541264  0.80705961  0.60555988  1
  Pd  Pd188  1  0.58889703  0.20118536  0.39717154  1
  Pd  Pd189  1  0.80672615  0.20013891  0.60465577  1
  Pd  Pd190  1  0.61147367  0.20013278  0.00283548  1
  Pd  Pd191  1  0.38974028  0.00850760  0.39917752  1
  Pd  Pd192  1  0.80864573  0.39568382  0.80302140  1
  Pd  Pd193  1  0.80461564  0.39304601  0.19999408  1
  Pd  Pd194  1  0.59230163  0.40161985  0.80124916  1
  Pd  Pd195  1  0.00281323  0.39998996  0.59778654  1
  Pd  Pd196  1  0.18995447  0.00741628  0.79388699  1
  Pd  Pd197  1  0.60260550  0.79998922  0.40535342  1
  Pd  Pd198  1  -0.00931619  0.40417228  0.20421871  1
  Pd  Pd199  1  0.38627726  0.60193868  0.01626440  1
  Rh  Rh200  1  0.39680999  0.39956135  0.61018797  1
  Rh  Rh201  1  0.79206445  0.59959075  0.40338854  1
  Rh  Rh202  1  0.60302255  0.19662594  0.79256473  1
  Rh  Rh203  1  0.59789756  0.80749494  0.00418669  1
  Rh  Rh204  1  0.80347718  0.20365754  0.80366013  1
  Rh  Rh205  1  0.80738102  0.78906943  0.19627628  1
  Rh  Rh206  1  -0.00066545  0.40348883  -0.00407016  1
  Rh  Rh207  1  0.79660973  0.80711962  0.40894979  1
  Rh  Rh208  1  0.19992709  0.19999880  0.79916556  1
  Rh  Rh209  1  0.39350077  0.40922304  0.19973391  1
  Rh  Rh210  1  0.00120557  0.59588768  -0.01053766  1
  Rh  Rh211  1  0.61000923  0.40264561  0.40563852  1
  Rh  Rh212  1  0.19532922  0.00272886  0.19431128  1
  Rh  Rh213  1  0.19525457  0.20218657  0.00138631  1
  Rh  Rh214  1  0.19040044  0.79866276  0.59489802  1
  Rh  Rh215  1  0.39463023  0.20655878  0.80366583  1
  Rh  Rh216  1  0.00122422  0.59935668  0.60507717  1
  Rh  Rh217  1  0.00033461  0.20100120  0.79752857  1
  Rh  Rh218  1  0.19520180  0.80616045  0.40233603  1
  Rh  Rh219  1  0.19914035  0.59641127  0.40542131  1
  Rh  Rh220  1  0.40851491  0.19303029  0.20980654  1
  Rh  Rh221  1  -0.00426577  0.80170648  0.00383148  1
  Rh  Rh222  1  0.60601848  0.00222456  0.60273811  1
  Rh  Rh223  1  -0.00622571  0.19908484  0.60976437  1
  Rh  Rh224  1  -0.00532505  -0.00460505  0.40621241  1
  Rh  Rh225  1  0.00139411  0.20926204  0.39573939  1
  Rh  Rh226  1  -0.00831797  0.20183990  0.19338967  1
  Rh  Rh227  1  0.00087752  0.79833508  0.60168829  1
  Rh  Rh228  1  0.39707690  -0.00418217  0.79777941  1
  Rh  Rh229  1  0.40676984  -0.00488135  -0.00184495  1
  Rh  Rh230  1  0.60391484  0.00672405  0.19573015  1
  Rh  Rh231  1  -0.00319395  0.39734983  0.80777618  1
  Rh  Rh232  1  0.41098141  0.60651062  0.39514345  1
  Rh  Rh233  1  0.79176851  0.39718112  0.60306391  1
  Rh  Rh234  1  0.20021360  0.40342120  0.19763063  1
  Rh  Rh235  1  0.60741738  0.60038254  0.20591985  1
  Rh  Rh236  1  0.80651461  0.39732921  0.39857864  1
  Rh  Rh237  1  0.19574340  0.19371113  0.19891459  1
  Rh  Rh238  1  0.19782039  0.19889710  0.60324674  1
  Rh  Rh239  1  0.60938762  0.79639124  0.19587319  1
  Rh  Rh240  1  0.40097845  0.00674302  0.60519899  1
  Rh  Rh241  1  0.40239289  0.80611542  0.39693285  1
  Rh  Rh242  1  0.00232605  0.00398257  0.79985277  1
  Rh  Rh243  1  0.59536505  0.58869207  0.59875912  1
  Rh  Rh244  1  0.80387366  0.80249072  0.79614620  1
  Rh  Rh245  1  0.40610321  0.79643269  0.60881806  1
  Rh  Rh246  1  0.80297850  0.79724781  -0.00028472  1
  Rh  Rh247  1  0.00790241  -0.01032612  0.19121737  1
  Rh  Rh248  1  0.19251455  0.80380396  0.20296489  1
  Rh  Rh249  1  0.20625864  0.59564433  0.19042873  1
