# generated using pymatgen
data_ZrScNbPdRh
_symmetry_space_group_name_H-M   'P 1'
_cell_length_a   16.56191279
_cell_length_b   16.56072299
_cell_length_c   16.55893270
_cell_angle_alpha   89.99230516
_cell_angle_beta   90.02883512
_cell_angle_gamma   90.00097712
_symmetry_Int_Tables_number   1
_chemical_formula_structural   ZrScNbPdRh
_chemical_formula_sum   'Zr50 Sc50 Nb50 Pd50 Rh50'
_cell_volume   4541.73790574
_cell_formula_units_Z   50
loop_
 _symmetry_equiv_pos_site_id
 _symmetry_equiv_pos_as_xyz
  1  'x, y, z'
loop_
 _atom_site_type_symbol
 _atom_site_label
 _atom_site_symmetry_multiplicity
 _atom_site_fract_x
 _atom_site_fract_y
 _atom_site_fract_z
 _atom_site_occupancy
  Zr  Zr0  1  0.50039720  0.47828249  0.30590142  1
  Zr  Zr1  1  0.09518028  0.29875118  0.89852077  1
  Zr  Zr2  1  0.70010554  0.09989921  0.89956166  1
  Zr  Zr3  1  0.10029068  0.29044447  0.10285609  1
  Zr  Zr4  1  0.50019602  0.70834100  0.91344395  1
  Zr  Zr5  1  0.69833166  0.70321542  0.69577385  1
  Zr  Zr6  1  0.31246557  0.89602092  0.29819750  1
  Zr  Zr7  1  0.69231442  0.69779468  0.10387861  1
  Zr  Zr8  1  0.29879505  0.49393182  0.90375762  1
  Zr  Zr9  1  0.89070231  0.69058486  0.09844111  1
  Zr  Zr10  1  0.30052181  0.09898983  0.29501250  1
  Zr  Zr11  1  0.10949051  0.90456423  0.50752963  1
  Zr  Zr12  1  0.89562887  0.10798946  0.49857223  1
  Zr  Zr13  1  0.49611516  0.11286500  0.70221081  1
  Zr  Zr14  1  0.49362418  0.70788158  0.28883837  1
  Zr  Zr15  1  0.69886226  0.50025510  0.49660974  1
  Zr  Zr16  1  0.90138235  0.30127991  0.89800894  1
  Zr  Zr17  1  0.10183470  0.29991279  0.70235624  1
  Zr  Zr18  1  0.10437639  0.10270581  0.91031781  1
  Zr  Zr19  1  0.89751447  0.29353968  0.70436692  1
  Zr  Zr20  1  0.49707044  0.91649815  0.69881232  1
  Zr  Zr21  1  0.30268816  0.91615325  0.09486281  1
  Zr  Zr22  1  0.49386588  0.29437084  0.90032448  1
  Zr  Zr23  1  0.29972053  0.70078480  0.90586268  1
  Zr  Zr24  1  0.31279585  0.69106323  0.10190805  1
  Zr  Zr25  1  0.29614861  0.49515695  0.30088967  1
  Zr  Zr26  1  0.50163224  0.69621301  0.51273605  1
  Zr  Zr27  1  0.69745483  0.70799442  0.30108509  1
  Zr  Zr28  1  0.89624830  0.10207826  0.29543592  1
  Zr  Zr29  1  0.70874862  0.49181382  0.90117401  1
  Zr  Zr30  1  0.90154444  0.49547170  0.29723150  1
  Zr  Zr31  1  0.70850361  0.50512102  0.09911137  1
  Zr  Zr32  1  0.69637071  0.90557480  0.89988665  1
  Zr  Zr33  1  0.69719164  0.70772273  0.50150885  1
  Zr  Zr34  1  0.90364464  0.29778851  0.49846699  1
  Zr  Zr35  1  0.09395218  0.89564039  0.89020307  1
  Zr  Zr36  1  0.49912399  0.10402206  0.30627382  1
  Zr  Zr37  1  0.10572663  0.49206298  0.50028576  1
  Zr  Zr38  1  0.30045577  0.69370386  0.29271040  1
  Zr  Zr39  1  0.50424009  0.51089230  0.69400050  1
  Zr  Zr40  1  0.29958017  0.10725485  0.50068755  1
  Zr  Zr41  1  0.90399447  0.50368964  0.91204077  1
  Zr  Zr42  1  0.09985659  0.70610080  0.49871182  1
  Zr  Zr43  1  0.10226967  0.29972749  0.29593239  1
  Zr  Zr44  1  0.69311910  0.10755695  0.69287997  1
  Zr  Zr45  1  0.29848204  0.70156674  0.49652269  1
  Zr  Zr46  1  0.90948024  0.29484985  0.29455222  1
  Zr  Zr47  1  0.89806091  0.09522465  0.89194422  1
  Zr  Zr48  1  0.29309683  0.90337228  0.69650189  1
  Zr  Zr49  1  0.69667624  0.08991814  0.30379246  1
  Sc  Sc50  1  0.69611290  0.89869785  0.49844507  1
  Sc  Sc51  1  0.48869241  0.09760965  0.10209897  1
  Sc  Sc52  1  0.10318899  0.70048137  0.29827156  1
  Sc  Sc53  1  0.89084696  0.69999029  0.50383352  1
  Sc  Sc54  1  0.30255168  0.29759055  0.09512500  1
  Sc  Sc55  1  0.49562334  0.29869551  0.10971878  1
  Sc  Sc56  1  0.30544179  0.10159926  0.69582693  1
  Sc  Sc57  1  0.10315485  0.10957590  0.50739564  1
  Sc  Sc58  1  0.29214796  0.29801818  0.49898941  1
  Sc  Sc59  1  0.51127226  0.49776180  0.89642968  1
  Sc  Sc60  1  0.69430106  0.70974786  0.89986558  1
  Sc  Sc61  1  0.10300799  0.68940881  0.09803246  1
  Sc  Sc62  1  0.49681028  0.90236215  0.10018736  1
  Sc  Sc63  1  0.30515260  0.70688248  0.69172099  1
  Sc  Sc64  1  0.50493400  0.10005836  0.50575672  1
  Sc  Sc65  1  0.50616146  0.70386682  0.69957804  1
  Sc  Sc66  1  0.30756662  0.10167759  0.90540625  1
  Sc  Sc67  1  0.30483600  0.29945350  0.30127430  1
  Sc  Sc68  1  0.71055688  0.10202381  0.10783767  1
  Sc  Sc69  1  0.71107980  0.30100313  0.89542236  1
  Sc  Sc70  1  0.89443026  0.70715490  0.29854139  1
  Sc  Sc71  1  0.69993257  0.89915412  0.70163335  1
  Sc  Sc72  1  0.09320393  0.49438049  0.90075041  1
  Sc  Sc73  1  0.70169711  0.30116049  0.70393299  1
  Sc  Sc74  1  0.09173363  0.69236725  0.89613165  1
  Sc  Sc75  1  0.09299934  0.49592023  0.70152753  1
  Sc  Sc76  1  0.90134698  0.70017822  0.70252903  1
  Sc  Sc77  1  0.68730407  0.28990043  0.29608056  1
  Sc  Sc78  1  0.69693417  0.50052385  0.29803056  1
  Sc  Sc79  1  0.49964050  0.29403298  0.48615117  1
  Sc  Sc80  1  0.90180540  0.49755227  0.70083050  1
  Sc  Sc81  1  0.29679592  0.49651541  0.69236415  1
  Sc  Sc82  1  0.89954377  0.90122355  0.49807756  1
  Sc  Sc83  1  0.09995117  0.49081352  0.09849115  1
  Sc  Sc84  1  0.29779668  0.29431704  0.90089407  1
  Sc  Sc85  1  0.09513808  0.09710565  0.69840140  1
  Sc  Sc86  1  0.89995704  0.49936124  0.50675941  1
  Sc  Sc87  1  0.09187314  0.89249865  0.29543191  1
  Sc  Sc88  1  0.29928660  0.50054641  0.10453336  1
  Sc  Sc89  1  0.90296251  0.29333970  0.09692540  1
  Sc  Sc90  1  0.69647837  0.90930847  0.10515320  1
  Sc  Sc91  1  0.30258087  0.89667693  0.50352352  1
  Sc  Sc92  1  0.50300312  0.90762174  0.29994868  1
  Sc  Sc93  1  0.09472915  0.70290416  0.70783989  1
  Sc  Sc94  1  0.29956167  0.29142191  0.69612425  1
  Sc  Sc95  1  0.89908538  0.89907076  0.29119278  1
  Sc  Sc96  1  0.09296485  0.91791613  0.09878731  1
  Sc  Sc97  1  0.10648770  0.49016162  0.29333340  1
  Sc  Sc98  1  0.69899611  0.49585236  0.70810219  1
  Sc  Sc99  1  0.69955999  0.28906670  0.50277162  1
  Nb  Nb100  1  0.70265098  0.29728129  0.09772005  1
  Nb  Nb101  1  0.70015568  0.09828521  0.50219475  1
  Nb  Nb102  1  0.09854079  0.90323309  0.70033125  1
  Nb  Nb103  1  0.49927560  0.29526005  0.30410544  1
  Nb  Nb104  1  0.89711160  0.49965239  0.09860963  1
  Nb  Nb105  1  0.50888505  0.89766326  0.49909227  1
  Nb  Nb106  1  0.90361502  0.90049751  0.09416297  1
  Nb  Nb107  1  0.28654905  0.10045211  0.09606043  1
  Nb  Nb108  1  0.29993212  0.90374884  0.89961021  1
  Nb  Nb109  1  0.10011873  0.10107083  0.28831251  1
  Nb  Nb110  1  0.49936538  0.49921731  0.49879449  1
  Nb  Nb111  1  0.49747544  0.69154090  0.10145050  1
  Nb  Nb112  1  0.90889263  0.91591038  0.71544819  1
  Nb  Nb113  1  0.89694488  0.09715111  0.70105674  1
  Nb  Nb114  1  0.30173973  0.49850455  0.49799319  1
  Nb  Nb115  1  0.49913492  0.09945855  0.89704582  1
  Nb  Nb116  1  0.68988932  0.90057656  0.30448248  1
  Nb  Nb117  1  0.49422595  0.91324711  0.90114521  1
  Nb  Nb118  1  0.50598970  0.50569083  0.10327771  1
  Nb  Nb119  1  0.10439078  0.30265574  0.50235230  1
  Nb  Nb120  1  0.50010549  0.30287184  0.69913809  1
  Nb  Nb121  1  0.90188242  0.70054725  0.90176822  1
  Nb  Nb122  1  0.91134354  0.08560086  0.10019802  1
  Nb  Nb123  1  0.10784473  0.09939578  0.10458786  1
  Nb  Nb124  1  0.89843889  0.90214383  0.89583787  1
  Nb  Nb125  1  0.39774120  0.60220297  0.80191757  1
  Nb  Nb126  1  0.00655120  0.00761560  0.39674026  1
  Nb  Nb127  1  0.59270071  0.39930570  0.59775666  1
  Nb  Nb128  1  0.20650537  0.80123992  0.18816427  1
  Nb  Nb129  1  0.80226805  0.60418507  0.80800539  1
  Nb  Nb130  1  0.20085517  -0.00438761  0.80114229  1
  Nb  Nb131  1  0.59199974  0.60272082  0.40087647  1
  Nb  Nb132  1  0.19569074  0.00331995  0.39515010  1
  Nb  Nb133  1  0.80540673  0.80621757  -0.00163177  1
  Nb  Nb134  1  0.80062824  0.39388287  0.39463411  1
  Nb  Nb135  1  0.40403971  0.40239943  0.79205759  1
  Nb  Nb136  1  0.00056684  0.81188496  0.60802628  1
  Nb  Nb137  1  0.20708833  0.59805631  0.79724617  1
  Nb  Nb138  1  0.00098865  0.59844301  0.39762387  1
  Nb  Nb139  1  0.79957437  0.39516841  0.19761052  1
  Nb  Nb140  1  0.19806798  0.60011636  0.59805747  1
  Nb  Nb141  1  0.40520664  0.40077269  0.59579520  1
  Nb  Nb142  1  0.40429665  0.59465747  0.40259175  1
  Nb  Nb143  1  0.60423926  0.39427312  0.00777937  1
  Nb  Nb144  1  0.19837243  0.80483461  0.00163003  1
  Nb  Nb145  1  -0.00490608  0.80221797  -0.00163689  1
  Nb  Nb146  1  -0.00510694  0.59528766  0.20112926  1
  Nb  Nb147  1  0.80257161  0.00633789  0.60276787  1
  Nb  Nb148  1  0.60038545  0.20174668  0.00091419  1
  Nb  Nb149  1  0.40155166  0.80772659  0.80789568  1
  Pd  Pd150  1  0.79439290  0.80884627  0.19332264  1
  Pd  Pd151  1  0.80073305  0.59572485  0.39605790  1
  Pd  Pd152  1  0.19319063  0.59921126  -0.00574333  1
  Pd  Pd153  1  0.80315938  -0.00681231  0.40406521  1
  Pd  Pd154  1  0.00191204  0.20330191  0.60545336  1
  Pd  Pd155  1  0.60263240  0.60680485  0.80766430  1
  Pd  Pd156  1  0.60238072  0.00398088  0.79592465  1
  Pd  Pd157  1  0.00485720  0.60893446  0.59597017  1
  Pd  Pd158  1  0.19567924  0.19791859  0.39415164  1
  Pd  Pd159  1  0.00003150  0.39324986  0.60272432  1
  Pd  Pd160  1  0.59424370  0.59574009  0.21178479  1
  Pd  Pd161  1  0.19718607  0.59662888  0.40095539  1
  Pd  Pd162  1  0.40756377  0.80664665  0.60571590  1
  Pd  Pd163  1  -0.00674295  0.80033838  0.40653052  1
  Pd  Pd164  1  0.19875427  -0.01080606  0.20914715  1
  Pd  Pd165  1  0.19713284  0.39347557  0.00275231  1
  Pd  Pd166  1  0.80168427  -0.00193023  0.00191787  1
  Pd  Pd167  1  0.20605575  0.79650453  0.80150442  1
  Pd  Pd168  1  0.60299447  0.80896148  0.01004302  1
  Pd  Pd169  1  0.58884989  0.80752634  0.79812923  1
  Pd  Pd170  1  0.81088511  0.81423607  0.61005234  1
  Pd  Pd171  1  0.79171497  0.39652357  0.59572117  1
  Pd  Pd172  1  0.20395636  0.18819979  0.79852189  1
  Pd  Pd173  1  0.39884817  0.00189726  0.59058550  1
  Pd  Pd174  1  0.80177025  0.81006598  0.39806107  1
  Pd  Pd175  1  0.20600662  0.40295508  0.79494031  1
  Pd  Pd176  1  0.39652658  0.39990193  0.19577214  1
  Pd  Pd177  1  0.00768313  0.79047116  0.18616278  1
  Pd  Pd178  1  0.60607608  0.39620539  0.19454500  1
  Pd  Pd179  1  0.01233703  0.19420294  0.39977305  1
  Pd  Pd180  1  0.59571684  0.01173495  0.00801870  1
  Pd  Pd181  1  0.60403509  0.59431030  -0.00559340  1
  Pd  Pd182  1  0.80050826  -0.00731043  0.20219804  1
  Pd  Pd183  1  0.20102790  0.80951486  0.38755192  1
  Pd  Pd184  1  0.79175147  0.20616427  0.39175058  1
  Pd  Pd185  1  0.39684988  0.80754045  0.00372131  1
  Pd  Pd186  1  0.59534104  0.80870246  0.19412837  1
  Pd  Pd187  1  0.79673228  0.59544493  0.61120853  1
  Pd  Pd188  1  0.40715601  0.58648216  -0.00556184  1
  Pd  Pd189  1  0.41079367  0.40484015  -0.00020548  1
  Pd  Pd190  1  0.39377942  0.19862952  0.19833613  1
  Pd  Pd191  1  -0.00125867  0.40453086  0.40266690  1
  Pd  Pd192  1  -0.00641874  -0.00082385  0.59169266  1
  Pd  Pd193  1  -0.00590284  0.19239037  0.00330589  1
  Pd  Pd194  1  0.60402377  0.20744227  0.80670514  1
  Pd  Pd195  1  0.40933029  0.79571947  0.40553690  1
  Pd  Pd196  1  0.39834435  0.00092994  0.40833426  1
  Pd  Pd197  1  0.80483709  0.79793895  0.80054817  1
  Pd  Pd198  1  0.80299004  0.19465098  0.00265208  1
  Pd  Pd199  1  0.59750981  0.19157982  0.19271288  1
  Rh  Rh200  1  0.60939788  0.39648143  0.40617428  1
  Rh  Rh201  1  0.80078210  0.19770902  0.60387543  1
  Rh  Rh202  1  0.20561854  0.39202367  0.19546712  1
  Rh  Rh203  1  -0.00135250  0.19037813  0.19128617  1
  Rh  Rh204  1  0.39953769  0.19941380  0.40059963  1
  Rh  Rh205  1  0.19177927  0.60057525  0.19983215  1
  Rh  Rh206  1  0.80502978  0.20253226  0.19859857  1
  Rh  Rh207  1  0.40982243  0.58412302  0.20953955  1
  Rh  Rh208  1  0.60205468  0.19298875  0.40257569  1
  Rh  Rh209  1  -0.00119720  0.00172315  0.20668691  1
  Rh  Rh210  1  0.80036929  0.39203733  0.00731605  1
  Rh  Rh211  1  0.39325187  0.39578724  0.40614988  1
  Rh  Rh212  1  0.19576768  0.20202537  0.60534792  1
  Rh  Rh213  1  0.20344493  0.40034640  0.60021716  1
  Rh  Rh214  1  -0.00398775  0.39963146  0.80112734  1
  Rh  Rh215  1  -0.00023535  0.39485313  0.00496220  1
  Rh  Rh216  1  0.60804893  -0.00258238  0.59544789  1
  Rh  Rh217  1  0.39838099  0.80527736  0.18793397  1
  Rh  Rh218  1  0.39543993  0.20432591  0.79996251  1
  Rh  Rh219  1  0.00343328  0.60188543  0.00806846  1
  Rh  Rh220  1  0.40343742  0.20819133  0.59390508  1
  Rh  Rh221  1  0.19617100  -0.00413460  -0.00863639  1
  Rh  Rh222  1  0.20440515  0.00849511  0.60185650  1
  Rh  Rh223  1  0.01051153  0.01114584  0.80627286  1
  Rh  Rh224  1  0.59510884  0.20875361  0.59612254  1
  Rh  Rh225  1  0.20194183  0.39170256  0.39947361  1
  Rh  Rh226  1  0.40193856  0.00807330  -0.00211213  1
  Rh  Rh227  1  0.40085093  0.00588450  0.20023311  1
  Rh  Rh228  1  0.39223085  0.00125796  0.80228389  1
  Rh  Rh229  1  -0.00896633  0.79911967  0.79751944  1
  Rh  Rh230  1  0.59423711  0.39263793  0.79971986  1
  Rh  Rh231  1  0.00145818  0.19498028  0.79835763  1
  Rh  Rh232  1  0.20199791  0.20449116  0.00149763  1
  Rh  Rh233  1  0.81103483  0.40834761  0.80007900  1
  Rh  Rh234  1  0.40282367  0.19427615  0.00337438  1
  Rh  Rh235  1  0.59333713  0.79615113  0.39981045  1
  Rh  Rh236  1  0.80425269  0.59563327  0.20829774  1
  Rh  Rh237  1  -0.00551403  0.40285484  0.18992581  1
  Rh  Rh238  1  0.78964650  0.61358321  -0.01071754  1
  Rh  Rh239  1  0.20703365  0.20396726  0.19998975  1
  Rh  Rh240  1  0.78917946  0.00456174  0.79160329  1
  Rh  Rh241  1  0.61277297  0.59471001  0.59465197  1
  Rh  Rh242  1  0.59655921  0.81120592  0.60587067  1
  Rh  Rh243  1  0.59707138  0.00101516  0.40579163  1
  Rh  Rh244  1  -0.00323697  0.59531675  0.80160239  1
  Rh  Rh245  1  0.38738320  0.59477541  0.59801955  1
  Rh  Rh246  1  0.59694813  0.00375848  0.20208181  1
  Rh  Rh247  1  0.18874257  0.79000322  0.60809741  1
  Rh  Rh248  1  0.00041570  -0.00032713  -0.00833250  1
  Rh  Rh249  1  0.79832307  0.19564160  0.79675486  1
