# generated using pymatgen
data_ZrScNbPdRh
_symmetry_space_group_name_H-M   'P 1'
_cell_length_a   16.57089343
_cell_length_b   16.56255408
_cell_length_c   16.56306937
_cell_angle_alpha   90.02744642
_cell_angle_beta   89.99623165
_cell_angle_gamma   90.01537805
_symmetry_Int_Tables_number   1
_chemical_formula_structural   ZrScNbPdRh
_chemical_formula_sum   'Zr50 Sc50 Nb50 Pd50 Rh50'
_cell_volume   4545.83834710
_cell_formula_units_Z   50
loop_
 _symmetry_equiv_pos_site_id
 _symmetry_equiv_pos_as_xyz
  1  'x, y, z'
loop_
 _atom_site_type_symbol
 _atom_site_label
 _atom_site_symmetry_multiplicity
 _atom_site_fract_x
 _atom_site_fract_y
 _atom_site_fract_z
 _atom_site_occupancy
  Zr  Zr0  1  0.09389294  0.10181303  0.49679346  1
  Zr  Zr1  1  0.10547550  0.09751615  0.70253560  1
  Zr  Zr2  1  0.89494995  0.70430269  0.28964898  1
  Zr  Zr3  1  0.71494407  0.90489402  0.50205082  1
  Zr  Zr4  1  0.69855149  0.49642131  0.70360987  1
  Zr  Zr5  1  0.90628949  0.29685441  0.49805569  1
  Zr  Zr6  1  0.89502120  0.10390991  0.09325491  1
  Zr  Zr7  1  0.10337238  0.09256950  0.30156962  1
  Zr  Zr8  1  0.89142309  0.50689021  0.69955960  1
  Zr  Zr9  1  0.49213918  0.10842709  0.89370509  1
  Zr  Zr10  1  0.28844839  0.49302383  0.51196870  1
  Zr  Zr11  1  0.49908536  0.90309116  0.30203123  1
  Zr  Zr12  1  0.11449340  0.50272108  0.69634917  1
  Zr  Zr13  1  0.70517025  0.70155017  0.10586382  1
  Zr  Zr14  1  0.50419658  0.70187041  0.30540886  1
  Zr  Zr15  1  0.69859288  0.70053202  0.49077202  1
  Zr  Zr16  1  0.30028634  0.68852363  0.29382685  1
  Zr  Zr17  1  0.89853487  0.09785658  0.90107358  1
  Zr  Zr18  1  0.10847229  0.29670603  0.89835267  1
  Zr  Zr19  1  0.30469210  0.31468401  0.09956480  1
  Zr  Zr20  1  0.89867871  0.69580495  0.10079932  1
  Zr  Zr21  1  0.69126817  0.49899775  0.30230806  1
  Zr  Zr22  1  0.29863693  0.50790778  0.10376842  1
  Zr  Zr23  1  0.30533040  0.50141947  0.69780645  1
  Zr  Zr24  1  0.30619864  0.90170585  0.69669864  1
  Zr  Zr25  1  0.69415169  0.29364825  0.29761613  1
  Zr  Zr26  1  0.70004435  0.50537945  0.08860175  1
  Zr  Zr27  1  0.90005687  0.70544828  0.89010242  1
  Zr  Zr28  1  0.49474542  0.50706772  0.50479751  1
  Zr  Zr29  1  0.30163491  0.49043406  0.90083916  1
  Zr  Zr30  1  0.29818356  0.49376868  0.28841476  1
  Zr  Zr31  1  0.49169964  0.50575177  0.29538596  1
  Zr  Zr32  1  0.10421049  0.50437050  0.90253187  1
  Zr  Zr33  1  0.89981393  0.30273991  0.69800127  1
  Zr  Zr34  1  0.70486575  0.30175050  0.49567705  1
  Zr  Zr35  1  0.69852479  0.69972541  0.90752029  1
  Zr  Zr36  1  0.69898927  0.11237225  0.10302541  1
  Zr  Zr37  1  0.69150015  0.09724681  0.29973766  1
  Zr  Zr38  1  0.90836634  0.29766436  0.91107130  1
  Zr  Zr39  1  0.70697239  0.89470963  0.89226529  1
  Zr  Zr40  1  0.90185074  0.89926795  0.30005713  1
  Zr  Zr41  1  0.91837439  0.09961097  0.29456104  1
  Zr  Zr42  1  0.09941465  0.70352153  0.90049910  1
  Zr  Zr43  1  0.10716712  0.89951813  0.49482119  1
  Zr  Zr44  1  0.90511958  0.49599351  0.09926974  1
  Zr  Zr45  1  0.70255923  0.09725639  0.50001079  1
  Zr  Zr46  1  0.69980279  0.10442684  0.70288834  1
  Zr  Zr47  1  0.30870125  0.30522548  0.70052826  1
  Zr  Zr48  1  0.89097118  0.69781641  0.49705555  1
  Zr  Zr49  1  0.29128410  0.70750681  0.91623845  1
  Sc  Sc50  1  0.70212226  0.69680348  0.70458846  1
  Sc  Sc51  1  0.89230542  0.88833056  0.10610135  1
  Sc  Sc52  1  0.50242677  0.29442904  0.08929365  1
  Sc  Sc53  1  0.29164404  0.90536185  0.30795158  1
  Sc  Sc54  1  0.70200115  0.50308333  0.50033813  1
  Sc  Sc55  1  0.49118789  0.30189916  0.30209244  1
  Sc  Sc56  1  0.10482732  0.09660721  0.89026473  1
  Sc  Sc57  1  0.09756723  0.08874024  0.10942940  1
  Sc  Sc58  1  0.09869129  0.69725784  0.29517235  1
  Sc  Sc59  1  0.10623834  0.70298012  0.70814090  1
  Sc  Sc60  1  0.10836142  0.70114169  0.10138567  1
  Sc  Sc61  1  0.70499392  0.09596225  0.91026409  1
  Sc  Sc62  1  0.10424279  0.89788903  0.11265789  1
  Sc  Sc63  1  0.10313864  0.30167125  0.49193492  1
  Sc  Sc64  1  0.31566954  0.09854332  0.49512715  1
  Sc  Sc65  1  0.69944325  0.90093226  0.08800136  1
  Sc  Sc66  1  0.89771761  0.50678703  0.90726293  1
  Sc  Sc67  1  0.49196611  0.89269817  0.70424865  1
  Sc  Sc68  1  0.49776785  0.09469120  0.30006987  1
  Sc  Sc69  1  0.91020541  0.50275557  0.29733588  1
  Sc  Sc70  1  0.49375441  0.90964643  0.09427015  1
  Sc  Sc71  1  0.30509120  0.90721432  0.90818935  1
  Sc  Sc72  1  0.49286039  0.49808587  0.10137203  1
  Sc  Sc73  1  0.30277969  0.70503450  0.49905967  1
  Sc  Sc74  1  0.90462279  0.10366377  0.69776722  1
  Sc  Sc75  1  0.90396091  0.29441360  0.09999376  1
  Sc  Sc76  1  0.50429600  0.70476622  0.89412565  1
  Sc  Sc77  1  0.50554343  0.09787703  0.09869347  1
  Sc  Sc78  1  0.48647854  0.90129800  0.49805030  1
  Sc  Sc79  1  0.10616406  0.89459903  0.70443610  1
  Sc  Sc80  1  0.90997822  0.30004377  0.29957830  1
  Sc  Sc81  1  0.09275222  0.30653204  0.09876525  1
  Sc  Sc82  1  0.10042803  0.49876353  0.10576980  1
  Sc  Sc83  1  0.30183033  0.70209840  0.69258835  1
  Sc  Sc84  1  0.09810697  0.49570488  0.30070897  1
  Sc  Sc85  1  0.49310771  0.50352114  0.70258889  1
  Sc  Sc86  1  0.69927764  0.30769663  0.70964483  1
  Sc  Sc87  1  0.11273820  0.69765413  0.49954872  1
  Sc  Sc88  1  0.89659941  0.49973182  0.48963407  1
  Sc  Sc89  1  0.69808221  0.89807423  0.30780704  1
  Sc  Sc90  1  0.51112803  0.69977658  0.10608059  1
  Sc  Sc91  1  0.50076704  0.49898126  0.89793841  1
  Sc  Sc92  1  0.29903415  0.30264439  0.31013822  1
  Sc  Sc93  1  0.10805821  0.89921000  0.89153428  1
  Sc  Sc94  1  0.10206586  0.29160083  0.69802111  1
  Sc  Sc95  1  0.30030330  0.09476288  0.30478418  1
  Sc  Sc96  1  0.49846206  0.89770032  0.89818664  1
  Sc  Sc97  1  0.49680731  0.69640957  0.69979592  1
  Sc  Sc98  1  0.48000513  0.29871929  0.49924599  1
  Sc  Sc99  1  0.89766244  0.10251925  0.50090115  1
  Nb  Nb100  1  0.09653066  0.49954154  0.50529660  1
  Nb  Nb101  1  0.69835581  0.29918444  0.10181824  1
  Nb  Nb102  1  0.29995211  0.08716281  0.09499440  1
  Nb  Nb103  1  0.29777976  0.10123486  0.89620644  1
  Nb  Nb104  1  0.29581249  0.70646905  0.10214931  1
  Nb  Nb105  1  0.89065430  0.89284590  0.70245873  1
  Nb  Nb106  1  0.69843905  0.90278620  0.69722716  1
  Nb  Nb107  1  0.31019505  0.29586398  0.90199194  1
  Nb  Nb108  1  0.69319043  0.70164580  0.29338063  1
  Nb  Nb109  1  0.29753116  0.29923369  0.50562059  1
  Nb  Nb110  1  0.69868314  0.49409002  0.89964391  1
  Nb  Nb111  1  0.90441659  0.70060503  0.69882852  1
  Nb  Nb112  1  0.49696334  0.09886141  0.69980482  1
  Nb  Nb113  1  0.29712889  0.89861540  0.50584213  1
  Nb  Nb114  1  0.50610259  0.29473549  0.70963921  1
  Nb  Nb115  1  0.09076729  0.91139689  0.30261599  1
  Nb  Nb116  1  0.29846246  0.89829294  0.09811768  1
  Nb  Nb117  1  0.30592752  0.09603504  0.70767681  1
  Nb  Nb118  1  0.89751357  0.89616405  0.50302363  1
  Nb  Nb119  1  0.49734770  0.30096726  0.88943541  1
  Nb  Nb120  1  0.49929151  0.70349493  0.50316914  1
  Nb  Nb121  1  0.09910015  0.29437491  0.29547664  1
  Nb  Nb122  1  0.50167797  0.09758853  0.50040570  1
  Nb  Nb123  1  0.68806226  0.30911386  0.90004552  1
  Nb  Nb124  1  0.89638801  0.89825572  0.89709750  1
  Nb  Nb125  1  0.60144572  0.80382585  0.59743631  1
  Nb  Nb126  1  0.00231031  0.40438102  0.79717015  1
  Nb  Nb127  1  0.39385216  0.60610466  0.00381932  1
  Nb  Nb128  1  -0.00539862  0.79820451  0.59979074  1
  Nb  Nb129  1  0.59377946  0.39271498  0.60082470  1
  Nb  Nb130  1  0.79865765  0.20690057  0.80906463  1
  Nb  Nb131  1  0.59332967  0.20069601  0.60095569  1
  Nb  Nb132  1  0.21091484  0.19532717  0.59834659  1
  Nb  Nb133  1  0.59561406  0.19712425  0.40851351  1
  Nb  Nb134  1  0.60401933  0.39741573  0.19572749  1
  Nb  Nb135  1  -0.00188620  -0.01321621  0.60028307  1
  Nb  Nb136  1  0.20586561  0.19966000  0.19448494  1
  Nb  Nb137  1  0.20403448  0.00428812  0.59915350  1
  Nb  Nb138  1  0.00215067  0.40776142  0.60119265  1
  Nb  Nb139  1  0.21094254  0.19528353  0.00389917  1
  Nb  Nb140  1  0.38934698  0.19613376  0.19271449  1
  Nb  Nb141  1  0.59521604  -0.00058488  0.60337891  1
  Nb  Nb142  1  0.59933507  0.00148432  0.79334319  1
  Nb  Nb143  1  0.79276109  0.39663327  0.19652380  1
  Nb  Nb144  1  -0.00131934  0.80304109  0.40309595  1
  Nb  Nb145  1  -0.00109023  0.80394540  -0.00517258  1
  Nb  Nb146  1  -0.00033558  0.60183016  0.60021365  1
  Nb  Nb147  1  -0.00562620  -0.01083626  -0.00440507  1
  Nb  Nb148  1  0.39306590  0.80219854  0.19656746  1
  Nb  Nb149  1  0.79790325  0.00565643  0.19949021  1
  Pd  Pd150  1  0.19997863  0.39316400  0.79577146  1
  Pd  Pd151  1  0.79459091  0.20403546  0.60784975  1
  Pd  Pd152  1  0.60065405  0.59682576  0.80272547  1
  Pd  Pd153  1  0.39669938  0.19514482  0.00635129  1
  Pd  Pd154  1  0.79647761  0.59985968  0.38745780  1
  Pd  Pd155  1  0.59716474  0.59944807  0.40187726  1
  Pd  Pd156  1  0.59916594  0.81011296  0.41054683  1
  Pd  Pd157  1  0.79910743  0.00673964  0.79414512  1
  Pd  Pd158  1  0.39309767  0.79424716  0.80352742  1
  Pd  Pd159  1  0.59670052  0.81269620  0.19468271  1
  Pd  Pd160  1  0.21256497  0.80341901  0.80147328  1
  Pd  Pd161  1  0.19622214  0.79782292  0.38992603  1
  Pd  Pd162  1  0.20251119  0.59258662  0.39895737  1
  Pd  Pd163  1  0.80944625  0.39595471  0.81446405  1
  Pd  Pd164  1  0.60743574  -0.00789606  0.19383709  1
  Pd  Pd165  1  0.00355502  0.59365059  0.79357265  1
  Pd  Pd166  1  0.21160258  0.60619296  0.80237051  1
  Pd  Pd167  1  0.18929083  -0.00029736  -0.00169411  1
  Pd  Pd168  1  0.60179105  0.20054559  -0.01000132  1
  Pd  Pd169  1  0.39205773  0.60862450  0.81197273  1
  Pd  Pd170  1  0.39367181  0.40862175  0.40499215  1
  Pd  Pd171  1  0.60206085  0.60214489  0.60259275  1
  Pd  Pd172  1  0.80120226  0.39418564  0.00326097  1
  Pd  Pd173  1  0.20564664  0.19610269  0.40057404  1
  Pd  Pd174  1  0.79384135  0.60188541  0.80661406  1
  Pd  Pd175  1  -0.00452990  0.20457151  0.79918307  1
  Pd  Pd176  1  0.58837221  0.39354100  0.40604562  1
  Pd  Pd177  1  0.40037148  0.19792803  0.60477269  1
  Pd  Pd178  1  0.59014293  0.59912279  -0.00237304  1
  Pd  Pd179  1  0.39484224  -0.00151189  0.20172062  1
  Pd  Pd180  1  0.79774867  0.58837984  0.20463885  1
  Pd  Pd181  1  0.19601242  0.40180440  0.39785664  1
  Pd  Pd182  1  0.39279206  0.80068679  0.39290606  1
  Pd  Pd183  1  0.80788900  0.40057394  0.38761373  1
  Pd  Pd184  1  0.00474485  0.60875409  0.40449429  1
  Pd  Pd185  1  0.80237686  0.19468591  0.39055940  1
  Pd  Pd186  1  0.19608680  0.39705423  0.00306058  1
  Pd  Pd187  1  -0.00264883  -0.00953561  0.79633075  1
  Pd  Pd188  1  0.00509248  0.60752517  0.00558045  1
  Pd  Pd189  1  0.01904050  0.18526945  0.00293214  1
  Pd  Pd190  1  0.79471902  0.79175493  0.60636480  1
  Pd  Pd191  1  0.59439626  0.80325540  0.00196879  1
  Pd  Pd192  1  0.79983286  0.40295526  0.59394399  1
  Pd  Pd193  1  0.81018229  0.00790352  0.39114057  1
  Pd  Pd194  1  0.40984786  0.79448260  0.00855064  1
  Pd  Pd195  1  0.80799079  0.20125644  0.20705827  1
  Pd  Pd196  1  0.59126482  0.40104860  0.00255726  1
  Pd  Pd197  1  0.38899413  0.59535241  0.40788295  1
  Pd  Pd198  1  0.59605579  0.00093548  -0.01114853  1
  Pd  Pd199  1  0.20143217  0.80611815  0.21089967  1
  Rh  Rh200  1  0.40862334  0.39900166  0.60476491  1
  Rh  Rh201  1  0.18948091  0.81238126  0.00316811  1
  Rh  Rh202  1  -0.01286549  -0.00739457  0.18524193  1
  Rh  Rh203  1  0.19365633  0.39217564  0.20484510  1
  Rh  Rh204  1  0.80788335  0.00421961  0.60786384  1
  Rh  Rh205  1  0.39934569  -0.00078078  0.59923127  1
  Rh  Rh206  1  0.40709437  0.40634231  -0.00562054  1
  Rh  Rh207  1  0.59530607  -0.00061993  0.40943554  1
  Rh  Rh208  1  0.40733234  0.79736102  0.59765920  1
  Rh  Rh209  1  0.21033259  -0.00438360  0.79574561  1
  Rh  Rh210  1  0.80717827  -0.00713750  0.00949152  1
  Rh  Rh211  1  0.78838752  0.21380649  -0.00880806  1
  Rh  Rh212  1  0.79947289  0.60121882  0.59829533  1
  Rh  Rh213  1  0.80165199  0.79502908  0.39079909  1
  Rh  Rh214  1  0.58173976  0.20747335  0.20790722  1
  Rh  Rh215  1  0.39893877  -0.00384369  0.40119357  1
  Rh  Rh216  1  -0.00174814  0.80552806  0.79903071  1
  Rh  Rh217  1  0.40538454  0.61459901  0.19091687  1
  Rh  Rh218  1  0.19290646  0.59687628  0.20032067  1
  Rh  Rh219  1  0.80606828  0.79556763  -0.00274007  1
  Rh  Rh220  1  0.40471507  0.39940938  0.79932361  1
  Rh  Rh221  1  0.59955223  0.59178741  0.19958075  1
  Rh  Rh222  1  0.79923362  0.60368775  -0.00515506  1
  Rh  Rh223  1  -0.00704139  -0.00613204  0.41135992  1
  Rh  Rh224  1  0.00198108  0.20281970  0.39938534  1
  Rh  Rh225  1  0.60276515  0.80628705  0.79072014  1
  Rh  Rh226  1  0.60664910  0.19526754  0.80369139  1
  Rh  Rh227  1  0.20654102  -0.00059715  0.20353754  1
  Rh  Rh228  1  0.00730851  0.79995476  0.20314192  1
  Rh  Rh229  1  0.00932529  0.20311870  0.59512835  1
  Rh  Rh230  1  0.41013429  0.39106964  0.19800141  1
  Rh  Rh231  1  0.01167069  0.20085026  0.19476021  1
  Rh  Rh232  1  0.20599100  0.00327463  0.40876145  1
  Rh  Rh233  1  0.79479948  0.79461154  0.79534052  1
  Rh  Rh234  1  0.59163337  0.40797863  0.79549240  1
  Rh  Rh235  1  0.40453794  -0.00056823  0.80647295  1
  Rh  Rh236  1  0.20029447  0.60815023  0.59965110  1
  Rh  Rh237  1  0.40372604  0.19463637  0.39123252  1
  Rh  Rh238  1  0.19199691  0.38603576  0.60040712  1
  Rh  Rh239  1  0.00456025  0.60088992  0.19604776  1
  Rh  Rh240  1  -0.00488618  0.39748576  0.20163958  1
  Rh  Rh241  1  0.21304621  0.20354466  0.80058754  1
  Rh  Rh242  1  0.19826765  0.80431325  0.60227058  1
  Rh  Rh243  1  0.00547674  0.40666405  -0.00747303  1
  Rh  Rh244  1  0.39453126  0.20123573  0.79612164  1
  Rh  Rh245  1  0.40237583  0.00446225  -0.00553794  1
  Rh  Rh246  1  0.39570693  0.60473496  0.59528642  1
  Rh  Rh247  1  0.00490274  0.39789416  0.40241664  1
  Rh  Rh248  1  0.78409724  0.80929283  0.20506513  1
  Rh  Rh249  1  0.20277468  0.59663406  0.00346006  1
