# generated using pymatgen
data_ZrScNbPdRh
_symmetry_space_group_name_H-M   'P 1'
_cell_length_a   16.56257849
_cell_length_b   16.56158289
_cell_length_c   16.56095725
_cell_angle_alpha   89.99737398
_cell_angle_beta   89.99310108
_cell_angle_gamma   89.95367166
_symmetry_Int_Tables_number   1
_chemical_formula_structural   ZrScNbPdRh
_chemical_formula_sum   'Zr50 Sc50 Nb50 Pd50 Rh50'
_cell_volume   4542.71072589
_cell_formula_units_Z   50
loop_
 _symmetry_equiv_pos_site_id
 _symmetry_equiv_pos_as_xyz
  1  'x, y, z'
loop_
 _atom_site_type_symbol
 _atom_site_label
 _atom_site_symmetry_multiplicity
 _atom_site_fract_x
 _atom_site_fract_y
 _atom_site_fract_z
 _atom_site_occupancy
  Zr  Zr0  1  0.90604548  0.10590794  0.90468093  1
  Zr  Zr1  1  0.89947424  0.90428886  0.10349459  1
  Zr  Zr2  1  0.49613640  0.90412348  0.50873037  1
  Zr  Zr3  1  0.10541360  0.50352957  0.69355065  1
  Zr  Zr4  1  0.50271409  0.90065471  0.70051268  1
  Zr  Zr5  1  0.29812096  0.49434108  0.49868630  1
  Zr  Zr6  1  0.10527020  0.09640569  0.49517039  1
  Zr  Zr7  1  0.09776882  0.10288375  0.30686902  1
  Zr  Zr8  1  0.09973792  0.29693953  0.49227463  1
  Zr  Zr9  1  0.49893504  0.10168820  0.49028673  1
  Zr  Zr10  1  0.50529522  0.49090254  0.10286031  1
  Zr  Zr11  1  0.90086950  0.30282072  0.69571638  1
  Zr  Zr12  1  0.49946988  0.29268497  0.30901289  1
  Zr  Zr13  1  0.10034812  0.90014518  0.31922432  1
  Zr  Zr14  1  0.70573300  0.70424435  0.69010321  1
  Zr  Zr15  1  0.49562568  0.09467227  0.69785870  1
  Zr  Zr16  1  0.89642774  0.50922172  0.09586227  1
  Zr  Zr17  1  0.29861904  0.10015501  0.89778448  1
  Zr  Zr18  1  0.29741342  0.09763103  0.10284282  1
  Zr  Zr19  1  0.90012898  0.69755728  0.69194398  1
  Zr  Zr20  1  0.68742249  0.50467300  0.49820684  1
  Zr  Zr21  1  0.48931574  0.49709374  0.90044519  1
  Zr  Zr22  1  0.30490707  0.30090535  0.89217730  1
  Zr  Zr23  1  0.90052944  0.30216386  0.89666535  1
  Zr  Zr24  1  0.69463586  0.90050515  0.11011410  1
  Zr  Zr25  1  0.90184868  0.29775699  0.50049563  1
  Zr  Zr26  1  0.89828723  0.10146021  0.49609809  1
  Zr  Zr27  1  0.49190270  0.71026153  0.09518385  1
  Zr  Zr28  1  0.70576475  0.70230369  0.10257652  1
  Zr  Zr29  1  0.30365692  0.11133574  0.70331379  1
  Zr  Zr30  1  0.09767000  0.70982561  0.50667017  1
  Zr  Zr31  1  0.10854928  0.89631493  0.08538071  1
  Zr  Zr32  1  0.09853186  0.29885273  0.69748003  1
  Zr  Zr33  1  0.89896324  0.89827565  0.70048474  1
  Zr  Zr34  1  0.50230397  0.09726172  0.10997182  1
  Zr  Zr35  1  0.70163758  0.30332916  0.70129564  1
  Zr  Zr36  1  0.10506282  0.10633328  0.09602308  1
  Zr  Zr37  1  0.70315688  0.70377490  0.29829411  1
  Zr  Zr38  1  0.49143224  0.69807714  0.29924091  1
  Zr  Zr39  1  0.29724398  0.50243694  0.70341769  1
  Zr  Zr40  1  0.91083713  0.89699115  0.89504497  1
  Zr  Zr41  1  0.10355903  0.88547086  0.70441968  1
  Zr  Zr42  1  0.30551436  0.89037757  0.10091944  1
  Zr  Zr43  1  0.50179267  0.09644928  0.89539123  1
  Zr  Zr44  1  0.89981774  0.30177566  0.29555656  1
  Zr  Zr45  1  0.10764411  0.70368833  0.30471984  1
  Zr  Zr46  1  0.69689132  0.09745597  0.30561655  1
  Zr  Zr47  1  0.31232396  0.69578589  0.89930606  1
  Zr  Zr48  1  0.89752691  0.09838554  0.69171520  1
  Zr  Zr49  1  0.69802949  0.90201168  0.68800237  1
  Sc  Sc50  1  0.30143513  0.90424270  0.49598198  1
  Sc  Sc51  1  0.49911957  0.50040711  0.49668350  1
  Sc  Sc52  1  0.49621899  0.50024829  0.69634112  1
  Sc  Sc53  1  0.10177190  0.30070052  0.30043395  1
  Sc  Sc54  1  0.10713736  0.10420682  0.89621125  1
  Sc  Sc55  1  0.69128118  0.09672446  0.69377255  1
  Sc  Sc56  1  0.49378643  0.90659348  0.29929674  1
  Sc  Sc57  1  0.50140387  0.69781209  0.50461982  1
  Sc  Sc58  1  0.69019992  0.29704058  0.49919099  1
  Sc  Sc59  1  0.89384961  0.90155064  0.30103577  1
  Sc  Sc60  1  0.49840445  0.88516661  0.89823470  1
  Sc  Sc61  1  0.29872490  0.50373891  0.90149763  1
  Sc  Sc62  1  0.50737413  0.29697271  0.90416691  1
  Sc  Sc63  1  0.69109348  0.10453655  0.90353981  1
  Sc  Sc64  1  0.09716716  0.50563897  0.09981859  1
  Sc  Sc65  1  0.30359497  0.70120299  0.49830773  1
  Sc  Sc66  1  0.10538208  0.49618077  0.49957126  1
  Sc  Sc67  1  0.48906656  0.71020029  0.69811975  1
  Sc  Sc68  1  0.29773767  0.50962273  0.30418424  1
  Sc  Sc69  1  0.89390898  0.70382853  0.29073227  1
  Sc  Sc70  1  0.69848083  0.10265245  0.10737474  1
  Sc  Sc71  1  0.69414544  0.30090696  0.29540172  1
  Sc  Sc72  1  0.09985743  0.49561583  0.30029357  1
  Sc  Sc73  1  0.51429032  0.29416321  0.10921471  1
  Sc  Sc74  1  0.70118071  0.30669656  0.10316591  1
  Sc  Sc75  1  0.89768699  0.49291168  0.69960351  1
  Sc  Sc76  1  0.29177052  0.50502183  0.10141201  1
  Sc  Sc77  1  0.90296095  0.49860866  0.28614469  1
  Sc  Sc78  1  0.68763290  0.89752230  0.89628798  1
  Sc  Sc79  1  0.30686903  0.89370463  0.70086351  1
  Sc  Sc80  1  0.70221102  0.30417994  0.91294415  1
  Sc  Sc81  1  0.30129554  0.09899567  0.50533962  1
  Sc  Sc82  1  0.28681744  0.29081302  0.11153706  1
  Sc  Sc83  1  0.90325705  0.69484712  0.90267851  1
  Sc  Sc84  1  0.90418918  0.49642553  0.50961581  1
  Sc  Sc85  1  0.29118612  0.89640828  0.89867481  1
  Sc  Sc86  1  0.29433592  0.29320840  0.49277474  1
  Sc  Sc87  1  0.09890831  0.30163335  0.10575424  1
  Sc  Sc88  1  0.10392652  0.70452040  0.90413760  1
  Sc  Sc89  1  0.11019826  0.10181742  0.69871907  1
  Sc  Sc90  1  0.50197804  0.49290135  0.31064633  1
  Sc  Sc91  1  0.89422793  0.10258970  0.30032848  1
  Sc  Sc92  1  0.49793951  0.29283687  0.70379993  1
  Sc  Sc93  1  0.89743588  0.30162771  0.09981129  1
  Sc  Sc94  1  0.31078860  0.10673445  0.30047590  1
  Sc  Sc95  1  0.70538100  0.70124822  0.89931792  1
  Sc  Sc96  1  0.89659184  0.10886454  0.10642066  1
  Sc  Sc97  1  0.70671632  0.50280321  0.69656905  1
  Sc  Sc98  1  0.88999313  0.50215126  0.89847786  1
  Sc  Sc99  1  0.89598062  0.89563115  0.49492771  1
  Nb  Nb100  1  0.28676249  0.69939315  0.70201501  1
  Nb  Nb101  1  0.70560223  0.89452828  0.30329793  1
  Nb  Nb102  1  0.50403135  0.69562390  0.90365604  1
  Nb  Nb103  1  0.09944008  0.90440553  0.49889684  1
  Nb  Nb104  1  0.09217786  0.70069472  0.09725673  1
  Nb  Nb105  1  0.09966575  0.90176185  0.89919852  1
  Nb  Nb106  1  0.30099188  0.71006230  0.29097606  1
  Nb  Nb107  1  0.70495438  0.70366989  0.50177274  1
  Nb  Nb108  1  0.70008889  0.08814664  0.50073211  1
  Nb  Nb109  1  0.49774527  0.30757743  0.49291748  1
  Nb  Nb110  1  0.11025230  0.69411673  0.69850541  1
  Nb  Nb111  1  0.90642848  0.70003613  0.09444311  1
  Nb  Nb112  1  0.09547863  0.30293019  0.89853661  1
  Nb  Nb113  1  0.29844224  0.88819668  0.30224326  1
  Nb  Nb114  1  0.70207292  0.50095352  0.29327927  1
  Nb  Nb115  1  0.30069116  0.29958467  0.70188947  1
  Nb  Nb116  1  0.89209168  0.69569479  0.49967265  1
  Nb  Nb117  1  0.69708960  0.89995535  0.49870905  1
  Nb  Nb118  1  0.30160194  0.30210337  0.30268833  1
  Nb  Nb119  1  0.70178723  0.49752262  0.09873948  1
  Nb  Nb120  1  0.29786612  0.70215916  0.11509549  1
  Nb  Nb121  1  0.49767541  0.10733342  0.29960625  1
  Nb  Nb122  1  0.10316272  0.50231773  0.90059772  1
  Nb  Nb123  1  0.50124975  0.90012063  0.09333824  1
  Nb  Nb124  1  0.69869325  0.49904632  0.90748543  1
  Nb  Nb125  1  0.01020662  -0.00399598  0.19793468  1
  Nb  Nb126  1  0.39663408  0.39252669  0.59819535  1
  Nb  Nb127  1  0.00925781  0.59883279  0.79541652  1
  Nb  Nb128  1  0.39622884  0.39028522  0.01110499  1
  Nb  Nb129  1  0.00728385  -0.00652511  0.59569653  1
  Nb  Nb130  1  0.59875299  0.59950852  0.80565609  1
  Nb  Nb131  1  0.60271272  0.40874657  0.80459894  1
  Nb  Nb132  1  0.19539683  0.39915830  0.80077004  1
  Nb  Nb133  1  0.80251477  -0.00368815  -0.00438367  1
  Nb  Nb134  1  0.60626628  0.80428043  0.40269369  1
  Nb  Nb135  1  0.60042572  0.59828782  0.00004884  1
  Nb  Nb136  1  0.80089119  0.59735690  0.40131059  1
  Nb  Nb137  1  0.80402534  0.80598401  0.00360790  1
  Nb  Nb138  1  0.00642443  0.80179114  0.19371918  1
  Nb  Nb139  1  0.80005749  0.00386040  0.80336404  1
  Nb  Nb140  1  0.60214156  0.59783951  0.19627695  1
  Nb  Nb141  1  0.00348826  0.40238029  -0.00752242  1
  Nb  Nb142  1  0.19947244  -0.00566551  0.20509436  1
  Nb  Nb143  1  0.40300747  -0.00225320  0.00404594  1
  Nb  Nb144  1  0.79639753  0.40763296  0.39692935  1
  Nb  Nb145  1  0.00272956  0.00023037  0.00028920  1
  Nb  Nb146  1  0.40124131  0.19650888  0.00534039  1
  Nb  Nb147  1  -0.00648271  0.60589788  0.40357454  1
  Nb  Nb148  1  0.39717008  0.39504756  0.20304845  1
  Nb  Nb149  1  0.80122679  0.19772047  0.79779408  1
  Pd  Pd150  1  0.19359571  0.60016842  0.20033805  1
  Pd  Pd151  1  0.39558452  0.59624722  0.60142882  1
  Pd  Pd152  1  0.39817306  -0.00985690  0.80754073  1
  Pd  Pd153  1  0.78900247  0.19826635  0.59944434  1
  Pd  Pd154  1  0.40497481  0.58927522  0.19910226  1
  Pd  Pd155  1  0.00528875  0.60747518  0.20960407  1
  Pd  Pd156  1  0.59925720  -0.00156236  0.21053777  1
  Pd  Pd157  1  0.60661156  0.20787933  0.80171879  1
  Pd  Pd158  1  0.19118378  0.80545187  0.20015652  1
  Pd  Pd159  1  0.60019969  -0.00133649  -0.00084369  1
  Pd  Pd160  1  0.39402037  -0.00628712  0.20142088  1
  Pd  Pd161  1  0.58960396  0.39782891  0.60779516  1
  Pd  Pd162  1  0.39696040  0.60107652  0.40116033  1
  Pd  Pd163  1  0.00846936  0.19092696  0.59727124  1
  Pd  Pd164  1  0.19579766  0.60477184  0.40553305  1
  Pd  Pd165  1  0.00091497  0.59722934  0.59885153  1
  Pd  Pd166  1  0.20361586  0.40547478  0.20555909  1
  Pd  Pd167  1  -0.00044035  0.19431528  0.79468687  1
  Pd  Pd168  1  -0.00708791  0.40911713  0.39816979  1
  Pd  Pd169  1  0.60265137  0.78975609  0.79482871  1
  Pd  Pd170  1  -0.01140427  0.79330490  0.39467226  1
  Pd  Pd171  1  0.20114547  -0.00441993  0.79315509  1
  Pd  Pd172  1  0.80218045  -0.00165648  0.39998650  1
  Pd  Pd173  1  0.20173849  -0.00632182  0.60854652  1
  Pd  Pd174  1  0.21570117  0.00548881  0.39306230  1
  Pd  Pd175  1  0.80049569  0.59959038  0.79813464  1
  Pd  Pd176  1  0.40541462  0.60533215  0.78999283  1
  Pd  Pd177  1  0.20249452  0.20923793  -0.00599920  1
  Pd  Pd178  1  0.40273217  0.20729763  0.59191494  1
  Pd  Pd179  1  0.20477726  0.39056211  0.60086755  1
  Pd  Pd180  1  -0.00514288  0.80393836  0.59803988  1
  Pd  Pd181  1  0.00523618  0.78438143  0.79937495  1
  Pd  Pd182  1  0.20940242  0.80512930  0.59349707  1
  Pd  Pd183  1  0.79401507  0.40242642  0.58882563  1
  Pd  Pd184  1  0.79420060  0.19585844  0.00016793  1
  Pd  Pd185  1  0.59604411  0.60608991  0.60997474  1
  Pd  Pd186  1  0.60340030  0.60860711  0.39320548  1
  Pd  Pd187  1  0.59019467  0.79838303  0.20839843  1
  Pd  Pd188  1  0.59640147  0.19747835  0.59390187  1
  Pd  Pd189  1  0.20086546  0.60943337  0.00276347  1
  Pd  Pd190  1  0.40033053  0.59442908  0.01361494  1
  Pd  Pd191  1  0.79130903  0.20877622  0.39841096  1
  Pd  Pd192  1  0.00338432  0.41177808  0.80204961  1
  Pd  Pd193  1  0.00394967  0.00806346  0.79554855  1
  Pd  Pd194  1  0.79682191  0.80495730  0.80603765  1
  Pd  Pd195  1  0.20978659  0.78761924  -0.00377335  1
  Pd  Pd196  1  0.20042038  0.39593877  -0.00366274  1
  Pd  Pd197  1  0.59522113  -0.00582535  0.39513514  1
  Pd  Pd198  1  0.40649136  0.80133313  0.40421574  1
  Pd  Pd199  1  0.00026247  0.19804367  0.20106221  1
  Rh  Rh200  1  0.39694870  0.19998793  0.40497591  1
  Rh  Rh201  1  0.20801960  0.79698469  0.40864363  1
  Rh  Rh202  1  0.60718315  0.79470058  0.00086912  1
  Rh  Rh203  1  0.20075321  0.39785452  0.39304017  1
  Rh  Rh204  1  0.20548276  0.19621962  0.39612961  1
  Rh  Rh205  1  0.40665156  0.80666652  0.20216804  1
  Rh  Rh206  1  0.60367695  -0.00221323  0.79604582  1
  Rh  Rh207  1  0.20468772  0.60568184  0.59015516  1
  Rh  Rh208  1  0.79869643  0.59213028  0.59324045  1
  Rh  Rh209  1  0.79740014  0.59972790  0.20006174  1
  Rh  Rh210  1  0.00491914  0.39817074  0.59590734  1
  Rh  Rh211  1  0.20170780  0.79484518  0.80531561  1
  Rh  Rh212  1  0.39307242  0.39858104  0.40108821  1
  Rh  Rh213  1  0.39792815  0.00206687  0.39606395  1
  Rh  Rh214  1  0.39728189  0.79568550  0.80103491  1
  Rh  Rh215  1  0.79009543  0.39428320  0.80446126  1
  Rh  Rh216  1  0.19765471  0.19396027  0.21205546  1
  Rh  Rh217  1  0.39435387  0.79947667  0.60004339  1
  Rh  Rh218  1  0.80376881  0.80704980  0.59384795  1
  Rh  Rh219  1  0.59435934  0.40340824  -0.00535957  1
  Rh  Rh220  1  0.79678938  0.79578996  0.40376662  1
  Rh  Rh221  1  0.39623937  0.00147576  0.60275602  1
  Rh  Rh222  1  0.79443614  0.60738581  0.00096890  1
  Rh  Rh223  1  0.80100005  0.39949233  0.20078783  1
  Rh  Rh224  1  0.80417709  -0.00447932  0.59835496  1
  Rh  Rh225  1  -0.00338836  0.80335288  0.00172691  1
  Rh  Rh226  1  0.39521031  0.80256298  -0.00481739  1
  Rh  Rh227  1  0.80947750  0.40202669  0.00378793  1
  Rh  Rh228  1  0.40700147  0.20139811  0.80574003  1
  Rh  Rh229  1  0.00156594  0.59384198  -0.01059748  1
  Rh  Rh230  1  -0.00361124  0.20146762  0.39800414  1
  Rh  Rh231  1  0.79465992  0.20317568  0.20342816  1
  Rh  Rh232  1  0.60789756  0.39848719  0.39700177  1
  Rh  Rh233  1  0.20252886  0.00114107  -0.00075010  1
  Rh  Rh234  1  0.80855211  0.80208140  0.19359225  1
  Rh  Rh235  1  0.19711889  0.20939121  0.80074453  1
  Rh  Rh236  1  0.60463980  0.19678443  0.20579659  1
  Rh  Rh237  1  0.59630611  0.40449492  0.20933285  1
  Rh  Rh238  1  0.59792127  0.79615728  0.59258798  1
  Rh  Rh239  1  0.19742781  0.59929281  0.80668873  1
  Rh  Rh240  1  -0.00958941  0.00196226  0.40227257  1
  Rh  Rh241  1  0.40144966  0.39464605  0.79490919  1
  Rh  Rh242  1  0.79988743  0.00466274  0.20136356  1
  Rh  Rh243  1  0.19994735  0.20265758  0.59714547  1
  Rh  Rh244  1  0.59569856  0.00486437  0.59587270  1
  Rh  Rh245  1  -0.00110155  0.40292031  0.18588184  1
  Rh  Rh246  1  0.59775137  0.19677755  0.00744933  1
  Rh  Rh247  1  0.40309695  0.21005716  0.19690993  1
  Rh  Rh248  1  0.00627838  0.20608818  0.00380202  1
  Rh  Rh249  1  0.60302861  0.19682984  0.40397759  1
