# generated using pymatgen
data_ZrScNbPdRh
_symmetry_space_group_name_H-M   'P 1'
_cell_length_a   16.55536917
_cell_length_b   16.55662219
_cell_length_c   16.55874861
_cell_angle_alpha   90.01892808
_cell_angle_beta   90.01379150
_cell_angle_gamma   89.99916527
_symmetry_Int_Tables_number   1
_chemical_formula_structural   ZrScNbPdRh
_chemical_formula_sum   'Zr50 Sc50 Nb50 Pd50 Rh50'
_cell_volume   4538.76905054
_cell_formula_units_Z   50
loop_
 _symmetry_equiv_pos_site_id
 _symmetry_equiv_pos_as_xyz
  1  'x, y, z'
loop_
 _atom_site_type_symbol
 _atom_site_label
 _atom_site_symmetry_multiplicity
 _atom_site_fract_x
 _atom_site_fract_y
 _atom_site_fract_z
 _atom_site_occupancy
  Zr  Zr0  1  0.50591050  0.49797305  0.29849630  1
  Zr  Zr1  1  0.10270034  0.49756748  0.09875146  1
  Zr  Zr2  1  0.90987195  0.30439719  0.70136060  1
  Zr  Zr3  1  0.49803775  0.69903275  0.89557003  1
  Zr  Zr4  1  0.30137690  0.10067290  0.09564300  1
  Zr  Zr5  1  0.70041917  0.70146536  0.10538081  1
  Zr  Zr6  1  0.09947927  0.68732016  0.09872251  1
  Zr  Zr7  1  0.10733024  0.31134879  0.29379922  1
  Zr  Zr8  1  0.70557263  0.10430364  0.09765832  1
  Zr  Zr9  1  0.10411588  0.49597033  0.90469922  1
  Zr  Zr10  1  0.29718520  0.69484047  0.30860988  1
  Zr  Zr11  1  0.30172943  0.09823619  0.89670080  1
  Zr  Zr12  1  0.49564127  0.30305638  0.69478909  1
  Zr  Zr13  1  0.09971593  0.09711230  0.89512085  1
  Zr  Zr14  1  0.29512462  0.30076182  0.69405959  1
  Zr  Zr15  1  0.29377713  0.09617295  0.69474663  1
  Zr  Zr16  1  0.10419202  0.50553296  0.29935346  1
  Zr  Zr17  1  0.09653336  0.31072973  0.09917047  1
  Zr  Zr18  1  0.50690466  0.89336455  0.90188546  1
  Zr  Zr19  1  0.69852742  0.50715390  0.50036495  1
  Zr  Zr20  1  0.50407124  0.70090796  0.30147007  1
  Zr  Zr21  1  0.90458668  0.29860333  0.29251277  1
  Zr  Zr22  1  0.69646183  0.50293427  0.88296549  1
  Zr  Zr23  1  0.10194582  0.89232610  0.30376979  1
  Zr  Zr24  1  0.89508238  0.09737963  0.70273271  1
  Zr  Zr25  1  0.70326968  0.89908934  0.49958321  1
  Zr  Zr26  1  0.09854670  0.09386441  0.09675115  1
  Zr  Zr27  1  0.29945709  0.49145624  0.70108555  1
  Zr  Zr28  1  0.91114419  0.49771586  0.09482287  1
  Zr  Zr29  1  0.30946283  0.69746154  0.10027846  1
  Zr  Zr30  1  0.30337231  0.30846116  0.49670626  1
  Zr  Zr31  1  0.49928869  0.29586395  0.50750000  1
  Zr  Zr32  1  0.30455287  0.70290416  0.50475295  1
  Zr  Zr33  1  0.09764814  0.49275856  0.69914874  1
  Zr  Zr34  1  0.30706945  0.50528456  0.89566735  1
  Zr  Zr35  1  0.30422513  0.90173101  0.30550938  1
  Zr  Zr36  1  0.89304034  0.89878034  0.89807041  1
  Zr  Zr37  1  0.49939406  0.89857590  0.69664986  1
  Zr  Zr38  1  0.30237949  0.89569951  0.88785310  1
  Zr  Zr39  1  0.69725865  0.90108344  0.29676297  1
  Zr  Zr40  1  0.49933760  0.69999656  0.50273468  1
  Zr  Zr41  1  0.49509730  0.09457541  0.30329841  1
  Zr  Zr42  1  0.30368490  0.30096175  0.10812368  1
  Zr  Zr43  1  0.90308481  0.69670385  0.49769403  1
  Zr  Zr44  1  0.90192392  0.90084595  0.09300426  1
  Zr  Zr45  1  0.89935896  0.30153612  0.89827751  1
  Zr  Zr46  1  0.90899218  0.89740806  0.29485115  1
  Zr  Zr47  1  0.09309550  0.90000100  0.10609589  1
  Zr  Zr48  1  0.48428301  0.30100158  0.30439499  1
  Zr  Zr49  1  0.10798093  0.69690100  0.89500194  1
  Sc  Sc50  1  0.68098505  0.29837187  0.69976011  1
  Sc  Sc51  1  0.90328625  0.50829178  0.50655505  1
  Sc  Sc52  1  0.90484158  0.49740655  0.88890189  1
  Sc  Sc53  1  0.69513744  0.89661989  0.09398789  1
  Sc  Sc54  1  0.09894871  0.50468832  0.50602446  1
  Sc  Sc55  1  0.69791603  0.10150766  0.90876189  1
  Sc  Sc56  1  0.68882767  0.50277556  0.11312540  1
  Sc  Sc57  1  0.30161050  0.09697713  0.50060353  1
  Sc  Sc58  1  0.49598149  0.50059355  0.50628016  1
  Sc  Sc59  1  0.69884644  0.70991747  0.89278976  1
  Sc  Sc60  1  0.49505519  0.50451026  0.10553385  1
  Sc  Sc61  1  0.49130396  0.09851128  0.50496421  1
  Sc  Sc62  1  0.50579830  0.49898590  0.70768321  1
  Sc  Sc63  1  0.89937726  0.51465696  0.30985984  1
  Sc  Sc64  1  0.89955463  0.70784457  0.89770177  1
  Sc  Sc65  1  0.70475579  0.88967693  0.70101816  1
  Sc  Sc66  1  0.70271648  0.09886968  0.51254022  1
  Sc  Sc67  1  0.69683408  0.51284086  0.30055394  1
  Sc  Sc68  1  0.69737702  0.69669163  0.50381837  1
  Sc  Sc69  1  0.89872449  0.89649925  0.69970300  1
  Sc  Sc70  1  0.49956796  0.10885089  0.69418108  1
  Sc  Sc71  1  0.10504001  0.09338071  0.28990146  1
  Sc  Sc72  1  0.09782785  0.90069410  0.69138004  1
  Sc  Sc73  1  0.89548922  0.09478594  0.50961200  1
  Sc  Sc74  1  0.09749832  0.70639324  0.49693174  1
  Sc  Sc75  1  0.90110665  0.89725531  0.50936144  1
  Sc  Sc76  1  0.90242455  0.50484948  0.69916630  1
  Sc  Sc77  1  0.29668529  0.90172455  0.50137054  1
  Sc  Sc78  1  0.29954250  0.89752023  0.69489630  1
  Sc  Sc79  1  0.29945831  0.50227521  0.09331669  1
  Sc  Sc80  1  0.30496240  0.30625512  0.89292673  1
  Sc  Sc81  1  0.69913811  0.30156679  0.29076653  1
  Sc  Sc82  1  0.10163811  0.10314930  0.69922079  1
  Sc  Sc83  1  0.29730201  0.70198336  0.70474050  1
  Sc  Sc84  1  0.49587304  0.09032647  0.09489295  1
  Sc  Sc85  1  0.70258046  0.29389780  0.09746893  1
  Sc  Sc86  1  0.49731951  0.10162830  0.90088984  1
  Sc  Sc87  1  0.10601003  0.09601967  0.51139747  1
  Sc  Sc88  1  0.90215879  0.29456266  0.51128704  1
  Sc  Sc89  1  0.09846022  0.70240224  0.69605723  1
  Sc  Sc90  1  0.89681020  0.70288756  0.69147201  1
  Sc  Sc91  1  0.89245364  0.08879801  0.90535288  1
  Sc  Sc92  1  0.31522919  0.89653742  0.10739819  1
  Sc  Sc93  1  0.90062539  0.29518137  0.10033860  1
  Sc  Sc94  1  0.30499831  0.10108361  0.29929816  1
  Sc  Sc95  1  0.70730854  0.89785853  0.90111854  1
  Sc  Sc96  1  0.08957137  0.89493147  0.89646791  1
  Sc  Sc97  1  0.29831172  0.50386037  0.50305359  1
  Sc  Sc98  1  0.50164528  0.29806422  0.89047521  1
  Sc  Sc99  1  0.49372185  0.89828647  0.50193355  1
  Nb  Nb100  1  0.09944933  0.30125337  0.50631061  1
  Nb  Nb101  1  0.69954347  0.29831750  0.90176858  1
  Nb  Nb102  1  0.69856672  0.69157690  0.70056297  1
  Nb  Nb103  1  0.70219609  0.10127032  0.30129488  1
  Nb  Nb104  1  0.09593649  0.90190292  0.49505967  1
  Nb  Nb105  1  0.09724146  0.29929146  0.89498794  1
  Nb  Nb106  1  0.10174481  0.30193024  0.69596852  1
  Nb  Nb107  1  0.69721374  0.30137899  0.50126358  1
  Nb  Nb108  1  0.09222484  0.70464125  0.30255171  1
  Nb  Nb109  1  0.90064814  0.10034717  0.10227099  1
  Nb  Nb110  1  0.89612523  0.70133734  0.10179105  1
  Nb  Nb111  1  0.50162575  0.88819859  0.10895249  1
  Nb  Nb112  1  0.69657766  0.10040640  0.70818349  1
  Nb  Nb113  1  0.70126990  0.50266440  0.69781102  1
  Nb  Nb114  1  0.29592727  0.70118918  0.90125145  1
  Nb  Nb115  1  0.29563979  0.48628723  0.31232864  1
  Nb  Nb116  1  0.50298493  0.49906034  0.89947961  1
  Nb  Nb117  1  0.70618545  0.69690479  0.30413006  1
  Nb  Nb118  1  0.50539833  0.30727652  0.10971269  1
  Nb  Nb119  1  0.89694587  0.10349955  0.29994667  1
  Nb  Nb120  1  0.51077799  0.70798974  0.70006205  1
  Nb  Nb121  1  0.50075883  0.70836757  0.09793659  1
  Nb  Nb122  1  0.49760351  0.90448923  0.29131051  1
  Nb  Nb123  1  0.29778616  0.30619485  0.30705458  1
  Nb  Nb124  1  0.90325680  0.70458933  0.30042249  1
  Nb  Nb125  1  0.59902804  0.59967147  -0.00335657  1
  Nb  Nb126  1  0.79197450  0.40626478  -0.00042609  1
  Nb  Nb127  1  0.79978313  0.20204859  0.39924075  1
  Nb  Nb128  1  0.80371648  0.00665895  0.20113246  1
  Nb  Nb129  1  0.19551078  0.20891150  0.40007438  1
  Nb  Nb130  1  0.79558701  0.59695880  0.00087621  1
  Nb  Nb131  1  0.80349881  0.40420267  0.19991747  1
  Nb  Nb132  1  0.59445970  0.19760033  0.20306033  1
  Nb  Nb133  1  0.19883949  0.79219404  0.20113473  1
  Nb  Nb134  1  0.20377370  0.80057282  0.00293557  1
  Nb  Nb135  1  0.60132722  0.00151534  0.39697022  1
  Nb  Nb136  1  0.60485090  0.19820910  0.39832372  1
  Nb  Nb137  1  0.79138918  0.40166970  0.60080100  1
  Nb  Nb138  1  -0.00049263  0.39436102  0.40375259  1
  Nb  Nb139  1  0.79971187  0.39518683  0.40285695  1
  Nb  Nb140  1  -0.00058168  0.00352912  0.39929368  1
  Nb  Nb141  1  0.60265891  0.00054689  0.79714339  1
  Nb  Nb142  1  0.79412383  0.20158101  0.80003644  1
  Nb  Nb143  1  0.20309264  -0.00581738  -0.00226014  1
  Nb  Nb144  1  0.60336975  0.39381152  0.40265159  1
  Nb  Nb145  1  0.00428628  0.19856326  -0.00222169  1
  Nb  Nb146  1  0.00276235  0.19804007  0.39978147  1
  Nb  Nb147  1  0.80177788  0.79524482  0.39318915  1
  Nb  Nb148  1  0.60057756  0.40277501  -0.00363879  1
  Nb  Nb149  1  0.19648673  0.20077972  -0.00293641  1
  Pd  Pd150  1  0.60038746  0.00186244  0.60068047  1
  Pd  Pd151  1  0.20778625  0.39319116  -0.00393599  1
  Pd  Pd152  1  -0.00177897  0.60447166  0.79755840  1
  Pd  Pd153  1  0.21076345  -0.01046456  0.19413559  1
  Pd  Pd154  1  0.00844870  0.19513282  0.19828157  1
  Pd  Pd155  1  0.19791474  0.60301018  0.60292743  1
  Pd  Pd156  1  0.19773144  0.80254363  0.59666149  1
  Pd  Pd157  1  0.58811659  0.20737214  0.00556575  1
  Pd  Pd158  1  -0.00732314  0.19396387  0.80399809  1
  Pd  Pd159  1  -0.00539495  0.59984179  0.20451813  1
  Pd  Pd160  1  0.40963873  0.39467984  -0.00147897  1
  Pd  Pd161  1  0.39261620  0.41123662  0.20040012  1
  Pd  Pd162  1  0.60084217  -0.00370816  -0.00316535  1
  Pd  Pd163  1  0.40256618  0.21118326  0.00025824  1
  Pd  Pd164  1  0.20187280  0.20641657  0.80125321  1
  Pd  Pd165  1  0.60220337  0.79567259  0.20433147  1
  Pd  Pd166  1  0.19489682  0.00990569  0.40245332  1
  Pd  Pd167  1  0.79688320  -0.00658781  0.61036887  1
  Pd  Pd168  1  0.40702833  0.60087698  -0.00166782  1
  Pd  Pd169  1  0.00279901  0.19210584  0.59862944  1
  Pd  Pd170  1  0.39804945  0.19825374  0.79417770  1
  Pd  Pd171  1  0.60210904  0.80529624  0.40084688  1
  Pd  Pd172  1  0.79295508  0.39135143  0.79245819  1
  Pd  Pd173  1  0.19219562  -0.00989909  0.79818516  1
  Pd  Pd174  1  0.59308224  0.59706326  0.60454592  1
  Pd  Pd175  1  0.40274038  0.80422825  0.40018459  1
  Pd  Pd176  1  0.80713656  0.59443368  0.19538417  1
  Pd  Pd177  1  0.19450666  0.60307895  0.40873761  1
  Pd  Pd178  1  0.79271950  0.20861224  0.60865368  1
  Pd  Pd179  1  0.40080428  0.79425062  0.79274773  1
  Pd  Pd180  1  0.40336280  0.60305938  0.79180648  1
  Pd  Pd181  1  0.60457790  0.00634788  0.19791139  1
  Pd  Pd182  1  0.40479021  0.19461444  0.19722947  1
  Pd  Pd183  1  0.20839932  0.59792866  0.20327662  1
  Pd  Pd184  1  0.39712270  0.80437318  -0.00388443  1
  Pd  Pd185  1  0.80315254  -0.00071740  0.39793934  1
  Pd  Pd186  1  0.39995676  -0.01142946  -0.00053203  1
  Pd  Pd187  1  0.40309287  0.60169818  0.61283276  1
  Pd  Pd188  1  -0.00090802  -0.00355357  0.79467737  1
  Pd  Pd189  1  0.40352509  0.59275189  0.39962415  1
  Pd  Pd190  1  0.19944484  0.59641648  0.79277368  1
  Pd  Pd191  1  0.41125185  0.00483307  0.79286408  1
  Pd  Pd192  1  0.00469429  0.79196439  0.00082140  1
  Pd  Pd193  1  0.60542984  0.80009040  0.59843792  1
  Pd  Pd194  1  -0.00923936  0.60559901  -0.01085602  1
  Pd  Pd195  1  0.80641134  0.60827352  0.80198811  1
  Pd  Pd196  1  -0.00138440  0.79797170  0.79199626  1
  Pd  Pd197  1  0.39753324  0.59537382  0.20803769  1
  Pd  Pd198  1  0.80058576  0.80768728  0.20038754  1
  Pd  Pd199  1  0.19965516  0.20189248  0.19975758  1
  Rh  Rh200  1  0.20645443  0.60283648  -0.00331245  1
  Rh  Rh201  1  0.79727803  -0.00312567  0.00849599  1
  Rh  Rh202  1  0.00007886  0.00130110  0.59736269  1
  Rh  Rh203  1  0.40633848  -0.00549272  0.40283922  1
  Rh  Rh204  1  0.40686883  0.40791977  0.40568537  1
  Rh  Rh205  1  0.39815909  0.79706291  0.60346319  1
  Rh  Rh206  1  0.60519895  0.39400398  0.20199701  1
  Rh  Rh207  1  0.59830493  0.39663812  0.80038509  1
  Rh  Rh208  1  0.79083360  0.00379457  0.79915637  1
  Rh  Rh209  1  0.19655263  0.39768243  0.80257539  1
  Rh  Rh210  1  0.80113009  0.79533551  0.79393727  1
  Rh  Rh211  1  0.19785418  0.40163964  0.59657459  1
  Rh  Rh212  1  0.79998431  0.59670963  0.60347318  1
  Rh  Rh213  1  0.39987916  0.00156363  0.19702581  1
  Rh  Rh214  1  -0.00804971  0.00688909  0.20657060  1
  Rh  Rh215  1  0.60437026  0.80458691  0.79675492  1
  Rh  Rh216  1  0.39805317  0.79360860  0.21140112  1
  Rh  Rh217  1  0.60095683  0.79418820  -0.00039881  1
  Rh  Rh218  1  0.21061672  0.40941644  0.19526142  1
  Rh  Rh219  1  0.19602676  0.80211040  0.80132328  1
  Rh  Rh220  1  0.60303257  0.40835985  0.59803436  1
  Rh  Rh221  1  0.40016013  0.40595965  0.60104360  1
  Rh  Rh222  1  0.00717393  0.40167899  0.79966853  1
  Rh  Rh223  1  0.79398413  0.20033817  0.20220644  1
  Rh  Rh224  1  -0.00780181  0.80646629  0.40751026  1
  Rh  Rh225  1  0.19926776  -0.00471664  0.60000876  1
  Rh  Rh226  1  0.38997206  0.19862523  0.60050012  1
  Rh  Rh227  1  0.00483968  0.78740771  0.19092962  1
  Rh  Rh228  1  0.59996755  0.19278245  0.59439090  1
  Rh  Rh229  1  0.81175511  0.20467133  -0.00665694  1
  Rh  Rh230  1  0.59641118  0.60582229  0.79734764  1
  Rh  Rh231  1  0.00132593  0.00398057  -0.00463264  1
  Rh  Rh232  1  -0.00489279  0.39366207  -0.00706510  1
  Rh  Rh233  1  0.80026933  0.79255756  0.00217270  1
  Rh  Rh234  1  0.80044933  0.60637126  0.40303296  1
  Rh  Rh235  1  0.19105259  0.39993783  0.40985271  1
  Rh  Rh236  1  0.20184409  0.79616566  0.39985026  1
  Rh  Rh237  1  0.00384560  0.60448836  0.60256743  1
  Rh  Rh238  1  0.79663574  0.79298473  0.59390952  1
  Rh  Rh239  1  -0.00569170  0.40266636  0.59588103  1
  Rh  Rh240  1  0.39638225  -0.00107996  0.60305535  1
  Rh  Rh241  1  0.00165542  0.80103543  0.59716661  1
  Rh  Rh242  1  -0.00856871  0.41530141  0.21299823  1
  Rh  Rh243  1  0.20233014  0.20433733  0.59328336  1
  Rh  Rh244  1  0.40469209  0.40068027  0.79818175  1
  Rh  Rh245  1  0.60349121  0.19118701  0.80666883  1
  Rh  Rh246  1  0.39125024  0.19853296  0.40504923  1
  Rh  Rh247  1  0.00702763  0.59830546  0.39930071  1
  Rh  Rh248  1  0.59225122  0.61204919  0.19656346  1
  Rh  Rh249  1  0.59622601  0.59770290  0.40128611  1
