# generated using pymatgen
data_ZrScNbPdRh
_symmetry_space_group_name_H-M   'P 1'
_cell_length_a   16.55811778
_cell_length_b   16.55590251
_cell_length_c   16.55070189
_cell_angle_alpha   89.99062394
_cell_angle_beta   89.98012896
_cell_angle_gamma   89.98505920
_symmetry_Int_Tables_number   1
_chemical_formula_structural   ZrScNbPdRh
_chemical_formula_sum   'Zr50 Sc50 Nb50 Pd50 Rh50'
_cell_volume   4537.11928450
_cell_formula_units_Z   50
loop_
 _symmetry_equiv_pos_site_id
 _symmetry_equiv_pos_as_xyz
  1  'x, y, z'
loop_
 _atom_site_type_symbol
 _atom_site_label
 _atom_site_symmetry_multiplicity
 _atom_site_fract_x
 _atom_site_fract_y
 _atom_site_fract_z
 _atom_site_occupancy
  Zr  Zr0  1  0.49877449  0.90835035  0.71124499  1
  Zr  Zr1  1  0.09732246  0.29743857  0.50260319  1
  Zr  Zr2  1  0.90678952  0.69620209  0.10028600  1
  Zr  Zr3  1  0.09910961  0.71179943  0.10077850  1
  Zr  Zr4  1  0.50896155  0.29299342  0.30027622  1
  Zr  Zr5  1  0.30598614  0.29924405  0.29649453  1
  Zr  Zr6  1  0.30491781  0.30106703  0.90725747  1
  Zr  Zr7  1  0.10451521  0.30582314  0.90053309  1
  Zr  Zr8  1  0.10765628  0.09780389  0.10152607  1
  Zr  Zr9  1  0.29670315  0.89884969  0.70199304  1
  Zr  Zr10  1  0.09218046  0.70698190  0.30082964  1
  Zr  Zr11  1  0.90298196  0.30426441  0.69396385  1
  Zr  Zr12  1  0.30512011  0.09613852  0.29788242  1
  Zr  Zr13  1  0.50366939  0.89429368  0.30439491  1
  Zr  Zr14  1  0.69644166  0.50206839  0.09654328  1
  Zr  Zr15  1  0.09294023  0.29421005  0.10299855  1
  Zr  Zr16  1  0.30421787  0.69715501  0.50737213  1
  Zr  Zr17  1  0.50080152  0.31756402  0.89300623  1
  Zr  Zr18  1  0.70230366  0.90055996  0.29774021  1
  Zr  Zr19  1  0.49704088  0.70484144  0.29043365  1
  Zr  Zr20  1  0.10436556  0.49944713  0.50426586  1
  Zr  Zr21  1  0.30306410  0.90146034  0.88715448  1
  Zr  Zr22  1  0.89167100  0.09975267  0.69378764  1
  Zr  Zr23  1  0.09523104  0.70256487  0.90606470  1
  Zr  Zr24  1  0.70302944  0.89498747  0.49226094  1
  Zr  Zr25  1  0.09887047  0.49113433  0.69885640  1
  Zr  Zr26  1  0.30564557  0.50010689  0.10688880  1
  Zr  Zr27  1  0.50359042  0.89083533  0.10415688  1
  Zr  Zr28  1  0.89388846  0.89134714  0.90107898  1
  Zr  Zr29  1  0.10664846  0.89192433  0.90232954  1
  Zr  Zr30  1  0.49545185  0.68573966  0.70891374  1
  Zr  Zr31  1  0.10596547  0.30954349  0.29894906  1
  Zr  Zr32  1  0.69985790  0.31449150  0.49532730  1
  Zr  Zr33  1  0.89602727  0.89761520  0.30399422  1
  Zr  Zr34  1  0.31017054  0.69538116  0.10085616  1
  Zr  Zr35  1  0.90750806  0.50325888  0.70640202  1
  Zr  Zr36  1  0.89951623  0.69924733  0.29807752  1
  Zr  Zr37  1  0.10545524  0.09687295  0.68974762  1
  Zr  Zr38  1  0.90541304  0.11091378  0.09632221  1
  Zr  Zr39  1  0.69936974  0.30243087  0.30254955  1
  Zr  Zr40  1  0.10477941  0.70519877  0.50238832  1
  Zr  Zr41  1  0.10185146  0.09407350  0.49608287  1
  Zr  Zr42  1  0.29307778  0.70367006  0.89516815  1
  Zr  Zr43  1  0.90225677  0.29274814  0.90263002  1
  Zr  Zr44  1  0.29706097  0.09686273  0.49391032  1
  Zr  Zr45  1  0.69559244  0.49066167  0.30626778  1
  Zr  Zr46  1  0.90532203  0.69054665  0.90357255  1
  Zr  Zr47  1  0.29590775  0.48622748  0.30218794  1
  Zr  Zr48  1  0.89941460  0.09909916  0.90341557  1
  Zr  Zr49  1  0.69615472  0.30002836  0.69733825  1
  Sc  Sc50  1  0.30306475  0.49588499  0.90488232  1
  Sc  Sc51  1  0.90031839  0.70385752  0.50585313  1
  Sc  Sc52  1  0.89957907  0.49658365  0.50705623  1
  Sc  Sc53  1  0.69771002  0.51194084  0.69376888  1
  Sc  Sc54  1  0.71163780  0.10076912  0.10353305  1
  Sc  Sc55  1  0.10671320  0.10175362  0.90362375  1
  Sc  Sc56  1  0.30471959  0.71183138  0.30681428  1
  Sc  Sc57  1  0.90113767  0.09710265  0.49662031  1
  Sc  Sc58  1  0.09418960  0.50594150  0.89093867  1
  Sc  Sc59  1  0.68959248  0.50215418  0.90201497  1
  Sc  Sc60  1  0.69628042  0.70686277  0.30701931  1
  Sc  Sc61  1  0.10649305  0.89796296  0.69493491  1
  Sc  Sc62  1  0.70602969  0.90894519  0.69840296  1
  Sc  Sc63  1  0.09360590  0.49783849  0.11051645  1
  Sc  Sc64  1  0.90510235  0.30269030  0.30666803  1
  Sc  Sc65  1  0.89834589  0.09219650  0.30117848  1
  Sc  Sc66  1  0.70744768  0.69772926  0.90128723  1
  Sc  Sc67  1  0.29289794  0.89083928  0.49389871  1
  Sc  Sc68  1  0.29713880  0.10131416  0.90087876  1
  Sc  Sc69  1  0.10284033  0.69275818  0.70183514  1
  Sc  Sc70  1  0.29870593  0.09614877  0.69578402  1
  Sc  Sc71  1  0.70029156  0.10515100  0.30056340  1
  Sc  Sc72  1  0.29475177  0.50838213  0.69407658  1
  Sc  Sc73  1  0.50799953  0.10383656  0.69224881  1
  Sc  Sc74  1  0.28999293  0.90270284  0.10238086  1
  Sc  Sc75  1  0.88748082  0.90524478  0.10531978  1
  Sc  Sc76  1  0.50064061  0.49513995  0.29356866  1
  Sc  Sc77  1  0.51228217  0.90401356  0.49513360  1
  Sc  Sc78  1  0.90113815  0.51425819  0.10402899  1
  Sc  Sc79  1  0.70696624  0.10205863  0.89518781  1
  Sc  Sc80  1  0.89244086  0.70276682  0.70234991  1
  Sc  Sc81  1  0.29514016  0.69868951  0.70193051  1
  Sc  Sc82  1  0.50016413  0.51121883  0.09282823  1
  Sc  Sc83  1  0.50262744  0.10303411  0.49669680  1
  Sc  Sc84  1  0.30073450  0.90335559  0.30614192  1
  Sc  Sc85  1  0.69000070  0.30425071  0.90038606  1
  Sc  Sc86  1  0.09117396  0.49489127  0.30282359  1
  Sc  Sc87  1  0.10175418  0.89935148  0.49669462  1
  Sc  Sc88  1  0.50113123  0.09465725  0.30371717  1
  Sc  Sc89  1  0.49421296  0.09798409  0.88900705  1
  Sc  Sc90  1  0.29436891  0.30165048  0.09471815  1
  Sc  Sc91  1  0.89720681  0.90313066  0.50109737  1
  Sc  Sc92  1  0.50531128  0.69864617  0.49413509  1
  Sc  Sc93  1  0.30259007  0.29587933  0.48907175  1
  Sc  Sc94  1  0.70024918  0.10145873  0.69481336  1
  Sc  Sc95  1  0.70320427  0.09189003  0.50296108  1
  Sc  Sc96  1  0.89294314  0.29826701  0.50134559  1
  Sc  Sc97  1  0.69125288  0.29549782  0.10827503  1
  Sc  Sc98  1  0.69444890  0.70179813  0.10059290  1
  Sc  Sc99  1  0.09823494  0.09577547  0.29972729  1
  Nb  Nb100  1  0.89735371  0.50442052  0.29730848  1
  Nb  Nb101  1  0.90183224  0.90506168  0.70492939  1
  Nb  Nb102  1  0.49829887  0.09431942  0.09904156  1
  Nb  Nb103  1  0.30472995  0.50187371  0.50015678  1
  Nb  Nb104  1  0.30659109  0.10005626  0.09722917  1
  Nb  Nb105  1  0.49367305  0.69892559  0.10031288  1
  Nb  Nb106  1  0.49747353  0.49365560  0.70925821  1
  Nb  Nb107  1  0.69664140  0.70064001  0.69724848  1
  Nb  Nb108  1  0.90107051  0.30115206  0.09883549  1
  Nb  Nb109  1  0.89862269  0.50157622  0.90278139  1
  Nb  Nb110  1  0.50028650  0.30004977  0.50493691  1
  Nb  Nb111  1  0.69816594  0.89805218  0.91042683  1
  Nb  Nb112  1  0.50133087  0.49993870  0.50355405  1
  Nb  Nb113  1  0.49970796  0.89854050  0.89785346  1
  Nb  Nb114  1  0.69791158  0.90342630  0.09527308  1
  Nb  Nb115  1  0.10169153  0.30308058  0.70060483  1
  Nb  Nb116  1  0.49956143  0.30474439  0.69773103  1
  Nb  Nb117  1  0.69719676  0.50698062  0.49514398  1
  Nb  Nb118  1  0.49714498  0.28883857  0.09053532  1
  Nb  Nb119  1  0.70262159  0.69274279  0.50961435  1
  Nb  Nb120  1  0.09560536  0.89773952  0.09975081  1
  Nb  Nb121  1  0.49458291  0.69648173  0.90062078  1
  Nb  Nb122  1  0.30339002  0.30568018  0.70050783  1
  Nb  Nb123  1  0.50307281  0.50548543  0.88833074  1
  Nb  Nb124  1  0.09587473  0.89831247  0.29457091  1
  Nb  Nb125  1  0.80365789  0.40153200  0.00302456  1
  Nb  Nb126  1  0.40543784  0.39960346  0.60064104  1
  Nb  Nb127  1  0.40982183  0.80267608  0.60475221  1
  Nb  Nb128  1  0.20377040  0.59780708  0.39911676  1
  Nb  Nb129  1  0.60082046  -0.00352286  0.19320474  1
  Nb  Nb130  1  0.20128401  0.20960399  0.79202236  1
  Nb  Nb131  1  0.60066097  0.79908423  0.80303133  1
  Nb  Nb132  1  0.60181979  0.79525599  0.60850898  1
  Nb  Nb133  1  0.39794383  0.59256579  0.40205350  1
  Nb  Nb134  1  0.39977474  -0.00623465  0.59811522  1
  Nb  Nb135  1  0.40402033  0.19557304  0.19118037  1
  Nb  Nb136  1  0.00710832  0.19788299  0.79264328  1
  Nb  Nb137  1  0.39783603  0.21124497  0.79206835  1
  Nb  Nb138  1  -0.00135185  0.00040960  0.80121005  1
  Nb  Nb139  1  -0.00897691  0.40053003  0.00038815  1
  Nb  Nb140  1  0.80324602  0.40381836  0.80545105  1
  Nb  Nb141  1  0.40538547  0.80029635  -0.00460987  1
  Nb  Nb142  1  0.40479188  -0.00464362  0.00053631  1
  Nb  Nb143  1  0.80499271  0.40167478  0.19757521  1
  Nb  Nb144  1  0.59004918  0.19247088  0.00153294  1
  Nb  Nb145  1  0.00190117  -0.00519507  -0.00060395  1
  Nb  Nb146  1  0.19889378  0.60257418  0.00776922  1
  Nb  Nb147  1  0.79638271  0.59698554  0.40482110  1
  Nb  Nb148  1  0.59932523  -0.00153606  -0.00092324  1
  Nb  Nb149  1  0.20183756  0.60298798  0.20575998  1
  Pd  Pd150  1  0.79130973  0.80091417  0.79707479  1
  Pd  Pd151  1  0.00350530  0.80090558  0.79165672  1
  Pd  Pd152  1  0.80791848  0.20708098  0.20726325  1
  Pd  Pd153  1  0.59306843  0.19995610  0.80434098  1
  Pd  Pd154  1  0.00108671  0.19771897  0.39609247  1
  Pd  Pd155  1  0.59616700  0.79377504  -0.00604189  1
  Pd  Pd156  1  0.80229898  0.79105466  0.00761149  1
  Pd  Pd157  1  0.20814339  0.40470600  0.80069530  1
  Pd  Pd158  1  0.20872207  0.19923696  0.19986821  1
  Pd  Pd159  1  0.40966371  0.39896811  0.40531217  1
  Pd  Pd160  1  0.79755493  0.80568935  0.60360964  1
  Pd  Pd161  1  0.79869356  -0.00198743  0.80318275  1
  Pd  Pd162  1  0.40203405  -0.00571423  0.40945766  1
  Pd  Pd163  1  0.78760919  0.59882850  0.20826465  1
  Pd  Pd164  1  0.19978427  -0.00336265  0.20531816  1
  Pd  Pd165  1  -0.00098544  0.80404270  0.60569764  1
  Pd  Pd166  1  0.59646198  0.60138407  0.39403698  1
  Pd  Pd167  1  0.60498796  0.19694631  0.40874553  1
  Pd  Pd168  1  -0.00296488  0.19887350  0.59950823  1
  Pd  Pd169  1  -0.00151932  0.60417643  0.60287748  1
  Pd  Pd170  1  -0.00295518  0.20014229  0.21220622  1
  Pd  Pd171  1  0.61156695  -0.00075312  0.80550851  1
  Pd  Pd172  1  0.79500440  0.59503689  0.80133175  1
  Pd  Pd173  1  0.40957852  0.40922985  0.00447892  1
  Pd  Pd174  1  0.18834077  0.41193241  0.00680470  1
  Pd  Pd175  1  -0.00347746  0.59704696  0.40400906  1
  Pd  Pd176  1  0.59087759  0.60057190  0.60099824  1
  Pd  Pd177  1  -0.00462277  -0.00317137  0.19451659  1
  Pd  Pd178  1  0.60774137  0.20065689  0.59148100  1
  Pd  Pd179  1  -0.00475756  0.80583089  0.40646698  1
  Pd  Pd180  1  -0.00168693  -0.00608478  0.60121559  1
  Pd  Pd181  1  0.38703736  0.59231091  0.80348174  1
  Pd  Pd182  1  0.80093764  0.20868840  0.79570343  1
  Pd  Pd183  1  0.79630107  0.40891763  0.60717353  1
  Pd  Pd184  1  0.60266247  0.60309767  0.20324595  1
  Pd  Pd185  1  0.59436279  0.40037168  0.18892072  1
  Pd  Pd186  1  0.19658331  0.19893524  0.39303506  1
  Pd  Pd187  1  0.20306613  -0.00330478  -0.00246544  1
  Pd  Pd188  1  0.79643548  0.79520229  0.19473730  1
  Pd  Pd189  1  0.39609332  0.19737415  0.60185861  1
  Pd  Pd190  1  0.21052542  0.39312719  0.59227972  1
  Pd  Pd191  1  0.79919303  0.19696946  0.40246899  1
  Pd  Pd192  1  -0.00603041  0.40206212  0.40607837  1
  Pd  Pd193  1  0.59835045  0.40788701  0.60278687  1
  Pd  Pd194  1  0.59810928  0.60899693  -0.00447302  1
  Pd  Pd195  1  0.39002382  0.81029358  0.19665294  1
  Pd  Pd196  1  0.41127431  0.39077867  0.19013986  1
  Pd  Pd197  1  0.20786997  0.20646809  0.60009339  1
  Pd  Pd198  1  0.20618379  0.79947602  0.20409904  1
  Pd  Pd199  1  0.78385393  0.20918041  0.00140108  1
  Rh  Rh200  1  0.59035055  0.39948590  0.40593391  1
  Rh  Rh201  1  0.19835763  0.59654829  0.80724289  1
  Rh  Rh202  1  0.00944554  0.59097192  0.00350367  1
  Rh  Rh203  1  0.40640383  0.79319363  0.79854285  1
  Rh  Rh204  1  0.00993088  0.60255019  0.20447477  1
  Rh  Rh205  1  0.80087817  0.00232677  -0.00009549  1
  Rh  Rh206  1  0.79483505  0.00328620  0.20177374  1
  Rh  Rh207  1  0.59871264  0.39413944  0.00477392  1
  Rh  Rh208  1  0.61221814  0.40949193  0.78945425  1
  Rh  Rh209  1  0.00070069  0.39751188  0.59444557  1
  Rh  Rh210  1  0.39546246  0.59731574  0.21541084  1
  Rh  Rh211  1  0.19758887  0.40082517  0.40697529  1
  Rh  Rh212  1  0.20852601  -0.00615098  0.59039976  1
  Rh  Rh213  1  0.00276492  -0.00570820  0.39738357  1
  Rh  Rh214  1  -0.00832458  0.80858861  0.19666874  1
  Rh  Rh215  1  0.59667788  -0.00465516  0.59955686  1
  Rh  Rh216  1  0.80139366  -0.00273903  0.59754371  1
  Rh  Rh217  1  0.39744841  0.60143626  -0.01001240  1
  Rh  Rh218  1  0.40589009  0.20015478  0.39253514  1
  Rh  Rh219  1  0.00067682  0.60615475  0.79700150  1
  Rh  Rh220  1  0.60271045  0.79418910  0.40699386  1
  Rh  Rh221  1  0.19085922  0.79624712  0.79436841  1
  Rh  Rh222  1  0.79970958  0.00228731  0.39902135  1
  Rh  Rh223  1  0.80220287  0.78856448  0.40566318  1
  Rh  Rh224  1  -0.00755120  0.39226657  0.80642478  1
  Rh  Rh225  1  0.60666354  0.00327619  0.39091872  1
  Rh  Rh226  1  0.59236708  0.18774100  0.19362540  1
  Rh  Rh227  1  0.40732279  0.59759414  0.59756651  1
  Rh  Rh228  1  0.40404900  0.18977194  -0.00629913  1
  Rh  Rh229  1  0.20507761  0.79749030  0.60314130  1
  Rh  Rh230  1  0.60468743  0.60429110  0.80440634  1
  Rh  Rh231  1  0.19687428  0.60125091  0.59621533  1
  Rh  Rh232  1  0.80483740  0.59809728  0.59689919  1
  Rh  Rh233  1  -0.01189493  0.81084832  0.00914066  1
  Rh  Rh234  1  0.40764518  0.79689202  0.40970591  1
  Rh  Rh235  1  0.60686452  0.80041736  0.19924593  1
  Rh  Rh236  1  0.01053242  0.19849541  -0.00515106  1
  Rh  Rh237  1  0.40207671  0.00064662  0.19628078  1
  Rh  Rh238  1  0.21080077  0.79739301  0.00388050  1
  Rh  Rh239  1  0.39321447  0.40393429  0.79422764  1
  Rh  Rh240  1  0.79489424  0.20076181  0.59279862  1
  Rh  Rh241  1  0.39415858  0.01434602  0.79642691  1
  Rh  Rh242  1  0.19317880  0.00706154  0.80022735  1
  Rh  Rh243  1  0.19723868  0.40183348  0.19405074  1
  Rh  Rh244  1  0.79647320  0.59811340  0.00125242  1
  Rh  Rh245  1  0.19410062  -0.00514913  0.39435317  1
  Rh  Rh246  1  -0.01120387  0.40083678  0.19660985  1
  Rh  Rh247  1  0.80746290  0.40932202  0.39562860  1
  Rh  Rh248  1  0.19379517  0.79735216  0.39433394  1
  Rh  Rh249  1  0.19918990  0.19950765  -0.00053953  1
