# generated using pymatgen
data_ZrScNbPdRh
_symmetry_space_group_name_H-M   'P 1'
_cell_length_a   16.55281429
_cell_length_b   16.55447119
_cell_length_c   16.55673879
_cell_angle_alpha   89.97633366
_cell_angle_beta   89.96950062
_cell_angle_gamma   89.96860968
_symmetry_Int_Tables_number   1
_chemical_formula_structural   ZrScNbPdRh
_chemical_formula_sum   'Zr50 Sc50 Nb50 Pd50 Rh50'
_cell_volume   4536.92696470
_cell_formula_units_Z   50
loop_
 _symmetry_equiv_pos_site_id
 _symmetry_equiv_pos_as_xyz
  1  'x, y, z'
loop_
 _atom_site_type_symbol
 _atom_site_label
 _atom_site_symmetry_multiplicity
 _atom_site_fract_x
 _atom_site_fract_y
 _atom_site_fract_z
 _atom_site_occupancy
  Zr  Zr0  1  0.09994809  0.09895796  0.89345517  1
  Zr  Zr1  1  0.89646853  0.30293097  0.49532056  1
  Zr  Zr2  1  0.30102098  0.89537403  0.09378771  1
  Zr  Zr3  1  0.50076826  0.90308092  0.89825788  1
  Zr  Zr4  1  0.50301241  0.90371139  0.09939141  1
  Zr  Zr5  1  0.29546621  0.70590141  0.70257740  1
  Zr  Zr6  1  0.90200116  0.90251247  0.09912459  1
  Zr  Zr7  1  0.50568699  0.29418083  0.10526843  1
  Zr  Zr8  1  0.50184133  0.10113624  0.89935658  1
  Zr  Zr9  1  0.30840368  0.30243764  0.49721531  1
  Zr  Zr10  1  0.30283310  0.68672986  0.30224711  1
  Zr  Zr11  1  0.10005434  0.29984338  0.49594063  1
  Zr  Zr12  1  0.69134098  0.30558937  0.30012238  1
  Zr  Zr13  1  0.09319589  0.50251070  0.70349813  1
  Zr  Zr14  1  0.89611906  0.10345133  0.09779164  1
  Zr  Zr15  1  0.08734270  0.89238312  0.10278477  1
  Zr  Zr16  1  0.29719050  0.90581407  0.50619159  1
  Zr  Zr17  1  0.89713657  0.50135900  0.49956975  1
  Zr  Zr18  1  0.09991946  0.90439785  0.48824677  1
  Zr  Zr19  1  0.89469188  0.29944587  0.90744925  1
  Zr  Zr20  1  0.70832616  0.10065848  0.49812213  1
  Zr  Zr21  1  0.70375209  0.69328410  0.10926582  1
  Zr  Zr22  1  0.30159927  0.69968347  0.49493115  1
  Zr  Zr23  1  0.09585340  0.69670605  0.30063500  1
  Zr  Zr24  1  0.90213932  0.30695412  0.70543115  1
  Zr  Zr25  1  0.11398173  0.29974893  0.29796644  1
  Zr  Zr26  1  0.90366347  0.09940035  0.89859253  1
  Zr  Zr27  1  0.70871524  0.90148340  0.89217214  1
  Zr  Zr28  1  0.49703053  0.71051243  0.69744744  1
  Zr  Zr29  1  0.70166810  0.89938071  0.10461436  1
  Zr  Zr30  1  0.49727182  0.90111782  0.70112585  1
  Zr  Zr31  1  0.91079305  0.90246081  0.29377238  1
  Zr  Zr32  1  0.30662130  0.09657601  0.10429578  1
  Zr  Zr33  1  0.49509647  0.29847979  0.89097903  1
  Zr  Zr34  1  0.09046059  0.50385051  0.50143650  1
  Zr  Zr35  1  0.89459810  0.10052313  0.49491614  1
  Zr  Zr36  1  0.29692171  0.70503830  0.89838011  1
  Zr  Zr37  1  0.89872137  0.89770626  0.50469705  1
  Zr  Zr38  1  0.90371825  0.50202073  0.89953382  1
  Zr  Zr39  1  0.70011954  0.51278152  0.29792166  1
  Zr  Zr40  1  0.10144565  0.90205015  0.90125649  1
  Zr  Zr41  1  0.49813784  0.89438874  0.50688355  1
  Zr  Zr42  1  0.10071994  0.69927711  0.70323945  1
  Zr  Zr43  1  0.09731057  0.30975868  0.10962927  1
  Zr  Zr44  1  0.29878298  0.90091050  0.89794948  1
  Zr  Zr45  1  0.69488570  0.10161980  0.10182063  1
  Zr  Zr46  1  0.68955895  0.49998077  0.89934077  1
  Zr  Zr47  1  0.70901935  0.10444319  0.30066147  1
  Zr  Zr48  1  0.50051549  0.10418339  0.50803204  1
  Zr  Zr49  1  0.70235110  0.29322412  0.09528945  1
  Sc  Sc50  1  0.89167703  0.69695182  0.29783338  1
  Sc  Sc51  1  0.09987198  0.69691686  0.90121643  1
  Sc  Sc52  1  0.49344161  0.10355469  0.70230176  1
  Sc  Sc53  1  0.90628461  0.70504258  0.89792889  1
  Sc  Sc54  1  0.30432064  0.89844797  0.70284605  1
  Sc  Sc55  1  0.50240407  0.48405556  0.70183302  1
  Sc  Sc56  1  0.30264316  0.11064259  0.29859412  1
  Sc  Sc57  1  0.29316588  0.30288363  0.11041054  1
  Sc  Sc58  1  0.29885966  0.68695274  0.09228035  1
  Sc  Sc59  1  0.49425560  0.49709895  0.90173662  1
  Sc  Sc60  1  0.89934006  0.89922484  0.89860793  1
  Sc  Sc61  1  0.70083552  0.50092302  0.49253107  1
  Sc  Sc62  1  0.10441373  0.49291889  0.29645514  1
  Sc  Sc63  1  0.50455906  0.69379778  0.30259887  1
  Sc  Sc64  1  0.30727908  0.49786536  0.49101526  1
  Sc  Sc65  1  0.29917816  0.10045851  0.50866480  1
  Sc  Sc66  1  0.89650116  0.90623736  0.70382542  1
  Sc  Sc67  1  0.10110566  0.29983659  0.89820108  1
  Sc  Sc68  1  0.69339826  0.49713182  0.70118204  1
  Sc  Sc69  1  0.69949096  0.70147037  0.30222900  1
  Sc  Sc70  1  0.90041015  0.70996201  0.69392316  1
  Sc  Sc71  1  0.69565451  0.29540295  0.49990080  1
  Sc  Sc72  1  0.50858860  0.50444730  0.31022493  1
  Sc  Sc73  1  0.29337312  0.10216900  0.69777186  1
  Sc  Sc74  1  0.90192835  0.70942485  0.10037274  1
  Sc  Sc75  1  0.50644068  0.89740964  0.29309005  1
  Sc  Sc76  1  0.30343347  0.29893403  0.70595024  1
  Sc  Sc77  1  0.09071848  0.69528296  0.49926280  1
  Sc  Sc78  1  0.29444085  0.89653625  0.31246022  1
  Sc  Sc79  1  0.29488241  0.49267820  0.70023215  1
  Sc  Sc80  1  0.10660549  0.29989982  0.70862570  1
  Sc  Sc81  1  0.69499781  0.09985573  0.90255586  1
  Sc  Sc82  1  0.50089285  0.70462324  0.49344589  1
  Sc  Sc83  1  0.90217836  0.30691883  0.30372568  1
  Sc  Sc84  1  0.50256280  0.68812736  0.90443402  1
  Sc  Sc85  1  0.10012225  0.50708562  0.90388954  1
  Sc  Sc86  1  0.90231374  0.30048060  0.09435986  1
  Sc  Sc87  1  0.49823896  0.68959854  0.09578620  1
  Sc  Sc88  1  0.49832272  0.29947672  0.69435736  1
  Sc  Sc89  1  0.09970486  0.09252080  0.31254712  1
  Sc  Sc90  1  0.49960820  0.30545420  0.50328771  1
  Sc  Sc91  1  0.50014105  0.10360340  0.28857530  1
  Sc  Sc92  1  0.50559217  0.09613430  0.10022134  1
  Sc  Sc93  1  0.10782230  0.09298305  0.50318648  1
  Sc  Sc94  1  0.89551409  0.69749059  0.49743266  1
  Sc  Sc95  1  0.08921198  0.09387127  0.09318819  1
  Sc  Sc96  1  0.70857303  0.09687357  0.69798616  1
  Sc  Sc97  1  0.89350851  0.50349516  0.30768332  1
  Sc  Sc98  1  0.29985897  0.48872559  0.90422980  1
  Sc  Sc99  1  0.09240733  0.90538095  0.69503727  1
  Nb  Nb100  1  0.90469456  0.49696770  0.09762365  1
  Nb  Nb101  1  0.49986829  0.50133304  0.09323592  1
  Nb  Nb102  1  0.69861572  0.89963353  0.29850465  1
  Nb  Nb103  1  0.10033521  0.90016436  0.29774083  1
  Nb  Nb104  1  0.49222416  0.30089708  0.29891833  1
  Nb  Nb105  1  0.70151964  0.69539063  0.89888788  1
  Nb  Nb106  1  0.69813381  0.50250036  0.10179483  1
  Nb  Nb107  1  0.90222730  0.10115844  0.70035332  1
  Nb  Nb108  1  0.10045806  0.50304858  0.09842569  1
  Nb  Nb109  1  0.70153275  0.89808530  0.50161534  1
  Nb  Nb110  1  0.29733579  0.29619710  0.89639059  1
  Nb  Nb111  1  0.29672453  0.10314018  0.90044895  1
  Nb  Nb112  1  0.69625898  0.29955347  0.89894395  1
  Nb  Nb113  1  0.09345940  0.10152372  0.70097395  1
  Nb  Nb114  1  0.30745375  0.30879618  0.30214011  1
  Nb  Nb115  1  0.69773982  0.30709837  0.70293195  1
  Nb  Nb116  1  0.70543181  0.89415533  0.69618637  1
  Nb  Nb117  1  0.09830385  0.69128003  0.09687828  1
  Nb  Nb118  1  0.70187984  0.70380092  0.70011747  1
  Nb  Nb119  1  0.90216658  0.10285463  0.29929577  1
  Nb  Nb120  1  0.30775690  0.49598277  0.29857401  1
  Nb  Nb121  1  0.50210702  0.50204147  0.50915132  1
  Nb  Nb122  1  0.70040098  0.70911878  0.50880319  1
  Nb  Nb123  1  0.89877780  0.50185587  0.70247282  1
  Nb  Nb124  1  0.30189973  0.50025474  0.10088867  1
  Nb  Nb125  1  0.40349047  0.40556410  0.20254603  1
  Nb  Nb126  1  0.19569126  0.79952155  0.59628457  1
  Nb  Nb127  1  0.39215738  0.79566845  0.19822570  1
  Nb  Nb128  1  0.40890271  0.00095906  0.40376306  1
  Nb  Nb129  1  0.79615134  0.40724607  0.19401542  1
  Nb  Nb130  1  0.00120713  0.59333204  0.19190046  1
  Nb  Nb131  1  0.60859781  0.79718933  -0.00424278  1
  Nb  Nb132  1  0.79848940  0.20698953  0.79990668  1
  Nb  Nb133  1  -0.00074087  0.19798775  0.20659764  1
  Nb  Nb134  1  0.60741262  -0.00614059  0.59624485  1
  Nb  Nb135  1  0.79943510  0.59677275  -0.00115121  1
  Nb  Nb136  1  0.59924618  0.60546596  0.59952845  1
  Nb  Nb137  1  0.60051103  0.39780975  0.00296772  1
  Nb  Nb138  1  0.80159632  0.40134001  0.60496173  1
  Nb  Nb139  1  0.60377174  -0.00306748  0.40331277  1
  Nb  Nb140  1  0.39829367  0.60019236  0.79321928  1
  Nb  Nb141  1  0.19531167  0.40068586  0.59496438  1
  Nb  Nb142  1  0.19552255  -0.00970119  0.20108753  1
  Nb  Nb143  1  0.40492144  0.59829624  0.60275248  1
  Nb  Nb144  1  0.19801777  0.79598474  0.20009616  1
  Nb  Nb145  1  0.79771608  0.60225453  0.79898641  1
  Nb  Nb146  1  0.60803207  0.79695836  0.80191626  1
  Nb  Nb147  1  -0.00066614  0.19682283  0.60368743  1
  Nb  Nb148  1  0.39239178  0.20203624  -0.00357337  1
  Nb  Nb149  1  0.20405948  0.19887928  -0.00124565  1
  Pd  Pd150  1  0.19756106  0.00390974  0.00779626  1
  Pd  Pd151  1  0.80048370  -0.00205937  0.20260134  1
  Pd  Pd152  1  0.80868392  0.21384949  0.20463597  1
  Pd  Pd153  1  0.60232529  0.80246709  0.39711832  1
  Pd  Pd154  1  0.19711379  0.39689287  0.00172642  1
  Pd  Pd155  1  0.80202703  0.80177135  0.39501310  1
  Pd  Pd156  1  0.79831346  0.79262746  0.00006984  1
  Pd  Pd157  1  0.59423443  0.60307271  0.78881362  1
  Pd  Pd158  1  0.79742738  0.00448679  -0.00237417  1
  Pd  Pd159  1  0.40817426  0.59650824  0.20053434  1
  Pd  Pd160  1  -0.00347485  0.20379334  0.79787915  1
  Pd  Pd161  1  0.00186033  0.40487867  0.39100114  1
  Pd  Pd162  1  0.00589658  0.40145721  0.80885733  1
  Pd  Pd163  1  0.19551017  0.20816983  0.60305953  1
  Pd  Pd164  1  0.41126487  0.79349908  0.00158409  1
  Pd  Pd165  1  0.20068002  0.40683291  0.40495207  1
  Pd  Pd166  1  0.59715905  0.40085935  0.40562981  1
  Pd  Pd167  1  0.18915208  0.18514631  0.19348971  1
  Pd  Pd168  1  0.59187563  0.79016433  0.19344546  1
  Pd  Pd169  1  0.60363347  0.19505187  0.60820351  1
  Pd  Pd170  1  0.00192143  0.80486107  0.80024902  1
  Pd  Pd171  1  0.19697905  0.59059333  0.40161778  1
  Pd  Pd172  1  -0.00212909  0.00593903  0.59524101  1
  Pd  Pd173  1  0.79322492  0.59432659  0.60507287  1
  Pd  Pd174  1  0.40404565  0.19473217  0.40195543  1
  Pd  Pd175  1  0.19532867  0.79374386  0.40052117  1
  Pd  Pd176  1  0.40326626  0.39081443  0.00936636  1
  Pd  Pd177  1  0.79587365  0.40426283  0.79856866  1
  Pd  Pd178  1  0.00198428  0.39366449  0.60236891  1
  Pd  Pd179  1  0.20760045  0.59661508  0.59484083  1
  Pd  Pd180  1  0.79263537  0.40663652  0.00389247  1
  Pd  Pd181  1  0.00812617  0.39806650  -0.00560022  1
  Pd  Pd182  1  0.20724013  0.59217870  0.80683934  1
  Pd  Pd183  1  0.80154441  -0.00998117  0.39404718  1
  Pd  Pd184  1  0.40208716  0.00613543  -0.00363317  1
  Pd  Pd185  1  0.39206719  0.00794262  0.79662851  1
  Pd  Pd186  1  -0.00616939  0.79627281  0.39856908  1
  Pd  Pd187  1  0.40562840  0.80548317  0.39082955  1
  Pd  Pd188  1  0.20071869  -0.00195528  0.79066299  1
  Pd  Pd189  1  0.19608008  0.59738501  0.19930051  1
  Pd  Pd190  1  0.20748412  0.19542446  0.40262108  1
  Pd  Pd191  1  0.39093849  -0.01210640  0.21358423  1
  Pd  Pd192  1  0.60645652  0.19877810  0.79124509  1
  Pd  Pd193  1  0.60680731  -0.00219999  0.78955630  1
  Pd  Pd194  1  0.59758404  0.40797690  0.19635666  1
  Pd  Pd195  1  0.19250640  0.79411685  0.00506732  1
  Pd  Pd196  1  0.59273360  0.19544298  0.39544563  1
  Pd  Pd197  1  0.80416220  0.20959841  0.60855012  1
  Pd  Pd198  1  -0.00873955  0.60662326  0.60485265  1
  Pd  Pd199  1  0.00266782  0.19677546  0.40100696  1
  Rh  Rh200  1  -0.00896439  0.60560815  0.79519538  1
  Rh  Rh201  1  0.00277392  0.78748191  0.20230090  1
  Rh  Rh202  1  0.39149867  0.40351810  0.60032773  1
  Rh  Rh203  1  0.59344795  0.59968091  0.19897399  1
  Rh  Rh204  1  0.19608368  -0.00652484  0.60641766  1
  Rh  Rh205  1  0.01185970  0.20855888  0.00945898  1
  Rh  Rh206  1  -0.00646571  0.00138493  0.40161089  1
  Rh  Rh207  1  0.00468209  0.01240519  0.20578093  1
  Rh  Rh208  1  0.19811293  0.40255559  0.79681207  1
  Rh  Rh209  1  -0.00728460  0.60474770  0.00604154  1
  Rh  Rh210  1  0.60159095  0.19695335  0.20633490  1
  Rh  Rh211  1  0.60528602  -0.00724276  0.00087095  1
  Rh  Rh212  1  0.00267326  0.79752146  -0.00500834  1
  Rh  Rh213  1  0.41024784  0.79276688  0.81514286  1
  Rh  Rh214  1  0.79984500  0.20993718  0.39233767  1
  Rh  Rh215  1  -0.00213256  -0.00267151  0.80109345  1
  Rh  Rh216  1  0.60789397  0.00488369  0.20836286  1
  Rh  Rh217  1  0.39697679  0.40270702  0.79791208  1
  Rh  Rh218  1  0.39630712  0.20443996  0.60242878  1
  Rh  Rh219  1  0.60565597  0.60781154  0.41315886  1
  Rh  Rh220  1  0.21076126  0.41180708  0.20022821  1
  Rh  Rh221  1  -0.00358120  0.59627135  0.38965564  1
  Rh  Rh222  1  0.18972594  0.80946150  0.79155799  1
  Rh  Rh223  1  0.39139631  0.59569567  -0.01190904  1
  Rh  Rh224  1  0.41145732  0.40480831  0.39552435  1
  Rh  Rh225  1  0.21387149  0.00810639  0.39204441  1
  Rh  Rh226  1  0.79879945  -0.00412581  0.60361170  1
  Rh  Rh227  1  0.79958609  0.79407977  0.79662607  1
  Rh  Rh228  1  0.81193329  0.59306949  0.19046870  1
  Rh  Rh229  1  0.20512089  0.59410162  -0.00238027  1
  Rh  Rh230  1  0.20032910  0.19651696  0.80299471  1
  Rh  Rh231  1  0.79262548  0.60941326  0.40573923  1
  Rh  Rh232  1  0.60528315  0.59895634  0.00615966  1
  Rh  Rh233  1  0.59559981  0.39483332  0.80581246  1
  Rh  Rh234  1  0.79172446  0.39733753  0.39883420  1
  Rh  Rh235  1  0.80255606  0.00908461  0.79782984  1
  Rh  Rh236  1  0.79560728  0.19286115  -0.00902220  1
  Rh  Rh237  1  0.59174737  0.20476835  -0.00536238  1
  Rh  Rh238  1  -0.00476506  -0.00505368  -0.00676921  1
  Rh  Rh239  1  0.39875093  0.21047319  0.19429576  1
  Rh  Rh240  1  0.61094160  0.40334912  0.59494436  1
  Rh  Rh241  1  0.80508816  0.80281468  0.60031786  1
  Rh  Rh242  1  0.40709473  0.59436855  0.40637415  1
  Rh  Rh243  1  0.38708951  0.79453960  0.59481385  1
  Rh  Rh244  1  0.60427899  0.80115883  0.60586456  1
  Rh  Rh245  1  0.39537630  0.19670801  0.80158235  1
  Rh  Rh246  1  -0.00891711  0.40226002  0.20343355  1
  Rh  Rh247  1  0.40538447  0.00403180  0.60054304  1
  Rh  Rh248  1  0.80246080  0.80679838  0.20685279  1
  Rh  Rh249  1  0.00590705  0.80036435  0.59409623  1
