# generated using pymatgen
data_ZrScNbPdRh
_symmetry_space_group_name_H-M   'P 1'
_cell_length_a   16.54754052
_cell_length_b   16.55116128
_cell_length_c   16.55105533
_cell_angle_alpha   90.04975521
_cell_angle_beta   89.97876292
_cell_angle_gamma   89.97840154
_symmetry_Int_Tables_number   1
_chemical_formula_structural   ZrScNbPdRh
_chemical_formula_sum   'Zr50 Sc50 Nb50 Pd50 Rh50'
_cell_volume   4533.01743822
_cell_formula_units_Z   50
loop_
 _symmetry_equiv_pos_site_id
 _symmetry_equiv_pos_as_xyz
  1  'x, y, z'
loop_
 _atom_site_type_symbol
 _atom_site_label
 _atom_site_symmetry_multiplicity
 _atom_site_fract_x
 _atom_site_fract_y
 _atom_site_fract_z
 _atom_site_occupancy
  Zr  Zr0  1  0.70372524  0.10444359  0.50760483  1
  Zr  Zr1  1  0.49812401  0.31101615  0.49575839  1
  Zr  Zr2  1  0.49913491  0.29755311  0.30067721  1
  Zr  Zr3  1  0.91085020  0.50719059  0.10176557  1
  Zr  Zr4  1  0.49614378  0.69621901  0.30027738  1
  Zr  Zr5  1  0.71375160  0.70591879  0.09781836  1
  Zr  Zr6  1  0.89483830  0.10348265  0.70183107  1
  Zr  Zr7  1  0.30026151  0.89774025  0.49889242  1
  Zr  Zr8  1  0.10819545  0.69842126  0.30143354  1
  Zr  Zr9  1  0.10071914  0.88715260  0.90154371  1
  Zr  Zr10  1  0.90207485  0.30048273  0.30426012  1
  Zr  Zr11  1  0.29481174  0.49948709  0.89758293  1
  Zr  Zr12  1  0.30533953  0.29119521  0.89734657  1
  Zr  Zr13  1  0.10377630  0.69672624  0.50769207  1
  Zr  Zr14  1  0.89964212  0.10246840  0.89781765  1
  Zr  Zr15  1  0.71021294  0.29868148  0.69962932  1
  Zr  Zr16  1  0.50431033  0.90416120  0.08792597  1
  Zr  Zr17  1  0.69291787  0.10625531  0.29130654  1
  Zr  Zr18  1  0.90583233  0.90380218  0.30186760  1
  Zr  Zr19  1  0.30773065  0.90524329  0.90926339  1
  Zr  Zr20  1  0.09683200  0.30060210  0.70240484  1
  Zr  Zr21  1  0.29807964  0.69415225  0.70030516  1
  Zr  Zr22  1  0.30825882  0.71485174  0.30096621  1
  Zr  Zr23  1  0.29329951  0.48989497  0.09485087  1
  Zr  Zr24  1  0.49831289  0.70173735  0.10373168  1
  Zr  Zr25  1  0.29776367  0.69781376  0.09863258  1
  Zr  Zr26  1  0.90113483  0.91053771  0.50140104  1
  Zr  Zr27  1  0.88723758  0.70721989  0.50442713  1
  Zr  Zr28  1  0.70508990  0.49683543  0.70175000  1
  Zr  Zr29  1  0.10435814  0.90622449  0.28554235  1
  Zr  Zr30  1  0.10574363  0.31222522  0.09580435  1
  Zr  Zr31  1  0.90571291  0.30107930  0.09822863  1
  Zr  Zr32  1  0.70605524  0.69871577  0.90303049  1
  Zr  Zr33  1  0.69243505  0.89599664  0.90740144  1
  Zr  Zr34  1  0.69889131  0.29914662  0.90084534  1
  Zr  Zr35  1  0.50333820  0.49829053  0.30241131  1
  Zr  Zr36  1  0.29305776  0.69978178  0.89677743  1
  Zr  Zr37  1  0.90396127  0.49574538  0.30199980  1
  Zr  Zr38  1  0.89953953  0.69681613  0.28690135  1
  Zr  Zr39  1  0.08939488  0.50018796  0.70014818  1
  Zr  Zr40  1  0.49656759  0.29979320  0.09356040  1
  Zr  Zr41  1  0.10252368  0.49873266  0.09486103  1
  Zr  Zr42  1  0.49510900  0.49516913  0.10221070  1
  Zr  Zr43  1  0.30037668  0.10372847  0.09044387  1
  Zr  Zr44  1  0.90437030  0.10275484  0.30378130  1
  Zr  Zr45  1  0.88805440  0.10919795  0.10010805  1
  Zr  Zr46  1  0.49506804  0.89490349  0.29672052  1
  Zr  Zr47  1  0.68688510  0.49793442  0.50601704  1
  Zr  Zr48  1  0.90417048  0.30072053  0.49988236  1
  Zr  Zr49  1  0.50272571  0.11068521  0.49962995  1
  Sc  Sc50  1  0.49973527  0.11364869  0.29736387  1
  Sc  Sc51  1  0.49703023  0.48364541  0.89701118  1
  Sc  Sc52  1  0.69969674  0.28543132  0.09942625  1
  Sc  Sc53  1  0.09553055  0.89907411  0.70542539  1
  Sc  Sc54  1  0.29168366  0.30031161  0.70462078  1
  Sc  Sc55  1  0.70192127  0.10127691  0.70311910  1
  Sc  Sc56  1  0.29816685  0.30333294  0.30263398  1
  Sc  Sc57  1  0.09819497  0.29991483  0.30394252  1
  Sc  Sc58  1  0.70830056  0.09412972  0.89864835  1
  Sc  Sc59  1  0.90262125  0.89767449  0.89636248  1
  Sc  Sc60  1  0.90479578  0.69980033  0.90564649  1
  Sc  Sc61  1  0.30792439  0.90661184  0.68590493  1
  Sc  Sc62  1  0.49915737  0.69403673  0.49198305  1
  Sc  Sc63  1  0.69737402  0.30446496  0.50385796  1
  Sc  Sc64  1  0.48527050  0.09212413  0.89735713  1
  Sc  Sc65  1  0.29562738  0.69900239  0.49296999  1
  Sc  Sc66  1  0.90343930  0.48828496  0.49845315  1
  Sc  Sc67  1  0.29213565  0.90081239  0.09989888  1
  Sc  Sc68  1  0.09958387  0.69567904  0.70549992  1
  Sc  Sc69  1  0.10823508  0.10057380  0.10660808  1
  Sc  Sc70  1  0.10115296  0.49958782  0.89984896  1
  Sc  Sc71  1  0.70870619  0.89597403  0.49615667  1
  Sc  Sc72  1  0.09990672  0.49663973  0.29225755  1
  Sc  Sc73  1  0.69759044  0.89890940  0.30424248  1
  Sc  Sc74  1  0.50136723  0.09104312  0.69711045  1
  Sc  Sc75  1  0.30144276  0.10660270  0.70212156  1
  Sc  Sc76  1  0.09784642  0.70184347  0.09402694  1
  Sc  Sc77  1  0.70795683  0.49696281  0.89923776  1
  Sc  Sc78  1  0.49214732  0.90256591  0.51054166  1
  Sc  Sc79  1  0.70824053  0.68489518  0.68734911  1
  Sc  Sc80  1  0.50077529  0.49478119  0.69700781  1
  Sc  Sc81  1  0.28932351  0.09958819  0.51289007  1
  Sc  Sc82  1  0.10617957  0.10044859  0.69718518  1
  Sc  Sc83  1  0.29539745  0.11161421  0.28961157  1
  Sc  Sc84  1  0.90025278  0.88205590  0.10152333  1
  Sc  Sc85  1  0.50185073  0.69292898  0.69596114  1
  Sc  Sc86  1  0.30009362  0.50477251  0.30039583  1
  Sc  Sc87  1  0.69148106  0.90978836  0.71258406  1
  Sc  Sc88  1  0.09711479  0.10608391  0.30060931  1
  Sc  Sc89  1  0.10104785  0.11081194  0.90033146  1
  Sc  Sc90  1  0.10690361  0.30479044  0.50009099  1
  Sc  Sc91  1  0.10128577  0.90836280  0.51206580  1
  Sc  Sc92  1  0.49282631  0.30632207  0.70365976  1
  Sc  Sc93  1  0.29761737  0.49343596  0.70866132  1
  Sc  Sc94  1  0.09746196  0.30027535  0.89885851  1
  Sc  Sc95  1  0.69476897  0.30196300  0.30518751  1
  Sc  Sc96  1  0.90232799  0.90763270  0.70589721  1
  Sc  Sc97  1  0.90342886  0.50833878  0.89912124  1
  Sc  Sc98  1  0.69102858  0.09757144  0.09569639  1
  Sc  Sc99  1  0.70000350  0.50345507  0.09999553  1
  Nb  Nb100  1  0.10382421  0.70523801  0.89267281  1
  Nb  Nb101  1  0.09874862  0.50201178  0.50094521  1
  Nb  Nb102  1  0.89847562  0.69480780  0.09602748  1
  Nb  Nb103  1  0.30049163  0.30019032  0.09632091  1
  Nb  Nb104  1  0.50640179  0.89209222  0.89069204  1
  Nb  Nb105  1  0.30313213  0.30832981  0.50437806  1
  Nb  Nb106  1  0.50018917  0.29721049  0.89794456  1
  Nb  Nb107  1  0.90249003  0.30131725  0.70229427  1
  Nb  Nb108  1  0.69649343  0.70048695  0.49928784  1
  Nb  Nb109  1  0.90279383  0.29064481  0.90068487  1
  Nb  Nb110  1  0.49065427  0.49582320  0.50164023  1
  Nb  Nb111  1  0.29677041  0.10146972  0.89649274  1
  Nb  Nb112  1  0.69350989  0.69668986  0.30684109  1
  Nb  Nb113  1  0.30275133  0.90242603  0.30047198  1
  Nb  Nb114  1  0.50049790  0.09794519  0.11112766  1
  Nb  Nb115  1  0.90470388  0.09739899  0.50233599  1
  Nb  Nb116  1  0.09608465  0.10309988  0.50515938  1
  Nb  Nb117  1  0.89865210  0.69145775  0.70498238  1
  Nb  Nb118  1  0.30391618  0.48898110  0.49816440  1
  Nb  Nb119  1  0.70194816  0.49841047  0.30334814  1
  Nb  Nb120  1  0.90140471  0.50263741  0.70466363  1
  Nb  Nb121  1  0.09737119  0.90451715  0.09516643  1
  Nb  Nb122  1  0.50414179  0.89719144  0.70368758  1
  Nb  Nb123  1  0.50464603  0.70408847  0.90104857  1
  Nb  Nb124  1  0.69683382  0.90294801  0.10152359  1
  Nb  Nb125  1  -0.00183772  0.60495259  0.40365764  1
  Nb  Nb126  1  0.40837826  0.80174751  0.79966700  1
  Nb  Nb127  1  0.59371548  0.60206364  -0.00461482  1
  Nb  Nb128  1  0.79850340  0.79325007  0.79698139  1
  Nb  Nb129  1  0.79452474  0.60089043  0.39938611  1
  Nb  Nb130  1  0.20342219  0.00102172  0.39644528  1
  Nb  Nb131  1  0.59355463  0.00402331  0.40049025  1
  Nb  Nb132  1  0.60018500  0.59920218  0.80576623  1
  Nb  Nb133  1  0.40312784  0.59972416  -0.00516047  1
  Nb  Nb134  1  0.80499949  0.19651196  0.40492556  1
  Nb  Nb135  1  0.39626593  0.00457548  0.39521493  1
  Nb  Nb136  1  0.60428019  0.79605185  0.59885219  1
  Nb  Nb137  1  0.00228840  -0.00179243  0.00428555  1
  Nb  Nb138  1  0.39695184  0.20943651  0.59560372  1
  Nb  Nb139  1  0.40044123  0.00190929  0.19948311  1
  Nb  Nb140  1  -0.00837088  0.79537046  0.60059695  1
  Nb  Nb141  1  0.80816161  0.39521070  0.00355319  1
  Nb  Nb142  1  0.00176404  0.79833258  0.40414524  1
  Nb  Nb143  1  0.59492920  0.20344118  0.80528055  1
  Nb  Nb144  1  0.80176442  0.39971808  0.19948063  1
  Nb  Nb145  1  0.79692364  -0.00248380  0.19785565  1
  Nb  Nb146  1  0.20624003  0.00095440  0.80672631  1
  Nb  Nb147  1  -0.00311553  0.19864824  0.59905871  1
  Nb  Nb148  1  0.60437835  0.79797815  0.19935241  1
  Nb  Nb149  1  0.39626623  0.58985897  0.59271963  1
  Pd  Pd150  1  0.39398842  0.39567032  0.20531244  1
  Pd  Pd151  1  0.39238060  0.59466675  0.19623793  1
  Pd  Pd152  1  0.80957696  -0.01004028  0.00659152  1
  Pd  Pd153  1  0.20379709  0.19571052  0.40652364  1
  Pd  Pd154  1  0.60546389  -0.00945343  0.59307382  1
  Pd  Pd155  1  0.20908079  0.58777575  0.60344194  1
  Pd  Pd156  1  0.19937508  0.59197629  0.40034098  1
  Pd  Pd157  1  0.01506264  -0.00357264  0.40160805  1
  Pd  Pd158  1  0.19936909  0.80074761  0.19260952  1
  Pd  Pd159  1  0.59952222  0.59451978  0.40369578  1
  Pd  Pd160  1  0.79576419  0.81138101  0.61461860  1
  Pd  Pd161  1  0.19638022  0.40601752  0.60384695  1
  Pd  Pd162  1  0.40692517  0.78613982  0.60064988  1
  Pd  Pd163  1  -0.00989554  0.60110407  0.59522767  1
  Pd  Pd164  1  0.59190559  0.80772989  0.40538113  1
  Pd  Pd165  1  0.00955411  0.60594940  -0.00760565  1
  Pd  Pd166  1  0.00777758  0.20382107  0.19447539  1
  Pd  Pd167  1  0.00648491  0.79385674  0.19864749  1
  Pd  Pd168  1  0.19370965  0.80405789  0.60835296  1
  Pd  Pd169  1  0.40694775  0.19471486  -0.00012467  1
  Pd  Pd170  1  0.38460498  0.19539330  0.40807456  1
  Pd  Pd171  1  0.60880799  0.39430675  0.19519947  1
  Pd  Pd172  1  0.40999095  0.60105397  0.79913494  1
  Pd  Pd173  1  -0.00969129  0.00542683  0.18736084  1
  Pd  Pd174  1  0.21531735  0.81373320  0.78965274  1
  Pd  Pd175  1  0.80703369  0.58694240  0.58994111  1
  Pd  Pd176  1  0.00847722  0.19328395  0.00830580  1
  Pd  Pd177  1  0.79415677  0.59262951  0.20361607  1
  Pd  Pd178  1  0.79338673  0.80640733  0.20829663  1
  Pd  Pd179  1  0.19104238  0.00385268  -0.00709830  1
  Pd  Pd180  1  0.80411148  0.79577588  0.38938891  1
  Pd  Pd181  1  0.01147586  0.00676141  0.80717717  1
  Pd  Pd182  1  0.39599252  -0.00597173  0.79410883  1
  Pd  Pd183  1  -0.00545665  0.40088826  0.80792509  1
  Pd  Pd184  1  0.81311191  0.39806268  0.80900930  1
  Pd  Pd185  1  0.59237184  0.18765618  -0.00816096  1
  Pd  Pd186  1  0.18987946  0.81258593  0.40201789  1
  Pd  Pd187  1  0.78961694  0.00922570  0.39273648  1
  Pd  Pd188  1  0.59160222  0.21033100  0.61272576  1
  Pd  Pd189  1  0.19790962  0.20902232  0.19694323  1
  Pd  Pd190  1  0.19675620  0.40501039  0.39512809  1
  Pd  Pd191  1  0.60063052  0.39950217  0.79519259  1
  Pd  Pd192  1  0.59397844  0.00994302  -0.00974407  1
  Pd  Pd193  1  0.39834098  0.79606018  -0.00300107  1
  Pd  Pd194  1  0.20105556  0.59953675  0.19879718  1
  Pd  Pd195  1  0.80521136  0.40435929  0.59945045  1
  Pd  Pd196  1  0.60625198  0.78603715  0.78558918  1
  Pd  Pd197  1  0.60853773  0.40460688  0.00282211  1
  Pd  Pd198  1  0.79411811  -0.00564434  0.60845427  1
  Pd  Pd199  1  0.60641089  0.60443835  0.19422441  1
  Rh  Rh200  1  0.19832849  0.20798654  0.59893890  1
  Rh  Rh201  1  0.40256729  0.00450616  0.00674556  1
  Rh  Rh202  1  0.00104882  0.00433455  0.60832518  1
  Rh  Rh203  1  0.59859103  -0.00780315  0.20720175  1
  Rh  Rh204  1  0.39529456  0.39553711  0.80199155  1
  Rh  Rh205  1  0.60330368  0.79474065  0.00954904  1
  Rh  Rh206  1  0.19823639  0.00039098  0.60531543  1
  Rh  Rh207  1  0.40212391  0.01273934  0.59341144  1
  Rh  Rh208  1  0.59768969  0.40345361  0.39980626  1
  Rh  Rh209  1  0.39393529  0.59609436  0.40412033  1
  Rh  Rh210  1  0.79707211  0.20449151  -0.00713409  1
  Rh  Rh211  1  0.61271434  0.19799785  0.40442065  1
  Rh  Rh212  1  0.00004888  0.39584886  0.60157128  1
  Rh  Rh213  1  -0.00029088  0.20051303  0.41023306  1
  Rh  Rh214  1  0.00909855  0.60511152  0.20080576  1
  Rh  Rh215  1  0.40446519  0.80349477  0.40824108  1
  Rh  Rh216  1  0.19895623  0.20486485  -0.00085470  1
  Rh  Rh217  1  0.40600898  0.19875885  0.79111695  1
  Rh  Rh218  1  -0.00076280  0.39608774  0.20160668  1
  Rh  Rh219  1  0.79894173  0.20250866  0.21122826  1
  Rh  Rh220  1  0.19748887  0.79777877  0.00344014  1
  Rh  Rh221  1  0.20874958  0.00331781  0.20369673  1
  Rh  Rh222  1  0.18949941  0.59479271  0.79837882  1
  Rh  Rh223  1  0.20284605  0.39594322  0.20336398  1
  Rh  Rh224  1  0.39409013  0.40083414  -0.00613856  1
  Rh  Rh225  1  -0.01013783  0.79051392  0.79284363  1
  Rh  Rh226  1  0.80932014  0.20215869  0.59538809  1
  Rh  Rh227  1  0.39946703  0.20272163  0.19229092  1
  Rh  Rh228  1  0.80530067  0.80599795  -0.00695528  1
  Rh  Rh229  1  0.19788270  0.19572648  0.80061359  1
  Rh  Rh230  1  0.79127306  0.39807955  0.39572020  1
  Rh  Rh231  1  0.59010197  0.60114635  0.59971327  1
  Rh  Rh232  1  0.79542377  0.20271574  0.80385574  1
  Rh  Rh233  1  -0.00111556  0.19914541  0.79128401  1
  Rh  Rh234  1  0.39485915  0.40007351  0.60733298  1
  Rh  Rh235  1  0.59381287  0.20929124  0.19481339  1
  Rh  Rh236  1  0.00319396  0.60386365  0.80464949  1
  Rh  Rh237  1  0.79759913  0.60278147  0.80062792  1
  Rh  Rh238  1  -0.00628273  0.40129680  -0.00816287  1
  Rh  Rh239  1  0.01318492  0.40586206  0.40191288  1
  Rh  Rh240  1  0.79986893  0.59113057  0.00242051  1
  Rh  Rh241  1  0.20489836  0.39089315  -0.01105144  1
  Rh  Rh242  1  0.79771433  -0.00983443  0.80537166  1
  Rh  Rh243  1  0.40315000  0.81064006  0.18853837  1
  Rh  Rh244  1  0.39863790  0.40240434  0.39050537  1
  Rh  Rh245  1  0.19460615  0.39760391  0.80268287  1
  Rh  Rh246  1  0.00024641  0.79861985  0.00105116  1
  Rh  Rh247  1  0.59746563  0.39699813  0.60538481  1
  Rh  Rh248  1  0.59670568  0.01016439  0.80659185  1
  Rh  Rh249  1  0.19921272  0.60468723  -0.00466410  1
