# generated using pymatgen
data_ZrScNbPdRh
_symmetry_space_group_name_H-M   'P 1'
_cell_length_a   16.56236219
_cell_length_b   16.55684307
_cell_length_c   16.55853002
_cell_angle_alpha   89.99319550
_cell_angle_beta   90.00227241
_cell_angle_gamma   90.01818470
_symmetry_Int_Tables_number   1
_chemical_formula_structural   ZrScNbPdRh
_chemical_formula_sum   'Zr50 Sc50 Nb50 Pd50 Rh50'
_cell_volume   4540.68698643
_cell_formula_units_Z   50
loop_
 _symmetry_equiv_pos_site_id
 _symmetry_equiv_pos_as_xyz
  1  'x, y, z'
loop_
 _atom_site_type_symbol
 _atom_site_label
 _atom_site_symmetry_multiplicity
 _atom_site_fract_x
 _atom_site_fract_y
 _atom_site_fract_z
 _atom_site_occupancy
  Zr  Zr0  1  0.69687245  0.90154539  0.69817153  1
  Zr  Zr1  1  0.89371337  0.90391168  0.10898089  1
  Zr  Zr2  1  0.09672264  0.09034179  0.30329268  1
  Zr  Zr3  1  0.89389484  0.10336367  0.90357901  1
  Zr  Zr4  1  0.10639182  0.49501079  0.89992216  1
  Zr  Zr5  1  0.29613092  0.70518235  0.50386046  1
  Zr  Zr6  1  0.30460456  0.89499351  0.69248337  1
  Zr  Zr7  1  0.10397949  0.30096184  0.50057603  1
  Zr  Zr8  1  0.90128465  0.70045052  0.50622369  1
  Zr  Zr9  1  0.50336077  0.10535444  0.50087094  1
  Zr  Zr10  1  0.89807337  0.10870542  0.71207052  1
  Zr  Zr11  1  0.29889299  0.30370369  0.49396312  1
  Zr  Zr12  1  0.30216083  0.89954330  0.10202173  1
  Zr  Zr13  1  0.70889322  0.70395480  0.70798226  1
  Zr  Zr14  1  0.90302610  0.89555079  0.90808424  1
  Zr  Zr15  1  0.50074017  0.49557300  0.10557043  1
  Zr  Zr16  1  0.91494266  0.70060428  0.30288812  1
  Zr  Zr17  1  0.10083860  0.30639850  0.70202790  1
  Zr  Zr18  1  0.10533912  0.68824013  0.69528268  1
  Zr  Zr19  1  0.70373468  0.70394757  0.10075720  1
  Zr  Zr20  1  0.50020251  0.91164924  0.50091994  1
  Zr  Zr21  1  0.50489253  0.69654892  0.29072695  1
  Zr  Zr22  1  0.49538953  0.09539396  0.29992876  1
  Zr  Zr23  1  0.10845433  0.10450696  0.70386427  1
  Zr  Zr24  1  0.70844321  0.30031653  0.31378908  1
  Zr  Zr25  1  0.49936317  0.70120199  0.49828709  1
  Zr  Zr26  1  0.49959288  0.89146463  0.10609554  1
  Zr  Zr27  1  0.69215555  0.50015973  0.30489281  1
  Zr  Zr28  1  0.29889852  0.89758881  0.89808693  1
  Zr  Zr29  1  0.50241023  0.09730945  0.10862118  1
  Zr  Zr30  1  0.29559538  0.90785199  0.29576353  1
  Zr  Zr31  1  0.29234172  0.69570529  0.30041350  1
  Zr  Zr32  1  0.70391592  0.51016689  0.89894154  1
  Zr  Zr33  1  0.10965608  0.69079533  0.10882928  1
  Zr  Zr34  1  0.49782761  0.70065888  0.70770600  1
  Zr  Zr35  1  0.28729624  0.10457780  0.89780134  1
  Zr  Zr36  1  0.30407618  0.29753370  0.70973043  1
  Zr  Zr37  1  0.49510692  0.30684051  0.88886676  1
  Zr  Zr38  1  0.49758654  0.49896134  0.30072136  1
  Zr  Zr39  1  0.09206449  0.49659071  0.69948706  1
  Zr  Zr40  1  0.88438575  0.30277870  0.49682464  1
  Zr  Zr41  1  0.30309666  0.90273400  0.50512119  1
  Zr  Zr42  1  0.90311875  0.30495051  0.69849674  1
  Zr  Zr43  1  0.50479362  0.89858468  0.90880138  1
  Zr  Zr44  1  0.10118919  0.49365778  0.09732820  1
  Zr  Zr45  1  0.49769571  0.49986202  0.49624657  1
  Zr  Zr46  1  0.69211339  0.28698071  0.50060033  1
  Zr  Zr47  1  0.30550489  0.49511380  0.30167016  1
  Zr  Zr48  1  0.70239841  0.29646936  0.69504591  1
  Zr  Zr49  1  0.69820333  0.09279978  0.49712873  1
  Sc  Sc50  1  0.70847339  0.90687616  0.28849085  1
  Sc  Sc51  1  0.11521972  0.90452893  0.69897451  1
  Sc  Sc52  1  0.29013135  0.28752639  0.10421742  1
  Sc  Sc53  1  0.88788428  0.90514668  0.50140693  1
  Sc  Sc54  1  0.09358089  0.51811176  0.29374105  1
  Sc  Sc55  1  0.10609740  0.70583608  0.90173214  1
  Sc  Sc56  1  0.10996971  0.90759304  0.49229863  1
  Sc  Sc57  1  0.89815833  0.70975078  0.09026204  1
  Sc  Sc58  1  0.49309652  0.29939838  0.69465670  1
  Sc  Sc59  1  0.90347589  0.50870797  0.90107681  1
  Sc  Sc60  1  0.10647171  0.10669294  0.10481397  1
  Sc  Sc61  1  0.09636287  0.28972600  0.29935797  1
  Sc  Sc62  1  0.69629173  0.50026954  0.09803710  1
  Sc  Sc63  1  0.69953073  0.90580489  0.89338591  1
  Sc  Sc64  1  0.88631718  0.69774605  0.89919577  1
  Sc  Sc65  1  0.90879361  0.29539897  0.10041057  1
  Sc  Sc66  1  0.69707436  0.90901701  0.09579134  1
  Sc  Sc67  1  0.69918793  0.68823882  0.50500836  1
  Sc  Sc68  1  0.88177078  0.89736005  0.70119508  1
  Sc  Sc69  1  0.10647719  0.29772398  0.90528127  1
  Sc  Sc70  1  0.70012887  0.29739231  0.10382799  1
  Sc  Sc71  1  0.29502518  0.49745661  0.49024927  1
  Sc  Sc72  1  0.90386629  0.29410161  0.29660981  1
  Sc  Sc73  1  0.30058901  0.09872649  0.70080106  1
  Sc  Sc74  1  0.09852016  0.88846963  0.09529236  1
  Sc  Sc75  1  0.91279243  0.49956977  0.10212276  1
  Sc  Sc76  1  0.90481083  0.28958103  0.90215099  1
  Sc  Sc77  1  0.49778834  0.49363583  0.70811848  1
  Sc  Sc78  1  0.69603691  0.10378237  0.29580622  1
  Sc  Sc79  1  0.49947698  0.09146593  0.89290791  1
  Sc  Sc80  1  0.09555611  0.30259669  0.09764999  1
  Sc  Sc81  1  0.29915066  0.50155566  0.90036437  1
  Sc  Sc82  1  0.29516243  0.50336157  0.09850019  1
  Sc  Sc83  1  0.70491382  0.09566188  0.90425158  1
  Sc  Sc84  1  0.90704895  0.09094138  0.29268839  1
  Sc  Sc85  1  0.30841900  0.70122983  0.09602694  1
  Sc  Sc86  1  0.70444092  0.09777280  0.10009703  1
  Sc  Sc87  1  0.49984281  0.91045604  0.70114220  1
  Sc  Sc88  1  0.69382856  0.50990725  0.70197258  1
  Sc  Sc89  1  0.69719581  0.48719387  0.49811047  1
  Sc  Sc90  1  0.10036932  0.69325103  0.48991582  1
  Sc  Sc91  1  0.90115286  0.50047463  0.50953417  1
  Sc  Sc92  1  0.69917860  0.09605172  0.70458430  1
  Sc  Sc93  1  0.28942294  0.50451612  0.71190366  1
  Sc  Sc94  1  0.29974494  0.10369423  0.49954613  1
  Sc  Sc95  1  0.10940636  0.89841097  0.90311714  1
  Sc  Sc96  1  0.49466093  0.29696989  0.50508312  1
  Sc  Sc97  1  0.70500434  0.30027130  0.90401654  1
  Sc  Sc98  1  0.49503922  0.10204607  0.69582464  1
  Sc  Sc99  1  0.49419996  0.29794945  0.29437389  1
  Nb  Nb100  1  0.09427957  0.09978121  0.50307183  1
  Nb  Nb101  1  0.90115197  0.09861733  0.09633290  1
  Nb  Nb102  1  0.30117910  0.30117736  0.90345039  1
  Nb  Nb103  1  0.29543186  0.29817756  0.30135362  1
  Nb  Nb104  1  0.90545461  0.89636489  0.29418794  1
  Nb  Nb105  1  0.08699020  0.89469719  0.29636911  1
  Nb  Nb106  1  0.70361102  0.69850505  0.30186393  1
  Nb  Nb107  1  0.30181028  0.09910725  0.10483110  1
  Nb  Nb108  1  0.50226710  0.50115474  0.90058670  1
  Nb  Nb109  1  0.49889953  0.29927307  0.09337153  1
  Nb  Nb110  1  0.90915105  0.50609440  0.70250387  1
  Nb  Nb111  1  0.90546198  0.09864167  0.50258129  1
  Nb  Nb112  1  0.29946040  0.10845602  0.28014672  1
  Nb  Nb113  1  0.49609852  0.89805192  0.29935133  1
  Nb  Nb114  1  0.30396955  0.69996358  0.70031875  1
  Nb  Nb115  1  0.90321640  0.69997431  0.69835098  1
  Nb  Nb116  1  0.49389114  0.69864226  0.90444095  1
  Nb  Nb117  1  0.50063124  0.70587471  0.09283222  1
  Nb  Nb118  1  0.90508252  0.50004510  0.29765948  1
  Nb  Nb119  1  0.69775119  0.69294298  0.89676324  1
  Nb  Nb120  1  0.31515855  0.69793744  0.88458735  1
  Nb  Nb121  1  0.09952145  0.70232004  0.30239686  1
  Nb  Nb122  1  0.09731690  0.09658981  0.89527186  1
  Nb  Nb123  1  0.09560638  0.49573726  0.50300358  1
  Nb  Nb124  1  0.69974638  0.89721276  0.50196866  1
  Nb  Nb125  1  0.60411355  0.80414466  0.39833960  1
  Nb  Nb126  1  0.79705193  0.79738725  0.39575635  1
  Nb  Nb127  1  0.00086908  -0.00314918  0.80135977  1
  Nb  Nb128  1  0.39436196  0.00446766  0.00583361  1
  Nb  Nb129  1  0.40441421  0.80468181  0.39465235  1
  Nb  Nb130  1  0.00061568  0.00508781  -0.00138341  1
  Nb  Nb131  1  0.59055482  0.20256641  -0.00224020  1
  Nb  Nb132  1  0.40159885  0.39420250  0.00041916  1
  Nb  Nb133  1  0.60177877  0.80257622  0.59625413  1
  Nb  Nb134  1  0.59243998  0.60750161  -0.00280015  1
  Nb  Nb135  1  -0.00085382  0.00290911  0.60466286  1
  Nb  Nb136  1  0.59883034  0.20259920  0.80335411  1
  Nb  Nb137  1  -0.00007037  0.80480210  0.60555132  1
  Nb  Nb138  1  -0.00161585  0.80104778  0.79173505  1
  Nb  Nb139  1  0.80446347  0.59912773  0.39364396  1
  Nb  Nb140  1  0.40007218  0.19853041  -0.00007549  1
  Nb  Nb141  1  -0.00010596  0.19689611  0.59467680  1
  Nb  Nb142  1  0.00685676  0.60279378  0.00087701  1
  Nb  Nb143  1  0.80488928  0.40318649  0.00205332  1
  Nb  Nb144  1  0.80327580  0.59992953  0.20531701  1
  Nb  Nb145  1  0.80527825  0.40504599  0.79994831  1
  Nb  Nb146  1  -0.00068360  0.40431718  0.40125793  1
  Nb  Nb147  1  0.80360410  0.40540742  0.20288510  1
  Nb  Nb148  1  0.39457220  0.60335028  0.60437610  1
  Nb  Nb149  1  0.19920876  0.39840297  0.20642258  1
  Pd  Pd150  1  0.60785400  0.80514962  0.20475631  1
  Pd  Pd151  1  0.79838658  0.59304154  0.60048817  1
  Pd  Pd152  1  0.20739139  0.00940143  0.39773559  1
  Pd  Pd153  1  0.59733149  0.39988525  0.60275431  1
  Pd  Pd154  1  0.40657195  0.81035660  0.79928944  1
  Pd  Pd155  1  0.20478309  0.59013527  0.59480887  1
  Pd  Pd156  1  0.79784563  0.41270272  0.61071267  1
  Pd  Pd157  1  0.19646664  0.00315854  0.00726810  1
  Pd  Pd158  1  0.40334294  0.59085423  0.00091021  1
  Pd  Pd159  1  0.59739838  0.80110522  0.79926355  1
  Pd  Pd160  1  0.00167418  0.61085550  0.81095080  1
  Pd  Pd161  1  0.61079081  0.39549944  0.79722896  1
  Pd  Pd162  1  0.39538114  -0.00001492  0.80379334  1
  Pd  Pd163  1  -0.00459907  0.81230019  0.41371433  1
  Pd  Pd164  1  0.38829039  0.39075331  0.19079136  1
  Pd  Pd165  1  0.60646206  -0.00527869  0.38959752  1
  Pd  Pd166  1  0.39628591  0.60621514  0.40409415  1
  Pd  Pd167  1  -0.00601868  -0.01006495  0.40678627  1
  Pd  Pd168  1  0.38942881  0.41092174  0.60205675  1
  Pd  Pd169  1  0.39928893  0.20148853  0.39618561  1
  Pd  Pd170  1  0.19781903  0.79541347  0.79563161  1
  Pd  Pd171  1  0.80253171  0.00797435  0.60481880  1
  Pd  Pd172  1  0.00073029  0.79438825  0.19084847  1
  Pd  Pd173  1  0.60434099  0.60166703  0.19093135  1
  Pd  Pd174  1  0.58832721  0.38857152  0.40094946  1
  Pd  Pd175  1  0.78754964  0.80792827  -0.00562508  1
  Pd  Pd176  1  0.59106629  0.60175586  0.60387013  1
  Pd  Pd177  1  0.60112659  0.20532715  0.20039467  1
  Pd  Pd178  1  0.80143192  0.18980593  0.59942776  1
  Pd  Pd179  1  0.18837951  0.79861681  0.59679211  1
  Pd  Pd180  1  0.39041554  0.00392047  0.39603399  1
  Pd  Pd181  1  0.19966142  0.80239844  0.20275965  1
  Pd  Pd182  1  0.60759358  0.38980932  0.20503346  1
  Pd  Pd183  1  0.80571215  0.20100918  0.19714276  1
  Pd  Pd184  1  0.00780022  0.19394704  0.00249514  1
  Pd  Pd185  1  0.60968569  0.79669703  -0.00510625  1
  Pd  Pd186  1  0.20376325  0.60700431  -0.00891906  1
  Pd  Pd187  1  0.80293140  -0.00122422  0.39081789  1
  Pd  Pd188  1  0.20919785  0.40576048  0.60434225  1
  Pd  Pd189  1  0.20200627  0.80395906  0.39619011  1
  Pd  Pd190  1  0.80816188  0.18259433  0.39272477  1
  Pd  Pd191  1  0.21132089  0.78855709  -0.00146185  1
  Pd  Pd192  1  0.18472746  0.40786593  0.38735564  1
  Pd  Pd193  1  0.20213402  0.20059102  0.60038460  1
  Pd  Pd194  1  -0.00576344  0.20481573  0.40372758  1
  Pd  Pd195  1  0.18689997  -0.00572403  0.19469057  1
  Pd  Pd196  1  0.60271427  0.40108974  -0.00487409  1
  Pd  Pd197  1  -0.00550776  0.39651727  0.81218677  1
  Pd  Pd198  1  0.20114946  0.18915375  0.39488411  1
  Pd  Pd199  1  0.39764904  0.60389440  0.19430127  1
  Rh  Rh200  1  -0.00458585  0.39280570  0.59027698  1
  Rh  Rh201  1  0.19277622  0.20349380  0.20474939  1
  Rh  Rh202  1  0.59900628  -0.00435220  0.20215771  1
  Rh  Rh203  1  0.59136287  0.60437620  0.80712962  1
  Rh  Rh204  1  0.39279152  0.20155312  0.59888696  1
  Rh  Rh205  1  0.40277156  0.19574004  0.80420360  1
  Rh  Rh206  1  0.20107962  -0.00311958  0.79813314  1
  Rh  Rh207  1  0.00168582  0.19316694  0.19793320  1
  Rh  Rh208  1  0.40329167  0.59358051  0.79609471  1
  Rh  Rh209  1  0.60091747  0.00732172  0.79888003  1
  Rh  Rh210  1  0.40088530  0.20615630  0.19712252  1
  Rh  Rh211  1  0.21048269  0.39367986  0.00880019  1
  Rh  Rh212  1  -0.00126509  0.59082671  0.41004096  1
  Rh  Rh213  1  0.40229175  -0.00302276  0.19776912  1
  Rh  Rh214  1  0.19496677  0.59563024  0.39899421  1
  Rh  Rh215  1  0.20587142  0.59383808  0.20473825  1
  Rh  Rh216  1  0.20093426  0.60638820  0.80534707  1
  Rh  Rh217  1  0.80921991  0.40955891  0.39238705  1
  Rh  Rh218  1  0.79303381  0.20633970  0.00760828  1
  Rh  Rh219  1  0.39661729  0.00743378  0.59972583  1
  Rh  Rh220  1  0.59177998  0.00809874  0.00205150  1
  Rh  Rh221  1  0.60541461  0.60145580  0.40341402  1
  Rh  Rh222  1  0.60159962  0.00055153  0.60232284  1
  Rh  Rh223  1  0.40450542  0.39212223  0.39995451  1
  Rh  Rh224  1  0.80570593  0.59494232  0.79043645  1
  Rh  Rh225  1  0.00393811  0.39328457  0.21077394  1
  Rh  Rh226  1  0.00322676  0.60405754  0.59585573  1
  Rh  Rh227  1  0.59285933  0.20088447  0.39625930  1
  Rh  Rh228  1  0.59876662  0.19508778  0.60674870  1
  Rh  Rh229  1  0.80412323  -0.00291758  0.80365838  1
  Rh  Rh230  1  0.80651260  -0.00248496  0.00151060  1
  Rh  Rh231  1  0.19909286  0.19832911  -0.00077081  1
  Rh  Rh232  1  0.00283651  0.79565817  -0.00777117  1
  Rh  Rh233  1  0.78885478  0.20983944  0.80320526  1
  Rh  Rh234  1  0.00521807  -0.00208749  0.19010435  1
  Rh  Rh235  1  0.80092515  0.59351930  0.01332262  1
  Rh  Rh236  1  0.40943913  0.79564299  0.59729595  1
  Rh  Rh237  1  0.80265732  0.79464463  0.20718852  1
  Rh  Rh238  1  0.80195217  0.00694341  0.20084227  1
  Rh  Rh239  1  -0.00606146  0.61140542  0.18875780  1
  Rh  Rh240  1  0.00944172  0.19932335  0.79690400  1
  Rh  Rh241  1  0.19817187  0.20774789  0.80292228  1
  Rh  Rh242  1  0.80277717  0.80010275  0.80565592  1
  Rh  Rh243  1  0.39468862  0.80580676  -0.00332955  1
  Rh  Rh244  1  0.39247349  0.40848803  0.80552389  1
  Rh  Rh245  1  0.39641476  0.79331769  0.20688588  1
  Rh  Rh246  1  0.20100455  0.39600873  0.80322721  1
  Rh  Rh247  1  0.20028657  0.00520794  0.59744917  1
  Rh  Rh248  1  0.79552773  0.79413851  0.59366205  1
  Rh  Rh249  1  -0.00534635  0.40674232  -0.00671921  1
