# generated using pymatgen
data_ZrScNbPdRh
_symmetry_space_group_name_H-M   'P 1'
_cell_length_a   16.55668649
_cell_length_b   16.55953739
_cell_length_c   16.55891690
_cell_angle_alpha   90.01893410
_cell_angle_beta   89.99019715
_cell_angle_gamma   89.98398389
_symmetry_Int_Tables_number   1
_chemical_formula_structural   ZrScNbPdRh
_chemical_formula_sum   'Zr50 Sc50 Nb50 Pd50 Rh50'
_cell_volume   4539.97545597
_cell_formula_units_Z   50
loop_
 _symmetry_equiv_pos_site_id
 _symmetry_equiv_pos_as_xyz
  1  'x, y, z'
loop_
 _atom_site_type_symbol
 _atom_site_label
 _atom_site_symmetry_multiplicity
 _atom_site_fract_x
 _atom_site_fract_y
 _atom_site_fract_z
 _atom_site_occupancy
  Zr  Zr0  1  0.30124732  0.49785571  0.69589191  1
  Zr  Zr1  1  0.29448328  0.09322736  0.49971371  1
  Zr  Zr2  1  0.89132720  0.10353859  0.49353168  1
  Zr  Zr3  1  0.30044121  0.89839906  0.10833180  1
  Zr  Zr4  1  0.09205021  0.88934829  0.90320731  1
  Zr  Zr5  1  0.50466822  0.69825680  0.30334287  1
  Zr  Zr6  1  0.10965258  0.89644536  0.50306775  1
  Zr  Zr7  1  0.29783280  0.09344238  0.29365712  1
  Zr  Zr8  1  0.09879823  0.30012811  0.68667351  1
  Zr  Zr9  1  0.50210882  0.09671579  0.29720449  1
  Zr  Zr10  1  0.50692492  0.10551412  0.90035812  1
  Zr  Zr11  1  0.49177599  0.30593914  0.91436262  1
  Zr  Zr12  1  0.90055502  0.10047718  0.90696516  1
  Zr  Zr13  1  0.49620220  0.88846062  0.49551949  1
  Zr  Zr14  1  0.30531442  0.49547322  0.88586837  1
  Zr  Zr15  1  0.11658960  0.89148192  0.30665777  1
  Zr  Zr16  1  0.89808934  0.91260840  0.10387833  1
  Zr  Zr17  1  0.09903334  0.70810553  0.49963356  1
  Zr  Zr18  1  0.70895421  0.70354009  0.29891137  1
  Zr  Zr19  1  0.89319167  0.89576110  0.71068191  1
  Zr  Zr20  1  0.89916900  0.89244432  0.50699424  1
  Zr  Zr21  1  0.89601419  0.09646811  0.70962440  1
  Zr  Zr22  1  0.09390091  0.30845914  0.30126840  1
  Zr  Zr23  1  0.49291176  0.70090027  0.69336079  1
  Zr  Zr24  1  0.49338482  0.50590914  0.30717241  1
  Zr  Zr25  1  0.70657387  0.50430500  0.89175074  1
  Zr  Zr26  1  0.09480907  0.09795766  0.90711488  1
  Zr  Zr27  1  0.90026298  0.09955695  0.29587899  1
  Zr  Zr28  1  0.29412693  0.09051082  0.10018593  1
  Zr  Zr29  1  0.70178595  0.09899923  0.09258283  1
  Zr  Zr30  1  0.69308798  0.10400734  0.70364509  1
  Zr  Zr31  1  0.08745367  0.90144017  0.69839260  1
  Zr  Zr32  1  0.29987500  0.30748197  0.30091386  1
  Zr  Zr33  1  0.89928165  0.29697026  0.31538021  1
  Zr  Zr34  1  0.31336882  0.29819794  0.09079929  1
  Zr  Zr35  1  0.70324308  0.50205774  0.09521541  1
  Zr  Zr36  1  0.10097414  0.69109137  0.30061091  1
  Zr  Zr37  1  0.71665552  0.29751513  0.50228493  1
  Zr  Zr38  1  0.50966963  0.29285925  0.29046171  1
  Zr  Zr39  1  0.29267190  0.50485883  0.29792931  1
  Zr  Zr40  1  0.50246036  0.09257570  0.70549830  1
  Zr  Zr41  1  0.49922816  0.69983320  0.10298761  1
  Zr  Zr42  1  0.29528126  0.70863861  0.89766827  1
  Zr  Zr43  1  0.69927439  0.89627200  0.10160322  1
  Zr  Zr44  1  0.69177453  0.70012178  0.10230922  1
  Zr  Zr45  1  0.50454545  0.50372101  0.09765150  1
  Zr  Zr46  1  0.69946021  0.50229346  0.50928710  1
  Zr  Zr47  1  0.50259848  0.50251328  0.69588958  1
  Zr  Zr48  1  0.30861622  0.71333839  0.50654949  1
  Zr  Zr49  1  0.90107032  0.70168495  0.10651282  1
  Sc  Sc50  1  0.09681410  0.69786426  0.10139320  1
  Sc  Sc51  1  0.88007650  0.89697402  0.30578754  1
  Sc  Sc52  1  0.30494294  0.70337282  0.10237322  1
  Sc  Sc53  1  0.10132125  0.49494420  0.69844379  1
  Sc  Sc54  1  0.89888554  0.29699320  0.69470669  1
  Sc  Sc55  1  0.48837272  0.90810599  0.89754997  1
  Sc  Sc56  1  0.30692223  0.89032646  0.70566018  1
  Sc  Sc57  1  0.89673655  0.49967370  0.50107361  1
  Sc  Sc58  1  0.50065954  0.10902900  0.09987578  1
  Sc  Sc59  1  0.51735909  0.29086600  0.69719624  1
  Sc  Sc60  1  0.09271775  0.49949143  0.10720229  1
  Sc  Sc61  1  0.30584892  0.49827042  0.48830872  1
  Sc  Sc62  1  0.10314221  0.09260667  0.50830672  1
  Sc  Sc63  1  0.09274673  0.09972281  0.29206224  1
  Sc  Sc64  1  0.30767431  0.09377990  0.90562221  1
  Sc  Sc65  1  0.88892184  0.50388200  0.69985209  1
  Sc  Sc66  1  0.29388078  0.09830664  0.70400977  1
  Sc  Sc67  1  0.10329421  0.70675524  0.69933620  1
  Sc  Sc68  1  0.28910430  0.30634759  0.50405500  1
  Sc  Sc69  1  0.30368859  0.69830806  0.70416921  1
  Sc  Sc70  1  0.51101687  0.09545375  0.49900237  1
  Sc  Sc71  1  0.70505481  0.29678180  0.90442120  1
  Sc  Sc72  1  0.69971361  0.09913606  0.49769662  1
  Sc  Sc73  1  0.50625286  0.51038715  0.49781233  1
  Sc  Sc74  1  0.90055896  0.48742960  0.90053423  1
  Sc  Sc75  1  0.69411493  0.09517509  0.30412441  1
  Sc  Sc76  1  0.89831197  0.30489288  0.09259259  1
  Sc  Sc77  1  0.89945527  0.70386703  0.69138239  1
  Sc  Sc78  1  0.51367296  0.29959459  0.50204328  1
  Sc  Sc79  1  0.70806772  0.68919625  0.69752994  1
  Sc  Sc80  1  0.09590456  0.49887478  0.49660291  1
  Sc  Sc81  1  0.29901377  0.50802643  0.10438074  1
  Sc  Sc82  1  0.08686793  0.30590446  0.09882334  1
  Sc  Sc83  1  0.90367038  0.50580179  0.30297280  1
  Sc  Sc84  1  0.70180857  0.10429912  0.89871300  1
  Sc  Sc85  1  0.90259859  0.49551953  0.09886478  1
  Sc  Sc86  1  0.09085995  0.30097327  0.88965700  1
  Sc  Sc87  1  0.29920682  0.70029043  0.29145478  1
  Sc  Sc88  1  0.70547555  0.29435208  0.69379591  1
  Sc  Sc89  1  0.28920101  0.30243488  0.70345463  1
  Sc  Sc90  1  0.89421120  0.69742583  0.49761438  1
  Sc  Sc91  1  0.70330983  0.90011502  0.48908906  1
  Sc  Sc92  1  0.10596356  0.90891656  0.10116081  1
  Sc  Sc93  1  0.69148350  0.69805453  0.90028662  1
  Sc  Sc94  1  0.49721736  0.50580589  0.89947347  1
  Sc  Sc95  1  0.09680485  0.10088004  0.70448879  1
  Sc  Sc96  1  0.50102149  0.89401377  0.10183997  1
  Sc  Sc97  1  0.69315665  0.30740348  0.10185781  1
  Sc  Sc98  1  0.49592186  0.70121407  0.90894292  1
  Sc  Sc99  1  0.70646314  0.50729480  0.29656987  1
  Nb  Nb100  1  0.50484139  0.90313176  0.69859423  1
  Nb  Nb101  1  0.50242995  0.89969963  0.29887258  1
  Nb  Nb102  1  0.08751737  0.10435989  0.09896876  1
  Nb  Nb103  1  0.69597814  0.69456281  0.49926048  1
  Nb  Nb104  1  0.71278542  0.89831390  0.89420072  1
  Nb  Nb105  1  0.91236987  0.70918068  0.90582214  1
  Nb  Nb106  1  0.50161973  0.30526610  0.09999227  1
  Nb  Nb107  1  0.70273408  0.89754756  0.70116503  1
  Nb  Nb108  1  0.29412052  0.90428448  0.90927489  1
  Nb  Nb109  1  0.10459682  0.50284446  0.29604562  1
  Nb  Nb110  1  0.89839298  0.29851423  0.90005178  1
  Nb  Nb111  1  0.50624317  0.69750882  0.49833240  1
  Nb  Nb112  1  0.10001911  0.50011752  0.89982732  1
  Nb  Nb113  1  0.70246974  0.29828972  0.29766090  1
  Nb  Nb114  1  0.91139036  0.10477754  0.10406414  1
  Nb  Nb115  1  0.90634889  0.29987633  0.49899904  1
  Nb  Nb116  1  0.69712915  0.49559080  0.69764697  1
  Nb  Nb117  1  0.89921557  0.70190604  0.29934521  1
  Nb  Nb118  1  0.30284864  0.29973632  0.90189060  1
  Nb  Nb119  1  0.89930745  0.89762611  0.89529849  1
  Nb  Nb120  1  0.30194046  0.90213400  0.29607951  1
  Nb  Nb121  1  0.69285623  0.89943007  0.29681056  1
  Nb  Nb122  1  0.09561790  0.69848758  0.90243054  1
  Nb  Nb123  1  0.08656933  0.30200951  0.50048980  1
  Nb  Nb124  1  0.29545193  0.90127874  0.49248240  1
  Nb  Nb125  1  0.60465084  0.40358881  0.79714653  1
  Nb  Nb126  1  0.20237575  0.60124625  0.59654475  1
  Nb  Nb127  1  -0.00031516  -0.00694991  0.40172250  1
  Nb  Nb128  1  0.19791384  0.20403760  0.00229412  1
  Nb  Nb129  1  0.19721028  0.20270877  0.39586693  1
  Nb  Nb130  1  0.40083674  0.20208627  0.79977324  1
  Nb  Nb131  1  0.61006081  0.39794123  0.39540769  1
  Nb  Nb132  1  0.40493509  0.39425801  0.60028011  1
  Nb  Nb133  1  0.80178576  0.20024077  0.20022801  1
  Nb  Nb134  1  0.80738326  0.60896838  -0.00395978  1
  Nb  Nb135  1  0.60082409  0.80679557  0.79232595  1
  Nb  Nb136  1  0.40639544  0.39964795  0.19824373  1
  Nb  Nb137  1  0.19858388  -0.00905457  0.81050764  1
  Nb  Nb138  1  0.00325901  0.60396696  0.80936872  1
  Nb  Nb139  1  0.19575824  0.20360119  0.19463919  1
  Nb  Nb140  1  0.19372575  0.59636432  -0.01125371  1
  Nb  Nb141  1  0.20113510  0.40060251  -0.00705851  1
  Nb  Nb142  1  0.40002108  0.19753898  0.59960620  1
  Nb  Nb143  1  -0.00378152  0.80023167  0.20958146  1
  Nb  Nb144  1  0.80427259  0.80064573  -0.00400341  1
  Nb  Nb145  1  0.79642062  -0.00386300  0.60758224  1
  Nb  Nb146  1  0.39594177  0.19609047  0.40384713  1
  Nb  Nb147  1  0.40035156  -0.00409700  0.59628931  1
  Nb  Nb148  1  0.60198823  0.79905457  0.60151490  1
  Nb  Nb149  1  0.39717686  -0.00570866  0.39898934  1
  Pd  Pd150  1  0.81492814  0.60920445  0.80824503  1
  Pd  Pd151  1  0.00624353  0.60075511  0.60789651  1
  Pd  Pd152  1  0.20530485  0.39603571  0.18531463  1
  Pd  Pd153  1  -0.00395333  0.40429690  0.79183261  1
  Pd  Pd154  1  0.40838433  0.00019279  0.01059811  1
  Pd  Pd155  1  0.20608012  0.60688058  0.40905139  1
  Pd  Pd156  1  -0.01086808  0.00502409  0.59566730  1
  Pd  Pd157  1  -0.01174032  0.40059509  0.20756217  1
  Pd  Pd158  1  0.39526968  0.79918352  0.38781810  1
  Pd  Pd159  1  0.41487971  0.38776217  0.40308660  1
  Pd  Pd160  1  -0.00451132  0.20273461  0.79802587  1
  Pd  Pd161  1  0.80535160  0.59638128  0.19388886  1
  Pd  Pd162  1  0.19630345  0.80652073  0.79708468  1
  Pd  Pd163  1  -0.00251587  0.80921864  0.01679216  1
  Pd  Pd164  1  -0.00518926  0.19064267  0.59986260  1
  Pd  Pd165  1  -0.00904445  0.40789063  0.60364648  1
  Pd  Pd166  1  0.60134045  0.80973535  -0.01379622  1
  Pd  Pd167  1  0.59814746  0.00167619  0.19326550  1
  Pd  Pd168  1  0.19917254  0.79312639  0.01015200  1
  Pd  Pd169  1  0.39505887  0.20273484  0.20315331  1
  Pd  Pd170  1  0.80172570  0.20423896  0.00795238  1
  Pd  Pd171  1  0.00544016  -0.01535715  0.21350763  1
  Pd  Pd172  1  0.60705080  0.79787038  0.40099128  1
  Pd  Pd173  1  0.41358232  0.38627651  0.78609785  1
  Pd  Pd174  1  0.60480086  -0.00913728  0.59126664  1
  Pd  Pd175  1  0.79564670  0.38930669  0.79472890  1
  Pd  Pd176  1  -0.00211226  0.59056468  -0.00127367  1
  Pd  Pd177  1  0.19039251  0.39843421  0.40644246  1
  Pd  Pd178  1  0.20095168  0.20064877  0.59413093  1
  Pd  Pd179  1  -0.00551931  0.80479134  0.39501818  1
  Pd  Pd180  1  0.59779321  0.41154155  0.20755026  1
  Pd  Pd181  1  -0.00275959  0.59789188  0.40171592  1
  Pd  Pd182  1  0.01135992  0.18811690  0.40582129  1
  Pd  Pd183  1  0.19353412  0.39557952  0.80141899  1
  Pd  Pd184  1  0.39501846  0.59223380  0.59109232  1
  Pd  Pd185  1  0.60607739  0.40457975  -0.01111265  1
  Pd  Pd186  1  0.60723351  -0.00769447  0.81095386  1
  Pd  Pd187  1  0.60375049  0.20386935  0.40333445  1
  Pd  Pd188  1  0.79180600  0.00801728  0.20320889  1
  Pd  Pd189  1  0.79714852  0.40787019  0.40093768  1
  Pd  Pd190  1  0.38857049  0.59992500  -0.00388364  1
  Pd  Pd191  1  0.40650532  0.80090102  0.80689761  1
  Pd  Pd192  1  0.20748656  -0.01122408  0.61719056  1
  Pd  Pd193  1  0.80624196  0.39400208  0.20205712  1
  Pd  Pd194  1  0.59364691  0.60383053  0.79758813  1
  Pd  Pd195  1  0.79515665  0.78380906  0.80519585  1
  Pd  Pd196  1  0.59886559  -0.00809968  -0.00588373  1
  Pd  Pd197  1  0.80341575  -0.00238449  -0.00464401  1
  Pd  Pd198  1  0.20615038  0.19151679  0.81167356  1
  Pd  Pd199  1  0.19319305  0.60082970  0.79411519  1
  Rh  Rh200  1  0.78944375  0.80178430  0.59340720  1
  Rh  Rh201  1  0.38874380  0.00339897  0.79362156  1
  Rh  Rh202  1  0.59964434  0.40086487  0.59804047  1
  Rh  Rh203  1  0.00026226  0.40964662  0.40008406  1
  Rh  Rh204  1  0.39979188  0.19103260  -0.00363336  1
  Rh  Rh205  1  0.39332348  0.41592227  0.00849671  1
  Rh  Rh206  1  0.79471852  0.79481748  0.40360536  1
  Rh  Rh207  1  0.60251367  0.19488720  0.59361573  1
  Rh  Rh208  1  0.80051385  -0.00020963  0.40224577  1
  Rh  Rh209  1  0.59545020  -0.00721592  0.39863943  1
  Rh  Rh210  1  0.21128207  0.79000881  0.39661598  1
  Rh  Rh211  1  0.60084180  0.20602645  0.00320118  1
  Rh  Rh212  1  0.00062313  0.20879362  -0.00321135  1
  Rh  Rh213  1  0.19320032  0.00524700  -0.00128820  1
  Rh  Rh214  1  0.61236264  0.19592226  0.19026414  1
  Rh  Rh215  1  0.20243987  0.40944204  0.59287876  1
  Rh  Rh216  1  0.41034620  -0.00722877  0.20008436  1
  Rh  Rh217  1  0.80124177  0.80292612  0.19529233  1
  Rh  Rh218  1  0.79947483  0.60311127  0.40309989  1
  Rh  Rh219  1  0.19487378  0.60162281  0.18911124  1
  Rh  Rh220  1  0.60895086  0.59516721  0.39632998  1
  Rh  Rh221  1  0.39619207  0.80500511  0.00117891  1
  Rh  Rh222  1  0.18980867  0.00605527  0.20019496  1
  Rh  Rh223  1  0.19472318  0.79488828  0.19667460  1
  Rh  Rh224  1  0.79281759  0.19584877  0.39176710  1
  Rh  Rh225  1  0.80277974  0.20169904  0.80269345  1
  Rh  Rh226  1  0.80549531  0.39928244  0.60088078  1
  Rh  Rh227  1  0.60617150  0.59670591  -0.00248759  1
  Rh  Rh228  1  -0.00093262  0.60215990  0.20515557  1
  Rh  Rh229  1  0.60283122  0.60897234  0.60437236  1
  Rh  Rh230  1  0.40262213  0.59701675  0.20234598  1
  Rh  Rh231  1  0.79960835  0.59887059  0.59788200  1
  Rh  Rh232  1  0.40605748  0.80090061  0.20269012  1
  Rh  Rh233  1  0.40397891  0.80769962  0.60258076  1
  Rh  Rh234  1  0.00378940  0.39741660  -0.00706568  1
  Rh  Rh235  1  0.79394523  0.00684003  0.80011563  1
  Rh  Rh236  1  0.00526625  -0.00146692  0.80939782  1
  Rh  Rh237  1  0.40339300  0.60970063  0.80470967  1
  Rh  Rh238  1  -0.00164345  0.79196332  0.79254474  1
  Rh  Rh239  1  0.79899545  0.40387353  -0.00181465  1
  Rh  Rh240  1  0.39411281  0.61311366  0.40195901  1
  Rh  Rh241  1  0.59970609  0.60009481  0.20485498  1
  Rh  Rh242  1  0.19536982  0.00737208  0.39189394  1
  Rh  Rh243  1  0.80420267  0.19088811  0.60281856  1
  Rh  Rh244  1  0.59714048  0.79933467  0.20604055  1
  Rh  Rh245  1  -0.00469172  -0.00509778  -0.00278701  1
  Rh  Rh246  1  0.59576541  0.21470162  0.81407712  1
  Rh  Rh247  1  -0.00244066  0.79600729  0.60117290  1
  Rh  Rh248  1  0.20360097  0.80003062  0.60646106  1
  Rh  Rh249  1  -0.00546985  0.21156040  0.19771196  1
