# generated using pymatgen
data_ZrScNbPdRh
_symmetry_space_group_name_H-M   'P 1'
_cell_length_a   16.56088103
_cell_length_b   16.56166015
_cell_length_c   16.56203144
_cell_angle_alpha   89.99588154
_cell_angle_beta   90.01216088
_cell_angle_gamma   90.00086194
_symmetry_Int_Tables_number   1
_chemical_formula_structural   ZrScNbPdRh
_chemical_formula_sum   'Zr50 Sc50 Nb50 Pd50 Rh50'
_cell_volume   4542.56237637
_cell_formula_units_Z   50
loop_
 _symmetry_equiv_pos_site_id
 _symmetry_equiv_pos_as_xyz
  1  'x, y, z'
loop_
 _atom_site_type_symbol
 _atom_site_label
 _atom_site_symmetry_multiplicity
 _atom_site_fract_x
 _atom_site_fract_y
 _atom_site_fract_z
 _atom_site_occupancy
  Zr  Zr0  1  0.09454745  0.30395793  0.10446516  1
  Zr  Zr1  1  0.90504770  0.69420285  0.69327936  1
  Zr  Zr2  1  0.69540774  0.90014215  0.69804764  1
  Zr  Zr3  1  0.10085404  0.10092491  0.29551098  1
  Zr  Zr4  1  0.90782709  0.10651616  0.90735087  1
  Zr  Zr5  1  0.90159624  0.48380407  0.89579518  1
  Zr  Zr6  1  0.29803604  0.50965469  0.70892757  1
  Zr  Zr7  1  0.10237769  0.50214984  0.10126403  1
  Zr  Zr8  1  0.69329907  0.70007396  0.30257700  1
  Zr  Zr9  1  0.70783699  0.09526561  0.69370707  1
  Zr  Zr10  1  0.70570293  0.89817016  0.89896318  1
  Zr  Zr11  1  0.49832098  0.10700061  0.30720750  1
  Zr  Zr12  1  0.69276039  0.69925761  0.49798927  1
  Zr  Zr13  1  0.09302710  0.90652222  0.31525781  1
  Zr  Zr14  1  0.90378551  0.70494115  0.29911792  1
  Zr  Zr15  1  0.49729472  0.89823898  0.68855070  1
  Zr  Zr16  1  0.89417478  0.90245514  0.69836020  1
  Zr  Zr17  1  0.10483416  0.50422144  0.50078349  1
  Zr  Zr18  1  0.30650323  0.29764004  0.30358256  1
  Zr  Zr19  1  0.10135780  0.89933434  0.09265067  1
  Zr  Zr20  1  0.48479233  0.29975277  0.90537515  1
  Zr  Zr21  1  0.49894471  0.49806980  0.29851702  1
  Zr  Zr22  1  0.29903336  0.90013211  0.10466081  1
  Zr  Zr23  1  0.09707927  0.10018780  0.70839206  1
  Zr  Zr24  1  0.90891499  0.70679856  0.10132859  1
  Zr  Zr25  1  0.30422608  0.68934308  0.89858593  1
  Zr  Zr26  1  0.89448616  0.10294081  0.49919970  1
  Zr  Zr27  1  0.29416912  0.30554220  0.70892144  1
  Zr  Zr28  1  0.49653236  0.10756120  0.10477546  1
  Zr  Zr29  1  0.50278908  0.89397937  0.89148198  1
  Zr  Zr30  1  0.70067817  0.48864657  0.29299452  1
  Zr  Zr31  1  0.09966511  0.10147017  0.49823558  1
  Zr  Zr32  1  0.69723488  0.70315207  0.90514640  1
  Zr  Zr33  1  0.90086321  0.29478162  0.08611267  1
  Zr  Zr34  1  0.90948605  0.89861359  0.48462619  1
  Zr  Zr35  1  0.49771537  0.90975992  0.30940509  1
  Zr  Zr36  1  0.29480874  0.10226016  0.70402679  1
  Zr  Zr37  1  0.10036404  0.70004209  0.49543639  1
  Zr  Zr38  1  0.49329886  0.70054670  0.09423048  1
  Zr  Zr39  1  0.10122957  0.90766138  0.89664261  1
  Zr  Zr40  1  0.29899797  0.10201110  0.30279803  1
  Zr  Zr41  1  0.90767186  0.49012774  0.10958077  1
  Zr  Zr42  1  0.49941169  0.69871054  0.90284569  1
  Zr  Zr43  1  0.29600972  0.69475006  0.50044401  1
  Zr  Zr44  1  0.29459726  0.70207670  0.09879972  1
  Zr  Zr45  1  0.50088035  0.09608143  0.68472155  1
  Zr  Zr46  1  0.70001834  0.30037717  0.69112183  1
  Zr  Zr47  1  0.70561319  0.09564249  0.90046407  1
  Zr  Zr48  1  0.49498960  0.10307912  0.89485436  1
  Zr  Zr49  1  0.69878672  0.30286700  0.10986074  1
  Sc  Sc50  1  0.89968232  0.89990373  0.91236484  1
  Sc  Sc51  1  0.69455479  0.09816513  0.30431340  1
  Sc  Sc52  1  0.49602077  0.29984106  0.10992081  1
  Sc  Sc53  1  0.09788952  0.29367941  0.70158220  1
  Sc  Sc54  1  0.49448446  0.70021692  0.70697035  1
  Sc  Sc55  1  0.69792560  0.10476166  0.49768611  1
  Sc  Sc56  1  0.49757756  0.89607154  0.10984274  1
  Sc  Sc57  1  0.89917283  0.30192526  0.50395037  1
  Sc  Sc58  1  0.69713646  0.89858006  0.29796176  1
  Sc  Sc59  1  0.50279964  0.28560525  0.50109779  1
  Sc  Sc60  1  0.30796805  0.10362826  0.49864448  1
  Sc  Sc61  1  0.11163470  0.70715467  0.91055187  1
  Sc  Sc62  1  0.09968233  0.49273667  0.28914934  1
  Sc  Sc63  1  0.50748309  0.70493084  0.30118147  1
  Sc  Sc64  1  0.70816649  0.49516842  0.69906837  1
  Sc  Sc65  1  0.70515831  0.90468241  0.10431694  1
  Sc  Sc66  1  0.09979688  0.30226272  0.50417079  1
  Sc  Sc67  1  0.89992834  0.49818599  0.69838300  1
  Sc  Sc68  1  0.70666273  0.70114281  0.69864797  1
  Sc  Sc69  1  0.10978777  0.69401210  0.69644871  1
  Sc  Sc70  1  0.50092960  0.50120667  0.09815447  1
  Sc  Sc71  1  0.50066811  0.70850463  0.49579274  1
  Sc  Sc72  1  0.70490756  0.29678437  0.49999022  1
  Sc  Sc73  1  0.89991663  0.69766799  0.50289821  1
  Sc  Sc74  1  0.10400803  0.69350230  0.29591806  1
  Sc  Sc75  1  0.30692417  0.29514049  0.09558799  1
  Sc  Sc76  1  0.10643387  0.69879358  0.10456972  1
  Sc  Sc77  1  0.29636068  0.50335696  0.09820165  1
  Sc  Sc78  1  0.49384635  0.50961635  0.49093885  1
  Sc  Sc79  1  0.89965061  0.90247795  0.10254521  1
  Sc  Sc80  1  0.48843708  0.50906589  0.89927025  1
  Sc  Sc81  1  0.09958836  0.10074597  0.10078224  1
  Sc  Sc82  1  0.68898291  0.70598319  0.10227997  1
  Sc  Sc83  1  0.10309257  0.49684272  0.70187664  1
  Sc  Sc84  1  0.28844075  0.89374122  0.89581901  1
  Sc  Sc85  1  0.29172077  0.10014415  0.09834725  1
  Sc  Sc86  1  0.89552051  0.71123599  0.90608795  1
  Sc  Sc87  1  0.89753598  0.90569215  0.29469654  1
  Sc  Sc88  1  0.89688334  0.31553201  0.30373496  1
  Sc  Sc89  1  0.70795673  0.09873523  0.10179077  1
  Sc  Sc90  1  0.29247141  0.70411443  0.30172158  1
  Sc  Sc91  1  0.29304058  0.30027117  0.49488724  1
  Sc  Sc92  1  0.89966665  0.49121276  0.50473347  1
  Sc  Sc93  1  0.90717775  0.30258545  0.69907955  1
  Sc  Sc94  1  0.29813501  0.49831035  0.30922726  1
  Sc  Sc95  1  0.49869410  0.29726673  0.69285423  1
  Sc  Sc96  1  0.71919133  0.30224019  0.90280238  1
  Sc  Sc97  1  0.69021671  0.89563865  0.49967554  1
  Sc  Sc98  1  0.70546139  0.50331670  0.89253797  1
  Sc  Sc99  1  0.90219927  0.09500536  0.10351772  1
  Nb  Nb100  1  0.90843899  0.29804883  0.89747466  1
  Nb  Nb101  1  0.10250137  0.49937672  0.89767188  1
  Nb  Nb102  1  0.50617708  0.29589571  0.29530723  1
  Nb  Nb103  1  0.90134012  0.09773783  0.29952152  1
  Nb  Nb104  1  0.11006052  0.10115329  0.89849586  1
  Nb  Nb105  1  0.10508300  0.29478097  0.30211382  1
  Nb  Nb106  1  0.29166438  0.49454831  0.89594909  1
  Nb  Nb107  1  0.69611428  0.49513377  0.49633931  1
  Nb  Nb108  1  0.49389403  0.91150675  0.50393108  1
  Nb  Nb109  1  0.29625431  0.29820968  0.89819118  1
  Nb  Nb110  1  0.29733438  0.10627107  0.90066021  1
  Nb  Nb111  1  0.50290891  0.49795190  0.69696821  1
  Nb  Nb112  1  0.30415990  0.89620443  0.50313784  1
  Nb  Nb113  1  0.30261385  0.50130787  0.50156963  1
  Nb  Nb114  1  0.29905633  0.89418558  0.70030696  1
  Nb  Nb115  1  0.70171070  0.49755149  0.10176582  1
  Nb  Nb116  1  0.69290158  0.29770064  0.29904516  1
  Nb  Nb117  1  0.10490331  0.90116555  0.70454829  1
  Nb  Nb118  1  0.10108104  0.90126838  0.50295282  1
  Nb  Nb119  1  0.50078858  0.08927246  0.49732890  1
  Nb  Nb120  1  0.90236681  0.10332202  0.69334776  1
  Nb  Nb121  1  0.30137893  0.70683899  0.70746862  1
  Nb  Nb122  1  0.89861240  0.50170083  0.30126036  1
  Nb  Nb123  1  0.08724756  0.29930739  0.89824223  1
  Nb  Nb124  1  0.30075473  0.90652165  0.30595167  1
  Nb  Nb125  1  0.60150778  0.20324295  -0.00435097  1
  Nb  Nb126  1  0.59641465  0.39471578  0.80469815  1
  Nb  Nb127  1  0.00322297  0.60357476  0.80930288  1
  Nb  Nb128  1  0.59857846  0.59427726  0.60055407  1
  Nb  Nb129  1  -0.00532019  0.59392524  0.39565433  1
  Nb  Nb130  1  0.39439542  -0.00183846  0.79773586  1
  Nb  Nb131  1  -0.00195117  0.59581086  -0.00388735  1
  Nb  Nb132  1  0.79981903  0.59297769  0.39476493  1
  Nb  Nb133  1  0.39554092  0.40976882  0.59784060  1
  Nb  Nb134  1  0.80356379  0.59639724  0.00943789  1
  Nb  Nb135  1  0.39873792  0.00197918  -0.00766657  1
  Nb  Nb136  1  0.00474711  0.80011745  0.79457259  1
  Nb  Nb137  1  0.39955131  0.60491656  0.19982589  1
  Nb  Nb138  1  0.00813820  0.80802442  0.60310045  1
  Nb  Nb139  1  0.19948130  -0.00989947  0.60113327  1
  Nb  Nb140  1  0.00062420  0.20152743  0.39217113  1
  Nb  Nb141  1  0.80247073  0.20284068  0.20839387  1
  Nb  Nb142  1  0.00377876  -0.00279524  0.60190786  1
  Nb  Nb143  1  0.80698281  0.19734478  0.79692279  1
  Nb  Nb144  1  0.60617564  0.20317658  0.80223113  1
  Nb  Nb145  1  0.59359582  0.00379607  -0.00264528  1
  Nb  Nb146  1  0.59902027  0.39456438  0.39465132  1
  Nb  Nb147  1  0.80017685  0.59736131  0.19916008  1
  Nb  Nb148  1  0.60097651  0.39720631  -0.00457665  1
  Nb  Nb149  1  0.19904880  0.39592960  -0.01089213  1
  Pd  Pd150  1  0.20611547  0.20593525  0.19647138  1
  Pd  Pd151  1  0.19508747  -0.00585292  0.20240694  1
  Pd  Pd152  1  0.60670440  0.58992238  -0.00086222  1
  Pd  Pd153  1  0.20021038  0.80329774  0.39693099  1
  Pd  Pd154  1  0.20154754  0.19699163  0.59900918  1
  Pd  Pd155  1  0.60238978  0.79262190  0.79112679  1
  Pd  Pd156  1  0.80062031  -0.00843018  0.58604222  1
  Pd  Pd157  1  0.40579929  0.40337370  0.79402156  1
  Pd  Pd158  1  0.60180197  0.00405563  0.19615489  1
  Pd  Pd159  1  0.19886824  0.80037343  0.60118079  1
  Pd  Pd160  1  0.79286974  0.59273794  0.59060770  1
  Pd  Pd161  1  -0.00827439  -0.00275844  0.79948194  1
  Pd  Pd162  1  0.81290082  0.00458100  0.80623574  1
  Pd  Pd163  1  0.00801795  0.40020323  0.39816185  1
  Pd  Pd164  1  -0.01083942  0.20639685  0.20690792  1
  Pd  Pd165  1  0.39306852  0.80856679  -0.00603308  1
  Pd  Pd166  1  0.19326901  0.20804387  -0.00110538  1
  Pd  Pd167  1  0.20912523  0.00122885  0.40987162  1
  Pd  Pd168  1  0.39076848  0.20925134  0.59795773  1
  Pd  Pd169  1  0.00376353  0.40151089  0.60511941  1
  Pd  Pd170  1  0.60184028  0.81322243  0.00778327  1
  Pd  Pd171  1  0.19562782  0.40213768  0.39909301  1
  Pd  Pd172  1  0.59714592  0.59988403  0.19558508  1
  Pd  Pd173  1  0.39733127  0.00599622  0.19648270  1
  Pd  Pd174  1  0.19334383  0.80980318  0.20921590  1
  Pd  Pd175  1  0.21053093  0.39482494  0.19500721  1
  Pd  Pd176  1  0.79172720  -0.00287702  0.39763070  1
  Pd  Pd177  1  0.80427223  0.80416035  0.59056599  1
  Pd  Pd178  1  0.81063272  0.60537265  0.80907558  1
  Pd  Pd179  1  0.40910886  0.39037969  0.41016300  1
  Pd  Pd180  1  0.59011811  0.40518409  0.59087309  1
  Pd  Pd181  1  0.79568653  0.79579532  0.19698407  1
  Pd  Pd182  1  0.20326648  0.59947592  0.60234114  1
  Pd  Pd183  1  0.80609889  0.20541485  0.39225331  1
  Pd  Pd184  1  0.39584046  0.40703269  0.00400065  1
  Pd  Pd185  1  0.79682969  0.79707122  0.40146283  1
  Pd  Pd186  1  0.40407415  0.19777595  0.79038946  1
  Pd  Pd187  1  0.79614030  0.40483932  0.00274860  1
  Pd  Pd188  1  0.00309724  0.00530084  0.00429119  1
  Pd  Pd189  1  0.80532473  0.79747476  0.79858195  1
  Pd  Pd190  1  0.39765959  0.61057573  0.39049078  1
  Pd  Pd191  1  0.20520887  0.40168012  0.60199511  1
  Pd  Pd192  1  0.60202222  0.59313325  0.79291370  1
  Pd  Pd193  1  0.39945262  0.79948253  0.39900522  1
  Pd  Pd194  1  0.40533177  0.60294258  0.60414240  1
  Pd  Pd195  1  0.39512560  0.40714067  0.19689262  1
  Pd  Pd196  1  0.59352185  0.00487244  0.79792053  1
  Pd  Pd197  1  0.40018979  0.79526749  0.21225671  1
  Pd  Pd198  1  0.40036855  0.79104153  0.59789345  1
  Pd  Pd199  1  0.01093290  0.80855821  0.20348767  1
  Rh  Rh200  1  0.39793205  0.19462306  0.00421649  1
  Rh  Rh201  1  0.00263595  -0.00478001  0.19842688  1
  Rh  Rh202  1  0.39582594  0.80375064  0.80306931  1
  Rh  Rh203  1  0.19472245  0.20106943  0.40160717  1
  Rh  Rh204  1  0.39196068  0.59522642  0.00475757  1
  Rh  Rh205  1  -0.00248685  0.19698913  0.80184288  1
  Rh  Rh206  1  0.38719128  -0.00153484  0.60331662  1
  Rh  Rh207  1  0.20357644  0.80382349  0.00220033  1
  Rh  Rh208  1  0.20831165  0.00102370  0.79849997  1
  Rh  Rh209  1  0.00324753  0.78981486  0.40115960  1
  Rh  Rh210  1  0.59107137  0.40009571  0.19716938  1
  Rh  Rh211  1  0.80032959  0.00859664  0.20626087  1
  Rh  Rh212  1  0.60166512  -0.00083745  0.40385754  1
  Rh  Rh213  1  0.00925128  0.19420667  0.00152792  1
  Rh  Rh214  1  0.00375087  0.60145725  0.59689555  1
  Rh  Rh215  1  0.60711749  0.00127581  0.59252933  1
  Rh  Rh216  1  -0.00037866  0.39162227  0.20643914  1
  Rh  Rh217  1  0.59215913  0.81220330  0.40155755  1
  Rh  Rh218  1  0.79809137  -0.00196043  0.00294208  1
  Rh  Rh219  1  0.19455447  0.60701686  0.80390967  1
  Rh  Rh220  1  0.19323561  0.20717056  0.80707680  1
  Rh  Rh221  1  0.40407653  0.20222763  0.40243072  1
  Rh  Rh222  1  0.79945642  0.19685729  0.00186988  1
  Rh  Rh223  1  -0.00139406  0.19562362  0.59115363  1
  Rh  Rh224  1  0.60825927  0.19275570  0.19659702  1
  Rh  Rh225  1  -0.00203173  0.01198950  0.40292255  1
  Rh  Rh226  1  0.80517614  0.20524690  0.60551455  1
  Rh  Rh227  1  0.00391384  0.40413802  0.79346598  1
  Rh  Rh228  1  0.39306665  0.19727060  0.20360961  1
  Rh  Rh229  1  0.60542896  0.59186808  0.40556804  1
  Rh  Rh230  1  0.18987679  0.39152702  0.80528381  1
  Rh  Rh231  1  0.21101272  0.59795985  0.20473577  1
  Rh  Rh232  1  0.60267232  0.19180332  0.59860485  1
  Rh  Rh233  1  0.00883933  0.40490109  -0.00185631  1
  Rh  Rh234  1  0.40115615  0.59863017  0.79805842  1
  Rh  Rh235  1  0.79076045  0.40071269  0.40405088  1
  Rh  Rh236  1  0.59492464  0.79158409  0.60262515  1
  Rh  Rh237  1  0.19725138  0.59185068  -0.00297055  1
  Rh  Rh238  1  0.39268238  0.00018935  0.40426452  1
  Rh  Rh239  1  0.19314728  0.59239375  0.39500223  1
  Rh  Rh240  1  0.19689143  0.79243076  0.79971073  1
  Rh  Rh241  1  0.79316362  0.79688239  0.00944577  1
  Rh  Rh242  1  0.59613472  0.80648377  0.20224202  1
  Rh  Rh243  1  0.20521204  0.00257068  -0.00308042  1
  Rh  Rh244  1  0.80508021  0.39421855  0.19806818  1
  Rh  Rh245  1  0.79868219  0.38773887  0.79176877  1
  Rh  Rh246  1  0.00658059  0.79620260  -0.00447634  1
  Rh  Rh247  1  0.80250889  0.39939465  0.59907666  1
  Rh  Rh248  1  -0.00358888  0.60186629  0.19985569  1
  Rh  Rh249  1  0.59755303  0.20208453  0.40284366  1
