# generated using pymatgen
data_ZrScNbPdRh
_symmetry_space_group_name_H-M   'P 1'
_cell_length_a   16.55988666
_cell_length_b   16.55508506
_cell_length_c   16.56264827
_cell_angle_alpha   90.00115873
_cell_angle_beta   89.95414955
_cell_angle_gamma   89.99028371
_symmetry_Int_Tables_number   1
_chemical_formula_structural   ZrScNbPdRh
_chemical_formula_sum   'Zr50 Sc50 Nb50 Pd50 Rh50'
_cell_volume   4540.65400504
_cell_formula_units_Z   50
loop_
 _symmetry_equiv_pos_site_id
 _symmetry_equiv_pos_as_xyz
  1  'x, y, z'
loop_
 _atom_site_type_symbol
 _atom_site_label
 _atom_site_symmetry_multiplicity
 _atom_site_fract_x
 _atom_site_fract_y
 _atom_site_fract_z
 _atom_site_occupancy
  Zr  Zr0  1  0.70324695  0.50692835  0.70432139  1
  Zr  Zr1  1  0.49459421  0.70159803  0.29421621  1
  Zr  Zr2  1  0.69842059  0.09607648  0.70400221  1
  Zr  Zr3  1  0.30731851  0.29451789  0.50432148  1
  Zr  Zr4  1  0.09881696  0.29862677  0.29446791  1
  Zr  Zr5  1  0.49932223  0.71249115  0.50685834  1
  Zr  Zr6  1  0.90552730  0.29430186  0.50528248  1
  Zr  Zr7  1  0.90727358  0.89685117  0.31052147  1
  Zr  Zr8  1  0.90278181  0.49498771  0.89775881  1
  Zr  Zr9  1  0.28402895  0.50135511  0.50384686  1
  Zr  Zr10  1  0.91248002  0.90303165  0.08643408  1
  Zr  Zr11  1  0.69660765  0.29915955  0.10939098  1
  Zr  Zr12  1  0.29438896  0.10259024  0.90241961  1
  Zr  Zr13  1  0.09288021  0.70520452  0.70410558  1
  Zr  Zr14  1  0.49656587  0.49931928  0.10576169  1
  Zr  Zr15  1  0.30678006  0.90553873  0.50102325  1
  Zr  Zr16  1  0.09947118  0.90160415  0.69751441  1
  Zr  Zr17  1  0.49381452  0.30489567  0.89422527  1
  Zr  Zr18  1  0.70957147  0.50474292  0.49698270  1
  Zr  Zr19  1  0.49530790  0.89739984  0.10886017  1
  Zr  Zr20  1  0.69775807  0.49941201  0.10300909  1
  Zr  Zr21  1  0.30201489  0.10189951  0.09471076  1
  Zr  Zr22  1  0.50339712  0.90258867  0.69495238  1
  Zr  Zr23  1  0.69997676  0.11257372  0.09555482  1
  Zr  Zr24  1  0.70955450  0.69419823  0.30535712  1
  Zr  Zr25  1  0.29686666  0.30046258  0.69393150  1
  Zr  Zr26  1  0.50022210  0.49797231  0.70548797  1
  Zr  Zr27  1  0.69643678  0.91090380  0.70432146  1
  Zr  Zr28  1  0.70028572  0.50224711  0.90058169  1
  Zr  Zr29  1  0.91274941  0.70609419  0.90228963  1
  Zr  Zr30  1  0.09969805  0.69831759  0.10318781  1
  Zr  Zr31  1  0.10012913  0.49762862  0.69392851  1
  Zr  Zr32  1  0.90352198  0.30187862  0.29290992  1
  Zr  Zr33  1  0.49012007  0.30956609  0.69014960  1
  Zr  Zr34  1  0.29922007  0.49967957  0.09919976  1
  Zr  Zr35  1  0.89759697  0.09625964  0.90603902  1
  Zr  Zr36  1  0.29129670  0.69826816  0.30235649  1
  Zr  Zr37  1  0.90894793  0.30029448  0.90171701  1
  Zr  Zr38  1  0.29203137  0.50428040  0.89771089  1
  Zr  Zr39  1  0.29430918  0.49723666  0.30003118  1
  Zr  Zr40  1  0.69672494  0.70580447  0.89863144  1
  Zr  Zr41  1  0.30097559  0.69897769  0.50249730  1
  Zr  Zr42  1  0.69467961  0.31372517  0.49628214  1
  Zr  Zr43  1  0.90496123  0.50757324  0.69794474  1
  Zr  Zr44  1  0.90085227  0.69408114  0.10079773  1
  Zr  Zr45  1  0.69685855  0.89018132  0.50404843  1
  Zr  Zr46  1  0.69970167  0.09716035  0.89755925  1
  Zr  Zr47  1  0.29636641  0.29903048  0.30279943  1
  Zr  Zr48  1  0.29262834  0.09628639  0.69734324  1
  Zr  Zr49  1  0.08513998  0.90584243  0.49792571  1
  Sc  Sc50  1  0.50377264  0.09533189  0.69866140  1
  Sc  Sc51  1  0.91037931  0.30240022  0.70220668  1
  Sc  Sc52  1  0.29758065  0.09881516  0.29997915  1
  Sc  Sc53  1  0.70237566  0.09436391  0.50832217  1
  Sc  Sc54  1  0.49727156  0.70808814  0.70375133  1
  Sc  Sc55  1  0.49191803  0.10454242  0.09777286  1
  Sc  Sc56  1  0.49606847  0.30652885  0.29984924  1
  Sc  Sc57  1  0.29625949  0.49591090  0.69653852  1
  Sc  Sc58  1  0.89213270  0.50086319  0.29371761  1
  Sc  Sc59  1  0.29865888  0.10572738  0.49928292  1
  Sc  Sc60  1  0.10905761  0.70006260  0.50154434  1
  Sc  Sc61  1  0.30427345  0.90103507  0.29891481  1
  Sc  Sc62  1  0.49688433  0.09307675  0.30317587  1
  Sc  Sc63  1  0.90831380  0.10165436  0.09735153  1
  Sc  Sc64  1  0.49843694  0.29737797  0.10140554  1
  Sc  Sc65  1  0.89491150  0.09704240  0.68525965  1
  Sc  Sc66  1  0.29141309  0.89835915  0.70408823  1
  Sc  Sc67  1  0.09860858  0.49751823  0.10244523  1
  Sc  Sc68  1  0.50510275  0.89026848  0.88926926  1
  Sc  Sc69  1  0.49624211  0.90048881  0.30564645  1
  Sc  Sc70  1  0.50564555  0.48152388  0.50594366  1
  Sc  Sc71  1  0.69664099  0.89581653  0.30878268  1
  Sc  Sc72  1  0.89966315  0.69477347  0.30369328  1
  Sc  Sc73  1  0.49545161  0.49458531  0.29469251  1
  Sc  Sc74  1  0.09884548  0.30158880  0.09336543  1
  Sc  Sc75  1  0.50395228  0.70130528  0.89262154  1
  Sc  Sc76  1  0.70049683  0.30103393  0.70089900  1
  Sc  Sc77  1  0.10473923  0.69433197  0.89375336  1
  Sc  Sc78  1  0.70163086  0.88828376  0.09169945  1
  Sc  Sc79  1  0.50719438  0.50188682  0.89619952  1
  Sc  Sc80  1  0.09858262  0.10282277  0.49585407  1
  Sc  Sc81  1  0.28522934  0.30270413  0.90308111  1
  Sc  Sc82  1  0.69835825  0.69442328  0.10003772  1
  Sc  Sc83  1  0.49983446  0.10721497  0.90661273  1
  Sc  Sc84  1  0.90530841  0.30054975  0.09850770  1
  Sc  Sc85  1  0.69788081  0.29553873  0.91139278  1
  Sc  Sc86  1  0.30393644  0.90613524  0.10852552  1
  Sc  Sc87  1  0.90308372  0.50022232  0.09639030  1
  Sc  Sc88  1  0.10693322  0.90466278  0.30327501  1
  Sc  Sc89  1  0.28927960  0.70095038  0.69961118  1
  Sc  Sc90  1  0.10596281  0.29511015  0.50860802  1
  Sc  Sc91  1  0.08992154  0.89030829  0.89746318  1
  Sc  Sc92  1  0.49928523  0.69626627  0.10520621  1
  Sc  Sc93  1  0.29877348  0.29435327  0.09913693  1
  Sc  Sc94  1  0.88478838  0.70316946  0.49949633  1
  Sc  Sc95  1  0.30176751  0.68955797  0.10712788  1
  Sc  Sc96  1  0.91474564  0.10534279  0.29530640  1
  Sc  Sc97  1  0.48868678  0.09159519  0.50114878  1
  Sc  Sc98  1  0.70552045  0.70406069  0.69530648  1
  Sc  Sc99  1  0.90556433  0.90371663  0.68768279  1
  Nb  Nb100  1  0.10249169  0.49936742  0.30728211  1
  Nb  Nb101  1  0.10266372  0.69599119  0.29975466  1
  Nb  Nb102  1  0.10805134  0.48317357  0.89902656  1
  Nb  Nb103  1  0.90029149  0.91323420  0.49705695  1
  Nb  Nb104  1  0.10136880  0.29549889  0.70683609  1
  Nb  Nb105  1  0.10423339  0.10634101  0.89407240  1
  Nb  Nb106  1  0.70496521  0.90547993  0.89488576  1
  Nb  Nb107  1  0.29889945  0.70264021  0.89576557  1
  Nb  Nb108  1  0.50021144  0.29596565  0.50193136  1
  Nb  Nb109  1  0.89723929  0.90464431  0.89852871  1
  Nb  Nb110  1  0.10298818  0.10529684  0.29456295  1
  Nb  Nb111  1  0.70233754  0.30029316  0.30073130  1
  Nb  Nb112  1  0.69869329  0.69767879  0.49840307  1
  Nb  Nb113  1  0.90156986  0.70085112  0.70668500  1
  Nb  Nb114  1  0.10666251  0.09814653  0.71002708  1
  Nb  Nb115  1  0.10047406  0.09059392  0.09796210  1
  Nb  Nb116  1  0.09865633  0.29886898  0.89340140  1
  Nb  Nb117  1  0.09521310  0.49960628  0.50308908  1
  Nb  Nb118  1  0.29804284  0.89824705  0.89822877  1
  Nb  Nb119  1  0.70249054  0.10262738  0.29717704  1
  Nb  Nb120  1  0.90627380  0.50020902  0.50407877  1
  Nb  Nb121  1  0.50115332  0.90291695  0.50409139  1
  Nb  Nb122  1  0.90046903  0.09513935  0.49749204  1
  Nb  Nb123  1  0.10013698  0.90107731  0.09663700  1
  Nb  Nb124  1  0.69847082  0.48912746  0.30445419  1
  Nb  Nb125  1  0.60209920  -0.00461407  0.00106720  1
  Nb  Nb126  1  0.60899149  0.00228395  0.19578513  1
  Nb  Nb127  1  0.00316693  0.40594635  0.40330181  1
  Nb  Nb128  1  0.59618801  0.20500232  0.59281576  1
  Nb  Nb129  1  0.39461223  0.00154514  0.80415081  1
  Nb  Nb130  1  0.39647374  0.40618014  -0.00191523  1
  Nb  Nb131  1  0.80298566  0.00609593  0.39815603  1
  Nb  Nb132  1  0.80730798  0.40609716  0.59934783  1
  Nb  Nb133  1  0.39369550  0.19906000  0.79681913  1
  Nb  Nb134  1  0.79737877  0.19814278  0.39824770  1
  Nb  Nb135  1  0.59724947  0.59893479  0.40394993  1
  Nb  Nb136  1  0.00354645  0.79927658  0.20033042  1
  Nb  Nb137  1  0.60484273  0.20233741  0.40069397  1
  Nb  Nb138  1  0.39356957  0.60145257  0.80156374  1
  Nb  Nb139  1  0.20507088  0.80273478  0.00099443  1
  Nb  Nb140  1  0.00492261  0.59373820  0.40238813  1
  Nb  Nb141  1  0.80996762  0.80494964  0.19940407  1
  Nb  Nb142  1  0.39173614  0.79779577  -0.00482296  1
  Nb  Nb143  1  0.40240762  0.59923919  0.40680549  1
  Nb  Nb144  1  0.19450580  -0.00428316  -0.00216159  1
  Nb  Nb145  1  0.00203946  0.00516185  0.80022400  1
  Nb  Nb146  1  0.79863233  -0.00273865  0.20265920  1
  Nb  Nb147  1  0.60184214  0.60282835  0.59367438  1
  Nb  Nb148  1  0.80189625  0.19598978  0.80201137  1
  Nb  Nb149  1  0.80597216  0.80875658  0.80282550  1
  Pd  Pd150  1  0.20254214  0.00215708  0.19770119  1
  Pd  Pd151  1  -0.00087495  -0.00602452  0.20560815  1
  Pd  Pd152  1  0.01093075  0.59110109  -0.00744434  1
  Pd  Pd153  1  0.80074379  0.39031337  0.79713587  1
  Pd  Pd154  1  0.40635960  0.19699416  0.39566138  1
  Pd  Pd155  1  0.00128229  0.20335996  0.39996904  1
  Pd  Pd156  1  0.19358771  0.60405632  0.00036629  1
  Pd  Pd157  1  0.59572712  0.20518663  0.79213145  1
  Pd  Pd158  1  0.60483479  0.59484332  0.21071022  1
  Pd  Pd159  1  0.81429643  0.39565697  0.40358464  1
  Pd  Pd160  1  0.00879857  0.59083992  0.80699155  1
  Pd  Pd161  1  0.58991882  0.80215128  0.00070696  1
  Pd  Pd162  1  0.79235182  -0.00009916  0.01148130  1
  Pd  Pd163  1  0.39779533  0.40639169  0.40592082  1
  Pd  Pd164  1  0.60476691  0.00666566  0.40123027  1
  Pd  Pd165  1  0.80319991  0.40339174  0.19185677  1
  Pd  Pd166  1  0.19497782  0.00234242  0.58957252  1
  Pd  Pd167  1  -0.00928509  0.18925122  0.79249094  1
  Pd  Pd168  1  0.19742934  0.19829245  0.19315662  1
  Pd  Pd169  1  0.19374404  0.38947877  0.40776025  1
  Pd  Pd170  1  0.79252643  0.20762979  0.59963286  1
  Pd  Pd171  1  -0.00775697  0.79411238  0.58998941  1
  Pd  Pd172  1  0.80010619  0.60083629  -0.00447669  1
  Pd  Pd173  1  0.00800843  0.19174376  0.60778706  1
  Pd  Pd174  1  0.80335767  0.79670929  -0.00147821  1
  Pd  Pd175  1  0.39874094  0.79931811  0.39887867  1
  Pd  Pd176  1  0.40762595  0.60217642  -0.00918062  1
  Pd  Pd177  1  0.19941263  0.80510424  0.59512000  1
  Pd  Pd178  1  0.59396754  0.60338550  0.00018436  1
  Pd  Pd179  1  0.19733300  0.39805622  0.19368265  1
  Pd  Pd180  1  0.59195623  0.39787199  0.00355729  1
  Pd  Pd181  1  0.80305735  0.61152014  0.80734584  1
  Pd  Pd182  1  0.40705644  0.59406252  0.60198751  1
  Pd  Pd183  1  0.19823624  0.80782461  0.40439381  1
  Pd  Pd184  1  0.80159760  0.39587453  0.00549212  1
  Pd  Pd185  1  -0.00259054  0.61602828  0.59171055  1
  Pd  Pd186  1  0.19886352  0.80383166  0.19528865  1
  Pd  Pd187  1  0.80349111  0.80521989  0.60538408  1
  Pd  Pd188  1  0.58853635  0.19668604  0.20894225  1
  Pd  Pd189  1  0.80995338  0.19473023  0.20173425  1
  Pd  Pd190  1  0.00123330  0.59751852  0.20868721  1
  Pd  Pd191  1  0.60829526  0.39344743  0.80018124  1
  Pd  Pd192  1  0.00650052  0.19801003  0.00263496  1
  Pd  Pd193  1  0.40210956  0.19912683  0.20846017  1
  Pd  Pd194  1  0.40563457  -0.01121018  -0.00741487  1
  Pd  Pd195  1  0.59617308  0.79430839  0.39555023  1
  Pd  Pd196  1  0.20104317  0.00389905  0.40217636  1
  Pd  Pd197  1  0.00286629  0.78614946  0.40165942  1
  Pd  Pd198  1  0.61024112  0.80372655  0.20404863  1
  Pd  Pd199  1  0.39222784  0.80652661  0.60993186  1
  Rh  Rh200  1  0.00088709  0.39379683  0.59967354  1
  Rh  Rh201  1  0.79593459  -0.00615153  0.59317177  1
  Rh  Rh202  1  0.19954792  0.20045940  0.39716518  1
  Rh  Rh203  1  0.19420056  0.19491439  0.60256384  1
  Rh  Rh204  1  0.40710510  0.19095189  0.60688220  1
  Rh  Rh205  1  0.01187262  0.00594269  -0.01368219  1
  Rh  Rh206  1  0.00425433  0.40260966  -0.00236913  1
  Rh  Rh207  1  0.79404425  0.59776039  0.19915955  1
  Rh  Rh208  1  0.00712874  0.40375141  0.79847704  1
  Rh  Rh209  1  0.39834016  0.21547849  -0.00866090  1
  Rh  Rh210  1  0.39629109  -0.00285939  0.60772313  1
  Rh  Rh211  1  0.19791504  0.60155192  0.40119078  1
  Rh  Rh212  1  0.80014639  0.80795101  0.39914444  1
  Rh  Rh213  1  0.00173679  0.40336406  0.20436558  1
  Rh  Rh214  1  0.80590606  0.20657161  -0.00386452  1
  Rh  Rh215  1  0.39306814  0.79959226  0.80002409  1
  Rh  Rh216  1  0.20517494  0.20873492  0.79668819  1
  Rh  Rh217  1  0.19703098  0.59302170  0.20187557  1
  Rh  Rh218  1  0.00166706  0.01130898  0.39389481  1
  Rh  Rh219  1  0.60043005  0.39876780  0.20305893  1
  Rh  Rh220  1  0.39299495  0.79531666  0.19440889  1
  Rh  Rh221  1  0.39113434  0.40783410  0.59204207  1
  Rh  Rh222  1  0.59458868  0.60735010  0.78896129  1
  Rh  Rh223  1  0.59259608  0.39971894  0.39003773  1
  Rh  Rh224  1  0.61074631  0.40315464  0.60983085  1
  Rh  Rh225  1  0.58593120  0.00361107  0.81380429  1
  Rh  Rh226  1  0.19244814  0.60385901  0.60637253  1
  Rh  Rh227  1  0.19596808  0.80102571  0.80412839  1
  Rh  Rh228  1  0.00910656  0.01034810  0.60480471  1
  Rh  Rh229  1  0.19803509  0.39624619  0.79289948  1
  Rh  Rh230  1  0.60247438  0.79742222  0.60559006  1
  Rh  Rh231  1  -0.00919071  0.81051676  0.79364336  1
  Rh  Rh232  1  0.59723111  0.00526380  0.58950433  1
  Rh  Rh233  1  0.40710020  0.00341802  0.20375695  1
  Rh  Rh234  1  0.39499017  0.59857897  0.21210421  1
  Rh  Rh235  1  0.38897500  0.40282673  0.81084837  1
  Rh  Rh236  1  0.81407225  0.00045324  0.79242745  1
  Rh  Rh237  1  0.20052820  0.39749469  0.00457023  1
  Rh  Rh238  1  0.80064357  0.59936755  0.60258441  1
  Rh  Rh239  1  0.61354609  0.79936045  0.79298935  1
  Rh  Rh240  1  0.19928327  0.59781090  0.79353682  1
  Rh  Rh241  1  0.19389150  -0.00827327  0.80961522  1
  Rh  Rh242  1  0.39422758  0.39502322  0.19025852  1
  Rh  Rh243  1  0.80320882  0.59406200  0.39730973  1
  Rh  Rh244  1  0.39594179  -0.00252044  0.40071435  1
  Rh  Rh245  1  0.00946989  0.19886745  0.18983507  1
  Rh  Rh246  1  0.19444643  0.39375753  0.60071274  1
  Rh  Rh247  1  0.59383818  0.20045115  0.00220040  1
  Rh  Rh248  1  0.00957033  0.79535880  0.00450220  1
  Rh  Rh249  1  0.18985466  0.19433611  0.00438829  1
