# generated using pymatgen
data_ZrScNbPdRh
_symmetry_space_group_name_H-M   'P 1'
_cell_length_a   16.56298528
_cell_length_b   16.55926084
_cell_length_c   16.56355771
_cell_angle_alpha   90.02377577
_cell_angle_beta   90.02299945
_cell_angle_gamma   90.00736500
_symmetry_Int_Tables_number   1
_chemical_formula_structural   ZrScNbPdRh
_chemical_formula_sum   'Zr50 Sc50 Nb50 Pd50 Rh50'
_cell_volume   4542.89932283
_cell_formula_units_Z   50
loop_
 _symmetry_equiv_pos_site_id
 _symmetry_equiv_pos_as_xyz
  1  'x, y, z'
loop_
 _atom_site_type_symbol
 _atom_site_label
 _atom_site_symmetry_multiplicity
 _atom_site_fract_x
 _atom_site_fract_y
 _atom_site_fract_z
 _atom_site_occupancy
  Zr  Zr0  1  0.90621515  0.47988156  0.89397260  1
  Zr  Zr1  1  0.50240287  0.90385220  0.89245304  1
  Zr  Zr2  1  0.50883671  0.31136839  0.09056660  1
  Zr  Zr3  1  0.70761097  0.49296606  0.30473738  1
  Zr  Zr4  1  0.09776147  0.90119573  0.30367257  1
  Zr  Zr5  1  0.89936156  0.90033242  0.30336187  1
  Zr  Zr6  1  0.49584420  0.29831987  0.89648245  1
  Zr  Zr7  1  0.89585849  0.09446160  0.90391755  1
  Zr  Zr8  1  0.09570506  0.70704224  0.90231429  1
  Zr  Zr9  1  0.30242199  0.70645830  0.30382257  1
  Zr  Zr10  1  0.30082444  0.11052586  0.90153526  1
  Zr  Zr11  1  0.69887409  0.90514563  0.89851296  1
  Zr  Zr12  1  0.90221330  0.70243430  0.30618220  1
  Zr  Zr13  1  0.10867856  0.69537577  0.30463021  1
  Zr  Zr14  1  0.29883073  0.29970465  0.50338869  1
  Zr  Zr15  1  0.49668559  0.50550140  0.69941038  1
  Zr  Zr16  1  0.09808693  0.50048196  0.50130594  1
  Zr  Zr17  1  0.50264921  0.70340845  0.11358346  1
  Zr  Zr18  1  0.70231426  0.09922165  0.69791277  1
  Zr  Zr19  1  0.68956950  0.69334088  0.29959974  1
  Zr  Zr20  1  0.49696948  0.29997787  0.50302325  1
  Zr  Zr21  1  0.49531227  0.89718040  0.29762037  1
  Zr  Zr22  1  0.09623087  0.70219094  0.69385274  1
  Zr  Zr23  1  0.49924443  0.10253029  0.51354428  1
  Zr  Zr24  1  0.29239893  0.50341800  0.30347657  1
  Zr  Zr25  1  0.30321409  0.90104823  0.69602201  1
  Zr  Zr26  1  0.91066863  0.90498063  0.69175151  1
  Zr  Zr27  1  0.30086014  0.50042163  0.88978131  1
  Zr  Zr28  1  0.89635815  0.09724209  0.50807143  1
  Zr  Zr29  1  0.50103909  0.10750718  0.09016692  1
  Zr  Zr30  1  0.29500747  0.10182913  0.09768526  1
  Zr  Zr31  1  0.70160628  0.28995974  0.11285142  1
  Zr  Zr32  1  0.89501009  0.30238742  0.71520903  1
  Zr  Zr33  1  0.49598435  0.29075096  0.69696935  1
  Zr  Zr34  1  0.30296439  0.70129973  0.89824310  1
  Zr  Zr35  1  0.89705101  0.69142002  0.90227603  1
  Zr  Zr36  1  0.29907211  0.49589067  0.49921332  1
  Zr  Zr37  1  0.89279519  0.89987727  0.49496588  1
  Zr  Zr38  1  0.30385119  0.10382187  0.69509160  1
  Zr  Zr39  1  0.70510152  0.28234928  0.50036816  1
  Zr  Zr40  1  0.69876324  0.69914986  0.89223278  1
  Zr  Zr41  1  0.89880861  0.70317730  0.49870809  1
  Zr  Zr42  1  0.30503863  0.70162763  0.69634818  1
  Zr  Zr43  1  0.10119613  0.49941514  0.70115425  1
  Zr  Zr44  1  0.69785104  0.91326325  0.30411151  1
  Zr  Zr45  1  0.10157208  0.70135100  0.09668112  1
  Zr  Zr46  1  0.89881086  0.50110837  0.31062608  1
  Zr  Zr47  1  0.10290471  0.30194131  0.49900957  1
  Zr  Zr48  1  0.69917958  0.91423023  0.10071365  1
  Zr  Zr49  1  0.29690670  0.70461079  0.09933469  1
  Sc  Sc50  1  0.29646759  0.89355871  0.50682258  1
  Sc  Sc51  1  0.09419739  0.09743004  0.69098732  1
  Sc  Sc52  1  0.30441410  0.90152054  0.89855785  1
  Sc  Sc53  1  0.50092346  0.09339618  0.70134940  1
  Sc  Sc54  1  0.11274354  0.30508665  0.90215931  1
  Sc  Sc55  1  0.90750518  0.69879660  0.09466539  1
  Sc  Sc56  1  0.90320342  0.49910285  0.49749900  1
  Sc  Sc57  1  0.29975924  0.50198159  0.69781390  1
  Sc  Sc58  1  0.29494753  0.69871304  0.50009427  1
  Sc  Sc59  1  0.89889432  0.09325976  0.10113249  1
  Sc  Sc60  1  0.49284663  0.69824838  0.50574044  1
  Sc  Sc61  1  0.89667895  0.09591642  0.69917229  1
  Sc  Sc62  1  0.10613566  0.49291840  0.09205078  1
  Sc  Sc63  1  0.70017770  0.51029282  0.70398919  1
  Sc  Sc64  1  0.28668974  0.10055899  0.29032396  1
  Sc  Sc65  1  0.71009174  0.50956507  0.49830067  1
  Sc  Sc66  1  0.51377116  0.29409526  0.29680275  1
  Sc  Sc67  1  0.50564698  0.09535787  0.29316154  1
  Sc  Sc68  1  0.09659946  0.11249638  0.49858759  1
  Sc  Sc69  1  0.29980091  0.29960849  0.89502205  1
  Sc  Sc70  1  0.28810097  0.30742328  0.30848686  1
  Sc  Sc71  1  0.09528794  0.28875839  0.30342468  1
  Sc  Sc72  1  0.09438387  0.89451966  0.09676680  1
  Sc  Sc73  1  0.90514241  0.29554346  0.49775357  1
  Sc  Sc74  1  0.50699004  0.50684844  0.30854952  1
  Sc  Sc75  1  0.49356001  0.50183823  0.90173380  1
  Sc  Sc76  1  0.89902723  0.70511706  0.70029459  1
  Sc  Sc77  1  0.50214131  0.90465703  0.51205749  1
  Sc  Sc78  1  0.71101300  0.29559894  0.90162154  1
  Sc  Sc79  1  0.48998222  0.49845810  0.50429264  1
  Sc  Sc80  1  0.29917675  0.49855552  0.09207516  1
  Sc  Sc81  1  0.69447390  0.48538741  0.09832885  1
  Sc  Sc82  1  0.69806839  0.08967521  0.50128969  1
  Sc  Sc83  1  0.91061793  0.49243432  0.70135087  1
  Sc  Sc84  1  0.10147329  0.30462806  0.69688041  1
  Sc  Sc85  1  0.69345542  0.89599953  0.69845552  1
  Sc  Sc86  1  0.29742550  0.89769104  0.29490398  1
  Sc  Sc87  1  0.89343495  0.29690595  0.30209314  1
  Sc  Sc88  1  0.70396040  0.28830933  0.70766772  1
  Sc  Sc89  1  0.90028576  0.49554131  0.08526069  1
  Sc  Sc90  1  0.49770031  0.91258820  0.10893669  1
  Sc  Sc91  1  0.49624913  0.69701414  0.88993910  1
  Sc  Sc92  1  0.91598349  0.10159348  0.29806740  1
  Sc  Sc93  1  0.10737764  0.30164894  0.09669498  1
  Sc  Sc94  1  0.90765131  0.90738374  0.89807716  1
  Sc  Sc95  1  0.10437248  0.70004568  0.50153905  1
  Sc  Sc96  1  0.70553617  0.50003322  0.89970470  1
  Sc  Sc97  1  0.90179083  0.29506298  0.09785114  1
  Sc  Sc98  1  0.69432627  0.69940912  0.70359460  1
  Sc  Sc99  1  0.70732406  0.70251868  0.50571179  1
  Nb  Nb100  1  0.09892033  0.50094745  0.30060766  1
  Nb  Nb101  1  0.29615598  0.90143300  0.09742827  1
  Nb  Nb102  1  0.30579954  0.30172020  0.70753065  1
  Nb  Nb103  1  0.09976130  0.89885920  0.50912059  1
  Nb  Nb104  1  0.49781474  0.70525352  0.30125214  1
  Nb  Nb105  1  0.30190634  0.29928456  0.09459371  1
  Nb  Nb106  1  0.69947143  0.09399589  0.90856505  1
  Nb  Nb107  1  0.70186141  0.29760937  0.30169170  1
  Nb  Nb108  1  0.50227276  0.10137269  0.90236538  1
  Nb  Nb109  1  0.70252990  0.89994658  0.49384062  1
  Nb  Nb110  1  0.89227605  0.89911897  0.10321447  1
  Nb  Nb111  1  0.09985589  0.10245440  0.10606201  1
  Nb  Nb112  1  0.49570756  0.89030633  0.70022006  1
  Nb  Nb113  1  0.50036798  0.70494026  0.70160713  1
  Nb  Nb114  1  0.70108743  0.10080664  0.09151042  1
  Nb  Nb115  1  0.09939151  0.90679336  0.89762537  1
  Nb  Nb116  1  0.90560223  0.29346671  0.90195926  1
  Nb  Nb117  1  0.69998398  0.70198979  0.10056697  1
  Nb  Nb118  1  0.69449682  0.11578767  0.28947359  1
  Nb  Nb119  1  0.10305482  0.49660238  0.89693432  1
  Nb  Nb120  1  0.49497851  0.50284747  0.09571193  1
  Nb  Nb121  1  0.10277175  0.09903455  0.29325795  1
  Nb  Nb122  1  0.29927273  0.10036684  0.49771168  1
  Nb  Nb123  1  0.09995263  0.90012677  0.69876165  1
  Nb  Nb124  1  0.09669670  0.09393351  0.90424781  1
  Nb  Nb125  1  0.40165268  0.59828126  0.20198256  1
  Nb  Nb126  1  0.79587815  0.80137662  0.00342124  1
  Nb  Nb127  1  0.60689030  0.39710777  0.60148645  1
  Nb  Nb128  1  0.39636198  0.19446409  0.39558714  1
  Nb  Nb129  1  0.40531094  0.80321343  0.00490872  1
  Nb  Nb130  1  0.59773439  0.39797645  0.79601857  1
  Nb  Nb131  1  0.19526458  0.00063524  -0.00103876  1
  Nb  Nb132  1  0.79811270  0.79884945  0.19635860  1
  Nb  Nb133  1  0.00096254  0.59303884  0.20265729  1
  Nb  Nb134  1  0.19404782  0.80840710  0.79739914  1
  Nb  Nb135  1  0.59796786  0.80172703  0.39967815  1
  Nb  Nb136  1  0.39719729  0.21079051  0.19646711  1
  Nb  Nb137  1  0.79560869  0.39569377  0.60125779  1
  Nb  Nb138  1  0.00140296  0.19744091  0.80974554  1
  Nb  Nb139  1  0.39269411  0.00672195  0.40349962  1
  Nb  Nb140  1  0.00220715  0.40570089  0.20399146  1
  Nb  Nb141  1  0.19870176  0.60206042  -0.00908882  1
  Nb  Nb142  1  0.59755967  0.60504329  0.00604626  1
  Nb  Nb143  1  0.00587998  0.19407222  -0.00280630  1
  Nb  Nb144  1  0.19411689  0.00032169  0.80122815  1
  Nb  Nb145  1  0.19768110  0.00240729  0.40360381  1
  Nb  Nb146  1  0.40176721  0.40152134  0.19779700  1
  Nb  Nb147  1  0.80178119  0.60160018  0.19635911  1
  Nb  Nb148  1  0.60914348  0.39386874  0.40759113  1
  Nb  Nb149  1  0.59968732  0.79846168  0.00253296  1
  Pd  Pd150  1  0.40385566  0.80990813  0.41132341  1
  Pd  Pd151  1  0.39405864  0.39737232  -0.00278046  1
  Pd  Pd152  1  -0.00306511  0.59924129  0.80017610  1
  Pd  Pd153  1  0.80562390  0.18972579  0.39574088  1
  Pd  Pd154  1  0.20236936  0.21196860  0.20065130  1
  Pd  Pd155  1  0.81153628  0.59312574  0.79350458  1
  Pd  Pd156  1  0.81029364  0.19202448  0.20050718  1
  Pd  Pd157  1  0.59885163  0.59704415  0.59424411  1
  Pd  Pd158  1  0.19005874  0.19527634  0.79298705  1
  Pd  Pd159  1  0.81023405  0.59362562  0.60776848  1
  Pd  Pd160  1  0.19619683  0.00499146  0.59693791  1
  Pd  Pd161  1  0.80644730  0.80806729  0.80197002  1
  Pd  Pd162  1  0.00235127  -0.00545048  0.19441322  1
  Pd  Pd163  1  0.80036753  0.01630410  0.39160905  1
  Pd  Pd164  1  0.59958789  0.00212601  0.79333553  1
  Pd  Pd165  1  0.39942813  0.60205433  0.39721610  1
  Pd  Pd166  1  0.79987595  -0.00321366  0.79507772  1
  Pd  Pd167  1  -0.00591363  0.60086974  0.59836087  1
  Pd  Pd168  1  0.59708344  0.60185438  0.41427552  1
  Pd  Pd169  1  0.00234433  0.39286003  0.39477783  1
  Pd  Pd170  1  0.20512461  0.40034371  0.60592682  1
  Pd  Pd171  1  0.60228163  0.19873477  0.80577927  1
  Pd  Pd172  1  0.19566280  0.60871928  0.80030652  1
  Pd  Pd173  1  0.60817571  0.20587806  -0.00687232  1
  Pd  Pd174  1  0.20067324  0.59484522  0.19008073  1
  Pd  Pd175  1  0.60139792  0.58648703  0.19551048  1
  Pd  Pd176  1  0.39338888  0.00980264  0.20544055  1
  Pd  Pd177  1  0.19597518  0.80637362  0.20114146  1
  Pd  Pd178  1  0.79743952  0.80350544  0.60673411  1
  Pd  Pd179  1  -0.00667406  0.20766450  0.61044584  1
  Pd  Pd180  1  0.19812910  0.39640986  0.20099593  1
  Pd  Pd181  1  0.58961116  0.00010387  0.40382941  1
  Pd  Pd182  1  0.20144418  0.20291377  0.60557070  1
  Pd  Pd183  1  0.59468983  0.40673638  0.20972370  1
  Pd  Pd184  1  0.79669230  0.38993742  0.00344470  1
  Pd  Pd185  1  0.59396609  0.19598889  0.40293197  1
  Pd  Pd186  1  0.39648083  -0.00338396  -0.00139127  1
  Pd  Pd187  1  0.41117671  0.39086195  0.38661864  1
  Pd  Pd188  1  0.00866924  0.79780547  0.40783608  1
  Pd  Pd189  1  0.60167110  0.79840800  0.59319783  1
  Pd  Pd190  1  -0.00332728  0.79438307  0.19976635  1
  Pd  Pd191  1  0.79220928  0.60006121  0.00538348  1
  Pd  Pd192  1  0.80023769  0.00912955  0.20922495  1
  Pd  Pd193  1  0.39634125  0.00597202  0.79982635  1
  Pd  Pd194  1  0.00832129  0.00534142  0.40880595  1
  Pd  Pd195  1  0.81133720  0.40335831  0.19480212  1
  Pd  Pd196  1  -0.00226213  0.80196346  0.80154052  1
  Pd  Pd197  1  -0.01098101  0.80882877  -0.00257903  1
  Pd  Pd198  1  0.60738662  0.81014243  0.20282836  1
  Pd  Pd199  1  0.00736526  0.58909974  0.00045160  1
  Rh  Rh200  1  0.59362171  0.59490456  0.80764367  1
  Rh  Rh201  1  0.39916026  -0.00340917  0.59822024  1
  Rh  Rh202  1  -0.00058058  0.19679667  0.39937128  1
  Rh  Rh203  1  0.80315216  0.19735246  0.00236305  1
  Rh  Rh204  1  0.19826214  0.79694412  0.60493843  1
  Rh  Rh205  1  0.40377495  0.19354697  0.80029865  1
  Rh  Rh206  1  0.19994887  0.59696052  0.40781989  1
  Rh  Rh207  1  0.00500728  0.39006611  0.00213735  1
  Rh  Rh208  1  0.59368119  -0.00073649  0.00011824  1
  Rh  Rh209  1  0.20206668  0.19072857  0.39721954  1
  Rh  Rh210  1  0.00535055  0.60430529  0.40082835  1
  Rh  Rh211  1  0.39272961  0.20135704  0.59736529  1
  Rh  Rh212  1  0.78898683  0.40470799  0.79352234  1
  Rh  Rh213  1  0.59399196  0.19757956  0.19232077  1
  Rh  Rh214  1  0.19001986  0.40311414  0.40061236  1
  Rh  Rh215  1  0.59525646  0.79821916  0.80139874  1
  Rh  Rh216  1  0.19439821  0.19431779  0.00334429  1
  Rh  Rh217  1  0.39681739  0.60307531  0.60133879  1
  Rh  Rh218  1  0.19656225  0.80989861  0.40463651  1
  Rh  Rh219  1  0.79986108  0.60838321  0.39700802  1
  Rh  Rh220  1  0.40406431  0.40084938  0.79512368  1
  Rh  Rh221  1  0.40251885  0.79741944  0.59762325  1
  Rh  Rh222  1  0.79314399  0.39096855  0.41313492  1
  Rh  Rh223  1  0.20913612  0.80561504  -0.01029473  1
  Rh  Rh224  1  0.40129308  0.20652568  0.00094459  1
  Rh  Rh225  1  0.78482736  0.79669409  0.39013478  1
  Rh  Rh226  1  0.79363471  -0.00955860  0.60084927  1
  Rh  Rh227  1  0.60289605  -0.00605978  0.60559525  1
  Rh  Rh228  1  0.40234159  0.60217386  0.79133996  1
  Rh  Rh229  1  0.80279544  -0.00450139  -0.00126671  1
  Rh  Rh230  1  0.20126159  0.59781290  0.59782647  1
  Rh  Rh231  1  0.80604630  0.20243497  0.60415600  1
  Rh  Rh232  1  0.01321799  0.39004742  0.80404219  1
  Rh  Rh233  1  0.39740340  0.80111554  0.80179033  1
  Rh  Rh234  1  0.60422013  0.19773991  0.60532762  1
  Rh  Rh235  1  0.19220425  -0.00767022  0.19584175  1
  Rh  Rh236  1  0.20253784  0.39841140  0.79467842  1
  Rh  Rh237  1  0.60053946  0.40878099  -0.01587234  1
  Rh  Rh238  1  0.60326774  0.01190585  0.19510903  1
  Rh  Rh239  1  -0.00141154  0.80147254  0.59302908  1
  Rh  Rh240  1  0.39366723  0.79882450  0.19513271  1
  Rh  Rh241  1  0.00222190  -0.00015595  0.59206294  1
  Rh  Rh242  1  0.00464798  0.00753166  0.79096229  1
  Rh  Rh243  1  0.39939676  0.39815685  0.60810106  1
  Rh  Rh244  1  0.00355277  0.00098478  0.01265933  1
  Rh  Rh245  1  0.40099297  0.61200783  0.01044150  1
  Rh  Rh246  1  0.80328427  0.18790815  0.80703236  1
  Rh  Rh247  1  0.20783602  0.40694266  -0.00812293  1
  Rh  Rh248  1  -0.00822843  0.39413361  0.59837449  1
  Rh  Rh249  1  0.00250392  0.20733454  0.19169217  1
