# generated using pymatgen
data_ZrScNbPdRh
_symmetry_space_group_name_H-M   'P 1'
_cell_length_a   16.55550286
_cell_length_b   16.55634987
_cell_length_c   16.55434040
_cell_angle_alpha   89.96353057
_cell_angle_beta   90.00162424
_cell_angle_gamma   89.99546026
_symmetry_Int_Tables_number   1
_chemical_formula_structural   ZrScNbPdRh
_chemical_formula_sum   'Zr50 Sc50 Nb50 Pd50 Rh50'
_cell_volume   4537.52221011
_cell_formula_units_Z   50
loop_
 _symmetry_equiv_pos_site_id
 _symmetry_equiv_pos_as_xyz
  1  'x, y, z'
loop_
 _atom_site_type_symbol
 _atom_site_label
 _atom_site_symmetry_multiplicity
 _atom_site_fract_x
 _atom_site_fract_y
 _atom_site_fract_z
 _atom_site_occupancy
  Zr  Zr0  1  0.50258813  0.90340870  0.09665809  1
  Zr  Zr1  1  0.30066901  0.90833755  0.09677069  1
  Zr  Zr2  1  0.09428044  0.90103631  0.09013990  1
  Zr  Zr3  1  0.90072948  0.50766441  0.50593310  1
  Zr  Zr4  1  0.30192543  0.49534443  0.29789119  1
  Zr  Zr5  1  0.69728646  0.69461023  0.30491547  1
  Zr  Zr6  1  0.49858533  0.09900778  0.70120287  1
  Zr  Zr7  1  0.90262891  0.69869311  0.30751176  1
  Zr  Zr8  1  0.49826201  0.51107694  0.50327978  1
  Zr  Zr9  1  0.90118927  0.29582567  0.09627771  1
  Zr  Zr10  1  0.90693078  0.10165678  0.70648891  1
  Zr  Zr11  1  0.89870893  0.69561463  0.89866493  1
  Zr  Zr12  1  0.49724049  0.10817378  0.89808323  1
  Zr  Zr13  1  0.70029385  0.90877153  0.09516667  1
  Zr  Zr14  1  0.70120165  0.71398071  0.70306999  1
  Zr  Zr15  1  0.69812015  0.89777353  0.51442287  1
  Zr  Zr16  1  0.10235465  0.49376869  0.09709389  1
  Zr  Zr17  1  0.50300582  0.30492035  0.70948995  1
  Zr  Zr18  1  0.49774020  0.48851270  0.89627179  1
  Zr  Zr19  1  0.49754445  0.90216763  0.30571858  1
  Zr  Zr20  1  0.50250415  0.90621620  0.89617292  1
  Zr  Zr21  1  0.10200581  0.90880720  0.69326126  1
  Zr  Zr22  1  0.89680703  0.09736190  0.29335582  1
  Zr  Zr23  1  0.90255643  0.10715477  0.48679788  1
  Zr  Zr24  1  0.30185596  0.69523203  0.10457966  1
  Zr  Zr25  1  0.69446809  0.50267997  0.29393046  1
  Zr  Zr26  1  0.70757397  0.10495522  0.09959074  1
  Zr  Zr27  1  0.90447356  0.89787164  0.90999840  1
  Zr  Zr28  1  0.89917234  0.09520885  0.09430977  1
  Zr  Zr29  1  0.50272090  0.30106411  0.08805306  1
  Zr  Zr30  1  0.09569142  0.49947851  0.29053343  1
  Zr  Zr31  1  0.49157670  0.70522843  0.30666168  1
  Zr  Zr32  1  0.89731391  0.49675466  0.09413963  1
  Zr  Zr33  1  0.50268070  0.68553832  0.69727864  1
  Zr  Zr34  1  0.29504732  0.49486884  0.89784617  1
  Zr  Zr35  1  0.29509224  0.69465185  0.69744077  1
  Zr  Zr36  1  0.10824151  0.69214342  0.10305297  1
  Zr  Zr37  1  0.90208333  0.49898294  0.90113074  1
  Zr  Zr38  1  0.30979584  0.10371022  0.29981741  1
  Zr  Zr39  1  0.70104260  0.29474378  0.29744138  1
  Zr  Zr40  1  0.09612828  0.30223549  0.09920242  1
  Zr  Zr41  1  0.69482913  0.30071785  0.70077175  1
  Zr  Zr42  1  0.49417798  0.29759570  0.50781050  1
  Zr  Zr43  1  0.89939383  0.50118701  0.30266392  1
  Zr  Zr44  1  0.09848270  0.50243926  0.50547431  1
  Zr  Zr45  1  0.29905715  0.09961167  0.10223855  1
  Zr  Zr46  1  0.10776220  0.09877969  0.50796840  1
  Zr  Zr47  1  0.69686153  0.09196191  0.69714112  1
  Zr  Zr48  1  0.48927229  0.09513188  0.49990424  1
  Zr  Zr49  1  0.90433717  0.69976910  0.09050637  1
  Sc  Sc50  1  0.91089376  0.50262731  0.70338638  1
  Sc  Sc51  1  0.30201612  0.90454531  0.50231941  1
  Sc  Sc52  1  0.69739453  0.90157270  0.30737964  1
  Sc  Sc53  1  0.49542051  0.09875787  0.09523340  1
  Sc  Sc54  1  0.30304207  0.89375268  0.30234871  1
  Sc  Sc55  1  0.50226412  0.70290122  0.89250295  1
  Sc  Sc56  1  0.29631544  0.29814935  0.10145732  1
  Sc  Sc57  1  0.30596144  0.90473330  0.70028743  1
  Sc  Sc58  1  0.29906527  0.29864405  0.30195754  1
  Sc  Sc59  1  0.90182756  0.10685196  0.90530168  1
  Sc  Sc60  1  0.69843554  0.30383968  0.90518761  1
  Sc  Sc61  1  0.70928811  0.09691822  0.29980350  1
  Sc  Sc62  1  0.10575789  0.30683682  0.29470922  1
  Sc  Sc63  1  0.10534591  0.09592503  0.30620894  1
  Sc  Sc64  1  0.10357908  0.89749627  0.50422091  1
  Sc  Sc65  1  0.90579348  0.30584675  0.71366649  1
  Sc  Sc66  1  0.70141374  0.09301435  0.50042962  1
  Sc  Sc67  1  0.10489198  0.89422970  0.30960018  1
  Sc  Sc68  1  0.09323574  0.68953361  0.90716017  1
  Sc  Sc69  1  0.09975012  0.50939650  0.70651306  1
  Sc  Sc70  1  0.09883902  0.70705318  0.50740467  1
  Sc  Sc71  1  0.90584048  0.89253914  0.49881814  1
  Sc  Sc72  1  0.89671263  0.89104096  0.69223642  1
  Sc  Sc73  1  0.49651657  0.49146599  0.10140730  1
  Sc  Sc74  1  0.29822176  0.69729767  0.50366197  1
  Sc  Sc75  1  0.30354572  0.30300346  0.89326274  1
  Sc  Sc76  1  0.90341446  0.91081763  0.10061578  1
  Sc  Sc77  1  0.70350339  0.10344710  0.90459966  1
  Sc  Sc78  1  0.10080104  0.29848018  0.90109298  1
  Sc  Sc79  1  0.69426485  0.70635511  0.89344956  1
  Sc  Sc80  1  0.70103751  0.68829620  0.10129286  1
  Sc  Sc81  1  0.48761692  0.30472185  0.29035546  1
  Sc  Sc82  1  0.90194610  0.69875189  0.69480416  1
  Sc  Sc83  1  0.69448662  0.70139706  0.50192918  1
  Sc  Sc84  1  0.90141616  0.30094595  0.90180810  1
  Sc  Sc85  1  0.50384761  0.90951539  0.70349351  1
  Sc  Sc86  1  0.10471103  0.09849197  0.08960973  1
  Sc  Sc87  1  0.30187277  0.10771129  0.50073677  1
  Sc  Sc88  1  0.30458330  0.68926835  0.89956322  1
  Sc  Sc89  1  0.29972358  0.09644213  0.89946930  1
  Sc  Sc90  1  0.10336675  0.30140784  0.71102561  1
  Sc  Sc91  1  0.29587281  0.09849275  0.69565624  1
  Sc  Sc92  1  0.90414385  0.90244919  0.30481321  1
  Sc  Sc93  1  0.49927023  0.89798254  0.49363424  1
  Sc  Sc94  1  0.69475730  0.29625372  0.50540640  1
  Sc  Sc95  1  0.68550845  0.49743880  0.69929948  1
  Sc  Sc96  1  0.69598406  0.51063607  0.49935315  1
  Sc  Sc97  1  0.89862667  0.70066076  0.50305234  1
  Sc  Sc98  1  0.89631910  0.28584223  0.30625382  1
  Sc  Sc99  1  0.49718378  0.50395808  0.30022670  1
  Nb  Nb100  1  0.90260740  0.29987579  0.50293522  1
  Nb  Nb101  1  0.10306954  0.70787212  0.69859171  1
  Nb  Nb102  1  0.29134757  0.69953531  0.29533688  1
  Nb  Nb103  1  0.70180821  0.90066233  0.70696790  1
  Nb  Nb104  1  0.49820238  0.30083380  0.90029373  1
  Nb  Nb105  1  0.29708839  0.50424814  0.09167953  1
  Nb  Nb106  1  0.10251812  0.90000979  0.89694534  1
  Nb  Nb107  1  0.10703138  0.69815196  0.29728063  1
  Nb  Nb108  1  0.49956508  0.70340908  0.09727841  1
  Nb  Nb109  1  0.70632408  0.49905102  0.90870374  1
  Nb  Nb110  1  0.09480158  0.09743024  0.88180614  1
  Nb  Nb111  1  0.29892577  0.50259331  0.69615556  1
  Nb  Nb112  1  0.30441663  0.89618177  0.89900332  1
  Nb  Nb113  1  0.49789525  0.10547016  0.30127392  1
  Nb  Nb114  1  0.49871567  0.49446242  0.69595269  1
  Nb  Nb115  1  0.69628228  0.30426664  0.10121014  1
  Nb  Nb116  1  0.69798218  0.49245466  0.09551794  1
  Nb  Nb117  1  0.09763514  0.49779614  0.89954734  1
  Nb  Nb118  1  0.29922565  0.31240809  0.69966643  1
  Nb  Nb119  1  0.10084141  0.30016654  0.50234551  1
  Nb  Nb120  1  0.09681694  0.10000485  0.70369388  1
  Nb  Nb121  1  0.49948734  0.70200451  0.49959570  1
  Nb  Nb122  1  0.29658396  0.50066887  0.50068808  1
  Nb  Nb123  1  0.29534871  0.30540300  0.50247774  1
  Nb  Nb124  1  0.69887412  0.89429850  0.89049920  1
  Nb  Nb125  1  0.40547010  0.79290618  0.60068797  1
  Nb  Nb126  1  0.80375088  0.39718545  0.59808039  1
  Nb  Nb127  1  0.00939215  0.80118620  0.80068897  1
  Nb  Nb128  1  0.60010873  0.79836761  0.19727572  1
  Nb  Nb129  1  0.80064774  0.79864026  0.19669808  1
  Nb  Nb130  1  0.20393438  0.40078963  0.59902083  1
  Nb  Nb131  1  0.79929855  0.39894234  0.40451479  1
  Nb  Nb132  1  0.80860326  0.20381753  0.60286895  1
  Nb  Nb133  1  0.59944977  0.39575957  0.39945432  1
  Nb  Nb134  1  0.20428804  0.80248043  -0.00665302  1
  Nb  Nb135  1  0.79810544  -0.00782799  0.80068578  1
  Nb  Nb136  1  0.00345852  0.20237271  0.60051397  1
  Nb  Nb137  1  -0.00003691  0.19510276  0.19779487  1
  Nb  Nb138  1  0.20018069  0.60050265  0.39395145  1
  Nb  Nb139  1  0.00172051  0.79428309  0.20155538  1
  Nb  Nb140  1  0.19727108  0.80197646  0.80483517  1
  Nb  Nb141  1  0.39863200  0.80219082  0.00007404  1
  Nb  Nb142  1  0.79685642  0.39957562  0.19957754  1
  Nb  Nb143  1  0.39385214  0.40561671  0.60146149  1
  Nb  Nb144  1  0.59792226  0.19961198  0.20000380  1
  Nb  Nb145  1  0.59174891  0.19976983  0.39448923  1
  Nb  Nb146  1  0.79588245  0.59787768  0.80245339  1
  Nb  Nb147  1  0.79549079  0.80218121  0.00158606  1
  Nb  Nb148  1  0.59994864  0.59341740  -0.00015373  1
  Nb  Nb149  1  -0.00346481  0.39665712  0.40771637  1
  Pd  Pd150  1  0.39396198  0.20608756  0.60970396  1
  Pd  Pd151  1  0.20473748  0.79376501  0.40804435  1
  Pd  Pd152  1  0.39019770  0.60583110  0.39975863  1
  Pd  Pd153  1  0.19231696  0.40571061  0.40302720  1
  Pd  Pd154  1  0.40257052  0.00058701  0.20303033  1
  Pd  Pd155  1  0.80122909  -0.00921229  0.40273023  1
  Pd  Pd156  1  0.41093558  0.60158638  -0.00241596  1
  Pd  Pd157  1  0.60717250  0.19925582  0.80721500  1
  Pd  Pd158  1  0.40035355  0.59224855  0.80004822  1
  Pd  Pd159  1  0.60225102  0.00889399  -0.00774701  1
  Pd  Pd160  1  0.40531587  0.39721499  0.40596560  1
  Pd  Pd161  1  -0.00404806  0.60398352  0.19456505  1
  Pd  Pd162  1  0.19466178  0.81066047  0.19238609  1
  Pd  Pd163  1  0.58870792  0.60241290  0.19241797  1
  Pd  Pd164  1  0.79533654  0.40900288  0.79241972  1
  Pd  Pd165  1  0.80441904  0.59890769  0.19703101  1
  Pd  Pd166  1  0.00332913  0.39503455  0.60474476  1
  Pd  Pd167  1  0.01099599  -0.00116028  0.20562192  1
  Pd  Pd168  1  0.20057537  0.20167282  0.39685376  1
  Pd  Pd169  1  0.20012532  0.19904760  -0.00919106  1
  Pd  Pd170  1  0.01322940  0.20523970  0.39580781  1
  Pd  Pd171  1  0.39095036  0.19966175  0.79368048  1
  Pd  Pd172  1  0.40268030  0.59693908  0.19812555  1
  Pd  Pd173  1  0.19582538  0.20660191  0.60886692  1
  Pd  Pd174  1  -0.01063193  -0.00936749  0.80248118  1
  Pd  Pd175  1  0.60373165  0.19008681  0.59384216  1
  Pd  Pd176  1  0.20737071  -0.00301305  0.79890798  1
  Pd  Pd177  1  0.00928675  0.60302364  0.40497845  1
  Pd  Pd178  1  0.79672522  0.80203066  0.40071544  1
  Pd  Pd179  1  0.39912632  0.79882984  0.79546863  1
  Pd  Pd180  1  0.79229647  0.59496046  0.61212024  1
  Pd  Pd181  1  0.39168994  0.20314044  0.00072474  1
  Pd  Pd182  1  -0.00633604  0.00448063  0.59303344  1
  Pd  Pd183  1  0.19754412  0.00175925  -0.01055709  1
  Pd  Pd184  1  0.79692588  0.19511736  0.79872503  1
  Pd  Pd185  1  0.81083334  0.00303567  0.60318580  1
  Pd  Pd186  1  0.40355700  0.80258935  0.19555080  1
  Pd  Pd187  1  0.60117707  0.00480413  0.20519927  1
  Pd  Pd188  1  0.60106572  0.00568443  0.40238885  1
  Pd  Pd189  1  0.60226058  0.79181295  0.00339293  1
  Pd  Pd190  1  0.20325107  0.39271758  -0.00196297  1
  Pd  Pd191  1  0.19409583  0.60383548  0.80562729  1
  Pd  Pd192  1  0.59013610  0.80449322  0.60586418  1
  Pd  Pd193  1  0.39331256  0.39877561  0.19093887  1
  Pd  Pd194  1  0.20623662  0.20172850  0.79890128  1
  Pd  Pd195  1  0.19531014  -0.00517634  0.20612787  1
  Pd  Pd196  1  0.19305168  0.19776725  0.20294253  1
  Pd  Pd197  1  0.00545080  -0.00452020  0.40326789  1
  Pd  Pd198  1  0.20869627  0.00074023  0.40258754  1
  Pd  Pd199  1  0.60578278  0.59207519  0.80708804  1
  Rh  Rh200  1  0.79900798  -0.01095646  0.20640975  1
  Rh  Rh201  1  0.59545393  0.40582875  0.58987928  1
  Rh  Rh202  1  0.39293374  0.39647686  -0.00011195  1
  Rh  Rh203  1  0.19547209  0.59728678  0.59548599  1
  Rh  Rh204  1  0.78712465  0.20109087  0.41431079  1
  Rh  Rh205  1  0.00603822  0.60887520  0.60506991  1
  Rh  Rh206  1  0.00666138  0.58902744  0.00325602  1
  Rh  Rh207  1  0.79935617  0.79856816  0.59631545  1
  Rh  Rh208  1  0.00559535  0.79548005  0.39623449  1
  Rh  Rh209  1  0.60178538  0.20060425  0.00234944  1
  Rh  Rh210  1  0.39788744  0.60054846  0.59918157  1
  Rh  Rh211  1  0.40102561  -0.00142665  -0.00561239  1
  Rh  Rh212  1  -0.01590215  0.38461182  0.21358056  1
  Rh  Rh213  1  0.00691558  0.40089395  0.80644866  1
  Rh  Rh214  1  0.39246558  0.79542138  0.40839371  1
  Rh  Rh215  1  0.60651548  0.00640388  0.80616325  1
  Rh  Rh216  1  0.00676947  0.19593034  -0.00040882  1
  Rh  Rh217  1  0.40175050  -0.00692991  0.59851579  1
  Rh  Rh218  1  0.19937805  0.59966366  -0.00455646  1
  Rh  Rh219  1  0.81199009  0.80106435  0.80551099  1
  Rh  Rh220  1  0.80103519  0.39210406  0.00539666  1
  Rh  Rh221  1  0.59264775  -0.00258185  0.59730736  1
  Rh  Rh222  1  0.60221614  0.39433296  0.20510085  1
  Rh  Rh223  1  0.00420082  0.79846832  0.00117435  1
  Rh  Rh224  1  0.39781794  0.40416666  0.79441117  1
  Rh  Rh225  1  0.00863189  0.01159912  -0.01005083  1
  Rh  Rh226  1  0.58815686  0.80249612  0.79160947  1
  Rh  Rh227  1  0.39489303  0.00077968  0.39783505  1
  Rh  Rh228  1  0.78758381  0.60909729  -0.00853666  1
  Rh  Rh229  1  0.39926129  0.20719298  0.40029228  1
  Rh  Rh230  1  0.21095682  0.80573537  0.60681364  1
  Rh  Rh231  1  0.79740205  0.20671847  -0.00055656  1
  Rh  Rh232  1  0.60114613  0.79705406  0.39565162  1
  Rh  Rh233  1  0.60493190  0.60246438  0.60104075  1
  Rh  Rh234  1  0.59581410  0.59873734  0.39924094  1
  Rh  Rh235  1  0.79697208  0.59921900  0.40459918  1
  Rh  Rh236  1  0.00088218  0.79943753  0.60427316  1
  Rh  Rh237  1  0.00154678  0.40023337  -0.00756845  1
  Rh  Rh238  1  0.39840470  0.00757928  0.80061899  1
  Rh  Rh239  1  0.79428728  -0.00668041  -0.01251510  1
  Rh  Rh240  1  0.20985945  0.40365696  0.19272429  1
  Rh  Rh241  1  0.80224913  0.20343216  0.19057289  1
  Rh  Rh242  1  0.20629508  0.58853063  0.20312364  1
  Rh  Rh243  1  0.59939616  0.40272103  -0.00587774  1
  Rh  Rh244  1  0.20442759  0.00230705  0.60017038  1
  Rh  Rh245  1  0.19616983  0.40601442  0.79682799  1
  Rh  Rh246  1  -0.00236549  0.60690501  0.79686380  1
  Rh  Rh247  1  0.60358862  0.40010000  0.80816743  1
  Rh  Rh248  1  0.00316742  0.20524599  0.80131558  1
  Rh  Rh249  1  0.40459666  0.20027757  0.19256577  1
