# generated using pymatgen
data_ZrScNbPdRh
_symmetry_space_group_name_H-M   'P 1'
_cell_length_a   16.56187159
_cell_length_b   16.56042763
_cell_length_c   16.55670171
_cell_angle_alpha   90.02366560
_cell_angle_beta   89.99956276
_cell_angle_gamma   89.99527234
_symmetry_Int_Tables_number   1
_chemical_formula_structural   ZrScNbPdRh
_chemical_formula_sum   'Zr50 Sc50 Nb50 Pd50 Rh50'
_cell_volume   4541.03392342
_cell_formula_units_Z   50
loop_
 _symmetry_equiv_pos_site_id
 _symmetry_equiv_pos_as_xyz
  1  'x, y, z'
loop_
 _atom_site_type_symbol
 _atom_site_label
 _atom_site_symmetry_multiplicity
 _atom_site_fract_x
 _atom_site_fract_y
 _atom_site_fract_z
 _atom_site_occupancy
  Zr  Zr0  1  0.50102823  0.89056993  0.90342066  1
  Zr  Zr1  1  0.91073222  0.10395803  0.89860215  1
  Zr  Zr2  1  0.69239702  0.70382646  0.29257394  1
  Zr  Zr3  1  0.09522424  0.09842344  0.50211779  1
  Zr  Zr4  1  0.70777923  0.89452997  0.69562622  1
  Zr  Zr5  1  0.90304344  0.09147585  0.69508578  1
  Zr  Zr6  1  0.08840818  0.69639921  0.69678872  1
  Zr  Zr7  1  0.89292310  0.50984446  0.49136782  1
  Zr  Zr8  1  0.48898797  0.49959801  0.49980602  1
  Zr  Zr9  1  0.09938870  0.89832661  0.49864933  1
  Zr  Zr10  1  0.09307368  0.09762849  0.70270005  1
  Zr  Zr11  1  0.69802772  0.29624164  0.10173578  1
  Zr  Zr12  1  0.09201319  0.49823044  0.29454260  1
  Zr  Zr13  1  0.70578070  0.50433994  0.70175177  1
  Zr  Zr14  1  0.89333660  0.89704024  0.09571598  1
  Zr  Zr15  1  0.30641934  0.30895041  0.49611185  1
  Zr  Zr16  1  0.49123019  0.09430081  0.90570243  1
  Zr  Zr17  1  0.49884259  0.89002387  0.29264079  1
  Zr  Zr18  1  0.09986811  0.69819546  0.08948049  1
  Zr  Zr19  1  0.89878045  0.30174674  0.71020822  1
  Zr  Zr20  1  0.50341549  0.10647768  0.49467123  1
  Zr  Zr21  1  0.49340133  0.50786194  0.90251063  1
  Zr  Zr22  1  0.10053556  0.30031818  0.29279327  1
  Zr  Zr23  1  0.29801200  0.09287581  0.28420389  1
  Zr  Zr24  1  0.69788566  0.10514272  0.69981927  1
  Zr  Zr25  1  0.50375538  0.69557062  0.49799361  1
  Zr  Zr26  1  0.90913572  0.69163176  0.30963891  1
  Zr  Zr27  1  0.50311627  0.89434115  0.49858232  1
  Zr  Zr28  1  0.29810223  0.49299000  0.09881197  1
  Zr  Zr29  1  0.90147759  0.90318496  0.89678866  1
  Zr  Zr30  1  0.50557749  0.28468508  0.29681160  1
  Zr  Zr31  1  0.69885152  0.90148984  0.90400552  1
  Zr  Zr32  1  0.09015683  0.29125174  0.50086481  1
  Zr  Zr33  1  0.71058172  0.70164211  0.09593229  1
  Zr  Zr34  1  0.29726191  0.69717174  0.69899636  1
  Zr  Zr35  1  0.09400822  0.28780795  0.90638924  1
  Zr  Zr36  1  0.29553852  0.49755311  0.31102209  1
  Zr  Zr37  1  0.90499303  0.10994723  0.49547513  1
  Zr  Zr38  1  0.70164954  0.70161217  0.50907142  1
  Zr  Zr39  1  0.89373852  0.91200331  0.50443451  1
  Zr  Zr40  1  0.49922274  0.10221406  0.09940251  1
  Zr  Zr41  1  0.30447552  0.69847105  0.90028790  1
  Zr  Zr42  1  0.30181265  0.68218758  0.49548638  1
  Zr  Zr43  1  0.90285537  0.51109811  0.70968358  1
  Zr  Zr44  1  0.31597199  0.09883755  0.70514331  1
  Zr  Zr45  1  0.90077492  0.30009493  0.90456022  1
  Zr  Zr46  1  0.49986118  0.69618336  0.70863250  1
  Zr  Zr47  1  0.09528949  0.70140975  0.49827765  1
  Zr  Zr48  1  0.10991096  0.90421694  0.29096144  1
  Zr  Zr49  1  0.09970461  0.10170821  0.29515376  1
  Sc  Sc50  1  0.69587676  0.49450068  0.10924701  1
  Sc  Sc51  1  0.50529286  0.49764827  0.69688183  1
  Sc  Sc52  1  0.09745434  0.49278029  0.90545646  1
  Sc  Sc53  1  0.69366488  0.30681918  0.70598548  1
  Sc  Sc54  1  0.69989615  0.09986382  0.09729802  1
  Sc  Sc55  1  0.09461787  0.89122536  0.70598240  1
  Sc  Sc56  1  0.70343580  0.29900177  0.89992452  1
  Sc  Sc57  1  0.09534427  0.89680433  0.90206610  1
  Sc  Sc58  1  0.89251954  0.29624776  0.29615231  1
  Sc  Sc59  1  0.29689310  0.30233726  0.90801400  1
  Sc  Sc60  1  0.29875041  0.30285016  0.29221269  1
  Sc  Sc61  1  0.89177782  0.10296501  0.29642739  1
  Sc  Sc62  1  0.49422842  0.89081179  0.69867853  1
  Sc  Sc63  1  0.30617582  0.50373170  0.69600552  1
  Sc  Sc64  1  0.30315610  0.89594533  0.91184620  1
  Sc  Sc65  1  0.69558695  0.30120698  0.49149699  1
  Sc  Sc66  1  0.70309876  0.89928027  0.10068466  1
  Sc  Sc67  1  0.49907777  0.70064361  0.30370366  1
  Sc  Sc68  1  0.09793184  0.30433992  0.71207436  1
  Sc  Sc69  1  0.09606389  0.30184405  0.10263887  1
  Sc  Sc70  1  0.29354411  0.70847053  0.09200161  1
  Sc  Sc71  1  0.50763307  0.29939981  0.90767133  1
  Sc  Sc72  1  0.50493014  0.29692504  0.69692193  1
  Sc  Sc73  1  0.89470756  0.10211589  0.10160109  1
  Sc  Sc74  1  0.50900688  0.50244482  0.29952651  1
  Sc  Sc75  1  0.89971651  0.89878153  0.70497440  1
  Sc  Sc76  1  0.90321359  0.70151443  0.50436399  1
  Sc  Sc77  1  0.70215827  0.49567532  0.30211209  1
  Sc  Sc78  1  0.30253420  0.89444584  0.49968059  1
  Sc  Sc79  1  0.10545928  0.10559909  0.09389732  1
  Sc  Sc80  1  0.30682106  0.09787255  0.49881463  1
  Sc  Sc81  1  0.29734785  0.50424404  0.90812727  1
  Sc  Sc82  1  0.70156737  0.10735873  0.30339674  1
  Sc  Sc83  1  0.10602394  0.51080725  0.49962421  1
  Sc  Sc84  1  0.70104723  0.30147101  0.29205647  1
  Sc  Sc85  1  0.89739012  0.90939726  0.29069661  1
  Sc  Sc86  1  0.70311758  0.50392728  0.89818983  1
  Sc  Sc87  1  0.69006830  0.50202363  0.49877316  1
  Sc  Sc88  1  0.50186200  0.70923765  0.10949693  1
  Sc  Sc89  1  0.50158239  0.30496552  0.50149796  1
  Sc  Sc90  1  0.69707935  0.10517282  0.90815487  1
  Sc  Sc91  1  0.50295731  0.30594187  0.10402788  1
  Sc  Sc92  1  0.30716963  0.30320896  0.70395568  1
  Sc  Sc93  1  0.49545108  0.90013292  0.09576046  1
  Sc  Sc94  1  0.10625765  0.90050025  0.09342103  1
  Sc  Sc95  1  0.70013703  0.90220826  0.50115229  1
  Sc  Sc96  1  0.30550262  0.89214012  0.70188087  1
  Sc  Sc97  1  0.70137786  0.70211264  0.89685477  1
  Sc  Sc98  1  0.70741522  0.09648377  0.49102614  1
  Sc  Sc99  1  0.89877040  0.69438935  0.90484488  1
  Nb  Nb100  1  0.10028061  0.50335204  0.69729795  1
  Nb  Nb101  1  0.89868076  0.69673356  0.09714268  1
  Nb  Nb102  1  0.29388607  0.29534797  0.10437808  1
  Nb  Nb103  1  0.10052805  0.70358411  0.29671300  1
  Nb  Nb104  1  0.89995920  0.49732476  0.29616532  1
  Nb  Nb105  1  0.89034839  0.49997816  0.90450005  1
  Nb  Nb106  1  0.89230100  0.69828658  0.69978788  1
  Nb  Nb107  1  0.90747512  0.50314655  0.09979468  1
  Nb  Nb108  1  0.49886168  0.50080313  0.10045189  1
  Nb  Nb109  1  0.29924892  0.70027711  0.29331464  1
  Nb  Nb110  1  0.49651263  0.69980804  0.90233423  1
  Nb  Nb111  1  0.10656799  0.09680905  0.90314637  1
  Nb  Nb112  1  0.30107535  0.09488370  0.08758425  1
  Nb  Nb113  1  0.30237194  0.49746809  0.50314226  1
  Nb  Nb114  1  0.89416629  0.30320045  0.10105445  1
  Nb  Nb115  1  0.90229800  0.29991364  0.50189177  1
  Nb  Nb116  1  0.29834952  0.10055600  0.90817183  1
  Nb  Nb117  1  0.10956434  0.70302836  0.89847637  1
  Nb  Nb118  1  0.50021901  0.09594687  0.29801194  1
  Nb  Nb119  1  0.50097176  0.09718731  0.70070702  1
  Nb  Nb120  1  0.09777030  0.50019185  0.10442526  1
  Nb  Nb121  1  0.29975099  0.89701500  0.28747258  1
  Nb  Nb122  1  0.70697952  0.70019390  0.69534496  1
  Nb  Nb123  1  0.70275051  0.90434221  0.29839901  1
  Nb  Nb124  1  0.30073451  0.90292360  0.11060536  1
  Nb  Nb125  1  0.40388383  0.40406020  0.80563722  1
  Nb  Nb126  1  0.20505461  0.19036248  0.80301978  1
  Nb  Nb127  1  -0.00079584  0.79411194  0.19509005  1
  Nb  Nb128  1  0.20423739  0.00488805  0.80364273  1
  Nb  Nb129  1  0.20313012  0.79598636  0.38880713  1
  Nb  Nb130  1  0.59343920  0.60162411  0.00250973  1
  Nb  Nb131  1  0.19740697  0.40091998  0.59909073  1
  Nb  Nb132  1  -0.00156880  0.40631014  0.59897250  1
  Nb  Nb133  1  0.19831458  0.60028610  0.19908657  1
  Nb  Nb134  1  0.80674135  0.39918145  0.59868051  1
  Nb  Nb135  1  0.79954782  0.80330997  0.39588539  1
  Nb  Nb136  1  0.40282690  -0.00354264  0.38771671  1
  Nb  Nb137  1  0.39273468  0.59836721  0.20021475  1
  Nb  Nb138  1  0.20191600  0.00369463  0.60820562  1
  Nb  Nb139  1  0.59537648  0.00034256  0.79613836  1
  Nb  Nb140  1  0.80470208  0.20723078  0.59912877  1
  Nb  Nb141  1  0.81106091  0.59800296  0.19800284  1
  Nb  Nb142  1  -0.00599618  0.40086043  0.40156195  1
  Nb  Nb143  1  0.59530257  0.00398538  0.60545163  1
  Nb  Nb144  1  0.20248461  0.20034363  0.60314912  1
  Nb  Nb145  1  0.20019125  0.19821542  0.40165090  1
  Nb  Nb146  1  0.19311843  0.60125499  0.79890119  1
  Nb  Nb147  1  0.59685183  -0.00036320  0.20692397  1
  Nb  Nb148  1  0.00235168  0.00241703  0.39719568  1
  Nb  Nb149  1  0.80634283  0.40464373  0.00470047  1
  Pd  Pd150  1  -0.00947631  0.80391907  0.60377108  1
  Pd  Pd151  1  0.19392507  0.39520389  0.00464247  1
  Pd  Pd152  1  0.40174051  0.21122526  0.80921365  1
  Pd  Pd153  1  0.41055006  0.39834229  0.38753389  1
  Pd  Pd154  1  0.80023658  0.00582495  -0.00217362  1
  Pd  Pd155  1  0.00107064  0.00414892  0.00595883  1
  Pd  Pd156  1  0.00167727  -0.00330244  0.19447934  1
  Pd  Pd157  1  0.40255542  -0.00337168  0.59108310  1
  Pd  Pd158  1  -0.00341802  0.79865077  -0.00123625  1
  Pd  Pd159  1  0.79236677  0.00651142  0.80461625  1
  Pd  Pd160  1  0.60922608  0.79960677  0.40147385  1
  Pd  Pd161  1  0.00153231  0.60591789  0.19639837  1
  Pd  Pd162  1  0.20170855  0.80228483  0.59435990  1
  Pd  Pd163  1  0.79905823  0.19609603  0.79856348  1
  Pd  Pd164  1  0.39113649  0.80067068  0.39692906  1
  Pd  Pd165  1  0.40041585  -0.01134797  0.80744096  1
  Pd  Pd166  1  0.60510387  0.60212079  0.80519009  1
  Pd  Pd167  1  0.60897076  0.19926833  0.59233039  1
  Pd  Pd168  1  0.80969645  0.79269802  0.20823022  1
  Pd  Pd169  1  0.39574160  0.19939386  0.19302124  1
  Pd  Pd170  1  0.40073828  0.39323182  -0.00121870  1
  Pd  Pd171  1  0.40496960  0.40428482  0.20623961  1
  Pd  Pd172  1  0.59678415  0.59710952  0.60140371  1
  Pd  Pd173  1  -0.00301000  0.81437764  0.38913833  1
  Pd  Pd174  1  0.19316735  0.60407320  0.39263684  1
  Pd  Pd175  1  0.20867048  0.40540087  0.79553754  1
  Pd  Pd176  1  0.59526981  0.40392160  0.80487342  1
  Pd  Pd177  1  -0.00631654  0.20196609  0.19456863  1
  Pd  Pd178  1  0.20627894  -0.00142157  0.40675921  1
  Pd  Pd179  1  0.60200336  0.80251167  0.79444927  1
  Pd  Pd180  1  0.00393284  0.59834734  -0.00906597  1
  Pd  Pd181  1  0.59275616  0.19443358  0.80820975  1
  Pd  Pd182  1  0.39089780  0.19433446  0.39311960  1
  Pd  Pd183  1  0.40440179  0.60942913  0.01492986  1
  Pd  Pd184  1  0.60862771  0.40819603  -0.00199858  1
  Pd  Pd185  1  0.00519926  0.60254738  0.81354164  1
  Pd  Pd186  1  0.59893689  0.59984246  0.19461040  1
  Pd  Pd187  1  0.60128771  0.79317882  0.00511799  1
  Pd  Pd188  1  -0.00065029  0.40639379  0.80255614  1
  Pd  Pd189  1  0.20201259  0.80192191  0.80220428  1
  Pd  Pd190  1  0.59721029  -0.00212501  0.39857666  1
  Pd  Pd191  1  0.80222865  0.39469747  0.40192310  1
  Pd  Pd192  1  0.39865611  0.78874747  0.59653561  1
  Pd  Pd193  1  0.40079209  0.21148717  0.00581492  1
  Pd  Pd194  1  -0.00300894  0.39965169  0.00425852  1
  Pd  Pd195  1  0.40026265  0.20724696  0.59884806  1
  Pd  Pd196  1  0.18864347  0.39379158  0.40828503  1
  Pd  Pd197  1  0.59524981  0.39728635  0.39529007  1
  Pd  Pd198  1  0.80465452  0.79419591  0.80540786  1
  Pd  Pd199  1  0.78773131  0.60834290  0.39264775  1
  Rh  Rh200  1  0.00675001  -0.01137825  0.59876058  1
  Rh  Rh201  1  0.39902361  0.79876294  0.00638926  1
  Rh  Rh202  1  0.00169230  0.20088937  0.38408394  1
  Rh  Rh203  1  0.39769092  -0.00657014  0.00384654  1
  Rh  Rh204  1  0.20407371  0.19705621  0.19669798  1
  Rh  Rh205  1  0.80613750  0.40772087  0.19287048  1
  Rh  Rh206  1  0.80809159  -0.00348103  0.39309408  1
  Rh  Rh207  1  0.39382325  0.59599924  0.79781106  1
  Rh  Rh208  1  0.80263349  0.20750722  0.00110716  1
  Rh  Rh209  1  0.79834251  0.20759991  0.40323241  1
  Rh  Rh210  1  0.80628708  0.79855211  0.59422202  1
  Rh  Rh211  1  0.60294525  0.20091557  0.39824926  1
  Rh  Rh212  1  0.59866573  0.20033373  0.00243720  1
  Rh  Rh213  1  0.60008311  0.80296786  0.60612471  1
  Rh  Rh214  1  0.40623774  -0.00022871  0.19689304  1
  Rh  Rh215  1  0.20182680  0.59547443  0.60674711  1
  Rh  Rh216  1  -0.00254055  0.21095295  0.61617803  1
  Rh  Rh217  1  -0.00645015  0.79152665  0.80455357  1
  Rh  Rh218  1  0.00500174  0.19584457  0.80016334  1
  Rh  Rh219  1  -0.00392076  0.19552098  0.00838714  1
  Rh  Rh220  1  0.60139815  0.60126486  0.40122664  1
  Rh  Rh221  1  0.59455352  0.39737115  0.20507183  1
  Rh  Rh222  1  0.19810370  0.00607164  0.18407116  1
  Rh  Rh223  1  0.00734302  -0.00462620  0.80401097  1
  Rh  Rh224  1  0.19272416  0.59554486  -0.00211481  1
  Rh  Rh225  1  0.60798663  0.40078377  0.59916999  1
  Rh  Rh226  1  0.39855924  0.79788503  0.80404608  1
  Rh  Rh227  1  0.79774499  0.60798686  0.80167198  1
  Rh  Rh228  1  0.80379331  0.80157770  -0.00859644  1
  Rh  Rh229  1  0.79863779  0.40313767  0.80537104  1
  Rh  Rh230  1  0.19510038  0.79312436  0.19619078  1
  Rh  Rh231  1  0.79570365  0.19925394  0.19676553  1
  Rh  Rh232  1  0.20388076  -0.00572313  -0.00181829  1
  Rh  Rh233  1  0.39485887  0.79268678  0.19491487  1
  Rh  Rh234  1  0.78635135  0.00697054  0.19910671  1
  Rh  Rh235  1  0.60491554  0.81004151  0.19386815  1
  Rh  Rh236  1  0.40284338  0.59616542  0.39131444  1
  Rh  Rh237  1  0.00727886  0.59295721  0.40300718  1
  Rh  Rh238  1  0.80218387  0.59650955  0.60115878  1
  Rh  Rh239  1  -0.00772952  0.39446683  0.20291399  1
  Rh  Rh240  1  0.79104261  0.01195522  0.60227049  1
  Rh  Rh241  1  0.20306762  0.80745463  -0.00091339  1
  Rh  Rh242  1  0.79139104  0.58922502  0.00973713  1
  Rh  Rh243  1  0.39719818  0.39888984  0.60892394  1
  Rh  Rh244  1  0.20274559  0.20475957  0.00149885  1
  Rh  Rh245  1  0.19843841  0.40440279  0.19308112  1
  Rh  Rh246  1  0.59731099  -0.00064620  0.00031026  1
  Rh  Rh247  1  0.40606610  0.60036404  0.60307305  1
  Rh  Rh248  1  -0.00699521  0.59731864  0.59603954  1
  Rh  Rh249  1  0.60355245  0.19135276  0.19775964  1
