# generated using pymatgen
data_ZrScNbPdRh
_symmetry_space_group_name_H-M   'P 1'
_cell_length_a   16.55731313
_cell_length_b   16.55319734
_cell_length_c   16.55509297
_cell_angle_alpha   89.99904974
_cell_angle_beta   90.01239201
_cell_angle_gamma   89.98577856
_symmetry_Int_Tables_number   1
_chemical_formula_structural   ZrScNbPdRh
_chemical_formula_sum   'Zr50 Sc50 Nb50 Pd50 Rh50'
_cell_volume   4537.36122114
_cell_formula_units_Z   50
loop_
 _symmetry_equiv_pos_site_id
 _symmetry_equiv_pos_as_xyz
  1  'x, y, z'
loop_
 _atom_site_type_symbol
 _atom_site_label
 _atom_site_symmetry_multiplicity
 _atom_site_fract_x
 _atom_site_fract_y
 _atom_site_fract_z
 _atom_site_occupancy
  Zr  Zr0  1  0.49597221  0.69640253  0.50498990  1
  Zr  Zr1  1  0.68976803  0.10456156  0.30797315  1
  Zr  Zr2  1  0.89405867  0.69550400  0.50077154  1
  Zr  Zr3  1  0.90559787  0.48659944  0.49603007  1
  Zr  Zr4  1  0.49754522  0.90679249  0.30164013  1
  Zr  Zr5  1  0.69936966  0.90313708  0.68986214  1
  Zr  Zr6  1  0.49868635  0.29756258  0.49962111  1
  Zr  Zr7  1  0.90908219  0.10744900  0.50186291  1
  Zr  Zr8  1  0.10175930  0.90101916  0.89302717  1
  Zr  Zr9  1  0.30197421  0.90117102  0.50137081  1
  Zr  Zr10  1  0.30169818  0.50635626  0.10238814  1
  Zr  Zr11  1  0.90393830  0.69466898  0.89368061  1
  Zr  Zr12  1  0.09320874  0.90464859  0.29465101  1
  Zr  Zr13  1  0.69825218  0.68804067  0.90115158  1
  Zr  Zr14  1  0.29804945  0.09979294  0.10139962  1
  Zr  Zr15  1  0.08979866  0.69917372  0.29955607  1
  Zr  Zr16  1  0.90300110  0.91019876  0.10133014  1
  Zr  Zr17  1  0.70414834  0.29829282  0.89656774  1
  Zr  Zr18  1  0.08884088  0.49839310  0.30223783  1
  Zr  Zr19  1  0.29868230  0.49094695  0.30230398  1
  Zr  Zr20  1  0.09764563  0.48682743  0.70164241  1
  Zr  Zr21  1  0.70106657  0.10176167  0.70111231  1
  Zr  Zr22  1  0.69245846  0.30224195  0.29777437  1
  Zr  Zr23  1  0.50272293  0.69786286  0.70224001  1
  Zr  Zr24  1  0.69944959  0.50664873  0.49433297  1
  Zr  Zr25  1  0.49676329  0.70114773  0.10381504  1
  Zr  Zr26  1  0.70274859  0.69033079  0.30573820  1
  Zr  Zr27  1  0.89594135  0.09919845  0.89445438  1
  Zr  Zr28  1  0.70008690  0.49606277  0.10387976  1
  Zr  Zr29  1  0.89639975  0.89171286  0.29877925  1
  Zr  Zr30  1  0.89664318  0.69845365  0.10935737  1
  Zr  Zr31  1  0.49977587  0.90435118  0.90576668  1
  Zr  Zr32  1  0.30429852  0.70282244  0.09116528  1
  Zr  Zr33  1  0.30666226  0.90688766  0.29251614  1
  Zr  Zr34  1  0.09103629  0.30453943  0.50665521  1
  Zr  Zr35  1  0.69726815  0.90123570  0.10065206  1
  Zr  Zr36  1  0.49786890  0.50214532  0.09731863  1
  Zr  Zr37  1  0.50614042  0.89930256  0.69919471  1
  Zr  Zr38  1  0.90388643  0.90962962  0.90053450  1
  Zr  Zr39  1  0.30847436  0.50218180  0.89556216  1
  Zr  Zr40  1  0.90651006  0.70670090  0.70024006  1
  Zr  Zr41  1  0.09569083  0.09756877  0.69025742  1
  Zr  Zr42  1  0.70780488  0.49515226  0.90299228  1
  Zr  Zr43  1  0.30247983  0.10041548  0.89736155  1
  Zr  Zr44  1  0.29647491  0.29405244  0.29554124  1
  Zr  Zr45  1  0.29748412  0.90089821  0.90882702  1
  Zr  Zr46  1  0.69488943  0.49275846  0.70356382  1
  Zr  Zr47  1  0.09918317  0.70644217  0.50355021  1
  Zr  Zr48  1  0.49561439  0.89706698  0.10181571  1
  Zr  Zr49  1  0.10148688  0.69337965  0.10117839  1
  Sc  Sc50  1  0.69570014  0.69667790  0.10878074  1
  Sc  Sc51  1  0.10488127  0.29434021  0.70868490  1
  Sc  Sc52  1  0.29478204  0.90673237  0.70229691  1
  Sc  Sc53  1  0.49555435  0.48706894  0.50551769  1
  Sc  Sc54  1  0.49723023  0.30062943  0.89145813  1
  Sc  Sc55  1  0.51100774  0.49749890  0.30367440  1
  Sc  Sc56  1  0.08897631  0.09966879  0.10626637  1
  Sc  Sc57  1  0.10144679  0.49941376  0.11256052  1
  Sc  Sc58  1  0.30698974  0.70476439  0.50687263  1
  Sc  Sc59  1  0.50684006  0.50169997  0.89416168  1
  Sc  Sc60  1  0.70597352  0.70109914  0.49585216  1
  Sc  Sc61  1  0.69642996  0.30398180  0.50386108  1
  Sc  Sc62  1  0.89306026  0.89095424  0.50706057  1
  Sc  Sc63  1  0.30674862  0.29529046  0.89236560  1
  Sc  Sc64  1  0.70319415  0.30392603  0.09404362  1
  Sc  Sc65  1  0.89956803  0.30437845  0.70348190  1
  Sc  Sc66  1  0.50498786  0.30361646  0.69951006  1
  Sc  Sc67  1  0.91095184  0.10747043  0.30119405  1
  Sc  Sc68  1  0.30483463  0.10175090  0.29543500  1
  Sc  Sc69  1  0.89662283  0.49857062  0.70617076  1
  Sc  Sc70  1  0.51159680  0.10501344  0.70267745  1
  Sc  Sc71  1  0.69675882  0.29992204  0.70304090  1
  Sc  Sc72  1  0.90190102  0.30041638  0.10369465  1
  Sc  Sc73  1  0.08946027  0.10315726  0.89011324  1
  Sc  Sc74  1  0.49203271  0.49584237  0.70322639  1
  Sc  Sc75  1  0.10559612  0.10661291  0.29790296  1
  Sc  Sc76  1  0.30443200  0.29983225  0.70415159  1
  Sc  Sc77  1  0.50456873  0.29721510  0.09670114  1
  Sc  Sc78  1  0.90064624  0.10232679  0.09218076  1
  Sc  Sc79  1  0.31295096  0.69856772  0.69467242  1
  Sc  Sc80  1  0.89520161  0.29195095  0.89995871  1
  Sc  Sc81  1  0.49980907  0.10430965  0.09969808  1
  Sc  Sc82  1  0.09730850  0.30206556  0.28601009  1
  Sc  Sc83  1  0.89131770  0.49321749  0.10536033  1
  Sc  Sc84  1  0.50353272  0.89822971  0.49711111  1
  Sc  Sc85  1  0.69427925  0.91301960  0.90707839  1
  Sc  Sc86  1  0.89879752  0.90593681  0.70047030  1
  Sc  Sc87  1  0.50540440  0.69528704  0.90249825  1
  Sc  Sc88  1  0.89619647  0.69543857  0.30211354  1
  Sc  Sc89  1  0.69559403  0.10709319  0.09166790  1
  Sc  Sc90  1  0.30854780  0.69794047  0.28819325  1
  Sc  Sc91  1  0.50362988  0.70360533  0.29823291  1
  Sc  Sc92  1  0.69933789  0.70145970  0.69899182  1
  Sc  Sc93  1  0.69620499  0.88681694  0.30395129  1
  Sc  Sc94  1  0.69048803  0.09962868  0.50519992  1
  Sc  Sc95  1  0.50253517  0.10376705  0.89841239  1
  Sc  Sc96  1  0.30225320  0.30972096  0.49229209  1
  Sc  Sc97  1  0.10260372  0.70330967  0.89017871  1
  Sc  Sc98  1  0.28193584  0.09878999  0.49594983  1
  Sc  Sc99  1  0.29367186  0.10707352  0.70504608  1
  Nb  Nb100  1  0.89812999  0.29691460  0.49442503  1
  Nb  Nb101  1  0.90127836  0.10296033  0.70524569  1
  Nb  Nb102  1  0.89607643  0.49058778  0.29728877  1
  Nb  Nb103  1  0.70726069  0.10827967  0.90248414  1
  Nb  Nb104  1  0.10149090  0.30107625  0.09880776  1
  Nb  Nb105  1  0.50564118  0.10006995  0.49549763  1
  Nb  Nb106  1  0.09751279  0.69733517  0.70070417  1
  Nb  Nb107  1  0.50430340  0.10590929  0.30457520  1
  Nb  Nb108  1  0.49572656  0.28969695  0.30318617  1
  Nb  Nb109  1  0.11136165  0.90879268  0.50639073  1
  Nb  Nb110  1  0.10016139  0.90285141  0.09482093  1
  Nb  Nb111  1  0.90308570  0.50062856  0.90089278  1
  Nb  Nb112  1  0.10255070  0.49785567  0.50258205  1
  Nb  Nb113  1  0.29944053  0.49765482  0.50069556  1
  Nb  Nb114  1  0.09974466  0.49774422  0.89534947  1
  Nb  Nb115  1  0.29726240  0.90139655  0.09823581  1
  Nb  Nb116  1  0.29296827  0.30327160  0.10246586  1
  Nb  Nb117  1  0.30461648  0.50237772  0.69465295  1
  Nb  Nb118  1  0.70379072  0.90387212  0.49845713  1
  Nb  Nb119  1  0.30145276  0.70248327  0.89564993  1
  Nb  Nb120  1  0.89809575  0.30396713  0.30487507  1
  Nb  Nb121  1  0.10291551  0.30171366  0.90028217  1
  Nb  Nb122  1  0.09960717  0.89166728  0.69544322  1
  Nb  Nb123  1  0.70524515  0.50058880  0.29848394  1
  Nb  Nb124  1  0.09772556  0.09660868  0.50309026  1
  Nb  Nb125  1  0.40045973  0.39253543  0.20120377  1
  Nb  Nb126  1  0.80282902  0.00106728  0.39949351  1
  Nb  Nb127  1  0.19973621  0.80690801  0.19461878  1
  Nb  Nb128  1  0.20215688  0.59759113  0.79215414  1
  Nb  Nb129  1  0.19595606  0.20756409  0.00135165  1
  Nb  Nb130  1  0.79814630  0.80319701  0.80789740  1
  Nb  Nb131  1  0.20108406  0.60015913  0.40646357  1
  Nb  Nb132  1  0.19919837  0.80159803  0.39378214  1
  Nb  Nb133  1  0.80742476  0.19943888  0.59904899  1
  Nb  Nb134  1  0.59857129  0.59582647  0.59895263  1
  Nb  Nb135  1  0.19748016  0.39854585  -0.00204356  1
  Nb  Nb136  1  0.00340685  -0.00097947  0.40947181  1
  Nb  Nb137  1  0.79396118  0.00722857  0.20761136  1
  Nb  Nb138  1  0.19861627  0.59389751  0.60015604  1
  Nb  Nb139  1  0.39458260  0.59277498  0.40357688  1
  Nb  Nb140  1  0.00683756  0.59550951  0.60084177  1
  Nb  Nb141  1  0.40345209  0.19259953  0.59337691  1
  Nb  Nb142  1  0.40352884  0.01026679  0.59716044  1
  Nb  Nb143  1  0.80447890  0.79888463  -0.00289796  1
  Nb  Nb144  1  -0.00089794  0.79778060  0.00070407  1
  Nb  Nb145  1  0.00060787  0.59436213  -0.00432580  1
  Nb  Nb146  1  0.40035617  0.80268617  0.80666602  1
  Nb  Nb147  1  0.59912481  0.00337314  0.20583868  1
  Nb  Nb148  1  0.79807291  0.19973626  0.20753090  1
  Nb  Nb149  1  0.00638081  0.40300435  -0.00488373  1
  Pd  Pd150  1  0.19399609  0.59505111  -0.01121957  1
  Pd  Pd151  1  0.79218261  -0.00397495  0.80049538  1
  Pd  Pd152  1  0.20734039  0.79515835  0.60363719  1
  Pd  Pd153  1  0.18935304  0.39659195  0.39689620  1
  Pd  Pd154  1  0.80065847  0.59749984  0.60619116  1
  Pd  Pd155  1  0.19654152  -0.00239346  0.39244444  1
  Pd  Pd156  1  0.01210766  0.20334832  0.39485971  1
  Pd  Pd157  1  0.79878587  0.60279905  0.79123256  1
  Pd  Pd158  1  0.60291497  0.80145560  0.80963773  1
  Pd  Pd159  1  -0.00763193  0.39149109  0.80628720  1
  Pd  Pd160  1  0.20712217  0.39461155  0.60374461  1
  Pd  Pd161  1  0.21090810  0.40141412  0.80330462  1
  Pd  Pd162  1  0.39651778  0.39374391  0.00262257  1
  Pd  Pd163  1  0.19732709  0.00115317  0.19789446  1
  Pd  Pd164  1  0.40262174  -0.00039289  0.79129830  1
  Pd  Pd165  1  0.59876858  0.39830003  0.40100096  1
  Pd  Pd166  1  0.19238359  0.79618670  0.00196017  1
  Pd  Pd167  1  0.59802598  0.39939626  -0.00617030  1
  Pd  Pd168  1  0.79369260  0.19625222  0.40443882  1
  Pd  Pd169  1  0.60513731  0.00510836  0.80433992  1
  Pd  Pd170  1  0.60635608  0.79415839  -0.00053458  1
  Pd  Pd171  1  -0.00466013  -0.00871361  0.59892265  1
  Pd  Pd172  1  0.39506879  0.20462364  -0.00041570  1
  Pd  Pd173  1  -0.00236977  0.59644597  0.40655769  1
  Pd  Pd174  1  0.39132433  0.19174576  0.40801752  1
  Pd  Pd175  1  0.59849897  0.20342504  -0.00613991  1
  Pd  Pd176  1  0.19356914  0.00484507  0.79542914  1
  Pd  Pd177  1  0.80467631  0.00939129  0.59242492  1
  Pd  Pd178  1  0.20936245  0.79316481  0.78890461  1
  Pd  Pd179  1  0.20069226  0.60550810  0.21097534  1
  Pd  Pd180  1  0.20737939  0.20775397  0.59622003  1
  Pd  Pd181  1  0.39480041  0.79143777  0.39453676  1
  Pd  Pd182  1  0.80395958  0.60086333  0.00777301  1
  Pd  Pd183  1  0.40365593  0.20296636  0.19484002  1
  Pd  Pd184  1  0.79330377  0.40002544  0.39945274  1
  Pd  Pd185  1  0.00400909  0.80055452  0.19132638  1
  Pd  Pd186  1  0.00261744  0.80986748  0.41090991  1
  Pd  Pd187  1  0.59710441  0.59922996  0.20206977  1
  Pd  Pd188  1  0.80160661  0.39249348  0.60084028  1
  Pd  Pd189  1  0.60612544  0.79417815  0.59030646  1
  Pd  Pd190  1  0.40371638  0.00490041  0.00532001  1
  Pd  Pd191  1  0.39772791  0.01096051  0.40760254  1
  Pd  Pd192  1  0.59253648  0.39473797  0.19880199  1
  Pd  Pd193  1  0.40551603  0.60320561  -0.00768488  1
  Pd  Pd194  1  -0.00094130  0.80364703  0.59692056  1
  Pd  Pd195  1  -0.00453791  0.21014933  0.60974085  1
  Pd  Pd196  1  0.19148025  0.20881943  0.40283082  1
  Pd  Pd197  1  0.00144755  0.20514402  -0.00176837  1
  Pd  Pd198  1  0.18994168  0.01528400  -0.00187712  1
  Pd  Pd199  1  0.59998910  0.79646991  0.40446995  1
  Rh  Rh200  1  0.40905577  0.00674927  0.19529285  1
  Rh  Rh201  1  0.00654167  -0.00326363  0.78758299  1
  Rh  Rh202  1  0.80053734  0.59475452  0.20596819  1
  Rh  Rh203  1  0.59866599  0.80310564  0.20375664  1
  Rh  Rh204  1  0.80913239  0.59142533  0.39583729  1
  Rh  Rh205  1  0.20390092  0.40349420  0.19675069  1
  Rh  Rh206  1  -0.01083398  0.58916028  0.19565620  1
  Rh  Rh207  1  -0.00420461  0.80960191  0.80180921  1
  Rh  Rh208  1  0.40714459  0.40221642  0.38891332  1
  Rh  Rh209  1  0.60058930  0.40519899  0.60187274  1
  Rh  Rh210  1  0.00767593  -0.00074684  -0.00381305  1
  Rh  Rh211  1  0.79924585  0.80269471  0.40258683  1
  Rh  Rh212  1  0.79521955  0.79838969  0.60786827  1
  Rh  Rh213  1  0.79579471  0.00283718  0.00726554  1
  Rh  Rh214  1  0.80208367  0.39832571  0.80466174  1
  Rh  Rh215  1  0.39805480  0.81761457  0.61164315  1
  Rh  Rh216  1  0.20395307  0.00266220  0.60636157  1
  Rh  Rh217  1  0.00843853  0.59414635  0.79574919  1
  Rh  Rh218  1  0.79921097  0.39114714  0.20563186  1
  Rh  Rh219  1  0.19639756  0.19441508  0.19156871  1
  Rh  Rh220  1  0.60043516  0.59547753  0.79181017  1
  Rh  Rh221  1  0.80957540  0.39658993  -0.00379557  1
  Rh  Rh222  1  0.80048951  0.20015872  0.79074499  1
  Rh  Rh223  1  -0.00567260  0.39869614  0.19621970  1
  Rh  Rh224  1  -0.00666476  0.00575497  0.20661984  1
  Rh  Rh225  1  0.39522946  0.80325185  0.19726937  1
  Rh  Rh226  1  0.40814335  0.58662405  0.21171684  1
  Rh  Rh227  1  0.60167047  0.20864835  0.40751134  1
  Rh  Rh228  1  0.60099459  0.59609541  0.00649626  1
  Rh  Rh229  1  0.60087898  0.20322562  0.59956927  1
  Rh  Rh230  1  0.80247178  0.20141688  0.00737612  1
  Rh  Rh231  1  0.00383508  0.39222389  0.39639442  1
  Rh  Rh232  1  0.39961722  0.40016109  0.79740756  1
  Rh  Rh233  1  0.79332123  0.80307569  0.19479878  1
  Rh  Rh234  1  0.60512842  -0.00665863  0.39778476  1
  Rh  Rh235  1  0.59323004  -0.00071508  0.59437587  1
  Rh  Rh236  1  0.19843710  0.19609626  0.80755341  1
  Rh  Rh237  1  0.39484095  0.38970837  0.60374638  1
  Rh  Rh238  1  0.59749122  0.01036939  0.00388520  1
  Rh  Rh239  1  -0.00602747  0.39819255  0.60313685  1
  Rh  Rh240  1  -0.00084248  0.20297446  0.79683837  1
  Rh  Rh241  1  0.40655481  0.19695368  0.78827279  1
  Rh  Rh242  1  0.60353499  0.20128216  0.80451618  1
  Rh  Rh243  1  -0.00666466  0.20444129  0.20046008  1
  Rh  Rh244  1  0.60279044  0.19845402  0.19784841  1
  Rh  Rh245  1  0.59973421  0.39913621  0.80362325  1
  Rh  Rh246  1  0.40331053  0.58979461  0.59330087  1
  Rh  Rh247  1  0.39795932  0.60759454  0.80259302  1
  Rh  Rh248  1  0.59052880  0.59877277  0.40905458  1
  Rh  Rh249  1  0.40059657  0.79873902  -0.00635548  1
