# generated using pymatgen
data_ZrScNbPdRh
_symmetry_space_group_name_H-M   'P 1'
_cell_length_a   16.55771460
_cell_length_b   16.55960867
_cell_length_c   16.56127700
_cell_angle_alpha   90.02323515
_cell_angle_beta   90.01586803
_cell_angle_gamma   90.01135767
_symmetry_Int_Tables_number   1
_chemical_formula_structural   ZrScNbPdRh
_chemical_formula_sum   'Zr50 Sc50 Nb50 Pd50 Rh50'
_cell_volume   4540.92388600
_cell_formula_units_Z   50
loop_
 _symmetry_equiv_pos_site_id
 _symmetry_equiv_pos_as_xyz
  1  'x, y, z'
loop_
 _atom_site_type_symbol
 _atom_site_label
 _atom_site_symmetry_multiplicity
 _atom_site_fract_x
 _atom_site_fract_y
 _atom_site_fract_z
 _atom_site_occupancy
  Zr  Zr0  1  0.50937649  0.89889050  0.10058755  1
  Zr  Zr1  1  0.70793525  0.49291014  0.29756486  1
  Zr  Zr2  1  0.90547143  0.69883020  0.69924109  1
  Zr  Zr3  1  0.69625374  0.30296626  0.29863925  1
  Zr  Zr4  1  0.89560622  0.30886426  0.29629862  1
  Zr  Zr5  1  0.09468586  0.90472485  0.70685370  1
  Zr  Zr6  1  0.29111366  0.49845780  0.70754975  1
  Zr  Zr7  1  0.09991937  0.69981151  0.69032677  1
  Zr  Zr8  1  0.71242570  0.30088650  0.89450179  1
  Zr  Zr9  1  0.50057908  0.09699378  0.09747234  1
  Zr  Zr10  1  0.90608630  0.50850555  0.70155471  1
  Zr  Zr11  1  0.10376627  0.49546903  0.49670816  1
  Zr  Zr12  1  0.49558833  0.69386997  0.30583891  1
  Zr  Zr13  1  0.91414559  0.09577770  0.69975406  1
  Zr  Zr14  1  0.09323009  0.29753819  0.10242277  1
  Zr  Zr15  1  0.50396390  0.50906451  0.50455433  1
  Zr  Zr16  1  0.49561004  0.50026655  0.30175275  1
  Zr  Zr17  1  0.49833709  0.10492927  0.50290374  1
  Zr  Zr18  1  0.50096568  0.89487182  0.90047378  1
  Zr  Zr19  1  0.70248030  0.09980580  0.30265031  1
  Zr  Zr20  1  0.90440621  0.49742161  0.89711792  1
  Zr  Zr21  1  0.89997423  0.29966203  0.70831242  1
  Zr  Zr22  1  0.90562720  0.10208787  0.09716498  1
  Zr  Zr23  1  0.10348230  0.50334850  0.09558252  1
  Zr  Zr24  1  0.09656679  0.49999561  0.29965133  1
  Zr  Zr25  1  0.28821262  0.70847127  0.50089393  1
  Zr  Zr26  1  0.69783943  0.30145680  0.69766702  1
  Zr  Zr27  1  0.50013491  0.50310503  0.69998258  1
  Zr  Zr28  1  0.90099754  0.10777451  0.89684251  1
  Zr  Zr29  1  0.29307343  0.90008781  0.89733801  1
  Zr  Zr30  1  0.70440193  0.89876224  0.29599633  1
  Zr  Zr31  1  0.70956955  0.09918632  0.90074427  1
  Zr  Zr32  1  0.49849036  0.30049241  0.50023693  1
  Zr  Zr33  1  0.70258555  0.09409897  0.09994228  1
  Zr  Zr34  1  0.49650119  0.09659948  0.90188018  1
  Zr  Zr35  1  0.30329985  0.69261393  0.10241723  1
  Zr  Zr36  1  0.09796998  0.10182167  0.29144568  1
  Zr  Zr37  1  0.28969785  0.90655252  0.10031470  1
  Zr  Zr38  1  0.89578310  0.30360278  0.50501248  1
  Zr  Zr39  1  0.30279693  0.49825091  0.30177876  1
  Zr  Zr40  1  0.10196517  0.09626415  0.10416168  1
  Zr  Zr41  1  0.09322238  0.69584866  0.29904923  1
  Zr  Zr42  1  0.91093572  0.30182202  0.90365928  1
  Zr  Zr43  1  0.69954098  0.29372143  0.50459033  1
  Zr  Zr44  1  0.29450164  0.10127718  0.30253813  1
  Zr  Zr45  1  0.09747468  0.89634280  0.09919355  1
  Zr  Zr46  1  0.70225599  0.50520938  0.90570865  1
  Zr  Zr47  1  0.70404550  0.90037168  0.49593398  1
  Zr  Zr48  1  0.49224555  0.11345151  0.30477040  1
  Zr  Zr49  1  0.90138316  0.88916419  0.89779708  1
  Sc  Sc50  1  0.90134797  0.49945227  0.30484852  1
  Sc  Sc51  1  0.29649407  0.69906624  0.70522273  1
  Sc  Sc52  1  0.69795592  0.31187107  0.10351374  1
  Sc  Sc53  1  0.09303415  0.90328785  0.30055488  1
  Sc  Sc54  1  0.69484663  0.49823466  0.70366932  1
  Sc  Sc55  1  0.90852021  0.70456417  0.09025169  1
  Sc  Sc56  1  0.10943851  0.89389144  0.50072160  1
  Sc  Sc57  1  0.90083376  0.89365842  0.29564963  1
  Sc  Sc58  1  0.29282547  0.09832345  0.70310347  1
  Sc  Sc59  1  0.29499351  0.89992885  0.69839340  1
  Sc  Sc60  1  0.69812436  0.49363475  0.09172676  1
  Sc  Sc61  1  0.30574809  0.50356422  0.09073426  1
  Sc  Sc62  1  0.09228993  0.30580016  0.29557471  1
  Sc  Sc63  1  0.70652815  0.50061313  0.50177161  1
  Sc  Sc64  1  0.90760274  0.30442622  0.09711324  1
  Sc  Sc65  1  0.48815263  0.91258709  0.50160150  1
  Sc  Sc66  1  0.10378245  0.70408556  0.90534381  1
  Sc  Sc67  1  0.89261209  0.69569438  0.90013270  1
  Sc  Sc68  1  0.70502767  0.89010659  0.09576494  1
  Sc  Sc69  1  0.50116451  0.50036024  0.09143616  1
  Sc  Sc70  1  0.10166149  0.09266816  0.50721173  1
  Sc  Sc71  1  0.49418584  0.09470986  0.69559157  1
  Sc  Sc72  1  0.69934801  0.70372328  0.90655855  1
  Sc  Sc73  1  0.50114344  0.70023975  0.89833124  1
  Sc  Sc74  1  0.70834639  0.69274159  0.49407726  1
  Sc  Sc75  1  0.69797226  0.70078471  0.71793571  1
  Sc  Sc76  1  0.10699462  0.49570515  0.89465156  1
  Sc  Sc77  1  0.90144719  0.08844844  0.30254308  1
  Sc  Sc78  1  0.70834968  0.70640097  0.30270191  1
  Sc  Sc79  1  0.11151516  0.29762537  0.70176479  1
  Sc  Sc80  1  0.50483649  0.69648188  0.09427612  1
  Sc  Sc81  1  0.30339705  0.69576893  0.89372647  1
  Sc  Sc82  1  0.90575530  0.89627599  0.48631267  1
  Sc  Sc83  1  0.49548157  0.69688586  0.70717057  1
  Sc  Sc84  1  0.30025068  0.10292728  0.89838664  1
  Sc  Sc85  1  0.29038619  0.31411289  0.50117002  1
  Sc  Sc86  1  0.49786453  0.30271656  0.10784140  1
  Sc  Sc87  1  0.69596681  0.10429367  0.68788325  1
  Sc  Sc88  1  0.29968732  0.08978872  0.49772172  1
  Sc  Sc89  1  0.48926235  0.30176783  0.89958064  1
  Sc  Sc90  1  0.10498021  0.09726188  0.69926967  1
  Sc  Sc91  1  0.90287840  0.70080161  0.30821392  1
  Sc  Sc92  1  0.89973847  0.49791981  0.09174811  1
  Sc  Sc93  1  0.29709821  0.50180343  0.50383654  1
  Sc  Sc94  1  0.29271092  0.10045439  0.10421622  1
  Sc  Sc95  1  0.50541682  0.30793216  0.69711369  1
  Sc  Sc96  1  0.10166699  0.10173022  0.89029415  1
  Sc  Sc97  1  0.49402111  0.89835365  0.70217009  1
  Sc  Sc98  1  0.30349067  0.69202238  0.30697356  1
  Sc  Sc99  1  0.29691636  0.30769522  0.89310501  1
  Nb  Nb100  1  0.90621987  0.89646974  0.09475768  1
  Nb  Nb101  1  0.29780180  0.29755878  0.69806606  1
  Nb  Nb102  1  0.10259577  0.90402380  0.90493139  1
  Nb  Nb103  1  0.89529842  0.10091846  0.50016508  1
  Nb  Nb104  1  0.10010511  0.30357746  0.49824165  1
  Nb  Nb105  1  0.30196969  0.90242317  0.31087251  1
  Nb  Nb106  1  0.70001669  0.69286901  0.09659166  1
  Nb  Nb107  1  0.70071502  0.89569332  0.69829476  1
  Nb  Nb108  1  0.29191826  0.30187649  0.10198568  1
  Nb  Nb109  1  0.10254204  0.30460219  0.90622978  1
  Nb  Nb110  1  0.70244316  0.09787596  0.49744962  1
  Nb  Nb111  1  0.49922354  0.69926213  0.50171967  1
  Nb  Nb112  1  0.89812583  0.50956345  0.50408505  1
  Nb  Nb113  1  0.50030412  0.90049021  0.30147351  1
  Nb  Nb114  1  0.09115251  0.69995558  0.49831414  1
  Nb  Nb115  1  0.90433393  0.69316710  0.50238420  1
  Nb  Nb116  1  0.70081097  0.89012716  0.89005194  1
  Nb  Nb117  1  0.49263101  0.30153782  0.30370841  1
  Nb  Nb118  1  0.30335393  0.50043765  0.89926470  1
  Nb  Nb119  1  0.29687824  0.90310168  0.49619512  1
  Nb  Nb120  1  0.10230155  0.70177729  0.10700086  1
  Nb  Nb121  1  0.09592840  0.50006020  0.70167504  1
  Nb  Nb122  1  0.48889853  0.50416722  0.90144272  1
  Nb  Nb123  1  0.89903300  0.89658490  0.70220135  1
  Nb  Nb124  1  0.30794648  0.29807658  0.29811871  1
  Nb  Nb125  1  0.40137573  -0.00594923  0.20695897  1
  Nb  Nb126  1  0.60866003  -0.00262945  0.80018950  1
  Nb  Nb127  1  -0.00057561  0.20123767  0.40736144  1
  Nb  Nb128  1  0.39214584  0.20676794  0.60073987  1
  Nb  Nb129  1  0.79692207  0.60177490  0.19340436  1
  Nb  Nb130  1  0.60148973  0.19914672  -0.00437644  1
  Nb  Nb131  1  0.59234529  0.80395845  0.40449391  1
  Nb  Nb132  1  0.60759339  0.59891029  0.20037298  1
  Nb  Nb133  1  0.19641622  0.20820032  0.00178486  1
  Nb  Nb134  1  0.39630676  0.80453164  0.00589524  1
  Nb  Nb135  1  0.00205449  0.40343288  0.60115540  1
  Nb  Nb136  1  0.59996460  0.19497619  0.80527170  1
  Nb  Nb137  1  0.39758296  0.80621410  0.20283159  1
  Nb  Nb138  1  0.20498960  0.39854463  0.19790415  1
  Nb  Nb139  1  0.59578699  0.39666964  0.39855273  1
  Nb  Nb140  1  0.80200273  0.80227431  0.60376675  1
  Nb  Nb141  1  0.59918697  0.00103675  0.39813455  1
  Nb  Nb142  1  0.80487373  -0.00332233  0.59911364  1
  Nb  Nb143  1  0.20261414  0.79682624  0.20277300  1
  Nb  Nb144  1  0.19322781  0.20709644  0.39923415  1
  Nb  Nb145  1  0.39916644  0.79901298  0.59239153  1
  Nb  Nb146  1  0.79927617  0.19991224  0.20073736  1
  Nb  Nb147  1  0.00102213  -0.00511549  -0.00441877  1
  Nb  Nb148  1  0.79938561  -0.00756226  0.79227007  1
  Nb  Nb149  1  0.59806780  0.79868350  0.59495188  1
  Pd  Pd150  1  0.60139336  0.20105717  0.40162020  1
  Pd  Pd151  1  0.19502982  0.79755536  0.79640851  1
  Pd  Pd152  1  0.39915371  -0.00284320  0.79615736  1
  Pd  Pd153  1  0.80157774  0.40858136  0.79681108  1
  Pd  Pd154  1  0.61038933  -0.00349238  -0.00788918  1
  Pd  Pd155  1  0.79043905  0.60861931  0.61157152  1
  Pd  Pd156  1  0.40326761  0.80024842  0.40400945  1
  Pd  Pd157  1  -0.00619443  0.40002452  0.40728963  1
  Pd  Pd158  1  0.00641458  0.79245599  0.80532939  1
  Pd  Pd159  1  0.19887658  0.60082731  0.40127294  1
  Pd  Pd160  1  0.39237266  -0.00343145  0.00579709  1
  Pd  Pd161  1  0.59746708  0.59773668  0.80924139  1
  Pd  Pd162  1  0.80364201  0.40710800  0.60559784  1
  Pd  Pd163  1  0.60418331  0.20250279  0.19211034  1
  Pd  Pd164  1  -0.00229829  -0.00982580  0.59119232  1
  Pd  Pd165  1  0.39434060  0.20608278  0.00626884  1
  Pd  Pd166  1  0.20546912  0.79120705  0.00495464  1
  Pd  Pd167  1  0.00566419  0.20593057  0.59699743  1
  Pd  Pd168  1  0.59531667  0.39648828  0.80998907  1
  Pd  Pd169  1  -0.00388311  0.80705662  0.59324456  1
  Pd  Pd170  1  0.20582743  0.19728216  0.59019542  1
  Pd  Pd171  1  0.19135928  0.80010242  0.39019493  1
  Pd  Pd172  1  0.60290670  -0.00556491  0.59945316  1
  Pd  Pd173  1  0.39657826  0.39973840  0.60484249  1
  Pd  Pd174  1  0.61014802  0.59955870  0.39361901  1
  Pd  Pd175  1  0.60968496  0.61020525  0.60514288  1
  Pd  Pd176  1  0.59419998  0.39201620  -0.01009771  1
  Pd  Pd177  1  0.80773635  0.20065339  0.39326092  1
  Pd  Pd178  1  0.80472616  0.19253000  0.60665044  1
  Pd  Pd179  1  0.80641142  -0.01204661  -0.00671728  1
  Pd  Pd180  1  0.40370246  0.20227974  0.78902704  1
  Pd  Pd181  1  0.00452280  0.60071174  -0.00568138  1
  Pd  Pd182  1  0.40073845  0.40324241  0.40795302  1
  Pd  Pd183  1  0.20131831  0.60164339  -0.00788455  1
  Pd  Pd184  1  0.39616055  0.19476522  0.19123935  1
  Pd  Pd185  1  0.00582086  0.00383663  0.40469901  1
  Pd  Pd186  1  0.01330013  0.20650735  0.79809458  1
  Pd  Pd187  1  0.81127557  0.79058586  0.19152561  1
  Pd  Pd188  1  0.39776973  0.40595959  0.19150451  1
  Pd  Pd189  1  0.19803233  0.59849471  0.60026164  1
  Pd  Pd190  1  0.39087735  0.60828605  0.60157093  1
  Pd  Pd191  1  -0.01348658  0.59852875  0.19519743  1
  Pd  Pd192  1  0.20318052  0.59693012  0.20191580  1
  Pd  Pd193  1  0.40044112  0.40208105  0.79358613  1
  Pd  Pd194  1  0.59593800  0.78787537  0.20597485  1
  Pd  Pd195  1  0.39704397  0.39510689  0.00357056  1
  Pd  Pd196  1  0.00808609  0.60778384  0.80955293  1
  Pd  Pd197  1  0.79578761  0.21203811  0.01350663  1
  Pd  Pd198  1  0.59500914  0.00465123  0.20883736  1
  Pd  Pd199  1  0.80726890  -0.00059322  0.19655729  1
  Rh  Rh200  1  0.40440888  0.00330799  0.39503924  1
  Rh  Rh201  1  0.00401654  0.41134524  0.19407615  1
  Rh  Rh202  1  0.79477630  0.18993268  0.78704590  1
  Rh  Rh203  1  0.80657977  0.59779525  0.39297618  1
  Rh  Rh204  1  0.19260997  0.01529363  -0.00980136  1
  Rh  Rh205  1  0.59265208  0.80390423  0.79412273  1
  Rh  Rh206  1  0.20183795  0.39286689  0.38318243  1
  Rh  Rh207  1  0.19949269  -0.00033450  0.80143957  1
  Rh  Rh208  1  -0.00175969  0.59776111  0.40545484  1
  Rh  Rh209  1  0.80760580  0.40247120  0.19081865  1
  Rh  Rh210  1  0.80133859  0.60067086  0.00355205  1
  Rh  Rh211  1  0.00937066  0.39449934  0.79302958  1
  Rh  Rh212  1  0.20169228  0.39815086  0.00357400  1
  Rh  Rh213  1  -0.01573385  0.19776447  0.21321423  1
  Rh  Rh214  1  0.38223250  0.20892183  0.41408500  1
  Rh  Rh215  1  0.20256994  0.21235382  0.20374257  1
  Rh  Rh216  1  0.00263343  0.79722967  0.20077645  1
  Rh  Rh217  1  0.19270182  0.40443374  0.60897026  1
  Rh  Rh218  1  0.00977318  0.59256599  0.59238590  1
  Rh  Rh219  1  0.80460048  0.39738668  -0.00274885  1
  Rh  Rh220  1  0.80347773  0.79641158  0.79592101  1
  Rh  Rh221  1  0.79897559  0.00001622  0.40298183  1
  Rh  Rh222  1  0.59783239  0.59774459  -0.00052030  1
  Rh  Rh223  1  0.38885561  -0.00034914  0.60316299  1
  Rh  Rh224  1  -0.00686988  -0.00717477  0.19138449  1
  Rh  Rh225  1  0.19630009  0.59875430  0.80192351  1
  Rh  Rh226  1  0.41130845  0.60045559  0.19490069  1
  Rh  Rh227  1  0.79911069  0.59774766  0.80127980  1
  Rh  Rh228  1  0.19876871  0.39989126  0.79989935  1
  Rh  Rh229  1  0.20208878  0.80423470  0.60436990  1
  Rh  Rh230  1  0.39711676  0.80153336  0.80099381  1
  Rh  Rh231  1  0.58898332  0.19831299  0.60708622  1
  Rh  Rh232  1  0.60433764  0.40513852  0.59044009  1
  Rh  Rh233  1  0.00296271  0.79676018  0.40154506  1
  Rh  Rh234  1  0.20188207  0.20454784  0.80869876  1
  Rh  Rh235  1  -0.00446203  -0.00365718  0.80841519  1
  Rh  Rh236  1  0.79499825  0.40250095  0.41003184  1
  Rh  Rh237  1  0.59981177  0.79835446  -0.00211264  1
  Rh  Rh238  1  0.20391944  -0.01193368  0.21339055  1
  Rh  Rh239  1  0.19301726  0.00426119  0.39826562  1
  Rh  Rh240  1  0.80253617  0.79506497  0.40685740  1
  Rh  Rh241  1  0.40252179  0.60706293  -0.00661038  1
  Rh  Rh242  1  0.00459410  0.80064897  -0.00354847  1
  Rh  Rh243  1  0.79719801  0.79763269  0.00212614  1
  Rh  Rh244  1  0.20030556  -0.00616416  0.60280985  1
  Rh  Rh245  1  0.01117258  0.19096673  -0.00523592  1
  Rh  Rh246  1  0.59049799  0.40708939  0.20811811  1
  Rh  Rh247  1  0.39855007  0.59575308  0.80019143  1
  Rh  Rh248  1  0.00562754  0.40785740  -0.00203498  1
  Rh  Rh249  1  0.39114907  0.59681893  0.41321021  1
