# generated using pymatgen
data_ZrScNbPdRh
_symmetry_space_group_name_H-M   'P 1'
_cell_length_a   16.55428228
_cell_length_b   16.55141979
_cell_length_c   16.55429042
_cell_angle_alpha   90.00953441
_cell_angle_beta   89.96162746
_cell_angle_gamma   90.00040288
_symmetry_Int_Tables_number   1
_chemical_formula_structural   ZrScNbPdRh
_chemical_formula_sum   'Zr50 Sc50 Nb50 Pd50 Rh50'
_cell_volume   4535.82276902
_cell_formula_units_Z   50
loop_
 _symmetry_equiv_pos_site_id
 _symmetry_equiv_pos_as_xyz
  1  'x, y, z'
loop_
 _atom_site_type_symbol
 _atom_site_label
 _atom_site_symmetry_multiplicity
 _atom_site_fract_x
 _atom_site_fract_y
 _atom_site_fract_z
 _atom_site_occupancy
  Zr  Zr0  1  0.69604680  0.89357065  0.88911250  1
  Zr  Zr1  1  0.90038951  0.70479568  0.90482264  1
  Zr  Zr2  1  0.49659341  0.10315673  0.10493094  1
  Zr  Zr3  1  0.90044306  0.29916518  0.09839262  1
  Zr  Zr4  1  0.70696480  0.69348279  0.49864638  1
  Zr  Zr5  1  0.70547026  0.30821022  0.90175061  1
  Zr  Zr6  1  0.70047115  0.50705902  0.30955760  1
  Zr  Zr7  1  0.50202860  0.49710604  0.30118261  1
  Zr  Zr8  1  0.89900609  0.69350705  0.30085746  1
  Zr  Zr9  1  0.70761925  0.49004014  0.69994271  1
  Zr  Zr10  1  0.50029596  0.89948887  0.29481550  1
  Zr  Zr11  1  0.10103811  0.69588226  0.69987620  1
  Zr  Zr12  1  0.49403181  0.69908030  0.50619192  1
  Zr  Zr13  1  0.29605786  0.29624859  0.70136271  1
  Zr  Zr14  1  0.49903289  0.30195997  0.29814020  1
  Zr  Zr15  1  0.30022109  0.09451936  0.10462764  1
  Zr  Zr16  1  0.91741854  0.09613852  0.90076626  1
  Zr  Zr17  1  0.30170148  0.69028525  0.89740174  1
  Zr  Zr18  1  0.49679621  0.10556611  0.49705324  1
  Zr  Zr19  1  0.09074645  0.91405766  0.89819036  1
  Zr  Zr20  1  0.69584558  0.30641472  0.30783320  1
  Zr  Zr21  1  0.69961322  0.49898078  0.89840637  1
  Zr  Zr22  1  0.89192934  0.10390112  0.30861353  1
  Zr  Zr23  1  0.49313681  0.30338631  0.90159854  1
  Zr  Zr24  1  0.89791179  0.49979198  0.51035756  1
  Zr  Zr25  1  0.11140434  0.89971763  0.69616367  1
  Zr  Zr26  1  0.70079700  0.49633495  0.50099578  1
  Zr  Zr27  1  0.30460229  0.69975002  0.69462909  1
  Zr  Zr28  1  0.10017057  0.89203932  0.49881790  1
  Zr  Zr29  1  0.49580852  0.09197367  0.90303744  1
  Zr  Zr30  1  0.30696616  0.90178880  0.89801680  1
  Zr  Zr31  1  0.90123606  0.10217531  0.50708111  1
  Zr  Zr32  1  0.29371414  0.89703471  0.50492135  1
  Zr  Zr33  1  0.89681381  0.70132318  0.09775789  1
  Zr  Zr34  1  0.29161329  0.30723612  0.30127356  1
  Zr  Zr35  1  0.09171774  0.49543740  0.69544805  1
  Zr  Zr36  1  0.50206828  0.89571920  0.71662872  1
  Zr  Zr37  1  0.09268908  0.69965146  0.09233030  1
  Zr  Zr38  1  0.29861687  0.70605987  0.29622306  1
  Zr  Zr39  1  0.50585552  0.70649070  0.30505360  1
  Zr  Zr40  1  0.30204380  0.89465209  0.70001792  1
  Zr  Zr41  1  0.70210779  0.90127619  0.09250733  1
  Zr  Zr42  1  0.30178989  0.49667561  0.28807003  1
  Zr  Zr43  1  0.29024304  0.90317704  0.29541482  1
  Zr  Zr44  1  0.29441766  0.11053776  0.89656581  1
  Zr  Zr45  1  0.29467972  0.30259714  0.89570794  1
  Zr  Zr46  1  0.09821062  0.69712246  0.90164040  1
  Zr  Zr47  1  0.50477385  0.10313335  0.30089265  1
  Zr  Zr48  1  0.30353375  0.09832821  0.50146330  1
  Zr  Zr49  1  0.90176063  0.90667835  0.30108880  1
  Sc  Sc50  1  0.70730381  0.50161169  0.09480839  1
  Sc  Sc51  1  0.30301466  0.48803892  0.49342654  1
  Sc  Sc52  1  0.49789320  0.49973426  0.70198384  1
  Sc  Sc53  1  0.09930243  0.91018484  0.10566060  1
  Sc  Sc54  1  0.90170860  0.50251725  0.11045186  1
  Sc  Sc55  1  0.10304758  0.30746933  0.70503007  1
  Sc  Sc56  1  0.29902432  0.29482924  0.48843011  1
  Sc  Sc57  1  0.70884581  0.29946642  0.10599524  1
  Sc  Sc58  1  0.50592323  0.30066005  0.69632864  1
  Sc  Sc59  1  0.09101297  0.49327034  0.49817023  1
  Sc  Sc60  1  0.90084832  0.49713742  0.30354923  1
  Sc  Sc61  1  0.48550984  0.69851716  0.70262717  1
  Sc  Sc62  1  0.29477319  0.69210559  0.09828562  1
  Sc  Sc63  1  0.49323236  0.90076278  0.08962535  1
  Sc  Sc64  1  0.90237234  0.90977771  0.08956838  1
  Sc  Sc65  1  0.89244252  0.69605712  0.69417726  1
  Sc  Sc66  1  0.30229375  0.10226486  0.30003741  1
  Sc  Sc67  1  0.49973661  0.89759282  0.48816633  1
  Sc  Sc68  1  0.91004523  0.69620817  0.50389133  1
  Sc  Sc69  1  0.89239450  0.89053792  0.68695488  1
  Sc  Sc70  1  0.29785275  0.09385590  0.69894778  1
  Sc  Sc71  1  0.70068772  0.09854739  0.69066003  1
  Sc  Sc72  1  0.30014304  0.49758550  0.70571709  1
  Sc  Sc73  1  0.09590095  0.30271551  0.49253857  1
  Sc  Sc74  1  0.70506507  0.90318319  0.49649210  1
  Sc  Sc75  1  0.30577614  0.89855999  0.10207321  1
  Sc  Sc76  1  0.90141605  0.30193024  0.69072583  1
  Sc  Sc77  1  0.10064506  0.50274081  0.10457161  1
  Sc  Sc78  1  0.69807922  0.70070987  0.30445784  1
  Sc  Sc79  1  0.90063604  0.29612883  0.49581736  1
  Sc  Sc80  1  0.49448475  0.10391462  0.69492878  1
  Sc  Sc81  1  0.09395593  0.09511946  0.70760211  1
  Sc  Sc82  1  0.10773220  0.10188203  0.29248707  1
  Sc  Sc83  1  0.09864494  0.48972722  0.29753886  1
  Sc  Sc84  1  0.49308617  0.50455779  0.90296105  1
  Sc  Sc85  1  0.70022017  0.09194128  0.90477350  1
  Sc  Sc86  1  0.10080166  0.70953246  0.30683518  1
  Sc  Sc87  1  0.48989490  0.49877621  0.10050780  1
  Sc  Sc88  1  0.70511074  0.70053815  0.90838565  1
  Sc  Sc89  1  0.09906424  0.50442115  0.88828620  1
  Sc  Sc90  1  0.70139678  0.10440160  0.30377200  1
  Sc  Sc91  1  0.50223410  0.70502966  0.09023581  1
  Sc  Sc92  1  0.09974116  0.29724970  0.11024132  1
  Sc  Sc93  1  0.30661590  0.30141946  0.10258120  1
  Sc  Sc94  1  0.69396029  0.90479885  0.30766118  1
  Sc  Sc95  1  0.70439707  0.10310159  0.49274553  1
  Sc  Sc96  1  0.09455950  0.10692806  0.10016920  1
  Sc  Sc97  1  0.90363570  0.30115644  0.30079599  1
  Sc  Sc98  1  0.90163271  0.29308243  0.90296372  1
  Sc  Sc99  1  0.50460935  0.50005956  0.49978766  1
  Nb  Nb100  1  0.89158131  0.10449956  0.10281088  1
  Nb  Nb101  1  0.89969000  0.89782308  0.89971118  1
  Nb  Nb102  1  0.49631559  0.29929597  0.50158974  1
  Nb  Nb103  1  0.09991124  0.09570514  0.50687524  1
  Nb  Nb104  1  0.10659340  0.69872550  0.49875208  1
  Nb  Nb105  1  0.10242509  0.29189440  0.90462256  1
  Nb  Nb106  1  0.30063770  0.49600299  0.90988265  1
  Nb  Nb107  1  0.89442410  0.10286146  0.69954387  1
  Nb  Nb108  1  0.90384136  0.49939080  0.69821147  1
  Nb  Nb109  1  0.09894675  0.89982270  0.30280403  1
  Nb  Nb110  1  0.70471961  0.70888819  0.70406830  1
  Nb  Nb111  1  0.69353661  0.30311805  0.70456531  1
  Nb  Nb112  1  0.10204826  0.30493792  0.29794069  1
  Nb  Nb113  1  0.89613840  0.49353560  0.89576088  1
  Nb  Nb114  1  0.70291753  0.69532324  0.10181480  1
  Nb  Nb115  1  0.50753507  0.29915910  0.10353079  1
  Nb  Nb116  1  0.30328164  0.69781769  0.50417139  1
  Nb  Nb117  1  0.90364716  0.89841488  0.49588745  1
  Nb  Nb118  1  0.49790032  0.89085400  0.90183702  1
  Nb  Nb119  1  0.10203520  0.10816498  0.90076465  1
  Nb  Nb120  1  0.69075589  0.30925491  0.51347642  1
  Nb  Nb121  1  0.29547313  0.49851846  0.09510750  1
  Nb  Nb122  1  0.69947920  0.89387587  0.70005160  1
  Nb  Nb123  1  0.50433026  0.70184503  0.89927469  1
  Nb  Nb124  1  0.70225084  0.10029903  0.10141545  1
  Nb  Nb125  1  0.60331889  0.60565746  0.79861891  1
  Nb  Nb126  1  0.59950956  -0.00704944  0.60126844  1
  Nb  Nb127  1  0.19885921  0.00401893  -0.00555789  1
  Nb  Nb128  1  0.80137284  0.80091831  0.19952582  1
  Nb  Nb129  1  0.19716460  0.40123751  -0.00368733  1
  Nb  Nb130  1  0.20212096  0.59842726  0.59129392  1
  Nb  Nb131  1  0.80911917  0.80131992  0.39846775  1
  Nb  Nb132  1  -0.00471129  0.80354256  0.20167533  1
  Nb  Nb133  1  0.60680540  0.20335445  0.80466719  1
  Nb  Nb134  1  0.39411061  0.60274846  0.39739727  1
  Nb  Nb135  1  0.60263290  0.60336336  0.19549959  1
  Nb  Nb136  1  0.60075633  0.20250809  0.00233797  1
  Nb  Nb137  1  0.20419033  0.60169478  0.40358247  1
  Nb  Nb138  1  0.59609763  0.39489958  0.00244848  1
  Nb  Nb139  1  0.79914941  0.19473335  0.79472348  1
  Nb  Nb140  1  0.60143681  0.00402248  0.19438650  1
  Nb  Nb141  1  0.00447122  0.39804987  -0.00475678  1
  Nb  Nb142  1  0.80489799  -0.00044645  0.79460762  1
  Nb  Nb143  1  0.60340837  0.79980270  0.60624637  1
  Nb  Nb144  1  0.60647008  0.60570478  0.61072459  1
  Nb  Nb145  1  -0.00188073  0.80291589  0.80155437  1
  Nb  Nb146  1  0.19493718  0.19528703  0.59570048  1
  Nb  Nb147  1  0.19686377  0.80536076  -0.00500811  1
  Nb  Nb148  1  0.40167928  0.39228714  0.59645783  1
  Nb  Nb149  1  0.00481646  0.00079859  0.40441983  1
  Pd  Pd150  1  0.41068901  -0.00848783  0.60050678  1
  Pd  Pd151  1  -0.01227512  0.60567521  0.79693948  1
  Pd  Pd152  1  0.20519977  0.39728740  0.59157509  1
  Pd  Pd153  1  0.80422973  0.39658666  0.40573459  1
  Pd  Pd154  1  0.19479971  0.00435216  0.39913789  1
  Pd  Pd155  1  0.39718956  0.00434968  0.79902382  1
  Pd  Pd156  1  0.40335871  0.60387038  0.00335379  1
  Pd  Pd157  1  0.79537301  -0.00443189  0.59908386  1
  Pd  Pd158  1  0.79195141  -0.00377013  0.20136882  1
  Pd  Pd159  1  0.19570951  0.80089867  0.80755041  1
  Pd  Pd160  1  0.00152831  0.79482769  0.60525420  1
  Pd  Pd161  1  0.60290738  0.19408583  0.60117423  1
  Pd  Pd162  1  -0.00179470  0.20805033  0.79301636  1
  Pd  Pd163  1  0.40161524  0.40224537  0.79350337  1
  Pd  Pd164  1  0.20096884  0.20336163  0.01234319  1
  Pd  Pd165  1  0.81223290  0.38956116  0.79452223  1
  Pd  Pd166  1  0.79863274  0.19276466  -0.00728059  1
  Pd  Pd167  1  0.60590104  0.01020644  0.79295818  1
  Pd  Pd168  1  0.59609791  0.00158070  0.00448400  1
  Pd  Pd169  1  -0.01199550  -0.01125524  0.78274964  1
  Pd  Pd170  1  -0.00145604  -0.00445570  0.60157243  1
  Pd  Pd171  1  0.60311320  0.20582317  0.40634265  1
  Pd  Pd172  1  0.40949030  0.60811902  0.20015662  1
  Pd  Pd173  1  0.60377719  0.79821630  -0.00069564  1
  Pd  Pd174  1  0.18989579  0.80068191  0.18837418  1
  Pd  Pd175  1  0.79734297  0.20483415  0.20801287  1
  Pd  Pd176  1  0.20355406  0.59196739  0.79285746  1
  Pd  Pd177  1  0.79223507  0.20884441  0.60107400  1
  Pd  Pd178  1  0.60689418  0.80230739  0.19228226  1
  Pd  Pd179  1  0.80404185  0.00282207  -0.00971920  1
  Pd  Pd180  1  0.39214873  0.80089433  0.40031324  1
  Pd  Pd181  1  0.40651229  0.19945143  0.79396250  1
  Pd  Pd182  1  0.01028353  0.20613311  0.60604557  1
  Pd  Pd183  1  0.80763488  0.59328079  -0.00117930  1
  Pd  Pd184  1  0.39762097  -0.00215465  0.39389009  1
  Pd  Pd185  1  -0.00398529  0.39154607  0.80618811  1
  Pd  Pd186  1  0.40212847  0.79538973  0.19158252  1
  Pd  Pd187  1  0.00832840  0.19449507  0.39448670  1
  Pd  Pd188  1  0.80015803  0.40318527  0.20377609  1
  Pd  Pd189  1  -0.00534532  0.58355447  -0.00350302  1
  Pd  Pd190  1  0.60622534  0.41132165  0.19112340  1
  Pd  Pd191  1  -0.00103137  0.00521231  0.20298756  1
  Pd  Pd192  1  0.00672244  0.59410454  0.39892271  1
  Pd  Pd193  1  0.19268118  0.19584345  0.40286187  1
  Pd  Pd194  1  0.40110283  0.20222080  0.00333404  1
  Pd  Pd195  1  0.79999375  0.60150507  0.79918252  1
  Pd  Pd196  1  0.39443432  0.20522170  0.20626579  1
  Pd  Pd197  1  0.19122966  0.60137055  0.20663615  1
  Pd  Pd198  1  -0.00390852  0.19689641  0.20557589  1
  Pd  Pd199  1  0.00887273  0.60481973  0.20744917  1
  Rh  Rh200  1  0.20370783  0.20340286  0.20104294  1
  Rh  Rh201  1  0.00374932  0.00965726  0.00860353  1
  Rh  Rh202  1  0.19928242  0.00085135  0.19547317  1
  Rh  Rh203  1  0.80348266  0.39408014  0.60034268  1
  Rh  Rh204  1  0.60919056  0.19475428  0.19483847  1
  Rh  Rh205  1  0.39197983  0.79247471  -0.00502210  1
  Rh  Rh206  1  0.19895599  0.00575972  0.60147272  1
  Rh  Rh207  1  0.20422834  0.00585649  0.80502441  1
  Rh  Rh208  1  -0.00093612  0.39673810  0.19615233  1
  Rh  Rh209  1  0.19916235  0.39908028  0.18956832  1
  Rh  Rh210  1  0.59181666  0.40684942  0.60194117  1
  Rh  Rh211  1  0.39931559  0.39657201  0.19564901  1
  Rh  Rh212  1  0.59942437  0.59310277  0.00000420  1
  Rh  Rh213  1  0.40665973  -0.00161616  0.20457990  1
  Rh  Rh214  1  0.80949351  0.60204271  0.40391732  1
  Rh  Rh215  1  0.00633705  0.60062125  0.59986514  1
  Rh  Rh216  1  0.38802910  0.20755731  0.59883917  1
  Rh  Rh217  1  0.59755337  0.78822761  0.79958199  1
  Rh  Rh218  1  0.80770892  -0.00112100  0.40566145  1
  Rh  Rh219  1  0.39805239  0.39836729  0.00691871  1
  Rh  Rh220  1  0.20588814  0.79749506  0.40238421  1
  Rh  Rh221  1  -0.00360286  0.39913186  0.39717148  1
  Rh  Rh222  1  0.00716426  0.81046533  0.00097897  1
  Rh  Rh223  1  0.20063482  0.79095028  0.59885544  1
  Rh  Rh224  1  0.19056335  0.19663217  0.78876405  1
  Rh  Rh225  1  0.59242171  0.40366382  0.80862135  1
  Rh  Rh226  1  0.40287763  0.59707583  0.80541960  1
  Rh  Rh227  1  0.79270195  0.21212082  0.40606286  1
  Rh  Rh228  1  -0.00052630  0.20237173  0.00625753  1
  Rh  Rh229  1  0.80925998  0.80430124  0.80384226  1
  Rh  Rh230  1  -0.00333154  0.80522149  0.39541477  1
  Rh  Rh231  1  0.39633038  0.58357784  0.59208668  1
  Rh  Rh232  1  0.59047193  0.60277254  0.40063677  1
  Rh  Rh233  1  0.79739366  0.59673971  0.60647779  1
  Rh  Rh234  1  0.19383153  0.40483593  0.39860982  1
  Rh  Rh235  1  0.59578642  0.39495191  0.40660971  1
  Rh  Rh236  1  0.39337829  0.00169522  -0.00302743  1
  Rh  Rh237  1  0.59694134  0.00414587  0.40036090  1
  Rh  Rh238  1  0.40097493  0.20338618  0.39419780  1
  Rh  Rh239  1  0.19818714  0.59591497  -0.00023576  1
  Rh  Rh240  1  0.39885179  0.79287356  0.80800866  1
  Rh  Rh241  1  -0.00336979  0.39490968  0.59741889  1
  Rh  Rh242  1  0.40848577  0.81154428  0.59904414  1
  Rh  Rh243  1  0.79604740  0.80342409  0.00245584  1
  Rh  Rh244  1  0.79563623  0.79923281  0.58678426  1
  Rh  Rh245  1  0.79050534  0.60235024  0.20619300  1
  Rh  Rh246  1  0.80906978  0.40564403  0.00373322  1
  Rh  Rh247  1  0.40754640  0.40172941  0.40238821  1
  Rh  Rh248  1  0.19808987  0.40411510  0.80900460  1
  Rh  Rh249  1  0.61241877  0.79802719  0.41219441  1
