# generated using pymatgen
data_ZrScNbPdRh
_symmetry_space_group_name_H-M   'P 1'
_cell_length_a   16.56133900
_cell_length_b   16.56331644
_cell_length_c   16.56070920
_cell_angle_alpha   90.00872454
_cell_angle_beta   90.00122230
_cell_angle_gamma   90.04915471
_symmetry_Int_Tables_number   1
_chemical_formula_structural   ZrScNbPdRh
_chemical_formula_sum   'Zr50 Sc50 Nb50 Pd50 Rh50'
_cell_volume   4542.77798180
_cell_formula_units_Z   50
loop_
 _symmetry_equiv_pos_site_id
 _symmetry_equiv_pos_as_xyz
  1  'x, y, z'
loop_
 _atom_site_type_symbol
 _atom_site_label
 _atom_site_symmetry_multiplicity
 _atom_site_fract_x
 _atom_site_fract_y
 _atom_site_fract_z
 _atom_site_occupancy
  Zr  Zr0  1  0.29327285  0.49300743  0.10882123  1
  Zr  Zr1  1  0.89506111  0.49659826  0.89636304  1
  Zr  Zr2  1  0.70241288  0.90315508  0.89879543  1
  Zr  Zr3  1  0.89837144  0.70598525  0.29653735  1
  Zr  Zr4  1  0.30063813  0.69644580  0.69278357  1
  Zr  Zr5  1  0.29674459  0.49400222  0.89613966  1
  Zr  Zr6  1  0.49512491  0.09419714  0.49900005  1
  Zr  Zr7  1  0.09749577  0.69061681  0.29765470  1
  Zr  Zr8  1  0.50192244  0.69819056  0.89613177  1
  Zr  Zr9  1  0.09954409  0.49778206  0.89374492  1
  Zr  Zr10  1  0.50163962  0.90511767  0.09307913  1
  Zr  Zr11  1  0.10488934  0.49784884  0.28994203  1
  Zr  Zr12  1  0.89974966  0.90567624  0.49111427  1
  Zr  Zr13  1  0.50622264  0.30930968  0.49667377  1
  Zr  Zr14  1  0.08923172  0.89352237  0.09745972  1
  Zr  Zr15  1  0.50320773  0.10136411  0.69855270  1
  Zr  Zr16  1  0.50429325  0.49882558  0.90067726  1
  Zr  Zr17  1  0.30148975  0.89733933  0.50367384  1
  Zr  Zr18  1  0.30139768  0.69595727  0.10890406  1
  Zr  Zr19  1  0.50463315  0.29465771  0.89143274  1
  Zr  Zr20  1  0.88873980  0.09779470  0.10286708  1
  Zr  Zr21  1  0.49788582  0.50375790  0.10115741  1
  Zr  Zr22  1  0.69971732  0.89875942  0.30215685  1
  Zr  Zr23  1  0.09928009  0.09728645  0.50366411  1
  Zr  Zr24  1  0.09683575  0.09142395  0.10179869  1
  Zr  Zr25  1  0.49688242  0.69974651  0.70057089  1
  Zr  Zr26  1  0.29414373  0.89643912  0.10122643  1
  Zr  Zr27  1  0.89978034  0.69536310  0.70419798  1
  Zr  Zr28  1  0.49995869  0.90779874  0.49978262  1
  Zr  Zr29  1  0.29347911  0.29777538  0.09764599  1
  Zr  Zr30  1  0.69680659  0.90178959  0.49904468  1
  Zr  Zr31  1  0.49825385  0.69093335  0.50169255  1
  Zr  Zr32  1  0.50389491  0.10661721  0.30805572  1
  Zr  Zr33  1  0.88842583  0.30434421  0.49775829  1
  Zr  Zr34  1  0.50263819  0.49171851  0.69232400  1
  Zr  Zr35  1  0.30315247  0.69634334  0.49913739  1
  Zr  Zr36  1  0.89851792  0.69607579  0.50029792  1
  Zr  Zr37  1  0.50063357  0.69249179  0.10151914  1
  Zr  Zr38  1  0.10130855  0.50556701  0.70131765  1
  Zr  Zr39  1  0.30581059  0.10218241  0.31093479  1
  Zr  Zr40  1  0.11175232  0.69682459  0.50364296  1
  Zr  Zr41  1  0.69728931  0.70054928  0.49603603  1
  Zr  Zr42  1  0.28830670  0.29456546  0.90003861  1
  Zr  Zr43  1  0.90431165  0.10431863  0.50034698  1
  Zr  Zr44  1  0.69965708  0.30232403  0.31302999  1
  Zr  Zr45  1  0.10453596  0.50278075  0.49956348  1
  Zr  Zr46  1  0.89661995  0.29858080  0.90641633  1
  Zr  Zr47  1  0.69954425  0.49440633  0.50307107  1
  Zr  Zr48  1  0.70245127  0.10717316  0.70483432  1
  Zr  Zr49  1  0.09056113  0.10344402  0.70581236  1
  Sc  Sc50  1  0.90167226  0.71207030  0.89433840  1
  Sc  Sc51  1  0.09926197  0.30660632  0.09784371  1
  Sc  Sc52  1  0.90951214  0.49723442  0.29906259  1
  Sc  Sc53  1  0.10073992  0.30040654  0.70279866  1
  Sc  Sc54  1  0.89816862  0.29415760  0.29963478  1
  Sc  Sc55  1  0.30543799  0.50057641  0.49814300  1
  Sc  Sc56  1  0.30348513  0.90017338  0.69824259  1
  Sc  Sc57  1  0.49837238  0.89849455  0.69512178  1
  Sc  Sc58  1  0.68972586  0.70316280  0.29821797  1
  Sc  Sc59  1  0.49920796  0.69496052  0.29876730  1
  Sc  Sc60  1  0.90235047  0.10402290  0.29962854  1
  Sc  Sc61  1  0.90753193  0.48600581  0.09809040  1
  Sc  Sc62  1  0.89420051  0.50067226  0.70021462  1
  Sc  Sc63  1  0.71138901  0.90584444  0.09461998  1
  Sc  Sc64  1  0.70885540  0.70760337  0.89251853  1
  Sc  Sc65  1  0.89893004  0.10308823  0.89423455  1
  Sc  Sc66  1  0.70475832  0.29334789  0.09533829  1
  Sc  Sc67  1  0.30686339  0.68558501  0.88807545  1
  Sc  Sc68  1  0.09971212  0.90097925  0.29108450  1
  Sc  Sc69  1  0.50501912  0.30010831  0.70250017  1
  Sc  Sc70  1  0.30336529  0.30929005  0.30320886  1
  Sc  Sc71  1  0.70307861  0.30169158  0.89881030  1
  Sc  Sc72  1  0.29754738  0.91208853  0.89586696  1
  Sc  Sc73  1  0.29231514  0.09149490  0.08977284  1
  Sc  Sc74  1  0.30239922  0.69554138  0.30514097  1
  Sc  Sc75  1  0.10035288  0.91031347  0.70312100  1
  Sc  Sc76  1  0.70295476  0.70236439  0.70079732  1
  Sc  Sc77  1  0.09858255  0.29888243  0.29939990  1
  Sc  Sc78  1  0.09909720  0.29493685  0.89897554  1
  Sc  Sc79  1  0.69458551  0.10859563  0.50308018  1
  Sc  Sc80  1  0.90195564  0.29665697  0.09954851  1
  Sc  Sc81  1  0.70603885  0.10624244  0.90849249  1
  Sc  Sc82  1  0.08375494  0.90254618  0.89746540  1
  Sc  Sc83  1  0.89070677  0.90215999  0.29428445  1
  Sc  Sc84  1  0.89319618  0.49769477  0.51107984  1
  Sc  Sc85  1  0.29041158  0.09475241  0.70637800  1
  Sc  Sc86  1  0.89294252  0.90282416  0.90599518  1
  Sc  Sc87  1  0.69535631  0.70239336  0.10135328  1
  Sc  Sc88  1  0.71015861  0.10985470  0.29577602  1
  Sc  Sc89  1  0.51332186  0.30020077  0.10109432  1
  Sc  Sc90  1  0.30436059  0.89148000  0.29981297  1
  Sc  Sc91  1  0.29643986  0.30366265  0.49725439  1
  Sc  Sc92  1  0.69576779  0.89826708  0.70557203  1
  Sc  Sc93  1  0.90588333  0.90588227  0.71750068  1
  Sc  Sc94  1  0.68919120  0.49748415  0.09444072  1
  Sc  Sc95  1  0.89800443  0.29318306  0.70229613  1
  Sc  Sc96  1  0.49942321  0.49816330  0.30045372  1
  Sc  Sc97  1  0.30029009  0.30433950  0.70309393  1
  Sc  Sc98  1  0.49665840  0.90305989  0.89282338  1
  Sc  Sc99  1  0.10266579  0.29780943  0.50841302  1
  Nb  Nb100  1  0.09816192  0.69805746  0.70607853  1
  Nb  Nb101  1  0.50119182  0.09978395  0.90396899  1
  Nb  Nb102  1  0.70632569  0.49926220  0.89721289  1
  Nb  Nb103  1  0.90333387  0.71172719  0.09622520  1
  Nb  Nb104  1  0.69397684  0.30158203  0.69771714  1
  Nb  Nb105  1  0.50718666  0.10084233  0.09278148  1
  Nb  Nb106  1  0.09927768  0.89900587  0.49882494  1
  Nb  Nb107  1  0.89660216  0.09961890  0.70361713  1
  Nb  Nb108  1  0.90031347  0.89392294  0.09737012  1
  Nb  Nb109  1  0.29971344  0.50424294  0.70576681  1
  Nb  Nb110  1  0.09618843  0.69621448  0.89633405  1
  Nb  Nb111  1  0.11287067  0.10403381  0.89648331  1
  Nb  Nb112  1  0.10347273  0.10050564  0.30037240  1
  Nb  Nb113  1  0.50020492  0.29752838  0.30117221  1
  Nb  Nb114  1  0.29511305  0.10532806  0.90039416  1
  Nb  Nb115  1  0.30184143  0.49914305  0.29857671  1
  Nb  Nb116  1  0.10317744  0.50327844  0.10297950  1
  Nb  Nb117  1  0.50111302  0.50513910  0.49980198  1
  Nb  Nb118  1  0.69535231  0.09987713  0.09815458  1
  Nb  Nb119  1  0.30343632  0.09777038  0.50158778  1
  Nb  Nb120  1  0.70347861  0.50381534  0.29951548  1
  Nb  Nb121  1  0.50271869  0.91012695  0.29864480  1
  Nb  Nb122  1  0.70505278  0.49949050  0.70390553  1
  Nb  Nb123  1  0.70431821  0.30586374  0.50127242  1
  Nb  Nb124  1  0.09532762  0.69947975  0.09922159  1
  Nb  Nb125  1  0.60614171  0.59167730  0.79915815  1
  Nb  Nb126  1  0.40796440  0.00615286  0.19896451  1
  Nb  Nb127  1  0.40016407  0.39297233  -0.00089041  1
  Nb  Nb128  1  0.79460094  0.40409954  0.20439921  1
  Nb  Nb129  1  0.40276609  0.19562258  0.19350043  1
  Nb  Nb130  1  0.00121462  0.40148863  0.40540714  1
  Nb  Nb131  1  0.39873703  0.19592605  0.59609037  1
  Nb  Nb132  1  0.80864684  0.80743019  0.59797062  1
  Nb  Nb133  1  0.80179250  0.59638193  0.19564934  1
  Nb  Nb134  1  0.00083305  0.60340171  0.00250304  1
  Nb  Nb135  1  0.00259673  0.80093399  0.59817302  1
  Nb  Nb136  1  0.19398066  0.79328919  0.80305481  1
  Nb  Nb137  1  0.59971391  0.00617333  0.19685168  1
  Nb  Nb138  1  0.19192878  0.60203907  0.00290224  1
  Nb  Nb139  1  0.59495614  0.80225356  -0.00321256  1
  Nb  Nb140  1  0.80748602  0.60115981  0.00455250  1
  Nb  Nb141  1  0.40226166  0.19634115  -0.00186162  1
  Nb  Nb142  1  0.79697903  0.59625364  0.39355187  1
  Nb  Nb143  1  0.19774502  0.78968139  -0.00662026  1
  Nb  Nb144  1  0.80361197  0.00159974  0.60408999  1
  Nb  Nb145  1  0.59868812  0.00926472  0.80435325  1
  Nb  Nb146  1  0.00423760  0.80007491  0.40501578  1
  Nb  Nb147  1  0.20316605  0.19317585  0.20295201  1
  Nb  Nb148  1  0.19796320  0.00139625  0.40466557  1
  Nb  Nb149  1  0.39578109  0.79708319  -0.00017403  1
  Pd  Pd150  1  0.38839261  0.59545249  0.00185485  1
  Pd  Pd151  1  0.79389166  0.01196123  0.40317688  1
  Pd  Pd152  1  -0.00999955  -0.00245866  0.20467382  1
  Pd  Pd153  1  -0.00277202  0.39485864  0.79460306  1
  Pd  Pd154  1  0.79318602  0.79717912  0.19410313  1
  Pd  Pd155  1  -0.00740496  -0.00528602  0.60511589  1
  Pd  Pd156  1  0.00673876  0.40218134  -0.00229123  1
  Pd  Pd157  1  -0.00546973  0.59559314  0.40411240  1
  Pd  Pd158  1  0.00590089  0.20155412  0.19606327  1
  Pd  Pd159  1  0.19332117  0.80495472  0.61227091  1
  Pd  Pd160  1  0.59908972  0.80910373  0.19299001  1
  Pd  Pd161  1  0.80038658  0.19870864  0.60067122  1
  Pd  Pd162  1  0.60040313  0.39387302  -0.00447054  1
  Pd  Pd163  1  -0.00309253  0.20651068  0.60183801  1
  Pd  Pd164  1  0.19339439  0.79356717  0.20214822  1
  Pd  Pd165  1  0.20792056  0.19856601  0.60586840  1
  Pd  Pd166  1  0.19518480  0.40196081  0.39865799  1
  Pd  Pd167  1  0.59391305  0.20624319  0.59523847  1
  Pd  Pd168  1  0.39518887  0.39498686  0.59693896  1
  Pd  Pd169  1  0.00630162  -0.00488597  0.38803920  1
  Pd  Pd170  1  0.60542088  0.40043765  0.20389751  1
  Pd  Pd171  1  0.79972242  0.38994561  0.79433257  1
  Pd  Pd172  1  0.20158126  0.00019038  0.59851903  1
  Pd  Pd173  1  0.18975624  -0.01073548  -0.00871085  1
  Pd  Pd174  1  0.38935443  0.80360575  0.80507097  1
  Pd  Pd175  1  0.19693251  0.19886977  0.39857775  1
  Pd  Pd176  1  0.40608780  0.39122328  0.19647504  1
  Pd  Pd177  1  0.60175355  0.19931732  0.20171883  1
  Pd  Pd178  1  0.00399840  0.19295031  0.00085891  1
  Pd  Pd179  1  0.58805411  0.79858183  0.39880229  1
  Pd  Pd180  1  0.39676488  0.00105803  0.00002450  1
  Pd  Pd181  1  0.40310403  0.00623170  0.79609684  1
  Pd  Pd182  1  0.40868317  0.80039212  0.40096128  1
  Pd  Pd183  1  0.40943863  0.80420747  0.19815416  1
  Pd  Pd184  1  -0.00251906  0.39744963  0.60022442  1
  Pd  Pd185  1  0.19437553  0.80460485  0.39260975  1
  Pd  Pd186  1  0.59707570  0.40797793  0.39652721  1
  Pd  Pd187  1  0.39991426  0.39849135  0.80343331  1
  Pd  Pd188  1  0.61235627  0.01090603  0.39352537  1
  Pd  Pd189  1  -0.00664973  0.00830675  -0.00547562  1
  Pd  Pd190  1  0.00131453  0.60130325  0.60168950  1
  Pd  Pd191  1  0.40059792  0.21253831  0.40562917  1
  Pd  Pd192  1  -0.01076726  0.59838414  0.18980252  1
  Pd  Pd193  1  0.60169963  0.80210196  0.60199885  1
  Pd  Pd194  1  0.20589342  0.40473056  0.60428598  1
  Pd  Pd195  1  0.60762189  0.59911114  0.60805504  1
  Pd  Pd196  1  0.61488929  0.60903233  -0.01043203  1
  Pd  Pd197  1  0.21004501  0.00397493  0.21051792  1
  Pd  Pd198  1  0.39423357  0.19441320  0.79705171  1
  Pd  Pd199  1  0.00385023  0.20839256  0.40255142  1
  Rh  Rh200  1  0.79822107  0.60128575  0.80648829  1
  Rh  Rh201  1  0.79881020  0.20603634  0.80174264  1
  Rh  Rh202  1  0.20553637  0.59332833  0.60282656  1
  Rh  Rh203  1  0.19668319  0.38991804  0.20470561  1
  Rh  Rh204  1  0.19614273  0.39742591  0.79415918  1
  Rh  Rh205  1  0.59964298  0.20267806  -0.00554483  1
  Rh  Rh206  1  0.19499426  -0.00459744  0.80430542  1
  Rh  Rh207  1  0.40511707  0.79939529  0.59395038  1
  Rh  Rh208  1  0.60629208  0.39917483  0.59996501  1
  Rh  Rh209  1  0.79923692  0.19651011  0.40463511  1
  Rh  Rh210  1  0.60738406  0.19587399  0.80612100  1
  Rh  Rh211  1  0.60673538  -0.00270788  -0.00459043  1
  Rh  Rh212  1  0.79568893  0.40566536  0.00900461  1
  Rh  Rh213  1  0.81078151  0.40734792  0.39253615  1
  Rh  Rh214  1  0.40451677  0.40464372  0.40124554  1
  Rh  Rh215  1  0.19493444  0.19425835  0.00910817  1
  Rh  Rh216  1  0.39491070  0.00640842  0.60666097  1
  Rh  Rh217  1  0.00051741  0.01055852  0.80866569  1
  Rh  Rh218  1  0.20336794  0.60387178  0.20148061  1
  Rh  Rh219  1  0.59804980  0.80048421  0.80445412  1
  Rh  Rh220  1  -0.00108585  0.20020986  0.80453638  1
  Rh  Rh221  1  -0.00369314  0.39244113  0.20692188  1
  Rh  Rh222  1  0.39757490  0.59283972  0.60186108  1
  Rh  Rh223  1  0.80475993  0.80512172  0.79049059  1
  Rh  Rh224  1  0.41155574  0.58914316  0.79016104  1
  Rh  Rh225  1  0.79833610  0.20746952  0.19739675  1
  Rh  Rh226  1  0.20067982  0.60355615  0.79978691  1
  Rh  Rh227  1  0.60191656  0.59614759  0.39940156  1
  Rh  Rh228  1  0.00086956  0.79671895  -0.00543720  1
  Rh  Rh229  1  0.00028966  0.80346842  0.20693004  1
  Rh  Rh230  1  0.40085443  0.59273104  0.39695187  1
  Rh  Rh231  1  0.39925331  0.59522955  0.20768718  1
  Rh  Rh232  1  0.60201133  0.59554255  0.20339565  1
  Rh  Rh233  1  0.19664567  0.40730497  -0.00345986  1
  Rh  Rh234  1  0.79525421  0.39489083  0.61111307  1
  Rh  Rh235  1  0.80419824  0.00354374  0.00083271  1
  Rh  Rh236  1  0.80359757  0.79106567  0.40337077  1
  Rh  Rh237  1  0.61043624  -0.00006690  0.61098681  1
  Rh  Rh238  1  0.80144037  0.19956271  0.00208967  1
  Rh  Rh239  1  0.00472743  0.80137934  0.79434339  1
  Rh  Rh240  1  0.60971763  0.40454106  0.79738105  1
  Rh  Rh241  1  0.79679268  0.00024685  0.19776310  1
  Rh  Rh242  1  0.79175889  0.60614090  0.59551316  1
  Rh  Rh243  1  -0.00857015  0.59700818  0.80357901  1
  Rh  Rh244  1  0.79377819  0.79541197  0.00298644  1
  Rh  Rh245  1  0.60311422  0.20258082  0.40608973  1
  Rh  Rh246  1  0.79252094  0.00325689  0.79737539  1
  Rh  Rh247  1  0.19856362  0.20103435  0.79284495  1
  Rh  Rh248  1  0.20730819  0.59350378  0.39486085  1
  Rh  Rh249  1  0.39054546  -0.01144804  0.39572187  1
