# generated using pymatgen
data_ZrScNbPdRh
_symmetry_space_group_name_H-M   'P 1'
_cell_length_a   16.55988146
_cell_length_b   16.55778025
_cell_length_c   16.55956133
_cell_angle_alpha   90.04134728
_cell_angle_beta   89.98137521
_cell_angle_gamma   89.99720222
_symmetry_Int_Tables_number   1
_chemical_formula_structural   ZrScNbPdRh
_chemical_formula_sum   'Zr50 Sc50 Nb50 Pd50 Rh50'
_cell_volume   4540.54547621
_cell_formula_units_Z   50
loop_
 _symmetry_equiv_pos_site_id
 _symmetry_equiv_pos_as_xyz
  1  'x, y, z'
loop_
 _atom_site_type_symbol
 _atom_site_label
 _atom_site_symmetry_multiplicity
 _atom_site_fract_x
 _atom_site_fract_y
 _atom_site_fract_z
 _atom_site_occupancy
  Zr  Zr0  1  0.69735698  0.29891338  0.70063744  1
  Zr  Zr1  1  0.10025559  0.49384634  0.09425421  1
  Zr  Zr2  1  0.69893506  0.49869271  0.30603778  1
  Zr  Zr3  1  0.90427871  0.49087777  0.30622970  1
  Zr  Zr4  1  0.29396088  0.30139333  0.50004660  1
  Zr  Zr5  1  0.49223752  0.70047215  0.49653166  1
  Zr  Zr6  1  0.11002510  0.49936455  0.29526220  1
  Zr  Zr7  1  0.11259946  0.70351832  0.49700718  1
  Zr  Zr8  1  0.89936035  0.89200259  0.90487268  1
  Zr  Zr9  1  0.69067865  0.10572258  0.69985765  1
  Zr  Zr10  1  0.89924349  0.29114944  0.10063418  1
  Zr  Zr11  1  0.50504646  0.90311874  0.49960542  1
  Zr  Zr12  1  0.70103450  0.70409941  0.90298563  1
  Zr  Zr13  1  0.90967591  0.90694054  0.49461635  1
  Zr  Zr14  1  0.89502690  0.49747300  0.50042572  1
  Zr  Zr15  1  0.69905593  0.30240475  0.89480566  1
  Zr  Zr16  1  0.49921110  0.29337956  0.49594256  1
  Zr  Zr17  1  0.30515508  0.11532332  0.50461697  1
  Zr  Zr18  1  0.90247069  0.09933377  0.90651504  1
  Zr  Zr19  1  0.09400294  0.49880344  0.90218545  1
  Zr  Zr20  1  0.09394452  0.09844395  0.89957360  1
  Zr  Zr21  1  0.09627407  0.30267262  0.68878156  1
  Zr  Zr22  1  0.29590621  0.10248957  0.30254183  1
  Zr  Zr23  1  0.30021305  0.10291155  0.90431154  1
  Zr  Zr24  1  0.29638728  0.09936329  0.10459634  1
  Zr  Zr25  1  0.09080141  0.30602142  0.30762603  1
  Zr  Zr26  1  0.31472597  0.70129598  0.10804210  1
  Zr  Zr27  1  0.90242447  0.10270005  0.49778985  1
  Zr  Zr28  1  0.50175852  0.89035696  0.10395064  1
  Zr  Zr29  1  0.69985911  0.50201893  0.09823295  1
  Zr  Zr30  1  0.90536130  0.49568264  0.69828060  1
  Zr  Zr31  1  0.09217380  0.89666766  0.90253594  1
  Zr  Zr32  1  0.10127311  0.70429907  0.10307308  1
  Zr  Zr33  1  0.29761569  0.69923108  0.30184465  1
  Zr  Zr34  1  0.09801338  0.09912400  0.10098635  1
  Zr  Zr35  1  0.09758554  0.30200822  0.90867076  1
  Zr  Zr36  1  0.70106091  0.70750946  0.29461179  1
  Zr  Zr37  1  0.29889082  0.89563181  0.70101908  1
  Zr  Zr38  1  0.90839377  0.30065195  0.49395343  1
  Zr  Zr39  1  0.69618770  0.90478316  0.29421415  1
  Zr  Zr40  1  0.90069758  0.29959513  0.89793734  1
  Zr  Zr41  1  0.50081236  0.09438585  0.89534810  1
  Zr  Zr42  1  0.89428491  0.29695455  0.30540381  1
  Zr  Zr43  1  0.10766997  0.70388949  0.30409408  1
  Zr  Zr44  1  0.68575262  0.09990627  0.50602011  1
  Zr  Zr45  1  0.89714196  0.89074920  0.70088128  1
  Zr  Zr46  1  0.29930502  0.89545646  0.10515723  1
  Zr  Zr47  1  0.10389131  0.50054181  0.69694740  1
  Zr  Zr48  1  0.09561979  0.09937356  0.49760414  1
  Zr  Zr49  1  0.89689928  0.70371311  0.30336493  1
  Sc  Sc50  1  0.30832897  0.51386259  0.70498616  1
  Sc  Sc51  1  0.70942051  0.70227604  0.70139576  1
  Sc  Sc52  1  0.10473549  0.09485733  0.29995225  1
  Sc  Sc53  1  0.70527272  0.50433165  0.90393841  1
  Sc  Sc54  1  0.09855429  0.90519806  0.10431895  1
  Sc  Sc55  1  0.89668457  0.69993323  0.50301855  1
  Sc  Sc56  1  0.29948517  0.50038222  0.10171842  1
  Sc  Sc57  1  0.29573108  0.29812448  0.30917561  1
  Sc  Sc58  1  0.30621667  0.69485361  0.89527486  1
  Sc  Sc59  1  0.09009745  0.70488653  0.89231704  1
  Sc  Sc60  1  0.89851961  0.10080366  0.30013612  1
  Sc  Sc61  1  0.70189084  0.29936153  0.49972902  1
  Sc  Sc62  1  0.70282351  0.90256186  0.09840714  1
  Sc  Sc63  1  0.50876173  0.49244416  0.30836696  1
  Sc  Sc64  1  0.89052430  0.70573508  0.09147093  1
  Sc  Sc65  1  0.89581991  0.90569703  0.30544787  1
  Sc  Sc66  1  0.09220776  0.10369926  0.70007864  1
  Sc  Sc67  1  0.11171348  0.69810229  0.69879451  1
  Sc  Sc68  1  0.51016066  0.29451622  0.29712209  1
  Sc  Sc69  1  0.49782394  0.50500250  0.09576849  1
  Sc  Sc70  1  0.30367277  0.69789696  0.50687475  1
  Sc  Sc71  1  0.89692586  0.50472090  0.08859918  1
  Sc  Sc72  1  0.29671515  0.29843653  0.68457900  1
  Sc  Sc73  1  0.69646784  0.90272160  0.49404374  1
  Sc  Sc74  1  0.30251729  0.29211204  0.08846090  1
  Sc  Sc75  1  0.51187578  0.89529309  0.30111558  1
  Sc  Sc76  1  0.69571165  0.10061651  0.29401869  1
  Sc  Sc77  1  0.70283034  0.09433517  0.10502698  1
  Sc  Sc78  1  0.89852589  0.69645050  0.70183514  1
  Sc  Sc79  1  0.49692388  0.10845089  0.10838135  1
  Sc  Sc80  1  0.69825672  0.29324047  0.10937590  1
  Sc  Sc81  1  0.30349936  0.49523178  0.89833364  1
  Sc  Sc82  1  0.89893447  0.90490499  0.09489500  1
  Sc  Sc83  1  0.48857420  0.30614259  0.89560594  1
  Sc  Sc84  1  0.29285075  0.90403384  0.89451036  1
  Sc  Sc85  1  0.09849949  0.30196180  0.10038783  1
  Sc  Sc86  1  0.89598717  0.09605261  0.10404226  1
  Sc  Sc87  1  0.10660065  0.49864300  0.50922919  1
  Sc  Sc88  1  0.69596664  0.89234324  0.70115380  1
  Sc  Sc89  1  0.30056316  0.88963862  0.50209104  1
  Sc  Sc90  1  0.90508747  0.11172054  0.70311741  1
  Sc  Sc91  1  0.30280820  0.50488533  0.49355187  1
  Sc  Sc92  1  0.49147654  0.49594159  0.89297646  1
  Sc  Sc93  1  0.10503109  0.89208956  0.71120639  1
  Sc  Sc94  1  0.69794508  0.09761620  0.90330517  1
  Sc  Sc95  1  0.48520010  0.69323032  0.69576397  1
  Sc  Sc96  1  0.70360014  0.69479902  0.49405217  1
  Sc  Sc97  1  0.49843035  0.91057490  0.69817757  1
  Sc  Sc98  1  0.49888460  0.70689235  0.29598392  1
  Sc  Sc99  1  0.69875730  0.48545188  0.69927860  1
  Nb  Nb100  1  0.10477277  0.29736486  0.50304439  1
  Nb  Nb101  1  0.30346081  0.09966783  0.69656363  1
  Nb  Nb102  1  0.69105398  0.49660607  0.49772709  1
  Nb  Nb103  1  0.69645106  0.90335614  0.89711874  1
  Nb  Nb104  1  0.50227435  0.30238318  0.10199775  1
  Nb  Nb105  1  0.69782427  0.69205778  0.09499412  1
  Nb  Nb106  1  0.49970831  0.09822657  0.50312011  1
  Nb  Nb107  1  0.50193665  0.49557552  0.70199948  1
  Nb  Nb108  1  0.29385463  0.90159206  0.29608323  1
  Nb  Nb109  1  0.29994940  0.29898955  0.89418767  1
  Nb  Nb110  1  0.49585233  0.10459035  0.68661724  1
  Nb  Nb111  1  0.69727437  0.30582786  0.29377332  1
  Nb  Nb112  1  0.90419061  0.50471218  0.89958145  1
  Nb  Nb113  1  0.50827955  0.89580841  0.90146291  1
  Nb  Nb114  1  0.89660513  0.70141411  0.89687136  1
  Nb  Nb115  1  0.10393546  0.89563519  0.31366400  1
  Nb  Nb116  1  0.49857429  0.09789963  0.30454594  1
  Nb  Nb117  1  0.50439550  0.69886525  0.09318086  1
  Nb  Nb118  1  0.50485598  0.49926768  0.50288402  1
  Nb  Nb119  1  0.50590060  0.70017387  0.90738109  1
  Nb  Nb120  1  0.09982236  0.90019700  0.49707304  1
  Nb  Nb121  1  0.30264207  0.49782765  0.29587847  1
  Nb  Nb122  1  0.50509148  0.31097679  0.70369376  1
  Nb  Nb123  1  0.30224767  0.70634578  0.69925889  1
  Nb  Nb124  1  0.89909656  0.30077961  0.69799951  1
  Nb  Nb125  1  0.59427606  0.79077031  0.59756864  1
  Nb  Nb126  1  0.39900355  -0.00198549  0.20554211  1
  Nb  Nb127  1  0.40219659  0.00437889  0.39800372  1
  Nb  Nb128  1  0.79857488  0.39904844  0.20361456  1
  Nb  Nb129  1  0.00451495  0.59937828  0.39806127  1
  Nb  Nb130  1  -0.00111660  0.60331477  0.20386832  1
  Nb  Nb131  1  0.00652310  0.80283373  0.59400762  1
  Nb  Nb132  1  0.00076490  0.79877010  0.20798052  1
  Nb  Nb133  1  0.79874406  -0.00269812  0.79898440  1
  Nb  Nb134  1  0.59739374  0.39461329  0.00239453  1
  Nb  Nb135  1  0.20213921  0.79417541  0.00092631  1
  Nb  Nb136  1  0.40409770  -0.00498882  0.00321046  1
  Nb  Nb137  1  0.39739215  0.19811704  0.78932692  1
  Nb  Nb138  1  0.59344708  0.20659920  0.00105602  1
  Nb  Nb139  1  0.19871736  0.00051778  0.59934658  1
  Nb  Nb140  1  0.20057440  0.39371561  0.79948676  1
  Nb  Nb141  1  0.80097565  0.00293168  0.60465085  1
  Nb  Nb142  1  0.40948386  0.80241156  0.80679603  1
  Nb  Nb143  1  0.59698189  0.59405345  0.60070042  1
  Nb  Nb144  1  0.40938873  0.40485590  0.59909852  1
  Nb  Nb145  1  0.60234424  0.60508611  0.19414112  1
  Nb  Nb146  1  0.19864361  0.60501230  0.00091216  1
  Nb  Nb147  1  0.20358900  0.20269790  0.79862143  1
  Nb  Nb148  1  0.59510759  0.60101716  0.79675797  1
  Nb  Nb149  1  0.40118939  0.39811135  0.20244795  1
  Pd  Pd150  1  0.59386114  0.00740408  0.01009538  1
  Pd  Pd151  1  0.00331292  0.39618955  0.79834266  1
  Pd  Pd152  1  0.78845257  0.19519853  0.39789573  1
  Pd  Pd153  1  0.78927325  0.19629491  0.00267106  1
  Pd  Pd154  1  0.80296964  0.59838804  0.40048208  1
  Pd  Pd155  1  0.39995988  0.40029817  0.00795161  1
  Pd  Pd156  1  0.39890998  0.20555576  0.20780310  1
  Pd  Pd157  1  0.39380317  0.80552817  -0.01011380  1
  Pd  Pd158  1  -0.00093280  0.60458137  0.79624864  1
  Pd  Pd159  1  0.20119203  -0.00749937  0.00218572  1
  Pd  Pd160  1  0.79743549  0.80687720  0.58932895  1
  Pd  Pd161  1  0.79461515  0.59361607  0.79763056  1
  Pd  Pd162  1  0.79200976  0.00933779  0.40388176  1
  Pd  Pd163  1  0.19507380  0.21067353  0.20329749  1
  Pd  Pd164  1  0.59104710  0.78878600  0.78865222  1
  Pd  Pd165  1  0.60945274  0.80341565  0.00526354  1
  Pd  Pd166  1  0.21186576  0.38848834  0.19401794  1
  Pd  Pd167  1  -0.01013377  0.40558556  0.18952860  1
  Pd  Pd168  1  0.39713398  0.59577029  -0.00499765  1
  Pd  Pd169  1  0.00139749  -0.00693195  0.61092563  1
  Pd  Pd170  1  0.60512742  0.19943435  0.39562542  1
  Pd  Pd171  1  0.80247109  0.59413404  0.20008802  1
  Pd  Pd172  1  0.00199805  0.19646220  0.20524425  1
  Pd  Pd173  1  0.20017267  0.59920514  0.19298679  1
  Pd  Pd174  1  0.40077229  -0.00161889  0.80410652  1
  Pd  Pd175  1  0.19826484  0.40504370  0.40431912  1
  Pd  Pd176  1  0.79987666  0.39623879  0.59610588  1
  Pd  Pd177  1  0.39110335  -0.00523828  0.59030668  1
  Pd  Pd178  1  0.19537229  0.19990299  -0.00219006  1
  Pd  Pd179  1  0.79735120  0.39553228  0.00573826  1
  Pd  Pd180  1  0.80059885  0.19279016  0.80095008  1
  Pd  Pd181  1  0.79671772  0.80653581  0.40561485  1
  Pd  Pd182  1  0.78932225  0.59205830  0.60468637  1
  Pd  Pd183  1  0.41323150  0.59126925  0.20934241  1
  Pd  Pd184  1  0.80402662  0.19792352  0.59929778  1
  Pd  Pd185  1  0.19586910  0.01030057  0.79231892  1
  Pd  Pd186  1  0.39721332  0.80827788  0.39279441  1
  Pd  Pd187  1  -0.00877215  -0.00295576  0.79571708  1
  Pd  Pd188  1  0.40260222  0.59662944  0.39290117  1
  Pd  Pd189  1  0.20975390  -0.00054005  0.41125009  1
  Pd  Pd190  1  0.80399668  0.40633816  0.80192796  1
  Pd  Pd191  1  0.20089296  0.59785931  0.80697875  1
  Pd  Pd192  1  0.58891440  0.20282384  0.80439660  1
  Pd  Pd193  1  0.00074825  0.60985566  0.00418745  1
  Pd  Pd194  1  0.00341213  0.60892187  0.59311515  1
  Pd  Pd195  1  -0.00023574  -0.00765978  0.20740017  1
  Pd  Pd196  1  0.40380057  0.39736826  0.39748427  1
  Pd  Pd197  1  0.59673335  0.60837665  0.39614600  1
  Pd  Pd198  1  0.80459049  0.80760674  0.19247817  1
  Pd  Pd199  1  0.60313082  -0.00074085  0.79179079  1
  Rh  Rh200  1  0.60239133  0.39066735  0.40577889  1
  Rh  Rh201  1  -0.00269024  0.20543569  0.59652193  1
  Rh  Rh202  1  0.01341690  0.40955436  0.41279029  1
  Rh  Rh203  1  0.59330724  0.20964733  0.60192822  1
  Rh  Rh204  1  -0.00105992  0.00184111  0.00395850  1
  Rh  Rh205  1  0.40942415  0.21216977  0.60558278  1
  Rh  Rh206  1  0.21121527  0.60042571  0.60191199  1
  Rh  Rh207  1  0.40366061  0.80483690  0.20956954  1
  Rh  Rh208  1  0.60359661  0.79487758  0.40735186  1
  Rh  Rh209  1  0.59275698  0.00244201  0.19755174  1
  Rh  Rh210  1  0.21161342  0.80253368  0.40284031  1
  Rh  Rh211  1  0.59739226  0.39773189  0.59335668  1
  Rh  Rh212  1  0.00430919  0.20964338  0.80084747  1
  Rh  Rh213  1  0.00030163  0.19705601  0.00609245  1
  Rh  Rh214  1  0.21040360  0.79140568  0.80911632  1
  Rh  Rh215  1  -0.00108553  0.79493837  0.40246545  1
  Rh  Rh216  1  0.19545303  0.80529321  0.60099292  1
  Rh  Rh217  1  0.60615451  -0.00739392  0.60582212  1
  Rh  Rh218  1  0.19364035  0.80802150  0.19871734  1
  Rh  Rh219  1  0.19089007  0.20263875  0.39883990  1
  Rh  Rh220  1  0.20215322  0.59522447  0.40052958  1
  Rh  Rh221  1  0.79839629  -0.00160860  -0.00873866  1
  Rh  Rh222  1  -0.00432470  0.39816346  0.59572609  1
  Rh  Rh223  1  0.40560468  0.80447757  0.60953055  1
  Rh  Rh224  1  0.00242275  0.00402984  0.39082380  1
  Rh  Rh225  1  0.40358931  0.19759301  0.39606236  1
  Rh  Rh226  1  0.80134515  -0.00206164  0.20264029  1
  Rh  Rh227  1  0.79952358  0.80335625  0.80854747  1
  Rh  Rh228  1  0.00561695  0.19673941  0.39631569  1
  Rh  Rh229  1  0.80549408  0.60407306  -0.01007213  1
  Rh  Rh230  1  -0.00286592  0.79243522  0.78837453  1
  Rh  Rh231  1  0.40970376  0.19431894  -0.00983617  1
  Rh  Rh232  1  0.40123314  0.59261160  0.59665478  1
  Rh  Rh233  1  0.19804321  -0.00416429  0.20339339  1
  Rh  Rh234  1  -0.01273290  0.39648694  0.00243092  1
  Rh  Rh235  1  0.40844256  0.60942620  0.80619119  1
  Rh  Rh236  1  0.38596146  0.39080105  0.78453882  1
  Rh  Rh237  1  0.60080441  0.19441203  0.19810875  1
  Rh  Rh238  1  0.59538615  0.00368007  0.39583270  1
  Rh  Rh239  1  0.79784228  0.20261039  0.20519259  1
  Rh  Rh240  1  0.79379554  0.80197313  -0.00130465  1
  Rh  Rh241  1  0.00336781  0.79858517  0.00678825  1
  Rh  Rh242  1  0.59551527  0.59167891  -0.00418174  1
  Rh  Rh243  1  0.21592517  0.41467464  0.60691172  1
  Rh  Rh244  1  0.60426341  0.40944691  0.81267847  1
  Rh  Rh245  1  0.20689482  0.40627137  -0.00582154  1
  Rh  Rh246  1  0.59912326  0.40983821  0.19260376  1
  Rh  Rh247  1  0.78972774  0.39497863  0.39902771  1
  Rh  Rh248  1  0.60493370  0.79109166  0.18986596  1
  Rh  Rh249  1  0.19053939  0.18820166  0.60488464  1
