# generated using pymatgen
data_ZrScNbPdRh
_symmetry_space_group_name_H-M   'P 1'
_cell_length_a   16.55203604
_cell_length_b   16.55001684
_cell_length_c   16.55155332
_cell_angle_alpha   90.00283073
_cell_angle_beta   90.00763598
_cell_angle_gamma   89.99920667
_symmetry_Int_Tables_number   1
_chemical_formula_structural   ZrScNbPdRh
_chemical_formula_sum   'Zr50 Sc50 Nb50 Pd50 Rh50'
_cell_volume   4534.07412719
_cell_formula_units_Z   50
loop_
 _symmetry_equiv_pos_site_id
 _symmetry_equiv_pos_as_xyz
  1  'x, y, z'
loop_
 _atom_site_type_symbol
 _atom_site_label
 _atom_site_symmetry_multiplicity
 _atom_site_fract_x
 _atom_site_fract_y
 _atom_site_fract_z
 _atom_site_occupancy
  Zr  Zr0  1  0.10737090  0.09869592  0.10988213  1
  Zr  Zr1  1  0.70099112  0.89811775  0.48928729  1
  Zr  Zr2  1  0.29451891  0.30507720  0.89660792  1
  Zr  Zr3  1  0.90609101  0.89495952  0.89960630  1
  Zr  Zr4  1  0.09985946  0.90070074  0.90067262  1
  Zr  Zr5  1  0.70025721  0.50389371  0.29769273  1
  Zr  Zr6  1  0.69754828  0.90134117  0.90645374  1
  Zr  Zr7  1  0.49489739  0.11179730  0.08930466  1
  Zr  Zr8  1  0.89651812  0.50519509  0.29790118  1
  Zr  Zr9  1  0.09737333  0.89020814  0.31105230  1
  Zr  Zr10  1  0.90876124  0.10225153  0.30149978  1
  Zr  Zr11  1  0.69956322  0.70093617  0.29736604  1
  Zr  Zr12  1  0.28936590  0.90194168  0.50091613  1
  Zr  Zr13  1  0.89686723  0.89853651  0.30826590  1
  Zr  Zr14  1  0.30310575  0.89640975  0.70097097  1
  Zr  Zr15  1  0.90340387  0.29681536  0.30141376  1
  Zr  Zr16  1  0.89634242  0.50376348  0.09459499  1
  Zr  Zr17  1  0.50453328  0.69291426  0.89656636  1
  Zr  Zr18  1  0.29518426  0.90971653  0.09404280  1
  Zr  Zr19  1  0.29927457  0.10661126  0.50346300  1
  Zr  Zr20  1  0.08448161  0.70857600  0.91200400  1
  Zr  Zr21  1  0.50285171  0.89345663  0.30445275  1
  Zr  Zr22  1  0.10743952  0.50806628  0.50950863  1
  Zr  Zr23  1  0.70421191  0.09230221  0.50138967  1
  Zr  Zr24  1  0.09573705  0.49563391  0.69443844  1
  Zr  Zr25  1  0.70237971  0.89625140  0.29328580  1
  Zr  Zr26  1  0.69315985  0.30134651  0.50633539  1
  Zr  Zr27  1  0.70098829  0.10460304  0.70079523  1
  Zr  Zr28  1  0.70082095  0.08750797  0.09404401  1
  Zr  Zr29  1  0.50553293  0.89178941  0.88959706  1
  Zr  Zr30  1  0.09445406  0.90549476  0.70191951  1
  Zr  Zr31  1  0.91121564  0.49589633  0.50774978  1
  Zr  Zr32  1  0.30339217  0.49465720  0.09616119  1
  Zr  Zr33  1  0.50208518  0.09544688  0.69988390  1
  Zr  Zr34  1  0.30657893  0.09599110  0.90921797  1
  Zr  Zr35  1  0.50412900  0.29251416  0.69229499  1
  Zr  Zr36  1  0.89668370  0.29928769  0.10445674  1
  Zr  Zr37  1  0.50350535  0.10050706  0.89603393  1
  Zr  Zr38  1  0.69652091  0.90177225  0.69242215  1
  Zr  Zr39  1  0.50717185  0.50373971  0.69541687  1
  Zr  Zr40  1  0.29794133  0.70249939  0.30910610  1
  Zr  Zr41  1  0.50475801  0.89644150  0.50649409  1
  Zr  Zr42  1  0.29659799  0.70981112  0.09981697  1
  Zr  Zr43  1  0.09720182  0.29655238  0.29864324  1
  Zr  Zr44  1  0.49909937  0.50609268  0.90227206  1
  Zr  Zr45  1  0.30148579  0.50375497  0.49393744  1
  Zr  Zr46  1  0.08815122  0.30891726  0.50733152  1
  Zr  Zr47  1  0.30255704  0.29791606  0.09977329  1
  Zr  Zr48  1  0.70380042  0.30536247  0.29326705  1
  Zr  Zr49  1  0.09711098  0.29998496  0.90235405  1
  Sc  Sc50  1  0.50300637  0.11443884  0.49765367  1
  Sc  Sc51  1  0.91195503  0.09636210  0.10146108  1
  Sc  Sc52  1  0.09571327  0.49617496  0.09478916  1
  Sc  Sc53  1  0.51120582  0.89627151  0.10121952  1
  Sc  Sc54  1  0.30008512  0.69296971  0.50147981  1
  Sc  Sc55  1  0.90332679  0.10282737  0.69869774  1
  Sc  Sc56  1  0.69953162  0.49738853  0.10085199  1
  Sc  Sc57  1  0.29363104  0.89543625  0.29833913  1
  Sc  Sc58  1  0.50459183  0.49929200  0.30156898  1
  Sc  Sc59  1  0.09144459  0.90038124  0.50426995  1
  Sc  Sc60  1  0.08597254  0.09829285  0.89843353  1
  Sc  Sc61  1  0.50282354  0.50262587  0.49573899  1
  Sc  Sc62  1  0.28987141  0.10415853  0.69885430  1
  Sc  Sc63  1  0.31182137  0.69514686  0.89754272  1
  Sc  Sc64  1  0.90645359  0.10106476  0.50724971  1
  Sc  Sc65  1  0.10340250  0.89259861  0.09625626  1
  Sc  Sc66  1  0.90081104  0.70407820  0.29600146  1
  Sc  Sc67  1  0.69400574  0.09685462  0.89836625  1
  Sc  Sc68  1  0.50499344  0.69631480  0.09314442  1
  Sc  Sc69  1  0.49689228  0.70231767  0.49797948  1
  Sc  Sc70  1  0.89745331  0.89835746  0.50338759  1
  Sc  Sc71  1  0.09649620  0.48700202  0.89821447  1
  Sc  Sc72  1  0.09607200  0.30217097  0.09371139  1
  Sc  Sc73  1  0.50132496  0.29224916  0.90472481  1
  Sc  Sc74  1  0.49417201  0.70378581  0.70231084  1
  Sc  Sc75  1  0.08204469  0.69477063  0.69547845  1
  Sc  Sc76  1  0.50769293  0.10606212  0.30234339  1
  Sc  Sc77  1  0.28856711  0.29627539  0.69855904  1
  Sc  Sc78  1  0.50357282  0.89156597  0.69626011  1
  Sc  Sc79  1  0.30255369  0.49853729  0.90254261  1
  Sc  Sc80  1  0.70197725  0.70000852  0.49652899  1
  Sc  Sc81  1  0.89241486  0.30129621  0.70117607  1
  Sc  Sc82  1  0.70629387  0.30100662  0.89654782  1
  Sc  Sc83  1  0.09804202  0.30058537  0.70830807  1
  Sc  Sc84  1  0.70317988  0.50492012  0.89963547  1
  Sc  Sc85  1  0.90060303  0.70579592  0.50782855  1
  Sc  Sc86  1  0.70062085  0.50712312  0.51061792  1
  Sc  Sc87  1  0.50332884  0.49934239  0.09303524  1
  Sc  Sc88  1  0.28864441  0.49985969  0.69014914  1
  Sc  Sc89  1  0.89400784  0.50994056  0.70388425  1
  Sc  Sc90  1  0.90419394  0.30173923  0.90090488  1
  Sc  Sc91  1  0.69718465  0.69406459  0.89819110  1
  Sc  Sc92  1  0.28768670  0.10660898  0.28663307  1
  Sc  Sc93  1  0.70103670  0.09345652  0.30658379  1
  Sc  Sc94  1  0.50177802  0.30745134  0.09620103  1
  Sc  Sc95  1  0.09798533  0.09597140  0.51031369  1
  Sc  Sc96  1  0.50673641  0.30496800  0.30826620  1
  Sc  Sc97  1  0.30945783  0.30764803  0.29366935  1
  Sc  Sc98  1  0.09739418  0.09897994  0.30009051  1
  Sc  Sc99  1  0.89753362  0.90797390  0.10368888  1
  Nb  Nb100  1  0.89352537  0.70666222  0.70900382  1
  Nb  Nb101  1  0.29788333  0.50455405  0.29906329  1
  Nb  Nb102  1  0.10027916  0.70196612  0.49810787  1
  Nb  Nb103  1  0.29765625  0.89831145  0.90014675  1
  Nb  Nb104  1  0.70311861  0.29811988  0.10101606  1
  Nb  Nb105  1  0.09678106  0.69674788  0.09996278  1
  Nb  Nb106  1  0.89500912  0.50761879  0.90611931  1
  Nb  Nb107  1  0.89743813  0.69621163  0.90219384  1
  Nb  Nb108  1  0.70127578  0.31122760  0.70027651  1
  Nb  Nb109  1  0.30156969  0.10080948  0.10245524  1
  Nb  Nb110  1  0.71440002  0.68249114  0.69989433  1
  Nb  Nb111  1  0.09911741  0.70074317  0.30111506  1
  Nb  Nb112  1  0.70091572  0.70551829  0.09691328  1
  Nb  Nb113  1  0.29772511  0.70292683  0.70042645  1
  Nb  Nb114  1  0.49414314  0.69922125  0.30046772  1
  Nb  Nb115  1  0.30662234  0.30103635  0.49640995  1
  Nb  Nb116  1  0.70341065  0.89194078  0.09971668  1
  Nb  Nb117  1  0.90317451  0.29803993  0.49721549  1
  Nb  Nb118  1  0.89522179  0.09411533  0.90916826  1
  Nb  Nb119  1  0.09603742  0.09895412  0.69531689  1
  Nb  Nb120  1  0.91134466  0.69237923  0.08258024  1
  Nb  Nb121  1  0.10435157  0.50192063  0.30116432  1
  Nb  Nb122  1  0.70192719  0.49760659  0.70011805  1
  Nb  Nb123  1  0.90006010  0.88656957  0.70204929  1
  Nb  Nb124  1  0.49224314  0.30109636  0.49637966  1
  Nb  Nb125  1  0.19705179  0.60235086  0.19963520  1
  Nb  Nb126  1  0.80396607  0.39796495  0.40429850  1
  Nb  Nb127  1  0.19423129  0.60640340  0.80282116  1
  Nb  Nb128  1  0.19634293  0.79510984  0.60597734  1
  Nb  Nb129  1  0.39932038  0.00134523  0.59771235  1
  Nb  Nb130  1  0.40087542  0.00210261  0.19934289  1
  Nb  Nb131  1  0.20114156  0.40141963  0.39886573  1
  Nb  Nb132  1  0.60133734  0.40156012  0.79267694  1
  Nb  Nb133  1  0.80145659  0.79606756  0.00228232  1
  Nb  Nb134  1  0.80347332  0.20595054  0.40409347  1
  Nb  Nb135  1  0.19581240  0.60506761  0.00058985  1
  Nb  Nb136  1  0.19924800  0.21088338  0.40469472  1
  Nb  Nb137  1  0.60797119  0.20269709  0.19311425  1
  Nb  Nb138  1  0.39763010  0.00189940  0.39876794  1
  Nb  Nb139  1  0.39894963  -0.00334562  0.79950214  1
  Nb  Nb140  1  0.40579453  0.39916054  0.79127795  1
  Nb  Nb141  1  0.40010093  0.80456241  -0.00536954  1
  Nb  Nb142  1  0.80345881  -0.00535805  0.79969453  1
  Nb  Nb143  1  0.40156784  0.39422671  0.59642281  1
  Nb  Nb144  1  0.00828147  0.60379243  0.39851823  1
  Nb  Nb145  1  -0.00330559  0.40421521  0.20420989  1
  Nb  Nb146  1  0.80055597  0.19476402  0.00296198  1
  Nb  Nb147  1  0.39440747  0.60305320  0.20473835  1
  Nb  Nb148  1  0.19877489  0.79327968  0.79972273  1
  Nb  Nb149  1  0.20326184  0.19581048  0.00246300  1
  Pd  Pd150  1  0.41056863  0.19962744  0.20674126  1
  Pd  Pd151  1  0.19356592  0.18916929  0.80950645  1
  Pd  Pd152  1  0.60676666  0.20902058  0.80192470  1
  Pd  Pd153  1  0.19343195  0.40083189  0.19973980  1
  Pd  Pd154  1  0.41167331  0.40802931  0.20305212  1
  Pd  Pd155  1  0.59340332  0.60058609  0.19538364  1
  Pd  Pd156  1  0.59492577  0.79247004  0.20013370  1
  Pd  Pd157  1  0.60753282  0.40477183  0.40619786  1
  Pd  Pd158  1  0.39664310  0.80532771  0.40787313  1
  Pd  Pd159  1  0.80888044  -0.00312995  0.60752336  1
  Pd  Pd160  1  0.79961805  0.39517367  -0.00537296  1
  Pd  Pd161  1  0.81204817  0.79159816  0.19023660  1
  Pd  Pd162  1  0.80323277  0.19319481  0.80832212  1
  Pd  Pd163  1  0.60901351  0.78608934  0.60390297  1
  Pd  Pd164  1  0.60542628  0.39834429  -0.00972831  1
  Pd  Pd165  1  0.39938411  0.59641055  0.60242794  1
  Pd  Pd166  1  0.20164690  0.01125807  0.39523850  1
  Pd  Pd167  1  0.80057652  0.60906039  0.19008540  1
  Pd  Pd168  1  0.59207655  -0.00408886  0.00190207  1
  Pd  Pd169  1  0.80264333  0.00461439  0.20384480  1
  Pd  Pd170  1  0.00952394  -0.01242141  0.20126505  1
  Pd  Pd171  1  0.61265419  0.78795824  0.78978854  1
  Pd  Pd172  1  0.00229793  0.41012968  0.39462562  1
  Pd  Pd173  1  0.79614813  0.18489895  0.19943280  1
  Pd  Pd174  1  0.59722174  0.60515263  0.40179122  1
  Pd  Pd175  1  0.19062357  0.20778216  0.59474272  1
  Pd  Pd176  1  -0.00492927  0.80250706  0.19503914  1
  Pd  Pd177  1  0.80999848  0.59938847  0.40972320  1
  Pd  Pd178  1  0.59316913  0.00646676  0.19765301  1
  Pd  Pd179  1  0.00551285  0.59669662  0.20313544  1
  Pd  Pd180  1  0.19442614  0.80046839  0.20192623  1
  Pd  Pd181  1  0.59934724  0.60980790  0.60058490  1
  Pd  Pd182  1  0.59157117  0.00140573  0.40348670  1
  Pd  Pd183  1  0.38994859  0.58929528  0.78936114  1
  Pd  Pd184  1  -0.00056701  0.00206683  0.40862304  1
  Pd  Pd185  1  -0.00989387  0.00331125  0.79561755  1
  Pd  Pd186  1  0.00130551  0.59714611  0.80617987  1
  Pd  Pd187  1  0.19050913  0.00833023  -0.00332723  1
  Pd  Pd188  1  -0.00707320  0.19907709  0.79961788  1
  Pd  Pd189  1  -0.01303638  0.40439274  0.79793328  1
  Pd  Pd190  1  0.79039837  0.80173705  0.80773883  1
  Pd  Pd191  1  0.79389280  0.79648431  0.59836513  1
  Pd  Pd192  1  0.41252722  -0.00992904  -0.00040164  1
  Pd  Pd193  1  0.80470501  0.40218726  0.59776533  1
  Pd  Pd194  1  0.39218770  0.19441403  0.38689298  1
  Pd  Pd195  1  0.80255994  0.20252946  0.59637523  1
  Pd  Pd196  1  0.39444293  0.20019923  0.79512584  1
  Pd  Pd197  1  0.60371548  0.19676710  0.59748475  1
  Pd  Pd198  1  0.20335574  0.00228688  0.79996679  1
  Pd  Pd199  1  0.40594585  0.80163244  0.19146623  1
  Rh  Rh200  1  0.59328179  0.40075559  0.59916971  1
  Rh  Rh201  1  0.61151706  0.20593227  0.39456487  1
  Rh  Rh202  1  0.39773510  0.20057042  0.60400186  1
  Rh  Rh203  1  -0.00835253  0.60712948  0.59673674  1
  Rh  Rh204  1  0.39545617  0.80296562  0.80664502  1
  Rh  Rh205  1  -0.00874356  0.40163827  0.00362254  1
  Rh  Rh206  1  0.40702141  0.59801275  0.39266734  1
  Rh  Rh207  1  0.39243158  0.20789113  -0.00258904  1
  Rh  Rh208  1  0.19723724  0.21007332  0.19643556  1
  Rh  Rh209  1  0.60193686  0.79357952  0.39575426  1
  Rh  Rh210  1  0.80164636  -0.00399701  -0.00350757  1
  Rh  Rh211  1  0.79328430  0.60744735  0.00208930  1
  Rh  Rh212  1  0.19636492  0.61149530  0.61052246  1
  Rh  Rh213  1  -0.00367954  0.79335062  0.40394596  1
  Rh  Rh214  1  -0.00724456  -0.00466194  0.60559500  1
  Rh  Rh215  1  0.20649072  0.41196961  0.79959888  1
  Rh  Rh216  1  0.19763674  0.79664061  0.41023083  1
  Rh  Rh217  1  0.79991290  0.79676497  0.39989523  1
  Rh  Rh218  1  0.80999303  0.00689447  0.39907377  1
  Rh  Rh219  1  0.59974751  0.39647230  0.19641781  1
  Rh  Rh220  1  0.40452646  0.39555106  -0.01208474  1
  Rh  Rh221  1  0.19447551  0.60031991  0.39482526  1
  Rh  Rh222  1  0.00237265  0.20457526  0.60790085  1
  Rh  Rh223  1  0.80192363  0.59609308  0.80487701  1
  Rh  Rh224  1  0.20133786  0.39762166  0.00016510  1
  Rh  Rh225  1  0.00469485  0.19086318  0.40989947  1
  Rh  Rh226  1  0.60191453  -0.00315135  0.79452108  1
  Rh  Rh227  1  0.80640018  0.60068992  0.59793863  1
  Rh  Rh228  1  0.20754893  0.39270000  0.59145647  1
  Rh  Rh229  1  0.79785850  0.40780902  0.80327942  1
  Rh  Rh230  1  0.00296692  0.79513629  0.79653626  1
  Rh  Rh231  1  0.39278996  0.60811161  0.01275103  1
  Rh  Rh232  1  -0.00135259  0.19576305  0.00287120  1
  Rh  Rh233  1  0.39023896  0.80238986  0.59212887  1
  Rh  Rh234  1  0.20143214  -0.00917559  0.20544716  1
  Rh  Rh235  1  0.59460258  0.00427802  0.59528869  1
  Rh  Rh236  1  -0.00979978  0.81022190  0.01087433  1
  Rh  Rh237  1  0.19960873  -0.00478231  0.60674710  1
  Rh  Rh238  1  0.00127976  0.80030274  0.60243172  1
  Rh  Rh239  1  0.39703948  0.40615166  0.40184481  1
  Rh  Rh240  1  -0.00854329  0.39490568  0.61456790  1
  Rh  Rh241  1  0.00766848  0.58793728  -0.00800815  1
  Rh  Rh242  1  0.20750246  0.79229464  -0.01093076  1
  Rh  Rh243  1  0.60178464  0.79560478  -0.00129519  1
  Rh  Rh244  1  0.60742007  0.59783619  0.00379135  1
  Rh  Rh245  1  0.61244050  0.20254265  0.00477817  1
  Rh  Rh246  1  0.00648440  0.20628586  0.19218930  1
  Rh  Rh247  1  0.80213348  0.40797165  0.20191212  1
  Rh  Rh248  1  0.60500189  0.59712730  0.79215100  1
  Rh  Rh249  1  0.00462936  -0.00376891  0.00541413  1
