# generated using pymatgen
data_ZrScNbPdRh
_symmetry_space_group_name_H-M   'P 1'
_cell_length_a   16.55340515
_cell_length_b   16.55151944
_cell_length_c   16.55152117
_cell_angle_alpha   90.02345852
_cell_angle_beta   89.95991380
_cell_angle_gamma   89.97387168
_symmetry_Int_Tables_number   1
_chemical_formula_structural   ZrScNbPdRh
_chemical_formula_sum   'Zr50 Sc50 Nb50 Pd50 Rh50'
_cell_volume   4534.85013158
_cell_formula_units_Z   50
loop_
 _symmetry_equiv_pos_site_id
 _symmetry_equiv_pos_as_xyz
  1  'x, y, z'
loop_
 _atom_site_type_symbol
 _atom_site_label
 _atom_site_symmetry_multiplicity
 _atom_site_fract_x
 _atom_site_fract_y
 _atom_site_fract_z
 _atom_site_occupancy
  Zr  Zr0  1  0.09228599  0.30210151  0.90026576  1
  Zr  Zr1  1  0.29443121  0.30214109  0.09559277  1
  Zr  Zr2  1  0.30944916  0.69851515  0.10707168  1
  Zr  Zr3  1  0.89082277  0.10149698  0.90475977  1
  Zr  Zr4  1  0.89833531  0.69938137  0.90116743  1
  Zr  Zr5  1  0.69832035  0.30529540  0.10204622  1
  Zr  Zr6  1  0.09717353  0.90158903  0.70325942  1
  Zr  Zr7  1  0.69655581  0.50148059  0.69824768  1
  Zr  Zr8  1  0.89800849  0.70165664  0.70670100  1
  Zr  Zr9  1  0.70772169  0.09328522  0.50043562  1
  Zr  Zr10  1  0.50101333  0.90489344  0.70440047  1
  Zr  Zr11  1  0.49943810  0.89327185  0.90232515  1
  Zr  Zr12  1  0.49264914  0.09625698  0.30195308  1
  Zr  Zr13  1  0.09777727  0.30356673  0.28868017  1
  Zr  Zr14  1  0.10116229  0.48851556  0.09459059  1
  Zr  Zr15  1  0.89014278  0.91205931  0.50669589  1
  Zr  Zr16  1  0.50637390  0.49720346  0.50770669  1
  Zr  Zr17  1  0.49508036  0.29761198  0.90627196  1
  Zr  Zr18  1  0.89926687  0.89705619  0.89603235  1
  Zr  Zr19  1  0.90606798  0.29978989  0.50409863  1
  Zr  Zr20  1  0.50243932  0.30329767  0.10729945  1
  Zr  Zr21  1  0.09815395  0.10017374  0.28474628  1
  Zr  Zr22  1  0.30594849  0.49478949  0.88238242  1
  Zr  Zr23  1  0.49928328  0.29676908  0.30083953  1
  Zr  Zr24  1  0.28575355  0.10037097  0.09698787  1
  Zr  Zr25  1  0.09254431  0.70500711  0.30022452  1
  Zr  Zr26  1  0.68950149  0.30447964  0.29776063  1
  Zr  Zr27  1  0.90467846  0.89901898  0.29125084  1
  Zr  Zr28  1  0.30165595  0.10020791  0.49515267  1
  Zr  Zr29  1  0.29870751  0.70990994  0.89366913  1
  Zr  Zr30  1  0.30329147  0.90237240  0.30130919  1
  Zr  Zr31  1  0.89253976  0.51528612  0.30120872  1
  Zr  Zr32  1  0.50955430  0.87921602  0.50866690  1
  Zr  Zr33  1  0.89315644  0.89997563  0.09449753  1
  Zr  Zr34  1  0.51167204  0.09281333  0.89485221  1
  Zr  Zr35  1  0.89262569  0.31195137  0.30015971  1
  Zr  Zr36  1  0.70347852  0.90017932  0.29501729  1
  Zr  Zr37  1  0.29658681  0.09850093  0.90261922  1
  Zr  Zr38  1  0.29903978  0.89231902  0.50292100  1
  Zr  Zr39  1  0.49595702  0.50443238  0.10328470  1
  Zr  Zr40  1  0.49250440  0.50193610  0.70939167  1
  Zr  Zr41  1  0.10325654  0.10418202  0.70141001  1
  Zr  Zr42  1  0.29770709  0.09681197  0.29915189  1
  Zr  Zr43  1  0.30199119  0.09687703  0.69345208  1
  Zr  Zr44  1  0.30243537  0.49831291  0.09721740  1
  Zr  Zr45  1  0.90080256  0.69323175  0.49948711  1
  Zr  Zr46  1  0.10539073  0.89589106  0.90718992  1
  Zr  Zr47  1  0.91025123  0.28940679  0.70709963  1
  Zr  Zr48  1  0.90632723  0.08764406  0.69814935  1
  Zr  Zr49  1  0.50359343  0.70128573  0.69215696  1
  Sc  Sc50  1  0.70770965  0.49643596  0.29717167  1
  Sc  Sc51  1  0.71196458  0.89723546  0.70370753  1
  Sc  Sc52  1  0.70713863  0.69647277  0.69909553  1
  Sc  Sc53  1  0.70004390  0.50277624  0.49778757  1
  Sc  Sc54  1  0.29638177  0.89258013  0.10511730  1
  Sc  Sc55  1  0.09855340  0.70181339  0.89888688  1
  Sc  Sc56  1  0.90561600  0.30434216  0.09121084  1
  Sc  Sc57  1  0.88952822  0.09418413  0.29664291  1
  Sc  Sc58  1  0.50071081  0.30263868  0.49521101  1
  Sc  Sc59  1  0.68847541  0.30132982  0.49912452  1
  Sc  Sc60  1  0.29010984  0.70192677  0.69895237  1
  Sc  Sc61  1  0.50357695  0.71099381  0.09695235  1
  Sc  Sc62  1  0.70524593  0.90263680  0.90625826  1
  Sc  Sc63  1  0.10179307  0.69366953  0.70179926  1
  Sc  Sc64  1  0.70977301  0.69815540  0.29699964  1
  Sc  Sc65  1  0.50743690  0.29894830  0.68671409  1
  Sc  Sc66  1  0.10066328  0.30072538  0.69646562  1
  Sc  Sc67  1  0.70264511  0.89518914  0.50374065  1
  Sc  Sc68  1  0.90291280  0.50185140  0.49785618  1
  Sc  Sc69  1  0.10318856  0.10312698  0.50836448  1
  Sc  Sc70  1  0.10627962  0.09718531  0.90956815  1
  Sc  Sc71  1  0.89753725  0.10020916  0.50227225  1
  Sc  Sc72  1  0.29678508  0.31162650  0.70449515  1
  Sc  Sc73  1  0.30041947  0.49920014  0.29744859  1
  Sc  Sc74  1  0.11044260  0.69764866  0.49936900  1
  Sc  Sc75  1  0.69808734  0.10116801  0.30015294  1
  Sc  Sc76  1  0.89944554  0.50496895  0.90440775  1
  Sc  Sc77  1  0.10219194  0.89236805  0.29491150  1
  Sc  Sc78  1  0.70675785  0.28682812  0.90630194  1
  Sc  Sc79  1  0.90154246  0.69778078  0.09925431  1
  Sc  Sc80  1  0.09788800  0.50190792  0.30384841  1
  Sc  Sc81  1  0.10114798  0.49888749  0.50671962  1
  Sc  Sc82  1  0.68917093  0.10489253  0.71295801  1
  Sc  Sc83  1  0.10764420  0.89184099  0.49424289  1
  Sc  Sc84  1  0.29941537  0.89691637  0.70096833  1
  Sc  Sc85  1  0.89539970  0.50191224  0.09882713  1
  Sc  Sc86  1  0.50764634  0.10218243  0.09721082  1
  Sc  Sc87  1  0.10169488  0.50088210  0.89293320  1
  Sc  Sc88  1  0.90537062  0.09409423  0.10191857  1
  Sc  Sc89  1  0.28684703  0.50032741  0.49781295  1
  Sc  Sc90  1  0.30009583  0.30660861  0.49927989  1
  Sc  Sc91  1  0.69819045  0.09615501  0.09726140  1
  Sc  Sc92  1  0.70959590  0.50650391  0.09756881  1
  Sc  Sc93  1  0.70249335  0.69540786  0.90643451  1
  Sc  Sc94  1  0.10643948  0.50440200  0.69986642  1
  Sc  Sc95  1  0.49355107  0.11090103  0.50543429  1
  Sc  Sc96  1  0.29484881  0.70242104  0.29697386  1
  Sc  Sc97  1  0.90572515  0.51444681  0.70116252  1
  Sc  Sc98  1  0.29735971  0.30380573  0.90064410  1
  Sc  Sc99  1  0.49860621  0.48772385  0.29539707  1
  Nb  Nb100  1  0.50322703  0.50548699  0.89457926  1
  Nb  Nb101  1  0.30068058  0.29618448  0.30004089  1
  Nb  Nb102  1  0.50577662  0.89838920  0.10602034  1
  Nb  Nb103  1  0.50216137  0.89748206  0.29952846  1
  Nb  Nb104  1  0.30066389  0.70085233  0.49957444  1
  Nb  Nb105  1  0.29744141  0.50263407  0.69926564  1
  Nb  Nb106  1  0.49709823  0.70025170  0.29793864  1
  Nb  Nb107  1  0.10211460  0.70507826  0.10028839  1
  Nb  Nb108  1  0.70078612  0.30160704  0.69905722  1
  Nb  Nb109  1  0.50060758  0.69618814  0.89630870  1
  Nb  Nb110  1  0.50317580  0.69938683  0.50005710  1
  Nb  Nb111  1  0.89710841  0.29950173  0.89923284  1
  Nb  Nb112  1  0.09917836  0.10690929  0.09781283  1
  Nb  Nb113  1  0.70194120  0.49884411  0.90044331  1
  Nb  Nb114  1  0.09661446  0.29931895  0.49805938  1
  Nb  Nb115  1  0.50050661  0.10019393  0.70015554  1
  Nb  Nb116  1  0.68765991  0.70554365  0.49875890  1
  Nb  Nb117  1  0.69463909  0.09851037  0.90620510  1
  Nb  Nb118  1  0.30031148  0.90193010  0.90362730  1
  Nb  Nb119  1  0.69754390  0.88954727  0.09997826  1
  Nb  Nb120  1  0.90085288  0.89808558  0.70110288  1
  Nb  Nb121  1  0.70177742  0.70478126  0.09751179  1
  Nb  Nb122  1  0.09999986  0.28971227  0.09678994  1
  Nb  Nb123  1  0.90301887  0.69803984  0.30502405  1
  Nb  Nb124  1  0.08881545  0.89800118  0.10040176  1
  Nb  Nb125  1  -0.00706060  0.80330077  0.60337156  1
  Nb  Nb126  1  0.79763188  0.20482026  0.60740237  1
  Nb  Nb127  1  0.20724358  0.60088668  0.00155403  1
  Nb  Nb128  1  0.19405583  0.60233208  0.19137981  1
  Nb  Nb129  1  0.80565847  0.79495217  0.39979950  1
  Nb  Nb130  1  0.39588296  0.60183538  0.59589380  1
  Nb  Nb131  1  0.59853618  0.79664619  0.80573294  1
  Nb  Nb132  1  0.60094932  0.40796326  -0.00656577  1
  Nb  Nb133  1  0.59468470  -0.00729158  0.40388953  1
  Nb  Nb134  1  0.40257181  0.60232434  -0.01228003  1
  Nb  Nb135  1  0.00344928  0.20059892  0.39659437  1
  Nb  Nb136  1  0.59468626  0.60752630  0.39537956  1
  Nb  Nb137  1  0.79974722  0.39567076  0.80025367  1
  Nb  Nb138  1  0.60522683  0.40026767  0.80646473  1
  Nb  Nb139  1  0.40718087  0.79500267  0.39985528  1
  Nb  Nb140  1  0.40397523  0.19394491  0.79522553  1
  Nb  Nb141  1  0.79669244  0.20747425  0.19990946  1
  Nb  Nb142  1  0.40396409  0.60543405  0.40394334  1
  Nb  Nb143  1  0.80182420  0.39449923  0.60876836  1
  Nb  Nb144  1  0.19379129  0.20495940  0.39553529  1
  Nb  Nb145  1  0.59959236  0.60577299  0.20166276  1
  Nb  Nb146  1  0.00109709  0.00362353  0.39690204  1
  Nb  Nb147  1  0.39436798  0.19922470  0.20061995  1
  Nb  Nb148  1  0.39986665  -0.00816150  0.00022553  1
  Nb  Nb149  1  0.59780973  0.00162243  0.60163732  1
  Pd  Pd150  1  0.20238566  0.40369293  0.20137108  1
  Pd  Pd151  1  0.79658742  0.59647783  0.59371637  1
  Pd  Pd152  1  -0.00752450  0.40766451  0.19807778  1
  Pd  Pd153  1  0.59763309  0.59969212  0.00801895  1
  Pd  Pd154  1  0.19736777  -0.00487765  0.59752743  1
  Pd  Pd155  1  0.00386173  0.18756452  0.81090259  1
  Pd  Pd156  1  0.39267097  0.21137802  0.60541050  1
  Pd  Pd157  1  0.20600563  0.20528283  0.80220144  1
  Pd  Pd158  1  0.40168041  0.80034346  0.00452476  1
  Pd  Pd159  1  0.18871769  0.00598578  0.40030162  1
  Pd  Pd160  1  0.41060379  -0.01304671  0.41391750  1
  Pd  Pd161  1  0.80154791  0.79323108  0.59464688  1
  Pd  Pd162  1  0.40536065  0.40849204  -0.00437708  1
  Pd  Pd163  1  0.59526866  0.21052558  0.80277094  1
  Pd  Pd164  1  0.60156652  0.79300598  0.20437031  1
  Pd  Pd165  1  0.80800308  0.79207443  0.20133316  1
  Pd  Pd166  1  0.80170354  0.19644227  0.01261258  1
  Pd  Pd167  1  0.00050213  0.00167897  -0.00210496  1
  Pd  Pd168  1  0.00419172  0.00443103  0.81229428  1
  Pd  Pd169  1  0.00833924  0.60064211  0.00042057  1
  Pd  Pd170  1  0.00443157  0.59744615  0.19383230  1
  Pd  Pd171  1  0.79430705  0.39971807  0.41212625  1
  Pd  Pd172  1  0.40126243  0.18810847  0.00171234  1
  Pd  Pd173  1  0.59933228  -0.00954115  0.00384124  1
  Pd  Pd174  1  0.00983247  0.59622354  0.40720236  1
  Pd  Pd175  1  -0.00267007  0.40655981  0.60801968  1
  Pd  Pd176  1  0.00485115  0.79626828  0.79772219  1
  Pd  Pd177  1  0.79846911  0.19705003  0.79689978  1
  Pd  Pd178  1  0.20153123  -0.00374426  0.79937275  1
  Pd  Pd179  1  0.80362307  0.20414347  0.39924631  1
  Pd  Pd180  1  0.19208876  -0.00965958  0.19264620  1
  Pd  Pd181  1  -0.01526748  0.20176330  0.20155068  1
  Pd  Pd182  1  -0.00350393  0.40324399  -0.00494777  1
  Pd  Pd183  1  0.60337223  0.00289142  0.20361108  1
  Pd  Pd184  1  0.59891979  0.19079561  0.40410567  1
  Pd  Pd185  1  0.39481985  0.40488015  0.59980802  1
  Pd  Pd186  1  0.40215204  0.79712705  0.79170124  1
  Pd  Pd187  1  0.40739487  -0.00484826  0.59316200  1
  Pd  Pd188  1  0.19651017  0.39622314  0.39873266  1
  Pd  Pd189  1  -0.00860638  0.80956337  0.41126424  1
  Pd  Pd190  1  0.01071300  -0.00568843  0.59067204  1
  Pd  Pd191  1  0.00127062  0.40287784  0.39873492  1
  Pd  Pd192  1  0.39800340  0.40748967  0.40126210  1
  Pd  Pd193  1  0.40208483  0.00199433  0.18668922  1
  Pd  Pd194  1  0.20152772  0.79705965  0.00660184  1
  Pd  Pd195  1  0.60788777  0.60489037  0.79929972  1
  Pd  Pd196  1  0.39623064  0.00391371  0.80571466  1
  Pd  Pd197  1  0.20610518  0.21019678  0.59565417  1
  Pd  Pd198  1  0.79341409  0.00381403  0.80096763  1
  Pd  Pd199  1  -0.00479534  0.40907473  0.79685588  1
  Rh  Rh200  1  0.19245170  0.39897992  0.79664434  1
  Rh  Rh201  1  0.19618943  0.80586383  0.79919428  1
  Rh  Rh202  1  0.80077607  0.59519657  0.80507032  1
  Rh  Rh203  1  0.80037027  0.60354392  0.00106067  1
  Rh  Rh204  1  0.60765474  0.41767249  0.19104936  1
  Rh  Rh205  1  0.79530435  -0.00052695  0.00364510  1
  Rh  Rh206  1  -0.00264377  0.19497163  0.59522575  1
  Rh  Rh207  1  0.19512855  0.39902359  -0.00769651  1
  Rh  Rh208  1  0.60850571  -0.00947449  0.79690289  1
  Rh  Rh209  1  0.80056980  -0.01026460  0.39163898  1
  Rh  Rh210  1  0.60854088  0.19037859  0.59387886  1
  Rh  Rh211  1  0.79341325  0.00480317  0.19142209  1
  Rh  Rh212  1  0.39329764  0.60988218  0.79512428  1
  Rh  Rh213  1  0.60313564  0.20497571  0.00135143  1
  Rh  Rh214  1  0.41302857  0.38516198  0.79358251  1
  Rh  Rh215  1  0.40148222  0.59938993  0.20493240  1
  Rh  Rh216  1  0.79799430  0.39957564  -0.00790481  1
  Rh  Rh217  1  0.59819292  0.19276498  0.20240888  1
  Rh  Rh218  1  0.60532655  0.79964651  0.38933279  1
  Rh  Rh219  1  0.79809632  0.60706272  0.19566043  1
  Rh  Rh220  1  -0.00149652  0.19703955  -0.00290373  1
  Rh  Rh221  1  0.59990751  0.41030477  0.39796117  1
  Rh  Rh222  1  -0.00468763  0.79674582  0.19212091  1
  Rh  Rh223  1  0.00614641  0.60809111  0.59763425  1
  Rh  Rh224  1  0.20615953  0.59875347  0.59980014  1
  Rh  Rh225  1  0.20422814  0.20497727  0.20054551  1
  Rh  Rh226  1  0.39271557  0.79282677  0.60025018  1
  Rh  Rh227  1  0.80315491  0.39835365  0.19430869  1
  Rh  Rh228  1  0.20323617  0.60361686  0.38977131  1
  Rh  Rh229  1  0.79447951  0.79790350  0.80728332  1
  Rh  Rh230  1  0.19604259  0.79834629  0.19871680  1
  Rh  Rh231  1  0.19359155  0.20817836  -0.00720861  1
  Rh  Rh232  1  0.60353531  0.80017751  -0.00576072  1
  Rh  Rh233  1  -0.00343867  0.79873618  0.00115646  1
  Rh  Rh234  1  0.61183557  0.80470184  0.61857804  1
  Rh  Rh235  1  0.00151088  0.60128508  0.80342388  1
  Rh  Rh236  1  0.20957344  0.79685015  0.39459389  1
  Rh  Rh237  1  0.19129826  0.79820895  0.60462807  1
  Rh  Rh238  1  0.20250291  0.60084651  0.80584656  1
  Rh  Rh239  1  0.19718871  0.39909477  0.60119697  1
  Rh  Rh240  1  0.79867939  0.79774268  -0.00067012  1
  Rh  Rh241  1  0.59902619  0.59978121  0.59723356  1
  Rh  Rh242  1  0.39289860  0.38916384  0.20204864  1
  Rh  Rh243  1  0.60402013  0.40209136  0.60425943  1
  Rh  Rh244  1  0.39209702  0.20430847  0.39740219  1
  Rh  Rh245  1  0.78806140  0.01204262  0.61688966  1
  Rh  Rh246  1  0.20058398  -0.01103170  0.00939785  1
  Rh  Rh247  1  0.40336832  0.80714009  0.20600649  1
  Rh  Rh248  1  0.79002655  0.60744301  0.40592414  1
  Rh  Rh249  1  0.00305482  -0.00260848  0.19856382  1
