# generated using pymatgen
data_ZrScNbPdRh
_symmetry_space_group_name_H-M   'P 1'
_cell_length_a   16.56021169
_cell_length_b   16.56675176
_cell_length_c   16.56064399
_cell_angle_alpha   89.96632225
_cell_angle_beta   89.99783778
_cell_angle_gamma   89.96889409
_symmetry_Int_Tables_number   1
_chemical_formula_structural   ZrScNbPdRh
_chemical_formula_sum   'Zr50 Sc50 Nb50 Pd50 Rh50'
_cell_volume   4543.39327148
_cell_formula_units_Z   50
loop_
 _symmetry_equiv_pos_site_id
 _symmetry_equiv_pos_as_xyz
  1  'x, y, z'
loop_
 _atom_site_type_symbol
 _atom_site_label
 _atom_site_symmetry_multiplicity
 _atom_site_fract_x
 _atom_site_fract_y
 _atom_site_fract_z
 _atom_site_occupancy
  Zr  Zr0  1  0.90083038  0.30063308  0.90322622  1
  Zr  Zr1  1  0.90120180  0.09199028  0.30221774  1
  Zr  Zr2  1  0.68898759  0.29987698  0.09511245  1
  Zr  Zr3  1  0.10028324  0.90808446  0.09392903  1
  Zr  Zr4  1  0.29413697  0.90753019  0.90052856  1
  Zr  Zr5  1  0.09457831  0.09681174  0.49844816  1
  Zr  Zr6  1  0.30260986  0.70467938  0.10987167  1
  Zr  Zr7  1  0.70489119  0.09568259  0.09792372  1
  Zr  Zr8  1  0.49021432  0.10304471  0.29824578  1
  Zr  Zr9  1  0.10457240  0.89528659  0.89969923  1
  Zr  Zr10  1  0.09568448  0.30163640  0.50974040  1
  Zr  Zr11  1  0.29519097  0.29540904  0.69488791  1
  Zr  Zr12  1  0.10267150  0.69223585  0.89980520  1
  Zr  Zr13  1  0.49840084  0.49259658  0.89777925  1
  Zr  Zr14  1  0.30628123  0.49924106  0.70127406  1
  Zr  Zr15  1  0.70223707  0.69647281  0.90715902  1
  Zr  Zr16  1  0.49457163  0.90336877  0.69591826  1
  Zr  Zr17  1  0.50958239  0.49509921  0.30012311  1
  Zr  Zr18  1  0.70347457  0.89964693  0.30536218  1
  Zr  Zr19  1  0.89306225  0.09432526  0.90528304  1
  Zr  Zr20  1  0.89225155  0.29498832  0.30650187  1
  Zr  Zr21  1  0.50288205  0.10146425  0.09363613  1
  Zr  Zr22  1  0.70967306  0.90291616  0.89863208  1
  Zr  Zr23  1  0.09937721  0.09724128  0.29733347  1
  Zr  Zr24  1  0.29381128  0.69766170  0.49397378  1
  Zr  Zr25  1  0.69513843  0.90388627  0.11083817  1
  Zr  Zr26  1  0.69580620  0.09149425  0.50328837  1
  Zr  Zr27  1  0.10187401  0.30598639  0.29772209  1
  Zr  Zr28  1  0.49992186  0.29569530  0.50209934  1
  Zr  Zr29  1  0.69854075  0.49308487  0.50064492  1
  Zr  Zr30  1  0.29761998  0.50164443  0.10051314  1
  Zr  Zr31  1  0.70572314  0.69888858  0.48894443  1
  Zr  Zr32  1  0.69740179  0.30173161  0.30268126  1
  Zr  Zr33  1  0.50237086  0.29610968  0.29118019  1
  Zr  Zr34  1  0.09293151  0.49991298  0.29952631  1
  Zr  Zr35  1  0.50289513  0.90514594  0.49732863  1
  Zr  Zr36  1  0.50834647  0.69530827  0.10432697  1
  Zr  Zr37  1  0.90215804  0.30064492  0.69223589  1
  Zr  Zr38  1  0.89936557  0.30192966  0.49945580  1
  Zr  Zr39  1  0.50721892  0.49690026  0.09711999  1
  Zr  Zr40  1  0.89666379  0.89319433  0.70813492  1
  Zr  Zr41  1  0.90586079  0.89999673  0.90734122  1
  Zr  Zr42  1  0.69477265  0.90302365  0.49983640  1
  Zr  Zr43  1  0.30195617  0.29587598  0.09543549  1
  Zr  Zr44  1  0.10071197  0.10520806  0.90643490  1
  Zr  Zr45  1  0.89632155  0.70001932  0.11454186  1
  Zr  Zr46  1  0.09312402  0.49243197  0.10189309  1
  Zr  Zr47  1  0.50301119  0.10365613  0.70201317  1
  Zr  Zr48  1  0.29355795  0.70153453  0.30129937  1
  Zr  Zr49  1  0.50109305  0.50390414  0.49946452  1
  Sc  Sc50  1  0.09796927  0.70048068  0.49879058  1
  Sc  Sc51  1  0.69637689  0.50761570  0.09192283  1
  Sc  Sc52  1  0.09599471  0.49953230  0.49047609  1
  Sc  Sc53  1  0.30025744  0.28542522  0.29938605  1
  Sc  Sc54  1  0.69713500  0.31251778  0.69314723  1
  Sc  Sc55  1  0.50296031  0.91582964  0.90138449  1
  Sc  Sc56  1  0.09940482  0.90345476  0.29338665  1
  Sc  Sc57  1  0.89964507  0.50063190  0.90191484  1
  Sc  Sc58  1  0.89590840  0.29992297  0.08967231  1
  Sc  Sc59  1  0.70616715  0.09476142  0.29714058  1
  Sc  Sc60  1  0.28518416  0.49864198  0.29930621  1
  Sc  Sc61  1  0.29363186  0.88675732  0.50893936  1
  Sc  Sc62  1  0.49773429  0.70247461  0.29533676  1
  Sc  Sc63  1  0.90825659  0.69964949  0.90046173  1
  Sc  Sc64  1  0.29964091  0.09739532  0.10163516  1
  Sc  Sc65  1  0.89856260  0.10532344  0.49626673  1
  Sc  Sc66  1  0.29558404  0.50103714  0.49218004  1
  Sc  Sc67  1  0.29131041  0.29956788  0.49677290  1
  Sc  Sc68  1  0.90861064  0.90427613  0.10350274  1
  Sc  Sc69  1  0.70778204  0.30511949  0.49795926  1
  Sc  Sc70  1  0.50565030  0.70030518  0.89431987  1
  Sc  Sc71  1  0.50770096  0.90087059  0.29760686  1
  Sc  Sc72  1  0.09644712  0.70059410  0.09673165  1
  Sc  Sc73  1  0.90806209  0.69672750  0.70322825  1
  Sc  Sc74  1  0.71229472  0.71655484  0.70980376  1
  Sc  Sc75  1  0.09446364  0.70297724  0.69717635  1
  Sc  Sc76  1  0.49932643  0.49457654  0.70046448  1
  Sc  Sc77  1  0.50013150  0.09590790  0.51053539  1
  Sc  Sc78  1  0.48561800  0.69895905  0.49546299  1
  Sc  Sc79  1  0.90009000  0.10392467  0.69486534  1
  Sc  Sc80  1  0.10851830  0.11175364  0.70005726  1
  Sc  Sc81  1  0.09997517  0.69936449  0.29843726  1
  Sc  Sc82  1  0.29765102  0.90338940  0.09756427  1
  Sc  Sc83  1  0.49889973  0.90566732  0.10793832  1
  Sc  Sc84  1  0.30296713  0.11508955  0.50704059  1
  Sc  Sc85  1  0.29928507  0.50382317  0.89312737  1
  Sc  Sc86  1  0.90369722  0.50604191  0.30044023  1
  Sc  Sc87  1  0.90477579  0.50118509  0.49346506  1
  Sc  Sc88  1  0.30576294  0.69690331  0.69614005  1
  Sc  Sc89  1  0.70507474  0.90627714  0.70527629  1
  Sc  Sc90  1  0.50130854  0.29977205  0.71065750  1
  Sc  Sc91  1  0.90135609  0.49749805  0.09926801  1
  Sc  Sc92  1  0.70138855  0.50200859  0.31248891  1
  Sc  Sc93  1  0.09384729  0.50700661  0.69729849  1
  Sc  Sc94  1  0.70665814  0.49557541  0.90078780  1
  Sc  Sc95  1  0.30541015  0.09971396  0.70293176  1
  Sc  Sc96  1  0.69212735  0.09222742  0.90381798  1
  Sc  Sc97  1  0.29647351  0.88833017  0.29072190  1
  Sc  Sc98  1  0.89536521  0.91020487  0.49989876  1
  Sc  Sc99  1  0.90603910  0.69416703  0.50239521  1
  Nb  Nb100  1  0.89320090  0.70253828  0.30328267  1
  Nb  Nb101  1  0.09738114  0.30012705  0.70409672  1
  Nb  Nb102  1  0.29959527  0.10050247  0.30646292  1
  Nb  Nb103  1  0.09745889  0.29617388  0.90060685  1
  Nb  Nb104  1  0.31381607  0.10283748  0.90588056  1
  Nb  Nb105  1  0.09895711  0.49739328  0.90041729  1
  Nb  Nb106  1  0.49231197  0.10871228  0.89864382  1
  Nb  Nb107  1  0.71585296  0.70735643  0.29161719  1
  Nb  Nb108  1  0.69994901  0.70463587  0.10374399  1
  Nb  Nb109  1  0.30255336  0.70219834  0.90326010  1
  Nb  Nb110  1  0.90255826  0.09781464  0.09915209  1
  Nb  Nb111  1  0.69986545  0.30056983  0.90236611  1
  Nb  Nb112  1  0.49804924  0.29521634  0.91017032  1
  Nb  Nb113  1  0.50222086  0.30187222  0.09602358  1
  Nb  Nb114  1  0.70023072  0.10373260  0.70447562  1
  Nb  Nb115  1  0.11097060  0.90181181  0.69606882  1
  Nb  Nb116  1  0.10541111  0.89623687  0.50318680  1
  Nb  Nb117  1  0.70180868  0.50067931  0.69725580  1
  Nb  Nb118  1  0.50226726  0.69995081  0.69675342  1
  Nb  Nb119  1  0.29033338  0.89689089  0.70361048  1
  Nb  Nb120  1  0.30748782  0.29646585  0.89724480  1
  Nb  Nb121  1  0.09580421  0.29493479  0.09162352  1
  Nb  Nb122  1  0.09510958  0.10073934  0.09991874  1
  Nb  Nb123  1  0.90250310  0.90160107  0.30117569  1
  Nb  Nb124  1  0.89559889  0.50123123  0.70130810  1
  Nb  Nb125  1  0.20228165  0.60008795  0.59747589  1
  Nb  Nb126  1  0.40335866  0.79789456  -0.00475849  1
  Nb  Nb127  1  -0.00401312  0.80618349  0.39662036  1
  Nb  Nb128  1  0.00085993  0.19902257  0.19250160  1
  Nb  Nb129  1  0.00766585  -0.00226320  0.79503288  1
  Nb  Nb130  1  0.19220282  0.39278075  0.80360479  1
  Nb  Nb131  1  0.59873395  0.79595985  0.60037538  1
  Nb  Nb132  1  0.59927682  0.19731478  0.40002818  1
  Nb  Nb133  1  0.79237806  0.20234820  0.79963061  1
  Nb  Nb134  1  0.00469150  0.39677104  0.80119296  1
  Nb  Nb135  1  0.79654970  0.79847928  0.00975778  1
  Nb  Nb136  1  0.40001818  0.60600555  -0.00100099  1
  Nb  Nb137  1  0.19407023  0.39252461  -0.00757937  1
  Nb  Nb138  1  0.39602199  0.80329590  0.80150921  1
  Nb  Nb139  1  0.79569038  0.59573475  0.60530037  1
  Nb  Nb140  1  0.79355911  0.39728364  0.20008581  1
  Nb  Nb141  1  0.00909356  -0.00746755  0.60723202  1
  Nb  Nb142  1  0.38892969  0.00119120  0.39959350  1
  Nb  Nb143  1  0.40209265  0.39555290  0.39518407  1
  Nb  Nb144  1  0.60590307  0.59989470  0.79111724  1
  Nb  Nb145  1  0.20528674  -0.00040208  0.40127870  1
  Nb  Nb146  1  0.60497366  0.60767778  0.60617252  1
  Nb  Nb147  1  0.40356480  0.39615020  0.19842707  1
  Nb  Nb148  1  0.60252116  0.80110218  0.00283247  1
  Nb  Nb149  1  0.39871899  0.39870012  0.59478834  1
  Pd  Pd150  1  0.60352553  0.19001235  0.20274845  1
  Pd  Pd151  1  0.79453155  0.58733521  0.20227570  1
  Pd  Pd152  1  0.59449890  0.80172368  0.80016917  1
  Pd  Pd153  1  0.39220955  0.40678546  0.00063857  1
  Pd  Pd154  1  0.38598947  -0.00217202  0.59349689  1
  Pd  Pd155  1  0.40777652  0.60690719  0.80328357  1
  Pd  Pd156  1  -0.01451310  0.38860971  0.19961066  1
  Pd  Pd157  1  0.00393638  0.20478920  0.39471593  1
  Pd  Pd158  1  0.18946030  0.60352549  0.19680959  1
  Pd  Pd159  1  -0.00289983  0.80655563  0.59310431  1
  Pd  Pd160  1  0.79963789  0.60427202  0.79747577  1
  Pd  Pd161  1  0.20888590  0.19954133  0.80516343  1
  Pd  Pd162  1  0.20381323  0.59521019  0.00109849  1
  Pd  Pd163  1  -0.01017432  0.19653182  0.79916578  1
  Pd  Pd164  1  0.59886891  0.00253694  0.79850393  1
  Pd  Pd165  1  0.80533843  0.39356303  0.79887537  1
  Pd  Pd166  1  0.20571809  0.19796617  -0.00040575  1
  Pd  Pd167  1  0.20609998  0.39229135  0.19421673  1
  Pd  Pd168  1  0.59455669  0.79117979  0.40049470  1
  Pd  Pd169  1  0.39402426  -0.00326358  0.20500891  1
  Pd  Pd170  1  0.60613680  0.20474013  0.80640496  1
  Pd  Pd171  1  0.80822867  0.60274072  0.00509598  1
  Pd  Pd172  1  0.19598342  0.19761393  0.19594904  1
  Pd  Pd173  1  0.20421731  0.78767888  0.79416289  1
  Pd  Pd174  1  0.19279469  0.19773874  0.40431894  1
  Pd  Pd175  1  -0.00535635  0.60066085  0.00411710  1
  Pd  Pd176  1  0.80593750  0.20375807  0.19467903  1
  Pd  Pd177  1  0.39997979  0.59001765  0.20368116  1
  Pd  Pd178  1  0.61342084  0.59995099  0.21134569  1
  Pd  Pd179  1  0.80000120  0.79464504  0.59340961  1
  Pd  Pd180  1  0.39939613  0.81013228  0.39445117  1
  Pd  Pd181  1  0.19726819  0.59943959  0.79181517  1
  Pd  Pd182  1  0.79198240  0.20157627  0.60174419  1
  Pd  Pd183  1  0.39711111  -0.00243102  0.79894139  1
  Pd  Pd184  1  0.80509592  0.00251011  0.60550415  1
  Pd  Pd185  1  0.40037996  0.80019097  0.60279537  1
  Pd  Pd186  1  0.00399989  0.80004190  0.20495552  1
  Pd  Pd187  1  0.39471133  0.59114911  0.38673240  1
  Pd  Pd188  1  0.20408641  0.00731272  0.59378704  1
  Pd  Pd189  1  0.00670559  0.80269778  0.80058691  1
  Pd  Pd190  1  0.19830194  0.01348375  0.80323255  1
  Pd  Pd191  1  0.60268267  0.40198301  0.80474591  1
  Pd  Pd192  1  0.79366333  0.19858314  -0.00473079  1
  Pd  Pd193  1  0.20527312  0.00056693  0.20265751  1
  Pd  Pd194  1  0.81037910  0.80488999  0.40791994  1
  Pd  Pd195  1  0.60635446  0.20531402  0.59746916  1
  Pd  Pd196  1  0.20087281  0.40906039  0.60401272  1
  Pd  Pd197  1  0.59959519  0.61245719  0.39763182  1
  Pd  Pd198  1  0.20363490  0.79759909  0.00507725  1
  Pd  Pd199  1  -0.00198822  0.40985414  0.60338360  1
  Rh  Rh200  1  0.00078007  0.59193643  0.80125149  1
  Rh  Rh201  1  0.00416252  0.00336165  -0.00606540  1
  Rh  Rh202  1  0.19190996  0.60058819  0.40310380  1
  Rh  Rh203  1  -0.00469875  0.19468054  0.00460405  1
  Rh  Rh204  1  0.80774416  0.40718313  0.39395284  1
  Rh  Rh205  1  -0.00155975  0.61251063  0.39424419  1
  Rh  Rh206  1  0.20035103  0.78631359  0.60538918  1
  Rh  Rh207  1  0.79940007  0.00002801  0.39948608  1
  Rh  Rh208  1  0.80674576  -0.00484792  0.19967650  1
  Rh  Rh209  1  0.60092849  0.79695131  0.20158667  1
  Rh  Rh210  1  0.80801773  0.01227624  0.79278890  1
  Rh  Rh211  1  0.80830327  0.40820929  0.59602875  1
  Rh  Rh212  1  0.19509167  0.19960028  0.59877225  1
  Rh  Rh213  1  0.80475821  0.59898823  0.40387576  1
  Rh  Rh214  1  0.20103660  0.00973125  -0.00124489  1
  Rh  Rh215  1  0.59129775  0.40506208  0.59932524  1
  Rh  Rh216  1  0.78860239  0.18987773  0.40718179  1
  Rh  Rh217  1  -0.00129895  0.59605571  0.59980082  1
  Rh  Rh218  1  -0.00122265  0.39528868  0.39699929  1
  Rh  Rh219  1  0.40671990  0.19779125  0.40697626  1
  Rh  Rh220  1  0.59460709  0.38902929  0.40516474  1
  Rh  Rh221  1  0.59664932  -0.00130977  0.00050802  1
  Rh  Rh222  1  0.00330309  0.40210938  -0.00679959  1
  Rh  Rh223  1  0.40469723  0.80388912  0.19491410  1
  Rh  Rh224  1  -0.00214756  0.00609331  0.19713264  1
  Rh  Rh225  1  0.40315594  0.20754899  0.60751471  1
  Rh  Rh226  1  0.80024067  -0.00969207  0.01091372  1
  Rh  Rh227  1  0.80988815  0.79598666  0.81470039  1
  Rh  Rh228  1  0.59988655  0.00653169  0.20564881  1
  Rh  Rh229  1  0.39785308  0.20181275  0.18895059  1
  Rh  Rh230  1  0.39908407  0.59142703  0.59926619  1
  Rh  Rh231  1  0.58828945  0.01198739  0.39268942  1
  Rh  Rh232  1  0.60323443  0.39994783  -0.00844001  1
  Rh  Rh233  1  0.00363463  0.19235428  0.59937488  1
  Rh  Rh234  1  0.59261684  0.60184208  -0.01253329  1
  Rh  Rh235  1  -0.00550822  0.79349282  0.00497868  1
  Rh  Rh236  1  0.80363357  0.81083460  0.19779118  1
  Rh  Rh237  1  0.40156692  -0.00163385  0.00023405  1
  Rh  Rh238  1  0.39247933  0.38842653  0.79550359  1
  Rh  Rh239  1  -0.00082801  0.60230027  0.20203736  1
  Rh  Rh240  1  0.20141623  0.39458632  0.39663274  1
  Rh  Rh241  1  0.59950100  0.19613230  -0.00644948  1
  Rh  Rh242  1  0.60580184  0.40602553  0.19500873  1
  Rh  Rh243  1  0.60532169  -0.00668199  0.61267940  1
  Rh  Rh244  1  0.19153299  0.80079832  0.19323360  1
  Rh  Rh245  1  0.40231865  0.19848502  0.00497557  1
  Rh  Rh246  1  0.00864380  -0.01194171  0.40951471  1
  Rh  Rh247  1  0.18910971  0.80683040  0.39374736  1
  Rh  Rh248  1  0.79394083  0.40174314  0.00753859  1
  Rh  Rh249  1  0.40082057  0.20261075  0.79831529  1
