# generated using pymatgen
data_ZrScNbPdRh
_symmetry_space_group_name_H-M   'P 1'
_cell_length_a   16.55403938
_cell_length_b   16.55898801
_cell_length_c   16.56660524
_cell_angle_alpha   90.04653178
_cell_angle_beta   90.03367860
_cell_angle_gamma   89.99594738
_symmetry_Int_Tables_number   1
_chemical_formula_structural   ZrScNbPdRh
_chemical_formula_sum   'Zr50 Sc50 Nb50 Pd50 Rh50'
_cell_volume   4541.20471349
_cell_formula_units_Z   50
loop_
 _symmetry_equiv_pos_site_id
 _symmetry_equiv_pos_as_xyz
  1  'x, y, z'
loop_
 _atom_site_type_symbol
 _atom_site_label
 _atom_site_symmetry_multiplicity
 _atom_site_fract_x
 _atom_site_fract_y
 _atom_site_fract_z
 _atom_site_occupancy
  Zr  Zr0  1  0.29587417  0.90497133  0.50592108  1
  Zr  Zr1  1  0.10205253  0.11089608  0.69915704  1
  Zr  Zr2  1  0.49334753  0.09651332  0.89382040  1
  Zr  Zr3  1  0.70447540  0.89841609  0.49919763  1
  Zr  Zr4  1  0.29071191  0.69954448  0.89553858  1
  Zr  Zr5  1  0.69586228  0.50376925  0.90693670  1
  Zr  Zr6  1  0.49695385  0.89537905  0.09625839  1
  Zr  Zr7  1  0.70829520  0.10793939  0.30327980  1
  Zr  Zr8  1  0.90477409  0.29244017  0.70723160  1
  Zr  Zr9  1  0.69836469  0.48871289  0.29955252  1
  Zr  Zr10  1  0.10477588  0.89596753  0.89740973  1
  Zr  Zr11  1  0.49974817  0.29390727  0.30303207  1
  Zr  Zr12  1  0.49842665  0.89194631  0.29118586  1
  Zr  Zr13  1  0.30500162  0.50731139  0.90079201  1
  Zr  Zr14  1  0.50384994  0.29262484  0.70037118  1
  Zr  Zr15  1  0.69935710  0.29993495  0.69514711  1
  Zr  Zr16  1  0.09418200  0.30004567  0.69299007  1
  Zr  Zr17  1  0.50599885  0.49644142  0.29485881  1
  Zr  Zr18  1  0.30126700  0.11105080  0.08806925  1
  Zr  Zr19  1  0.70359234  0.69711114  0.89554975  1
  Zr  Zr20  1  0.70347061  0.10609254  0.49856169  1
  Zr  Zr21  1  0.10628540  0.51249858  0.90449328  1
  Zr  Zr22  1  0.69850806  0.10376441  0.70098193  1
  Zr  Zr23  1  0.69884834  0.89811083  0.70092326  1
  Zr  Zr24  1  0.70129112  0.89602595  0.10232474  1
  Zr  Zr25  1  0.29835415  0.11240780  0.29384292  1
  Zr  Zr26  1  0.49593051  0.90295542  0.50687932  1
  Zr  Zr27  1  0.09138331  0.90464670  0.50100340  1
  Zr  Zr28  1  0.11112404  0.29425181  0.29715951  1
  Zr  Zr29  1  0.09762581  0.89644380  0.30202423  1
  Zr  Zr30  1  0.50514953  0.30322339  0.09534043  1
  Zr  Zr31  1  0.30144164  0.49733996  0.08696490  1
  Zr  Zr32  1  0.30274764  0.30075783  0.30056925  1
  Zr  Zr33  1  0.89115541  0.10281670  0.90078289  1
  Zr  Zr34  1  0.30595212  0.90160394  0.09665996  1
  Zr  Zr35  1  0.70211477  0.69700335  0.70373949  1
  Zr  Zr36  1  0.89519887  0.30177944  0.28765045  1
  Zr  Zr37  1  0.10186045  0.10683784  0.90604982  1
  Zr  Zr38  1  0.10031496  0.50498700  0.30385147  1
  Zr  Zr39  1  0.89960797  0.70038193  0.50632798  1
  Zr  Zr40  1  0.69655441  0.29366862  0.50135950  1
  Zr  Zr41  1  0.49520700  0.89962157  0.70298882  1
  Zr  Zr42  1  0.10917792  0.70025336  0.30780326  1
  Zr  Zr43  1  0.30559908  0.50765243  0.30752723  1
  Zr  Zr44  1  0.89381737  0.90416548  0.10673235  1
  Zr  Zr45  1  0.49004143  0.69186295  0.88860856  1
  Zr  Zr46  1  0.09906214  0.50177462  0.09531790  1
  Zr  Zr47  1  0.90163829  0.69329944  0.89856986  1
  Zr  Zr48  1  0.69727037  0.90448072  0.89727885  1
  Zr  Zr49  1  0.09676235  0.70460588  0.70786391  1
  Sc  Sc50  1  0.09577245  0.68764479  0.49934264  1
  Sc  Sc51  1  0.31067017  0.89696655  0.89835583  1
  Sc  Sc52  1  0.49595117  0.69313191  0.28711869  1
  Sc  Sc53  1  0.90584337  0.50312336  0.50673180  1
  Sc  Sc54  1  0.70195613  0.70564220  0.29120239  1
  Sc  Sc55  1  0.88986718  0.90859450  0.90421605  1
  Sc  Sc56  1  0.90419984  0.70611233  0.30534537  1
  Sc  Sc57  1  0.29090477  0.89275991  0.29062712  1
  Sc  Sc58  1  0.69792154  0.10037298  0.90098782  1
  Sc  Sc59  1  0.89808656  0.69438741  0.69528540  1
  Sc  Sc60  1  0.29701284  0.30645663  0.90931267  1
  Sc  Sc61  1  0.89852849  0.89998579  0.30906810  1
  Sc  Sc62  1  0.89504589  0.29957414  0.51029718  1
  Sc  Sc63  1  0.30543996  0.10338235  0.69889535  1
  Sc  Sc64  1  0.30077473  0.69964279  0.70507657  1
  Sc  Sc65  1  0.10667235  0.10236400  0.09924260  1
  Sc  Sc66  1  0.50856624  0.30045961  0.89610885  1
  Sc  Sc67  1  0.69960498  0.69488520  0.09805517  1
  Sc  Sc68  1  0.49929876  0.30150888  0.50118813  1
  Sc  Sc69  1  0.90678521  0.89373309  0.69546300  1
  Sc  Sc70  1  0.70377903  0.49698522  0.69868654  1
  Sc  Sc71  1  0.90102798  0.49473795  0.69230873  1
  Sc  Sc72  1  0.70041328  0.10370103  0.09589156  1
  Sc  Sc73  1  0.49598758  0.48699821  0.49403101  1
  Sc  Sc74  1  0.09860528  0.90229303  0.69687718  1
  Sc  Sc75  1  0.29681946  0.49566839  0.69832113  1
  Sc  Sc76  1  0.89633254  0.69988659  0.09791411  1
  Sc  Sc77  1  0.91058985  0.50091125  0.91435658  1
  Sc  Sc78  1  0.30253256  0.90251619  0.70099910  1
  Sc  Sc79  1  0.49419965  0.49758708  0.90389894  1
  Sc  Sc80  1  0.70300706  0.48504303  0.50664052  1
  Sc  Sc81  1  0.50025919  0.10954882  0.09095396  1
  Sc  Sc82  1  0.09830881  0.49955699  0.69453418  1
  Sc  Sc83  1  0.69757319  0.29937936  0.30457586  1
  Sc  Sc84  1  0.49680514  0.70470145  0.50278569  1
  Sc  Sc85  1  0.30696937  0.69866863  0.10001999  1
  Sc  Sc86  1  0.10918919  0.30486981  0.09990475  1
  Sc  Sc87  1  0.90137521  0.09523455  0.49038375  1
  Sc  Sc88  1  0.29884027  0.30154724  0.69551609  1
  Sc  Sc89  1  0.10316792  0.90277144  0.10150148  1
  Sc  Sc90  1  0.28918953  0.69119291  0.49594378  1
  Sc  Sc91  1  0.29780861  0.10338934  0.51137642  1
  Sc  Sc92  1  0.89143986  0.10304897  0.10325855  1
  Sc  Sc93  1  0.71238398  0.89632119  0.29391586  1
  Sc  Sc94  1  0.09904016  0.30380534  0.88886172  1
  Sc  Sc95  1  0.49941945  0.10448431  0.50724077  1
  Sc  Sc96  1  0.10229282  0.10043012  0.50683748  1
  Sc  Sc97  1  0.49594205  0.48528765  0.70390598  1
  Sc  Sc98  1  0.10134104  0.69810223  0.09999010  1
  Sc  Sc99  1  0.71006390  0.70389804  0.50752165  1
  Nb  Nb100  1  0.90263342  0.10488440  0.29794803  1
  Nb  Nb101  1  0.49974487  0.10336717  0.29839148  1
  Nb  Nb102  1  0.30043917  0.49665859  0.50482236  1
  Nb  Nb103  1  0.68747057  0.49452377  0.10637633  1
  Nb  Nb104  1  0.09478589  0.69998820  0.90034186  1
  Nb  Nb105  1  0.89519209  0.29946460  0.90502876  1
  Nb  Nb106  1  0.50665312  0.50515349  0.10318956  1
  Nb  Nb107  1  0.49777246  0.69582637  0.69638429  1
  Nb  Nb108  1  0.10099426  0.50105836  0.50232447  1
  Nb  Nb109  1  0.89800895  0.30712856  0.09264555  1
  Nb  Nb110  1  0.09919856  0.10090079  0.30142951  1
  Nb  Nb111  1  0.69977681  0.30572394  0.08636175  1
  Nb  Nb112  1  0.89920426  0.49312917  0.30043258  1
  Nb  Nb113  1  0.29813136  0.70115401  0.30762683  1
  Nb  Nb114  1  0.90322520  0.48878818  0.11100475  1
  Nb  Nb115  1  0.89739372  0.89554238  0.50283086  1
  Nb  Nb116  1  0.29776004  0.31179314  0.49671524  1
  Nb  Nb117  1  0.49836397  0.90160578  0.90072036  1
  Nb  Nb118  1  0.49795692  0.10372185  0.70395882  1
  Nb  Nb119  1  0.50465405  0.70173143  0.10257934  1
  Nb  Nb120  1  0.29815133  0.09961701  0.90007924  1
  Nb  Nb121  1  0.70279918  0.30014672  0.90825689  1
  Nb  Nb122  1  0.10041053  0.30231857  0.49810690  1
  Nb  Nb123  1  0.89730486  0.10071184  0.70602585  1
  Nb  Nb124  1  0.30345142  0.30331358  0.10214270  1
  Nb  Nb125  1  0.80156842  0.39418470  0.81125042  1
  Nb  Nb126  1  0.39818155  -0.00037263  0.39178520  1
  Nb  Nb127  1  0.00200608  0.00781845  0.80179166  1
  Nb  Nb128  1  0.19512606  0.79816264  0.59912783  1
  Nb  Nb129  1  0.40286118  0.00752810  0.20095029  1
  Nb  Nb130  1  0.00519247  0.39588929  0.40150334  1
  Nb  Nb131  1  0.59329741  0.79735935  -0.00767580  1
  Nb  Nb132  1  -0.00539691  0.59406769  0.20417325  1
  Nb  Nb133  1  0.60578106  0.60283644  0.40352084  1
  Nb  Nb134  1  -0.00807337  0.20813252  0.00144091  1
  Nb  Nb135  1  0.40180841  0.40139903  0.19490561  1
  Nb  Nb136  1  -0.00049112  0.00690333  0.20874089  1
  Nb  Nb137  1  0.00053469  0.80019206  -0.00553947  1
  Nb  Nb138  1  0.80360010  -0.00067224  0.60061234  1
  Nb  Nb139  1  0.20065414  0.00211141  0.39554880  1
  Nb  Nb140  1  0.40226624  0.59554503  0.59920248  1
  Nb  Nb141  1  0.00309650  0.20433731  0.39336706  1
  Nb  Nb142  1  0.59664406  0.00392781  0.20510790  1
  Nb  Nb143  1  0.79893917  0.59368296  0.39533085  1
  Nb  Nb144  1  0.59680840  0.80092458  0.39910782  1
  Nb  Nb145  1  0.59330305  0.59872459  0.59874898  1
  Nb  Nb146  1  0.59507032  -0.00154714  0.39265764  1
  Nb  Nb147  1  0.39629400  0.80056330  0.39704178  1
  Nb  Nb148  1  0.19916348  0.00600423  0.80363062  1
  Nb  Nb149  1  0.80417554  0.58564044  0.20219681  1
  Pd  Pd150  1  0.60179610  0.79235117  0.59777025  1
  Pd  Pd151  1  0.40417398  0.79027369  -0.00570509  1
  Pd  Pd152  1  0.80910576  0.58456543  0.79810761  1
  Pd  Pd153  1  0.80850767  0.80371814  0.79799122  1
  Pd  Pd154  1  -0.00544931  0.40784275  0.80439260  1
  Pd  Pd155  1  0.00332730  0.19803704  0.19273691  1
  Pd  Pd156  1  0.20719806  -0.00475757  -0.00595792  1
  Pd  Pd157  1  0.79827427  0.41156517  0.00047575  1
  Pd  Pd158  1  0.60839474  0.40140429  0.80336117  1
  Pd  Pd159  1  0.79099126  0.20597513  0.80269222  1
  Pd  Pd160  1  0.01031509  0.39815660  0.20467068  1
  Pd  Pd161  1  0.19694404  0.39953370  0.60050238  1
  Pd  Pd162  1  0.40306916  0.20891421  -0.01096974  1
  Pd  Pd163  1  0.39421367  0.39261911  0.80220343  1
  Pd  Pd164  1  0.79898583  -0.00098048  0.40070858  1
  Pd  Pd165  1  0.39785094  0.20741388  0.59641121  1
  Pd  Pd166  1  0.20965632  0.20113004  0.79983892  1
  Pd  Pd167  1  0.79086747  0.20912375  0.19090791  1
  Pd  Pd168  1  -0.00957453  0.80905322  0.80733504  1
  Pd  Pd169  1  -0.00384895  0.79846608  0.19281919  1
  Pd  Pd170  1  0.19845614  0.40666864  0.40107367  1
  Pd  Pd171  1  0.19960933  0.59603689  0.79135544  1
  Pd  Pd172  1  0.19664437  0.79671382  0.00450728  1
  Pd  Pd173  1  0.80353435  0.58930654  0.01241980  1
  Pd  Pd174  1  0.20080097  0.60129055  0.19610082  1
  Pd  Pd175  1  0.00048175  0.79621651  0.40746756  1
  Pd  Pd176  1  0.20090549  0.00535035  0.20237026  1
  Pd  Pd177  1  0.20970255  0.40833283  0.20009326  1
  Pd  Pd178  1  0.00984184  0.39290773  -0.00441956  1
  Pd  Pd179  1  0.79897294  0.79991869  -0.00246527  1
  Pd  Pd180  1  0.59990915  -0.00182492  0.00694463  1
  Pd  Pd181  1  0.60347120  0.00637028  0.59793438  1
  Pd  Pd182  1  -0.00429614  0.59068492  0.79285309  1
  Pd  Pd183  1  0.59360767  0.60639476  -0.00013793  1
  Pd  Pd184  1  0.59591006  0.00383543  0.79702825  1
  Pd  Pd185  1  0.20247907  0.79240674  0.19210178  1
  Pd  Pd186  1  -0.00836060  0.00846580  0.60578220  1
  Pd  Pd187  1  0.40907328  0.60556679  0.40882497  1
  Pd  Pd188  1  0.19968116  0.19325817  0.41084312  1
  Pd  Pd189  1  0.38593234  0.78865597  0.59518961  1
  Pd  Pd190  1  0.20090535  0.40357218  0.80105378  1
  Pd  Pd191  1  0.39202987  0.20870505  0.80643734  1
  Pd  Pd192  1  0.60699323  0.20028782  0.19579531  1
  Pd  Pd193  1  0.59396233  0.58889358  0.79020708  1
  Pd  Pd194  1  0.39797865  0.19557220  0.41182783  1
  Pd  Pd195  1  0.39645785  0.59631835  0.19389388  1
  Pd  Pd196  1  -0.00407649  0.00209575  0.00538743  1
  Pd  Pd197  1  -0.00670488  0.19400612  0.58892713  1
  Pd  Pd198  1  0.80800622  0.39759232  0.40884912  1
  Pd  Pd199  1  0.59322981  0.79790379  0.80365059  1
  Rh  Rh200  1  0.80099609  0.19956110  0.00435535  1
  Rh  Rh201  1  0.60461124  0.79959378  0.19435803  1
  Rh  Rh202  1  0.40048332  0.20541081  0.19270765  1
  Rh  Rh203  1  0.00583481  0.79274527  0.59555216  1
  Rh  Rh204  1  0.80651222  -0.00647043  0.78802830  1
  Rh  Rh205  1  0.19536208  0.39952840  -0.00599578  1
  Rh  Rh206  1  0.81267835  0.20946421  0.40038202  1
  Rh  Rh207  1  0.79770669  0.79163956  0.40010109  1
  Rh  Rh208  1  -0.00244354  0.19541822  0.81099545  1
  Rh  Rh209  1  0.59504029  0.19751740  0.60101344  1
  Rh  Rh210  1  0.78835822  0.39654971  0.19093456  1
  Rh  Rh211  1  0.40444078  0.00856452  0.60612802  1
  Rh  Rh212  1  0.80353149  0.39492624  0.60978791  1
  Rh  Rh213  1  0.80360413  0.80602223  0.60749012  1
  Rh  Rh214  1  0.20355379  0.21128620  0.59658499  1
  Rh  Rh215  1  0.40579410  0.60427684  0.00415217  1
  Rh  Rh216  1  0.39547339  0.00081628  0.79866657  1
  Rh  Rh217  1  0.39905102  0.39782684  0.39481898  1
  Rh  Rh218  1  0.20221325  0.60867259  0.00171220  1
  Rh  Rh219  1  0.80108210  0.00451427  0.20430116  1
  Rh  Rh220  1  0.80679674  0.19046888  0.60001084  1
  Rh  Rh221  1  0.59611711  0.40409851  -0.00367955  1
  Rh  Rh222  1  0.59566543  0.19572709  0.40394486  1
  Rh  Rh223  1  -0.00860340  0.59134362  0.39633344  1
  Rh  Rh224  1  0.60908217  0.60458404  0.20486601  1
  Rh  Rh225  1  0.60423423  0.19806160  0.80550934  1
  Rh  Rh226  1  0.59875738  0.39818942  0.40307490  1
  Rh  Rh227  1  0.80810113  0.79009935  0.20005136  1
  Rh  Rh228  1  0.39878922  0.39922366  0.59841998  1
  Rh  Rh229  1  0.19935860  -0.00510546  0.60583159  1
  Rh  Rh230  1  0.59552512  0.40127317  0.60029225  1
  Rh  Rh231  1  0.00406348  0.00684463  0.39557583  1
  Rh  Rh232  1  -0.00279889  0.60810607  0.01322919  1
  Rh  Rh233  1  0.20345855  0.80768344  0.79274246  1
  Rh  Rh234  1  0.20335957  0.60206059  0.60162041  1
  Rh  Rh235  1  0.40158924  0.80057597  0.79929006  1
  Rh  Rh236  1  0.40828908  0.39944364  0.00407114  1
  Rh  Rh237  1  0.39816412  0.59323880  0.78847365  1
  Rh  Rh238  1  0.59805874  0.38804896  0.19850887  1
  Rh  Rh239  1  0.59982645  0.19996978  -0.00684554  1
  Rh  Rh240  1  0.39056891  0.79521550  0.20425951  1
  Rh  Rh241  1  0.20103985  0.59247731  0.40608130  1
  Rh  Rh242  1  0.79220080  0.00373658  0.00475583  1
  Rh  Rh243  1  0.00236006  0.39871931  0.59251785  1
  Rh  Rh244  1  0.19530360  0.21074491  -0.00098072  1
  Rh  Rh245  1  0.20265113  0.80799792  0.41022581  1
  Rh  Rh246  1  0.20117893  0.19969386  0.19057149  1
  Rh  Rh247  1  0.39964141  0.00390527  0.00220633  1
  Rh  Rh248  1  0.79156713  0.59368569  0.59401309  1
  Rh  Rh249  1  0.00393180  0.60098723  0.60515752  1
