# generated using pymatgen
data_ZrScNbPdRh
_symmetry_space_group_name_H-M   'P 1'
_cell_length_a   16.55751492
_cell_length_b   16.55994507
_cell_length_c   16.55638271
_cell_angle_alpha   90.00345753
_cell_angle_beta   89.98840059
_cell_angle_gamma   89.97760246
_symmetry_Int_Tables_number   1
_chemical_formula_structural   ZrScNbPdRh
_chemical_formula_sum   'Zr50 Sc50 Nb50 Pd50 Rh50'
_cell_volume   4539.61958079
_cell_formula_units_Z   50
loop_
 _symmetry_equiv_pos_site_id
 _symmetry_equiv_pos_as_xyz
  1  'x, y, z'
loop_
 _atom_site_type_symbol
 _atom_site_label
 _atom_site_symmetry_multiplicity
 _atom_site_fract_x
 _atom_site_fract_y
 _atom_site_fract_z
 _atom_site_occupancy
  Zr  Zr0  1  0.89999821  0.10134620  0.89881928  1
  Zr  Zr1  1  0.70515404  0.49493308  0.49886945  1
  Zr  Zr2  1  0.10824639  0.70630846  0.29041080  1
  Zr  Zr3  1  0.30154848  0.50370314  0.70346874  1
  Zr  Zr4  1  0.09664730  0.70377758  0.90351860  1
  Zr  Zr5  1  0.49721847  0.31527277  0.30147519  1
  Zr  Zr6  1  0.09459198  0.09720170  0.91247848  1
  Zr  Zr7  1  0.09450634  0.29515853  0.50645750  1
  Zr  Zr8  1  0.89836617  0.29917928  0.29255079  1
  Zr  Zr9  1  0.29333244  0.09926850  0.30404321  1
  Zr  Zr10  1  0.50413823  0.28785507  0.89440740  1
  Zr  Zr11  1  0.50606408  0.70381688  0.29634525  1
  Zr  Zr12  1  0.29849798  0.29310618  0.70383250  1
  Zr  Zr13  1  0.70431987  0.69946394  0.90030473  1
  Zr  Zr14  1  0.50457937  0.70287333  0.90393640  1
  Zr  Zr15  1  0.09518623  0.70301979  0.70048418  1
  Zr  Zr16  1  0.31129196  0.70431253  0.90017239  1
  Zr  Zr17  1  0.10049243  0.51247790  0.09815589  1
  Zr  Zr18  1  0.49224238  0.12025254  0.70536488  1
  Zr  Zr19  1  0.90288790  0.30041597  0.90159873  1
  Zr  Zr20  1  0.29056565  0.09512561  0.89582537  1
  Zr  Zr21  1  0.09444545  0.89963226  0.49596194  1
  Zr  Zr22  1  0.09103109  0.09658105  0.30067493  1
  Zr  Zr23  1  0.29839240  0.89759017  0.50670849  1
  Zr  Zr24  1  0.69595146  0.90252728  0.50365463  1
  Zr  Zr25  1  0.91204773  0.89623430  0.30012698  1
  Zr  Zr26  1  0.29388168  0.89641468  0.70097082  1
  Zr  Zr27  1  0.70619223  0.89201689  0.09948064  1
  Zr  Zr28  1  0.90082141  0.69998213  0.09699066  1
  Zr  Zr29  1  0.70677465  0.10064694  0.69858176  1
  Zr  Zr30  1  0.30131185  0.30124983  0.10105049  1
  Zr  Zr31  1  0.89359495  0.50230267  0.90270028  1
  Zr  Zr32  1  0.49714536  0.88939376  0.89887525  1
  Zr  Zr33  1  0.70365154  0.50045150  0.69514868  1
  Zr  Zr34  1  0.89200813  0.49601151  0.29723911  1
  Zr  Zr35  1  0.10167577  0.69827813  0.50230044  1
  Zr  Zr36  1  0.69362066  0.30176807  0.09731767  1
  Zr  Zr37  1  0.70479810  0.50574504  0.09758544  1
  Zr  Zr38  1  0.49883074  0.50514583  0.29855228  1
  Zr  Zr39  1  0.29552691  0.09820078  0.09666065  1
  Zr  Zr40  1  0.70788405  0.30338576  0.90658226  1
  Zr  Zr41  1  0.90826680  0.70295122  0.50238904  1
  Zr  Zr42  1  0.10442128  0.48766040  0.90002969  1
  Zr  Zr43  1  0.50347059  0.89691217  0.31112585  1
  Zr  Zr44  1  0.89778866  0.70117225  0.29821492  1
  Zr  Zr45  1  0.70525096  0.30741914  0.29618458  1
  Zr  Zr46  1  0.29885752  0.50417457  0.50176582  1
  Zr  Zr47  1  0.90217088  0.09015769  0.50871400  1
  Zr  Zr48  1  0.29432950  0.09571330  0.68992694  1
  Zr  Zr49  1  0.09626074  0.50670613  0.29500074  1
  Sc  Sc50  1  0.09669924  0.88910176  0.09494367  1
  Sc  Sc51  1  0.51337430  0.89243694  0.09683872  1
  Sc  Sc52  1  0.89910979  0.69821473  0.89676692  1
  Sc  Sc53  1  0.90529579  0.69711057  0.70728982  1
  Sc  Sc54  1  0.50734696  0.09681703  0.29925672  1
  Sc  Sc55  1  0.08980423  0.29834563  0.30708790  1
  Sc  Sc56  1  0.09768479  0.49791558  0.69773663  1
  Sc  Sc57  1  0.10191819  0.09738486  0.49859457  1
  Sc  Sc58  1  0.51110283  0.09718764  0.10057260  1
  Sc  Sc59  1  0.49948293  0.88792732  0.69748527  1
  Sc  Sc60  1  0.29031097  0.69775779  0.10287231  1
  Sc  Sc61  1  0.89836627  0.50366717  0.50105227  1
  Sc  Sc62  1  0.70663150  0.09983738  0.49971941  1
  Sc  Sc63  1  0.70017001  0.89208946  0.90348012  1
  Sc  Sc64  1  0.70466821  0.10508733  0.90197847  1
  Sc  Sc65  1  0.89558498  0.09748018  0.69841974  1
  Sc  Sc66  1  0.89703472  0.50558385  0.69788749  1
  Sc  Sc67  1  0.70326856  0.09385096  0.10184013  1
  Sc  Sc68  1  0.28725668  0.30470270  0.89901669  1
  Sc  Sc69  1  0.89931440  0.29579333  0.69880612  1
  Sc  Sc70  1  0.09445832  0.30203356  0.69708819  1
  Sc  Sc71  1  0.70245568  0.89634572  0.71090592  1
  Sc  Sc72  1  0.28869193  0.30427205  0.49444120  1
  Sc  Sc73  1  0.90475174  0.90021831  0.49931193  1
  Sc  Sc74  1  0.10249746  0.89365569  0.69381693  1
  Sc  Sc75  1  0.09619505  0.09771052  0.68771008  1
  Sc  Sc76  1  0.50231474  0.50794731  0.10134751  1
  Sc  Sc77  1  0.50144191  0.88996537  0.50305360  1
  Sc  Sc78  1  0.49599241  0.70338254  0.70487800  1
  Sc  Sc79  1  0.49688965  0.10709359  0.51380965  1
  Sc  Sc80  1  0.90008086  0.10154776  0.29788699  1
  Sc  Sc81  1  0.50580075  0.48952658  0.49297513  1
  Sc  Sc82  1  0.50039640  0.51770515  0.90254072  1
  Sc  Sc83  1  0.89853020  0.89741715  0.09950466  1
  Sc  Sc84  1  0.70539700  0.70916101  0.49381093  1
  Sc  Sc85  1  0.70215294  0.89581425  0.30005242  1
  Sc  Sc86  1  0.09056972  0.29969865  0.08993555  1
  Sc  Sc87  1  0.90861026  0.09525616  0.10063556  1
  Sc  Sc88  1  0.69716567  0.30928136  0.50623980  1
  Sc  Sc89  1  0.50064856  0.50968777  0.70002266  1
  Sc  Sc90  1  0.70161068  0.09652547  0.30221486  1
  Sc  Sc91  1  0.09904416  0.49939982  0.49848553  1
  Sc  Sc92  1  0.89718314  0.89267469  0.90277184  1
  Sc  Sc93  1  0.89688863  0.30371838  0.49668382  1
  Sc  Sc94  1  0.70371692  0.50413903  0.90257987  1
  Sc  Sc95  1  0.90479502  0.50464179  0.10051510  1
  Sc  Sc96  1  0.69990984  0.29900963  0.69404583  1
  Sc  Sc97  1  0.29026263  0.89090722  0.30796247  1
  Sc  Sc98  1  0.30476130  0.50002683  0.30085885  1
  Sc  Sc99  1  0.30194158  0.50948979  0.09759674  1
  Nb  Nb100  1  0.50454073  0.30296227  0.50242935  1
  Nb  Nb101  1  0.30494684  0.70134755  0.30062058  1
  Nb  Nb102  1  0.50487821  0.70784951  0.49850656  1
  Nb  Nb103  1  0.30285644  0.49996072  0.89855711  1
  Nb  Nb104  1  0.09488860  0.29830409  0.89203570  1
  Nb  Nb105  1  0.69595786  0.70190674  0.10832977  1
  Nb  Nb106  1  0.10648802  0.90188089  0.89049698  1
  Nb  Nb107  1  0.70373973  0.69648158  0.28934871  1
  Nb  Nb108  1  0.90206479  0.89973536  0.70068777  1
  Nb  Nb109  1  0.09631433  0.69394176  0.10350587  1
  Nb  Nb110  1  0.30733120  0.70183972  0.50305299  1
  Nb  Nb111  1  0.50169109  0.29985412  0.69427763  1
  Nb  Nb112  1  0.10109355  0.89984017  0.30095715  1
  Nb  Nb113  1  0.49915665  0.30023763  0.09664450  1
  Nb  Nb114  1  0.29600741  0.90051102  0.90014783  1
  Nb  Nb115  1  0.70039393  0.50531917  0.30065783  1
  Nb  Nb116  1  0.89020335  0.30465986  0.10640728  1
  Nb  Nb117  1  0.50246364  0.69602133  0.10308223  1
  Nb  Nb118  1  0.70070048  0.70353367  0.70147848  1
  Nb  Nb119  1  0.30279505  0.89878763  0.10266336  1
  Nb  Nb120  1  0.49348205  0.09688061  0.89678846  1
  Nb  Nb121  1  0.29597917  0.09606452  0.49919939  1
  Nb  Nb122  1  0.30128327  0.69644421  0.69268252  1
  Nb  Nb123  1  0.10055538  0.09896882  0.10361538  1
  Nb  Nb124  1  0.30150226  0.30074592  0.29689522  1
  Nb  Nb125  1  0.59968894  0.00381439  0.61263890  1
  Nb  Nb126  1  0.19922721  0.39563247  0.20077446  1
  Nb  Nb127  1  0.39806150  -0.00375499  -0.00173165  1
  Nb  Nb128  1  0.40159296  0.19851116  0.00090227  1
  Nb  Nb129  1  0.39987767  0.20241070  0.39860952  1
  Nb  Nb130  1  0.59080497  0.00496951  0.79980743  1
  Nb  Nb131  1  0.20488523  0.60124583  0.80218808  1
  Nb  Nb132  1  0.40363193  0.39559303  0.60387297  1
  Nb  Nb133  1  0.19731475  0.20002137  0.19995796  1
  Nb  Nb134  1  0.39809361  -0.00279091  0.80265600  1
  Nb  Nb135  1  0.39531982  0.00488126  0.40393630  1
  Nb  Nb136  1  0.40031686  0.19996683  0.20098803  1
  Nb  Nb137  1  0.39615059  -0.00531640  0.20071738  1
  Nb  Nb138  1  0.39946464  0.80048033  0.20077895  1
  Nb  Nb139  1  0.59399184  0.39757440  0.79887655  1
  Nb  Nb140  1  0.60202277  0.60917977  0.59157655  1
  Nb  Nb141  1  0.80338793  0.80208842  0.60651969  1
  Nb  Nb142  1  0.40424545  0.39679911  -0.00588420  1
  Nb  Nb143  1  0.40517691  0.61199125  0.40434178  1
  Nb  Nb144  1  0.40490719  0.39830274  0.80128304  1
  Nb  Nb145  1  0.19652831  -0.00285537  0.19860838  1
  Nb  Nb146  1  0.59390318  0.20969513  0.40238311  1
  Nb  Nb147  1  0.00372500  -0.00562328  0.80264068  1
  Nb  Nb148  1  0.60317143  0.60410196  0.39789539  1
  Nb  Nb149  1  0.18839119  0.19776639  0.80294009  1
  Pd  Pd150  1  0.80271124  -0.00177091  -0.00346590  1
  Pd  Pd151  1  0.39691041  0.40454361  0.18938544  1
  Pd  Pd152  1  0.80132855  0.20596707  0.59391222  1
  Pd  Pd153  1  0.20318344  0.40057462  0.00738697  1
  Pd  Pd154  1  0.19658247  -0.01126228  0.00746529  1
  Pd  Pd155  1  0.60025219  -0.00790649  0.19984707  1
  Pd  Pd156  1  0.80648179  0.19704945  0.01005826  1
  Pd  Pd157  1  -0.00152331  0.80200153  -0.00383968  1
  Pd  Pd158  1  0.19744793  0.20670946  -0.00116669  1
  Pd  Pd159  1  0.80618027  -0.00606954  0.39590739  1
  Pd  Pd160  1  -0.00511041  0.40263904  0.00416134  1
  Pd  Pd161  1  0.40947309  -0.00532483  0.60226446  1
  Pd  Pd162  1  0.59758404  0.20146296  0.20785606  1
  Pd  Pd163  1  0.79565252  0.39726620  0.79485983  1
  Pd  Pd164  1  0.20234031  0.39858945  0.60429051  1
  Pd  Pd165  1  0.00303955  0.18916233  0.79159303  1
  Pd  Pd166  1  -0.00109084  0.60086359  0.39534201  1
  Pd  Pd167  1  0.60546416  0.59810242  0.79318589  1
  Pd  Pd168  1  0.59015352  0.01258618  0.41642910  1
  Pd  Pd169  1  0.80098549  -0.00508786  0.80679386  1
  Pd  Pd170  1  0.60247905  0.40850611  0.19587884  1
  Pd  Pd171  1  0.19959261  0.79833059  0.00272690  1
  Pd  Pd172  1  0.19384525  0.60150672  0.60580985  1
  Pd  Pd173  1  -0.00728509  0.40428305  0.60016750  1
  Pd  Pd174  1  -0.00222811  0.40407082  0.40307902  1
  Pd  Pd175  1  0.80256688  -0.00223143  0.20467022  1
  Pd  Pd176  1  0.79373292  0.20442224  0.40367849  1
  Pd  Pd177  1  0.59990891  0.19125481  0.00063421  1
  Pd  Pd178  1  0.19799995  0.20336549  0.39795087  1
  Pd  Pd179  1  -0.00959498  0.19461860  0.40623371  1
  Pd  Pd180  1  -0.00676331  0.40384384  0.79412415  1
  Pd  Pd181  1  0.00747025  0.39741134  0.19374246  1
  Pd  Pd182  1  0.80131736  0.80665971  0.40276983  1
  Pd  Pd183  1  0.79903775  0.19226633  0.19341082  1
  Pd  Pd184  1  0.00471196  -0.00881367  0.19360073  1
  Pd  Pd185  1  0.40023483  0.79947280  0.01263625  1
  Pd  Pd186  1  0.79663638  0.61247691  0.59921336  1
  Pd  Pd187  1  0.20730481  0.60303491  0.39521074  1
  Pd  Pd188  1  0.38795494  0.21129378  0.58576028  1
  Pd  Pd189  1  0.00702501  0.59171204  0.80514270  1
  Pd  Pd190  1  0.41394714  0.59649423  0.59037153  1
  Pd  Pd191  1  0.19933319  0.79491187  0.40720935  1
  Pd  Pd192  1  0.19577334  0.40153562  0.39116834  1
  Pd  Pd193  1  0.79738950  0.60330193  0.40211486  1
  Pd  Pd194  1  0.20221214  0.60446196  -0.00911097  1
  Pd  Pd195  1  0.61314741  0.20078135  0.79947330  1
  Pd  Pd196  1  -0.00855116  0.20290320  0.00746699  1
  Pd  Pd197  1  0.20385504  0.79015982  0.79837783  1
  Pd  Pd198  1  0.59237579  0.40924026  -0.00929087  1
  Pd  Pd199  1  0.59922398  0.00156070  -0.00849241  1
  Rh  Rh200  1  0.20540283  0.59374249  0.20535663  1
  Rh  Rh201  1  0.39487952  0.60142294  0.80264446  1
  Rh  Rh202  1  -0.00307692  0.00314056  0.40001912  1
  Rh  Rh203  1  0.19384870  0.00483436  0.79241909  1
  Rh  Rh204  1  0.61235767  0.79272105  0.39271350  1
  Rh  Rh205  1  0.00098261  0.59963944  -0.00650632  1
  Rh  Rh206  1  0.20002995  -0.00623776  0.39979221  1
  Rh  Rh207  1  0.00215918  0.79784614  0.19799142  1
  Rh  Rh208  1  0.60945878  0.19373244  0.59224287  1
  Rh  Rh209  1  0.00633788  0.79391932  0.39532312  1
  Rh  Rh210  1  0.79930836  0.79324182  0.00267416  1
  Rh  Rh211  1  0.39564983  0.80109441  0.39747589  1
  Rh  Rh212  1  0.00289473  0.59698899  0.59851333  1
  Rh  Rh213  1  0.00067573  -0.00589392  0.60614213  1
  Rh  Rh214  1  0.20039728  0.79467939  0.59621434  1
  Rh  Rh215  1  0.79531250  0.40638160  0.19419649  1
  Rh  Rh216  1  0.79393056  -0.01207693  0.60414117  1
  Rh  Rh217  1  0.61038475  0.79939914  0.60601000  1
  Rh  Rh218  1  0.80003911  0.60569351  0.00413313  1
  Rh  Rh219  1  -0.00603355  0.60523822  0.20391299  1
  Rh  Rh220  1  0.80103693  0.39863933  0.39882486  1
  Rh  Rh221  1  0.80429084  0.59899283  0.19494594  1
  Rh  Rh222  1  0.19754282  0.20089546  0.60117304  1
  Rh  Rh223  1  0.80402222  0.79530556  0.79530860  1
  Rh  Rh224  1  0.60638545  0.79113201  0.00221270  1
  Rh  Rh225  1  0.39857232  0.79601822  0.60379774  1
  Rh  Rh226  1  0.60238843  0.80186043  0.80119034  1
  Rh  Rh227  1  0.80410780  0.80013351  0.19983743  1
  Rh  Rh228  1  -0.00537779  0.19864434  0.59622365  1
  Rh  Rh229  1  0.60324078  0.60669954  0.00511150  1
  Rh  Rh230  1  0.40078123  0.60084660  0.00357541  1
  Rh  Rh231  1  0.39378548  0.80263567  0.79308464  1
  Rh  Rh232  1  0.60942618  0.40087125  0.39524345  1
  Rh  Rh233  1  0.59916415  0.80386113  0.20119536  1
  Rh  Rh234  1  -0.00621344  0.80106168  0.60424089  1
  Rh  Rh235  1  0.80755898  0.39820340  0.60121335  1
  Rh  Rh236  1  0.80128256  0.20603118  0.80124827  1
  Rh  Rh237  1  0.19300580  -0.00383528  0.59409451  1
  Rh  Rh238  1  0.59266390  0.41150765  0.60994177  1
  Rh  Rh239  1  0.00176000  0.20567371  0.19530743  1
  Rh  Rh240  1  0.79869130  0.60106166  0.79990174  1
  Rh  Rh241  1  0.38454756  0.20046191  0.80926374  1
  Rh  Rh242  1  0.80576194  0.40104226  0.00650244  1
  Rh  Rh243  1  0.39740437  0.60975545  0.20245381  1
  Rh  Rh244  1  0.60531690  0.59592186  0.20093971  1
  Rh  Rh245  1  0.20250620  0.80376650  0.19477850  1
  Rh  Rh246  1  0.20077438  0.39889696  0.79594327  1
  Rh  Rh247  1  -0.00054909  0.80941345  0.80278759  1
  Rh  Rh248  1  0.39226391  0.40094298  0.41212827  1
  Rh  Rh249  1  0.00116281  -0.00948410  -0.00458388  1
