# generated using pymatgen
data_ZrScNbPdRh
_symmetry_space_group_name_H-M   'P 1'
_cell_length_a   16.56183806
_cell_length_b   16.56134139
_cell_length_c   16.56688157
_cell_angle_alpha   90.02444332
_cell_angle_beta   89.97886905
_cell_angle_gamma   89.99185798
_symmetry_Int_Tables_number   1
_chemical_formula_structural   ZrScNbPdRh
_chemical_formula_sum   'Zr50 Sc50 Nb50 Pd50 Rh50'
_cell_volume   4544.06712157
_cell_formula_units_Z   50
loop_
 _symmetry_equiv_pos_site_id
 _symmetry_equiv_pos_as_xyz
  1  'x, y, z'
loop_
 _atom_site_type_symbol
 _atom_site_label
 _atom_site_symmetry_multiplicity
 _atom_site_fract_x
 _atom_site_fract_y
 _atom_site_fract_z
 _atom_site_occupancy
  Zr  Zr0  1  0.10159637  0.69918967  0.09097129  1
  Zr  Zr1  1  0.69670437  0.30594290  0.29930003  1
  Zr  Zr2  1  0.69998479  0.29662835  0.10454649  1
  Zr  Zr3  1  0.10043441  0.49888650  0.50227913  1
  Zr  Zr4  1  0.10199794  0.29606685  0.89675753  1
  Zr  Zr5  1  0.50605064  0.89639241  0.29631325  1
  Zr  Zr6  1  0.30025297  0.50696307  0.51017755  1
  Zr  Zr7  1  0.69855939  0.09126592  0.49822396  1
  Zr  Zr8  1  0.49561237  0.10074178  0.50021942  1
  Zr  Zr9  1  0.29668178  0.69825639  0.30107399  1
  Zr  Zr10  1  0.90828905  0.89895687  0.10297864  1
  Zr  Zr11  1  0.70207726  0.89517905  0.30076847  1
  Zr  Zr12  1  0.50483930  0.89604543  0.09396881  1
  Zr  Zr13  1  0.70520605  0.49995146  0.49874182  1
  Zr  Zr14  1  0.11434392  0.30132289  0.29889233  1
  Zr  Zr15  1  0.10846950  0.69519302  0.49639857  1
  Zr  Zr16  1  0.30551576  0.49339374  0.09717307  1
  Zr  Zr17  1  0.91316122  0.68591652  0.89768976  1
  Zr  Zr18  1  0.29773203  0.49339065  0.70203414  1
  Zr  Zr19  1  0.10363479  0.09927993  0.89531378  1
  Zr  Zr20  1  0.08969612  0.51300359  0.89970177  1
  Zr  Zr21  1  0.90216400  0.30493945  0.49884993  1
  Zr  Zr22  1  0.50027872  0.68981957  0.30140962  1
  Zr  Zr23  1  0.29480946  0.90094665  0.50531118  1
  Zr  Zr24  1  0.30556423  0.09965333  0.70928983  1
  Zr  Zr25  1  0.50288281  0.29935347  0.09426802  1
  Zr  Zr26  1  0.50302619  0.09819992  0.69472514  1
  Zr  Zr27  1  0.09866450  0.09669939  0.50164243  1
  Zr  Zr28  1  0.90190943  0.50224480  0.49570495  1
  Zr  Zr29  1  0.49596029  0.29768252  0.70200026  1
  Zr  Zr30  1  0.90817127  0.29554965  0.69576027  1
  Zr  Zr31  1  0.09860821  0.90480889  0.50739113  1
  Zr  Zr32  1  0.90616339  0.90042291  0.69676319  1
  Zr  Zr33  1  0.90263436  0.29609113  0.09719738  1
  Zr  Zr34  1  0.69930080  0.50104177  0.69910077  1
  Zr  Zr35  1  0.30170133  0.90008529  0.70190139  1
  Zr  Zr36  1  0.29831037  0.30600127  0.70687637  1
  Zr  Zr37  1  0.30189197  0.89834449  0.10402451  1
  Zr  Zr38  1  0.69042338  0.30042584  0.89249714  1
  Zr  Zr39  1  0.49901060  0.89927656  0.50942917  1
  Zr  Zr40  1  0.49948719  0.30414038  0.89666024  1
  Zr  Zr41  1  0.28983589  0.89943777  0.29544168  1
  Zr  Zr42  1  0.10058888  0.50526119  0.30721882  1
  Zr  Zr43  1  0.49224750  0.50006014  0.10289477  1
  Zr  Zr44  1  0.10059054  0.30658719  0.69813178  1
  Zr  Zr45  1  0.89510370  0.70191666  0.69576341  1
  Zr  Zr46  1  0.69116335  0.90107897  0.90769569  1
  Zr  Zr47  1  0.90329133  0.50303918  0.10863900  1
  Zr  Zr48  1  0.30122029  0.10801395  0.29554415  1
  Zr  Zr49  1  0.70242699  0.69871471  0.10336841  1
  Sc  Sc50  1  0.69291306  0.89709951  0.10251575  1
  Sc  Sc51  1  0.10550966  0.10219591  0.09434145  1
  Sc  Sc52  1  0.49264019  0.50176094  0.69461338  1
  Sc  Sc53  1  0.30205403  0.69850992  0.10122821  1
  Sc  Sc54  1  0.68799628  0.10241675  0.10532499  1
  Sc  Sc55  1  0.89704533  0.50553934  0.71298129  1
  Sc  Sc56  1  0.10850416  0.50063854  0.10238235  1
  Sc  Sc57  1  0.69671328  0.09882173  0.88567534  1
  Sc  Sc58  1  0.30003758  0.48921736  0.90447868  1
  Sc  Sc59  1  0.49239438  0.30211812  0.49933894  1
  Sc  Sc60  1  0.69854656  0.69144924  0.69690462  1
  Sc  Sc61  1  0.30135772  0.71060781  0.69415981  1
  Sc  Sc62  1  0.10192930  0.70955466  0.69819322  1
  Sc  Sc63  1  0.70392539  0.89248858  0.49368505  1
  Sc  Sc64  1  0.69203712  0.49712539  0.11041090  1
  Sc  Sc65  1  0.29981725  0.10010060  0.49628595  1
  Sc  Sc66  1  0.29817996  0.71488485  0.90581994  1
  Sc  Sc67  1  0.09458634  0.30938557  0.50403012  1
  Sc  Sc68  1  0.49806104  0.50183891  0.49767728  1
  Sc  Sc69  1  0.90444513  0.08986702  0.49855760  1
  Sc  Sc70  1  0.10319528  0.09005700  0.29957155  1
  Sc  Sc71  1  0.69672204  0.09240691  0.29638761  1
  Sc  Sc72  1  0.70650656  0.69950145  0.50706922  1
  Sc  Sc73  1  0.49838049  0.10296042  0.89552913  1
  Sc  Sc74  1  0.49756743  0.70162437  0.69321469  1
  Sc  Sc75  1  0.10416472  0.69534611  0.30038789  1
  Sc  Sc76  1  0.30111916  0.29902255  0.49126067  1
  Sc  Sc77  1  0.10287302  0.89835138  0.10881144  1
  Sc  Sc78  1  0.89595910  0.29973842  0.28495649  1
  Sc  Sc79  1  0.29488885  0.10297724  0.89965262  1
  Sc  Sc80  1  0.91280694  0.10713070  0.10347053  1
  Sc  Sc81  1  0.69055057  0.69200515  0.89947006  1
  Sc  Sc82  1  0.70445280  0.31042290  0.49492669  1
  Sc  Sc83  1  0.49652114  0.49959635  0.90787184  1
  Sc  Sc84  1  0.90165790  0.90216812  0.30320173  1
  Sc  Sc85  1  0.29826118  0.90487384  0.88997925  1
  Sc  Sc86  1  0.69524491  0.49898439  0.88714272  1
  Sc  Sc87  1  0.69840955  0.50287076  0.30609293  1
  Sc  Sc88  1  0.90784874  0.69734233  0.10790376  1
  Sc  Sc89  1  0.10125878  0.29547384  0.09988199  1
  Sc  Sc90  1  0.90481312  0.29666872  0.89127916  1
  Sc  Sc91  1  0.90473921  0.10203662  0.88456891  1
  Sc  Sc92  1  0.30295839  0.49573772  0.29387898  1
  Sc  Sc93  1  0.50050285  0.69369186  0.50695459  1
  Sc  Sc94  1  0.30075459  0.29994761  0.89641206  1
  Sc  Sc95  1  0.69644505  0.90360442  0.70334864  1
  Sc  Sc96  1  0.90104566  0.50506575  0.30178769  1
  Sc  Sc97  1  0.49393955  0.69570515  0.09124805  1
  Sc  Sc98  1  0.90147542  0.69352140  0.29772853  1
  Sc  Sc99  1  0.49483120  0.30816378  0.30837941  1
  Nb  Nb100  1  0.49412110  0.89522810  0.90199085  1
  Nb  Nb101  1  0.50044520  0.09544418  0.29908306  1
  Nb  Nb102  1  0.30235686  0.70335678  0.49953708  1
  Nb  Nb103  1  0.70118222  0.10612552  0.69476001  1
  Nb  Nb104  1  0.29680501  0.29580277  0.29511169  1
  Nb  Nb105  1  0.10370500  0.90627964  0.70296829  1
  Nb  Nb106  1  0.49343870  0.09890618  0.10664250  1
  Nb  Nb107  1  0.89803571  0.89278210  0.50545872  1
  Nb  Nb108  1  0.48659989  0.90082156  0.70602154  1
  Nb  Nb109  1  0.49230049  0.70419978  0.90319697  1
  Nb  Nb110  1  0.10500084  0.49946549  0.69684082  1
  Nb  Nb111  1  0.89692181  0.50062207  0.90354387  1
  Nb  Nb112  1  0.90348689  0.70901572  0.51077638  1
  Nb  Nb113  1  0.89621256  0.09859985  0.29747359  1
  Nb  Nb114  1  0.10094678  0.89942981  0.89413951  1
  Nb  Nb115  1  0.90117262  0.10050660  0.69702235  1
  Nb  Nb116  1  0.31013554  0.10373022  0.10172954  1
  Nb  Nb117  1  0.09970445  0.90014781  0.30418751  1
  Nb  Nb118  1  0.08935525  0.10010706  0.69885205  1
  Nb  Nb119  1  0.89803369  0.90152387  0.89868040  1
  Nb  Nb120  1  0.70191078  0.70099544  0.29741308  1
  Nb  Nb121  1  0.69437939  0.29871479  0.70045599  1
  Nb  Nb122  1  0.10230128  0.70491012  0.89788469  1
  Nb  Nb123  1  0.29833854  0.29585022  0.11271810  1
  Nb  Nb124  1  0.50496416  0.49994043  0.30079161  1
  Nb  Nb125  1  0.80258176  0.40006919  -0.00269240  1
  Nb  Nb126  1  0.59073133  0.80244921  0.80403383  1
  Nb  Nb127  1  0.80271138  0.59491727  0.00081072  1
  Nb  Nb128  1  0.80421654  0.00071976  0.19541982  1
  Nb  Nb129  1  0.80544597  0.79735406  -0.00447120  1
  Nb  Nb130  1  0.20054228  0.60419449  0.80224438  1
  Nb  Nb131  1  0.39808123  0.80100223  0.40151915  1
  Nb  Nb132  1  0.19554990  0.19936508  0.60591951  1
  Nb  Nb133  1  0.40118402  0.00406975  0.00677000  1
  Nb  Nb134  1  0.00042741  -0.00544408  -0.00912646  1
  Nb  Nb135  1  0.79989783  0.79996220  0.80763331  1
  Nb  Nb136  1  0.79842368  0.19591061  0.59982505  1
  Nb  Nb137  1  0.60103414  0.19727526  0.39995373  1
  Nb  Nb138  1  0.00170917  0.80528248  0.80392475  1
  Nb  Nb139  1  0.80591897  0.00208332  0.00149191  1
  Nb  Nb140  1  0.80221002  0.00201893  0.60368826  1
  Nb  Nb141  1  0.79813481  0.19868977  -0.00218213  1
  Nb  Nb142  1  0.00056257  0.80200824  0.40758792  1
  Nb  Nb143  1  0.80096274  0.19539598  0.39890438  1
  Nb  Nb144  1  0.00142004  0.60173158  0.59968491  1
  Nb  Nb145  1  0.40074491  -0.00575946  0.39323001  1
  Nb  Nb146  1  -0.00466393  0.19824472  0.39542269  1
  Nb  Nb147  1  0.39338965  0.60580752  0.80453772  1
  Nb  Nb148  1  0.60218581  0.39762672  0.60304417  1
  Nb  Nb149  1  -0.00550671  0.40357167  -0.00176852  1
  Pd  Pd150  1  0.40371819  0.39458358  0.20311929  1
  Pd  Pd151  1  0.00230415  0.40396977  0.80178677  1
  Pd  Pd152  1  0.59271795  -0.00392011  0.79590461  1
  Pd  Pd153  1  0.20870547  0.20494947  0.00400583  1
  Pd  Pd154  1  -0.00019871  0.80444295  -0.00553715  1
  Pd  Pd155  1  0.40272949  -0.00407280  0.20121167  1
  Pd  Pd156  1  0.60698052  0.60539900  0.40631828  1
  Pd  Pd157  1  0.80837726  0.79122023  0.39630656  1
  Pd  Pd158  1  0.39601317  0.59961745  0.40012999  1
  Pd  Pd159  1  0.59468744  0.78970153  0.19717344  1
  Pd  Pd160  1  0.58316903  0.60436080  0.79685378  1
  Pd  Pd161  1  0.20310382  0.59894282  0.19702430  1
  Pd  Pd162  1  0.20889303  0.40559751  0.40429593  1
  Pd  Pd163  1  0.41008614  0.21028915  0.20586257  1
  Pd  Pd164  1  -0.00424604  0.39074235  0.38446782  1
  Pd  Pd165  1  0.80520504  0.80314635  0.19695168  1
  Pd  Pd166  1  0.59845437  0.60003969  0.19898943  1
  Pd  Pd167  1  0.20995492  0.60035073  -0.00814954  1
  Pd  Pd168  1  0.19205313  0.19877102  0.40788048  1
  Pd  Pd169  1  0.80095343  0.39796633  0.60920511  1
  Pd  Pd170  1  0.60402369  0.80262600  0.60922397  1
  Pd  Pd171  1  0.60650930  0.21095671  0.58867518  1
  Pd  Pd172  1  0.59556429  0.01142810  0.00115741  1
  Pd  Pd173  1  0.59527493  -0.00060898  0.39905374  1
  Pd  Pd174  1  0.80102105  0.39338979  0.80050473  1
  Pd  Pd175  1  0.40451342  0.79175338  0.20276834  1
  Pd  Pd176  1  0.60343523  0.19118477  -0.00504659  1
  Pd  Pd177  1  0.79756315  0.40779464  0.20004937  1
  Pd  Pd178  1  0.79852024  0.20453612  0.79776850  1
  Pd  Pd179  1  -0.00389755  -0.00343643  0.39823583  1
  Pd  Pd180  1  0.19373135  0.39371395  0.00065141  1
  Pd  Pd181  1  0.79714158  -0.00332505  0.79777772  1
  Pd  Pd182  1  0.80162427  0.61082959  0.40165561  1
  Pd  Pd183  1  0.59005656  0.20388528  0.21111362  1
  Pd  Pd184  1  0.00990628  0.40217917  0.19782017  1
  Pd  Pd185  1  0.01225835  0.19568404  0.20971732  1
  Pd  Pd186  1  0.20212788  0.80966851  0.00128282  1
  Pd  Pd187  1  0.38670736  0.20331173  0.59955249  1
  Pd  Pd188  1  0.59521211  0.78834542  0.40533532  1
  Pd  Pd189  1  0.20434772  0.01007721  0.60899446  1
  Pd  Pd190  1  0.19675541  0.00654931  0.19523984  1
  Pd  Pd191  1  0.19716479  0.80247645  0.40060262  1
  Pd  Pd192  1  0.39359150  0.40763122  0.40023759  1
  Pd  Pd193  1  0.60742094  0.40824416  -0.00044721  1
  Pd  Pd194  1  0.20228415  -0.00492916  0.00211279  1
  Pd  Pd195  1  0.60412287  -0.00871820  0.60373165  1
  Pd  Pd196  1  0.60312843  0.59438322  0.00174103  1
  Pd  Pd197  1  0.00639216  0.79555990  0.21292846  1
  Pd  Pd198  1  0.39566865  0.19973618  -0.00455234  1
  Pd  Pd199  1  0.20009591  0.60708819  0.61021693  1
  Rh  Rh200  1  0.59618008  0.39914078  0.40759166  1
  Rh  Rh201  1  0.40591197  0.40878075  0.80431158  1
  Rh  Rh202  1  -0.00554934  0.00048708  0.60265551  1
  Rh  Rh203  1  0.19763733  0.00335663  0.79488191  1
  Rh  Rh204  1  0.60053512  0.58881462  0.59611292  1
  Rh  Rh205  1  -0.00641904  0.61181859  0.40966837  1
  Rh  Rh206  1  0.40322771  0.19931548  0.80353435  1
  Rh  Rh207  1  -0.00513802  0.19681619  -0.01050919  1
  Rh  Rh208  1  0.80905800  0.59548398  0.59647054  1
  Rh  Rh209  1  0.80691742  0.39473959  0.38709996  1
  Rh  Rh210  1  0.80517946  -0.00121452  0.39820820  1
  Rh  Rh211  1  0.01182195  0.79833408  0.59909466  1
  Rh  Rh212  1  0.39644808  0.38713453  0.00394564  1
  Rh  Rh213  1  0.00551270  0.19931290  0.79715443  1
  Rh  Rh214  1  0.19227334  0.79407932  0.19907958  1
  Rh  Rh215  1  0.20690829  0.38999431  0.59290608  1
  Rh  Rh216  1  0.39607471  0.60385190  0.60732135  1
  Rh  Rh217  1  0.40675841  0.19321030  0.39176489  1
  Rh  Rh218  1  -0.00237063  0.59473017  0.01212828  1
  Rh  Rh219  1  0.00047538  0.00217749  0.19630904  1
  Rh  Rh220  1  0.20746265  0.00297955  0.39538736  1
  Rh  Rh221  1  -0.00837179  0.41824964  0.61031145  1
  Rh  Rh222  1  0.00449275  -0.00289765  0.80045619  1
  Rh  Rh223  1  0.19880523  0.80216473  0.60134821  1
  Rh  Rh224  1  0.19485880  0.19740437  0.79036871  1
  Rh  Rh225  1  0.79361283  0.59901682  0.20057433  1
  Rh  Rh226  1  0.79432503  0.60810295  0.81016732  1
  Rh  Rh227  1  0.20143256  0.40022778  0.19838868  1
  Rh  Rh228  1  0.21089993  0.59220819  0.39898541  1
  Rh  Rh229  1  0.60323819  0.79025977  -0.00527527  1
  Rh  Rh230  1  0.59118762  0.40543681  0.78960335  1
  Rh  Rh231  1  0.39591417  0.00175940  0.59755610  1
  Rh  Rh232  1  0.39254128  0.60264726  -0.00760762  1
  Rh  Rh233  1  0.40352812  0.79445131  0.79878013  1
  Rh  Rh234  1  0.40198289  0.39701668  0.59745092  1
  Rh  Rh235  1  0.01214106  0.60083784  0.20059872  1
  Rh  Rh236  1  -0.00005881  0.19523030  0.59117940  1
  Rh  Rh237  1  0.01306971  0.60695165  0.78509976  1
  Rh  Rh238  1  0.19795207  0.19476782  0.19522190  1
  Rh  Rh239  1  0.59508148  0.19643732  0.79665122  1
  Rh  Rh240  1  0.78899867  0.81023837  0.60925271  1
  Rh  Rh241  1  0.19527179  0.79902798  0.79737294  1
  Rh  Rh242  1  0.59150709  0.40079252  0.20458053  1
  Rh  Rh243  1  0.60435219  -0.00349633  0.19734082  1
  Rh  Rh244  1  0.19036382  0.41071034  0.80909207  1
  Rh  Rh245  1  0.40014539  0.79781463  0.59353390  1
  Rh  Rh246  1  0.79466101  0.18752085  0.19796075  1
  Rh  Rh247  1  0.40006621  0.59805231  0.20083644  1
  Rh  Rh248  1  0.40332751  0.00253661  0.80957587  1
  Rh  Rh249  1  0.39323065  0.80959847  0.00089050  1
