# generated using pymatgen
data_ZrScNbPdRh
_symmetry_space_group_name_H-M   'P 1'
_cell_length_a   16.55125692
_cell_length_b   16.55481225
_cell_length_c   16.54958273
_cell_angle_alpha   89.98566954
_cell_angle_beta   89.99271226
_cell_angle_gamma   90.00152917
_symmetry_Int_Tables_number   1
_chemical_formula_structural   ZrScNbPdRh
_chemical_formula_sum   'Zr50 Sc50 Nb50 Pd50 Rh50'
_cell_volume   4534.63432319
_cell_formula_units_Z   50
loop_
 _symmetry_equiv_pos_site_id
 _symmetry_equiv_pos_as_xyz
  1  'x, y, z'
loop_
 _atom_site_type_symbol
 _atom_site_label
 _atom_site_symmetry_multiplicity
 _atom_site_fract_x
 _atom_site_fract_y
 _atom_site_fract_z
 _atom_site_occupancy
  Zr  Zr0  1  0.29711996  0.70455964  0.90175155  1
  Zr  Zr1  1  0.50290352  0.70219000  0.90241452  1
  Zr  Zr2  1  0.29288448  0.90079168  0.50129117  1
  Zr  Zr3  1  0.69165425  0.69607439  0.49972297  1
  Zr  Zr4  1  0.29944212  0.10341779  0.90620470  1
  Zr  Zr5  1  0.10302583  0.90069676  0.49187726  1
  Zr  Zr6  1  0.10187944  0.50183316  0.49222186  1
  Zr  Zr7  1  0.69443812  0.49937234  0.68439645  1
  Zr  Zr8  1  0.28912869  0.50256625  0.29949641  1
  Zr  Zr9  1  0.90564975  0.89803088  0.10570328  1
  Zr  Zr10  1  0.30828124  0.30228716  0.90256588  1
  Zr  Zr11  1  0.50592866  0.90277672  0.71016502  1
  Zr  Zr12  1  0.90006899  0.69936496  0.10323620  1
  Zr  Zr13  1  0.10580474  0.89567417  0.10570477  1
  Zr  Zr14  1  0.90337663  0.30439151  0.10075386  1
  Zr  Zr15  1  0.10028430  0.49512325  0.69866629  1
  Zr  Zr16  1  0.90080207  0.09453269  0.29493137  1
  Zr  Zr17  1  0.30848509  0.29252608  0.50063786  1
  Zr  Zr18  1  0.89567903  0.10091035  0.10001772  1
  Zr  Zr19  1  0.09278366  0.30256155  0.69647533  1
  Zr  Zr20  1  0.49763483  0.10664320  0.29984789  1
  Zr  Zr21  1  0.49958140  0.30216665  0.30031042  1
  Zr  Zr22  1  0.30248509  0.69922381  0.50093047  1
  Zr  Zr23  1  0.29709490  0.90211298  0.90364014  1
  Zr  Zr24  1  0.89715211  0.31018339  0.30615066  1
  Zr  Zr25  1  0.30340725  0.48989937  0.69624113  1
  Zr  Zr26  1  0.10212290  0.70720997  0.50136014  1
  Zr  Zr27  1  0.50874374  0.69570875  0.10690137  1
  Zr  Zr28  1  0.09838245  0.29685878  0.49696841  1
  Zr  Zr29  1  0.09606805  0.70350587  0.70317009  1
  Zr  Zr30  1  0.10027871  0.69049758  0.29631540  1
  Zr  Zr31  1  0.50206260  0.69964019  0.30158569  1
  Zr  Zr32  1  0.10197400  0.30614405  0.29904935  1
  Zr  Zr33  1  0.69481194  0.29811757  0.30359122  1
  Zr  Zr34  1  0.90133021  0.10044715  0.89197282  1
  Zr  Zr35  1  0.70530204  0.90439452  0.89630266  1
  Zr  Zr36  1  0.70709188  0.69570109  0.11169356  1
  Zr  Zr37  1  0.30173988  0.69629478  0.69634142  1
  Zr  Zr38  1  0.29736635  0.90776331  0.10046789  1
  Zr  Zr39  1  0.70054057  0.89667452  0.71112311  1
  Zr  Zr40  1  0.48724363  0.50319070  0.29087073  1
  Zr  Zr41  1  0.89172870  0.50607753  0.09858792  1
  Zr  Zr42  1  0.51085981  0.49956707  0.50346408  1
  Zr  Zr43  1  0.89094002  0.70508468  0.49985083  1
  Zr  Zr44  1  0.49628174  0.49573099  0.70039509  1
  Zr  Zr45  1  0.69684730  0.10218061  0.49655477  1
  Zr  Zr46  1  0.28885747  0.90641168  0.29227123  1
  Zr  Zr47  1  0.90063512  0.10935187  0.69683336  1
  Zr  Zr48  1  0.10089886  0.10045647  0.89592249  1
  Zr  Zr49  1  0.49206583  0.10525580  0.49821540  1
  Sc  Sc50  1  0.69722918  0.50335751  0.09834012  1
  Sc  Sc51  1  0.29356144  0.29670225  0.29664915  1
  Sc  Sc52  1  0.69934820  0.48900726  0.30313880  1
  Sc  Sc53  1  0.69888831  0.31424274  0.50208032  1
  Sc  Sc54  1  0.69722985  0.10297295  0.90502643  1
  Sc  Sc55  1  0.69528350  0.29352801  0.90907033  1
  Sc  Sc56  1  0.69887253  0.89390686  0.30004016  1
  Sc  Sc57  1  0.10362710  0.89650384  0.89348544  1
  Sc  Sc58  1  0.10180827  0.30301417  0.90854797  1
  Sc  Sc59  1  0.31921880  0.09366128  0.69791359  1
  Sc  Sc60  1  0.90542528  0.50023483  0.29714505  1
  Sc  Sc61  1  0.70534342  0.10180640  0.71398492  1
  Sc  Sc62  1  0.49527847  0.49149265  0.90538976  1
  Sc  Sc63  1  0.70133520  0.88740792  0.49399597  1
  Sc  Sc64  1  0.70317976  0.49887778  0.91285801  1
  Sc  Sc65  1  0.50012929  0.89855779  0.29926687  1
  Sc  Sc66  1  0.50138246  0.29884527  0.49745285  1
  Sc  Sc67  1  0.91396825  0.69875469  0.90574074  1
  Sc  Sc68  1  0.29998739  0.69282197  0.30436693  1
  Sc  Sc69  1  0.70502763  0.90168674  0.09730867  1
  Sc  Sc70  1  0.51723840  0.90423586  0.90352464  1
  Sc  Sc71  1  0.70495286  0.29449493  0.69694384  1
  Sc  Sc72  1  0.30026416  0.90125278  0.69862014  1
  Sc  Sc73  1  0.90956553  0.89622323  0.49249726  1
  Sc  Sc74  1  0.09031893  0.70486353  0.09933560  1
  Sc  Sc75  1  0.89882152  0.70031986  0.29166414  1
  Sc  Sc76  1  0.70439011  0.10187671  0.09847610  1
  Sc  Sc77  1  0.10784898  0.09856064  0.30415166  1
  Sc  Sc78  1  0.30220330  0.48937563  0.89819468  1
  Sc  Sc79  1  0.50057462  0.89104725  0.49592527  1
  Sc  Sc80  1  0.50553965  0.89617508  0.09712927  1
  Sc  Sc81  1  0.90546020  0.29555058  0.90472377  1
  Sc  Sc82  1  0.29035594  0.29815198  0.09659274  1
  Sc  Sc83  1  0.09973416  0.09033541  0.50078448  1
  Sc  Sc84  1  0.29777760  0.48605491  0.10108951  1
  Sc  Sc85  1  0.11402503  0.10358809  0.09349930  1
  Sc  Sc86  1  0.49772002  0.30765796  0.09891710  1
  Sc  Sc87  1  0.70465220  0.70483844  0.69392448  1
  Sc  Sc88  1  0.28453148  0.71369982  0.09876759  1
  Sc  Sc89  1  0.29790025  0.10638466  0.29117326  1
  Sc  Sc90  1  0.08765194  0.09696318  0.70165130  1
  Sc  Sc91  1  0.69629281  0.10237486  0.29695793  1
  Sc  Sc92  1  0.70047584  0.30233590  0.09930000  1
  Sc  Sc93  1  0.09700916  0.49159923  0.10561098  1
  Sc  Sc94  1  0.50081337  0.69896282  0.69417788  1
  Sc  Sc95  1  0.49026608  0.29747970  0.69901464  1
  Sc  Sc96  1  0.91073058  0.49257632  0.69719207  1
  Sc  Sc97  1  0.70338863  0.70130250  0.90614532  1
  Sc  Sc98  1  0.89895821  0.48965646  0.49538189  1
  Sc  Sc99  1  0.09749712  0.89995938  0.69653275  1
  Nb  Nb100  1  0.90077283  0.29210931  0.50961628  1
  Nb  Nb101  1  0.50431014  0.29820721  0.90021409  1
  Nb  Nb102  1  0.09129044  0.50622427  0.89408400  1
  Nb  Nb103  1  0.49831294  0.69837126  0.49056664  1
  Nb  Nb104  1  0.90663236  0.90791331  0.29718039  1
  Nb  Nb105  1  0.90057586  0.90279310  0.90184042  1
  Nb  Nb106  1  0.09209458  0.90353955  0.30171536  1
  Nb  Nb107  1  0.70112216  0.70295907  0.30304407  1
  Nb  Nb108  1  0.49256773  0.50136384  0.10017559  1
  Nb  Nb109  1  0.89411589  0.90336011  0.71227672  1
  Nb  Nb110  1  0.89902485  0.10129381  0.50334834  1
  Nb  Nb111  1  0.30241040  0.09589626  0.10127440  1
  Nb  Nb112  1  0.09699046  0.49912148  0.30224904  1
  Nb  Nb113  1  0.90318385  0.29445220  0.69037898  1
  Nb  Nb114  1  0.29730834  0.30230264  0.69885355  1
  Nb  Nb115  1  0.10085300  0.69521508  0.89835256  1
  Nb  Nb116  1  0.10069286  0.30097754  0.10225539  1
  Nb  Nb117  1  0.30035506  0.10047031  0.49621096  1
  Nb  Nb118  1  0.50411028  0.10892113  0.89840233  1
  Nb  Nb119  1  0.90040484  0.50419006  0.89667766  1
  Nb  Nb120  1  0.50696399  0.09748577  0.70330996  1
  Nb  Nb121  1  0.30353440  0.50175776  0.49872168  1
  Nb  Nb122  1  0.69723451  0.50192284  0.49945245  1
  Nb  Nb123  1  0.49378977  0.09517902  0.10363970  1
  Nb  Nb124  1  0.90067138  0.69857083  0.69854336  1
  Nb  Nb125  1  0.00297542  0.20521715  0.20150885  1
  Nb  Nb126  1  -0.00097697  0.60543055  0.59859560  1
  Nb  Nb127  1  0.20570770  0.20442229  0.79204081  1
  Nb  Nb128  1  0.39717083  0.40670033  0.40019420  1
  Nb  Nb129  1  0.39856162  0.80009820  0.19831552  1
  Nb  Nb130  1  0.79993009  -0.00045373  0.59868453  1
  Nb  Nb131  1  0.39549949  0.60167313  0.00557483  1
  Nb  Nb132  1  0.59680329  0.19190002  0.60397205  1
  Nb  Nb133  1  0.80582422  0.19996000  0.40565448  1
  Nb  Nb134  1  0.19552571  0.59659802  -0.00842643  1
  Nb  Nb135  1  0.20626157  0.19775850  0.60467581  1
  Nb  Nb136  1  0.80104374  0.40344765  0.80000645  1
  Nb  Nb137  1  0.59483917  0.00337840  0.19707917  1
  Nb  Nb138  1  -0.00686709  0.19826666  0.39985885  1
  Nb  Nb139  1  0.80530777  0.59421252  0.79776752  1
  Nb  Nb140  1  0.40224931  0.80080662  0.80442100  1
  Nb  Nb141  1  0.80524745  0.00239114  0.40128521  1
  Nb  Nb142  1  0.60588681  0.59320900  0.79926681  1
  Nb  Nb143  1  0.40502858  0.00781954  0.00127932  1
  Nb  Nb144  1  0.60353342  0.39895383  0.80120844  1
  Nb  Nb145  1  0.39372572  0.00321020  0.39959453  1
  Nb  Nb146  1  0.79191323  0.60088027  0.40191890  1
  Nb  Nb147  1  -0.00115596  -0.00341668  -0.00230566  1
  Nb  Nb148  1  0.19639203  0.59677692  0.80257156  1
  Nb  Nb149  1  0.60362727  0.00167171  0.60275242  1
  Pd  Pd150  1  0.40043698  0.60177245  0.80990897  1
  Pd  Pd151  1  0.20206334  0.00921646  0.78951667  1
  Pd  Pd152  1  0.59812894  -0.00683881  0.39800246  1
  Pd  Pd153  1  0.19769182  0.59769039  0.18640331  1
  Pd  Pd154  1  0.79501897  0.40342434  0.19854298  1
  Pd  Pd155  1  0.59411461  0.59335576  -0.00491314  1
  Pd  Pd156  1  0.80463968  0.81261248  0.60073195  1
  Pd  Pd157  1  0.20240253  0.39405253  0.58974373  1
  Pd  Pd158  1  0.59990462  0.40474707  0.19416587  1
  Pd  Pd159  1  0.80114632  0.39457343  -0.00587436  1
  Pd  Pd160  1  -0.01103935  0.60345653  0.40386960  1
  Pd  Pd161  1  0.00471664  0.59491084  0.00871158  1
  Pd  Pd162  1  0.39257348  0.80695268  0.39107581  1
  Pd  Pd163  1  0.80485094  0.00247278  -0.00174818  1
  Pd  Pd164  1  0.39879774  0.20192709  0.79696522  1
  Pd  Pd165  1  0.80244320  0.80719733  0.20571852  1
  Pd  Pd166  1  0.00311281  0.19230995  0.00618625  1
  Pd  Pd167  1  0.20123056  0.79513949  0.39184390  1
  Pd  Pd168  1  0.80272931  0.79586249  -0.00136288  1
  Pd  Pd169  1  0.61150192  0.79966961  0.00509851  1
  Pd  Pd170  1  0.38364158  0.60976273  0.18733800  1
  Pd  Pd171  1  0.60327413  0.59380884  0.39020377  1
  Pd  Pd172  1  0.40637854  0.59830097  0.59438640  1
  Pd  Pd173  1  0.20698026  0.39796476  0.40361820  1
  Pd  Pd174  1  0.40469661  0.80261567  0.00285943  1
  Pd  Pd175  1  0.59629884  0.80213418  0.59971487  1
  Pd  Pd176  1  0.80915496  0.59302925  0.59859216  1
  Pd  Pd177  1  -0.00454145  0.80421340  0.80364564  1
  Pd  Pd178  1  -0.00760812  0.39123849  0.80506992  1
  Pd  Pd179  1  0.19489447  0.59913099  0.60330846  1
  Pd  Pd180  1  0.00017030  0.40757300  -0.00033098  1
  Pd  Pd181  1  0.40722940  -0.00489952  0.81379041  1
  Pd  Pd182  1  0.40428564  0.80542829  0.60568103  1
  Pd  Pd183  1  0.20043944  0.00849067  0.60867062  1
  Pd  Pd184  1  0.80073616  0.21192614  0.80685679  1
  Pd  Pd185  1  0.40400567  0.20033680  0.00844344  1
  Pd  Pd186  1  0.80310415  0.20573245  0.20378463  1
  Pd  Pd187  1  0.19718255  0.39798421  0.80699777  1
  Pd  Pd188  1  0.01236557  0.01188975  0.18962105  1
  Pd  Pd189  1  -0.00681358  0.80408376  0.60375235  1
  Pd  Pd190  1  0.80787447  0.78662948  0.80908215  1
  Pd  Pd191  1  -0.00270750  0.79370839  0.38942333  1
  Pd  Pd192  1  0.80459510  0.40044857  0.60265054  1
  Pd  Pd193  1  0.40940064  -0.00822441  0.59194469  1
  Pd  Pd194  1  -0.00948815  -0.00938674  0.60153367  1
  Pd  Pd195  1  0.39581024  0.20972493  0.19268276  1
  Pd  Pd196  1  0.59902138  0.19681585  0.18981172  1
  Pd  Pd197  1  0.20473208  0.79743539  0.79338823  1
  Pd  Pd198  1  0.60788194  0.59083911  0.20858668  1
  Pd  Pd199  1  0.59611070  0.19793945  0.01078962  1
  Rh  Rh200  1  0.20192084  0.20455869  -0.00432267  1
  Rh  Rh201  1  0.79951331  0.40109749  0.40522290  1
  Rh  Rh202  1  -0.00057838  0.40416095  0.59191334  1
  Rh  Rh203  1  0.20514685  0.00414775  0.39704790  1
  Rh  Rh204  1  0.80494337  0.60690273  -0.00551233  1
  Rh  Rh205  1  0.00315682  0.80934458  -0.00449525  1
  Rh  Rh206  1  0.40129709  0.59374144  0.40665849  1
  Rh  Rh207  1  0.19583126  0.19474095  0.40842252  1
  Rh  Rh208  1  0.39351415  0.39524482  0.20368183  1
  Rh  Rh209  1  0.00262714  0.79983913  0.20728391  1
  Rh  Rh210  1  0.00702212  0.20802577  0.80076765  1
  Rh  Rh211  1  0.00007993  0.39941892  0.19913696  1
  Rh  Rh212  1  0.80127271  0.00426301  0.79983282  1
  Rh  Rh213  1  0.78617968  -0.00641121  0.20899503  1
  Rh  Rh214  1  0.78953295  0.19648816  0.59608235  1
  Rh  Rh215  1  -0.00211335  -0.00582649  0.80397097  1
  Rh  Rh216  1  -0.00225604  0.00475567  0.40090894  1
  Rh  Rh217  1  0.40122733  0.40021836  0.59089315  1
  Rh  Rh218  1  -0.00218825  0.60114069  0.78978089  1
  Rh  Rh219  1  0.59570012  0.00821693  0.00537345  1
  Rh  Rh220  1  0.19227563  0.00714064  0.20061916  1
  Rh  Rh221  1  0.60725023  0.21041881  0.40920500  1
  Rh  Rh222  1  0.19525654  0.20026825  0.19406882  1
  Rh  Rh223  1  0.20051970  0.80392839  0.60297423  1
  Rh  Rh224  1  0.39360337  0.20120725  0.39018958  1
  Rh  Rh225  1  0.59674099  0.20773852  0.79604847  1
  Rh  Rh226  1  0.01183755  0.19561700  0.59434838  1
  Rh  Rh227  1  0.40223698  0.40068513  0.00431634  1
  Rh  Rh228  1  0.19755153  0.39975783  0.20013173  1
  Rh  Rh229  1  0.19969218  0.60238753  0.40355132  1
  Rh  Rh230  1  -0.00042540  0.39592225  0.40384653  1
  Rh  Rh231  1  0.59533364  0.40062156  -0.00109953  1
  Rh  Rh232  1  0.40704922  -0.00910857  0.19956219  1
  Rh  Rh233  1  0.79498356  0.59406223  0.21166423  1
  Rh  Rh234  1  0.59785225  0.80514262  0.20067469  1
  Rh  Rh235  1  0.19661660  0.79656004  0.20936420  1
  Rh  Rh236  1  0.00155487  0.59448317  0.19726412  1
  Rh  Rh237  1  0.59761264  0.78580162  0.79895653  1
  Rh  Rh238  1  0.40813437  0.39218164  0.80253800  1
  Rh  Rh239  1  0.40094925  0.19807252  0.60477391  1
  Rh  Rh240  1  0.80153303  0.20263569  -0.00037336  1
  Rh  Rh241  1  0.59826352  0.79737936  0.39796808  1
  Rh  Rh242  1  0.19217785  0.40526533  -0.00324434  1
  Rh  Rh243  1  0.59132205  0.40283275  0.39722995  1
  Rh  Rh244  1  0.19907309  -0.00183066  -0.00115756  1
  Rh  Rh245  1  0.80492239  0.80053506  0.39086222  1
  Rh  Rh246  1  0.59444622  0.60780914  0.60220642  1
  Rh  Rh247  1  0.59441144  0.38618824  0.60828229  1
  Rh  Rh248  1  0.18676570  0.79790168  -0.00319372  1
  Rh  Rh249  1  0.60544799  0.01017993  0.80355057  1
