# generated using pymatgen
data_ZrScNbPdRh
_symmetry_space_group_name_H-M   'P 1'
_cell_length_a   16.55611243
_cell_length_b   16.55578820
_cell_length_c   16.55713410
_cell_angle_alpha   89.99124931
_cell_angle_beta   89.98578783
_cell_angle_gamma   90.03226295
_symmetry_Int_Tables_number   1
_chemical_formula_structural   ZrScNbPdRh
_chemical_formula_sum   'Zr50 Sc50 Nb50 Pd50 Rh50'
_cell_volume   4538.30111316
_cell_formula_units_Z   50
loop_
 _symmetry_equiv_pos_site_id
 _symmetry_equiv_pos_as_xyz
  1  'x, y, z'
loop_
 _atom_site_type_symbol
 _atom_site_label
 _atom_site_symmetry_multiplicity
 _atom_site_fract_x
 _atom_site_fract_y
 _atom_site_fract_z
 _atom_site_occupancy
  Zr  Zr0  1  0.70053106  0.50425161  0.69706927  1
  Zr  Zr1  1  0.90400803  0.69929237  0.90736823  1
  Zr  Zr2  1  0.50707671  0.89856899  0.88922144  1
  Zr  Zr3  1  0.50133424  0.71348535  0.29654676  1
  Zr  Zr4  1  0.09977648  0.89770172  0.89899596  1
  Zr  Zr5  1  0.69580619  0.09349767  0.90206485  1
  Zr  Zr6  1  0.69866953  0.89808068  0.70260152  1
  Zr  Zr7  1  0.51062888  0.49039400  0.31303761  1
  Zr  Zr8  1  0.09909199  0.30332981  0.29001190  1
  Zr  Zr9  1  0.50011868  0.29511504  0.69656635  1
  Zr  Zr10  1  0.29785681  0.29201636  0.90085043  1
  Zr  Zr11  1  0.09751568  0.69432769  0.89572930  1
  Zr  Zr12  1  0.29786889  0.89752466  0.09502750  1
  Zr  Zr13  1  0.29398713  0.10041022  0.50405491  1
  Zr  Zr14  1  0.69326088  0.50748791  0.49971558  1
  Zr  Zr15  1  0.71039192  0.70084648  0.30411660  1
  Zr  Zr16  1  0.50628678  0.50059178  0.70099562  1
  Zr  Zr17  1  0.49792182  0.30711862  0.49382368  1
  Zr  Zr18  1  0.70555142  0.90211385  0.50451316  1
  Zr  Zr19  1  0.10616940  0.49699796  0.10433555  1
  Zr  Zr20  1  0.90486446  0.90426955  0.69875441  1
  Zr  Zr21  1  0.70392847  0.50117248  0.30078914  1
  Zr  Zr22  1  0.29727227  0.89755231  0.70573924  1
  Zr  Zr23  1  0.89929749  0.50624644  0.30219273  1
  Zr  Zr24  1  0.10201794  0.70665683  0.50397029  1
  Zr  Zr25  1  0.89125742  0.10551651  0.90305859  1
  Zr  Zr26  1  0.50087846  0.90346810  0.70070883  1
  Zr  Zr27  1  0.70119373  0.28476102  0.89864411  1
  Zr  Zr28  1  0.89651211  0.91161424  0.50070546  1
  Zr  Zr29  1  0.30660721  0.30046877  0.50237661  1
  Zr  Zr30  1  0.50980397  0.49968941  0.08774691  1
  Zr  Zr31  1  0.90314406  0.50235651  0.89818085  1
  Zr  Zr32  1  0.09820812  0.29182531  0.69849736  1
  Zr  Zr33  1  0.69090096  0.91185086  0.29595939  1
  Zr  Zr34  1  0.69958974  0.10094398  0.09396150  1
  Zr  Zr35  1  0.50499999  0.89909025  0.49546242  1
  Zr  Zr36  1  0.09864335  0.09942664  0.90903032  1
  Zr  Zr37  1  0.90095104  0.30185518  0.90348436  1
  Zr  Zr38  1  0.50931559  0.69547973  0.49933467  1
  Zr  Zr39  1  0.69313632  0.50432835  0.89795702  1
  Zr  Zr40  1  0.30097679  0.09868172  0.09144112  1
  Zr  Zr41  1  0.89771600  0.29645091  0.29351484  1
  Zr  Zr42  1  0.50223878  0.49458463  0.50522869  1
  Zr  Zr43  1  0.30589397  0.89597564  0.90080802  1
  Zr  Zr44  1  0.90498545  0.89785559  0.29529660  1
  Zr  Zr45  1  0.90111113  0.89375239  0.09835644  1
  Zr  Zr46  1  0.09890720  0.70790974  0.70271317  1
  Zr  Zr47  1  0.70766160  0.10044990  0.49252370  1
  Zr  Zr48  1  0.09773320  0.70506693  0.09467158  1
  Zr  Zr49  1  0.30816343  0.29692080  0.30097091  1
  Sc  Sc50  1  0.29898055  0.50334764  0.90293244  1
  Sc  Sc51  1  0.29064749  0.70880460  0.49540803  1
  Sc  Sc52  1  0.09934249  0.09579419  0.50428038  1
  Sc  Sc53  1  0.88862883  0.10090628  0.29807883  1
  Sc  Sc54  1  0.09647014  0.29519190  0.51275755  1
  Sc  Sc55  1  0.89278505  0.70501165  0.48953662  1
  Sc  Sc56  1  0.09350501  0.50651103  0.71382985  1
  Sc  Sc57  1  0.70475176  0.90142903  0.09085076  1
  Sc  Sc58  1  0.30007423  0.70650972  0.30034064  1
  Sc  Sc59  1  0.09565330  0.09059539  0.29669449  1
  Sc  Sc60  1  0.50175815  0.09621286  0.89672360  1
  Sc  Sc61  1  0.29392766  0.90363164  0.49252120  1
  Sc  Sc62  1  0.50498379  0.10175282  0.50164986  1
  Sc  Sc63  1  0.89946660  0.70860447  0.10331648  1
  Sc  Sc64  1  0.70271913  0.70885731  0.09720509  1
  Sc  Sc65  1  0.90330378  0.90182182  0.90499763  1
  Sc  Sc66  1  0.49774842  0.69771601  0.90539762  1
  Sc  Sc67  1  0.70151746  0.29979878  0.30291048  1
  Sc  Sc68  1  0.29446454  0.49868932  0.09744430  1
  Sc  Sc69  1  0.28967597  0.50020993  0.29297731  1
  Sc  Sc70  1  0.10430359  0.09267025  0.69884144  1
  Sc  Sc71  1  0.30511121  0.09593063  0.90054102  1
  Sc  Sc72  1  0.70002295  0.29014072  0.50695033  1
  Sc  Sc73  1  0.70323578  0.69820568  0.69914147  1
  Sc  Sc74  1  0.89045100  0.49982492  0.70046947  1
  Sc  Sc75  1  0.49711030  0.50592990  0.89491365  1
  Sc  Sc76  1  0.49554868  0.10577868  0.09033645  1
  Sc  Sc77  1  0.29369315  0.70249647  0.71499953  1
  Sc  Sc78  1  0.30554858  0.28535115  0.70008881  1
  Sc  Sc79  1  0.10321299  0.70203192  0.31117702  1
  Sc  Sc80  1  0.30340598  0.09684188  0.69866351  1
  Sc  Sc81  1  0.30483248  0.50593249  0.71563714  1
  Sc  Sc82  1  0.89789582  0.70783018  0.29750361  1
  Sc  Sc83  1  0.09940471  0.89781298  0.50071981  1
  Sc  Sc84  1  0.50093204  0.88095165  0.10195096  1
  Sc  Sc85  1  0.89545728  0.30018340  0.69298942  1
  Sc  Sc86  1  0.70078643  0.70843181  0.89415238  1
  Sc  Sc87  1  0.89590601  0.69723338  0.70783721  1
  Sc  Sc88  1  0.70326390  0.70008542  0.50056702  1
  Sc  Sc89  1  0.09755715  0.50678914  0.49507359  1
  Sc  Sc90  1  0.09343171  0.49724172  0.91186497  1
  Sc  Sc91  1  0.30254801  0.69924720  0.90271383  1
  Sc  Sc92  1  0.69692474  0.30025621  0.70199763  1
  Sc  Sc93  1  0.09442909  0.90884940  0.09639804  1
  Sc  Sc94  1  0.90291307  0.49912058  0.10144428  1
  Sc  Sc95  1  0.30091671  0.09361832  0.30535016  1
  Sc  Sc96  1  0.30748579  0.70329968  0.09354190  1
  Sc  Sc97  1  0.09743520  0.30687035  0.09143445  1
  Sc  Sc98  1  0.89991774  0.10029075  0.09567797  1
  Sc  Sc99  1  0.69752578  0.10876919  0.69369078  1
  Nb  Nb100  1  0.69926420  0.90515056  0.89448442  1
  Nb  Nb101  1  0.49401198  0.70131282  0.70180297  1
  Nb  Nb102  1  0.30585025  0.29741944  0.10132512  1
  Nb  Nb103  1  0.10596969  0.09811114  0.09929700  1
  Nb  Nb104  1  0.49769171  0.29300542  0.89907862  1
  Nb  Nb105  1  0.51137854  0.09324466  0.30022223  1
  Nb  Nb106  1  0.49835384  0.69262843  0.10086124  1
  Nb  Nb107  1  0.90229230  0.29782929  0.50146478  1
  Nb  Nb108  1  0.68993334  0.10078896  0.29613853  1
  Nb  Nb109  1  0.69672134  0.49871746  0.09727776  1
  Nb  Nb110  1  0.10271838  0.90329528  0.29632821  1
  Nb  Nb111  1  0.49397663  0.09796417  0.69795321  1
  Nb  Nb112  1  0.09947974  0.89049198  0.70489982  1
  Nb  Nb113  1  0.10074798  0.49823366  0.29794707  1
  Nb  Nb114  1  0.09696328  0.30316517  0.89791579  1
  Nb  Nb115  1  0.89192971  0.30010054  0.09921580  1
  Nb  Nb116  1  0.89980556  0.10046252  0.69757502  1
  Nb  Nb117  1  0.89833140  0.49845395  0.50426488  1
  Nb  Nb118  1  0.30265951  0.89985388  0.29918766  1
  Nb  Nb119  1  0.30392749  0.49798963  0.50197642  1
  Nb  Nb120  1  0.49944947  0.29777720  0.09906547  1
  Nb  Nb121  1  0.69153272  0.30425547  0.09815127  1
  Nb  Nb122  1  0.49851317  0.29590893  0.30041151  1
  Nb  Nb123  1  0.49474023  0.90377980  0.29931813  1
  Nb  Nb124  1  0.89536359  0.10766905  0.50688248  1
  Nb  Nb125  1  -0.00396045  0.20273736  0.40336219  1
  Nb  Nb126  1  0.59463716  0.20216099  0.20124097  1
  Nb  Nb127  1  0.60021515  0.60007122  0.19685715  1
  Nb  Nb128  1  0.40052214  0.59732428  0.40121852  1
  Nb  Nb129  1  0.40521341  -0.00527022  0.20432756  1
  Nb  Nb130  1  0.79250858  0.39897311  0.00449649  1
  Nb  Nb131  1  0.20088271  0.59730405  0.60154692  1
  Nb  Nb132  1  0.00810182  0.59936794  0.20454972  1
  Nb  Nb133  1  0.40293120  0.38972828  0.00277663  1
  Nb  Nb134  1  -0.00068080  0.39771856  0.40210087  1
  Nb  Nb135  1  0.79830670  0.00187589  0.79842458  1
  Nb  Nb136  1  0.19626292  0.39825685  0.40446918  1
  Nb  Nb137  1  0.19841795  0.80957840  0.20132014  1
  Nb  Nb138  1  0.41042268  0.59521271  0.20210912  1
  Nb  Nb139  1  0.79565556  0.59378732  0.00076138  1
  Nb  Nb140  1  0.19568869  0.39216690  0.80109863  1
  Nb  Nb141  1  0.40845709  0.39722725  0.19620191  1
  Nb  Nb142  1  0.19364512  0.20438294  0.39617959  1
  Nb  Nb143  1  0.20215879  0.19805554  0.19575117  1
  Nb  Nb144  1  0.39553524  0.60442876  0.59794181  1
  Nb  Nb145  1  -0.00088927  0.19903703  0.80259701  1
  Nb  Nb146  1  -0.00062192  0.60230995  0.59606521  1
  Nb  Nb147  1  0.40165559  0.79634131  0.60184394  1
  Nb  Nb148  1  0.80861909  0.39847265  0.40816282  1
  Nb  Nb149  1  0.20268686  0.40753699  0.60418945  1
  Pd  Pd150  1  -0.00674516  0.00635710  0.19459523  1
  Pd  Pd151  1  0.00071048  0.39541453  0.79313477  1
  Pd  Pd152  1  0.59798297  0.39183925  -0.01405271  1
  Pd  Pd153  1  0.40034189  0.18767965  0.40271601  1
  Pd  Pd154  1  0.79587537  0.39696939  0.80504396  1
  Pd  Pd155  1  0.79114259  0.39860375  0.59508583  1
  Pd  Pd156  1  0.20222500  0.00224695  0.80434669  1
  Pd  Pd157  1  0.00829289  0.41119534  0.60071395  1
  Pd  Pd158  1  0.59751239  0.39681755  0.20373945  1
  Pd  Pd159  1  0.39419592  0.39562089  0.80513168  1
  Pd  Pd160  1  0.80714397  0.79514264  0.60191767  1
  Pd  Pd161  1  0.59876549  0.79546068  0.60515266  1
  Pd  Pd162  1  0.00115879  0.20234042  0.00282389  1
  Pd  Pd163  1  0.00667151  0.00069299  0.60030443  1
  Pd  Pd164  1  0.59958096  0.61068549  0.79819003  1
  Pd  Pd165  1  0.20085857  0.61566380  0.19927248  1
  Pd  Pd166  1  0.20781268  0.00152347  0.20024073  1
  Pd  Pd167  1  -0.01157803  0.79501204  0.59768370  1
  Pd  Pd168  1  0.80206469  -0.00126683  0.19578393  1
  Pd  Pd169  1  0.59982455  0.39553839  0.80385272  1
  Pd  Pd170  1  0.00516800  0.19180668  0.19701834  1
  Pd  Pd171  1  0.80703046  0.80760666  0.80460462  1
  Pd  Pd172  1  0.20726007  0.59437359  0.40373632  1
  Pd  Pd173  1  0.60926592  0.80328869  0.39828845  1
  Pd  Pd174  1  0.40320920  0.00559323  0.40070262  1
  Pd  Pd175  1  0.40253172  0.19103203  0.20289765  1
  Pd  Pd176  1  0.59399868  0.19230212  0.79597150  1
  Pd  Pd177  1  0.80088205  0.00074024  0.39220217  1
  Pd  Pd178  1  0.19549391  0.19590475  0.79996630  1
  Pd  Pd179  1  0.59102428  -0.00808246  0.00645578  1
  Pd  Pd180  1  -0.00466752  0.40514633  0.19829383  1
  Pd  Pd181  1  0.79877960  0.40019414  0.19929715  1
  Pd  Pd182  1  0.78807791  0.19880959  0.19490018  1
  Pd  Pd183  1  -0.00394675  0.00692931  0.80203428  1
  Pd  Pd184  1  0.60896643  0.79822092  0.19838885  1
  Pd  Pd185  1  0.39798152  0.79642189  0.40730264  1
  Pd  Pd186  1  0.41125584  -0.01033870  0.00506676  1
  Pd  Pd187  1  0.19619952  -0.01039682  0.60275795  1
  Pd  Pd188  1  0.19659675  0.20449915  0.00549650  1
  Pd  Pd189  1  -0.00125704  0.00841543  0.40161841  1
  Pd  Pd190  1  0.39288734  0.40530639  0.61646259  1
  Pd  Pd191  1  0.60050729  0.20375721  0.39712975  1
  Pd  Pd192  1  0.60483740  0.00710196  0.59961937  1
  Pd  Pd193  1  0.80114316  0.60423953  0.18802903  1
  Pd  Pd194  1  0.39715418  -0.00763289  0.59515613  1
  Pd  Pd195  1  -0.00327598  0.60103961  0.40051156  1
  Pd  Pd196  1  0.20250882  0.60196350  -0.00211604  1
  Pd  Pd197  1  0.58935824  0.00351730  0.18339625  1
  Pd  Pd198  1  0.00030444  0.80547823  0.39989456  1
  Pd  Pd199  1  0.60069475  0.79664492  -0.00534041  1
  Rh  Rh200  1  0.60404862  0.39462263  0.59917171  1
  Rh  Rh201  1  0.60180649  -0.00069212  0.40613432  1
  Rh  Rh202  1  -0.00484809  0.60193459  0.79479029  1
  Rh  Rh203  1  0.00291472  0.80230688  -0.00273357  1
  Rh  Rh204  1  0.39568108  0.59090298  0.00550202  1
  Rh  Rh205  1  0.59809934  0.79522680  0.79817737  1
  Rh  Rh206  1  0.40003070  0.00318067  0.79864985  1
  Rh  Rh207  1  0.79753892  0.00624715  0.60820369  1
  Rh  Rh208  1  0.40509329  0.19113814  0.80141464  1
  Rh  Rh209  1  0.59813012  0.60528365  0.60827835  1
  Rh  Rh210  1  -0.00595586  0.59915678  0.01356512  1
  Rh  Rh211  1  0.40317303  0.20158975  -0.00877199  1
  Rh  Rh212  1  0.80721630  0.60498689  0.59574137  1
  Rh  Rh213  1  0.40686171  0.80004958  -0.00531574  1
  Rh  Rh214  1  0.79878101  0.59975882  0.80819507  1
  Rh  Rh215  1  0.80703982  0.19529655  0.79092252  1
  Rh  Rh216  1  -0.00815407  0.39813529  0.00693179  1
  Rh  Rh217  1  0.21020850  0.38971729  0.20161236  1
  Rh  Rh218  1  0.38939241  0.41035229  0.38725838  1
  Rh  Rh219  1  0.19852488  -0.00329536  -0.00684697  1
  Rh  Rh220  1  0.19561088  0.00226402  0.39853938  1
  Rh  Rh221  1  0.19957788  0.79993007  0.80975018  1
  Rh  Rh222  1  0.40605601  0.19478930  0.59634676  1
  Rh  Rh223  1  0.20828201  0.79994582  0.60610882  1
  Rh  Rh224  1  0.80214265  0.59463251  0.40732521  1
  Rh  Rh225  1  -0.00191296  0.19074766  0.60342724  1
  Rh  Rh226  1  0.79587033  0.20642311  0.00922890  1
  Rh  Rh227  1  0.59795733  0.61082170  0.38801983  1
  Rh  Rh228  1  -0.00120964  0.00260371  0.00281813  1
  Rh  Rh229  1  0.61065434  0.61179305  0.00369230  1
  Rh  Rh230  1  0.80032879  0.20148427  0.60424649  1
  Rh  Rh231  1  0.19653911  0.80142385  0.00138545  1
  Rh  Rh232  1  0.79870163  0.79835644  -0.00680854  1
  Rh  Rh233  1  0.59741077  0.20122902  0.00202515  1
  Rh  Rh234  1  0.19685065  0.81232578  0.39172535  1
  Rh  Rh235  1  0.80225369  -0.00521819  -0.00637545  1
  Rh  Rh236  1  0.19494496  0.59343374  0.80476351  1
  Rh  Rh237  1  0.20888726  0.39518217  -0.00755329  1
  Rh  Rh238  1  0.61513523  0.38781655  0.40791115  1
  Rh  Rh239  1  0.01305436  0.79309060  0.20683489  1
  Rh  Rh240  1  -0.00436032  0.80028879  0.80278796  1
  Rh  Rh241  1  0.79682565  0.81408251  0.39555362  1
  Rh  Rh242  1  0.40303306  0.79785291  0.79928938  1
  Rh  Rh243  1  0.60620328  0.00691758  0.79000800  1
  Rh  Rh244  1  0.40295599  0.60377684  0.79986758  1
  Rh  Rh245  1  0.39062420  0.79997453  0.19820010  1
  Rh  Rh246  1  0.59381574  0.20003322  0.59919001  1
  Rh  Rh247  1  0.20480332  0.20227922  0.59530044  1
  Rh  Rh248  1  0.80415781  0.20234574  0.39898765  1
  Rh  Rh249  1  0.79406224  0.81087284  0.20321824  1
