# generated using pymatgen
data_ZrScNbPdRh
_symmetry_space_group_name_H-M   'P 1'
_cell_length_a   16.55428461
_cell_length_b   16.55513309
_cell_length_c   16.55289032
_cell_angle_alpha   90.02171039
_cell_angle_beta   89.96194400
_cell_angle_gamma   89.98400340
_symmetry_Int_Tables_number   1
_chemical_formula_structural   ZrScNbPdRh
_chemical_formula_sum   'Zr50 Sc50 Nb50 Pd50 Rh50'
_cell_volume   4536.45688492
_cell_formula_units_Z   50
loop_
 _symmetry_equiv_pos_site_id
 _symmetry_equiv_pos_as_xyz
  1  'x, y, z'
loop_
 _atom_site_type_symbol
 _atom_site_label
 _atom_site_symmetry_multiplicity
 _atom_site_fract_x
 _atom_site_fract_y
 _atom_site_fract_z
 _atom_site_occupancy
  Zr  Zr0  1  0.29714261  0.91279602  0.69480015  1
  Zr  Zr1  1  0.09128838  0.70152593  0.30438996  1
  Zr  Zr2  1  0.10302087  0.30129123  0.90878405  1
  Zr  Zr3  1  0.70108634  0.89555592  0.29441138  1
  Zr  Zr4  1  0.10360731  0.89614992  0.89184274  1
  Zr  Zr5  1  0.90147507  0.49672352  0.69833770  1
  Zr  Zr6  1  0.10181673  0.50203102  0.30526870  1
  Zr  Zr7  1  0.89625272  0.90769113  0.70487745  1
  Zr  Zr8  1  0.49712774  0.89843131  0.30074216  1
  Zr  Zr9  1  0.49891703  0.50907595  0.10301958  1
  Zr  Zr10  1  0.10176322  0.28738172  0.31463414  1
  Zr  Zr11  1  0.51041735  0.49817993  0.30153843  1
  Zr  Zr12  1  0.49763430  0.70489957  0.29304011  1
  Zr  Zr13  1  0.90739706  0.89984755  0.90221105  1
  Zr  Zr14  1  0.09830131  0.71481797  0.89805897  1
  Zr  Zr15  1  0.50330388  0.89744345  0.90509879  1
  Zr  Zr16  1  0.29863573  0.89970936  0.89201927  1
  Zr  Zr17  1  0.50156983  0.69367680  0.49683740  1
  Zr  Zr18  1  0.49849630  0.89665858  0.10931753  1
  Zr  Zr19  1  0.49395131  0.10015171  0.90107558  1
  Zr  Zr20  1  0.10449966  0.10162173  0.89622593  1
  Zr  Zr21  1  0.29668995  0.50341560  0.10278089  1
  Zr  Zr22  1  0.50060508  0.30348604  0.88606371  1
  Zr  Zr23  1  0.29290417  0.29698722  0.09629235  1
  Zr  Zr24  1  0.90097547  0.70845694  0.10404517  1
  Zr  Zr25  1  0.88915164  0.30392045  0.88991859  1
  Zr  Zr26  1  0.29936593  0.70657510  0.89755751  1
  Zr  Zr27  1  0.89784052  0.09007231  0.89882884  1
  Zr  Zr28  1  0.09361699  0.10616294  0.09532771  1
  Zr  Zr29  1  0.09547412  0.49537469  0.89660548  1
  Zr  Zr30  1  0.29432190  0.49816377  0.49576589  1
  Zr  Zr31  1  0.30880107  0.90101535  0.30668198  1
  Zr  Zr32  1  0.50534915  0.08941178  0.09615124  1
  Zr  Zr33  1  0.09547093  0.89445028  0.08842569  1
  Zr  Zr34  1  0.90855899  0.89872443  0.50388890  1
  Zr  Zr35  1  0.69727550  0.70016231  0.89533140  1
  Zr  Zr36  1  0.70163996  0.70015946  0.70582959  1
  Zr  Zr37  1  0.50099441  0.70252739  0.09747249  1
  Zr  Zr38  1  0.70729867  0.69967989  0.30368246  1
  Zr  Zr39  1  0.10786421  0.10609259  0.69062474  1
  Zr  Zr40  1  0.50040538  0.70712351  0.89876352  1
  Zr  Zr41  1  0.90199023  0.29675576  0.69449355  1
  Zr  Zr42  1  0.30512792  0.69133160  0.50364915  1
  Zr  Zr43  1  0.69987883  0.50075523  0.10486195  1
  Zr  Zr44  1  0.90266451  0.29692528  0.09807116  1
  Zr  Zr45  1  0.90139447  0.10510601  0.70348133  1
  Zr  Zr46  1  0.90231751  0.50135453  0.31383836  1
  Zr  Zr47  1  0.49422348  0.30214896  0.70256560  1
  Zr  Zr48  1  0.90647331  0.10367675  0.30058486  1
  Zr  Zr49  1  0.09866691  0.89111477  0.69178600  1
  Sc  Sc50  1  0.09913753  0.30047288  0.69423077  1
  Sc  Sc51  1  0.30336811  0.09747308  0.51064269  1
  Sc  Sc52  1  0.89683414  0.49721772  0.89128293  1
  Sc  Sc53  1  0.10278813  0.29718153  0.50569777  1
  Sc  Sc54  1  0.70305907  0.29657916  0.71545450  1
  Sc  Sc55  1  0.09282704  0.49628885  0.69232509  1
  Sc  Sc56  1  0.49896361  0.69458378  0.70670435  1
  Sc  Sc57  1  0.89424683  0.49554169  0.10298656  1
  Sc  Sc58  1  0.89312492  0.70656561  0.89671751  1
  Sc  Sc59  1  0.30497935  0.49877832  0.68707815  1
  Sc  Sc60  1  0.70886178  0.89316786  0.89575893  1
  Sc  Sc61  1  0.70192181  0.50971798  0.70519489  1
  Sc  Sc62  1  0.49323503  0.89878310  0.70184019  1
  Sc  Sc63  1  0.69245362  0.31611509  0.30211266  1
  Sc  Sc64  1  0.70821854  0.31197250  0.10094132  1
  Sc  Sc65  1  0.49625324  0.49586461  0.70594193  1
  Sc  Sc66  1  0.90525823  0.30634841  0.30620318  1
  Sc  Sc67  1  0.30544461  0.70055585  0.10462259  1
  Sc  Sc68  1  0.48533059  0.28623216  0.09760253  1
  Sc  Sc69  1  0.30173934  0.89777365  0.50045794  1
  Sc  Sc70  1  0.70178345  0.91124882  0.10487042  1
  Sc  Sc71  1  0.29965472  0.29122016  0.90083825  1
  Sc  Sc72  1  0.10051661  0.70276064  0.10307932  1
  Sc  Sc73  1  0.49390361  0.09982105  0.30348867  1
  Sc  Sc74  1  0.29506570  0.30279337  0.49651229  1
  Sc  Sc75  1  0.69405325  0.50710417  0.49015321  1
  Sc  Sc76  1  0.70451371  0.49603800  0.89737347  1
  Sc  Sc77  1  0.89878265  0.89229777  0.30066878  1
  Sc  Sc78  1  0.49229658  0.90877035  0.50154174  1
  Sc  Sc79  1  0.09707634  0.49415721  0.10149590  1
  Sc  Sc80  1  0.69411879  0.91218834  0.50367104  1
  Sc  Sc81  1  0.90390007  0.10501022  0.51263094  1
  Sc  Sc82  1  0.69348965  0.30038055  0.49265955  1
  Sc  Sc83  1  0.49989901  0.50286917  0.49978369  1
  Sc  Sc84  1  0.49831127  0.50664667  0.89087836  1
  Sc  Sc85  1  0.89920863  0.69269197  0.49483010  1
  Sc  Sc86  1  0.70829310  0.09735965  0.69427008  1
  Sc  Sc87  1  0.09976139  0.70471147  0.50527993  1
  Sc  Sc88  1  0.30593872  0.10038916  0.30995038  1
  Sc  Sc89  1  0.10102487  0.50010292  0.50409575  1
  Sc  Sc90  1  0.09752738  0.30093463  0.09411924  1
  Sc  Sc91  1  0.89945604  0.69100619  0.69978022  1
  Sc  Sc92  1  0.69390749  0.08877412  0.29388017  1
  Sc  Sc93  1  0.89984528  0.70172087  0.30262985  1
  Sc  Sc94  1  0.50374455  0.29126011  0.49506777  1
  Sc  Sc95  1  0.31527008  0.10405020  0.09795615  1
  Sc  Sc96  1  0.70424527  0.69962701  0.10023302  1
  Sc  Sc97  1  0.49340114  0.10783589  0.69420668  1
  Sc  Sc98  1  0.30379566  0.70378770  0.69318089  1
  Sc  Sc99  1  0.30216772  0.69437613  0.30305356  1
  Nb  Nb100  1  0.29600129  0.49708342  0.89895830  1
  Nb  Nb101  1  0.89679938  0.49250963  0.50338540  1
  Nb  Nb102  1  0.10142185  0.10613470  0.48586453  1
  Nb  Nb103  1  0.69339253  0.10216852  0.49522575  1
  Nb  Nb104  1  0.10192912  0.09803107  0.30495532  1
  Nb  Nb105  1  0.90027262  0.91198305  0.09785452  1
  Nb  Nb106  1  0.30121319  0.29953580  0.69494189  1
  Nb  Nb107  1  0.89538759  0.30289900  0.49826454  1
  Nb  Nb108  1  0.69887854  0.29948184  0.90222531  1
  Nb  Nb109  1  0.70204650  0.09614239  0.10013187  1
  Nb  Nb110  1  0.69869394  0.89761672  0.70327139  1
  Nb  Nb111  1  0.10392770  0.90491477  0.30967420  1
  Nb  Nb112  1  0.29571834  0.09682215  0.89357834  1
  Nb  Nb113  1  0.69855022  0.69967281  0.50721116  1
  Nb  Nb114  1  0.49460402  0.29732206  0.29788962  1
  Nb  Nb115  1  0.29808268  0.49321747  0.30143401  1
  Nb  Nb116  1  0.51408056  0.09859022  0.50138313  1
  Nb  Nb117  1  0.69860306  0.49786397  0.29929153  1
  Nb  Nb118  1  0.30363413  0.29863183  0.30206096  1
  Nb  Nb119  1  0.10533185  0.69681971  0.70276759  1
  Nb  Nb120  1  0.29627993  0.90380427  0.10657324  1
  Nb  Nb121  1  0.69661268  0.09675654  0.90305692  1
  Nb  Nb122  1  0.09823566  0.90111852  0.49017838  1
  Nb  Nb123  1  0.89377517  0.09119972  0.09959862  1
  Nb  Nb124  1  0.29742550  0.10529479  0.70496347  1
  Nb  Nb125  1  0.80009971  0.00728630  0.40454100  1
  Nb  Nb126  1  0.79501234  0.19393485  0.00241821  1
  Nb  Nb127  1  0.60299505  0.00023861  0.80071715  1
  Nb  Nb128  1  0.20423196  0.40216373  0.79790316  1
  Nb  Nb129  1  0.19582166  0.00184639  0.20133685  1
  Nb  Nb130  1  0.39587073  0.39770833  0.20404204  1
  Nb  Nb131  1  0.19753609  0.81088117  0.20753087  1
  Nb  Nb132  1  0.79615070  0.19557244  0.39827040  1
  Nb  Nb133  1  0.79669666  0.19650303  0.19944957  1
  Nb  Nb134  1  0.59421132  0.39514713  -0.00210598  1
  Nb  Nb135  1  0.60443782  0.39896401  0.60457608  1
  Nb  Nb136  1  0.00547304  -0.00092607  0.20145893  1
  Nb  Nb137  1  0.60383876  0.79894687  0.59995733  1
  Nb  Nb138  1  0.20403786  -0.00039680  0.00045471  1
  Nb  Nb139  1  0.60237950  0.79670489  0.40751059  1
  Nb  Nb140  1  0.60363292  0.20029029  0.19370006  1
  Nb  Nb141  1  0.20326181  0.39303666  0.21046464  1
  Nb  Nb142  1  0.39980732  0.40415593  -0.00032672  1
  Nb  Nb143  1  0.20001692  0.19673105  0.20635833  1
  Nb  Nb144  1  0.00129620  0.60308801  -0.00271188  1
  Nb  Nb145  1  0.19626980  0.60068725  -0.00790794  1
  Nb  Nb146  1  0.19830752  0.59750681  0.79953004  1
  Nb  Nb147  1  0.79623944  0.40178586  0.59499715  1
  Nb  Nb148  1  0.79305963  0.80063829  0.60044455  1
  Nb  Nb149  1  0.60722365  0.20194423  0.00013834  1
  Pd  Pd150  1  0.20871675  0.00386675  0.40493918  1
  Pd  Pd151  1  0.20126811  0.21140588  0.79555999  1
  Pd  Pd152  1  0.40727957  0.39872081  0.40109858  1
  Pd  Pd153  1  0.58672101  0.38848436  0.18724177  1
  Pd  Pd154  1  -0.00899803  0.78997325  0.60384114  1
  Pd  Pd155  1  0.78973383  0.20921862  0.59228459  1
  Pd  Pd156  1  0.39392083  0.80589858  0.00569905  1
  Pd  Pd157  1  0.19288175  0.00070987  0.58911913  1
  Pd  Pd158  1  0.60755206  0.20780374  0.60828730  1
  Pd  Pd159  1  0.60371455  0.18919950  0.79819724  1
  Pd  Pd160  1  0.39187178  -0.00710999  -0.00055220  1
  Pd  Pd161  1  -0.01201203  0.40677437  -0.00272281  1
  Pd  Pd162  1  0.60013085  -0.00577388  0.39484507  1
  Pd  Pd163  1  0.79858424  0.80816893  0.00669881  1
  Pd  Pd164  1  -0.01258690  0.19816378  -0.00988938  1
  Pd  Pd165  1  0.01167796  0.00096348  0.79127972  1
  Pd  Pd166  1  0.80638051  0.39653769  0.21000139  1
  Pd  Pd167  1  0.20324924  0.79302367  0.40047449  1
  Pd  Pd168  1  0.00918467  0.39832393  0.40965167  1
  Pd  Pd169  1  0.00316123  0.81025002  0.20425244  1
  Pd  Pd170  1  0.61273914  0.80747342  0.00847083  1
  Pd  Pd171  1  -0.00762439  0.00091001  0.39971404  1
  Pd  Pd172  1  0.60308759  0.59320943  -0.00759617  1
  Pd  Pd173  1  0.00358038  0.60598976  0.80422119  1
  Pd  Pd174  1  0.40657198  0.00348455  0.79374918  1
  Pd  Pd175  1  0.79397389  0.80985383  0.41409864  1
  Pd  Pd176  1  0.40147329  0.59398961  0.39302581  1
  Pd  Pd177  1  0.79834334  0.59727935  0.40339743  1
  Pd  Pd178  1  0.20327144  0.79972623  0.59536347  1
  Pd  Pd179  1  0.79963425  -0.00196108  0.59464322  1
  Pd  Pd180  1  0.39056924  0.59990634  0.79542151  1
  Pd  Pd181  1  0.19714889  0.60327448  0.19763422  1
  Pd  Pd182  1  0.00337553  0.20425471  0.80364091  1
  Pd  Pd183  1  0.00679999  0.39713617  0.20539784  1
  Pd  Pd184  1  0.39490154  0.59895263  -0.00618998  1
  Pd  Pd185  1  0.80647698  0.59808712  0.20523818  1
  Pd  Pd186  1  0.40782251  0.39722053  0.58984273  1
  Pd  Pd187  1  0.60500148  0.19918137  0.38431610  1
  Pd  Pd188  1  0.39796480  0.20208193  0.59323722  1
  Pd  Pd189  1  0.80729863  0.59629702  -0.00378838  1
  Pd  Pd190  1  0.39911072  0.19582721  0.41111565  1
  Pd  Pd191  1  -0.00519045  0.59527855  0.19443265  1
  Pd  Pd192  1  0.19528753  0.60631460  0.40369542  1
  Pd  Pd193  1  0.59593747  0.59609653  0.60884212  1
  Pd  Pd194  1  0.59362275  -0.00232631  0.61198464  1
  Pd  Pd195  1  0.00056722  0.19997449  0.20009654  1
  Pd  Pd196  1  0.00063828  0.60245123  0.59457913  1
  Pd  Pd197  1  0.01079366  0.00694202  0.59774235  1
  Pd  Pd198  1  0.40830835  0.79906225  0.59932124  1
  Pd  Pd199  1  0.60584985  0.60842815  0.20332331  1
  Rh  Rh200  1  0.81155188  0.00058513  0.21061070  1
  Rh  Rh201  1  0.00772157  0.00184337  0.00006009  1
  Rh  Rh202  1  0.00423366  0.20036327  0.59371729  1
  Rh  Rh203  1  0.19564610  0.00060985  0.79773730  1
  Rh  Rh204  1  0.80298137  0.59556805  0.59602329  1
  Rh  Rh205  1  0.19483158  0.39847569  0.39923087  1
  Rh  Rh206  1  0.39888836  0.00355420  0.20365124  1
  Rh  Rh207  1  0.20687147  0.79820301  0.78242288  1
  Rh  Rh208  1  0.60723371  0.79649221  0.19906191  1
  Rh  Rh209  1  -0.00657235  0.79813406  0.78963786  1
  Rh  Rh210  1  0.20901128  0.19548343  0.40293343  1
  Rh  Rh211  1  0.59111718  0.00320562  0.20494538  1
  Rh  Rh212  1  -0.00008986  0.79880524  0.40221305  1
  Rh  Rh213  1  -0.00696817  0.39522307  0.59465615  1
  Rh  Rh214  1  0.39046537  0.79960925  0.19966017  1
  Rh  Rh215  1  0.79472686  0.39908744  0.40353467  1
  Rh  Rh216  1  0.40036550  0.59474178  0.20856040  1
  Rh  Rh217  1  0.60647967  0.40627267  0.79862790  1
  Rh  Rh218  1  0.79652138  0.40349286  0.78942557  1
  Rh  Rh219  1  0.19788550  0.59937258  0.60584037  1
  Rh  Rh220  1  0.79721554  0.39925088  -0.00187165  1
  Rh  Rh221  1  0.40014552  0.19861940  0.20592344  1
  Rh  Rh222  1  0.20344652  0.19963743  0.59491498  1
  Rh  Rh223  1  0.79496731  -0.00332015  -0.00808377  1
  Rh  Rh224  1  0.40362567  0.00758794  0.41065416  1
  Rh  Rh225  1  0.39214080  0.19878633  0.79928164  1
  Rh  Rh226  1  0.38687351  0.39642897  0.80319618  1
  Rh  Rh227  1  0.40525077  0.79655495  0.40655448  1
  Rh  Rh228  1  0.59308363  0.80714104  0.79418464  1
  Rh  Rh229  1  0.79805267  0.19017973  0.80745487  1
  Rh  Rh230  1  0.80180252  0.60089683  0.80511014  1
  Rh  Rh231  1  0.80807971  0.79943878  0.79144134  1
  Rh  Rh232  1  0.80079818  0.80468170  0.19222327  1
  Rh  Rh233  1  0.59964405  0.59957224  0.80392461  1
  Rh  Rh234  1  -0.00906069  0.20159534  0.41083648  1
  Rh  Rh235  1  0.79163414  0.00183734  0.80288111  1
  Rh  Rh236  1  0.39743984  0.80253984  0.79494219  1
  Rh  Rh237  1  0.20234573  0.39844504  0.60563463  1
  Rh  Rh238  1  0.40344463  0.59687976  0.60089714  1
  Rh  Rh239  1  0.40409185  0.00890460  0.60164227  1
  Rh  Rh240  1  0.00672907  0.39039147  0.79732004  1
  Rh  Rh241  1  0.20985111  0.79869700  0.01251962  1
  Rh  Rh242  1  0.00110751  0.59858382  0.40710417  1
  Rh  Rh243  1  0.60354286  0.60629251  0.39215382  1
  Rh  Rh244  1  0.59397557  0.40152565  0.40738883  1
  Rh  Rh245  1  0.60554603  -0.00452476  -0.00675948  1
  Rh  Rh246  1  0.20562819  0.40700988  0.00086572  1
  Rh  Rh247  1  -0.01051845  0.79484299  -0.00090662  1
  Rh  Rh248  1  0.40186952  0.20244778  -0.01209388  1
  Rh  Rh249  1  0.20772601  0.18495959  0.00547240  1
