# generated using pymatgen
data_ZrScNbPdRh
_symmetry_space_group_name_H-M   'P 1'
_cell_length_a   16.55002636
_cell_length_b   16.55628197
_cell_length_c   16.55346592
_cell_angle_alpha   90.00437406
_cell_angle_beta   90.00499086
_cell_angle_gamma   90.00510814
_symmetry_Int_Tables_number   1
_chemical_formula_structural   ZrScNbPdRh
_chemical_formula_sum   'Zr50 Sc50 Nb50 Pd50 Rh50'
_cell_volume   4535.76388132
_cell_formula_units_Z   50
loop_
 _symmetry_equiv_pos_site_id
 _symmetry_equiv_pos_as_xyz
  1  'x, y, z'
loop_
 _atom_site_type_symbol
 _atom_site_label
 _atom_site_symmetry_multiplicity
 _atom_site_fract_x
 _atom_site_fract_y
 _atom_site_fract_z
 _atom_site_occupancy
  Zr  Zr0  1  0.50512772  0.09701337  0.49589495  1
  Zr  Zr1  1  0.09329149  0.70672204  0.49874650  1
  Zr  Zr2  1  0.09774081  0.50686674  0.10827689  1
  Zr  Zr3  1  0.69699149  0.30479648  0.50812647  1
  Zr  Zr4  1  0.90591050  0.70011644  0.10196508  1
  Zr  Zr5  1  0.50460438  0.30215740  0.49234761  1
  Zr  Zr6  1  0.50323211  0.29882916  0.91396455  1
  Zr  Zr7  1  0.69039154  0.69910370  0.49336493  1
  Zr  Zr8  1  0.70740668  0.70074209  0.10834359  1
  Zr  Zr9  1  0.50536991  0.49653430  0.89306620  1
  Zr  Zr10  1  0.10706368  0.88756919  0.09707026  1
  Zr  Zr11  1  0.49602708  0.09363636  0.90015701  1
  Zr  Zr12  1  0.09901999  0.30285329  0.70110076  1
  Zr  Zr13  1  0.49863779  0.11011080  0.09900621  1
  Zr  Zr14  1  0.50390204  0.10787974  0.29853973  1
  Zr  Zr15  1  0.90240239  0.70120459  0.69590712  1
  Zr  Zr16  1  0.50122197  0.90517022  0.09722548  1
  Zr  Zr17  1  0.90142500  0.90226473  0.49149155  1
  Zr  Zr18  1  0.29425368  0.50172956  0.10709244  1
  Zr  Zr19  1  0.89969288  0.30305735  0.90097977  1
  Zr  Zr20  1  0.29031699  0.29557656  0.68305801  1
  Zr  Zr21  1  0.89449544  0.29246885  0.69873387  1
  Zr  Zr22  1  0.09909921  0.49907465  0.29619808  1
  Zr  Zr23  1  0.90850392  0.50102465  0.30635711  1
  Zr  Zr24  1  0.10074608  0.70396777  0.70663836  1
  Zr  Zr25  1  0.89617603  0.30470506  0.29907205  1
  Zr  Zr26  1  0.69828834  0.30240921  0.30293496  1
  Zr  Zr27  1  0.30525040  0.70044020  0.50213506  1
  Zr  Zr28  1  0.50093682  0.70078901  0.88858142  1
  Zr  Zr29  1  0.49500245  0.91142578  0.30530377  1
  Zr  Zr30  1  0.49387637  0.49647656  0.10563812  1
  Zr  Zr31  1  0.09763549  0.09762399  0.69951248  1
  Zr  Zr32  1  0.89309990  0.89898819  0.69983495  1
  Zr  Zr33  1  0.49490171  0.69435446  0.50037357  1
  Zr  Zr34  1  0.30225768  0.09295150  0.30138999  1
  Zr  Zr35  1  0.51601250  0.29385150  0.69366811  1
  Zr  Zr36  1  0.50703236  0.69989513  0.10656683  1
  Zr  Zr37  1  0.10992040  0.30078148  0.50751051  1
  Zr  Zr38  1  0.90371155  0.50307384  0.70110218  1
  Zr  Zr39  1  0.30029455  0.49834420  0.69337539  1
  Zr  Zr40  1  0.09159788  0.90069205  0.70953681  1
  Zr  Zr41  1  0.89204928  0.50283854  0.49894564  1
  Zr  Zr42  1  0.51043710  0.69398218  0.30559271  1
  Zr  Zr43  1  0.30877272  0.69842853  0.69429503  1
  Zr  Zr44  1  0.70119223  0.70214434  0.89908910  1
  Zr  Zr45  1  0.69696650  0.49380475  0.89990734  1
  Zr  Zr46  1  0.70168208  0.89693773  0.89085485  1
  Zr  Zr47  1  0.08644329  0.30222972  0.30155278  1
  Zr  Zr48  1  0.70616190  0.89174621  0.09586562  1
  Zr  Zr49  1  0.89729117  0.09533481  0.90984791  1
  Sc  Sc50  1  0.90390228  0.69728296  0.49832552  1
  Sc  Sc51  1  0.89764909  0.49824312  0.09782617  1
  Sc  Sc52  1  0.29315376  0.90377057  0.29782441  1
  Sc  Sc53  1  0.90048885  0.29603846  0.10098646  1
  Sc  Sc54  1  0.89712935  0.09598074  0.49982614  1
  Sc  Sc55  1  0.10275293  0.49754848  0.70385467  1
  Sc  Sc56  1  0.08981487  0.49987253  0.89162078  1
  Sc  Sc57  1  0.29544535  0.30198086  0.91025466  1
  Sc  Sc58  1  0.30731740  0.49543318  0.48959635  1
  Sc  Sc59  1  0.09458090  0.10292448  0.09607286  1
  Sc  Sc60  1  0.89114649  0.09535094  0.70114900  1
  Sc  Sc61  1  0.70566022  0.10329005  0.89655462  1
  Sc  Sc62  1  0.70043928  0.09815130  0.50109526  1
  Sc  Sc63  1  0.70873858  0.50051931  0.30528158  1
  Sc  Sc64  1  0.10067227  0.90233623  0.30460120  1
  Sc  Sc65  1  0.89599288  0.90421884  0.89749505  1
  Sc  Sc66  1  0.29787464  0.89432075  0.70261460  1
  Sc  Sc67  1  0.30302767  0.50439744  0.29358188  1
  Sc  Sc68  1  0.70520311  0.10354351  0.30657982  1
  Sc  Sc69  1  0.90149867  0.89497961  0.08875921  1
  Sc  Sc70  1  0.70087260  0.89888740  0.50452727  1
  Sc  Sc71  1  0.71074175  0.10652829  0.08807090  1
  Sc  Sc72  1  0.70785881  0.49696544  0.10234592  1
  Sc  Sc73  1  0.29932182  0.09594102  0.70135525  1
  Sc  Sc74  1  0.09090531  0.09796803  0.49450210  1
  Sc  Sc75  1  0.08803369  0.49946458  0.49144661  1
  Sc  Sc76  1  0.09422912  0.89717136  0.49483536  1
  Sc  Sc77  1  0.70766595  0.88959753  0.30672726  1
  Sc  Sc78  1  0.70399455  0.30334326  0.10091531  1
  Sc  Sc79  1  0.09695874  0.30739619  0.10243511  1
  Sc  Sc80  1  0.30012212  0.70335158  0.88647260  1
  Sc  Sc81  1  0.29792509  0.91456625  0.90150715  1
  Sc  Sc82  1  0.49444958  0.49920124  0.30253242  1
  Sc  Sc83  1  0.28962040  0.70289929  0.10918518  1
  Sc  Sc84  1  0.51366152  0.90090168  0.71022660  1
  Sc  Sc85  1  0.90371032  0.69594553  0.90327471  1
  Sc  Sc86  1  0.30083201  0.09461583  0.09269903  1
  Sc  Sc87  1  0.89558281  0.29365685  0.49849152  1
  Sc  Sc88  1  0.30037721  0.10478420  0.50591005  1
  Sc  Sc89  1  0.30368212  0.69834690  0.29903223  1
  Sc  Sc90  1  0.30507373  0.89472574  0.49406605  1
  Sc  Sc91  1  0.09227215  0.70406094  0.28811792  1
  Sc  Sc92  1  0.30146773  0.31736888  0.29882192  1
  Sc  Sc93  1  0.09992153  0.08369224  0.90344407  1
  Sc  Sc94  1  0.29407437  0.49457926  0.90137772  1
  Sc  Sc95  1  0.50684500  0.89585885  0.49632254  1
  Sc  Sc96  1  0.70071613  0.29438903  0.90640815  1
  Sc  Sc97  1  0.90627273  0.11151214  0.30859619  1
  Sc  Sc98  1  0.09978777  0.30901982  0.90733142  1
  Sc  Sc99  1  0.29781935  0.30773969  0.09884925  1
  Nb  Nb100  1  0.50388332  0.90169122  0.90250189  1
  Nb  Nb101  1  0.30399306  0.89650274  0.10219468  1
  Nb  Nb102  1  0.50391940  0.50201463  0.50160983  1
  Nb  Nb103  1  0.09458264  0.89674602  0.90112958  1
  Nb  Nb104  1  0.90274155  0.09331940  0.09906886  1
  Nb  Nb105  1  0.70662794  0.89649668  0.70669801  1
  Nb  Nb106  1  0.50150326  0.29742557  0.11040227  1
  Nb  Nb107  1  0.69930605  0.70619171  0.70080816  1
  Nb  Nb108  1  0.89906284  0.90389412  0.30140221  1
  Nb  Nb109  1  0.69261470  0.10521256  0.70384114  1
  Nb  Nb110  1  0.09848937  0.70556660  0.90569402  1
  Nb  Nb111  1  0.30167514  0.30015203  0.49845966  1
  Nb  Nb112  1  0.29851635  0.10249199  0.89480024  1
  Nb  Nb113  1  0.69290002  0.49371878  0.70275385  1
  Nb  Nb114  1  0.89377557  0.49731000  0.89125635  1
  Nb  Nb115  1  0.70199009  0.70022827  0.29673106  1
  Nb  Nb116  1  0.50231769  0.29680550  0.29180335  1
  Nb  Nb117  1  0.89285241  0.70761005  0.29851225  1
  Nb  Nb118  1  0.49821428  0.68786774  0.70005816  1
  Nb  Nb119  1  0.50388285  0.49731655  0.70312690  1
  Nb  Nb120  1  0.10007850  0.10342760  0.29876375  1
  Nb  Nb121  1  0.69608535  0.50025091  0.50528189  1
  Nb  Nb122  1  0.09695969  0.70156553  0.09357545  1
  Nb  Nb123  1  0.50386756  0.09926851  0.69993755  1
  Nb  Nb124  1  0.70309809  0.29286567  0.70117997  1
  Nb  Nb125  1  0.19745121  0.19879743  0.20805889  1
  Nb  Nb126  1  0.60014482  -0.00204855  -0.00090551  1
  Nb  Nb127  1  0.20056416  0.60377463  0.59294521  1
  Nb  Nb128  1  0.00295964  0.19703857  0.80379554  1
  Nb  Nb129  1  0.19968192  0.19570791  0.80449667  1
  Nb  Nb130  1  0.40402471  0.80459675  0.19633771  1
  Nb  Nb131  1  0.19960674  -0.00358814  0.60122811  1
  Nb  Nb132  1  0.40542244  0.00170580  0.60426768  1
  Nb  Nb133  1  0.39780169  0.20119913  0.79881375  1
  Nb  Nb134  1  0.79476399  0.40014158  0.79537620  1
  Nb  Nb135  1  0.80630206  -0.00025553  0.19998973  1
  Nb  Nb136  1  0.39889450  0.60591294  0.00134395  1
  Nb  Nb137  1  0.40823964  0.39884664  0.59898872  1
  Nb  Nb138  1  0.79492003  0.59554831  0.79439078  1
  Nb  Nb139  1  0.19603472  0.60384253  0.40159259  1
  Nb  Nb140  1  0.40411640  0.39033601  0.79094643  1
  Nb  Nb141  1  0.60882133  0.00162487  0.19513307  1
  Nb  Nb142  1  0.20336058  0.20311887  0.39531806  1
  Nb  Nb143  1  0.59938872  0.59578070  0.60734187  1
  Nb  Nb144  1  0.19416740  0.60810990  -0.00172669  1
  Nb  Nb145  1  0.40031779  0.80180584  0.00184508  1
  Nb  Nb146  1  0.59694975  0.59983345  0.00089506  1
  Nb  Nb147  1  -0.00408456  0.39815578  0.60184525  1
  Nb  Nb148  1  -0.00454248  0.00140463  0.20028565  1
  Nb  Nb149  1  0.39830153  0.20689904  0.39673369  1
  Pd  Pd150  1  0.79800432  0.60521368  0.39811904  1
  Pd  Pd151  1  0.60217737  0.40243520  0.01174635  1
  Pd  Pd152  1  0.59722348  0.79825474  -0.00425698  1
  Pd  Pd153  1  0.40269923  0.81108755  0.80117107  1
  Pd  Pd154  1  0.80120455  0.79535031  0.40690702  1
  Pd  Pd155  1  -0.00325183  0.80974702  0.20140347  1
  Pd  Pd156  1  0.39311015  0.20175845  -0.00119642  1
  Pd  Pd157  1  0.19742696  -0.00122125  0.00500478  1
  Pd  Pd158  1  0.19893417  0.79372644  0.39145250  1
  Pd  Pd159  1  0.19552133  0.19870511  0.00239181  1
  Pd  Pd160  1  0.79607216  0.20158002  0.40636500  1
  Pd  Pd161  1  0.59683548  0.19978174  0.80998518  1
  Pd  Pd162  1  0.01116272  0.59468534  0.60255510  1
  Pd  Pd163  1  0.00208442  0.59303580  -0.00510769  1
  Pd  Pd164  1  0.00446022  0.20065114  -0.00446984  1
  Pd  Pd165  1  0.39313254  0.58801360  0.80562248  1
  Pd  Pd166  1  0.60223524  -0.00191880  0.60592957  1
  Pd  Pd167  1  0.79576504  0.59978428  -0.00457444  1
  Pd  Pd168  1  0.40145335  0.79950552  0.39020071  1
  Pd  Pd169  1  0.19627534  0.80373621  0.59958951  1
  Pd  Pd170  1  0.60028461  0.40696718  0.39290732  1
  Pd  Pd171  1  0.21220159  0.79654436  -0.00880402  1
  Pd  Pd172  1  0.41357258  0.81309479  0.60715702  1
  Pd  Pd173  1  0.60350989  0.40575988  0.20299889  1
  Pd  Pd174  1  -0.00929937  0.79894256  0.80773393  1
  Pd  Pd175  1  0.40262064  0.00039081  0.19684229  1
  Pd  Pd176  1  0.40587102  0.19727382  0.59850551  1
  Pd  Pd177  1  -0.00159022  0.40821384  0.00338545  1
  Pd  Pd178  1  -0.00287443  0.20047222  0.60023674  1
  Pd  Pd179  1  0.79203386  0.00201106  0.60286194  1
  Pd  Pd180  1  0.00130105  -0.00492476  0.59817732  1
  Pd  Pd181  1  0.19770598  0.60075966  0.80045698  1
  Pd  Pd182  1  0.59652931  0.81143060  0.21218044  1
  Pd  Pd183  1  0.20218678  0.80693919  0.80699043  1
  Pd  Pd184  1  0.80178057  0.79728849  0.59017760  1
  Pd  Pd185  1  0.60658098  0.58817766  0.20030760  1
  Pd  Pd186  1  0.59435303  0.79454377  0.60690163  1
  Pd  Pd187  1  0.39988962  -0.00030063  0.79336138  1
  Pd  Pd188  1  0.39760657  0.40502382  -0.00000338  1
  Pd  Pd189  1  0.78888353  0.60363895  0.60399130  1
  Pd  Pd190  1  0.61298603  -0.00480821  0.39345388  1
  Pd  Pd191  1  0.61581299  0.19411081  0.19423762  1
  Pd  Pd192  1  0.38498506  0.20741678  0.20399870  1
  Pd  Pd193  1  0.18998459  0.00365052  0.19159944  1
  Pd  Pd194  1  0.20137688  0.00548205  0.41168717  1
  Pd  Pd195  1  0.20759565  0.39124393  0.80339820  1
  Pd  Pd196  1  0.19951776  0.40461413  0.39864915  1
  Pd  Pd197  1  0.80087522  0.19396706  0.19902717  1
  Pd  Pd198  1  0.80771522  0.59436804  0.20500073  1
  Pd  Pd199  1  0.80332610  0.39959922  0.60420635  1
  Rh  Rh200  1  -0.00847343  0.39167820  0.41222429  1
  Rh  Rh201  1  0.60010243  0.20283256  0.40099940  1
  Rh  Rh202  1  0.60133854  0.19624256  0.00514985  1
  Rh  Rh203  1  -0.00451411  0.79829308  0.39270654  1
  Rh  Rh204  1  -0.00654259  0.00270758  0.80529718  1
  Rh  Rh205  1  0.60485773  0.59323527  0.40201455  1
  Rh  Rh206  1  0.19573633  -0.00052786  0.79606186  1
  Rh  Rh207  1  0.79228729  0.19109260  0.59861575  1
  Rh  Rh208  1  0.40202033  0.58873370  0.59724768  1
  Rh  Rh209  1  0.80603978  0.79086023  0.80041545  1
  Rh  Rh210  1  0.80133566  0.00207899  0.39480846  1
  Rh  Rh211  1  0.60239738  0.38398604  0.80086860  1
  Rh  Rh212  1  0.00251697  0.61116564  0.39009161  1
  Rh  Rh213  1  0.80259654  0.39777767  -0.00443941  1
  Rh  Rh214  1  0.60011302  0.80157149  0.39673623  1
  Rh  Rh215  1  0.59808660  0.79654922  0.79453896  1
  Rh  Rh216  1  0.80699106  0.80453684  0.20019169  1
  Rh  Rh217  1  -0.00149613  0.60677847  0.80216215  1
  Rh  Rh218  1  0.40306129  0.39456872  0.19997801  1
  Rh  Rh219  1  0.80563885  0.20078796  0.80264326  1
  Rh  Rh220  1  0.79774728  0.40011161  0.40484264  1
  Rh  Rh221  1  -0.00898178  0.39107779  0.79334504  1
  Rh  Rh222  1  0.19639503  0.39442945  0.20120476  1
  Rh  Rh223  1  0.80699007  0.79471224  -0.00478845  1
  Rh  Rh224  1  0.80613510  0.20413733  0.00128663  1
  Rh  Rh225  1  0.60806670  0.00280540  0.80401788  1
  Rh  Rh226  1  0.39966703  0.60963555  0.19798962  1
  Rh  Rh227  1  0.60646696  0.19360271  0.59419670  1
  Rh  Rh228  1  0.40856657  0.39719329  0.40012799  1
  Rh  Rh229  1  0.19454303  0.18582281  0.59577595  1
  Rh  Rh230  1  0.59840164  0.40526957  0.60016446  1
  Rh  Rh231  1  0.39603207  0.59820513  0.39816245  1
  Rh  Rh232  1  0.00600641  -0.01067037  0.00666868  1
  Rh  Rh233  1  0.40104634  -0.00208820  -0.00193626  1
  Rh  Rh234  1  0.79486114  0.00519088  0.79566352  1
  Rh  Rh235  1  0.19749166  0.41807117  0.58608807  1
  Rh  Rh236  1  0.39461846  0.00657862  0.41209706  1
  Rh  Rh237  1  0.79336171  -0.00448064  0.00234983  1
  Rh  Rh238  1  0.19241781  0.41530326  0.00369452  1
  Rh  Rh239  1  -0.00262479  0.00109917  0.39185114  1
  Rh  Rh240  1  -0.00374787  0.80293953  -0.00616306  1
  Rh  Rh241  1  -0.00877574  0.40116719  0.19430806  1
  Rh  Rh242  1  0.00380966  0.20361815  0.40625805  1
  Rh  Rh243  1  0.20304104  0.80053541  0.20487277  1
  Rh  Rh244  1  0.60837273  0.60853376  0.79615558  1
  Rh  Rh245  1  0.80315551  0.40051913  0.20238397  1
  Rh  Rh246  1  -0.00721946  0.60344722  0.20231963  1
  Rh  Rh247  1  -0.00566180  0.80681922  0.59857234  1
  Rh  Rh248  1  0.19478076  0.60719837  0.20263268  1
  Rh  Rh249  1  0.00339727  0.19485172  0.19628630  1
