# generated using pymatgen
data_ZrScNbPdRh
_symmetry_space_group_name_H-M   'P 1'
_cell_length_a   16.55787331
_cell_length_b   16.55587367
_cell_length_c   16.55865922
_cell_angle_alpha   89.98483193
_cell_angle_beta   89.97347623
_cell_angle_gamma   89.99173601
_symmetry_Int_Tables_number   1
_chemical_formula_structural   ZrScNbPdRh
_chemical_formula_sum   'Zr50 Sc50 Nb50 Pd50 Rh50'
_cell_volume   4539.22553361
_cell_formula_units_Z   50
loop_
 _symmetry_equiv_pos_site_id
 _symmetry_equiv_pos_as_xyz
  1  'x, y, z'
loop_
 _atom_site_type_symbol
 _atom_site_label
 _atom_site_symmetry_multiplicity
 _atom_site_fract_x
 _atom_site_fract_y
 _atom_site_fract_z
 _atom_site_occupancy
  Zr  Zr0  1  0.49716038  0.10307178  0.69347181  1
  Zr  Zr1  1  0.10011186  0.29768388  0.49989216  1
  Zr  Zr2  1  0.08976779  0.10661662  0.49436992  1
  Zr  Zr3  1  0.50111998  0.69645806  0.90196174  1
  Zr  Zr4  1  0.90221834  0.30346695  0.70580571  1
  Zr  Zr5  1  0.90633221  0.28119892  0.50936302  1
  Zr  Zr6  1  0.10275632  0.69542362  0.29600356  1
  Zr  Zr7  1  0.10338197  0.49675902  0.50098838  1
  Zr  Zr8  1  0.10562476  0.29903670  0.29820406  1
  Zr  Zr9  1  0.30042754  0.09736383  0.29537767  1
  Zr  Zr10  1  0.69533560  0.30717216  0.29834497  1
  Zr  Zr11  1  0.69429851  0.69548951  0.30217837  1
  Zr  Zr12  1  0.90208593  0.50255391  0.70888912  1
  Zr  Zr13  1  0.08815638  0.28980802  0.90443364  1
  Zr  Zr14  1  0.50816171  0.28965440  0.50359448  1
  Zr  Zr15  1  0.30517131  0.09437690  0.70439193  1
  Zr  Zr16  1  0.49898597  0.90297428  0.10103122  1
  Zr  Zr17  1  0.69669151  0.90130130  0.09761721  1
  Zr  Zr18  1  0.70068919  0.50524257  0.10908000  1
  Zr  Zr19  1  0.69710606  0.70602134  0.10111309  1
  Zr  Zr20  1  0.10311070  0.10377224  0.09200978  1
  Zr  Zr21  1  0.49931050  0.90014144  0.49714145  1
  Zr  Zr22  1  0.10063195  0.30014094  0.09952374  1
  Zr  Zr23  1  0.50493405  0.49854257  0.71158770  1
  Zr  Zr24  1  0.70343414  0.50267211  0.49631848  1
  Zr  Zr25  1  0.30602580  0.09655842  0.09823544  1
  Zr  Zr26  1  0.30208923  0.70092331  0.88699646  1
  Zr  Zr27  1  0.89598859  0.09736509  0.31581159  1
  Zr  Zr28  1  0.50936745  0.09828340  0.09767842  1
  Zr  Zr29  1  0.48906438  0.69645932  0.70266529  1
  Zr  Zr30  1  0.89350181  0.09955499  0.11018679  1
  Zr  Zr31  1  0.30029622  0.50771083  0.69800342  1
  Zr  Zr32  1  0.30430249  0.90118421  0.49878520  1
  Zr  Zr33  1  0.09675084  0.90012809  0.88814311  1
  Zr  Zr34  1  0.09852927  0.89076445  0.09560547  1
  Zr  Zr35  1  0.29925557  0.50306811  0.49928937  1
  Zr  Zr36  1  0.71574482  0.10735163  0.49849048  1
  Zr  Zr37  1  0.70196711  0.68993691  0.70489764  1
  Zr  Zr38  1  0.50225175  0.49500951  0.29320658  1
  Zr  Zr39  1  0.30241813  0.49544712  0.29979979  1
  Zr  Zr40  1  0.70482444  0.08437062  0.70181165  1
  Zr  Zr41  1  0.90305201  0.90090585  0.30282998  1
  Zr  Zr42  1  0.70032108  0.69376677  0.49843939  1
  Zr  Zr43  1  0.50381725  0.90357442  0.68684858  1
  Zr  Zr44  1  0.09246496  0.69563480  0.09276870  1
  Zr  Zr45  1  0.50491417  0.69882312  0.09650071  1
  Zr  Zr46  1  0.89985720  0.90331234  0.49767712  1
  Zr  Zr47  1  0.70323241  0.90076122  0.89388942  1
  Zr  Zr48  1  0.89877874  0.69997180  0.50437318  1
  Zr  Zr49  1  0.89767624  0.49464721  0.29595159  1
  Sc  Sc50  1  0.10670161  0.50036156  0.30115602  1
  Sc  Sc51  1  0.50302405  0.30098323  0.10740706  1
  Sc  Sc52  1  0.49640072  0.90037680  0.30457946  1
  Sc  Sc53  1  0.69842095  0.30172656  0.49390214  1
  Sc  Sc54  1  0.09831128  0.89112023  0.50216648  1
  Sc  Sc55  1  0.31149808  0.49840502  0.90125512  1
  Sc  Sc56  1  0.10664881  0.09495418  0.90069664  1
  Sc  Sc57  1  0.50049305  0.50626179  0.49370397  1
  Sc  Sc58  1  0.30386180  0.09807499  0.49383478  1
  Sc  Sc59  1  0.49847177  0.30257371  0.29736144  1
  Sc  Sc60  1  0.10157975  0.48713062  0.10122907  1
  Sc  Sc61  1  0.28820134  0.70275448  0.09688206  1
  Sc  Sc62  1  0.49964147  0.31289645  0.89700476  1
  Sc  Sc63  1  0.70148125  0.50447143  0.70539012  1
  Sc  Sc64  1  0.90417262  0.69450999  0.89901730  1
  Sc  Sc65  1  0.90340912  0.31064300  0.09721978  1
  Sc  Sc66  1  0.89556452  0.90483654  0.71425037  1
  Sc  Sc67  1  0.69602200  0.31145304  0.90269253  1
  Sc  Sc68  1  0.31343678  0.30013105  0.70304395  1
  Sc  Sc69  1  0.09152269  0.09428168  0.71691462  1
  Sc  Sc70  1  0.30114828  0.69467052  0.50612629  1
  Sc  Sc71  1  0.89471694  0.69839723  0.08748468  1
  Sc  Sc72  1  0.29558817  0.30428924  0.10284845  1
  Sc  Sc73  1  0.29856881  0.88923402  0.70246626  1
  Sc  Sc74  1  0.50461777  0.69979136  0.30656899  1
  Sc  Sc75  1  0.49511426  0.11009884  0.29010939  1
  Sc  Sc76  1  0.29831458  0.30114305  0.49331530  1
  Sc  Sc77  1  0.09371840  0.70361483  0.89427842  1
  Sc  Sc78  1  0.10527404  0.09974425  0.30931884  1
  Sc  Sc79  1  0.30568774  0.30422196  0.90365589  1
  Sc  Sc80  1  0.69432039  0.29935185  0.10200848  1
  Sc  Sc81  1  0.70131883  0.89661021  0.29563659  1
  Sc  Sc82  1  0.08919151  0.30898798  0.69280008  1
  Sc  Sc83  1  0.69535650  0.89786615  0.50505722  1
  Sc  Sc84  1  0.91953603  0.10862389  0.89153941  1
  Sc  Sc85  1  0.09560987  0.69819477  0.50269221  1
  Sc  Sc86  1  0.89379258  0.30284948  0.29527610  1
  Sc  Sc87  1  0.69948044  0.49767011  0.30234435  1
  Sc  Sc88  1  0.09548723  0.50291116  0.69856977  1
  Sc  Sc89  1  0.50452513  0.90940067  0.90154314  1
  Sc  Sc90  1  0.70425614  0.70018696  0.90634019  1
  Sc  Sc91  1  0.90027285  0.69905477  0.31095881  1
  Sc  Sc92  1  0.89345978  0.88858091  0.10413704  1
  Sc  Sc93  1  0.29322628  0.90938718  0.09988040  1
  Sc  Sc94  1  0.69988227  0.50042843  0.89526871  1
  Sc  Sc95  1  0.08763445  0.50443645  0.89640710  1
  Sc  Sc96  1  0.69110921  0.31570277  0.70267076  1
  Sc  Sc97  1  0.68539942  0.09248291  0.90084503  1
  Sc  Sc98  1  0.90297325  0.51367112  0.49730926  1
  Sc  Sc99  1  0.50376833  0.70249689  0.50028337  1
  Nb  Nb100  1  0.49544234  0.50687169  0.90665748  1
  Nb  Nb101  1  0.10054598  0.89888466  0.29714263  1
  Nb  Nb102  1  0.89369648  0.30033937  0.89866207  1
  Nb  Nb103  1  0.10680940  0.71726378  0.70378961  1
  Nb  Nb104  1  0.29504645  0.69475789  0.29693834  1
  Nb  Nb105  1  0.29812732  0.90121992  0.30058891  1
  Nb  Nb106  1  0.89988525  0.09814642  0.50642761  1
  Nb  Nb107  1  0.49647451  0.09895376  0.89796910  1
  Nb  Nb108  1  0.50120041  0.30281975  0.69903303  1
  Nb  Nb109  1  0.29304717  0.69816291  0.70150483  1
  Nb  Nb110  1  0.30579589  0.29535242  0.29409791  1
  Nb  Nb111  1  0.70710741  0.10361971  0.28943008  1
  Nb  Nb112  1  0.49118905  0.50704605  0.09638078  1
  Nb  Nb113  1  0.29714834  0.91043189  0.90402898  1
  Nb  Nb114  1  0.89676916  0.10553218  0.69048589  1
  Nb  Nb115  1  0.90055767  0.89614381  0.90613604  1
  Nb  Nb116  1  0.10049865  0.89875293  0.69918943  1
  Nb  Nb117  1  0.90343637  0.50105602  0.10040086  1
  Nb  Nb118  1  0.50600889  0.09736439  0.50130422  1
  Nb  Nb119  1  0.89819140  0.49265741  0.89949021  1
  Nb  Nb120  1  0.70150513  0.89788932  0.70464160  1
  Nb  Nb121  1  0.90235331  0.69614842  0.70067615  1
  Nb  Nb122  1  0.30474325  0.09051724  0.89944427  1
  Nb  Nb123  1  0.70121971  0.09797423  0.10335246  1
  Nb  Nb124  1  0.30432615  0.50149427  0.09630423  1
  Nb  Nb125  1  0.39605024  0.60262251  0.19543695  1
  Nb  Nb126  1  0.00099941  0.19567586  0.20090459  1
  Nb  Nb127  1  0.79505590  0.20128376  0.80385363  1
  Nb  Nb128  1  0.40814931  0.40028217  0.60084879  1
  Nb  Nb129  1  0.00308118  -0.00052825  0.20097737  1
  Nb  Nb130  1  0.20077366  0.59621842  -0.00251901  1
  Nb  Nb131  1  0.39680391  0.80361148  0.00053274  1
  Nb  Nb132  1  -0.00398518  0.59458737  0.19478178  1
  Nb  Nb133  1  0.20432064  0.20300422  0.79901937  1
  Nb  Nb134  1  0.80424586  0.00552571  -0.00055013  1
  Nb  Nb135  1  0.79863543  0.19606672  -0.00541024  1
  Nb  Nb136  1  0.19824262  0.39578037  0.80093851  1
  Nb  Nb137  1  0.60190508  0.80181212  0.79338854  1
  Nb  Nb138  1  0.19882127  0.19330584  0.60775068  1
  Nb  Nb139  1  0.19197834  0.00069923  0.60434788  1
  Nb  Nb140  1  -0.00530150  -0.00460967  0.00436715  1
  Nb  Nb141  1  0.79907452  0.79736138  0.60928942  1
  Nb  Nb142  1  0.60196774  0.01256021  0.40024645  1
  Nb  Nb143  1  0.39063643  0.79663856  0.20182426  1
  Nb  Nb144  1  0.40539372  0.19190946  -0.00424827  1
  Nb  Nb145  1  0.00136267  0.39638442  0.40319551  1
  Nb  Nb146  1  0.59507781  0.19971746  0.79702719  1
  Nb  Nb147  1  0.20559534  0.80021759  0.39029555  1
  Nb  Nb148  1  0.80605114  0.40430023  0.59962636  1
  Nb  Nb149  1  -0.00291361  0.00201215  0.60255444  1
  Pd  Pd150  1  0.19740742  0.58996569  0.18907807  1
  Pd  Pd151  1  0.59373909  0.59640278  0.60056856  1
  Pd  Pd152  1  0.59080940  0.80226281  0.20738965  1
  Pd  Pd153  1  0.20330265  0.80266452  0.20094901  1
  Pd  Pd154  1  0.60668279  0.79140830  0.60568959  1
  Pd  Pd155  1  0.79621761  0.39918553  0.00499357  1
  Pd  Pd156  1  0.20375661  0.79662210  -0.01263689  1
  Pd  Pd157  1  0.21128219  0.38957758  0.60993875  1
  Pd  Pd158  1  0.80448777  0.79096053  0.20391101  1
  Pd  Pd159  1  0.80024577  0.59323232  -0.00465184  1
  Pd  Pd160  1  0.80125697  0.79040406  0.79999878  1
  Pd  Pd161  1  0.60950204  0.59371531  -0.00263050  1
  Pd  Pd162  1  0.40552380  0.39013849  0.00776440  1
  Pd  Pd163  1  0.19300095  0.00134900  0.19800822  1
  Pd  Pd164  1  0.39408427  0.79455584  0.59946877  1
  Pd  Pd165  1  0.81163747  0.01299146  0.81320644  1
  Pd  Pd166  1  0.78658918  0.21378299  0.61426031  1
  Pd  Pd167  1  0.59851352  0.00214777  0.21208017  1
  Pd  Pd168  1  -0.00798647  0.79239992  0.20017624  1
  Pd  Pd169  1  0.40981203  0.00826947  0.39398372  1
  Pd  Pd170  1  0.79282376  0.80257046  0.40673577  1
  Pd  Pd171  1  0.00680307  0.60274220  0.60704534  1
  Pd  Pd172  1  0.40134804  0.60494940  0.39435587  1
  Pd  Pd173  1  0.40772884  0.39343374  0.40753076  1
  Pd  Pd174  1  0.61253883  0.19724263  0.60997041  1
  Pd  Pd175  1  0.59605346  0.40990391  0.00574611  1
  Pd  Pd176  1  0.00852702  0.79718592  0.39907143  1
  Pd  Pd177  1  0.60808400  0.00438033  0.59184061  1
  Pd  Pd178  1  0.40216366  0.20426959  0.80891305  1
  Pd  Pd179  1  0.40480808  -0.01114133  0.79442817  1
  Pd  Pd180  1  0.19389934  0.59248501  0.80534020  1
  Pd  Pd181  1  0.60020484  0.40851398  0.59304669  1
  Pd  Pd182  1  0.59997523  0.20207893  -0.00833047  1
  Pd  Pd183  1  0.39225948  0.20356679  0.59219713  1
  Pd  Pd184  1  0.19154300  0.60839379  0.60138870  1
  Pd  Pd185  1  0.19906386  0.19673192  0.20038452  1
  Pd  Pd186  1  0.60410009  0.19454726  0.38952377  1
  Pd  Pd187  1  0.78738021  -0.00659651  0.40010432  1
  Pd  Pd188  1  0.80109789  0.21090885  0.19496310  1
  Pd  Pd189  1  -0.00051690  0.40279273  -0.00409282  1
  Pd  Pd190  1  0.19725611  0.40793281  -0.01286804  1
  Pd  Pd191  1  0.21439188  0.19865868  -0.00986950  1
  Pd  Pd192  1  0.19281829  -0.00758977  0.40843605  1
  Pd  Pd193  1  0.81200967  0.39409681  0.41141927  1
  Pd  Pd194  1  0.80729761  0.60741408  0.20421885  1
  Pd  Pd195  1  0.39393994  0.78990606  0.39552297  1
  Pd  Pd196  1  -0.01076592  0.80790811  0.61068339  1
  Pd  Pd197  1  0.40057039  0.19947110  0.40058995  1
  Pd  Pd198  1  0.40722692  0.81195795  0.80658610  1
  Pd  Pd199  1  0.20026088  0.39662364  0.39547190  1
  Rh  Rh200  1  0.38925696  0.61193080  0.00566617  1
  Rh  Rh201  1  0.39781475  0.20392983  0.18933011  1
  Rh  Rh202  1  0.39747945  0.40697025  0.79519769  1
  Rh  Rh203  1  0.20561150  -0.00085686  0.79590308  1
  Rh  Rh204  1  0.59863847  0.40507767  0.19393903  1
  Rh  Rh205  1  0.80683082  0.59865537  0.80833311  1
  Rh  Rh206  1  0.60466126  -0.00117787  0.00100769  1
  Rh  Rh207  1  0.39890665  0.59511148  0.79863794  1
  Rh  Rh208  1  0.40351902  0.59635921  0.60183304  1
  Rh  Rh209  1  0.00491058  0.59036752  0.38996501  1
  Rh  Rh210  1  0.59261172  0.59896213  0.20114532  1
  Rh  Rh211  1  0.19094845  -0.00309503  -0.00332707  1
  Rh  Rh212  1  0.79869023  0.60028873  0.39292152  1
  Rh  Rh213  1  0.19908495  0.60792348  0.40779927  1
  Rh  Rh214  1  0.40298974  -0.00068663  0.00089498  1
  Rh  Rh215  1  0.20791452  0.40071805  0.20243394  1
  Rh  Rh216  1  -0.00667626  -0.00367605  0.80047673  1
  Rh  Rh217  1  0.00303285  0.60923535  0.79352357  1
  Rh  Rh218  1  -0.00272238  0.80263150  -0.00486260  1
  Rh  Rh219  1  -0.01307413  0.19554732  0.01172148  1
  Rh  Rh220  1  0.80274280  0.59965648  0.60429362  1
  Rh  Rh221  1  0.60366823  0.19994182  0.20313419  1
  Rh  Rh222  1  0.00467836  -0.00503989  0.40227829  1
  Rh  Rh223  1  -0.01214960  0.41149286  0.58756841  1
  Rh  Rh224  1  0.40092057  -0.00645584  0.20322778  1
  Rh  Rh225  1  0.00237869  0.39926825  0.20830971  1
  Rh  Rh226  1  0.60224600  0.80961420  0.40075362  1
  Rh  Rh227  1  0.79910914  0.39877637  0.79542897  1
  Rh  Rh228  1  0.39311177  -0.00023140  0.59863065  1
  Rh  Rh229  1  0.21217466  0.20096857  0.40123962  1
  Rh  Rh230  1  0.80685744  -0.01145232  0.60047863  1
  Rh  Rh231  1  0.20317525  0.80555430  0.80288193  1
  Rh  Rh232  1  0.59914833  0.60465761  0.80853970  1
  Rh  Rh233  1  0.59395932  0.39943563  0.40226601  1
  Rh  Rh234  1  0.59672892  0.80620800  -0.01159228  1
  Rh  Rh235  1  -0.00812178  0.20957291  0.38680404  1
  Rh  Rh236  1  0.01142003  0.18832967  0.61155848  1
  Rh  Rh237  1  0.58989143  -0.00054953  0.79258227  1
  Rh  Rh238  1  0.00488528  0.39621576  0.80785565  1
  Rh  Rh239  1  0.79743856  0.80451325  -0.00315708  1
  Rh  Rh240  1  0.59977954  0.59557196  0.39726268  1
  Rh  Rh241  1  0.39718127  0.40421117  0.19415456  1
  Rh  Rh242  1  0.79919534  0.20730012  0.39581095  1
  Rh  Rh243  1  0.00141818  0.20672390  0.79316350  1
  Rh  Rh244  1  0.59689977  0.40209402  0.80763981  1
  Rh  Rh245  1  -0.00657224  0.79833061  0.79564479  1
  Rh  Rh246  1  0.79465163  0.39835266  0.19085372  1
  Rh  Rh247  1  0.20386427  0.80239225  0.59396903  1
  Rh  Rh248  1  0.00215837  0.59089103  0.00403143  1
  Rh  Rh249  1  0.80311729  -0.00827892  0.19836481  1
