# generated using pymatgen
data_ZrScNbPdRh
_symmetry_space_group_name_H-M   'P 1'
_cell_length_a   16.54793498
_cell_length_b   16.55160419
_cell_length_c   16.55186105
_cell_angle_alpha   89.92567985
_cell_angle_beta   89.98156886
_cell_angle_gamma   89.96609997
_symmetry_Int_Tables_number   1
_chemical_formula_structural   ZrScNbPdRh
_chemical_formula_sum   'Zr50 Sc50 Nb50 Pd50 Rh50'
_cell_volume   4533.46498713
_cell_formula_units_Z   50
loop_
 _symmetry_equiv_pos_site_id
 _symmetry_equiv_pos_as_xyz
  1  'x, y, z'
loop_
 _atom_site_type_symbol
 _atom_site_label
 _atom_site_symmetry_multiplicity
 _atom_site_fract_x
 _atom_site_fract_y
 _atom_site_fract_z
 _atom_site_occupancy
  Zr  Zr0  1  0.70149882  0.70088373  0.49886203  1
  Zr  Zr1  1  0.90121469  0.49939191  0.49430420  1
  Zr  Zr2  1  0.08766433  0.29660274  0.70999891  1
  Zr  Zr3  1  0.29805246  0.50190153  0.10194706  1
  Zr  Zr4  1  0.69982192  0.50017031  0.30897425  1
  Zr  Zr5  1  0.30179075  0.70141176  0.70160257  1
  Zr  Zr6  1  0.10274830  0.49992222  0.69279706  1
  Zr  Zr7  1  0.50069958  0.70201828  0.89491120  1
  Zr  Zr8  1  0.50477778  0.90627760  0.90503560  1
  Zr  Zr9  1  0.29737395  0.89495934  0.50519268  1
  Zr  Zr10  1  0.89223649  0.69539399  0.10462347  1
  Zr  Zr11  1  0.09889585  0.89460764  0.91274520  1
  Zr  Zr12  1  0.50117440  0.49446706  0.30791149  1
  Zr  Zr13  1  0.69513510  0.90252196  0.09790842  1
  Zr  Zr14  1  0.29802487  0.49263352  0.50774683  1
  Zr  Zr15  1  0.09351863  0.29778697  0.49329347  1
  Zr  Zr16  1  0.70934473  0.70354400  0.69673809  1
  Zr  Zr17  1  0.49586686  0.09841114  0.90745017  1
  Zr  Zr18  1  0.89134154  0.09233152  0.90759297  1
  Zr  Zr19  1  0.29762006  0.50166843  0.69360594  1
  Zr  Zr20  1  0.30324347  0.89686228  0.70457008  1
  Zr  Zr21  1  0.69774675  0.29764322  0.89368128  1
  Zr  Zr22  1  0.09387305  0.10085887  0.50460966  1
  Zr  Zr23  1  0.69516958  0.50090651  0.50166169  1
  Zr  Zr24  1  0.28944441  0.09501552  0.71159191  1
  Zr  Zr25  1  0.91298808  0.91442789  0.08413136  1
  Zr  Zr26  1  0.49362254  0.50506275  0.10452805  1
  Zr  Zr27  1  0.70241377  0.09782173  0.30173210  1
  Zr  Zr28  1  0.90067974  0.50072997  0.29764889  1
  Zr  Zr29  1  0.10898953  0.10525417  0.88637596  1
  Zr  Zr30  1  0.70431325  0.70284007  0.29877926  1
  Zr  Zr31  1  0.91015573  0.50060895  0.70013544  1
  Zr  Zr32  1  0.69964076  0.89886683  0.30096900  1
  Zr  Zr33  1  0.70498680  0.49892181  0.89747300  1
  Zr  Zr34  1  0.69241752  0.50308132  0.69619911  1
  Zr  Zr35  1  0.90492375  0.30317081  0.10103106  1
  Zr  Zr36  1  0.10041069  0.10741740  0.30248539  1
  Zr  Zr37  1  0.50606499  0.09695192  0.29664298  1
  Zr  Zr38  1  0.49645507  0.50361003  0.68840180  1
  Zr  Zr39  1  0.29033372  0.30236925  0.10032240  1
  Zr  Zr40  1  0.09372494  0.09955871  0.69858899  1
  Zr  Zr41  1  0.29870530  0.30256790  0.49615249  1
  Zr  Zr42  1  0.29650305  0.71060495  0.89328288  1
  Zr  Zr43  1  0.70473320  0.90918103  0.89314327  1
  Zr  Zr44  1  0.89931946  0.70339181  0.88558672  1
  Zr  Zr45  1  0.09152911  0.70682675  0.48754776  1
  Zr  Zr46  1  0.90068346  0.30253135  0.89286762  1
  Zr  Zr47  1  0.69773302  0.29992780  0.31335360  1
  Zr  Zr48  1  0.89935492  0.10403724  0.10119382  1
  Zr  Zr49  1  0.69868595  0.10033529  0.10968370  1
  Sc  Sc50  1  0.10954564  0.30306903  0.30102113  1
  Sc  Sc51  1  0.29223574  0.89832902  0.10017643  1
  Sc  Sc52  1  0.10593744  0.89157446  0.29930246  1
  Sc  Sc53  1  0.48959049  0.29615418  0.50233533  1
  Sc  Sc54  1  0.30078116  0.69157502  0.10762748  1
  Sc  Sc55  1  0.50238511  0.29765422  0.31192155  1
  Sc  Sc56  1  0.29677414  0.09668812  0.29686597  1
  Sc  Sc57  1  0.89221562  0.89069676  0.69732296  1
  Sc  Sc58  1  0.50352250  0.29925070  0.70238647  1
  Sc  Sc59  1  0.89790481  0.09621318  0.30129670  1
  Sc  Sc60  1  0.90021892  0.10763309  0.50369983  1
  Sc  Sc61  1  0.10159800  0.90339317  0.69018527  1
  Sc  Sc62  1  0.90344963  0.70235474  0.50246049  1
  Sc  Sc63  1  0.28991092  0.49936430  0.30164864  1
  Sc  Sc64  1  0.49613712  0.90150407  0.50550589  1
  Sc  Sc65  1  0.30647086  0.30425127  0.69076626  1
  Sc  Sc66  1  0.89739446  0.89916887  0.30159555  1
  Sc  Sc67  1  0.09864300  0.49697097  0.30760380  1
  Sc  Sc68  1  0.49015212  0.70722468  0.29450507  1
  Sc  Sc69  1  0.49778149  0.09701381  0.50519957  1
  Sc  Sc70  1  0.10110001  0.08774414  0.10091182  1
  Sc  Sc71  1  0.50135681  0.50362788  0.88575751  1
  Sc  Sc72  1  0.11174327  0.49310950  0.10362165  1
  Sc  Sc73  1  0.10398056  0.70272746  0.89673110  1
  Sc  Sc74  1  0.49915079  0.29719710  0.89602838  1
  Sc  Sc75  1  0.71546666  0.49987788  0.10799564  1
  Sc  Sc76  1  0.90071472  0.69826743  0.30964211  1
  Sc  Sc77  1  0.10262799  0.50117318  0.89673363  1
  Sc  Sc78  1  0.69598319  0.09787368  0.88857881  1
  Sc  Sc79  1  0.49753159  0.69871558  0.69850724  1
  Sc  Sc80  1  0.49415419  0.89853817  0.29698585  1
  Sc  Sc81  1  0.29608111  0.70458247  0.50160802  1
  Sc  Sc82  1  0.70054064  0.70652310  0.10379141  1
  Sc  Sc83  1  0.91305124  0.30915869  0.31144629  1
  Sc  Sc84  1  0.70827251  0.30462284  0.70336228  1
  Sc  Sc85  1  0.30238753  0.09611880  0.09403560  1
  Sc  Sc86  1  0.50133628  0.70271334  0.50759217  1
  Sc  Sc87  1  0.30443012  0.89060595  0.30012271  1
  Sc  Sc88  1  0.50156799  0.09552077  0.69616694  1
  Sc  Sc89  1  0.70254712  0.90950701  0.69175839  1
  Sc  Sc90  1  0.49882382  0.29770973  0.09897149  1
  Sc  Sc91  1  0.71506798  0.09865411  0.50083313  1
  Sc  Sc92  1  0.29368290  0.50627770  0.89859694  1
  Sc  Sc93  1  0.49990226  0.90510958  0.10106692  1
  Sc  Sc94  1  0.70558907  0.29965304  0.11004628  1
  Sc  Sc95  1  0.30023785  0.30056676  0.90021208  1
  Sc  Sc96  1  0.70267116  0.69646700  0.89416391  1
  Sc  Sc97  1  0.09177926  0.69537266  0.69630154  1
  Sc  Sc98  1  0.50279690  0.90367900  0.69351754  1
  Sc  Sc99  1  0.31029230  0.10232772  0.50936497  1
  Nb  Nb100  1  0.29912275  0.29836715  0.29853930  1
  Nb  Nb101  1  0.10352583  0.29985362  0.09851957  1
  Nb  Nb102  1  0.09656523  0.89661266  0.49723718  1
  Nb  Nb103  1  0.90101845  0.70159517  0.69468750  1
  Nb  Nb104  1  0.49409795  0.69732650  0.09740926  1
  Nb  Nb105  1  0.49860065  0.10088697  0.09736575  1
  Nb  Nb106  1  0.10043414  0.70148065  0.09899372  1
  Nb  Nb107  1  0.49598795  0.50455864  0.50079101  1
  Nb  Nb108  1  0.69870319  0.09878257  0.69784709  1
  Nb  Nb109  1  0.71585917  0.30069249  0.50868803  1
  Nb  Nb110  1  0.29641116  0.69563751  0.29958217  1
  Nb  Nb111  1  0.89965263  0.90284854  0.89673600  1
  Nb  Nb112  1  0.10230309  0.50145719  0.50172594  1
  Nb  Nb113  1  0.30237355  0.09663549  0.90011792  1
  Nb  Nb114  1  0.09832833  0.89168929  0.09763816  1
  Nb  Nb115  1  0.70456208  0.90295766  0.49852594  1
  Nb  Nb116  1  0.30167327  0.90233699  0.89877573  1
  Nb  Nb117  1  0.89975587  0.30053845  0.69117134  1
  Nb  Nb118  1  0.10333881  0.69752400  0.29755375  1
  Nb  Nb119  1  0.90059708  0.50070639  0.90948377  1
  Nb  Nb120  1  0.89595056  0.09974761  0.69543731  1
  Nb  Nb121  1  0.09871260  0.30067040  0.90047498  1
  Nb  Nb122  1  0.90455772  0.49847289  0.10253101  1
  Nb  Nb123  1  0.90085593  0.89916632  0.49888578  1
  Nb  Nb124  1  0.89272746  0.30180974  0.50712069  1
  Nb  Nb125  1  0.39801500  0.59746197  0.40289182  1
  Nb  Nb126  1  0.19661555  -0.00468918  0.40761007  1
  Nb  Nb127  1  0.39549200  0.19258592  0.80318340  1
  Nb  Nb128  1  0.59955593  0.40318670  0.00096423  1
  Nb  Nb129  1  -0.00388564  0.59624761  0.00503300  1
  Nb  Nb130  1  0.39926562  0.79912300  -0.00248122  1
  Nb  Nb131  1  0.60645814  -0.00344354  0.40220652  1
  Nb  Nb132  1  0.59918398  0.20085935  0.00176342  1
  Nb  Nb133  1  0.39821868  0.20235200  0.19881068  1
  Nb  Nb134  1  0.19896547  0.20003509  -0.00503275  1
  Nb  Nb135  1  0.59940242  0.59724695  0.00545219  1
  Nb  Nb136  1  0.60309461  0.80396155  0.79906542  1
  Nb  Nb137  1  0.61238904  0.19945579  0.60092058  1
  Nb  Nb138  1  -0.00555084  -0.00195129  0.80148858  1
  Nb  Nb139  1  0.39592734  0.39503471  0.20297994  1
  Nb  Nb140  1  0.19402908  0.20183947  0.60419428  1
  Nb  Nb141  1  0.59685151  0.60181831  0.19848673  1
  Nb  Nb142  1  0.00508913  0.79646798  0.19385144  1
  Nb  Nb143  1  0.19559460  0.39648329  0.79539005  1
  Nb  Nb144  1  0.80487482  0.80663153  -0.00652878  1
  Nb  Nb145  1  0.00081133  0.40125312  0.00022056  1
  Nb  Nb146  1  0.00429322  -0.00487778  0.40633443  1
  Nb  Nb147  1  0.40206994  0.40344101  0.00279340  1
  Nb  Nb148  1  0.00581896  0.20410534  0.19644323  1
  Nb  Nb149  1  0.00505786  0.60286475  0.19617246  1
  Pd  Pd150  1  0.39496860  0.59809226  0.79929485  1
  Pd  Pd151  1  0.00421746  0.59757498  0.80555672  1
  Pd  Pd152  1  0.40113323  0.60100023  -0.01160047  1
  Pd  Pd153  1  0.19460348  0.60601900  -0.00143608  1
  Pd  Pd154  1  0.59665531  0.40091308  0.80024682  1
  Pd  Pd155  1  0.20193856  0.79584320  0.19774272  1
  Pd  Pd156  1  0.39585469  0.19157914  0.39187679  1
  Pd  Pd157  1  -0.01561861  0.19053759  0.80277677  1
  Pd  Pd158  1  0.58942722  0.61251547  0.39400796  1
  Pd  Pd159  1  0.80477074  -0.00742117  0.19726041  1
  Pd  Pd160  1  0.00607511  0.80927264  0.79037039  1
  Pd  Pd161  1  0.78826102  0.20035862  -0.00097642  1
  Pd  Pd162  1  0.80363862  0.59289024  0.79351198  1
  Pd  Pd163  1  0.79884872  0.39445910  0.00239087  1
  Pd  Pd164  1  0.80145509  0.39361556  0.21096025  1
  Pd  Pd165  1  0.59364467  0.20770082  0.19797598  1
  Pd  Pd166  1  0.19995018  0.00298698  -0.00262746  1
  Pd  Pd167  1  0.20477005  0.00526065  0.59390287  1
  Pd  Pd168  1  0.60359536  0.19288883  0.41725942  1
  Pd  Pd169  1  0.59112803  0.80549035  0.40209260  1
  Pd  Pd170  1  0.20350887  0.59978078  0.40501619  1
  Pd  Pd171  1  0.80662852  0.59685726  0.59798975  1
  Pd  Pd172  1  0.00158745  0.39811392  0.59357825  1
  Pd  Pd173  1  0.81163390  0.81340550  0.19029530  1
  Pd  Pd174  1  -0.01140693  -0.00745874  0.60205113  1
  Pd  Pd175  1  0.59193102  0.79723872  0.19776700  1
  Pd  Pd176  1  0.19234795  0.79259576  0.60362147  1
  Pd  Pd177  1  0.39293881  0.39659217  0.80310493  1
  Pd  Pd178  1  0.40023161  0.79265067  0.40456620  1
  Pd  Pd179  1  0.81304214  0.21101646  0.21484466  1
  Pd  Pd180  1  0.80544250  0.40753505  0.79272835  1
  Pd  Pd181  1  0.39948044  -0.00003430  0.40080873  1
  Pd  Pd182  1  0.40718031  0.00067300  0.79711716  1
  Pd  Pd183  1  0.18834455  0.80435490  0.79218080  1
  Pd  Pd184  1  0.79729111  0.60730603  -0.00033697  1
  Pd  Pd185  1  0.00862504  0.19813369  0.00324545  1
  Pd  Pd186  1  0.59840582  0.39080939  0.41760757  1
  Pd  Pd187  1  -0.00885568  0.78652007  0.00143113  1
  Pd  Pd188  1  0.20921392  0.19052782  0.40918216  1
  Pd  Pd189  1  0.59663931  0.38843390  0.59437359  1
  Pd  Pd190  1  0.80487221  0.79907591  0.40469203  1
  Pd  Pd191  1  0.39619777  0.00264307  0.19553434  1
  Pd  Pd192  1  0.19923828  -0.00478097  0.20697921  1
  Pd  Pd193  1  0.80898176  0.20263615  0.39607931  1
  Pd  Pd194  1  0.60353249  0.80267271  0.60524696  1
  Pd  Pd195  1  0.60383388  0.79201136  -0.00560880  1
  Pd  Pd196  1  0.19551282  0.61118611  0.59353018  1
  Pd  Pd197  1  0.00646867  -0.00361146  0.21091049  1
  Pd  Pd198  1  0.80397467  0.19705586  0.79480397  1
  Pd  Pd199  1  0.59593208  0.40144306  0.19629473  1
  Rh  Rh200  1  0.00213894  0.59731147  0.39674820  1
  Rh  Rh201  1  -0.00666427  0.19474438  0.39321002  1
  Rh  Rh202  1  0.00104907  0.40708620  0.80810521  1
  Rh  Rh203  1  0.18964133  -0.01573299  0.80638835  1
  Rh  Rh204  1  0.19959389  0.40040559  0.40129190  1
  Rh  Rh205  1  0.41171009  0.81028711  0.80441661  1
  Rh  Rh206  1  0.39699876  0.60562098  0.59174767  1
  Rh  Rh207  1  0.59108916  0.19323178  0.79590075  1
  Rh  Rh208  1  0.60770652  0.00820483  0.58897270  1
  Rh  Rh209  1  0.80449241  -0.00259999  0.40576599  1
  Rh  Rh210  1  0.40243050  0.19729781  0.61309415  1
  Rh  Rh211  1  0.19993117  0.40190745  0.20783766  1
  Rh  Rh212  1  0.39913952  0.20513096  -0.00062090  1
  Rh  Rh213  1  0.79830929  0.19952898  0.60952845  1
  Rh  Rh214  1  0.00970275  0.39974957  0.19338047  1
  Rh  Rh215  1  0.21116315  0.21331997  0.79844724  1
  Rh  Rh216  1  0.80335377  0.41014670  0.60489134  1
  Rh  Rh217  1  -0.00276241  0.20681332  0.59972960  1
  Rh  Rh218  1  0.18690065  0.38670200  0.60448442  1
  Rh  Rh219  1  0.39380960  -0.00243285  0.60592324  1
  Rh  Rh220  1  0.19930463  0.39437466  -0.01234564  1
  Rh  Rh221  1  0.59675894  -0.00391623  0.79425703  1
  Rh  Rh222  1  0.39256360  -0.01126483  0.00543899  1
  Rh  Rh223  1  0.00319723  0.40406283  0.40732530  1
  Rh  Rh224  1  0.39964306  0.79966327  0.60305732  1
  Rh  Rh225  1  0.40257082  0.59449857  0.21760743  1
  Rh  Rh226  1  0.20237934  0.80289006  0.39730440  1
  Rh  Rh227  1  0.79832434  0.59787938  0.20887154  1
  Rh  Rh228  1  0.19843416  0.59477475  0.79361905  1
  Rh  Rh229  1  -0.00056930  0.60277655  0.59294134  1
  Rh  Rh230  1  -0.00229141  0.80637230  0.38988902  1
  Rh  Rh231  1  0.80032699  0.60164267  0.40278987  1
  Rh  Rh232  1  0.21021786  0.79497743  0.00508794  1
  Rh  Rh233  1  0.80149522  0.80165204  0.59297916  1
  Rh  Rh234  1  0.40788155  0.39848358  0.59716026  1
  Rh  Rh235  1  0.39365589  0.40579115  0.39755966  1
  Rh  Rh236  1  0.80749976  0.00237060  0.78856001  1
  Rh  Rh237  1  0.78965432  -0.00002574  0.00425662  1
  Rh  Rh238  1  0.59899757  0.60489824  0.60037546  1
  Rh  Rh239  1  0.80428099  -0.00079173  0.59871377  1
  Rh  Rh240  1  0.39469399  0.79876024  0.18931901  1
  Rh  Rh241  1  0.79383380  0.80335773  0.80063759  1
  Rh  Rh242  1  0.01194534  0.01073912  -0.01148827  1
  Rh  Rh243  1  0.59644009  -0.00465968  0.20543499  1
  Rh  Rh244  1  0.79976108  0.40004019  0.40217957  1
  Rh  Rh245  1  0.60317399  0.60807249  0.79634146  1
  Rh  Rh246  1  0.60604579  0.01404871  0.00376711  1
  Rh  Rh247  1  -0.00224383  0.79925113  0.60163134  1
  Rh  Rh248  1  0.19242738  0.59784215  0.20342619  1
  Rh  Rh249  1  0.19927314  0.19550950  0.19029264  1
