# generated using pymatgen
data_ZrScNbPdRh
_symmetry_space_group_name_H-M   'P 1'
_cell_length_a   16.54800890
_cell_length_b   16.55132819
_cell_length_c   16.55206954
_cell_angle_alpha   89.98718583
_cell_angle_beta   90.03743866
_cell_angle_gamma   89.97923886
_symmetry_Int_Tables_number   1
_chemical_formula_structural   ZrScNbPdRh
_chemical_formula_sum   'Zr50 Sc50 Nb50 Pd50 Rh50'
_cell_volume   4533.47020790
_cell_formula_units_Z   50
loop_
 _symmetry_equiv_pos_site_id
 _symmetry_equiv_pos_as_xyz
  1  'x, y, z'
loop_
 _atom_site_type_symbol
 _atom_site_label
 _atom_site_symmetry_multiplicity
 _atom_site_fract_x
 _atom_site_fract_y
 _atom_site_fract_z
 _atom_site_occupancy
  Zr  Zr0  1  0.10901738  0.89640696  0.69778141  1
  Zr  Zr1  1  0.29576520  0.30019615  0.30356964  1
  Zr  Zr2  1  0.30099818  0.90369170  0.90290567  1
  Zr  Zr3  1  0.89740614  0.30207958  0.70248335  1
  Zr  Zr4  1  0.89967199  0.10131086  0.69951942  1
  Zr  Zr5  1  0.90306411  0.70073784  0.30915418  1
  Zr  Zr6  1  0.70491172  0.30867956  0.09293640  1
  Zr  Zr7  1  0.70148855  0.10044908  0.70151096  1
  Zr  Zr8  1  0.09455475  0.89686624  0.89189952  1
  Zr  Zr9  1  0.29711680  0.30477114  0.50006335  1
  Zr  Zr10  1  0.30226019  0.70022670  0.11018929  1
  Zr  Zr11  1  0.30135223  0.10464179  0.30730419  1
  Zr  Zr12  1  0.29732629  0.10829871  0.89202985  1
  Zr  Zr13  1  0.49889961  0.50468134  0.29981793  1
  Zr  Zr14  1  0.90095900  0.09950473  0.90243139  1
  Zr  Zr15  1  0.09795049  0.48932503  0.49682254  1
  Zr  Zr16  1  0.29297263  0.51192157  0.30143482  1
  Zr  Zr17  1  0.50153597  0.69273654  0.10615106  1
  Zr  Zr18  1  0.08865319  0.69858544  0.90169084  1
  Zr  Zr19  1  0.49707578  0.09167373  0.50014286  1
  Zr  Zr20  1  0.50006540  0.69633568  0.89740227  1
  Zr  Zr21  1  0.30180778  0.89959946  0.09709643  1
  Zr  Zr22  1  0.09899798  0.69585597  0.09504709  1
  Zr  Zr23  1  0.50238836  0.89357659  0.68679814  1
  Zr  Zr24  1  0.70435167  0.49568041  0.31495084  1
  Zr  Zr25  1  0.30698936  0.49839910  0.71148081  1
  Zr  Zr26  1  0.51336229  0.89923723  0.31481647  1
  Zr  Zr27  1  0.51099804  0.10606874  0.89603048  1
  Zr  Zr28  1  0.30030112  0.09335943  0.10236947  1
  Zr  Zr29  1  0.10870136  0.10213435  0.70031130  1
  Zr  Zr30  1  0.89621742  0.10804737  0.09917542  1
  Zr  Zr31  1  0.08970639  0.30886733  0.69473343  1
  Zr  Zr32  1  0.89998414  0.09850422  0.29203687  1
  Zr  Zr33  1  0.70012202  0.50092996  0.09473443  1
  Zr  Zr34  1  0.50444313  0.90222156  0.90011750  1
  Zr  Zr35  1  0.90424559  0.69737110  0.08850157  1
  Zr  Zr36  1  0.70848260  0.68698353  0.50420409  1
  Zr  Zr37  1  0.28387270  0.50159208  0.10176343  1
  Zr  Zr38  1  0.89557437  0.48720454  0.10380114  1
  Zr  Zr39  1  0.89715464  0.89535165  0.30373335  1
  Zr  Zr40  1  0.09831514  0.50533192  0.10196697  1
  Zr  Zr41  1  0.49824692  0.70949197  0.50352607  1
  Zr  Zr42  1  0.89023294  0.50482001  0.48903682  1
  Zr  Zr43  1  0.49103131  0.70160943  0.30097751  1
  Zr  Zr44  1  0.69858389  0.71108963  0.29788991  1
  Zr  Zr45  1  0.49201548  0.89822869  0.09710323  1
  Zr  Zr46  1  0.50111646  0.29540342  0.30048800  1
  Zr  Zr47  1  0.08807028  0.10845238  0.09874446  1
  Zr  Zr48  1  0.69693923  0.31304780  0.49608788  1
  Zr  Zr49  1  0.51150174  0.49962161  0.50626680  1
  Sc  Sc50  1  0.29492252  0.70622268  0.69964207  1
  Sc  Sc51  1  0.29793129  0.10643309  0.50837498  1
  Sc  Sc52  1  0.89479992  0.69672420  0.70410138  1
  Sc  Sc53  1  0.50009275  0.49308657  0.89319675  1
  Sc  Sc54  1  0.70179244  0.50219164  0.69133299  1
  Sc  Sc55  1  0.70168957  0.89804359  0.69287712  1
  Sc  Sc56  1  0.89673516  0.89502066  0.49999062  1
  Sc  Sc57  1  0.10100529  0.29953411  0.89055751  1
  Sc  Sc58  1  0.50967935  0.30178246  0.89556179  1
  Sc  Sc59  1  0.09036649  0.69863475  0.29584125  1
  Sc  Sc60  1  0.69383502  0.29971165  0.29935120  1
  Sc  Sc61  1  0.89807510  0.30548529  0.28113403  1
  Sc  Sc62  1  0.09264821  0.09440098  0.29686830  1
  Sc  Sc63  1  0.69787020  0.09172889  0.29691565  1
  Sc  Sc64  1  0.50281005  0.10010845  0.30352160  1
  Sc  Sc65  1  0.89826737  0.49675064  0.70354102  1
  Sc  Sc66  1  0.09890503  0.70855356  0.70257000  1
  Sc  Sc67  1  0.89243729  0.90149047  0.09641995  1
  Sc  Sc68  1  0.71074216  0.69214920  0.90052147  1
  Sc  Sc69  1  0.50955688  0.10153277  0.09940982  1
  Sc  Sc70  1  0.70752875  0.08918896  0.50425139  1
  Sc  Sc71  1  0.10275574  0.50469059  0.89548183  1
  Sc  Sc72  1  0.10178042  0.90151528  0.10692600  1
  Sc  Sc73  1  0.69847557  0.49576230  0.90431683  1
  Sc  Sc74  1  0.09760465  0.70629828  0.49951502  1
  Sc  Sc75  1  0.30041529  0.70060233  0.49271487  1
  Sc  Sc76  1  0.90148029  0.89092749  0.90075420  1
  Sc  Sc77  1  0.30505799  0.90373802  0.28479047  1
  Sc  Sc78  1  0.10096229  0.10076928  0.89150541  1
  Sc  Sc79  1  0.70271321  0.90116311  0.10758483  1
  Sc  Sc80  1  0.89516283  0.29981826  0.89622076  1
  Sc  Sc81  1  0.29394283  0.69314801  0.89214450  1
  Sc  Sc82  1  0.90182608  0.50458069  0.89403704  1
  Sc  Sc83  1  0.51043022  0.50070118  0.09835255  1
  Sc  Sc84  1  0.09286188  0.50124120  0.30069137  1
  Sc  Sc85  1  0.70554851  0.69788632  0.69908821  1
  Sc  Sc86  1  0.90408017  0.30609416  0.51109364  1
  Sc  Sc87  1  0.89762433  0.09569467  0.50639209  1
  Sc  Sc88  1  0.49839351  0.30349077  0.50630050  1
  Sc  Sc89  1  0.30390716  0.89776756  0.51337066  1
  Sc  Sc90  1  0.10571600  0.30132115  0.49908613  1
  Sc  Sc91  1  0.69981677  0.90521280  0.90590648  1
  Sc  Sc92  1  0.70361894  0.30617768  0.70348976  1
  Sc  Sc93  1  0.50140152  0.49196658  0.70082828  1
  Sc  Sc94  1  0.09823327  0.89364882  0.50789284  1
  Sc  Sc95  1  0.30543188  0.29595345  0.70166601  1
  Sc  Sc96  1  0.69349183  0.10154527  0.90599558  1
  Sc  Sc97  1  0.90500531  0.89187289  0.70171694  1
  Sc  Sc98  1  0.49945430  0.30453518  0.70174721  1
  Sc  Sc99  1  0.70352942  0.09459039  0.09622857  1
  Nb  Nb100  1  0.90529286  0.69747959  0.50238949  1
  Nb  Nb101  1  0.10003140  0.30220063  0.10367123  1
  Nb  Nb102  1  0.09370167  0.50107863  0.69757674  1
  Nb  Nb103  1  0.29967411  0.50001575  0.50231579  1
  Nb  Nb104  1  0.50038150  0.10521050  0.69805812  1
  Nb  Nb105  1  0.30566750  0.09952068  0.69837580  1
  Nb  Nb106  1  0.10240044  0.09771990  0.50053534  1
  Nb  Nb107  1  0.70516806  0.89724798  0.30934203  1
  Nb  Nb108  1  0.69473942  0.89728564  0.48857017  1
  Nb  Nb109  1  0.29918877  0.30564482  0.90091175  1
  Nb  Nb110  1  0.29476643  0.30485217  0.10292757  1
  Nb  Nb111  1  0.50637648  0.89725995  0.49977660  1
  Nb  Nb112  1  0.09540834  0.89842745  0.30643067  1
  Nb  Nb113  1  0.90818838  0.29308074  0.09372872  1
  Nb  Nb114  1  0.10457271  0.29810001  0.30538347  1
  Nb  Nb115  1  0.30222063  0.49771534  0.89979284  1
  Nb  Nb116  1  0.30250810  0.69988527  0.29720526  1
  Nb  Nb117  1  0.49778339  0.30150083  0.10146321  1
  Nb  Nb118  1  0.69628745  0.69349511  0.09745317  1
  Nb  Nb119  1  0.90631180  0.69753665  0.89722255  1
  Nb  Nb120  1  0.29777122  0.89975487  0.70078049  1
  Nb  Nb121  1  0.89940383  0.50882175  0.29551185  1
  Nb  Nb122  1  0.69187961  0.30303383  0.90031876  1
  Nb  Nb123  1  0.70063475  0.49918249  0.50341994  1
  Nb  Nb124  1  0.49973428  0.69696753  0.69944500  1
  Nb  Nb125  1  0.40234729  0.00153555  0.78979027  1
  Nb  Nb126  1  0.20036784  0.80561582  0.38945653  1
  Nb  Nb127  1  0.39313863  0.39759783  0.00352990  1
  Nb  Nb128  1  0.39811953  0.59854563  0.60178381  1
  Nb  Nb129  1  -0.00120624  0.00310102  -0.00227939  1
  Nb  Nb130  1  0.39618016  0.39899210  0.19809647  1
  Nb  Nb131  1  0.19689015  0.20387902  0.19719667  1
  Nb  Nb132  1  0.39411921  0.59115594  -0.00211144  1
  Nb  Nb133  1  0.39717622  0.40617278  0.39806378  1
  Nb  Nb134  1  0.60184685  0.79093020  0.00533238  1
  Nb  Nb135  1  -0.00308158  0.19962117  0.39891396  1
  Nb  Nb136  1  0.20024383  0.79925233  -0.00031558  1
  Nb  Nb137  1  0.40247215  0.80642883  0.79540614  1
  Nb  Nb138  1  0.20335812  0.20809268  0.00437522  1
  Nb  Nb139  1  0.39601856  0.20957563  0.00261162  1
  Nb  Nb140  1  0.59826763  0.60135337  0.79617177  1
  Nb  Nb141  1  0.00221839  0.59650641  0.59811807  1
  Nb  Nb142  1  0.19925950  0.59281773  0.60015903  1
  Nb  Nb143  1  0.00199318  0.39302309  0.00456706  1
  Nb  Nb144  1  0.80038155  0.60109570  0.20114690  1
  Nb  Nb145  1  0.80613827  0.20131073  0.39880033  1
  Nb  Nb146  1  0.00674326  0.00193673  0.60503941  1
  Nb  Nb147  1  0.80265633  0.00169025  0.79999057  1
  Nb  Nb148  1  0.59912853  0.19549649  0.60278166  1
  Nb  Nb149  1  0.19583083  -0.00541511  0.40133549  1
  Pd  Pd150  1  0.39636815  0.78624156  -0.00796788  1
  Pd  Pd151  1  0.00288302  0.19535885  0.59233733  1
  Pd  Pd152  1  -0.00848627  0.39068725  0.39366824  1
  Pd  Pd153  1  0.40402392  0.20596815  0.41018500  1
  Pd  Pd154  1  0.60024824  0.60761888  0.40039992  1
  Pd  Pd155  1  0.19360348  0.60168365  0.79314548  1
  Pd  Pd156  1  0.00176358  0.00050010  0.41129408  1
  Pd  Pd157  1  0.79288227  0.20457033  -0.00604901  1
  Pd  Pd158  1  0.59538428  0.80701642  0.19578051  1
  Pd  Pd159  1  0.40321520  0.59651319  0.41104833  1
  Pd  Pd160  1  0.20578577  -0.00030604  0.79792490  1
  Pd  Pd161  1  0.80650346  0.59444706  -0.00037542  1
  Pd  Pd162  1  0.38911937  0.81216541  0.39636423  1
  Pd  Pd163  1  0.81215085  0.38800413  0.39288467  1
  Pd  Pd164  1  0.61085607  0.59543423  0.20960217  1
  Pd  Pd165  1  0.19612754  0.79678016  0.20187210  1
  Pd  Pd166  1  0.18765067  0.00142735  -0.00070291  1
  Pd  Pd167  1  0.60967404  0.19224278  0.41104616  1
  Pd  Pd168  1  -0.00600122  0.80287242  0.19414254  1
  Pd  Pd169  1  0.60429553  0.79438418  0.80515526  1
  Pd  Pd170  1  0.19045620  0.60846277  0.40345260  1
  Pd  Pd171  1  0.60868843  0.19876127  0.19359940  1
  Pd  Pd172  1  0.59946067  -0.00537115  0.19974145  1
  Pd  Pd173  1  0.00563953  0.39860396  0.20079168  1
  Pd  Pd174  1  0.40676937  0.01613962  -0.00814316  1
  Pd  Pd175  1  0.41296059  0.00321881  0.20632110  1
  Pd  Pd176  1  0.60277005  -0.00365730  0.79297720  1
  Pd  Pd177  1  0.39627856  0.20043124  0.19522820  1
  Pd  Pd178  1  0.61261085  0.79336457  0.59491244  1
  Pd  Pd179  1  0.60063251  0.40200644  0.20195096  1
  Pd  Pd180  1  0.20626225  0.40307857  0.61021896  1
  Pd  Pd181  1  0.39860343  0.00027962  0.60152194  1
  Pd  Pd182  1  0.80533645  0.79353532  0.19421859  1
  Pd  Pd183  1  0.00112033  0.20209657  0.80077001  1
  Pd  Pd184  1  0.19142066  0.39769618  -0.00643758  1
  Pd  Pd185  1  0.19541553  0.00657349  0.20650829  1
  Pd  Pd186  1  0.78942752  0.20330489  0.20290917  1
  Pd  Pd187  1  0.60317287  0.00172480  0.59741360  1
  Pd  Pd188  1  0.79072870  0.20827281  0.59116536  1
  Pd  Pd189  1  0.40563671  0.20323041  0.80383475  1
  Pd  Pd190  1  0.38988189  -0.00819600  0.40368721  1
  Pd  Pd191  1  0.80315956  0.00486567  0.39820219  1
  Pd  Pd192  1  0.79235988  0.19657327  0.80889394  1
  Pd  Pd193  1  -0.00726890  -0.00896103  0.19215797  1
  Pd  Pd194  1  0.79574826  0.80437938  0.80546672  1
  Pd  Pd195  1  0.79262359  0.79919993  -0.00206634  1
  Pd  Pd196  1  0.79563890  0.40706239  0.80427520  1
  Pd  Pd197  1  0.19756858  0.39780042  0.79372084  1
  Pd  Pd198  1  0.80051616  0.80159986  0.59554909  1
  Pd  Pd199  1  0.20055442  0.20560234  0.60434687  1
  Rh  Rh200  1  0.79521554  0.59737315  0.80003173  1
  Rh  Rh201  1  0.40826939  0.80625406  0.20837578  1
  Rh  Rh202  1  0.00662976  0.81039691  0.00473198  1
  Rh  Rh203  1  -0.00360878  0.79631986  0.60148029  1
  Rh  Rh204  1  0.81100302  0.59468478  0.60265472  1
  Rh  Rh205  1  0.40200689  0.39267202  0.80693543  1
  Rh  Rh206  1  0.20484043  0.60814839  -0.00411786  1
  Rh  Rh207  1  0.59360093  0.39664867  -0.00124601  1
  Rh  Rh208  1  0.20152525  0.20757694  0.79448392  1
  Rh  Rh209  1  0.39708671  0.40520932  0.59619789  1
  Rh  Rh210  1  0.60620752  0.40704304  0.79637149  1
  Rh  Rh211  1  0.19589353  0.39848293  0.21137850  1
  Rh  Rh212  1  -0.00413385  0.79340895  0.79510357  1
  Rh  Rh213  1  0.80589411  -0.00074709  -0.00721711  1
  Rh  Rh214  1  -0.00847038  0.40977666  0.59958066  1
  Rh  Rh215  1  0.60010676  -0.00986875  0.00871611  1
  Rh  Rh216  1  0.00067989  0.40261087  0.80729439  1
  Rh  Rh217  1  0.40543863  0.60463287  0.79790950  1
  Rh  Rh218  1  0.60540576  0.79112198  0.40729503  1
  Rh  Rh219  1  -0.00885777  -0.00088254  0.79859481  1
  Rh  Rh220  1  0.59912119  0.20845925  0.00649852  1
  Rh  Rh221  1  0.19162810  0.60813478  0.20914599  1
  Rh  Rh222  1  0.00326712  0.80122883  0.40438267  1
  Rh  Rh223  1  0.80002037  -0.00514814  0.20516515  1
  Rh  Rh224  1  0.80843520  0.39547790  -0.00706097  1
  Rh  Rh225  1  0.81088960  -0.01051896  0.60905811  1
  Rh  Rh226  1  0.20624185  0.80206759  0.80977404  1
  Rh  Rh227  1  0.19764471  0.00154336  0.59607957  1
  Rh  Rh228  1  0.60514474  0.00491549  0.40384000  1
  Rh  Rh229  1  0.80158216  0.40430859  0.59955682  1
  Rh  Rh230  1  0.79934927  0.79481630  0.40969163  1
  Rh  Rh231  1  -0.00891690  0.60168663  0.19641187  1
  Rh  Rh232  1  0.58922560  0.39987593  0.39811105  1
  Rh  Rh233  1  0.39490541  0.79280777  0.60550451  1
  Rh  Rh234  1  0.59401602  0.60161943  -0.01057236  1
  Rh  Rh235  1  0.18760710  0.18623146  0.39373342  1
  Rh  Rh236  1  0.40630720  0.20138467  0.59793482  1
  Rh  Rh237  1  0.79790373  0.60694245  0.39407279  1
  Rh  Rh238  1  0.79167717  0.40511501  0.20435849  1
  Rh  Rh239  1  0.60537006  0.20693719  0.79062203  1
  Rh  Rh240  1  0.00724491  0.20801492  0.21149237  1
  Rh  Rh241  1  0.60495830  0.39225467  0.60570591  1
  Rh  Rh242  1  0.00864748  0.20431408  -0.01111712  1
  Rh  Rh243  1  0.00350483  0.59939930  0.40743438  1
  Rh  Rh244  1  0.39791847  0.58892259  0.19026519  1
  Rh  Rh245  1  0.20560412  0.79084316  0.59054385  1
  Rh  Rh246  1  0.59557711  0.60095355  0.60718051  1
  Rh  Rh247  1  -0.00544815  0.58579226  -0.00148326  1
  Rh  Rh248  1  -0.00037666  0.60244350  0.79119972  1
  Rh  Rh249  1  0.20408071  0.40700394  0.39555352  1
