# generated using pymatgen
data_ZrScNbPdRh
_symmetry_space_group_name_H-M   'P 1'
_cell_length_a   16.56097116
_cell_length_b   16.55861359
_cell_length_c   16.56486782
_cell_angle_alpha   89.95016513
_cell_angle_beta   90.01897434
_cell_angle_gamma   89.98972975
_symmetry_Int_Tables_number   1
_chemical_formula_structural   ZrScNbPdRh
_chemical_formula_sum   'Zr50 Sc50 Nb50 Pd50 Rh50'
_cell_volume   4542.52736326
_cell_formula_units_Z   50
loop_
 _symmetry_equiv_pos_site_id
 _symmetry_equiv_pos_as_xyz
  1  'x, y, z'
loop_
 _atom_site_type_symbol
 _atom_site_label
 _atom_site_symmetry_multiplicity
 _atom_site_fract_x
 _atom_site_fract_y
 _atom_site_fract_z
 _atom_site_occupancy
  Zr  Zr0  1  0.69958287  0.09486774  0.89841185  1
  Zr  Zr1  1  0.69638219  0.90377962  0.50258161  1
  Zr  Zr2  1  0.70147589  0.49949139  0.30826713  1
  Zr  Zr3  1  0.09725351  0.50708296  0.70556545  1
  Zr  Zr4  1  0.89943645  0.09377343  0.10350657  1
  Zr  Zr5  1  0.30750875  0.70723351  0.29961535  1
  Zr  Zr6  1  0.48892760  0.28566378  0.50642704  1
  Zr  Zr7  1  0.70254160  0.90238753  0.30129359  1
  Zr  Zr8  1  0.29990145  0.90395053  0.09542919  1
  Zr  Zr9  1  0.90106554  0.69186114  0.49703368  1
  Zr  Zr10  1  0.69597579  0.29660082  0.10195342  1
  Zr  Zr11  1  0.69135849  0.70107246  0.09179107  1
  Zr  Zr12  1  0.50437272  0.50644031  0.29809327  1
  Zr  Zr13  1  0.10314189  0.90193287  0.09312075  1
  Zr  Zr14  1  0.69753181  0.30141207  0.29356856  1
  Zr  Zr15  1  0.10151868  0.90562590  0.51031463  1
  Zr  Zr16  1  0.89859644  0.09657503  0.88916410  1
  Zr  Zr17  1  0.50773392  0.30151881  0.89990010  1
  Zr  Zr18  1  0.49853995  0.51220290  0.50267607  1
  Zr  Zr19  1  0.70059745  0.50311160  0.49421126  1
  Zr  Zr20  1  0.89650146  0.90291068  0.90089195  1
  Zr  Zr21  1  0.10362761  0.69029053  0.50241549  1
  Zr  Zr22  1  0.29653459  0.70198480  0.70514798  1
  Zr  Zr23  1  0.11876385  0.49311120  0.49611020  1
  Zr  Zr24  1  0.89635992  0.29751076  0.69477138  1
  Zr  Zr25  1  0.30549098  0.69927959  0.90031974  1
  Zr  Zr26  1  0.48903047  0.50051513  0.90361541  1
  Zr  Zr27  1  0.29848684  0.30238077  0.10468564  1
  Zr  Zr28  1  0.29268014  0.50215217  0.29696979  1
  Zr  Zr29  1  0.09914001  0.70173786  0.89509050  1
  Zr  Zr30  1  0.10081025  0.70263631  0.69862731  1
  Zr  Zr31  1  0.29910354  0.89851975  0.70673626  1
  Zr  Zr32  1  0.29838766  0.29732812  0.29751798  1
  Zr  Zr33  1  0.90977279  0.50024720  0.90112099  1
  Zr  Zr34  1  0.90499535  0.30047772  0.89114180  1
  Zr  Zr35  1  0.09550958  0.09858559  0.50134427  1
  Zr  Zr36  1  0.91194603  0.90181924  0.09826882  1
  Zr  Zr37  1  0.50018228  0.09470487  0.09764064  1
  Zr  Zr38  1  0.28398678  0.30838406  0.50328633  1
  Zr  Zr39  1  0.89948442  0.70675911  0.90195217  1
  Zr  Zr40  1  0.90613785  0.69998334  0.69882382  1
  Zr  Zr41  1  0.89997268  0.10746355  0.49638747  1
  Zr  Zr42  1  0.10486218  0.69287252  0.29551997  1
  Zr  Zr43  1  0.71054432  0.10150536  0.29538042  1
  Zr  Zr44  1  0.10073169  0.09221808  0.69726036  1
  Zr  Zr45  1  0.29606210  0.29536124  0.69651393  1
  Zr  Zr46  1  0.71657315  0.30307895  0.50395685  1
  Zr  Zr47  1  0.90039257  0.49682605  0.70215099  1
  Zr  Zr48  1  0.49392075  0.70141760  0.48547211  1
  Zr  Zr49  1  0.68828253  0.49997864  0.90310038  1
  Sc  Sc50  1  0.49528955  0.88941962  0.30025046  1
  Sc  Sc51  1  0.29989126  0.09557588  0.09923575  1
  Sc  Sc52  1  0.09972125  0.30555283  0.10794449  1
  Sc  Sc53  1  0.30296173  0.11093545  0.51464660  1
  Sc  Sc54  1  0.29899559  0.89474712  0.90285140  1
  Sc  Sc55  1  0.89894528  0.29009265  0.29819075  1
  Sc  Sc56  1  0.09747716  0.30095402  0.69455514  1
  Sc  Sc57  1  0.91366065  0.50264887  0.09578853  1
  Sc  Sc58  1  0.50163513  0.29553134  0.70786583  1
  Sc  Sc59  1  0.30353079  0.70456276  0.10248899  1
  Sc  Sc60  1  0.50183898  0.50163523  0.71034513  1
  Sc  Sc61  1  0.49879779  0.89704974  0.09668264  1
  Sc  Sc62  1  0.69606376  0.29417872  0.70449041  1
  Sc  Sc63  1  0.69255338  0.50132521  0.69943374  1
  Sc  Sc64  1  0.69621868  0.70485518  0.29470789  1
  Sc  Sc65  1  0.90267918  0.30593423  0.10010732  1
  Sc  Sc66  1  0.50713615  0.10576215  0.70225449  1
  Sc  Sc67  1  0.50286240  0.29409524  0.10063887  1
  Sc  Sc68  1  0.90567595  0.70402197  0.09927320  1
  Sc  Sc69  1  0.49714669  0.29450916  0.28815124  1
  Sc  Sc70  1  0.09950357  0.29994652  0.29619160  1
  Sc  Sc71  1  0.90015924  0.90113452  0.29130836  1
  Sc  Sc72  1  0.90095384  0.90246558  0.49653924  1
  Sc  Sc73  1  0.49692773  0.90462049  0.90725249  1
  Sc  Sc74  1  0.49900075  0.69808046  0.91021465  1
  Sc  Sc75  1  0.70483992  0.70553227  0.69498868  1
  Sc  Sc76  1  0.49371171  0.10253513  0.29738396  1
  Sc  Sc77  1  0.30202557  0.09302585  0.90138369  1
  Sc  Sc78  1  0.50513704  0.09824568  0.50827720  1
  Sc  Sc79  1  0.30183452  0.10345346  0.28672070  1
  Sc  Sc80  1  0.50272018  0.10129419  0.90628615  1
  Sc  Sc81  1  0.69702323  0.89591443  0.09609275  1
  Sc  Sc82  1  0.30328379  0.89981628  0.28802493  1
  Sc  Sc83  1  0.29484923  0.09860380  0.70608875  1
  Sc  Sc84  1  0.70130466  0.70123901  0.49466426  1
  Sc  Sc85  1  0.29983793  0.89606504  0.50422413  1
  Sc  Sc86  1  0.69532247  0.10186287  0.70556407  1
  Sc  Sc87  1  0.69335468  0.49820657  0.09515113  1
  Sc  Sc88  1  0.30967768  0.30326433  0.90487012  1
  Sc  Sc89  1  0.51021649  0.89934552  0.49737036  1
  Sc  Sc90  1  0.09743055  0.09357567  0.88900500  1
  Sc  Sc91  1  0.09755379  0.50886908  0.29797777  1
  Sc  Sc92  1  0.49697983  0.69130057  0.70314371  1
  Sc  Sc93  1  0.30307834  0.50893683  0.70400515  1
  Sc  Sc94  1  0.88554318  0.49709724  0.49998404  1
  Sc  Sc95  1  0.90778614  0.69898949  0.29738854  1
  Sc  Sc96  1  0.49551426  0.50589203  0.09914874  1
  Sc  Sc97  1  0.09210727  0.10305565  0.29078523  1
  Sc  Sc98  1  0.10041558  0.89922067  0.28754175  1
  Sc  Sc99  1  0.69907568  0.10113923  0.10092122  1
  Nb  Nb100  1  0.09673153  0.89805789  0.90474422  1
  Nb  Nb101  1  0.49697580  0.70147869  0.28765626  1
  Nb  Nb102  1  0.70080934  0.30232784  0.90378356  1
  Nb  Nb103  1  0.89220246  0.90074774  0.70167460  1
  Nb  Nb104  1  0.70161411  0.70392536  0.90483472  1
  Nb  Nb105  1  0.10116059  0.69879581  0.10788005  1
  Nb  Nb106  1  0.30179880  0.49779453  0.91336173  1
  Nb  Nb107  1  0.89542954  0.09408689  0.29188022  1
  Nb  Nb108  1  0.29666664  0.49486867  0.09161199  1
  Nb  Nb109  1  0.10302265  0.89854282  0.69886749  1
  Nb  Nb110  1  0.10538703  0.50913796  0.10117306  1
  Nb  Nb111  1  0.89694653  0.50456920  0.30788568  1
  Nb  Nb112  1  0.09602339  0.29893900  0.89539430  1
  Nb  Nb113  1  0.50291301  0.70509380  0.10586604  1
  Nb  Nb114  1  0.69815958  0.09812864  0.49881143  1
  Nb  Nb115  1  0.69623103  0.90252105  0.69745553  1
  Nb  Nb116  1  0.10041074  0.09882126  0.09114277  1
  Nb  Nb117  1  0.90557230  0.30236245  0.50329958  1
  Nb  Nb118  1  0.69785507  0.89715914  0.89793095  1
  Nb  Nb119  1  0.89440873  0.09794366  0.70701300  1
  Nb  Nb120  1  0.09715589  0.29898743  0.49847182  1
  Nb  Nb121  1  0.50584615  0.89873823  0.69503146  1
  Nb  Nb122  1  0.30259967  0.69309269  0.50287634  1
  Nb  Nb123  1  0.30084062  0.50264672  0.50103169  1
  Nb  Nb124  1  0.09796801  0.49644843  0.90135999  1
  Nb  Nb125  1  0.19110915  0.20095810  -0.00187186  1
  Nb  Nb126  1  0.59372533  0.39755422  0.59190595  1
  Nb  Nb127  1  0.40441975  -0.00773178  0.60491713  1
  Nb  Nb128  1  0.39881588  0.40209257  0.40395400  1
  Nb  Nb129  1  0.79642633  0.40339000  0.80623216  1
  Nb  Nb130  1  0.19837414  0.59315846  0.00175918  1
  Nb  Nb131  1  0.00199581  0.19781650  -0.00420559  1
  Nb  Nb132  1  0.20390866  0.00284511  0.40056159  1
  Nb  Nb133  1  0.60521331  0.80577480  0.80177938  1
  Nb  Nb134  1  0.80419482  0.20241418  -0.00543413  1
  Nb  Nb135  1  0.40009174  0.40465417  0.59590001  1
  Nb  Nb136  1  0.60111802  -0.00296811  0.20378961  1
  Nb  Nb137  1  0.79757872  0.00232988  0.60456945  1
  Nb  Nb138  1  -0.00310567  0.39679437  0.40584896  1
  Nb  Nb139  1  0.19578167  0.19736395  0.40242371  1
  Nb  Nb140  1  0.59037442  0.39150666  0.40624374  1
  Nb  Nb141  1  0.40282963  0.79924661  0.60133451  1
  Nb  Nb142  1  0.80166882  0.59497598  0.19881186  1
  Nb  Nb143  1  0.39353739  0.00044537  0.40583783  1
  Nb  Nb144  1  0.01064788  0.79783793  0.40226725  1
  Nb  Nb145  1  0.19782976  0.40373079  0.81065347  1
  Nb  Nb146  1  0.79866807  0.60075451  0.80838568  1
  Nb  Nb147  1  0.19920454  0.80117607  0.40180361  1
  Nb  Nb148  1  0.80226671  0.40829143  0.20303645  1
  Nb  Nb149  1  0.60711452  0.20056548  0.40334643  1
  Pd  Pd150  1  0.19314139  0.40484166  0.20371458  1
  Pd  Pd151  1  0.59386981  -0.00387954  0.80204979  1
  Pd  Pd152  1  0.20028352  0.20642213  0.80705958  1
  Pd  Pd153  1  0.79503145  0.00108873  0.00504705  1
  Pd  Pd154  1  0.39173901  0.40092560  0.79360428  1
  Pd  Pd155  1  -0.00253985  0.19883684  0.19221025  1
  Pd  Pd156  1  0.00017438  0.58595029  0.59028335  1
  Pd  Pd157  1  0.20636217  0.79746035  0.59718860  1
  Pd  Pd158  1  0.40906087  0.00432351  0.79707539  1
  Pd  Pd159  1  0.79476742  0.79710839  0.79839725  1
  Pd  Pd160  1  0.00135950  0.80957564  0.79706696  1
  Pd  Pd161  1  -0.00478400  0.40951299  0.21092153  1
  Pd  Pd162  1  0.80201373  0.80538866  0.00738218  1
  Pd  Pd163  1  0.00742637  0.60949762  0.00133815  1
  Pd  Pd164  1  0.39270368  0.19937381  0.00215105  1
  Pd  Pd165  1  0.79590965  0.19005383  0.60462372  1
  Pd  Pd166  1  0.60254598  0.60424498  0.60000075  1
  Pd  Pd167  1  0.59003553  0.40081538  0.00790191  1
  Pd  Pd168  1  0.00280689  0.40800400  0.59240632  1
  Pd  Pd169  1  0.60001584  0.79571456  0.39306973  1
  Pd  Pd170  1  0.39368355  0.59840302  0.19243179  1
  Pd  Pd171  1  0.19892776  0.79099975  0.00187417  1
  Pd  Pd172  1  0.20529129  0.59295189  0.80978991  1
  Pd  Pd173  1  0.19201354  0.39449649  -0.00215497  1
  Pd  Pd174  1  0.40000059  0.19503293  0.80300476  1
  Pd  Pd175  1  0.79514708  0.59835445  0.60758947  1
  Pd  Pd176  1  -0.00523659  0.80406284  0.59535203  1
  Pd  Pd177  1  0.00228191  -0.01104614  0.79524000  1
  Pd  Pd178  1  0.80217739  0.39893131  0.00259876  1
  Pd  Pd179  1  0.00125066  0.19629682  0.60778743  1
  Pd  Pd180  1  0.80104030  0.20211808  0.39778194  1
  Pd  Pd181  1  -0.01362418  -0.00116385  0.60739159  1
  Pd  Pd182  1  0.79987366  0.59686312  0.00341798  1
  Pd  Pd183  1  0.41439985  0.79958686  0.79903809  1
  Pd  Pd184  1  0.80981555  0.79838410  0.39655121  1
  Pd  Pd185  1  0.80489248  0.80563284  0.59474456  1
  Pd  Pd186  1  0.39333669  0.19626471  0.39829102  1
  Pd  Pd187  1  0.80115681  0.79436650  0.19410351  1
  Pd  Pd188  1  0.00459328  -0.00668613  0.38863023  1
  Pd  Pd189  1  0.00878247  0.39338480  0.00444967  1
  Pd  Pd190  1  0.60805053  0.59842851  0.19813944  1
  Pd  Pd191  1  0.60462895  0.61281066  0.80560086  1
  Pd  Pd192  1  0.39509401  0.59577334  0.39253436  1
  Pd  Pd193  1  0.40510214  0.40290698  0.20000853  1
  Pd  Pd194  1  0.58891174  0.00828641  0.39180997  1
  Pd  Pd195  1  0.00235412  0.20296501  0.39327576  1
  Pd  Pd196  1  0.80626799  -0.00017064  0.40433364  1
  Pd  Pd197  1  0.19892552  -0.00900557  0.80755478  1
  Pd  Pd198  1  0.59334076  0.78785752  0.60359302  1
  Pd  Pd199  1  0.19668134  0.00608253  0.20257421  1
  Rh  Rh200  1  0.19620962  0.39285341  0.38852710  1
  Rh  Rh201  1  0.39790148  0.59912214  0.80689665  1
  Rh  Rh202  1  0.18980335  0.19496105  0.59795917  1
  Rh  Rh203  1  0.60271008  -0.00236642  0.00674779  1
  Rh  Rh204  1  0.19830529  0.19645496  0.19525907  1
  Rh  Rh205  1  0.00309972  0.39691580  0.79279147  1
  Rh  Rh206  1  0.39576381  0.60430281  0.00877871  1
  Rh  Rh207  1  0.59513989  0.80088145  -0.00774214  1
  Rh  Rh208  1  0.60083620  0.60900195  0.39385935  1
  Rh  Rh209  1  0.20860894  0.60245052  0.19129007  1
  Rh  Rh210  1  0.39201968  0.80623864  0.40713224  1
  Rh  Rh211  1  0.79359957  -0.00810860  0.19379551  1
  Rh  Rh212  1  0.79481636  -0.00628224  0.79310143  1
  Rh  Rh213  1  -0.00006802  0.59436298  0.40610992  1
  Rh  Rh214  1  0.00568755  0.79763739  0.00263172  1
  Rh  Rh215  1  0.79840840  0.61463774  0.38989388  1
  Rh  Rh216  1  0.79451143  0.20733941  0.80451257  1
  Rh  Rh217  1  0.21023082  0.00305804  0.59996597  1
  Rh  Rh218  1  0.19746375  0.00534183  -0.00740255  1
  Rh  Rh219  1  0.00339963  0.19726703  0.79292011  1
  Rh  Rh220  1  0.39658736  0.60363768  0.60598763  1
  Rh  Rh221  1  0.39838965  0.19865917  0.18846239  1
  Rh  Rh222  1  0.60325831  0.00720203  0.60282130  1
  Rh  Rh223  1  -0.00597471  0.60538469  0.80441492  1
  Rh  Rh224  1  0.60145587  0.40636039  0.20214245  1
  Rh  Rh225  1  0.20550892  0.41044280  0.61709610  1
  Rh  Rh226  1  0.20017131  0.79826083  0.20049507  1
  Rh  Rh227  1  0.00352667  0.00123674  0.19987122  1
  Rh  Rh228  1  0.59293009  0.60236854  -0.00024102  1
  Rh  Rh229  1  0.60252500  0.20030975  0.81042897  1
  Rh  Rh230  1  0.00594091  0.79814297  0.20141256  1
  Rh  Rh231  1  0.41066337  -0.00454736  0.20435512  1
  Rh  Rh232  1  0.59678311  0.18573089  0.20545680  1
  Rh  Rh233  1  0.00373069  0.00550681  -0.00690642  1
  Rh  Rh234  1  0.19162792  0.80700458  0.80375080  1
  Rh  Rh235  1  0.60541350  0.39555881  0.79322846  1
  Rh  Rh236  1  0.40250113  0.79819003  0.00391580  1
  Rh  Rh237  1  0.59698733  0.80657809  0.20036631  1
  Rh  Rh238  1  0.60759585  0.20390030  0.59342903  1
  Rh  Rh239  1  0.40738088  0.39362884  0.00772777  1
  Rh  Rh240  1  0.20389126  0.59746862  0.60431298  1
  Rh  Rh241  1  0.79076835  0.40326367  0.61410663  1
  Rh  Rh242  1  -0.00711065  0.59827553  0.19828376  1
  Rh  Rh243  1  0.80861322  0.20642574  0.18802152  1
  Rh  Rh244  1  0.60881110  0.19685486  -0.00315195  1
  Rh  Rh245  1  0.80934941  0.38885151  0.39066173  1
  Rh  Rh246  1  0.39691120  -0.00191529  -0.00158756  1
  Rh  Rh247  1  0.40175219  0.80444629  0.19106213  1
  Rh  Rh248  1  0.40032246  0.19564083  0.61633710  1
  Rh  Rh249  1  0.20966998  0.60769904  0.39744444  1
