# generated using pymatgen
data_ZrScNbPdRh
_symmetry_space_group_name_H-M   'P 1'
_cell_length_a   16.56080751
_cell_length_b   16.56144563
_cell_length_c   16.56713505
_cell_angle_alpha   89.97583779
_cell_angle_beta   90.03608906
_cell_angle_gamma   90.01804831
_symmetry_Int_Tables_number   1
_chemical_formula_structural   ZrScNbPdRh
_chemical_formula_sum   'Zr50 Sc50 Nb50 Pd50 Rh50'
_cell_volume   4543.88172622
_cell_formula_units_Z   50
loop_
 _symmetry_equiv_pos_site_id
 _symmetry_equiv_pos_as_xyz
  1  'x, y, z'
loop_
 _atom_site_type_symbol
 _atom_site_label
 _atom_site_symmetry_multiplicity
 _atom_site_fract_x
 _atom_site_fract_y
 _atom_site_fract_z
 _atom_site_occupancy
  Zr  Zr0  1  0.90121202  0.30127519  0.08710114  1
  Zr  Zr1  1  0.29979098  0.89930667  0.90589950  1
  Zr  Zr2  1  0.50835682  0.70361781  0.49945916  1
  Zr  Zr3  1  0.89477361  0.10383352  0.49987736  1
  Zr  Zr4  1  0.90369629  0.10060527  0.70263082  1
  Zr  Zr5  1  0.30182242  0.49838775  0.49253725  1
  Zr  Zr6  1  0.09986059  0.69975563  0.10176541  1
  Zr  Zr7  1  0.69909780  0.50451541  0.50142772  1
  Zr  Zr8  1  0.71107959  0.30340522  0.70153285  1
  Zr  Zr9  1  0.10369311  0.30205652  0.10327977  1
  Zr  Zr10  1  0.90485930  0.89726286  0.50810260  1
  Zr  Zr11  1  0.89931493  0.89732841  0.30434464  1
  Zr  Zr12  1  0.30103849  0.29892131  0.09863574  1
  Zr  Zr13  1  0.89533379  0.10077949  0.30177147  1
  Zr  Zr14  1  0.49852584  0.29134165  0.49929340  1
  Zr  Zr15  1  0.30227675  0.90727890  0.50616563  1
  Zr  Zr16  1  0.70382251  0.49699113  0.69256685  1
  Zr  Zr17  1  0.91261004  0.70095961  0.30555880  1
  Zr  Zr18  1  0.50567815  0.10304945  0.31002946  1
  Zr  Zr19  1  0.30633315  0.50957208  0.29592417  1
  Zr  Zr20  1  0.70173491  0.90169672  0.29180492  1
  Zr  Zr21  1  0.69725555  0.91142233  0.89710208  1
  Zr  Zr22  1  0.50848874  0.09370063  0.90167190  1
  Zr  Zr23  1  0.49910624  0.50327025  0.30099964  1
  Zr  Zr24  1  0.30063980  0.30273838  0.90949169  1
  Zr  Zr25  1  0.90363675  0.70644957  0.09546341  1
  Zr  Zr26  1  0.69816934  0.70097473  0.69675489  1
  Zr  Zr27  1  0.09367200  0.90307642  0.69247639  1
  Zr  Zr28  1  0.70291770  0.88910840  0.50607606  1
  Zr  Zr29  1  0.69601258  0.09916288  0.29911500  1
  Zr  Zr30  1  0.29857317  0.91945159  0.30294506  1
  Zr  Zr31  1  0.09687326  0.50453178  0.50337156  1
  Zr  Zr32  1  0.28928674  0.30118578  0.30661129  1
  Zr  Zr33  1  0.70190995  0.69608310  0.50067550  1
  Zr  Zr34  1  0.50246361  0.09615137  0.10486241  1
  Zr  Zr35  1  0.10681337  0.09937846  0.70771722  1
  Zr  Zr36  1  0.89959446  0.09787105  0.09179836  1
  Zr  Zr37  1  0.70195561  0.29901941  0.89483014  1
  Zr  Zr38  1  0.10646496  0.70398406  0.69328458  1
  Zr  Zr39  1  0.10079968  0.89524958  0.09147859  1
  Zr  Zr40  1  0.70141507  0.70525921  0.10092812  1
  Zr  Zr41  1  0.88959723  0.49605555  0.09800031  1
  Zr  Zr42  1  0.09680191  0.70848409  0.90813095  1
  Zr  Zr43  1  0.69767945  0.29650844  0.29713414  1
  Zr  Zr44  1  0.69280102  0.49293336  0.09858350  1
  Zr  Zr45  1  0.89314006  0.90728845  0.89689367  1
  Zr  Zr46  1  0.29652199  0.29043163  0.69867743  1
  Zr  Zr47  1  0.09983300  0.50181953  0.29965378  1
  Zr  Zr48  1  0.50022263  0.70087538  0.89174110  1
  Zr  Zr49  1  0.89989158  0.68987616  0.90152328  1
  Sc  Sc50  1  0.50447885  0.69966307  0.10017027  1
  Sc  Sc51  1  0.29901852  0.09242571  0.10025973  1
  Sc  Sc52  1  0.69390939  0.69850994  0.89504367  1
  Sc  Sc53  1  0.30170716  0.29573937  0.50007629  1
  Sc  Sc54  1  0.09452745  0.29311712  0.69533055  1
  Sc  Sc55  1  0.89932398  0.29362535  0.51061854  1
  Sc  Sc56  1  0.30155245  0.50405276  0.68620215  1
  Sc  Sc57  1  0.29720567  0.68987974  0.10368956  1
  Sc  Sc58  1  0.51072584  0.49873749  0.69462554  1
  Sc  Sc59  1  0.50042400  0.91386691  0.30197428  1
  Sc  Sc60  1  0.69345058  0.10291379  0.50359553  1
  Sc  Sc61  1  0.50271473  0.09743708  0.69121981  1
  Sc  Sc62  1  0.11008874  0.10098185  0.30850717  1
  Sc  Sc63  1  0.09859110  0.10202166  0.08700653  1
  Sc  Sc64  1  0.29299016  0.09819127  0.69203505  1
  Sc  Sc65  1  0.49909418  0.70648209  0.69821244  1
  Sc  Sc66  1  0.50202384  0.90218619  0.09521153  1
  Sc  Sc67  1  0.30198855  0.09984083  0.50280736  1
  Sc  Sc68  1  0.88895962  0.89867255  0.09778852  1
  Sc  Sc69  1  0.69870978  0.50121119  0.89195764  1
  Sc  Sc70  1  0.09030639  0.70554201  0.50283599  1
  Sc  Sc71  1  0.89755002  0.29718337  0.30463862  1
  Sc  Sc72  1  0.70039021  0.08689439  0.10008475  1
  Sc  Sc73  1  0.10027099  0.09926039  0.50772446  1
  Sc  Sc74  1  0.09935371  0.90207404  0.50417897  1
  Sc  Sc75  1  0.49781072  0.89802509  0.69424469  1
  Sc  Sc76  1  0.50022780  0.68942885  0.30132613  1
  Sc  Sc77  1  0.50053056  0.50157455  0.50126869  1
  Sc  Sc78  1  0.70449547  0.50366198  0.29068916  1
  Sc  Sc79  1  0.09880471  0.50479864  0.90766108  1
  Sc  Sc80  1  0.50084624  0.90545350  0.50672187  1
  Sc  Sc81  1  0.51180136  0.49110390  0.90507238  1
  Sc  Sc82  1  0.30045308  0.69774838  0.51705163  1
  Sc  Sc83  1  0.09973123  0.49711884  0.10307313  1
  Sc  Sc84  1  0.70235495  0.70141608  0.30959168  1
  Sc  Sc85  1  0.09011065  0.50503492  0.69335886  1
  Sc  Sc86  1  0.70584590  0.29466998  0.50834794  1
  Sc  Sc87  1  0.29932337  0.71210236  0.89996677  1
  Sc  Sc88  1  0.50503398  0.29939177  0.69391308  1
  Sc  Sc89  1  0.89863162  0.50673132  0.50800676  1
  Sc  Sc90  1  0.10074289  0.29155595  0.90358600  1
  Sc  Sc91  1  0.10346201  0.90417547  0.89791880  1
  Sc  Sc92  1  0.50362422  0.30585911  0.09053138  1
  Sc  Sc93  1  0.49797423  0.89367771  0.90207813  1
  Sc  Sc94  1  0.29492633  0.49463114  0.09455857  1
  Sc  Sc95  1  0.89481031  0.70175384  0.49440569  1
  Sc  Sc96  1  0.29802940  0.89255605  0.69849973  1
  Sc  Sc97  1  0.69857690  0.09637783  0.70410133  1
  Sc  Sc98  1  0.09717841  0.90488878  0.30938609  1
  Sc  Sc99  1  0.89945705  0.50697525  0.29718766  1
  Nb  Nb100  1  0.71298060  0.90011099  0.69881304  1
  Nb  Nb101  1  0.70161326  0.90041055  0.10100668  1
  Nb  Nb102  1  0.10005262  0.09730184  0.89264339  1
  Nb  Nb103  1  0.70549557  0.30375298  0.10017821  1
  Nb  Nb104  1  0.90183637  0.10880719  0.90205716  1
  Nb  Nb105  1  0.30616722  0.09817665  0.29687139  1
  Nb  Nb106  1  0.30338402  0.69702934  0.29937399  1
  Nb  Nb107  1  0.89141527  0.89827847  0.69869374  1
  Nb  Nb108  1  0.89503332  0.29713981  0.89292440  1
  Nb  Nb109  1  0.49648021  0.29648467  0.90206665  1
  Nb  Nb110  1  0.89883333  0.49677245  0.70190824  1
  Nb  Nb111  1  0.89885639  0.69924068  0.70415461  1
  Nb  Nb112  1  0.70347599  0.10003413  0.89605033  1
  Nb  Nb113  1  0.30135919  0.70054055  0.70386943  1
  Nb  Nb114  1  0.29177633  0.10023763  0.89073439  1
  Nb  Nb115  1  0.10166590  0.30519319  0.49499927  1
  Nb  Nb116  1  0.90146148  0.49764297  0.89443088  1
  Nb  Nb117  1  0.50068156  0.29561643  0.30077462  1
  Nb  Nb118  1  0.49894140  0.09641630  0.50509858  1
  Nb  Nb119  1  0.89638999  0.30637930  0.70175596  1
  Nb  Nb120  1  0.49770940  0.50001218  0.10134294  1
  Nb  Nb121  1  0.10101302  0.30256042  0.30344270  1
  Nb  Nb122  1  0.30008526  0.49599861  0.89784468  1
  Nb  Nb123  1  0.10319519  0.69881745  0.29874437  1
  Nb  Nb124  1  0.30118584  0.89890665  0.10650779  1
  Nb  Nb125  1  0.20031087  0.60815580  0.39805716  1
  Nb  Nb126  1  0.60653210  0.20056445  -0.00447986  1
  Nb  Nb127  1  0.20682580  0.79517257  0.39602191  1
  Nb  Nb128  1  0.19526350  0.39844905  0.59813933  1
  Nb  Nb129  1  0.40070899  0.20320082  0.20627854  1
  Nb  Nb130  1  0.40221317  0.59437567  -0.00758157  1
  Nb  Nb131  1  0.00093278  0.20020258  0.20077200  1
  Nb  Nb132  1  0.20580130  0.60016717  0.79836013  1
  Nb  Nb133  1  0.39248551  0.80336479  0.20634740  1
  Nb  Nb134  1  0.20428706  0.80110662  0.20736125  1
  Nb  Nb135  1  0.00047718  0.39775983  0.40328218  1
  Nb  Nb136  1  -0.00582208  0.40029449  0.80006392  1
  Nb  Nb137  1  0.39358959  0.79999311  0.39678728  1
  Nb  Nb138  1  0.39534252  0.00482051  0.80297554  1
  Nb  Nb139  1  0.39645766  0.39862711  0.80253449  1
  Nb  Nb140  1  0.60269370  0.39508655  0.39707279  1
  Nb  Nb141  1  0.19889915  0.40503187  0.79527008  1
  Nb  Nb142  1  0.40060593  0.19776723  0.80630396  1
  Nb  Nb143  1  0.79996496  0.40037421  0.40184102  1
  Nb  Nb144  1  -0.00855457  0.79951463  0.79461099  1
  Nb  Nb145  1  0.79784548  -0.00390776  0.40326744  1
  Nb  Nb146  1  0.80097075  0.20216502  0.19218248  1
  Nb  Nb147  1  0.40382205  0.39505842  0.20248557  1
  Nb  Nb148  1  -0.00182966  0.00470326  0.19896717  1
  Nb  Nb149  1  0.39538520  0.59418673  0.80269037  1
  Pd  Pd150  1  0.60610447  0.80337781  -0.00172507  1
  Pd  Pd151  1  0.79178281  0.59675722  -0.00131792  1
  Pd  Pd152  1  0.00310773  0.19838615  0.60019982  1
  Pd  Pd153  1  -0.00236517  -0.00426761  0.80041105  1
  Pd  Pd154  1  0.00394698  0.39891493  -0.00904133  1
  Pd  Pd155  1  0.20204515  0.00281775  -0.00203168  1
  Pd  Pd156  1  0.39687203  0.00411889  -0.00415420  1
  Pd  Pd157  1  0.19990250  0.19469506  -0.00170702  1
  Pd  Pd158  1  0.59301427  0.39859647  0.20281566  1
  Pd  Pd159  1  0.19348069  0.80191471  0.79910485  1
  Pd  Pd160  1  0.79323881  0.79963894  -0.01073119  1
  Pd  Pd161  1  0.20699950  0.60264949  -0.00660708  1
  Pd  Pd162  1  0.00710488  0.81112417  0.20207782  1
  Pd  Pd163  1  -0.00238639  0.00389268  0.40150016  1
  Pd  Pd164  1  0.40471626  0.18877097  0.00209313  1
  Pd  Pd165  1  0.18649104  0.00047536  0.19626234  1
  Pd  Pd166  1  0.00348732  0.20441037  0.39798492  1
  Pd  Pd167  1  0.58915212  0.80183532  0.20655728  1
  Pd  Pd168  1  0.39603904  0.79007456  0.01202695  1
  Pd  Pd169  1  0.39476028  0.19389329  0.39909216  1
  Pd  Pd170  1  0.20253367  0.19248646  0.40691297  1
  Pd  Pd171  1  -0.00783034  0.39295503  0.20765563  1
  Pd  Pd172  1  -0.00130346  0.59243643  0.00873123  1
  Pd  Pd173  1  -0.00103655  -0.00445411  -0.00068006  1
  Pd  Pd174  1  0.60324586  0.60504338  0.20081038  1
  Pd  Pd175  1  0.60380272  0.20046201  0.60400631  1
  Pd  Pd176  1  0.00051065  0.20658386  0.80243743  1
  Pd  Pd177  1  0.79090552  0.19442396  0.00208853  1
  Pd  Pd178  1  0.20739628  0.40533791  0.20124371  1
  Pd  Pd179  1  0.59466497  0.20163789  0.79965337  1
  Pd  Pd180  1  -0.00266428  0.59740307  0.19185596  1
  Pd  Pd181  1  0.19906376  0.19143817  0.19996931  1
  Pd  Pd182  1  0.60116208  0.80931007  0.79322515  1
  Pd  Pd183  1  0.80141194  0.79215887  0.20514260  1
  Pd  Pd184  1  0.79468452  0.40553307  -0.01148985  1
  Pd  Pd185  1  0.79984186  0.79575001  0.80715174  1
  Pd  Pd186  1  0.79578334  0.00677856  0.59604403  1
  Pd  Pd187  1  0.79548221  0.59664439  0.79509369  1
  Pd  Pd188  1  0.39739062  0.39506977  0.60433123  1
  Pd  Pd189  1  0.59777735  0.59982535  -0.00028411  1
  Pd  Pd190  1  0.80143403  0.61052509  0.20048183  1
  Pd  Pd191  1  -0.00929044  0.60971891  0.59981129  1
  Pd  Pd192  1  0.60708726  -0.00587415  0.41174379  1
  Pd  Pd193  1  0.00997786  0.60096682  0.79946386  1
  Pd  Pd194  1  0.59061689  0.80602324  0.39281611  1
  Pd  Pd195  1  0.40976865  0.60189640  0.60413616  1
  Pd  Pd196  1  0.40778266  0.39655132  0.39637733  1
  Pd  Pd197  1  0.59300298  -0.00770870  0.78998310  1
  Pd  Pd198  1  0.59428221  0.39583975  0.79673303  1
  Pd  Pd199  1  0.60069464  0.20375691  0.18630399  1
  Rh  Rh200  1  0.60284290  0.20393364  0.40996619  1
  Rh  Rh201  1  0.79542448  0.00327041  -0.00571024  1
  Rh  Rh202  1  0.20075867  0.00281824  0.40799923  1
  Rh  Rh203  1  0.60500176  -0.00069610  0.00255553  1
  Rh  Rh204  1  0.40033401  0.80388264  0.79679193  1
  Rh  Rh205  1  0.80539197  0.40483737  0.80290747  1
  Rh  Rh206  1  0.80643542  0.39161311  0.20505980  1
  Rh  Rh207  1  0.40067191  0.79868026  0.59482550  1
  Rh  Rh208  1  0.20500822  -0.00695930  0.79795236  1
  Rh  Rh209  1  0.59768693  -0.00885741  0.19486773  1
  Rh  Rh210  1  0.60569849  0.39333337  -0.00223422  1
  Rh  Rh211  1  0.40399037  0.00411881  0.40829046  1
  Rh  Rh212  1  0.60367773  0.80424888  0.60637259  1
  Rh  Rh213  1  0.40272923  0.59927443  0.18568042  1
  Rh  Rh214  1  0.00270523  0.20167078  -0.00435235  1
  Rh  Rh215  1  -0.00907058  0.79586979  0.60703828  1
  Rh  Rh216  1  0.20164595  0.20585420  0.80371971  1
  Rh  Rh217  1  0.79126269  0.19878017  0.39675674  1
  Rh  Rh218  1  0.19046866  0.39994490  -0.00452031  1
  Rh  Rh219  1  0.60354989  0.59103936  0.39766937  1
  Rh  Rh220  1  0.19717406  0.59932037  0.20269226  1
  Rh  Rh221  1  0.39940356  0.00379735  0.60797921  1
  Rh  Rh222  1  0.59322580  0.59889696  0.79367384  1
  Rh  Rh223  1  0.80500170  0.79032172  0.60183053  1
  Rh  Rh224  1  -0.01071792  0.80825853  -0.01197351  1
  Rh  Rh225  1  -0.00282458  0.00561920  0.60261326  1
  Rh  Rh226  1  0.19506799  0.20640313  0.59265426  1
  Rh  Rh227  1  0.40270698  0.19520391  0.60420903  1
  Rh  Rh228  1  0.19244262  0.41028826  0.40467302  1
  Rh  Rh229  1  0.00028386  0.39477695  0.60129205  1
  Rh  Rh230  1  0.00764654  0.80074487  0.40267711  1
  Rh  Rh231  1  0.80337322  0.19359143  0.79745365  1
  Rh  Rh232  1  0.20301749  0.80215032  0.59378508  1
  Rh  Rh233  1  0.80518635  0.00205138  0.20362646  1
  Rh  Rh234  1  0.40615169  0.40941504  0.00204589  1
  Rh  Rh235  1  0.59792885  0.60394474  0.60278418  1
  Rh  Rh236  1  0.80546127  0.40237030  0.59329985  1
  Rh  Rh237  1  0.80073542  0.80403492  0.40005402  1
  Rh  Rh238  1  0.80377610  0.60420747  0.60572326  1
  Rh  Rh239  1  0.60178599  0.39453559  0.58892932  1
  Rh  Rh240  1  0.19886980  0.59752115  0.59898323  1
  Rh  Rh241  1  0.80320714  0.00974491  0.79990611  1
  Rh  Rh242  1  0.40638085  0.00340453  0.20020212  1
  Rh  Rh243  1  0.20994529  0.79816357  0.01173854  1
  Rh  Rh244  1  0.80159137  0.59337335  0.39776191  1
  Rh  Rh245  1  0.00408916  0.59677126  0.40167233  1
  Rh  Rh246  1  0.60556592  -0.00483736  0.60210929  1
  Rh  Rh247  1  0.39621547  0.61224196  0.41469430  1
  Rh  Rh248  1  0.19804487  -0.00170843  0.60291708  1
  Rh  Rh249  1  0.79948999  0.19453910  0.61185390  1
