# generated using pymatgen
data_ZrScNbPdRh
_symmetry_space_group_name_H-M   'P 1'
_cell_length_a   16.56127123
_cell_length_b   16.56022605
_cell_length_c   16.56485067
_cell_angle_alpha   89.97617259
_cell_angle_beta   90.01430293
_cell_angle_gamma   89.99635584
_symmetry_Int_Tables_number   1
_chemical_formula_structural   ZrScNbPdRh
_chemical_formula_sum   'Zr50 Sc50 Nb50 Pd50 Rh50'
_cell_volume   4543.04882008
_cell_formula_units_Z   50
loop_
 _symmetry_equiv_pos_site_id
 _symmetry_equiv_pos_as_xyz
  1  'x, y, z'
loop_
 _atom_site_type_symbol
 _atom_site_label
 _atom_site_symmetry_multiplicity
 _atom_site_fract_x
 _atom_site_fract_y
 _atom_site_fract_z
 _atom_site_occupancy
  Zr  Zr0  1  0.29626872  0.70236889  0.29787331  1
  Zr  Zr1  1  0.89888554  0.90200165  0.90401132  1
  Zr  Zr2  1  0.10583949  0.30745199  0.29875872  1
  Zr  Zr3  1  0.89684604  0.89953277  0.69620465  1
  Zr  Zr4  1  0.71353311  0.49954781  0.09548127  1
  Zr  Zr5  1  0.30771072  0.91012059  0.50303963  1
  Zr  Zr6  1  0.10252807  0.10744602  0.29895464  1
  Zr  Zr7  1  0.90527838  0.29822538  0.29356940  1
  Zr  Zr8  1  0.50290039  0.10487521  0.10215720  1
  Zr  Zr9  1  0.49348621  0.69980676  0.10361152  1
  Zr  Zr10  1  0.09977427  0.69668900  0.09998502  1
  Zr  Zr11  1  0.69918873  0.29984183  0.10365677  1
  Zr  Zr12  1  0.09684051  0.49265391  0.70301330  1
  Zr  Zr13  1  0.91151751  0.10629809  0.69897395  1
  Zr  Zr14  1  0.29823853  0.69880274  0.10324242  1
  Zr  Zr15  1  0.29825625  0.69346132  0.70275721  1
  Zr  Zr16  1  0.09556857  0.50255749  0.30256887  1
  Zr  Zr17  1  0.29573459  0.10445598  0.91200623  1
  Zr  Zr18  1  0.30772997  0.49146801  0.51053448  1
  Zr  Zr19  1  0.49769347  0.89371135  0.10429453  1
  Zr  Zr20  1  0.49839859  0.89644957  0.89782879  1
  Zr  Zr21  1  0.69546026  0.10115081  0.49967291  1
  Zr  Zr22  1  0.69869306  0.89291718  0.29949193  1
  Zr  Zr23  1  0.29541974  0.10123797  0.30101136  1
  Zr  Zr24  1  0.09202022  0.28202391  0.70012209  1
  Zr  Zr25  1  0.09745325  0.10318922  0.51526417  1
  Zr  Zr26  1  0.30226003  0.10365164  0.10649348  1
  Zr  Zr27  1  0.50191371  0.89347070  0.30027283  1
  Zr  Zr28  1  0.70653988  0.89881608  0.89593176  1
  Zr  Zr29  1  0.89901023  0.69783580  0.69939865  1
  Zr  Zr30  1  0.30312018  0.49850274  0.70869994  1
  Zr  Zr31  1  0.29792763  0.89744489  0.69721630  1
  Zr  Zr32  1  0.09425023  0.50272140  0.90517886  1
  Zr  Zr33  1  0.70519210  0.29849372  0.50064544  1
  Zr  Zr34  1  0.30066846  0.50529184  0.09720681  1
  Zr  Zr35  1  0.30043371  0.29367504  0.30404170  1
  Zr  Zr36  1  0.70290675  0.49182305  0.70349962  1
  Zr  Zr37  1  0.09225306  0.31192163  0.11388126  1
  Zr  Zr38  1  0.48618393  0.49839675  0.89797475  1
  Zr  Zr39  1  0.70684463  0.09526882  0.89965090  1
  Zr  Zr40  1  0.10016924  0.69944885  0.48344045  1
  Zr  Zr41  1  0.90180979  0.50578319  0.69285516  1
  Zr  Zr42  1  0.50239683  0.69721232  0.69758432  1
  Zr  Zr43  1  0.89531513  0.30654849  0.68939171  1
  Zr  Zr44  1  0.50199463  0.50609960  0.49872785  1
  Zr  Zr45  1  0.69984430  0.30435827  0.89263253  1
  Zr  Zr46  1  0.10310879  0.30031372  0.89474476  1
  Zr  Zr47  1  0.70935969  0.69883013  0.10081530  1
  Zr  Zr48  1  0.69514515  0.90013965  0.50476715  1
  Zr  Zr49  1  0.10205411  0.31255682  0.49961038  1
  Sc  Sc50  1  0.70053723  0.29486151  0.69983509  1
  Sc  Sc51  1  0.89365413  0.09814917  0.49486128  1
  Sc  Sc52  1  0.48955568  0.30040826  0.89673405  1
  Sc  Sc53  1  0.09275169  0.90393405  0.50083933  1
  Sc  Sc54  1  0.49417149  0.09898686  0.51289410  1
  Sc  Sc55  1  0.89977139  0.89545002  0.09434767  1
  Sc  Sc56  1  0.70433499  0.69733999  0.29837921  1
  Sc  Sc57  1  0.50433715  0.89525829  0.68687727  1
  Sc  Sc58  1  0.49128498  0.50450157  0.09230164  1
  Sc  Sc59  1  0.89967022  0.69820619  0.09873699  1
  Sc  Sc60  1  0.49454681  0.11028661  0.90335842  1
  Sc  Sc61  1  0.89532899  0.10203777  0.30345370  1
  Sc  Sc62  1  0.90381567  0.29984105  0.89346406  1
  Sc  Sc63  1  0.30272234  0.50693014  0.29798946  1
  Sc  Sc64  1  0.48892978  0.49984028  0.69676480  1
  Sc  Sc65  1  0.29743463  0.30244649  0.70151577  1
  Sc  Sc66  1  0.89972568  0.50231675  0.90274729  1
  Sc  Sc67  1  0.69884035  0.10284002  0.69491106  1
  Sc  Sc68  1  0.10997203  0.89312512  0.90969288  1
  Sc  Sc69  1  0.50662214  0.49463536  0.30775258  1
  Sc  Sc70  1  0.89908976  0.69601406  0.50618926  1
  Sc  Sc71  1  0.10291357  0.10539515  0.90278120  1
  Sc  Sc72  1  0.50527961  0.70158798  0.29641514  1
  Sc  Sc73  1  0.70736144  0.69545565  0.90248755  1
  Sc  Sc74  1  0.48550793  0.10644723  0.29478759  1
  Sc  Sc75  1  0.90021685  0.90177265  0.50330949  1
  Sc  Sc76  1  0.29950697  0.10017755  0.49738237  1
  Sc  Sc77  1  0.10226844  0.69920485  0.90606839  1
  Sc  Sc78  1  0.50586075  0.29275452  0.10368044  1
  Sc  Sc79  1  0.70210399  0.50086727  0.48589921  1
  Sc  Sc80  1  0.29944622  0.90093740  0.09267672  1
  Sc  Sc81  1  0.70995048  0.10522945  0.30337461  1
  Sc  Sc82  1  0.29856354  0.90874218  0.30126864  1
  Sc  Sc83  1  0.89774515  0.90452508  0.30234120  1
  Sc  Sc84  1  0.90264374  0.69881538  0.29398179  1
  Sc  Sc85  1  0.30379187  0.69187805  0.49541764  1
  Sc  Sc86  1  0.71165657  0.89390809  0.10101612  1
  Sc  Sc87  1  0.11000221  0.10142837  0.09976062  1
  Sc  Sc88  1  0.89262212  0.50429266  0.30243779  1
  Sc  Sc89  1  0.69559968  0.30993213  0.29587464  1
  Sc  Sc90  1  0.09908264  0.89462686  0.09537339  1
  Sc  Sc91  1  0.69106558  0.69407822  0.49863156  1
  Sc  Sc92  1  0.70294226  0.70306195  0.69697620  1
  Sc  Sc93  1  0.70150750  0.89607767  0.69919213  1
  Sc  Sc94  1  0.29954139  0.10427980  0.68330773  1
  Sc  Sc95  1  0.89845790  0.09076023  0.90210484  1
  Sc  Sc96  1  0.09832462  0.69468642  0.70816737  1
  Sc  Sc97  1  0.90446006  0.69595995  0.90443551  1
  Sc  Sc98  1  0.49680129  0.28929315  0.69909202  1
  Sc  Sc99  1  0.09838141  0.89289365  0.30423223  1
  Nb  Nb100  1  0.09469536  0.49915669  0.49968898  1
  Nb  Nb101  1  0.90238914  0.30226869  0.10191873  1
  Nb  Nb102  1  0.50445989  0.70304939  0.50120360  1
  Nb  Nb103  1  0.29241839  0.70191225  0.89622566  1
  Nb  Nb104  1  0.10165842  0.09553602  0.69913219  1
  Nb  Nb105  1  0.29533639  0.30833686  0.10448873  1
  Nb  Nb106  1  0.90060704  0.30716715  0.49441757  1
  Nb  Nb107  1  0.89948619  0.10253188  0.10451924  1
  Nb  Nb108  1  0.10238126  0.90120654  0.69605363  1
  Nb  Nb109  1  0.49782841  0.30733767  0.49632301  1
  Nb  Nb110  1  0.50339117  0.70040165  0.89690835  1
  Nb  Nb111  1  0.29814415  0.89880916  0.89640748  1
  Nb  Nb112  1  0.69521349  0.50708311  0.29556728  1
  Nb  Nb113  1  0.91174311  0.49077460  0.09396937  1
  Nb  Nb114  1  0.30681513  0.29904756  0.50653114  1
  Nb  Nb115  1  0.09847088  0.49873629  0.09832988  1
  Nb  Nb116  1  0.69759881  0.10285099  0.10011797  1
  Nb  Nb117  1  0.69473114  0.49889246  0.90122486  1
  Nb  Nb118  1  0.29981740  0.49405200  0.89969057  1
  Nb  Nb119  1  0.90811284  0.48534164  0.50336570  1
  Nb  Nb120  1  0.29889403  0.31027080  0.90455107  1
  Nb  Nb121  1  0.50261448  0.89913309  0.49847731  1
  Nb  Nb122  1  0.50037226  0.09803628  0.70088194  1
  Nb  Nb123  1  0.50177160  0.29985700  0.30130283  1
  Nb  Nb124  1  0.10195801  0.69999051  0.29943439  1
  Nb  Nb125  1  -0.00656573  0.20333570  0.01056134  1
  Nb  Nb126  1  0.59298438  0.20322472  0.40117969  1
  Nb  Nb127  1  0.40573287  0.80188463  0.40513467  1
  Nb  Nb128  1  0.59531781  0.00377126  0.39683827  1
  Nb  Nb129  1  0.60567548  0.59478324  0.19522276  1
  Nb  Nb130  1  0.19399048  0.59479190  0.59527270  1
  Nb  Nb131  1  0.40109282  0.39424629  0.20199109  1
  Nb  Nb132  1  0.60373825  0.00412033  0.19882512  1
  Nb  Nb133  1  0.60168496  0.40417138  -0.00576924  1
  Nb  Nb134  1  0.59369184  0.00101720  0.80144291  1
  Nb  Nb135  1  0.20051934  0.40413465  0.00052554  1
  Nb  Nb136  1  0.59759309  0.39694621  0.59428582  1
  Nb  Nb137  1  0.60177508  -0.00322996  0.00201032  1
  Nb  Nb138  1  0.19737258  0.79464184  0.59828219  1
  Nb  Nb139  1  0.20177832  -0.00063119  0.79774347  1
  Nb  Nb140  1  0.00264102  0.80817437  0.79876664  1
  Nb  Nb141  1  0.01037478  -0.00477024  0.79582566  1
  Nb  Nb142  1  0.59952094  0.59566434  0.80535577  1
  Nb  Nb143  1  0.59922600  0.79914490  -0.00224245  1
  Nb  Nb144  1  0.80303468  0.20116959  0.00802822  1
  Nb  Nb145  1  0.79653127  0.80035544  0.40322612  1
  Nb  Nb146  1  0.00134050  0.20799118  0.40241176  1
  Nb  Nb147  1  0.39579260  0.79864721  0.80202205  1
  Nb  Nb148  1  0.39762289  -0.00090868  0.79823482  1
  Nb  Nb149  1  -0.00143814  0.00580436  0.19613207  1
  Pd  Pd150  1  0.19121225  -0.00824570  0.19717174  1
  Pd  Pd151  1  0.80510755  0.40466680  0.20473118  1
  Pd  Pd152  1  0.58672755  0.40310202  0.79529909  1
  Pd  Pd153  1  0.19061772  -0.00115708  0.40581481  1
  Pd  Pd154  1  -0.00715476  0.40148551  0.79839275  1
  Pd  Pd155  1  0.79401467  0.59262258  0.59074159  1
  Pd  Pd156  1  0.39491372  0.40169110  0.39327077  1
  Pd  Pd157  1  0.38775663  0.19554089  0.79674134  1
  Pd  Pd158  1  0.40213391  -0.00364122  0.20083859  1
  Pd  Pd159  1  0.00215445  0.00932628  0.39415344  1
  Pd  Pd160  1  0.79832706  0.39977589  0.39135459  1
  Pd  Pd161  1  -0.00340605  0.59652737  0.19714964  1
  Pd  Pd162  1  0.80986618  0.40395955  0.80188535  1
  Pd  Pd163  1  0.00786848  0.60353326  0.59614280  1
  Pd  Pd164  1  -0.01118746  0.59939125  0.40054309  1
  Pd  Pd165  1  0.59938134  0.60095552  -0.00050262  1
  Pd  Pd166  1  0.39743315  0.21054914  0.00768518  1
  Pd  Pd167  1  0.21009250  0.40856679  0.39958704  1
  Pd  Pd168  1  0.40815171  0.60784502  0.39492944  1
  Pd  Pd169  1  0.19753131  0.39892332  0.60736353  1
  Pd  Pd170  1  0.59001563  0.41038950  0.18840699  1
  Pd  Pd171  1  0.20998445  0.19295403  0.79577391  1
  Pd  Pd172  1  0.00773246  0.00714300  0.00194093  1
  Pd  Pd173  1  0.80504690  0.60570605  0.40435527  1
  Pd  Pd174  1  0.39466239  0.79210730  0.59729364  1
  Pd  Pd175  1  0.79658704  0.20217734  0.19965581  1
  Pd  Pd176  1  0.20417323  0.59016524  0.40484695  1
  Pd  Pd177  1  0.19501590  0.20126520  0.41164402  1
  Pd  Pd178  1  0.60512548  0.59033641  0.60827359  1
  Pd  Pd179  1  -0.01157381  0.79837644  0.39722365  1
  Pd  Pd180  1  0.80659756  0.19610892  0.59629343  1
  Pd  Pd181  1  0.19202907  0.21417450  0.01064565  1
  Pd  Pd182  1  0.80737146  0.79388781  0.80354381  1
  Pd  Pd183  1  0.39149292  0.61025507  -0.00917373  1
  Pd  Pd184  1  0.20045156  0.80714374  0.19763849  1
  Pd  Pd185  1  0.19360796  0.59680049  0.20184558  1
  Pd  Pd186  1  0.80660977  0.19586363  0.80326462  1
  Pd  Pd187  1  0.40394541  0.00228095  -0.00238286  1
  Pd  Pd188  1  0.19488364  0.59423297  0.80215770  1
  Pd  Pd189  1  0.80142662  -0.00223208  0.19744174  1
  Pd  Pd190  1  0.20994020  0.80842943  0.40721305  1
  Pd  Pd191  1  0.39754114  0.79293851  -0.00625904  1
  Pd  Pd192  1  0.00766951  0.79351445  0.60342267  1
  Pd  Pd193  1  0.80080239  0.00597232  0.60261530  1
  Pd  Pd194  1  -0.00288058  0.80744576  0.20020495  1
  Pd  Pd195  1  0.79636421  0.59880449  0.80236805  1
  Pd  Pd196  1  0.40471418  0.19581648  0.40901499  1
  Pd  Pd197  1  0.80115314  0.39372700  -0.00576496  1
  Pd  Pd198  1  0.59979587  0.19387618  0.80290329  1
  Pd  Pd199  1  0.60587727  0.20387001  -0.01015611  1
  Rh  Rh200  1  0.40887152  -0.00262541  0.39957912  1
  Rh  Rh201  1  0.20267649  0.20799574  0.59659343  1
  Rh  Rh202  1  0.60417905  0.79702493  0.59962687  1
  Rh  Rh203  1  0.40764851  0.39191358  0.60539290  1
  Rh  Rh204  1  -0.00714142  0.41300400  0.20929543  1
  Rh  Rh205  1  0.00266251  0.19298214  0.20180300  1
  Rh  Rh206  1  0.59311670  0.20801106  0.59287288  1
  Rh  Rh207  1  -0.00155542  0.60164332  0.00730368  1
  Rh  Rh208  1  0.20107968  -0.00149634  -0.00237137  1
  Rh  Rh209  1  0.60594918  0.79291665  0.18557968  1
  Rh  Rh210  1  0.40490028  0.00132751  0.60575493  1
  Rh  Rh211  1  0.79929366  0.79530652  -0.00521380  1
  Rh  Rh212  1  -0.00188920  0.18808134  0.81291439  1
  Rh  Rh213  1  0.20315366  0.59610713  -0.00419825  1
  Rh  Rh214  1  -0.00019244  0.79614739  -0.00573986  1
  Rh  Rh215  1  -0.00010582  0.60635683  0.80409097  1
  Rh  Rh216  1  0.40008828  0.39305018  0.00937151  1
  Rh  Rh217  1  0.00396523  0.39515941  0.60526234  1
  Rh  Rh218  1  0.59606138  0.79613776  0.80159637  1
  Rh  Rh219  1  0.39421861  0.21031773  0.19518565  1
  Rh  Rh220  1  0.38796279  0.80437663  0.21025971  1
  Rh  Rh221  1  0.40017202  0.20312954  0.59861747  1
  Rh  Rh222  1  0.59766509  -0.00007895  0.60271571  1
  Rh  Rh223  1  0.79251787  0.40573590  0.59488423  1
  Rh  Rh224  1  0.20013660  0.40145258  0.80485557  1
  Rh  Rh225  1  0.20590912  0.79461421  0.00614370  1
  Rh  Rh226  1  0.20793925  0.41050546  0.19839499  1
  Rh  Rh227  1  0.60335916  0.19082461  0.21624155  1
  Rh  Rh228  1  0.40243865  0.60805870  0.80632049  1
  Rh  Rh229  1  0.19774115  0.80447913  0.79522741  1
  Rh  Rh230  1  -0.00572077  0.00020777  0.60297899  1
  Rh  Rh231  1  0.60540934  0.39425533  0.40586881  1
  Rh  Rh232  1  0.39529036  0.60384668  0.59720002  1
  Rh  Rh233  1  0.39911376  0.39128042  0.79523510  1
  Rh  Rh234  1  0.80905990  0.59448383  -0.00018007  1
  Rh  Rh235  1  0.80825965  0.79953375  0.20935876  1
  Rh  Rh236  1  -0.00310596  0.39941981  0.39354157  1
  Rh  Rh237  1  -0.00732331  0.20741992  0.58722093  1
  Rh  Rh238  1  0.80018657  0.00370332  0.78663389  1
  Rh  Rh239  1  0.59735680  0.60508528  0.38974302  1
  Rh  Rh240  1  0.00526770  0.39236802  -0.00424595  1
  Rh  Rh241  1  0.79006577  -0.01044946  0.40280126  1
  Rh  Rh242  1  0.79432913  0.00628350  0.01128275  1
  Rh  Rh243  1  0.80236868  0.21048462  0.39878553  1
  Rh  Rh244  1  0.80320064  0.59443879  0.19466309  1
  Rh  Rh245  1  0.19966633  -0.00512634  0.59831218  1
  Rh  Rh246  1  0.41451663  0.59002987  0.20921215  1
  Rh  Rh247  1  0.60063780  0.79997745  0.40674092  1
  Rh  Rh248  1  0.20178554  0.20288909  0.19620962  1
  Rh  Rh249  1  0.79450218  0.79482900  0.58982547  1
