# generated using pymatgen
data_ZrScNbPdRh
_symmetry_space_group_name_H-M   'P 1'
_cell_length_a   16.56565341
_cell_length_b   16.56900663
_cell_length_c   16.56234622
_cell_angle_alpha   89.99188243
_cell_angle_beta   89.98901318
_cell_angle_gamma   90.01061889
_symmetry_Int_Tables_number   1
_chemical_formula_structural   ZrScNbPdRh
_chemical_formula_sum   'Zr50 Sc50 Nb50 Pd50 Rh50'
_cell_volume   4545.97330888
_cell_formula_units_Z   50
loop_
 _symmetry_equiv_pos_site_id
 _symmetry_equiv_pos_as_xyz
  1  'x, y, z'
loop_
 _atom_site_type_symbol
 _atom_site_label
 _atom_site_symmetry_multiplicity
 _atom_site_fract_x
 _atom_site_fract_y
 _atom_site_fract_z
 _atom_site_occupancy
  Zr  Zr0  1  0.10737288  0.90110326  0.30265054  1
  Zr  Zr1  1  0.50242118  0.49627929  0.89795654  1
  Zr  Zr2  1  0.29556943  0.90074188  0.49262311  1
  Zr  Zr3  1  0.89003726  0.09848760  0.10075792  1
  Zr  Zr4  1  0.70155150  0.30553882  0.29431355  1
  Zr  Zr5  1  0.49425466  0.50371669  0.29946668  1
  Zr  Zr6  1  0.08665361  0.09898024  0.50254278  1
  Zr  Zr7  1  0.50272079  0.10470549  0.90498281  1
  Zr  Zr8  1  0.30518579  0.90885082  0.10335359  1
  Zr  Zr9  1  0.29868780  0.30047280  0.29121840  1
  Zr  Zr10  1  0.09961212  0.90334589  0.49734385  1
  Zr  Zr11  1  0.50499605  0.89288800  0.70587983  1
  Zr  Zr12  1  0.49935350  0.89168737  0.29592881  1
  Zr  Zr13  1  0.70333361  0.49455725  0.30301476  1
  Zr  Zr14  1  0.29824143  0.10127692  0.70277391  1
  Zr  Zr15  1  0.09055062  0.29265378  0.70596263  1
  Zr  Zr16  1  0.50100698  0.30523214  0.89706306  1
  Zr  Zr17  1  0.30224344  0.09539788  0.49943220  1
  Zr  Zr18  1  0.89581036  0.90227150  0.70225425  1
  Zr  Zr19  1  0.49736312  0.49937038  0.09682495  1
  Zr  Zr20  1  0.29410611  0.69165575  0.70013516  1
  Zr  Zr21  1  0.90490434  0.49962872  0.30493548  1
  Zr  Zr22  1  0.49630730  0.70378446  0.30352469  1
  Zr  Zr23  1  0.49903721  0.69330629  0.49544444  1
  Zr  Zr24  1  0.90513223  0.89029126  0.90794255  1
  Zr  Zr25  1  0.48884595  0.30856289  0.69506711  1
  Zr  Zr26  1  0.09830383  0.31325235  0.30111756  1
  Zr  Zr27  1  0.90380022  0.29945561  0.50642721  1
  Zr  Zr28  1  0.70213440  0.10316141  0.90028839  1
  Zr  Zr29  1  0.50673814  0.49961364  0.69996434  1
  Zr  Zr30  1  0.72516303  0.70427548  0.10706852  1
  Zr  Zr31  1  0.70659744  0.09617152  0.70908968  1
  Zr  Zr32  1  0.89309670  0.69389450  0.49803778  1
  Zr  Zr33  1  0.70176681  0.30304790  0.10042731  1
  Zr  Zr34  1  0.08920121  0.49500799  0.89752476  1
  Zr  Zr35  1  0.30162292  0.11070361  0.10106921  1
  Zr  Zr36  1  0.10219892  0.10006619  0.89933859  1
  Zr  Zr37  1  0.29367963  0.09974791  0.29361109  1
  Zr  Zr38  1  0.50739889  0.29716774  0.30671678  1
  Zr  Zr39  1  0.49267955  0.89973891  0.49392945  1
  Zr  Zr40  1  0.30251974  0.70187821  0.90384378  1
  Zr  Zr41  1  0.70343052  0.30451921  0.69561156  1
  Zr  Zr42  1  0.10283158  0.50811381  0.69824334  1
  Zr  Zr43  1  0.70436337  0.11111078  0.30091915  1
  Zr  Zr44  1  0.88896765  0.89340413  0.09864736  1
  Zr  Zr45  1  0.90065024  0.29364674  0.30107878  1
  Zr  Zr46  1  0.50270096  0.70186073  0.90043668  1
  Zr  Zr47  1  0.10269443  0.69227934  0.50148126  1
  Zr  Zr48  1  0.49485978  0.10927585  0.49437865  1
  Zr  Zr49  1  0.50885181  0.89755048  0.11014887  1
  Sc  Sc50  1  0.09775526  0.10498522  0.30077209  1
  Sc  Sc51  1  0.29506652  0.09713111  0.91278893  1
  Sc  Sc52  1  0.31636553  0.29309512  0.50574022  1
  Sc  Sc53  1  0.50067276  0.29604435  0.10589175  1
  Sc  Sc54  1  0.09120587  0.30169957  0.50099137  1
  Sc  Sc55  1  0.90097773  0.91132684  0.49599205  1
  Sc  Sc56  1  0.90229072  0.09878493  0.70021113  1
  Sc  Sc57  1  0.90549855  0.31135231  0.89023356  1
  Sc  Sc58  1  0.09792591  0.69228885  0.70018288  1
  Sc  Sc59  1  0.50274373  0.89329430  0.90406210  1
  Sc  Sc60  1  0.09950155  0.29897711  0.10886632  1
  Sc  Sc61  1  0.69385923  0.49886685  0.89139930  1
  Sc  Sc62  1  0.71532540  0.89499329  0.49623520  1
  Sc  Sc63  1  0.89790156  0.30225323  0.70015969  1
  Sc  Sc64  1  0.48286879  0.69970449  0.10768541  1
  Sc  Sc65  1  0.30253954  0.28288978  0.89851704  1
  Sc  Sc66  1  0.29952661  0.51354229  0.10464488  1
  Sc  Sc67  1  0.70132758  0.09738164  0.09634430  1
  Sc  Sc68  1  0.69946711  0.50210406  0.69674948  1
  Sc  Sc69  1  0.69897848  0.88780677  0.28866223  1
  Sc  Sc70  1  0.09864250  0.90316882  0.89677837  1
  Sc  Sc71  1  0.50272871  0.50314328  0.50835786  1
  Sc  Sc72  1  0.29865862  0.89897641  0.30401259  1
  Sc  Sc73  1  0.50815386  0.69447261  0.69880336  1
  Sc  Sc74  1  0.31241035  0.49496951  0.69860658  1
  Sc  Sc75  1  0.09851022  0.50251446  0.49554744  1
  Sc  Sc76  1  0.89807107  0.29834440  0.10606526  1
  Sc  Sc77  1  0.69883293  0.29864995  0.89614869  1
  Sc  Sc78  1  0.90545162  0.52168081  0.09645902  1
  Sc  Sc79  1  0.10994484  0.09771660  0.10243399  1
  Sc  Sc80  1  0.50256581  0.11051555  0.29587343  1
  Sc  Sc81  1  0.70747390  0.69696191  0.89235519  1
  Sc  Sc82  1  0.09310562  0.09335549  0.70461599  1
  Sc  Sc83  1  0.10137278  0.69312878  0.88977894  1
  Sc  Sc84  1  0.89145302  0.09068206  0.89924976  1
  Sc  Sc85  1  0.70172888  0.50293631  0.50415597  1
  Sc  Sc86  1  0.29202280  0.50102687  0.29966623  1
  Sc  Sc87  1  0.09473648  0.90674202  0.70412670  1
  Sc  Sc88  1  0.89506700  0.69393623  0.29033108  1
  Sc  Sc89  1  0.29243988  0.90323436  0.70279657  1
  Sc  Sc90  1  0.08730807  0.89373048  0.09809912  1
  Sc  Sc91  1  0.50244720  0.09850379  0.10213313  1
  Sc  Sc92  1  0.70052167  0.90259596  0.89251134  1
  Sc  Sc93  1  0.70125942  0.69839890  0.70302215  1
  Sc  Sc94  1  0.09731194  0.50559124  0.10430750  1
  Sc  Sc95  1  0.29562252  0.50906024  0.90460657  1
  Sc  Sc96  1  0.89671233  0.69480070  0.70812870  1
  Sc  Sc97  1  0.49898995  0.09975960  0.70014879  1
  Sc  Sc98  1  0.30243987  0.69040716  0.49052152  1
  Sc  Sc99  1  0.69325297  0.31317737  0.49032149  1
  Nb  Nb100  1  0.69803266  0.89957080  0.69559726  1
  Nb  Nb101  1  0.89890807  0.50286006  0.51138092  1
  Nb  Nb102  1  0.09567236  0.50626175  0.29718483  1
  Nb  Nb103  1  0.90069414  0.69374545  0.90834452  1
  Nb  Nb104  1  0.10050732  0.70245548  0.11018544  1
  Nb  Nb105  1  0.69935450  0.69499846  0.30537835  1
  Nb  Nb106  1  0.09716994  0.30053418  0.90241811  1
  Nb  Nb107  1  0.30387520  0.50001415  0.50268419  1
  Nb  Nb108  1  0.91026944  0.71226938  0.08779621  1
  Nb  Nb109  1  0.69646175  0.49776309  0.09685895  1
  Nb  Nb110  1  0.29659834  0.70022825  0.29097673  1
  Nb  Nb111  1  0.69900042  0.69927167  0.49206922  1
  Nb  Nb112  1  0.29233712  0.69909880  0.10189118  1
  Nb  Nb113  1  0.70109528  0.09718681  0.49847543  1
  Nb  Nb114  1  0.70163614  0.89464406  0.09902491  1
  Nb  Nb115  1  0.29714099  0.29604346  0.09713166  1
  Nb  Nb116  1  0.29995050  0.89742737  0.90061866  1
  Nb  Nb117  1  0.89934517  0.49803432  0.69944082  1
  Nb  Nb118  1  0.90035315  0.10015367  0.30771419  1
  Nb  Nb119  1  0.50075302  0.29869873  0.49843147  1
  Nb  Nb120  1  0.30051546  0.30224928  0.70058409  1
  Nb  Nb121  1  0.10729534  0.70118064  0.29812818  1
  Nb  Nb122  1  0.89824479  0.10337315  0.48719048  1
  Nb  Nb123  1  0.90524214  0.90420134  0.30141938  1
  Nb  Nb124  1  0.90196954  0.50577435  0.89606005  1
  Nb  Nb125  1  0.19993660  0.39350768  -0.00247889  1
  Nb  Nb126  1  0.40246461  0.60098999  0.80297995  1
  Nb  Nb127  1  0.20350029  0.79580267  0.00347149  1
  Nb  Nb128  1  -0.01007083  -0.00005746  0.20495622  1
  Nb  Nb129  1  0.60347347  0.00107480  0.40264693  1
  Nb  Nb130  1  0.80138207  0.40940708  -0.00056969  1
  Nb  Nb131  1  0.60360006  0.80329978  0.59388625  1
  Nb  Nb132  1  0.20487335  0.39396739  0.60353435  1
  Nb  Nb133  1  0.60790534  0.79343209  0.01066439  1
  Nb  Nb134  1  0.60815073  0.60330775  0.19834117  1
  Nb  Nb135  1  0.39685798  -0.00412231  0.80860058  1
  Nb  Nb136  1  0.19958303  0.39326281  0.80097774  1
  Nb  Nb137  1  0.00010825  0.79878356  0.59445049  1
  Nb  Nb138  1  0.79583712  0.19470870  0.59150696  1
  Nb  Nb139  1  0.19830538  0.79885676  0.59611074  1
  Nb  Nb140  1  0.00304078  0.79662369  0.39849008  1
  Nb  Nb141  1  0.60334166  0.19805208  0.59444235  1
  Nb  Nb142  1  0.20002952  0.20402721  0.40597445  1
  Nb  Nb143  1  0.60454113  0.60458731  0.00973048  1
  Nb  Nb144  1  0.00185609  0.20104431  -0.00284062  1
  Nb  Nb145  1  0.19993967  0.20302409  0.60157056  1
  Nb  Nb146  1  0.39793764  0.79807592  0.59812879  1
  Nb  Nb147  1  0.40159797  0.39991797  0.40276030  1
  Nb  Nb148  1  0.60568700  -0.00155985  0.59445360  1
  Nb  Nb149  1  0.38996905  0.39495364  0.00283471  1
  Pd  Pd150  1  -0.00434144  0.40461415  0.40601565  1
  Pd  Pd151  1  0.40158953  0.19201210  0.80080131  1
  Pd  Pd152  1  -0.00501093  0.39482364  0.01025341  1
  Pd  Pd153  1  0.20007913  0.40852981  0.18962812  1
  Pd  Pd154  1  0.80088899  0.59182337  0.20257381  1
  Pd  Pd155  1  0.79414980  0.59392336  -0.00815165  1
  Pd  Pd156  1  0.00151233  0.79506878  0.79578100  1
  Pd  Pd157  1  0.59335550  0.00094879  0.79975143  1
  Pd  Pd158  1  0.59573302  0.40367563  0.19982966  1
  Pd  Pd159  1  0.60831334  0.00623158  0.20823435  1
  Pd  Pd160  1  0.79773200  0.40599940  0.80409049  1
  Pd  Pd161  1  -0.00169845  0.60500170  0.39573148  1
  Pd  Pd162  1  0.80021094  0.80082009  0.80273135  1
  Pd  Pd163  1  0.79444379  0.21082259  0.40642701  1
  Pd  Pd164  1  -0.00732528  0.40708538  0.19146736  1
  Pd  Pd165  1  0.40773039  0.00531064  0.38599527  1
  Pd  Pd166  1  0.60223656  0.59197755  0.39748609  1
  Pd  Pd167  1  0.21000024  0.39404537  0.41390518  1
  Pd  Pd168  1  0.79138521  -0.00516328  0.38815184  1
  Pd  Pd169  1  0.19868119  0.19975695  0.79720354  1
  Pd  Pd170  1  0.39710343  0.40044833  0.19801486  1
  Pd  Pd171  1  0.00192205  0.19037213  0.19473531  1
  Pd  Pd172  1  0.19450831  -0.01142193  0.00389089  1
  Pd  Pd173  1  0.60529816  0.80707420  0.40494442  1
  Pd  Pd174  1  0.81085681  0.21420997  -0.01021123  1
  Pd  Pd175  1  0.80231129  0.79453450  0.60127031  1
  Pd  Pd176  1  0.79792320  -0.00201285  0.20663188  1
  Pd  Pd177  1  0.80883862  0.79890534  0.39154368  1
  Pd  Pd178  1  0.20420418  0.80854447  0.19348259  1
  Pd  Pd179  1  0.40791110  -0.00214052  -0.00317449  1
  Pd  Pd180  1  0.19343047  0.80224493  0.79840536  1
  Pd  Pd181  1  -0.00056007  0.00785485  0.00872674  1
  Pd  Pd182  1  0.59922666  0.20527750  0.00506790  1
  Pd  Pd183  1  0.80846341  0.40237682  0.40804467  1
  Pd  Pd184  1  0.80270381  0.00625851  0.59945723  1
  Pd  Pd185  1  0.39592557  0.79811288  0.79121761  1
  Pd  Pd186  1  0.59641405  0.20619259  0.79004313  1
  Pd  Pd187  1  0.40400982  0.00518071  0.20580024  1
  Pd  Pd188  1  0.81231313  0.41203488  0.18952083  1
  Pd  Pd189  1  0.19461572  0.00070129  0.60348646  1
  Pd  Pd190  1  0.79480966  0.60268036  0.60485074  1
  Pd  Pd191  1  0.20197269  0.59728120  0.39501350  1
  Pd  Pd192  1  0.00629571  0.40599476  0.60448649  1
  Pd  Pd193  1  0.01140585  0.60845148  -0.00022620  1
  Pd  Pd194  1  -0.00533725  0.80070849  0.20804602  1
  Pd  Pd195  1  0.40109530  0.80377651  0.00883234  1
  Pd  Pd196  1  -0.01144197  0.19216191  0.80916696  1
  Pd  Pd197  1  0.18860348  0.60146374  0.00137402  1
  Pd  Pd198  1  0.60300765  -0.00781632  -0.00065552  1
  Pd  Pd199  1  0.40498997  -0.00767574  0.61069863  1
  Rh  Rh200  1  0.19962438  0.78927979  0.40303699  1
  Rh  Rh201  1  0.38936506  0.80000660  0.20099914  1
  Rh  Rh202  1  0.38914135  0.79345237  0.39942518  1
  Rh  Rh203  1  -0.00649215  0.19276588  0.60060135  1
  Rh  Rh204  1  0.40754209  0.20460186  0.00426140  1
  Rh  Rh205  1  0.60457548  0.78354358  0.19278243  1
  Rh  Rh206  1  -0.00603570  -0.00117263  0.80452208  1
  Rh  Rh207  1  0.40173294  0.19748772  0.60787662  1
  Rh  Rh208  1  0.59608043  0.60187556  0.80505884  1
  Rh  Rh209  1  0.19254013  -0.00488434  0.19766465  1
  Rh  Rh210  1  -0.00826957  0.59837240  0.79685415  1
  Rh  Rh211  1  -0.00861771  0.60233151  0.60356850  1
  Rh  Rh212  1  0.59896791  0.39487857  0.59866143  1
  Rh  Rh213  1  0.39158057  0.59271649  0.39319365  1
  Rh  Rh214  1  0.80012641  0.59411343  0.40207800  1
  Rh  Rh215  1  0.60107332  0.40132147  0.00009971  1
  Rh  Rh216  1  0.39974523  0.40437807  0.59093910  1
  Rh  Rh217  1  0.40726891  0.59447498  -0.00630531  1
  Rh  Rh218  1  0.60567427  0.39551917  0.79256603  1
  Rh  Rh219  1  0.80409059  0.20171986  0.79580279  1
  Rh  Rh220  1  0.01657761  0.78895976  -0.01002600  1
  Rh  Rh221  1  0.19463972  0.59723703  0.20368359  1
  Rh  Rh222  1  0.39740106  0.60353062  0.20586627  1
  Rh  Rh223  1  0.18869121  0.20789834  0.00369654  1
  Rh  Rh224  1  0.00334632  0.60877954  0.20362288  1
  Rh  Rh225  1  0.80280533  0.39808935  0.59689525  1
  Rh  Rh226  1  0.40216070  0.20060890  0.19860936  1
  Rh  Rh227  1  0.00240340  0.40650504  0.79124355  1
  Rh  Rh228  1  0.00290766  -0.00166233  0.39282498  1
  Rh  Rh229  1  0.60800206  0.19795594  0.40590526  1
  Rh  Rh230  1  0.20790892  0.58937326  0.79793425  1
  Rh  Rh231  1  0.58945058  0.40907292  0.40354906  1
  Rh  Rh232  1  0.60762321  0.19815261  0.19231763  1
  Rh  Rh233  1  0.80796218  0.80028341  0.20787290  1
  Rh  Rh234  1  0.39042938  0.20742314  0.38780097  1
  Rh  Rh235  1  0.79226171  0.80140747  -0.01116107  1
  Rh  Rh236  1  0.80330130  -0.00727842  0.80302544  1
  Rh  Rh237  1  0.20641133  0.00081032  0.80672982  1
  Rh  Rh238  1  0.00546723  0.20555644  0.39605151  1
  Rh  Rh239  1  0.19633998  0.01446557  0.39785373  1
  Rh  Rh240  1  0.20697474  0.59321613  0.59823833  1
  Rh  Rh241  1  0.60887040  0.61107940  0.59572564  1
  Rh  Rh242  1  0.19283223  0.20413605  0.20686360  1
  Rh  Rh243  1  0.38550128  0.40688609  0.81697750  1
  Rh  Rh244  1  0.40110243  0.60407654  0.60724418  1
  Rh  Rh245  1  -0.01010972  -0.00228829  0.59991647  1
  Rh  Rh246  1  0.79293828  -0.00830202  -0.00382117  1
  Rh  Rh247  1  0.80041842  0.19954526  0.20062101  1
  Rh  Rh248  1  0.80487531  0.59401704  0.79952596  1
  Rh  Rh249  1  0.60944810  0.79715820  0.79983808  1
