# generated using pymatgen
data_ZrScNbPdRh
_symmetry_space_group_name_H-M   'P 1'
_cell_length_a   16.56240547
_cell_length_b   16.56019391
_cell_length_c   16.56084868
_cell_angle_alpha   90.01437153
_cell_angle_beta   90.00193706
_cell_angle_gamma   90.03268229
_symmetry_Int_Tables_number   1
_chemical_formula_structural   ZrScNbPdRh
_chemical_formula_sum   'Zr50 Sc50 Nb50 Pd50 Rh50'
_cell_volume   4542.25315050
_cell_formula_units_Z   50
loop_
 _symmetry_equiv_pos_site_id
 _symmetry_equiv_pos_as_xyz
  1  'x, y, z'
loop_
 _atom_site_type_symbol
 _atom_site_label
 _atom_site_symmetry_multiplicity
 _atom_site_fract_x
 _atom_site_fract_y
 _atom_site_fract_z
 _atom_site_occupancy
  Zr  Zr0  1  0.30540087  0.10564722  0.10104694  1
  Zr  Zr1  1  0.70144509  0.90028658  0.90062598  1
  Zr  Zr2  1  0.49286508  0.89454091  0.09799363  1
  Zr  Zr3  1  0.49880715  0.11856917  0.70100164  1
  Zr  Zr4  1  0.70025021  0.69660281  0.69936882  1
  Zr  Zr5  1  0.09996431  0.09769777  0.70195868  1
  Zr  Zr6  1  0.30083871  0.30723980  0.90352230  1
  Zr  Zr7  1  0.50505386  0.70211180  0.90799085  1
  Zr  Zr8  1  0.29862527  0.10367981  0.70097643  1
  Zr  Zr9  1  0.49587276  0.10315679  0.09794194  1
  Zr  Zr10  1  0.50288874  0.49723977  0.11310216  1
  Zr  Zr11  1  0.10528024  0.10545553  0.89320845  1
  Zr  Zr12  1  0.09360690  0.29986050  0.29569063  1
  Zr  Zr13  1  0.49930690  0.69026729  0.29912035  1
  Zr  Zr14  1  0.89194613  0.90065593  0.70162360  1
  Zr  Zr15  1  0.89885070  0.30637899  0.70244643  1
  Zr  Zr16  1  0.11165436  0.89991469  0.89822668  1
  Zr  Zr17  1  0.90606550  0.50098378  0.50208768  1
  Zr  Zr18  1  0.29837892  0.50293663  0.49632257  1
  Zr  Zr19  1  0.30357481  0.30292277  0.30189551  1
  Zr  Zr20  1  0.30258602  0.49482689  0.89422096  1
  Zr  Zr21  1  0.30312927  0.30539906  0.49774280  1
  Zr  Zr22  1  0.89677683  0.49911159  0.69918226  1
  Zr  Zr23  1  0.09988307  0.29797627  0.09687979  1
  Zr  Zr24  1  0.30350037  0.08895366  0.89654299  1
  Zr  Zr25  1  0.69292533  0.91119013  0.50565986  1
  Zr  Zr26  1  0.30195564  0.89283382  0.29296588  1
  Zr  Zr27  1  0.90380108  0.50062260  0.29074652  1
  Zr  Zr28  1  0.70458813  0.10108581  0.30778035  1
  Zr  Zr29  1  0.30242289  0.89970934  0.70879945  1
  Zr  Zr30  1  0.89930097  0.29672364  0.30023535  1
  Zr  Zr31  1  0.10491365  0.69936727  0.10103516  1
  Zr  Zr32  1  0.09206600  0.50490654  0.10272868  1
  Zr  Zr33  1  0.88700736  0.10125567  0.49537756  1
  Zr  Zr34  1  0.70476204  0.30539215  0.90809074  1
  Zr  Zr35  1  0.89858937  0.90505238  0.89808498  1
  Zr  Zr36  1  0.69469520  0.69232811  0.89858052  1
  Zr  Zr37  1  0.49948440  0.70173328  0.70085022  1
  Zr  Zr38  1  0.10353059  0.70433701  0.89577545  1
  Zr  Zr39  1  0.70458033  0.70933108  0.50043200  1
  Zr  Zr40  1  0.48839001  0.29778722  0.10469140  1
  Zr  Zr41  1  0.10131910  0.29826377  0.70881720  1
  Zr  Zr42  1  0.09677221  0.10040064  0.30321425  1
  Zr  Zr43  1  0.90824931  0.69939981  0.49642066  1
  Zr  Zr44  1  0.70932682  0.90158710  0.10046190  1
  Zr  Zr45  1  0.68614335  0.50208137  0.29829736  1
  Zr  Zr46  1  0.09563380  0.29978330  0.90127178  1
  Zr  Zr47  1  0.10364636  0.69154075  0.29724024  1
  Zr  Zr48  1  0.89801695  0.30500853  0.09757455  1
  Zr  Zr49  1  0.70425048  0.10748408  0.90652915  1
  Sc  Sc50  1  0.50941541  0.50446115  0.68909115  1
  Sc  Sc51  1  0.29945188  0.70294513  0.69405657  1
  Sc  Sc52  1  0.31160580  0.49492779  0.09242302  1
  Sc  Sc53  1  0.10025916  0.91260473  0.30508979  1
  Sc  Sc54  1  0.89692998  0.48905688  0.89543746  1
  Sc  Sc55  1  0.10077132  0.09847253  0.10128718  1
  Sc  Sc56  1  0.30702203  0.30089017  0.70981935  1
  Sc  Sc57  1  0.70308983  0.29470872  0.09962096  1
  Sc  Sc58  1  0.89843517  0.89514503  0.49749990  1
  Sc  Sc59  1  0.30322497  0.50127139  0.30831441  1
  Sc  Sc60  1  0.49663188  0.30368037  0.30060162  1
  Sc  Sc61  1  0.29384960  0.49961243  0.69954711  1
  Sc  Sc62  1  0.29674005  0.90269358  0.09606377  1
  Sc  Sc63  1  0.90154103  0.69746054  0.88595054  1
  Sc  Sc64  1  0.70115289  0.29306487  0.29256312  1
  Sc  Sc65  1  0.89827751  0.30275934  0.50026881  1
  Sc  Sc66  1  0.90640226  0.09920313  0.89896382  1
  Sc  Sc67  1  0.49632621  0.50008921  0.91608803  1
  Sc  Sc68  1  0.29543651  0.09361920  0.29878909  1
  Sc  Sc69  1  0.50631024  0.10970973  0.30159409  1
  Sc  Sc70  1  0.50201407  0.29227447  0.50047224  1
  Sc  Sc71  1  0.68777320  0.69368446  0.09605555  1
  Sc  Sc72  1  0.89447377  0.69957764  0.69159471  1
  Sc  Sc73  1  0.90248395  0.10015552  0.30709975  1
  Sc  Sc74  1  0.90365768  0.68700841  0.10454587  1
  Sc  Sc75  1  0.10244580  0.07789044  0.49795231  1
  Sc  Sc76  1  0.70073418  0.48878782  0.10205536  1
  Sc  Sc77  1  0.68520424  0.49443074  0.50676229  1
  Sc  Sc78  1  0.29719068  0.69140577  0.29869956  1
  Sc  Sc79  1  0.30131574  0.10248595  0.50092478  1
  Sc  Sc80  1  0.29482699  0.71676474  0.88902271  1
  Sc  Sc81  1  0.89293271  0.08914571  0.09445651  1
  Sc  Sc82  1  0.09786011  0.31659518  0.49566705  1
  Sc  Sc83  1  0.89922928  0.49639723  0.10199777  1
  Sc  Sc84  1  0.28982928  0.90625106  0.50828978  1
  Sc  Sc85  1  0.50215582  0.69415815  0.50695919  1
  Sc  Sc86  1  0.89842782  0.70123051  0.30304763  1
  Sc  Sc87  1  0.69858855  0.69991929  0.30115083  1
  Sc  Sc88  1  0.50124231  0.89850071  0.69488576  1
  Sc  Sc89  1  0.10419739  0.50803169  0.49803059  1
  Sc  Sc90  1  0.29494565  0.70912526  0.11261641  1
  Sc  Sc91  1  0.89442468  0.90311639  0.30214578  1
  Sc  Sc92  1  0.70427730  0.29717883  0.50337396  1
  Sc  Sc93  1  0.89869353  0.09228355  0.70222600  1
  Sc  Sc94  1  0.70306918  0.50040452  0.70034580  1
  Sc  Sc95  1  0.69828387  0.30634388  0.69228544  1
  Sc  Sc96  1  0.48539925  0.89913338  0.90171710  1
  Sc  Sc97  1  0.70557416  0.89539366  0.31039471  1
  Sc  Sc98  1  0.50482393  0.89978585  0.30256674  1
  Sc  Sc99  1  0.49463326  0.69274107  0.09709299  1
  Nb  Nb100  1  0.10690164  0.50219078  0.89817043  1
  Nb  Nb101  1  0.09936037  0.89530839  0.50254615  1
  Nb  Nb102  1  0.50320266  0.90449305  0.49878947  1
  Nb  Nb103  1  0.50118906  0.50294246  0.31237087  1
  Nb  Nb104  1  0.10569709  0.50128120  0.29613380  1
  Nb  Nb105  1  0.50428829  0.10513341  0.89953383  1
  Nb  Nb106  1  0.70091652  0.49922257  0.89940026  1
  Nb  Nb107  1  0.69296183  0.09783406  0.50523734  1
  Nb  Nb108  1  0.09778562  0.89409392  0.09865192  1
  Nb  Nb109  1  0.69635790  0.09995045  0.10090531  1
  Nb  Nb110  1  0.90190890  0.89648400  0.09732825  1
  Nb  Nb111  1  0.50920438  0.09338106  0.50186683  1
  Nb  Nb112  1  0.70279821  0.09354318  0.69421870  1
  Nb  Nb113  1  0.10522782  0.50125976  0.70302760  1
  Nb  Nb114  1  0.49365785  0.30400376  0.70430696  1
  Nb  Nb115  1  0.10076868  0.90192146  0.68534604  1
  Nb  Nb116  1  0.70271722  0.90728859  0.70327893  1
  Nb  Nb117  1  0.29761385  0.90069080  0.89631158  1
  Nb  Nb118  1  0.29697723  0.69527627  0.49759479  1
  Nb  Nb119  1  0.30074904  0.30242605  0.10665793  1
  Nb  Nb120  1  0.49985044  0.49866399  0.49308762  1
  Nb  Nb121  1  0.10039083  0.70403456  0.49982323  1
  Nb  Nb122  1  0.89606814  0.29469761  0.89710413  1
  Nb  Nb123  1  0.10392006  0.69985062  0.69478456  1
  Nb  Nb124  1  0.49673524  0.29796614  0.88839370  1
  Nb  Nb125  1  0.00504671  0.19854186  0.59966434  1
  Nb  Nb126  1  0.01160768  0.59596870  0.79317614  1
  Nb  Nb127  1  0.40538182  0.40146162  0.59701077  1
  Nb  Nb128  1  0.60073084  0.00557573  0.80136370  1
  Nb  Nb129  1  0.60556284  0.00083317  0.19510382  1
  Nb  Nb130  1  0.20117719  0.39877187  0.19714477  1
  Nb  Nb131  1  0.80590347  0.79351906  0.00125357  1
  Nb  Nb132  1  0.59688514  0.00526702  -0.00030505  1
  Nb  Nb133  1  0.79822517  0.20291625  0.79968235  1
  Nb  Nb134  1  0.19459164  0.20291376  0.59527478  1
  Nb  Nb135  1  0.19627731  0.20234389  0.40333858  1
  Nb  Nb136  1  0.39563439  0.80085942  0.40760937  1
  Nb  Nb137  1  0.79829190  0.59180452  0.40218126  1
  Nb  Nb138  1  0.60338695  0.80671049  0.80011045  1
  Nb  Nb139  1  0.79659864  0.59790238  -0.00717727  1
  Nb  Nb140  1  0.00097018  0.80543282  0.19392063  1
  Nb  Nb141  1  0.59500984  0.39758505  0.80494282  1
  Nb  Nb142  1  0.79835034  0.40710641  0.39523530  1
  Nb  Nb143  1  0.59855668  0.80439895  0.19629099  1
  Nb  Nb144  1  0.40786149  0.00495320  0.59656543  1
  Nb  Nb145  1  0.19787899  0.79751401  0.40718357  1
  Nb  Nb146  1  0.19842686  0.59922855  -0.00508694  1
  Nb  Nb147  1  0.40624776  -0.00415356  0.40736330  1
  Nb  Nb148  1  0.40268296  0.60242602  0.80091193  1
  Nb  Nb149  1  -0.00238732  0.80179278  0.00245157  1
  Pd  Pd150  1  0.79938871  0.00366187  0.20657665  1
  Pd  Pd151  1  0.20285421  0.20316515  0.20666168  1
  Pd  Pd152  1  0.00821635  0.19534755  0.41531524  1
  Pd  Pd153  1  0.59272928  0.79421242  0.39558710  1
  Pd  Pd154  1  -0.00419290  0.60377815  -0.01341892  1
  Pd  Pd155  1  0.41239680  0.00237343  0.79343233  1
  Pd  Pd156  1  0.59120461  0.59197105  0.80231622  1
  Pd  Pd157  1  -0.00928058  0.19072824  0.19047999  1
  Pd  Pd158  1  0.20403786  0.79797352  0.59915868  1
  Pd  Pd159  1  0.20692789  0.39394703  0.60679714  1
  Pd  Pd160  1  0.20692741  0.19805867  -0.00340884  1
  Pd  Pd161  1  0.79428776  0.79381530  0.80212728  1
  Pd  Pd162  1  0.80635925  0.19841180  0.60787537  1
  Pd  Pd163  1  0.00443331  0.40596672  0.80409755  1
  Pd  Pd164  1  0.00761730  -0.00190312  -0.00265590  1
  Pd  Pd165  1  0.79171523  0.60192520  0.19760922  1
  Pd  Pd166  1  0.41003139  0.00464445  0.21042531  1
  Pd  Pd167  1  0.79287217  0.59443093  0.59070853  1
  Pd  Pd168  1  -0.01091403  0.00255936  0.59295877  1
  Pd  Pd169  1  0.38329599  0.61347349  -0.00688110  1
  Pd  Pd170  1  0.00480536  0.39834512  0.60331081  1
  Pd  Pd171  1  0.60406312  0.80179338  0.60574711  1
  Pd  Pd172  1  0.61277044  0.20522404  0.79523339  1
  Pd  Pd173  1  0.60436797  0.38821784  0.40042911  1
  Pd  Pd174  1  0.39589153  0.59250635  0.60367505  1
  Pd  Pd175  1  -0.00213092  0.40809050  0.39539527  1
  Pd  Pd176  1  -0.00489809  -0.00256142  0.20135962  1
  Pd  Pd177  1  0.19997016  0.00269759  0.00555553  1
  Pd  Pd178  1  0.00745043  -0.00672741  0.79895471  1
  Pd  Pd179  1  -0.00421448  0.79993602  0.60620749  1
  Pd  Pd180  1  0.39579881  0.20327008  -0.00794265  1
  Pd  Pd181  1  0.59837563  0.38948516  0.20283556  1
  Pd  Pd182  1  0.59543680  0.20594681  0.00504067  1
  Pd  Pd183  1  0.60154290  0.20536053  0.60116761  1
  Pd  Pd184  1  -0.00531471  0.19338927  0.00469867  1
  Pd  Pd185  1  -0.00408032  0.40239762  -0.00591721  1
  Pd  Pd186  1  0.39670163  0.19044582  0.39919472  1
  Pd  Pd187  1  0.00787706  0.60034982  0.60520741  1
  Pd  Pd188  1  0.39308879  0.59391368  0.20129579  1
  Pd  Pd189  1  0.60516847  0.20583968  0.40187574  1
  Pd  Pd190  1  0.19815573  -0.00226237  0.19348840  1
  Pd  Pd191  1  0.00472674  0.79873698  0.79391034  1
  Pd  Pd192  1  0.59324643  0.39550569  -0.00044275  1
  Pd  Pd193  1  0.39684839  0.80794889  0.59172475  1
  Pd  Pd194  1  0.80690519  0.19253852  0.19549371  1
  Pd  Pd195  1  0.20618882  0.60447697  0.80058588  1
  Pd  Pd196  1  0.19814452  0.40693121  0.00726022  1
  Pd  Pd197  1  0.38609420  0.79491304  0.00193731  1
  Pd  Pd198  1  0.80037079  0.78988080  0.19421548  1
  Pd  Pd199  1  0.00612107  0.80568427  0.38869633  1
  Rh  Rh200  1  0.79459252  0.01275118  0.80406311  1
  Rh  Rh201  1  0.60594721  0.81286967  0.00220276  1
  Rh  Rh202  1  0.60490682  0.60535661  0.40813933  1
  Rh  Rh203  1  0.41015453  0.79353644  0.20940022  1
  Rh  Rh204  1  0.80967429  0.59425811  0.80286273  1
  Rh  Rh205  1  0.79454429  0.20765637  0.40197537  1
  Rh  Rh206  1  0.59858875  0.60351399  0.19736230  1
  Rh  Rh207  1  0.40042933  0.00086657  -0.00300096  1
  Rh  Rh208  1  0.21072887  0.58144567  0.18817712  1
  Rh  Rh209  1  0.80506400  0.40561654  0.00179831  1
  Rh  Rh210  1  0.59390852  0.00393102  0.61139201  1
  Rh  Rh211  1  0.19650159  0.60290739  0.59686120  1
  Rh  Rh212  1  0.19623825  0.60488865  0.40381484  1
  Rh  Rh213  1  0.20628243  0.00413635  0.60656589  1
  Rh  Rh214  1  0.00022905  0.59721123  0.39506524  1
  Rh  Rh215  1  0.60409255  0.60299319  0.59520805  1
  Rh  Rh216  1  0.40677885  0.39208276  0.00130987  1
  Rh  Rh217  1  0.19183557  0.80808081  0.78537328  1
  Rh  Rh218  1  0.59817006  0.19793818  0.19698895  1
  Rh  Rh219  1  0.19431348  0.39764232  0.38730093  1
  Rh  Rh220  1  -0.00270680  0.60627676  0.20740168  1
  Rh  Rh221  1  0.79750400  -0.00148566  -0.00423921  1
  Rh  Rh222  1  0.40296663  0.60603368  0.40540152  1
  Rh  Rh223  1  0.20098945  0.79742372  0.00214972  1
  Rh  Rh224  1  0.80042034  0.40585036  0.59007190  1
  Rh  Rh225  1  0.79778690  0.39626106  0.20530625  1
  Rh  Rh226  1  0.18817406  0.80859365  0.21198291  1
  Rh  Rh227  1  -0.01314613  0.19942766  0.79254161  1
  Rh  Rh228  1  0.39642298  0.40727434  0.20862151  1
  Rh  Rh229  1  0.60700487  0.58369199  0.00832756  1
  Rh  Rh230  1  0.19582342  -0.00611530  0.79307270  1
  Rh  Rh231  1  0.19641677  0.39611684  0.80057650  1
  Rh  Rh232  1  0.39589249  0.20356218  0.59606538  1
  Rh  Rh233  1  0.79830858  0.80806844  0.59931044  1
  Rh  Rh234  1  0.39750795  0.19646774  0.20746736  1
  Rh  Rh235  1  0.00585149  0.39867345  0.19802623  1
  Rh  Rh236  1  0.59036287  0.39352662  0.60392584  1
  Rh  Rh237  1  0.80789163  0.19919149  0.00063791  1
  Rh  Rh238  1  0.40884766  0.79484454  0.80153842  1
  Rh  Rh239  1  0.59886755  0.00406428  0.39071027  1
  Rh  Rh240  1  0.20765272  0.20553338  0.80377330  1
  Rh  Rh241  1  0.41383498  0.41772070  0.79024891  1
  Rh  Rh242  1  0.20794566  -0.00391532  0.39983574  1
  Rh  Rh243  1  0.39242536  0.19807929  0.80892797  1
  Rh  Rh244  1  0.40639786  0.40228570  0.40425496  1
  Rh  Rh245  1  -0.00688780  -0.00516001  0.40495540  1
  Rh  Rh246  1  0.79564848  -0.00144647  0.40428100  1
  Rh  Rh247  1  0.78876479  0.39407958  0.79848627  1
  Rh  Rh248  1  0.80447977  0.79358927  0.40321596  1
  Rh  Rh249  1  0.80253624  -0.00282405  0.59434042  1
