# generated using pymatgen
data_ZrScNbPdRh
_symmetry_space_group_name_H-M   'P 1'
_cell_length_a   16.55449563
_cell_length_b   16.55112372
_cell_length_c   16.55348024
_cell_angle_alpha   89.99903437
_cell_angle_beta   89.96624714
_cell_angle_gamma   90.00629760
_symmetry_Int_Tables_number   1
_chemical_formula_structural   ZrScNbPdRh
_chemical_formula_sum   'Zr50 Sc50 Nb50 Pd50 Rh50'
_cell_volume   4535.57836683
_cell_formula_units_Z   50
loop_
 _symmetry_equiv_pos_site_id
 _symmetry_equiv_pos_as_xyz
  1  'x, y, z'
loop_
 _atom_site_type_symbol
 _atom_site_label
 _atom_site_symmetry_multiplicity
 _atom_site_fract_x
 _atom_site_fract_y
 _atom_site_fract_z
 _atom_site_occupancy
  Zr  Zr0  1  0.70430542  0.90029922  0.29238949  1
  Zr  Zr1  1  0.30313416  0.90163505  0.69250606  1
  Zr  Zr2  1  0.10157289  0.69176403  0.90559479  1
  Zr  Zr3  1  0.89482403  0.10820410  0.69897570  1
  Zr  Zr4  1  0.10806710  0.30584015  0.90239462  1
  Zr  Zr5  1  0.10700901  0.90003865  0.11134513  1
  Zr  Zr6  1  0.90012617  0.49851841  0.50875291  1
  Zr  Zr7  1  0.50236693  0.10207096  0.49533225  1
  Zr  Zr8  1  0.09244813  0.30148058  0.70024042  1
  Zr  Zr9  1  0.50689019  0.69924734  0.90088131  1
  Zr  Zr10  1  0.49690135  0.69285605  0.09691241  1
  Zr  Zr11  1  0.50183825  0.90425057  0.49575941  1
  Zr  Zr12  1  0.90064408  0.30719089  0.69739430  1
  Zr  Zr13  1  0.30366654  0.89749050  0.90990150  1
  Zr  Zr14  1  0.29124385  0.09445868  0.50248475  1
  Zr  Zr15  1  0.29866348  0.50941509  0.50571607  1
  Zr  Zr16  1  0.89607491  0.29510258  0.49988128  1
  Zr  Zr17  1  0.09457500  0.50158100  0.29513421  1
  Zr  Zr18  1  0.09697322  0.29887342  0.50502814  1
  Zr  Zr19  1  0.09577744  0.10319104  0.50032498  1
  Zr  Zr20  1  0.90518800  0.69832720  0.50616478  1
  Zr  Zr21  1  0.29935700  0.69746856  0.29750541  1
  Zr  Zr22  1  0.89442966  0.90080017  0.70018059  1
  Zr  Zr23  1  0.10626325  0.90879049  0.90268892  1
  Zr  Zr24  1  0.49204379  0.30100471  0.09145107  1
  Zr  Zr25  1  0.30009049  0.70937507  0.10254077  1
  Zr  Zr26  1  0.70163839  0.49122555  0.30053689  1
  Zr  Zr27  1  0.10712262  0.30286745  0.29293641  1
  Zr  Zr28  1  0.50351621  0.49579422  0.10048143  1
  Zr  Zr29  1  0.71227375  0.29230462  0.09580887  1
  Zr  Zr30  1  0.70302666  0.90940133  0.09885803  1
  Zr  Zr31  1  0.29644940  0.69457275  0.68242429  1
  Zr  Zr32  1  0.50476604  0.10128119  0.09749438  1
  Zr  Zr33  1  0.30195502  0.90325009  0.10166822  1
  Zr  Zr34  1  0.70693460  0.70787118  0.09930774  1
  Zr  Zr35  1  0.49755038  0.69722565  0.49022705  1
  Zr  Zr36  1  0.50491039  0.29628415  0.71071779  1
  Zr  Zr37  1  0.69536166  0.49407845  0.49465230  1
  Zr  Zr38  1  0.09577244  0.10502512  0.70084281  1
  Zr  Zr39  1  0.50109468  0.69932842  0.69828482  1
  Zr  Zr40  1  0.70323106  0.30302732  0.70279950  1
  Zr  Zr41  1  0.10316970  0.70075329  0.51036931  1
  Zr  Zr42  1  0.50170868  0.90407050  0.70185597  1
  Zr  Zr43  1  0.28749361  0.49220344  0.30582402  1
  Zr  Zr44  1  0.49570593  0.90178632  0.09286434  1
  Zr  Zr45  1  0.10009859  0.90617764  0.48892962  1
  Zr  Zr46  1  0.49599071  0.49362914  0.68957678  1
  Zr  Zr47  1  0.09693664  0.50104496  0.70900871  1
  Zr  Zr48  1  0.90163498  0.49794751  0.10705806  1
  Zr  Zr49  1  0.90109992  0.50323661  0.90016264  1
  Sc  Sc50  1  0.51159240  0.49779461  0.90844975  1
  Sc  Sc51  1  0.30814891  0.49058535  0.09460680  1
  Sc  Sc52  1  0.70916893  0.49636552  0.70240873  1
  Sc  Sc53  1  0.29471504  0.89913740  0.50165008  1
  Sc  Sc54  1  0.10075716  0.90519591  0.69943451  1
  Sc  Sc55  1  0.69818455  0.10415502  0.90990723  1
  Sc  Sc56  1  0.29983217  0.69435614  0.91211810  1
  Sc  Sc57  1  0.70054678  0.10373368  0.50091728  1
  Sc  Sc58  1  0.70611642  0.70138162  0.70856565  1
  Sc  Sc59  1  0.49868332  0.69522330  0.29440786  1
  Sc  Sc60  1  0.50404079  0.49648135  0.49410410  1
  Sc  Sc61  1  0.30659316  0.30219719  0.90606918  1
  Sc  Sc62  1  0.89269271  0.29709853  0.89324618  1
  Sc  Sc63  1  0.88987267  0.10390129  0.10340642  1
  Sc  Sc64  1  0.29712275  0.70137166  0.49449674  1
  Sc  Sc65  1  0.50201411  0.09395642  0.70717036  1
  Sc  Sc66  1  0.50635537  0.90327787  0.29827370  1
  Sc  Sc67  1  0.90096875  0.69462064  0.69712745  1
  Sc  Sc68  1  0.88845439  0.29731709  0.29438228  1
  Sc  Sc69  1  0.70534393  0.69419404  0.90413285  1
  Sc  Sc70  1  0.29766325  0.29941239  0.28929940  1
  Sc  Sc71  1  0.88907525  0.89839038  0.11250404  1
  Sc  Sc72  1  0.50094208  0.10221189  0.29545146  1
  Sc  Sc73  1  0.89646191  0.90529546  0.90624631  1
  Sc  Sc74  1  0.30714873  0.30725671  0.70990002  1
  Sc  Sc75  1  0.50080075  0.49838574  0.29666854  1
  Sc  Sc76  1  0.69775309  0.10015336  0.69439183  1
  Sc  Sc77  1  0.10409868  0.50741816  0.49292755  1
  Sc  Sc78  1  0.09214441  0.09266701  0.29818159  1
  Sc  Sc79  1  0.69932986  0.90377216  0.69792208  1
  Sc  Sc80  1  0.90044975  0.10420448  0.89973058  1
  Sc  Sc81  1  0.09623188  0.70723702  0.30374097  1
  Sc  Sc82  1  0.28804244  0.90073250  0.29556554  1
  Sc  Sc83  1  0.70343869  0.49930485  0.90206115  1
  Sc  Sc84  1  0.30308279  0.10110126  0.29604282  1
  Sc  Sc85  1  0.90082126  0.10411131  0.29961071  1
  Sc  Sc86  1  0.69450940  0.89933709  0.90166568  1
  Sc  Sc87  1  0.90022180  0.89737283  0.50580808  1
  Sc  Sc88  1  0.29683845  0.09357292  0.90418901  1
  Sc  Sc89  1  0.10490354  0.50053454  0.90040831  1
  Sc  Sc90  1  0.70120440  0.30216732  0.49487236  1
  Sc  Sc91  1  0.29719076  0.09797513  0.10410485  1
  Sc  Sc92  1  0.68941331  0.69996371  0.29551805  1
  Sc  Sc93  1  0.49678603  0.29330816  0.29636744  1
  Sc  Sc94  1  0.91167307  0.70866125  0.29471633  1
  Sc  Sc95  1  0.69873729  0.10461006  0.29630705  1
  Sc  Sc96  1  0.51014906  0.30513004  0.50117717  1
  Sc  Sc97  1  0.29477115  0.29748195  0.50016750  1
  Sc  Sc98  1  0.70405082  0.49794898  0.08976380  1
  Sc  Sc99  1  0.29489640  0.09707467  0.69217301  1
  Nb  Nb100  1  0.09499468  0.69507139  0.10524020  1
  Nb  Nb101  1  0.10053320  0.70345165  0.70371420  1
  Nb  Nb102  1  0.89551908  0.10093895  0.49774354  1
  Nb  Nb103  1  0.09752785  0.49608249  0.10365897  1
  Nb  Nb104  1  0.09658333  0.10157808  0.90000015  1
  Nb  Nb105  1  0.70677127  0.09547024  0.09908842  1
  Nb  Nb106  1  0.90385385  0.48871572  0.69987385  1
  Nb  Nb107  1  0.29338210  0.49340268  0.88767493  1
  Nb  Nb108  1  0.70333831  0.30470215  0.29973343  1
  Nb  Nb109  1  0.09881405  0.10699712  0.10114233  1
  Nb  Nb110  1  0.68955788  0.30113796  0.90012371  1
  Nb  Nb111  1  0.70070677  0.69655494  0.49716826  1
  Nb  Nb112  1  0.08419893  0.90014221  0.30309715  1
  Nb  Nb113  1  0.90412981  0.89936546  0.30570568  1
  Nb  Nb114  1  0.90218227  0.69855152  0.09876751  1
  Nb  Nb115  1  0.90392213  0.29508274  0.10036559  1
  Nb  Nb116  1  0.30272567  0.49857805  0.70134425  1
  Nb  Nb117  1  0.10792551  0.29897127  0.10294833  1
  Nb  Nb118  1  0.49791444  0.90645893  0.89265940  1
  Nb  Nb119  1  0.69964706  0.90149475  0.49504071  1
  Nb  Nb120  1  0.51156381  0.28305833  0.90083545  1
  Nb  Nb121  1  0.50460442  0.10764927  0.89619389  1
  Nb  Nb122  1  0.89737769  0.49933691  0.30160834  1
  Nb  Nb123  1  0.29002327  0.30044706  0.10053335  1
  Nb  Nb124  1  0.90291955  0.70160581  0.90804176  1
  Nb  Nb125  1  0.39742291  0.79652798  0.80171113  1
  Nb  Nb126  1  -0.00396289  0.40065616  0.39625260  1
  Nb  Nb127  1  0.80041821  -0.00550484  0.40202899  1
  Nb  Nb128  1  0.60601288  0.39112604  0.19554064  1
  Nb  Nb129  1  0.79764732  0.79844531  0.40177288  1
  Nb  Nb130  1  0.39966901  0.00160775  0.40109759  1
  Nb  Nb131  1  0.60455158  0.79691542  0.59074172  1
  Nb  Nb132  1  0.00574847  0.20268062  0.00568768  1
  Nb  Nb133  1  0.00335245  0.79636379  0.80831712  1
  Nb  Nb134  1  0.79874032  0.00248501  0.79995609  1
  Nb  Nb135  1  0.00069207  0.79861248  0.00404018  1
  Nb  Nb136  1  0.19541373  0.19897170  0.80214221  1
  Nb  Nb137  1  0.00259609  0.39417665  0.00955191  1
  Nb  Nb138  1  0.39665687  0.59599199  0.79899430  1
  Nb  Nb139  1  0.20220229  0.79645914  0.79898228  1
  Nb  Nb140  1  0.00528805  0.00449487  0.00704013  1
  Nb  Nb141  1  0.80169893  0.60332286  0.39642053  1
  Nb  Nb142  1  0.20133364  0.40579984  0.60633901  1
  Nb  Nb143  1  0.60397333  0.60431596  0.59678619  1
  Nb  Nb144  1  0.80644025  0.60049393  0.20331967  1
  Nb  Nb145  1  0.40351877  0.19956330  0.60058194  1
  Nb  Nb146  1  -0.00518329  0.00752209  0.59889753  1
  Nb  Nb147  1  0.19381287  0.59923555  0.19324213  1
  Nb  Nb148  1  0.39386450  0.39774449  0.39929662  1
  Nb  Nb149  1  0.19563535  0.19727854  0.39871871  1
  Pd  Pd150  1  0.80432179  0.80580098  -0.00246883  1
  Pd  Pd151  1  -0.00958140  0.00219162  0.19297590  1
  Pd  Pd152  1  -0.00934051  -0.00338127  0.80213791  1
  Pd  Pd153  1  0.41333239  0.40479272  0.81307679  1
  Pd  Pd154  1  0.20682437  0.00159182  0.79639983  1
  Pd  Pd155  1  -0.00049907  0.59448223  0.00427443  1
  Pd  Pd156  1  0.80714292  0.39580289  -0.00507162  1
  Pd  Pd157  1  0.60519141  0.20510604  0.19405850  1
  Pd  Pd158  1  -0.00472073  0.39033601  0.20342400  1
  Pd  Pd159  1  0.40358673  0.40085426  -0.01144845  1
  Pd  Pd160  1  0.39410131  0.00193885  0.80170517  1
  Pd  Pd161  1  0.79052771  0.19485878  0.80436851  1
  Pd  Pd162  1  0.40079635  0.59097062  0.39540711  1
  Pd  Pd163  1  0.59749991  0.00249191  -0.00734280  1
  Pd  Pd164  1  0.00167405  0.20761247  0.38921466  1
  Pd  Pd165  1  0.60333654  0.79846479  0.39796855  1
  Pd  Pd166  1  0.39192857  0.19344675  0.00177616  1
  Pd  Pd167  1  0.19264081  0.79917580  0.00080334  1
  Pd  Pd168  1  0.39701618  0.58951062  -0.00811771  1
  Pd  Pd169  1  -0.00734688  0.60419271  0.79669842  1
  Pd  Pd170  1  0.40553785  0.80700319  0.20623212  1
  Pd  Pd171  1  0.19713353  0.79972905  0.39639212  1
  Pd  Pd172  1  0.38985170  0.58929376  0.20114801  1
  Pd  Pd173  1  0.59782284  0.80181670  0.00088834  1
  Pd  Pd174  1  0.38982688  0.19055617  0.79602396  1
  Pd  Pd175  1  0.00560483  0.80860495  0.60635971  1
  Pd  Pd176  1  0.39483645  0.39078306  0.59041240  1
  Pd  Pd177  1  0.59269593  0.80189429  0.19177461  1
  Pd  Pd178  1  0.80762221  0.59822031  0.79860236  1
  Pd  Pd179  1  -0.00397706  0.59911859  0.39869683  1
  Pd  Pd180  1  0.80505148  0.80381022  0.80859864  1
  Pd  Pd181  1  0.40655024  0.80091184  0.59762942  1
  Pd  Pd182  1  0.60073747  0.80319002  0.79601893  1
  Pd  Pd183  1  0.39589946  0.81024325  0.39041744  1
  Pd  Pd184  1  0.20895297  0.60739273  0.79727528  1
  Pd  Pd185  1  0.59928266  0.40658661  0.80147979  1
  Pd  Pd186  1  0.60600377  0.20288948  0.39615697  1
  Pd  Pd187  1  0.59840944  0.59016515  0.79239366  1
  Pd  Pd188  1  0.39150712  0.20081025  0.40577827  1
  Pd  Pd189  1  0.61090155  0.59119596  0.19306709  1
  Pd  Pd190  1  0.79168891  0.79835071  0.59760039  1
  Pd  Pd191  1  0.19717427  0.00616206  0.20564710  1
  Pd  Pd192  1  0.60185716  -0.00214250  0.59857169  1
  Pd  Pd193  1  0.20238444  0.19555269  -0.00404452  1
  Pd  Pd194  1  0.40324910  0.00998123  -0.00119794  1
  Pd  Pd195  1  0.20636859  0.58922615  0.00977481  1
  Pd  Pd196  1  0.79440427  0.59650259  0.60030456  1
  Pd  Pd197  1  0.59928804  0.00327199  0.19951125  1
  Pd  Pd198  1  0.59624349  0.20220426  0.60338792  1
  Pd  Pd199  1  0.39573514  0.20098110  0.19103484  1
  Rh  Rh200  1  0.79636422  0.20583612  0.59712460  1
  Rh  Rh201  1  0.60226463  0.00713326  0.39601846  1
  Rh  Rh202  1  -0.00131718  0.60358416  0.20155504  1
  Rh  Rh203  1  0.80276665  0.00626617  0.21030368  1
  Rh  Rh204  1  0.80926239  0.40281706  0.40429645  1
  Rh  Rh205  1  0.79937787  0.40121371  0.80600120  1
  Rh  Rh206  1  -0.00548192  0.39876153  0.81302738  1
  Rh  Rh207  1  0.40839556  0.59989873  0.59816794  1
  Rh  Rh208  1  0.40200649  -0.00308680  0.20635844  1
  Rh  Rh209  1  0.80276752  0.79062565  0.21008593  1
  Rh  Rh210  1  0.60836931  0.19330486  0.79802312  1
  Rh  Rh211  1  0.40585669  0.00921534  0.59095896  1
  Rh  Rh212  1  0.80186933  0.60197887  0.00651254  1
  Rh  Rh213  1  0.40388985  0.39484915  0.20472381  1
  Rh  Rh214  1  0.00030851  0.80544750  0.19304245  1
  Rh  Rh215  1  0.20368894  0.00533936  0.39114607  1
  Rh  Rh216  1  -0.01122891  0.19478276  0.59892262  1
  Rh  Rh217  1  0.19684327  0.39003761  0.41030698  1
  Rh  Rh218  1  0.01125983  0.41139075  0.59080420  1
  Rh  Rh219  1  0.58890826  0.39126931  0.38520883  1
  Rh  Rh220  1  0.00606670  0.20890105  0.80974565  1
  Rh  Rh221  1  0.80357352  0.00272190  0.59836041  1
  Rh  Rh222  1  0.19507266  0.00679252  0.00922693  1
  Rh  Rh223  1  0.79585816  0.40220477  0.19550818  1
  Rh  Rh224  1  0.19247152  0.79416912  0.20614408  1
  Rh  Rh225  1  0.60801090  0.40328161  0.60618556  1
  Rh  Rh226  1  0.60210375  0.38982661  0.00377710  1
  Rh  Rh227  1  0.19687647  0.61073503  0.39197830  1
  Rh  Rh228  1  0.18979105  0.59176086  0.60582240  1
  Rh  Rh229  1  0.18662490  -0.00653783  0.60001558  1
  Rh  Rh230  1  0.21106191  0.21575976  0.61207713  1
  Rh  Rh231  1  0.60701222  0.60412969  0.00482986  1
  Rh  Rh232  1  -0.01268787  -0.00131779  0.40744471  1
  Rh  Rh233  1  0.20060008  0.39296121  0.79479969  1
  Rh  Rh234  1  0.60432140  0.19856529  0.00687089  1
  Rh  Rh235  1  0.19805420  0.40691973  0.00423791  1
  Rh  Rh236  1  0.60919850  0.00551669  0.80725501  1
  Rh  Rh237  1  -0.00397911  0.80029801  0.40897120  1
  Rh  Rh238  1  0.00032504  0.20188360  0.19755857  1
  Rh  Rh239  1  0.00472045  0.59574031  0.60807566  1
  Rh  Rh240  1  0.20457060  0.40856270  0.18870934  1
  Rh  Rh241  1  0.19911900  0.19304068  0.20595124  1
  Rh  Rh242  1  0.79463498  0.19314279  0.39839557  1
  Rh  Rh243  1  0.19497784  0.80642470  0.60193541  1
  Rh  Rh244  1  0.80436730  0.00337442  -0.00401441  1
  Rh  Rh245  1  0.80405192  0.19969863  -0.00406033  1
  Rh  Rh246  1  0.79651579  0.19698224  0.20179879  1
  Rh  Rh247  1  0.41012427  0.79981476  -0.00675416  1
  Rh  Rh248  1  0.60192495  0.59931249  0.40071423  1
  Rh  Rh249  1  0.79517677  0.39719121  0.59778194  1
