# generated using pymatgen
data_ZrScNbPdRh
_symmetry_space_group_name_H-M   'P 1'
_cell_length_a   16.56284964
_cell_length_b   16.56099287
_cell_length_c   16.56042905
_cell_angle_alpha   89.98595638
_cell_angle_beta   90.03710007
_cell_angle_gamma   90.00880819
_symmetry_Int_Tables_number   1
_chemical_formula_structural   ZrScNbPdRh
_chemical_formula_sum   'Zr50 Sc50 Nb50 Pd50 Rh50'
_cell_volume   4542.47875332
_cell_formula_units_Z   50
loop_
 _symmetry_equiv_pos_site_id
 _symmetry_equiv_pos_as_xyz
  1  'x, y, z'
loop_
 _atom_site_type_symbol
 _atom_site_label
 _atom_site_symmetry_multiplicity
 _atom_site_fract_x
 _atom_site_fract_y
 _atom_site_fract_z
 _atom_site_occupancy
  Zr  Zr0  1  0.09541651  0.89752277  0.89744589  1
  Zr  Zr1  1  0.69897468  0.70722164  0.70194740  1
  Zr  Zr2  1  0.68999097  0.70667711  0.10542838  1
  Zr  Zr3  1  0.49832037  0.09500544  0.09602434  1
  Zr  Zr4  1  0.10241014  0.29341938  0.30034431  1
  Zr  Zr5  1  0.30446677  0.49321281  0.51614684  1
  Zr  Zr6  1  0.89882497  0.51675083  0.89832843  1
  Zr  Zr7  1  0.29717011  0.09372628  0.09421937  1
  Zr  Zr8  1  0.70099232  0.90011848  0.09273774  1
  Zr  Zr9  1  0.29943592  0.09729434  0.50788764  1
  Zr  Zr10  1  0.49776810  0.90471894  0.30452126  1
  Zr  Zr11  1  0.49497889  0.10009456  0.50054781  1
  Zr  Zr12  1  0.09646772  0.69723221  0.09658112  1
  Zr  Zr13  1  0.89737636  0.70305875  0.70181568  1
  Zr  Zr14  1  0.10627261  0.50480660  0.50338820  1
  Zr  Zr15  1  0.30166228  0.29584110  0.29796666  1
  Zr  Zr16  1  0.69279394  0.49209708  0.51013256  1
  Zr  Zr17  1  0.89500802  0.90252396  0.29466749  1
  Zr  Zr18  1  0.30689949  0.29186449  0.50283993  1
  Zr  Zr19  1  0.89794433  0.29696184  0.50296770  1
  Zr  Zr20  1  0.70295043  0.70400903  0.49828742  1
  Zr  Zr21  1  0.50175934  0.89756791  0.90286874  1
  Zr  Zr22  1  0.69999391  0.30384909  0.08507897  1
  Zr  Zr23  1  0.89942588  0.50417558  0.10833267  1
  Zr  Zr24  1  0.70666244  0.10090395  0.49122363  1
  Zr  Zr25  1  0.49699221  0.70478166  0.09192785  1
  Zr  Zr26  1  0.30961197  0.29903605  0.89533543  1
  Zr  Zr27  1  0.09080196  0.50181052  0.29850504  1
  Zr  Zr28  1  0.50995532  0.10263575  0.29880466  1
  Zr  Zr29  1  0.49538680  0.10674987  0.89617359  1
  Zr  Zr30  1  0.09968307  0.09985618  0.49870105  1
  Zr  Zr31  1  0.69757456  0.89602253  0.49605661  1
  Zr  Zr32  1  0.09542721  0.90012178  0.69980627  1
  Zr  Zr33  1  0.68822606  0.10479275  0.90179028  1
  Zr  Zr34  1  0.89954778  0.90278450  0.09896067  1
  Zr  Zr35  1  0.49569294  0.29707977  0.29851415  1
  Zr  Zr36  1  0.10036917  0.69908758  0.30746010  1
  Zr  Zr37  1  0.68640315  0.29869494  0.30581911  1
  Zr  Zr38  1  0.89891806  0.09996283  0.50250431  1
  Zr  Zr39  1  0.90068129  0.50864961  0.70022993  1
  Zr  Zr40  1  0.29534219  0.29631329  0.09236381  1
  Zr  Zr41  1  0.10197097  0.89732514  0.50996062  1
  Zr  Zr42  1  0.50263790  0.89455780  0.09597072  1
  Zr  Zr43  1  0.70218176  0.29605087  0.50698852  1
  Zr  Zr44  1  0.10241234  0.09940451  0.10111846  1
  Zr  Zr45  1  0.69798049  0.89931468  0.89247824  1
  Zr  Zr46  1  0.50239226  0.30421341  0.49485569  1
  Zr  Zr47  1  0.31068348  0.49930636  0.28899622  1
  Zr  Zr48  1  0.49244068  0.50313901  0.69651792  1
  Zr  Zr49  1  0.89718295  0.90669589  0.50384871  1
  Sc  Sc50  1  0.89375053  0.69296298  0.29948903  1
  Sc  Sc51  1  0.29891213  0.49717562  0.08867809  1
  Sc  Sc52  1  0.10973486  0.29361058  0.71245789  1
  Sc  Sc53  1  0.10090502  0.29282193  0.48677489  1
  Sc  Sc54  1  0.50282284  0.30239454  0.09492477  1
  Sc  Sc55  1  0.30770179  0.69172964  0.09540361  1
  Sc  Sc56  1  0.50331882  0.48798366  0.29649729  1
  Sc  Sc57  1  0.70479121  0.49846959  0.10247030  1
  Sc  Sc58  1  0.50465468  0.69718582  0.69978951  1
  Sc  Sc59  1  0.29785189  0.71337051  0.49935347  1
  Sc  Sc60  1  0.29646099  0.90400807  0.69712323  1
  Sc  Sc61  1  0.91047294  0.29245049  0.90397539  1
  Sc  Sc62  1  0.49258351  0.50138930  0.10766083  1
  Sc  Sc63  1  0.10584818  0.70263087  0.50527522  1
  Sc  Sc64  1  0.89951708  0.09476697  0.09633837  1
  Sc  Sc65  1  0.70340268  0.50040156  0.90861358  1
  Sc  Sc66  1  0.49329657  0.29284584  0.70749711  1
  Sc  Sc67  1  0.49353324  0.89375803  0.49498886  1
  Sc  Sc68  1  0.30181128  0.10561072  0.69997952  1
  Sc  Sc69  1  0.30182619  0.69296519  0.90604271  1
  Sc  Sc70  1  0.69691564  0.90255429  0.29835435  1
  Sc  Sc71  1  0.89906002  0.30111631  0.09714067  1
  Sc  Sc72  1  0.30025859  0.70333969  0.31175920  1
  Sc  Sc73  1  0.70351560  0.70017188  0.30025019  1
  Sc  Sc74  1  0.09216341  0.90652305  0.29316409  1
  Sc  Sc75  1  0.09753654  0.71161116  0.69792035  1
  Sc  Sc76  1  0.89617100  0.50708658  0.29836997  1
  Sc  Sc77  1  0.90662959  0.30971024  0.30249030  1
  Sc  Sc78  1  0.09888195  0.09738963  0.89836962  1
  Sc  Sc79  1  0.29998785  0.70166536  0.70051685  1
  Sc  Sc80  1  0.90144126  0.89865279  0.90071015  1
  Sc  Sc81  1  0.90351659  0.09612873  0.70436448  1
  Sc  Sc82  1  0.50364882  0.69734470  0.29021700  1
  Sc  Sc83  1  0.30230725  0.49148317  0.89916451  1
  Sc  Sc84  1  0.30312335  0.10368421  0.29104936  1
  Sc  Sc85  1  0.89630768  0.70515003  0.09994552  1
  Sc  Sc86  1  0.30289684  0.09747357  0.89712550  1
  Sc  Sc87  1  0.10354190  0.09759269  0.70491393  1
  Sc  Sc88  1  0.29684960  0.90497938  0.89975109  1
  Sc  Sc89  1  0.70764181  0.70224449  0.89139654  1
  Sc  Sc90  1  0.89930069  0.09142217  0.30561619  1
  Sc  Sc91  1  0.69888359  0.09560087  0.09743268  1
  Sc  Sc92  1  0.49087821  0.09682826  0.70426040  1
  Sc  Sc93  1  0.50327622  0.89347476  0.70003111  1
  Sc  Sc94  1  0.89770643  0.51137568  0.50044530  1
  Sc  Sc95  1  0.90025349  0.29573758  0.70125330  1
  Sc  Sc96  1  0.91076383  0.09996455  0.89996552  1
  Sc  Sc97  1  0.10388263  0.28953939  0.90194134  1
  Sc  Sc98  1  0.09168570  0.90730752  0.09832453  1
  Sc  Sc99  1  0.70199776  0.09525993  0.70608373  1
  Nb  Nb100  1  0.50012358  0.50222073  0.50496584  1
  Nb  Nb101  1  0.10657352  0.49729246  0.69835865  1
  Nb  Nb102  1  0.29747562  0.89796897  0.48875243  1
  Nb  Nb103  1  0.10301798  0.50081541  0.09722144  1
  Nb  Nb104  1  0.51011430  0.30029330  0.90056319  1
  Nb  Nb105  1  0.70101065  0.89725434  0.70178337  1
  Nb  Nb106  1  0.49966192  0.69974178  0.89911470  1
  Nb  Nb107  1  0.30252536  0.30948209  0.70221498  1
  Nb  Nb108  1  0.09690192  0.69974438  0.90094557  1
  Nb  Nb109  1  0.29374950  0.48623677  0.70273244  1
  Nb  Nb110  1  0.69288886  0.30046187  0.90028837  1
  Nb  Nb111  1  0.90312463  0.90210073  0.70078016  1
  Nb  Nb112  1  0.70064687  0.49536744  0.70481497  1
  Nb  Nb113  1  0.70240585  0.50221384  0.30560559  1
  Nb  Nb114  1  0.29730473  0.89901518  0.10024688  1
  Nb  Nb115  1  0.10087813  0.29915867  0.09759833  1
  Nb  Nb116  1  0.70342204  0.29928353  0.69991665  1
  Nb  Nb117  1  0.50313082  0.49877126  0.89272240  1
  Nb  Nb118  1  0.10196263  0.50936020  0.90740209  1
  Nb  Nb119  1  0.90640110  0.70316751  0.89504022  1
  Nb  Nb120  1  0.50182794  0.69837317  0.50344182  1
  Nb  Nb121  1  0.70094020  0.10145788  0.29961007  1
  Nb  Nb122  1  0.89398380  0.70706898  0.49747823  1
  Nb  Nb123  1  0.10199963  0.10573558  0.30254809  1
  Nb  Nb124  1  0.29882327  0.89380736  0.30702556  1
  Nb  Nb125  1  0.39296262  0.80644008  0.19951671  1
  Nb  Nb126  1  0.00112179  0.19795682  0.20180969  1
  Nb  Nb127  1  0.40956850  0.59801483  0.40971740  1
  Nb  Nb128  1  0.60488851  0.39809814  0.80007649  1
  Nb  Nb129  1  0.79872869  0.39754813  0.80110814  1
  Nb  Nb130  1  0.79235326  0.20674348  0.80532403  1
  Nb  Nb131  1  0.00151124  0.20240900  0.59892137  1
  Nb  Nb132  1  0.59612570  0.59458536  0.40653430  1
  Nb  Nb133  1  0.00823142  0.40900961  -0.00168426  1
  Nb  Nb134  1  0.59364611  0.60248990  -0.00408388  1
  Nb  Nb135  1  0.19774080  0.79966144  0.00337802  1
  Nb  Nb136  1  0.19788429  0.59852517  0.19863386  1
  Nb  Nb137  1  0.79249264  0.40286810  0.40306091  1
  Nb  Nb138  1  0.20440948  0.40322531  0.39498112  1
  Nb  Nb139  1  0.00693729  0.40025958  0.60601044  1
  Nb  Nb140  1  0.20371524  0.79939898  0.19684213  1
  Nb  Nb141  1  0.79790520  0.19948541  0.20294053  1
  Nb  Nb142  1  0.19466088  0.59319034  0.79894380  1
  Nb  Nb143  1  -0.00712386  0.80094979  0.40498087  1
  Nb  Nb144  1  0.00407823  0.41010426  0.80258571  1
  Nb  Nb145  1  0.40295133  0.79682113  0.80708944  1
  Nb  Nb146  1  0.60315664  -0.00093863  0.59788188  1
  Nb  Nb147  1  0.60323479  0.19640097  0.60265301  1
  Nb  Nb148  1  0.19431925  0.40192313  0.19695299  1
  Nb  Nb149  1  0.20226664  -0.00089006  0.39833506  1
  Pd  Pd150  1  0.39717706  -0.00520124  0.20219367  1
  Pd  Pd151  1  0.40781685  0.40100433  0.00047002  1
  Pd  Pd152  1  0.19143044  0.38349012  0.59254702  1
  Pd  Pd153  1  0.60165390  0.59269285  0.19976410  1
  Pd  Pd154  1  0.39139151  0.60787534  0.59951880  1
  Pd  Pd155  1  0.20795711  0.79158769  0.80878245  1
  Pd  Pd156  1  0.81106427  0.40361848  0.60188555  1
  Pd  Pd157  1  0.20140500  -0.00529974  0.20688132  1
  Pd  Pd158  1  0.80158003  0.00477416  -0.00964551  1
  Pd  Pd159  1  0.60434811  0.40213157  0.19383005  1
  Pd  Pd160  1  0.80701117  0.20874405  0.38701588  1
  Pd  Pd161  1  0.80209140  0.80489144  0.60473146  1
  Pd  Pd162  1  0.59352477  -0.00043895  0.79208636  1
  Pd  Pd163  1  0.39663569  0.40659359  0.40254532  1
  Pd  Pd164  1  0.39242289  0.00838284  0.39534859  1
  Pd  Pd165  1  0.19488498  0.20485786  0.60466418  1
  Pd  Pd166  1  0.20177622  0.00304755  0.79923975  1
  Pd  Pd167  1  0.79723799  0.79987286  0.20236786  1
  Pd  Pd168  1  0.19228789  0.40167765  0.81346695  1
  Pd  Pd169  1  0.39770873  0.80205524  0.60636056  1
  Pd  Pd170  1  0.81455382  0.40015194  -0.01095796  1
  Pd  Pd171  1  0.40259296  0.20064239  0.18920840  1
  Pd  Pd172  1  0.00201692  0.79454528  0.20628839  1
  Pd  Pd173  1  0.00647653  -0.00530922  0.40091585  1
  Pd  Pd174  1  0.59526615  0.79089180  0.39310600  1
  Pd  Pd175  1  0.79410232  0.39243242  0.20986746  1
  Pd  Pd176  1  0.58884309  0.38986725  0.61338063  1
  Pd  Pd177  1  0.79278231  0.60206462  0.60155762  1
  Pd  Pd178  1  0.80329902  0.19466650  -0.00103914  1
  Pd  Pd179  1  0.79374587  0.00105417  0.60557798  1
  Pd  Pd180  1  0.38979959  0.60081336  0.79918079  1
  Pd  Pd181  1  0.60709261  0.59526791  0.80477766  1
  Pd  Pd182  1  0.60644219  0.20156248  0.18786933  1
  Pd  Pd183  1  0.00371419  0.60523070  0.59818508  1
  Pd  Pd184  1  0.79263363  0.61202348  0.00548461  1
  Pd  Pd185  1  0.20077703  0.19288918  -0.00896595  1
  Pd  Pd186  1  0.80023029  0.79529063  -0.00583001  1
  Pd  Pd187  1  -0.00755483  0.60218723  0.00707460  1
  Pd  Pd188  1  -0.00436099  0.60789378  0.40846774  1
  Pd  Pd189  1  -0.00276313  0.40755180  0.41070707  1
  Pd  Pd190  1  0.60608073  0.60458048  0.60124841  1
  Pd  Pd191  1  0.21531437  0.58983525  0.39826299  1
  Pd  Pd192  1  0.40423427  -0.01123240  0.60246785  1
  Pd  Pd193  1  0.80480918  0.00513470  0.80656197  1
  Pd  Pd194  1  0.39881095  -0.00310298  -0.00499618  1
  Pd  Pd195  1  0.20574305  0.60825981  0.60759761  1
  Pd  Pd196  1  0.01148709  0.60395935  0.79281207  1
  Pd  Pd197  1  0.40629062  0.58771019  -0.00694819  1
  Pd  Pd198  1  0.60529233  -0.00364185  0.19717757  1
  Pd  Pd199  1  0.00283372  0.39416272  0.19230854  1
  Rh  Rh200  1  0.40626263  0.39262168  0.60641619  1
  Rh  Rh201  1  0.59862827  0.00063242  -0.00157990  1
  Rh  Rh202  1  0.39317403  0.38858876  0.18841265  1
  Rh  Rh203  1  0.79344495  -0.00599304  0.39371038  1
  Rh  Rh204  1  0.40547211  0.20534548  0.60483441  1
  Rh  Rh205  1  0.38913514  0.80542862  -0.00294074  1
  Rh  Rh206  1  0.59404971  0.79833256  0.80038679  1
  Rh  Rh207  1  0.59335120  0.41371318  -0.00413371  1
  Rh  Rh208  1  0.79517725  0.60290914  0.19667510  1
  Rh  Rh209  1  0.21355794  0.19243130  0.39964546  1
  Rh  Rh210  1  0.59546970  0.19387233  0.40781597  1
  Rh  Rh211  1  0.41078825  0.78941748  0.39362461  1
  Rh  Rh212  1  0.20149539  0.60662791  -0.00120358  1
  Rh  Rh213  1  0.00279458  0.00833437  0.60679165  1
  Rh  Rh214  1  0.59439568  0.19727796  0.00568550  1
  Rh  Rh215  1  0.60236288  0.00418892  0.40529740  1
  Rh  Rh216  1  -0.00477445  0.20289366  0.79272906  1
  Rh  Rh217  1  -0.01024069  0.79731632  0.59527273  1
  Rh  Rh218  1  0.79060047  0.59430921  0.40699830  1
  Rh  Rh219  1  0.40049404  -0.01030414  0.79845140  1
  Rh  Rh220  1  0.40884365  0.40085856  0.79888532  1
  Rh  Rh221  1  0.00142154  0.60458733  0.19678952  1
  Rh  Rh222  1  0.80618959  0.80469863  0.39443721  1
  Rh  Rh223  1  0.21086702  0.19820046  0.80236104  1
  Rh  Rh224  1  0.60052757  0.80593842  0.59977645  1
  Rh  Rh225  1  0.80860636  0.80651825  0.79868681  1
  Rh  Rh226  1  0.20666683  0.80374444  0.60318087  1
  Rh  Rh227  1  0.59367237  0.80880588  0.20565004  1
  Rh  Rh228  1  -0.00301469  0.01279999  0.19868663  1
  Rh  Rh229  1  0.19468929  0.39536057  -0.00105044  1
  Rh  Rh230  1  0.19652395  -0.00460620  -0.00255025  1
  Rh  Rh231  1  -0.00041546  -0.00494894  0.79880510  1
  Rh  Rh232  1  0.00247413  0.20124808  0.01003044  1
  Rh  Rh233  1  -0.00529567  0.80153079  0.79953635  1
  Rh  Rh234  1  0.61066043  0.79161592  -0.01195493  1
  Rh  Rh235  1  0.40049254  0.19328338  0.39716921  1
  Rh  Rh236  1  0.60377695  0.20376889  0.79191157  1
  Rh  Rh237  1  0.20293510  -0.00284651  0.59657119  1
  Rh  Rh238  1  0.39635397  0.20223589  0.80014747  1
  Rh  Rh239  1  -0.00038702  -0.00130702  -0.00140104  1
  Rh  Rh240  1  0.18213473  0.81293957  0.39291190  1
  Rh  Rh241  1  0.80101557  0.18877557  0.61392217  1
  Rh  Rh242  1  0.40407939  0.20163498  -0.00166147  1
  Rh  Rh243  1  0.39317115  0.61353481  0.20910345  1
  Rh  Rh244  1  0.19571655  0.20257839  0.19512058  1
  Rh  Rh245  1  -0.00942133  0.19392133  0.39874397  1
  Rh  Rh246  1  0.79362759  0.59964596  0.79751138  1
  Rh  Rh247  1  0.79566184  0.00715759  0.19981512  1
  Rh  Rh248  1  0.00162009  0.79860150  -0.00391044  1
  Rh  Rh249  1  0.60183007  0.40737899  0.39972059  1
