# generated using pymatgen
data_ZrScNbPdRh
_symmetry_space_group_name_H-M   'P 1'
_cell_length_a   16.55794573
_cell_length_b   16.55764887
_cell_length_c   16.55472382
_cell_angle_alpha   89.98903579
_cell_angle_beta   90.02735060
_cell_angle_gamma   89.99324422
_symmetry_Int_Tables_number   1
_chemical_formula_structural   ZrScNbPdRh
_chemical_formula_sum   'Zr50 Sc50 Nb50 Pd50 Rh50'
_cell_volume   4538.65323419
_cell_formula_units_Z   50
loop_
 _symmetry_equiv_pos_site_id
 _symmetry_equiv_pos_as_xyz
  1  'x, y, z'
loop_
 _atom_site_type_symbol
 _atom_site_label
 _atom_site_symmetry_multiplicity
 _atom_site_fract_x
 _atom_site_fract_y
 _atom_site_fract_z
 _atom_site_occupancy
  Zr  Zr0  1  0.30080553  0.70477012  0.30740465  1
  Zr  Zr1  1  0.10001065  0.10267341  0.30388706  1
  Zr  Zr2  1  0.09127943  0.70010103  0.30305105  1
  Zr  Zr3  1  0.69634802  0.90517011  0.09665992  1
  Zr  Zr4  1  0.89960432  0.69586867  0.29654326  1
  Zr  Zr5  1  0.69226925  0.28463956  0.29815054  1
  Zr  Zr6  1  0.10024365  0.90081068  0.90077290  1
  Zr  Zr7  1  0.29362719  0.69064130  0.90626269  1
  Zr  Zr8  1  0.90070937  0.70089718  0.89394047  1
  Zr  Zr9  1  0.69575306  0.89808556  0.49635098  1
  Zr  Zr10  1  0.30883071  0.49420081  0.09567097  1
  Zr  Zr11  1  0.30661111  0.68891918  0.70140941  1
  Zr  Zr12  1  0.49865383  0.69857399  0.30599419  1
  Zr  Zr13  1  0.69799226  0.70162042  0.49871907  1
  Zr  Zr14  1  0.50242441  0.90229231  0.09787440  1
  Zr  Zr15  1  0.50222250  0.50143552  0.91654437  1
  Zr  Zr16  1  0.09764307  0.50137342  0.69226887  1
  Zr  Zr17  1  0.49497520  0.50408039  0.29483586  1
  Zr  Zr18  1  0.09565462  0.90180978  0.70409886  1
  Zr  Zr19  1  0.70102743  0.89741021  0.90695109  1
  Zr  Zr20  1  0.30769957  0.29580761  0.50288210  1
  Zr  Zr21  1  0.50695371  0.10063722  0.30227538  1
  Zr  Zr22  1  0.49681195  0.49785998  0.49055354  1
  Zr  Zr23  1  0.09429365  0.10554936  0.69912619  1
  Zr  Zr24  1  0.30462447  0.09879919  0.69492444  1
  Zr  Zr25  1  0.89921231  0.50193851  0.28895277  1
  Zr  Zr26  1  0.49738580  0.69863020  0.50182761  1
  Zr  Zr27  1  0.90968672  0.30510296  0.09982092  1
  Zr  Zr28  1  0.30372612  0.70672188  0.50380977  1
  Zr  Zr29  1  0.90336270  0.90396891  0.89601444  1
  Zr  Zr30  1  0.90335585  0.89746023  0.69879584  1
  Zr  Zr31  1  0.89812000  0.50277930  0.89601802  1
  Zr  Zr32  1  0.50425112  0.89895520  0.70103585  1
  Zr  Zr33  1  0.09330422  0.30881578  0.49911313  1
  Zr  Zr34  1  0.69984275  0.09489916  0.48951492  1
  Zr  Zr35  1  0.70062864  0.29393580  0.09826460  1
  Zr  Zr36  1  0.09997682  0.70193699  0.69805875  1
  Zr  Zr37  1  0.69115752  0.91252563  0.29990434  1
  Zr  Zr38  1  0.30457925  0.49545333  0.30059585  1
  Zr  Zr39  1  0.49657586  0.29582052  0.69324524  1
  Zr  Zr40  1  0.69356069  0.29070764  0.71490766  1
  Zr  Zr41  1  0.88780472  0.90283646  0.49529879  1
  Zr  Zr42  1  0.70110636  0.49643361  0.49791590  1
  Zr  Zr43  1  0.51621298  0.29702645  0.90358600  1
  Zr  Zr44  1  0.09718682  0.49690868  0.31804614  1
  Zr  Zr45  1  0.30359821  0.90009941  0.29738363  1
  Zr  Zr46  1  0.89421772  0.10744184  0.50471672  1
  Zr  Zr47  1  0.70275175  0.70187693  0.89948722  1
  Zr  Zr48  1  0.29978608  0.09569527  0.30231815  1
  Zr  Zr49  1  0.50210308  0.90162079  0.89651486  1
  Sc  Sc50  1  0.69687701  0.50502913  0.29929071  1
  Sc  Sc51  1  0.30906929  0.90113803  0.89527262  1
  Sc  Sc52  1  0.90165697  0.10797295  0.90088768  1
  Sc  Sc53  1  0.69623110  0.69217607  0.30145844  1
  Sc  Sc54  1  0.31335962  0.89776619  0.70013165  1
  Sc  Sc55  1  0.70293507  0.12088245  0.90454286  1
  Sc  Sc56  1  0.10429983  0.69544208  0.49762368  1
  Sc  Sc57  1  0.08889962  0.49837490  0.09154965  1
  Sc  Sc58  1  0.10718754  0.50574521  0.89996846  1
  Sc  Sc59  1  0.50101196  0.70313864  0.89785855  1
  Sc  Sc60  1  0.89621199  0.09900364  0.29168242  1
  Sc  Sc61  1  0.49830558  0.09723297  0.08833291  1
  Sc  Sc62  1  0.29608629  0.31640300  0.89922326  1
  Sc  Sc63  1  0.30068495  0.09762121  0.49664932  1
  Sc  Sc64  1  0.49421654  0.30020293  0.31057359  1
  Sc  Sc65  1  0.48082433  0.50001477  0.69999286  1
  Sc  Sc66  1  0.90192188  0.30047423  0.28910294  1
  Sc  Sc67  1  0.71388287  0.48241243  0.71024639  1
  Sc  Sc68  1  0.10368516  0.89754746  0.10552322  1
  Sc  Sc69  1  0.89958477  0.91028465  0.09576575  1
  Sc  Sc70  1  0.10464672  0.88894497  0.50005715  1
  Sc  Sc71  1  0.69228225  0.50607835  0.10382600  1
  Sc  Sc72  1  0.89768257  0.10559061  0.10180152  1
  Sc  Sc73  1  0.49713780  0.10285459  0.50053281  1
  Sc  Sc74  1  0.88845188  0.29626992  0.69334735  1
  Sc  Sc75  1  0.50451792  0.68864326  0.10269725  1
  Sc  Sc76  1  0.70204320  0.70595073  0.70055784  1
  Sc  Sc77  1  0.08879543  0.10155226  0.89806784  1
  Sc  Sc78  1  0.09210527  0.30502926  0.90602634  1
  Sc  Sc79  1  0.91045352  0.48747941  0.50336363  1
  Sc  Sc80  1  0.50075295  0.09714622  0.90295393  1
  Sc  Sc81  1  0.10079269  0.89874602  0.29828159  1
  Sc  Sc82  1  0.49758169  0.89921445  0.30211958  1
  Sc  Sc83  1  0.11172301  0.11002695  0.50556675  1
  Sc  Sc84  1  0.90296253  0.69963745  0.70347243  1
  Sc  Sc85  1  0.10363254  0.30042953  0.29668913  1
  Sc  Sc86  1  0.29981941  0.50456911  0.50498298  1
  Sc  Sc87  1  0.90921627  0.68695484  0.10550186  1
  Sc  Sc88  1  0.30491004  0.90088252  0.49430336  1
  Sc  Sc89  1  0.31670962  0.09964166  0.90448018  1
  Sc  Sc90  1  0.29322569  0.30140170  0.29893947  1
  Sc  Sc91  1  0.50510534  0.10007163  0.69230963  1
  Sc  Sc92  1  0.10411942  0.30332448  0.69709605  1
  Sc  Sc93  1  0.69799614  0.89540074  0.68471737  1
  Sc  Sc94  1  0.09289377  0.09900548  0.11140386  1
  Sc  Sc95  1  0.90673488  0.89564311  0.30116849  1
  Sc  Sc96  1  0.49897534  0.70833275  0.70034093  1
  Sc  Sc97  1  0.10251389  0.69363485  0.09710142  1
  Sc  Sc98  1  0.89668716  0.70814555  0.49241478  1
  Sc  Sc99  1  0.29118706  0.70079072  0.09827324  1
  Nb  Nb100  1  0.30071806  0.90184583  0.10000261  1
  Nb  Nb101  1  0.10585334  0.29810608  0.09928437  1
  Nb  Nb102  1  0.09690516  0.49552626  0.50237028  1
  Nb  Nb103  1  0.70069750  0.09936039  0.70245213  1
  Nb  Nb104  1  0.89398591  0.29810450  0.90572642  1
  Nb  Nb105  1  0.29794716  0.50692283  0.89100790  1
  Nb  Nb106  1  0.89706533  0.49967133  0.09736989  1
  Nb  Nb107  1  0.89796068  0.50192229  0.70247142  1
  Nb  Nb108  1  0.29069299  0.49012582  0.72166840  1
  Nb  Nb109  1  0.70392408  0.70272881  0.10195384  1
  Nb  Nb110  1  0.10681452  0.69999105  0.90876680  1
  Nb  Nb111  1  0.89826151  0.10219785  0.69988958  1
  Nb  Nb112  1  0.70262580  0.30049632  0.49903231  1
  Nb  Nb113  1  0.30217758  0.30667707  0.70693553  1
  Nb  Nb114  1  0.50446406  0.30113275  0.50064708  1
  Nb  Nb115  1  0.30575650  0.10008201  0.09580746  1
  Nb  Nb116  1  0.49148358  0.30763924  0.09412815  1
  Nb  Nb117  1  0.29951634  0.29847372  0.10071130  1
  Nb  Nb118  1  0.49746782  0.49394880  0.10393780  1
  Nb  Nb119  1  0.70142865  0.09770772  0.11354669  1
  Nb  Nb120  1  0.89287636  0.29776277  0.49662991  1
  Nb  Nb121  1  0.69508350  0.09934745  0.29056304  1
  Nb  Nb122  1  0.50836149  0.89714264  0.50173378  1
  Nb  Nb123  1  0.70118751  0.49516543  0.89847883  1
  Nb  Nb124  1  0.70405212  0.30838245  0.90076511  1
  Nb  Nb125  1  0.39711509  0.80149526  0.00330773  1
  Nb  Nb126  1  0.61116599  0.00265772  0.79870984  1
  Nb  Nb127  1  0.60020172  0.39650173  0.59724049  1
  Nb  Nb128  1  -0.00081130  0.00729114  0.40903669  1
  Nb  Nb129  1  0.80026442  0.59312362  0.60326745  1
  Nb  Nb130  1  0.20423412  0.19876261  0.00364061  1
  Nb  Nb131  1  -0.00864458  0.40296994  0.79830627  1
  Nb  Nb132  1  0.20611500  0.00554775  0.00089307  1
  Nb  Nb133  1  -0.00347844  0.20081862  0.40380321  1
  Nb  Nb134  1  0.00340277  0.79740576  -0.00483287  1
  Nb  Nb135  1  0.39765505  0.20760034  0.79730826  1
  Nb  Nb136  1  -0.00315664  0.00351588  0.59686291  1
  Nb  Nb137  1  0.20243457  0.00458420  0.80227141  1
  Nb  Nb138  1  0.79492175  0.79863148  0.19560346  1
  Nb  Nb139  1  0.19837712  0.59331122  0.20720432  1
  Nb  Nb140  1  0.20005849  0.79834779  0.80335767  1
  Nb  Nb141  1  0.59007322  0.39688013  0.19580189  1
  Nb  Nb142  1  0.80016854  0.39224912  0.39877501  1
  Nb  Nb143  1  0.60425698  0.58984625  0.60655106  1
  Nb  Nb144  1  0.79873920  0.40317629  -0.00078840  1
  Nb  Nb145  1  0.79720917  0.00618246  0.79549188  1
  Nb  Nb146  1  0.20654045  0.19934616  0.80466504  1
  Nb  Nb147  1  0.60515937  0.59275940  0.79868146  1
  Nb  Nb148  1  0.79857649  0.59624588  -0.00039592  1
  Nb  Nb149  1  0.39578263  0.20177806  0.19103039  1
  Pd  Pd150  1  0.19751615  0.40180637  -0.00130302  1
  Pd  Pd151  1  0.80601258  -0.00835432  0.20394030  1
  Pd  Pd152  1  -0.00887428  0.59819460  0.40998105  1
  Pd  Pd153  1  0.60726965  0.20003403  0.59260792  1
  Pd  Pd154  1  0.41086973  0.60217844  0.80646847  1
  Pd  Pd155  1  0.40635535  0.00702379  0.19944502  1
  Pd  Pd156  1  0.60347928  0.79702883  0.20321051  1
  Pd  Pd157  1  0.19684373  -0.00729517  0.60380740  1
  Pd  Pd158  1  0.80482711  0.19962240  0.38788849  1
  Pd  Pd159  1  0.78778343  0.20079676  0.60217192  1
  Pd  Pd160  1  0.81536620  0.79129519  0.01214557  1
  Pd  Pd161  1  0.39725017  0.40469112  0.59705721  1
  Pd  Pd162  1  0.20374739  0.60066455  0.40201869  1
  Pd  Pd163  1  0.60641380  0.60336578  -0.00216843  1
  Pd  Pd164  1  0.00799291  -0.00031956  0.00700515  1
  Pd  Pd165  1  0.79594842  0.01513855  -0.00746872  1
  Pd  Pd166  1  0.39159309  0.60801383  0.19437362  1
  Pd  Pd167  1  0.60142859  0.19532125  0.00807145  1
  Pd  Pd168  1  0.00923619  0.59739186  0.80340965  1
  Pd  Pd169  1  0.19311098  0.40921723  0.19335996  1
  Pd  Pd170  1  0.39759534  0.19902876  0.39518606  1
  Pd  Pd171  1  0.60513550  0.39746442  0.39363697  1
  Pd  Pd172  1  0.79470422  0.80999580  0.79215653  1
  Pd  Pd173  1  0.79148345  0.80286633  0.38312063  1
  Pd  Pd174  1  0.59133081  0.79282145  0.00288481  1
  Pd  Pd175  1  0.20658824  0.20765109  0.60467604  1
  Pd  Pd176  1  -0.00808828  0.39136751  0.60949572  1
  Pd  Pd177  1  0.40172369  0.79385155  0.19157813  1
  Pd  Pd178  1  0.01110883  0.40317750  0.20181381  1
  Pd  Pd179  1  0.20414531  0.19462285  0.19632648  1
  Pd  Pd180  1  0.00613050  0.19785133  0.00523719  1
  Pd  Pd181  1  0.58835206  0.40947140  0.79138204  1
  Pd  Pd182  1  0.19338686  -0.00603298  0.40373983  1
  Pd  Pd183  1  0.19698489  0.79192516  0.20242495  1
  Pd  Pd184  1  0.58296663  0.20376358  0.18852202  1
  Pd  Pd185  1  0.41228928  0.39580345  0.81169303  1
  Pd  Pd186  1  0.20716460  0.40229747  0.59722411  1
  Pd  Pd187  1  -0.00681615  0.80331930  0.18805758  1
  Pd  Pd188  1  0.80986502  0.58851438  0.40852462  1
  Pd  Pd189  1  0.79985569  0.00075848  0.60470905  1
  Pd  Pd190  1  0.78676288  0.39998753  0.20004591  1
  Pd  Pd191  1  0.20696833  0.39591929  0.40894808  1
  Pd  Pd192  1  0.20935183  0.80533246  0.60873052  1
  Pd  Pd193  1  -0.00163506  0.21409686  0.79619845  1
  Pd  Pd194  1  -0.01014046  0.60576295  0.59109068  1
  Pd  Pd195  1  0.39726133  0.39774826  -0.01002237  1
  Pd  Pd196  1  0.20470690  0.59457089  0.60197624  1
  Pd  Pd197  1  0.40640245  -0.00400167  0.59254615  1
  Pd  Pd198  1  -0.00537306  0.80114177  0.59074197  1
  Pd  Pd199  1  0.19926559  0.00296879  0.19502804  1
  Rh  Rh200  1  0.20236823  0.81274382  -0.00413475  1
  Rh  Rh201  1  0.80279538  0.19955398  0.19784085  1
  Rh  Rh202  1  0.00244595  0.20353661  0.20442275  1
  Rh  Rh203  1  0.59657234  0.79154718  0.59761780  1
  Rh  Rh204  1  0.19551295  0.20642881  0.40237456  1
  Rh  Rh205  1  0.59905217  0.59673496  0.20135122  1
  Rh  Rh206  1  0.40456041  0.38827145  0.20626684  1
  Rh  Rh207  1  0.18499308  0.39579119  0.80379885  1
  Rh  Rh208  1  0.79650538  0.60499902  0.19286987  1
  Rh  Rh209  1  0.19977183  0.80286108  0.39533422  1
  Rh  Rh210  1  0.79640353  0.40121853  0.59396320  1
  Rh  Rh211  1  0.40636940  0.80751906  0.40471246  1
  Rh  Rh212  1  0.59634013  0.60248936  0.40443172  1
  Rh  Rh213  1  0.59027660  0.18964549  0.80189640  1
  Rh  Rh214  1  0.59116599  0.00462066  0.19525984  1
  Rh  Rh215  1  0.38970961  0.78799354  0.81047481  1
  Rh  Rh216  1  0.80192059  0.20412730  0.00805387  1
  Rh  Rh217  1  0.60144553  0.00222230  0.59922091  1
  Rh  Rh218  1  0.01088430  0.78976633  0.80818098  1
  Rh  Rh219  1  0.39540983  0.39672133  0.40164074  1
  Rh  Rh220  1  0.01170903  0.59009819  0.20299339  1
  Rh  Rh221  1  -0.00600249  0.00736148  0.79208723  1
  Rh  Rh222  1  0.40926192  0.01241718  0.79270983  1
  Rh  Rh223  1  -0.00673612  0.40109527  -0.00720682  1
  Rh  Rh224  1  0.39517256  0.21333921  -0.00451606  1
  Rh  Rh225  1  0.80486294  0.19860124  0.80113236  1
  Rh  Rh226  1  -0.00574426  0.60554313  -0.00636246  1
  Rh  Rh227  1  0.80528233  0.78821204  0.60204766  1
  Rh  Rh228  1  -0.00983975  0.39170320  0.39414149  1
  Rh  Rh229  1  0.39393655  0.60022094  0.40182680  1
  Rh  Rh230  1  0.60676437  0.80391027  0.79877136  1
  Rh  Rh231  1  -0.00166243  0.20188584  0.59601337  1
  Rh  Rh232  1  0.60895722  0.40064466  0.01053720  1
  Rh  Rh233  1  0.61103918  0.00953623  -0.00648791  1
  Rh  Rh234  1  0.59952965  0.79891967  0.39630940  1
  Rh  Rh235  1  0.40630046  -0.00274340  0.40233629  1
  Rh  Rh236  1  0.39794417  0.60357695  0.00263132  1
  Rh  Rh237  1  0.59324337  0.00237937  0.40359629  1
  Rh  Rh238  1  0.39724528  -0.01259743  0.00124426  1
  Rh  Rh239  1  0.19277733  0.60470497  0.79326161  1
  Rh  Rh240  1  0.40203123  0.80510202  0.59750054  1
  Rh  Rh241  1  0.00356231  0.80541646  0.40250453  1
  Rh  Rh242  1  0.80342782  0.00446871  0.38948612  1
  Rh  Rh243  1  0.59940827  0.19689706  0.40694798  1
  Rh  Rh244  1  -0.00015171  -0.00234227  0.20888883  1
  Rh  Rh245  1  0.78985861  0.60392162  0.79677957  1
  Rh  Rh246  1  0.39615633  0.20016168  0.60193925  1
  Rh  Rh247  1  0.20398130  0.58697325  0.01182192  1
  Rh  Rh248  1  0.80992002  0.38932065  0.80569388  1
  Rh  Rh249  1  0.40279352  0.59725347  0.60005343  1
