# generated using pymatgen
data_ZrScNbPdRh
_symmetry_space_group_name_H-M   'P 1'
_cell_length_a   16.56198891
_cell_length_b   16.56368001
_cell_length_c   16.55864157
_cell_angle_alpha   89.97584239
_cell_angle_beta   90.03642570
_cell_angle_gamma   90.00677971
_symmetry_Int_Tables_number   1
_chemical_formula_structural   ZrScNbPdRh
_chemical_formula_sum   'Zr50 Sc50 Nb50 Pd50 Rh50'
_cell_volume   4542.48913935
_cell_formula_units_Z   50
loop_
 _symmetry_equiv_pos_site_id
 _symmetry_equiv_pos_as_xyz
  1  'x, y, z'
loop_
 _atom_site_type_symbol
 _atom_site_label
 _atom_site_symmetry_multiplicity
 _atom_site_fract_x
 _atom_site_fract_y
 _atom_site_fract_z
 _atom_site_occupancy
  Zr  Zr0  1  0.10225545  0.31011815  0.70811872  1
  Zr  Zr1  1  0.90377054  0.70761860  0.09509976  1
  Zr  Zr2  1  0.89237609  0.10965154  0.70098484  1
  Zr  Zr3  1  0.69785089  0.69577395  0.70525173  1
  Zr  Zr4  1  0.90068243  0.90405621  0.10232318  1
  Zr  Zr5  1  0.70512906  0.89345544  0.49943756  1
  Zr  Zr6  1  0.70019449  0.10386080  0.70521551  1
  Zr  Zr7  1  0.29931962  0.69587676  0.90052305  1
  Zr  Zr8  1  0.30048321  0.89321323  0.89893359  1
  Zr  Zr9  1  0.50089434  0.10492251  0.31027300  1
  Zr  Zr10  1  0.69526594  0.09856277  0.50516894  1
  Zr  Zr11  1  0.49685610  0.10271021  0.09799171  1
  Zr  Zr12  1  0.30477782  0.69216122  0.10003211  1
  Zr  Zr13  1  0.10049150  0.68975980  0.49806404  1
  Zr  Zr14  1  0.70324330  0.30887494  0.10166551  1
  Zr  Zr15  1  0.50132901  0.50312782  0.30449826  1
  Zr  Zr16  1  0.69141462  0.50211651  0.88581235  1
  Zr  Zr17  1  0.50867822  0.89747908  0.10118869  1
  Zr  Zr18  1  0.29684904  0.49412980  0.69623222  1
  Zr  Zr19  1  0.30320658  0.50096088  0.29586282  1
  Zr  Zr20  1  0.89930478  0.49229146  0.09895277  1
  Zr  Zr21  1  0.70446395  0.09136036  0.09104972  1
  Zr  Zr22  1  0.50583672  0.29700345  0.30497219  1
  Zr  Zr23  1  0.90945989  0.10197812  0.50069338  1
  Zr  Zr24  1  0.49634004  0.90075808  0.30322198  1
  Zr  Zr25  1  0.70395445  0.90327539  0.10081509  1
  Zr  Zr26  1  0.10513226  0.69422501  0.70127658  1
  Zr  Zr27  1  0.69277514  0.89618514  0.69708253  1
  Zr  Zr28  1  0.90694356  0.30031380  0.51015087  1
  Zr  Zr29  1  0.69818854  0.30411141  0.29922122  1
  Zr  Zr30  1  0.49854590  0.30050660  0.10261409  1
  Zr  Zr31  1  0.09931361  0.50016627  0.10273782  1
  Zr  Zr32  1  0.09622457  0.90644709  0.50313455  1
  Zr  Zr33  1  0.10467085  0.09752291  0.10491578  1
  Zr  Zr34  1  0.70095463  0.10366941  0.88938497  1
  Zr  Zr35  1  0.09574480  0.89528224  0.09991884  1
  Zr  Zr36  1  0.49935762  0.49717252  0.70572318  1
  Zr  Zr37  1  0.70111275  0.49706382  0.50377146  1
  Zr  Zr38  1  0.49368144  0.49173364  0.49913098  1
  Zr  Zr39  1  0.09938334  0.30025879  0.50347840  1
  Zr  Zr40  1  0.71136388  0.70227464  0.50516470  1
  Zr  Zr41  1  0.50423384  0.10069336  0.89630779  1
  Zr  Zr42  1  0.09540269  0.10254840  0.49994296  1
  Zr  Zr43  1  0.10216078  0.90010361  0.29046301  1
  Zr  Zr44  1  0.70583454  0.69822606  0.31074164  1
  Zr  Zr45  1  0.30382985  0.89623972  0.49675221  1
  Zr  Zr46  1  0.09712393  0.30733829  0.11195777  1
  Zr  Zr47  1  0.49578230  0.69418268  0.49765542  1
  Zr  Zr48  1  0.29396996  0.30136771  0.89484965  1
  Zr  Zr49  1  0.10186926  0.11263625  0.30388430  1
  Sc  Sc50  1  0.90954769  0.09904352  0.29925043  1
  Sc  Sc51  1  0.69662784  0.49572427  0.09079060  1
  Sc  Sc52  1  0.70197264  0.49488930  0.30579216  1
  Sc  Sc53  1  0.30004572  0.10466798  0.09757245  1
  Sc  Sc54  1  0.29808515  0.70168236  0.30023563  1
  Sc  Sc55  1  0.29867044  0.68957860  0.49431712  1
  Sc  Sc56  1  0.09844347  0.50086463  0.69502509  1
  Sc  Sc57  1  0.28728777  0.89719368  0.10082347  1
  Sc  Sc58  1  0.51220471  0.10265279  0.69821409  1
  Sc  Sc59  1  0.30260048  0.69216690  0.70909807  1
  Sc  Sc60  1  0.30010086  0.09526854  0.90304467  1
  Sc  Sc61  1  0.89452905  0.68972048  0.69874712  1
  Sc  Sc62  1  0.89836464  0.50239305  0.30450068  1
  Sc  Sc63  1  0.30557470  0.10393799  0.49748092  1
  Sc  Sc64  1  0.90096368  0.49699846  0.89456446  1
  Sc  Sc65  1  0.69303704  0.30533751  0.50340477  1
  Sc  Sc66  1  0.69534355  0.90255855  0.30201302  1
  Sc  Sc67  1  0.30049091  0.50440979  0.09733909  1
  Sc  Sc68  1  0.09948532  0.09716295  0.90159348  1
  Sc  Sc69  1  0.90846466  0.30880958  0.29693161  1
  Sc  Sc70  1  0.29920390  0.29575010  0.10013461  1
  Sc  Sc71  1  0.69682466  0.09878095  0.29741928  1
  Sc  Sc72  1  0.90192317  0.09082521  0.09594828  1
  Sc  Sc73  1  0.49036948  0.70253752  0.29680232  1
  Sc  Sc74  1  0.89594420  0.89726459  0.70294867  1
  Sc  Sc75  1  0.69791724  0.30333234  0.70137498  1
  Sc  Sc76  1  0.10052543  0.50067293  0.50651725  1
  Sc  Sc77  1  0.09075813  0.50099182  0.89649165  1
  Sc  Sc78  1  0.10083967  0.09044267  0.70460854  1
  Sc  Sc79  1  0.29654659  0.90268575  0.71199615  1
  Sc  Sc80  1  0.89963700  0.09753826  0.89415487  1
  Sc  Sc81  1  0.50772863  0.90334819  0.49310410  1
  Sc  Sc82  1  0.30049623  0.10480571  0.29728169  1
  Sc  Sc83  1  0.90139912  0.50198222  0.50235798  1
  Sc  Sc84  1  0.31130182  0.30229559  0.50532599  1
  Sc  Sc85  1  0.09419155  0.50258154  0.29564145  1
  Sc  Sc86  1  0.09781682  0.69977465  0.89592035  1
  Sc  Sc87  1  0.10502218  0.89760169  0.89977004  1
  Sc  Sc88  1  0.89743430  0.90014756  0.50300453  1
  Sc  Sc89  1  0.90006480  0.69391999  0.30762103  1
  Sc  Sc90  1  0.49232299  0.50550845  0.08937383  1
  Sc  Sc91  1  0.49954780  0.90218015  0.88950124  1
  Sc  Sc92  1  0.29950286  0.29204476  0.29473877  1
  Sc  Sc93  1  0.49717871  0.50143005  0.89844622  1
  Sc  Sc94  1  0.69521381  0.90843539  0.90497285  1
  Sc  Sc95  1  0.29797811  0.89368609  0.29733862  1
  Sc  Sc96  1  0.10384640  0.90023772  0.70915592  1
  Sc  Sc97  1  0.49690828  0.31293138  0.89342699  1
  Sc  Sc98  1  0.90685812  0.89939683  0.90828746  1
  Sc  Sc99  1  0.10296985  0.70043846  0.10141346  1
  Nb  Nb100  1  0.49907502  0.29970687  0.69298181  1
  Nb  Nb101  1  0.90190678  0.30620023  0.70553204  1
  Nb  Nb102  1  0.89743634  0.30622876  0.09601194  1
  Nb  Nb103  1  0.50457921  0.69873327  0.09445090  1
  Nb  Nb104  1  0.69511915  0.70480559  0.09373602  1
  Nb  Nb105  1  0.89309627  0.69779191  0.89779841  1
  Nb  Nb106  1  0.50469262  0.69708604  0.89551885  1
  Nb  Nb107  1  0.90064536  0.89922942  0.29807244  1
  Nb  Nb108  1  0.50073511  0.70462648  0.70906967  1
  Nb  Nb109  1  0.50394492  0.28908600  0.50341608  1
  Nb  Nb110  1  0.29804312  0.49859033  0.49707068  1
  Nb  Nb111  1  0.90660474  0.30373363  0.89733088  1
  Nb  Nb112  1  0.89801884  0.70374563  0.49834747  1
  Nb  Nb113  1  0.88387874  0.49205648  0.69796271  1
  Nb  Nb114  1  0.70107545  0.50174091  0.69421925  1
  Nb  Nb115  1  0.10657001  0.30347067  0.29983827  1
  Nb  Nb116  1  0.69885792  0.29709201  0.89820116  1
  Nb  Nb117  1  0.50203664  0.10714266  0.49811623  1
  Nb  Nb118  1  0.69279614  0.69618922  0.90131126  1
  Nb  Nb119  1  0.29757534  0.29967952  0.70194686  1
  Nb  Nb120  1  0.09546173  0.70467246  0.30149267  1
  Nb  Nb121  1  0.09396766  0.30546781  0.90046445  1
  Nb  Nb122  1  0.49671270  0.89148737  0.69955873  1
  Nb  Nb123  1  0.31153953  0.49494442  0.90268811  1
  Nb  Nb124  1  0.29880164  0.09917367  0.70106007  1
  Nb  Nb125  1  0.79544556  0.60673498  -0.00362667  1
  Nb  Nb126  1  0.39571279  0.20402153  0.78934925  1
  Nb  Nb127  1  0.00372224  0.79355717  0.59645274  1
  Nb  Nb128  1  0.60654531  0.20563513  -0.00385443  1
  Nb  Nb129  1  0.20130582  0.79726419  0.59989127  1
  Nb  Nb130  1  0.40399022  -0.00009651  0.19989641  1
  Nb  Nb131  1  0.79433384  0.79119138  0.80942910  1
  Nb  Nb132  1  0.40495178  -0.00151034  0.60319339  1
  Nb  Nb133  1  0.20514879  0.20163109  0.60992739  1
  Nb  Nb134  1  0.19707079  0.39916830  -0.00438171  1
  Nb  Nb135  1  0.20168865  0.39882603  0.39859489  1
  Nb  Nb136  1  0.19508858  0.00175671  0.40009706  1
  Nb  Nb137  1  0.00074542  0.79858808  0.40188581  1
  Nb  Nb138  1  0.79909949  0.79699903  0.19890791  1
  Nb  Nb139  1  0.80308247  0.20395156  0.19540708  1
  Nb  Nb140  1  0.79341300  0.60583977  0.18945824  1
  Nb  Nb141  1  0.40336877  0.39956259  0.20092773  1
  Nb  Nb142  1  0.40697561  0.79260387  -0.00037493  1
  Nb  Nb143  1  0.80348963  0.20944918  -0.00250462  1
  Nb  Nb144  1  0.39976307  0.80163496  0.60574828  1
  Nb  Nb145  1  -0.00341117  0.21084204  -0.00012552  1
  Nb  Nb146  1  0.80310046  0.19943948  0.39848480  1
  Nb  Nb147  1  0.80406282  0.00417802  0.40149884  1
  Nb  Nb148  1  0.60395256  0.60751724  0.19310472  1
  Nb  Nb149  1  0.59782806  0.59918508  0.60472498  1
  Pd  Pd150  1  0.01159821  0.20109311  0.61813858  1
  Pd  Pd151  1  0.21042529  0.00121511  0.59487680  1
  Pd  Pd152  1  0.39261309  0.00301262  0.39840524  1
  Pd  Pd153  1  -0.00848579  0.60368603  0.20057564  1
  Pd  Pd154  1  0.39823867  -0.01301182  0.00816801  1
  Pd  Pd155  1  0.00266250  0.00474102  0.20157288  1
  Pd  Pd156  1  0.39862242  0.19107872  0.60517719  1
  Pd  Pd157  1  -0.00791320  0.20178422  0.19499540  1
  Pd  Pd158  1  0.60897156  0.19405609  0.19137743  1
  Pd  Pd159  1  0.40655850  0.20759748  -0.01352979  1
  Pd  Pd160  1  0.59303473  0.41535495  0.19608702  1
  Pd  Pd161  1  0.19881067  0.19201946  0.79925376  1
  Pd  Pd162  1  0.20168551  0.58944692  0.80650866  1
  Pd  Pd163  1  0.80519045  0.39272604  0.40533788  1
  Pd  Pd164  1  0.00262380  0.19746988  0.80230062  1
  Pd  Pd165  1  0.00857842  0.40272244  0.40047859  1
  Pd  Pd166  1  0.40016234  0.39792259  0.60210997  1
  Pd  Pd167  1  0.19920458  -0.00187665  -0.00076960  1
  Pd  Pd168  1  0.80128463  -0.01225598  0.80351182  1
  Pd  Pd169  1  0.18930072  0.20750275  0.00263664  1
  Pd  Pd170  1  0.79684137  0.80142360  -0.00324251  1
  Pd  Pd171  1  0.20787439  0.20546423  0.41068073  1
  Pd  Pd172  1  0.19843889  0.41257909  0.80783468  1
  Pd  Pd173  1  0.80326626  -0.00071625  0.59806224  1
  Pd  Pd174  1  0.60591234  0.79338703  0.20919764  1
  Pd  Pd175  1  0.59599337  0.79568104  0.39872976  1
  Pd  Pd176  1  0.59455351  0.80588081  -0.01074033  1
  Pd  Pd177  1  0.00764444  0.79710204  -0.00707884  1
  Pd  Pd178  1  0.19685547  0.60462080  0.20599946  1
  Pd  Pd179  1  0.79814904  0.40536340  -0.01409985  1
  Pd  Pd180  1  -0.00571455  -0.00621539  0.61335213  1
  Pd  Pd181  1  0.39499424  0.39029614  0.39307120  1
  Pd  Pd182  1  0.40038670  0.60389385  0.60489453  1
  Pd  Pd183  1  0.19409752  0.80349084  0.40439965  1
  Pd  Pd184  1  -0.00827901  0.59465945  0.79260329  1
  Pd  Pd185  1  0.40521870  0.00876033  0.79190354  1
  Pd  Pd186  1  0.59510909  0.40021258  -0.00486954  1
  Pd  Pd187  1  0.59338820  -0.00190034  0.60003474  1
  Pd  Pd188  1  -0.00332955  -0.00309761  0.79983243  1
  Pd  Pd189  1  0.59213349  0.79114303  0.59574102  1
  Pd  Pd190  1  0.19590493  0.59085453  -0.00713395  1
  Pd  Pd191  1  0.79327332  0.20939611  0.59673695  1
  Pd  Pd192  1  0.39499839  0.80536212  0.19052619  1
  Pd  Pd193  1  0.79571434  0.39545507  0.80258541  1
  Pd  Pd194  1  0.60218123  0.60002353  0.40312028  1
  Pd  Pd195  1  0.59518485  0.00546013  0.20340398  1
  Pd  Pd196  1  -0.00850074  0.59792007  0.60384967  1
  Pd  Pd197  1  0.19635071  0.58989116  0.39265821  1
  Pd  Pd198  1  -0.00421099  0.60030050  -0.00174691  1
  Pd  Pd199  1  -0.00823612  0.79611848  0.79514891  1
  Rh  Rh200  1  0.60079706  0.39704174  0.79355553  1
  Rh  Rh201  1  0.60135314  0.59594097  0.00135166  1
  Rh  Rh202  1  -0.00462870  0.40659694  0.60812909  1
  Rh  Rh203  1  0.79813711  0.59808153  0.59574980  1
  Rh  Rh204  1  0.40081513  0.59638283  0.80326623  1
  Rh  Rh205  1  0.40525581  0.60658570  -0.00865845  1
  Rh  Rh206  1  0.60445570  0.20242430  0.60199047  1
  Rh  Rh207  1  0.59386027  0.59894669  0.79354894  1
  Rh  Rh208  1  0.20051082  0.79053925  0.19571516  1
  Rh  Rh209  1  0.59589457  0.39598146  0.40800081  1
  Rh  Rh210  1  0.20336878  0.39472176  0.59013168  1
  Rh  Rh211  1  0.60754378  0.00240130  0.40312746  1
  Rh  Rh212  1  0.20953957  0.60120985  0.60096024  1
  Rh  Rh213  1  0.19985403  0.79570492  0.79500184  1
  Rh  Rh214  1  0.80915082  0.81066672  0.39315217  1
  Rh  Rh215  1  0.60900187  0.20122189  0.40571745  1
  Rh  Rh216  1  0.00134103  -0.01028648  0.39146020  1
  Rh  Rh217  1  0.39884554  0.39639499  0.79340099  1
  Rh  Rh218  1  0.59796250  -0.00604714  0.79264897  1
  Rh  Rh219  1  0.39876186  0.79379580  0.80362917  1
  Rh  Rh220  1  0.58861343  0.21193854  0.80243089  1
  Rh  Rh221  1  0.39951173  0.20470042  0.40060957  1
  Rh  Rh222  1  0.80665848  0.21085367  0.80277904  1
  Rh  Rh223  1  0.59407330  0.40386263  0.60182866  1
  Rh  Rh224  1  0.00475448  0.00469677  -0.00084764  1
  Rh  Rh225  1  0.80293418  0.40485696  0.20546357  1
  Rh  Rh226  1  0.38926729  0.39642229  0.00805351  1
  Rh  Rh227  1  0.40113894  0.19880441  0.20350322  1
  Rh  Rh228  1  -0.00666186  0.21230997  0.39463856  1
  Rh  Rh229  1  0.80251664  -0.00208338  0.21051337  1
  Rh  Rh230  1  -0.00280512  0.40458042  0.20402428  1
  Rh  Rh231  1  0.20149616  0.00290058  0.81011314  1
  Rh  Rh232  1  0.39477282  0.60138947  0.39627984  1
  Rh  Rh233  1  0.20063967  0.19978497  0.19497652  1
  Rh  Rh234  1  0.80908981  0.79702115  0.61326016  1
  Rh  Rh235  1  0.80280739  0.59245940  0.40409939  1
  Rh  Rh236  1  -0.00070097  0.60240957  0.40112731  1
  Rh  Rh237  1  0.59621511  0.00566552  -0.00459135  1
  Rh  Rh238  1  0.79981658  0.60023468  0.80519456  1
  Rh  Rh239  1  0.00648924  0.39968680  0.00215255  1
  Rh  Rh240  1  0.20896201  0.00602713  0.20809930  1
  Rh  Rh241  1  0.20296105  0.79366680  0.00047495  1
  Rh  Rh242  1  0.60622078  0.80496327  0.80633755  1
  Rh  Rh243  1  -0.00380846  0.40745974  0.79219577  1
  Rh  Rh244  1  0.80156815  0.39475105  0.59876585  1
  Rh  Rh245  1  0.80544681  0.00460800  -0.00971839  1
  Rh  Rh246  1  -0.00699165  0.79370925  0.20866297  1
  Rh  Rh247  1  0.41047440  0.59468403  0.20114827  1
  Rh  Rh248  1  0.21020880  0.40003154  0.20100612  1
  Rh  Rh249  1  0.40136331  0.79555610  0.40610113  1
