# generated using pymatgen
data_ZrScNbPdRh
_symmetry_space_group_name_H-M   'P 1'
_cell_length_a   16.55719140
_cell_length_b   16.55739729
_cell_length_c   16.56446930
_cell_angle_alpha   89.99882839
_cell_angle_beta   90.03751948
_cell_angle_gamma   89.99224798
_symmetry_Int_Tables_number   1
_chemical_formula_structural   ZrScNbPdRh
_chemical_formula_sum   'Zr50 Sc50 Nb50 Pd50 Rh50'
_cell_volume   4541.04878808
_cell_formula_units_Z   50
loop_
 _symmetry_equiv_pos_site_id
 _symmetry_equiv_pos_as_xyz
  1  'x, y, z'
loop_
 _atom_site_type_symbol
 _atom_site_label
 _atom_site_symmetry_multiplicity
 _atom_site_fract_x
 _atom_site_fract_y
 _atom_site_fract_z
 _atom_site_occupancy
  Zr  Zr0  1  0.70038559  0.30389179  0.30048169  1
  Zr  Zr1  1  0.09852117  0.50036429  0.89879480  1
  Zr  Zr2  1  0.10224181  0.49749150  0.49206842  1
  Zr  Zr3  1  0.50023174  0.69457030  0.69799583  1
  Zr  Zr4  1  0.90219267  0.50631262  0.10640640  1
  Zr  Zr5  1  0.09854457  0.90213551  0.68874558  1
  Zr  Zr6  1  0.29128239  0.90343780  0.30305652  1
  Zr  Zr7  1  0.69398733  0.10770440  0.09940218  1
  Zr  Zr8  1  0.10181837  0.70346184  0.90112287  1
  Zr  Zr9  1  0.30914845  0.10552547  0.11646553  1
  Zr  Zr10  1  0.30404360  0.70444076  0.70708053  1
  Zr  Zr11  1  0.90197051  0.10375903  0.69356417  1
  Zr  Zr12  1  0.89287749  0.89557254  0.30666123  1
  Zr  Zr13  1  0.31184161  0.29974471  0.89288238  1
  Zr  Zr14  1  0.49884123  0.29524432  0.30353304  1
  Zr  Zr15  1  0.10603826  0.89852952  0.90063780  1
  Zr  Zr16  1  0.89420690  0.09950517  0.08998232  1
  Zr  Zr17  1  0.49859479  0.70095970  0.10257754  1
  Zr  Zr18  1  0.49895710  0.69612131  0.89597665  1
  Zr  Zr19  1  0.10093237  0.89643296  0.09739049  1
  Zr  Zr20  1  0.30466410  0.69189332  0.11038293  1
  Zr  Zr21  1  0.30307302  0.09553237  0.89434828  1
  Zr  Zr22  1  0.10031801  0.69641184  0.10295986  1
  Zr  Zr23  1  0.49890754  0.09282235  0.49895856  1
  Zr  Zr24  1  0.90917071  0.30755925  0.69617427  1
  Zr  Zr25  1  0.29823663  0.11165603  0.70450360  1
  Zr  Zr26  1  0.49970361  0.49343677  0.30692853  1
  Zr  Zr27  1  0.09893392  0.50456999  0.29759797  1
  Zr  Zr28  1  0.70104293  0.09874417  0.50396741  1
  Zr  Zr29  1  0.29786488  0.29752406  0.49776773  1
  Zr  Zr30  1  0.50369140  0.50462555  0.50284322  1
  Zr  Zr31  1  0.49069464  0.89404669  0.49986510  1
  Zr  Zr32  1  0.29907258  0.70792238  0.50226490  1
  Zr  Zr33  1  0.69381531  0.69600153  0.50303801  1
  Zr  Zr34  1  0.89714736  0.49878170  0.50101637  1
  Zr  Zr35  1  0.29533708  0.49993194  0.49857832  1
  Zr  Zr36  1  0.69796342  0.71082947  0.29412329  1
  Zr  Zr37  1  0.30417451  0.89805296  0.89435134  1
  Zr  Zr38  1  0.09921671  0.10039801  0.30550830  1
  Zr  Zr39  1  0.10182327  0.29573786  0.30998161  1
  Zr  Zr40  1  0.70269068  0.49806159  0.49582982  1
  Zr  Zr41  1  0.50450772  0.28779131  0.09036308  1
  Zr  Zr42  1  0.89317153  0.49451167  0.30537623  1
  Zr  Zr43  1  0.89120549  0.89398393  0.70590380  1
  Zr  Zr44  1  0.49184155  0.30341452  0.70975465  1
  Zr  Zr45  1  0.10809955  0.10422522  0.89429581  1
  Zr  Zr46  1  0.49546931  0.70179323  0.29842851  1
  Zr  Zr47  1  0.89975046  0.69845484  0.50444105  1
  Zr  Zr48  1  0.89782743  0.30152792  0.08918165  1
  Zr  Zr49  1  0.70222049  0.09747211  0.70001751  1
  Sc  Sc50  1  0.10186153  0.50141118  0.09533456  1
  Sc  Sc51  1  0.48862154  0.09974834  0.30232783  1
  Sc  Sc52  1  0.29382402  0.70146435  0.29840924  1
  Sc  Sc53  1  0.69893852  0.29772427  0.50188261  1
  Sc  Sc54  1  0.90558809  0.10910958  0.90613226  1
  Sc  Sc55  1  0.09520051  0.70625562  0.71354885  1
  Sc  Sc56  1  0.29864692  0.69958069  0.89526249  1
  Sc  Sc57  1  0.70606373  0.50175584  0.08681944  1
  Sc  Sc58  1  0.50855990  0.09739404  0.90119690  1
  Sc  Sc59  1  0.70109952  0.90467427  0.88726972  1
  Sc  Sc60  1  0.50645287  0.49709795  0.89795264  1
  Sc  Sc61  1  0.30492991  0.49724120  0.90224937  1
  Sc  Sc62  1  0.29334588  0.49364669  0.09642074  1
  Sc  Sc63  1  0.70087406  0.70826791  0.69983359  1
  Sc  Sc64  1  0.70228480  0.89528837  0.10356379  1
  Sc  Sc65  1  0.50090106  0.30058217  0.49465944  1
  Sc  Sc66  1  0.90747843  0.70804523  0.88769422  1
  Sc  Sc67  1  0.29618895  0.89580310  0.10610306  1
  Sc  Sc68  1  0.90022916  0.49249036  0.90302357  1
  Sc  Sc69  1  0.30736740  0.09456901  0.50518937  1
  Sc  Sc70  1  0.09390588  0.30289929  0.90090132  1
  Sc  Sc71  1  0.69542468  0.09929690  0.31003233  1
  Sc  Sc72  1  0.70444460  0.09112236  0.90231028  1
  Sc  Sc73  1  0.89763223  0.70547140  0.69935546  1
  Sc  Sc74  1  0.29484475  0.50601330  0.29451313  1
  Sc  Sc75  1  0.90138029  0.10055633  0.31633597  1
  Sc  Sc76  1  0.89606588  0.69584361  0.10659768  1
  Sc  Sc77  1  0.89865588  0.69194988  0.29588213  1
  Sc  Sc78  1  0.30695069  0.90559451  0.69957330  1
  Sc  Sc79  1  0.30098897  0.89795480  0.50635180  1
  Sc  Sc80  1  0.10447514  0.70078080  0.30680873  1
  Sc  Sc81  1  0.70075733  0.89536644  0.48777906  1
  Sc  Sc82  1  0.70271682  0.30914262  0.69285038  1
  Sc  Sc83  1  0.70167674  0.69509640  0.10194372  1
  Sc  Sc84  1  0.90281333  0.30782889  0.89849792  1
  Sc  Sc85  1  0.50025081  0.89679179  0.71008160  1
  Sc  Sc86  1  0.89660727  0.49344234  0.69830603  1
  Sc  Sc87  1  0.10643879  0.30880832  0.09434661  1
  Sc  Sc88  1  0.30288686  0.50740779  0.70530394  1
  Sc  Sc89  1  0.49930800  0.89357343  0.30777716  1
  Sc  Sc90  1  0.10086099  0.09839841  0.09221548  1
  Sc  Sc91  1  0.89812483  0.10208051  0.50050115  1
  Sc  Sc92  1  0.69227200  0.69293092  0.90058546  1
  Sc  Sc93  1  0.70017400  0.32096720  0.90736091  1
  Sc  Sc94  1  0.49322770  0.09697603  0.70205672  1
  Sc  Sc95  1  0.90087096  0.90447785  0.90084620  1
  Sc  Sc96  1  0.10268044  0.30556941  0.50564583  1
  Sc  Sc97  1  0.70009410  0.49807913  0.69221418  1
  Sc  Sc98  1  0.90643577  0.89624647  0.49821006  1
  Sc  Sc99  1  0.49091380  0.50185114  0.09113707  1
  Nb  Nb100  1  0.50613942  0.09518791  0.10120920  1
  Nb  Nb101  1  0.09013822  0.08801503  0.50575168  1
  Nb  Nb102  1  0.50093042  0.30552491  0.89794679  1
  Nb  Nb103  1  0.10611360  0.30048987  0.69868801  1
  Nb  Nb104  1  0.50074695  0.90103668  0.90268790  1
  Nb  Nb105  1  0.29629134  0.10480173  0.30475023  1
  Nb  Nb106  1  0.50125605  0.89798669  0.10071926  1
  Nb  Nb107  1  0.29671842  0.30019785  0.69784261  1
  Nb  Nb108  1  0.89858900  0.90185906  0.09990002  1
  Nb  Nb109  1  0.09717095  0.48974754  0.69227275  1
  Nb  Nb110  1  0.90318762  0.30594794  0.48791939  1
  Nb  Nb111  1  0.09326801  0.89915002  0.30418144  1
  Nb  Nb112  1  0.70043326  0.50691708  0.89810492  1
  Nb  Nb113  1  0.49697588  0.70451742  0.49833940  1
  Nb  Nb114  1  0.70004724  0.90757859  0.70253075  1
  Nb  Nb115  1  0.09747917  0.89149885  0.49340070  1
  Nb  Nb116  1  0.69603196  0.30165058  0.10387304  1
  Nb  Nb117  1  0.49641008  0.50150865  0.70294798  1
  Nb  Nb118  1  0.30195307  0.27829679  0.29285149  1
  Nb  Nb119  1  0.09911030  0.70620794  0.50243578  1
  Nb  Nb120  1  0.90149387  0.29928610  0.30107492  1
  Nb  Nb121  1  0.09758152  0.10852821  0.69729758  1
  Nb  Nb122  1  0.30502900  0.29945652  0.09657610  1
  Nb  Nb123  1  0.70072018  0.89900466  0.29435973  1
  Nb  Nb124  1  0.69783667  0.49907241  0.29905753  1
  Nb  Nb125  1  0.79634779  0.59546821  0.80151070  1
  Nb  Nb126  1  0.80218926  0.20147409  0.20067419  1
  Nb  Nb127  1  0.40865957  -0.00298237  0.00739193  1
  Nb  Nb128  1  0.79880463  0.00294330  0.20152489  1
  Nb  Nb129  1  0.59914264  -0.00325328  0.19944169  1
  Nb  Nb130  1  0.79644311  0.20653185  0.79813288  1
  Nb  Nb131  1  0.59670868  0.80389994  -0.00041561  1
  Nb  Nb132  1  0.60467319  0.20763475  0.80153406  1
  Nb  Nb133  1  0.39777710  0.40164048  0.60486831  1
  Nb  Nb134  1  0.00000223  0.80787145  0.20117349  1
  Nb  Nb135  1  -0.00643686  0.20151681  0.20002106  1
  Nb  Nb136  1  0.00763144  0.59945922  0.59933702  1
  Nb  Nb137  1  0.79734558  0.80149478  -0.00134555  1
  Nb  Nb138  1  0.19139913  -0.00157259  0.40454698  1
  Nb  Nb139  1  0.40200891  0.60446792  0.40538623  1
  Nb  Nb140  1  0.19097457  0.60283558  0.60220181  1
  Nb  Nb141  1  0.00664819  0.00698769  0.79249613  1
  Nb  Nb142  1  0.39845140  0.38768921  0.19871937  1
  Nb  Nb143  1  0.21223415  0.20305078  -0.00120220  1
  Nb  Nb144  1  -0.00409499  0.39401853  0.20519321  1
  Nb  Nb145  1  -0.00612554  -0.00040698  0.20045916  1
  Nb  Nb146  1  0.59939619  0.59057489  0.20299546  1
  Nb  Nb147  1  0.19875132  0.39570387  0.79157258  1
  Nb  Nb148  1  0.59886761  0.39981979  0.19505475  1
  Nb  Nb149  1  0.60346366  -0.00540090  0.60239843  1
  Pd  Pd150  1  0.20191064  0.39444061  0.20481807  1
  Pd  Pd151  1  0.60299560  0.79973230  0.80531071  1
  Pd  Pd152  1  0.19537572  0.59288860  0.79558875  1
  Pd  Pd153  1  0.80052663  0.79135255  0.40353834  1
  Pd  Pd154  1  -0.01026911  0.79333922  0.00619998  1
  Pd  Pd155  1  0.81044040  0.61092285  -0.01228244  1
  Pd  Pd156  1  0.19166349  0.00202903  0.20398015  1
  Pd  Pd157  1  0.59755435  0.60684869  0.39441093  1
  Pd  Pd158  1  0.59223062  0.19545501  0.60821718  1
  Pd  Pd159  1  0.00175231  0.00099865  -0.00603779  1
  Pd  Pd160  1  0.20668276  0.60118204  -0.00150335  1
  Pd  Pd161  1  0.59850831  0.19799229  0.39994198  1
  Pd  Pd162  1  0.79421413  0.60601734  0.39563759  1
  Pd  Pd163  1  0.81435818  0.01128061  0.80550505  1
  Pd  Pd164  1  0.40601988  0.20685495  0.59688909  1
  Pd  Pd165  1  -0.00722939  0.60561994  -0.00411092  1
  Pd  Pd166  1  0.38868306  0.40104994  0.39627547  1
  Pd  Pd167  1  0.21483561  0.00655038  0.00796307  1
  Pd  Pd168  1  0.79841815  -0.01085821  0.59007885  1
  Pd  Pd169  1  0.39927420  0.80268192  -0.00066052  1
  Pd  Pd170  1  0.40124324  0.18952108  -0.00617216  1
  Pd  Pd171  1  0.79877961  0.39883483  0.19318725  1
  Pd  Pd172  1  0.00146066  0.20770027  0.58939729  1
  Pd  Pd173  1  0.60469554  -0.00936631  0.00469529  1
  Pd  Pd174  1  0.79407179  0.80508599  0.59576937  1
  Pd  Pd175  1  -0.00842909  0.59117845  0.79105537  1
  Pd  Pd176  1  0.78881692  0.20882737  -0.00880668  1
  Pd  Pd177  1  0.59760156  -0.00548673  0.39855889  1
  Pd  Pd178  1  0.39547429  0.80847052  0.20602988  1
  Pd  Pd179  1  0.39572247  0.59957188  -0.00487040  1
  Pd  Pd180  1  0.20978477  0.39599755  0.38650296  1
  Pd  Pd181  1  0.19657745  0.18760360  0.41661386  1
  Pd  Pd182  1  -0.00020815  0.60505146  0.40308822  1
  Pd  Pd183  1  0.79771815  0.20339394  0.39864244  1
  Pd  Pd184  1  -0.00832162  -0.00664423  0.60109611  1
  Pd  Pd185  1  -0.00453062  0.20168417  0.80016857  1
  Pd  Pd186  1  0.80540177  0.21016916  0.60215927  1
  Pd  Pd187  1  0.39302561  0.59831973  0.59606938  1
  Pd  Pd188  1  0.21226185  0.79225873  0.00372226  1
  Pd  Pd189  1  0.60390137  0.59929945  0.60600945  1
  Pd  Pd190  1  0.20309813  0.00573210  0.59682409  1
  Pd  Pd191  1  0.19613659  -0.00274119  0.78671865  1
  Pd  Pd192  1  0.59121587  0.39765341  0.59868977  1
  Pd  Pd193  1  0.19942973  0.79599621  0.60832162  1
  Pd  Pd194  1  0.19624125  0.19282216  0.59203595  1
  Pd  Pd195  1  0.60544404  0.40265334  0.79752297  1
  Pd  Pd196  1  0.60861611  0.20403981  -0.01590786  1
  Pd  Pd197  1  0.59915333  0.80938780  0.59994213  1
  Pd  Pd198  1  0.18809733  0.20163263  0.19006803  1
  Pd  Pd199  1  0.40673437  -0.00647044  0.20417859  1
  Rh  Rh200  1  0.60021771  0.79847712  0.40094764  1
  Rh  Rh201  1  0.79416215  -0.01144273  0.00330759  1
  Rh  Rh202  1  0.39508300  0.40814181  0.79510713  1
  Rh  Rh203  1  0.00485436  0.81606431  0.79867917  1
  Rh  Rh204  1  0.80089452  0.40434257  0.00197748  1
  Rh  Rh205  1  0.40537447  0.00088444  0.80662376  1
  Rh  Rh206  1  0.40787202  -0.00448077  0.60501882  1
  Rh  Rh207  1  0.59605444  0.60375351  0.00696318  1
  Rh  Rh208  1  0.41164734  0.20230411  0.19902376  1
  Rh  Rh209  1  0.20702237  0.60893728  0.40733824  1
  Rh  Rh210  1  -0.00185167  0.40005288  0.59263065  1
  Rh  Rh211  1  0.39190717  0.79495647  0.39608027  1
  Rh  Rh212  1  0.00317622  0.20254644  0.40723888  1
  Rh  Rh213  1  0.00774705  0.40170297  0.79899108  1
  Rh  Rh214  1  0.39783206  0.19382367  0.40581955  1
  Rh  Rh215  1  0.40470157  0.58677458  0.20848738  1
  Rh  Rh216  1  0.19760551  0.20990074  0.80357835  1
  Rh  Rh217  1  0.38771194  -0.00046046  0.39676373  1
  Rh  Rh218  1  0.40453127  0.59605104  0.80576273  1
  Rh  Rh219  1  -0.00052398  0.40514170  0.00905105  1
  Rh  Rh220  1  0.79406362  0.39555416  0.40403252  1
  Rh  Rh221  1  0.40506754  0.39714579  0.00407095  1
  Rh  Rh222  1  0.19686223  0.59918613  0.19587955  1
  Rh  Rh223  1  -0.00366097  0.79179550  0.39333080  1
  Rh  Rh224  1  0.40383551  0.79943514  0.79999671  1
  Rh  Rh225  1  0.00140903  -0.00167715  0.40200928  1
  Rh  Rh226  1  0.41263668  0.19413314  0.80637280  1
  Rh  Rh227  1  0.78881764  0.59573107  0.20537496  1
  Rh  Rh228  1  0.21092525  0.40702673  0.60808891  1
  Rh  Rh229  1  0.60563242  0.59314807  0.79072685  1
  Rh  Rh230  1  0.20572222  0.39203511  -0.01569219  1
  Rh  Rh231  1  0.00379341  0.59865796  0.20373629  1
  Rh  Rh232  1  0.79944439  -0.00070418  0.40004725  1
  Rh  Rh233  1  0.00207622  0.39922185  0.39566764  1
  Rh  Rh234  1  0.80427068  0.39567314  0.59167506  1
  Rh  Rh235  1  0.19080702  0.79620757  0.20133909  1
  Rh  Rh236  1  0.59798029  0.79997280  0.19516187  1
  Rh  Rh237  1  0.60177228  0.19684591  0.20724360  1
  Rh  Rh238  1  -0.00096442  0.79522298  0.60149061  1
  Rh  Rh239  1  0.20035076  0.80684624  0.79638373  1
  Rh  Rh240  1  0.59521004  0.00610474  0.79315404  1
  Rh  Rh241  1  0.60729984  0.39616849  0.40150691  1
  Rh  Rh242  1  0.20008292  0.80567318  0.40073260  1
  Rh  Rh243  1  0.79079724  0.79191854  0.80925794  1
  Rh  Rh244  1  0.79725701  0.40371988  0.80069686  1
  Rh  Rh245  1  0.40544613  0.80051988  0.60933011  1
  Rh  Rh246  1  0.80787065  0.80412805  0.19301239  1
  Rh  Rh247  1  0.59719533  0.40675462  0.00479523  1
  Rh  Rh248  1  0.80669308  0.60086690  0.60952195  1
  Rh  Rh249  1  0.01458127  0.20413599  0.00543145  1
