# generated using pymatgen
data_ZrScNbPdRh
_symmetry_space_group_name_H-M   'P 1'
_cell_length_a   16.55687008
_cell_length_b   16.55270878
_cell_length_c   16.55725382
_cell_angle_alpha   89.96301074
_cell_angle_beta   89.98902858
_cell_angle_gamma   90.00497142
_symmetry_Int_Tables_number   1
_chemical_formula_structural   ZrScNbPdRh
_chemical_formula_sum   'Zr50 Sc50 Nb50 Pd50 Rh50'
_cell_volume   4537.69730229
_cell_formula_units_Z   50
loop_
 _symmetry_equiv_pos_site_id
 _symmetry_equiv_pos_as_xyz
  1  'x, y, z'
loop_
 _atom_site_type_symbol
 _atom_site_label
 _atom_site_symmetry_multiplicity
 _atom_site_fract_x
 _atom_site_fract_y
 _atom_site_fract_z
 _atom_site_occupancy
  Zr  Zr0  1  0.89835442  0.89965293  0.29900372  1
  Zr  Zr1  1  0.10178091  0.30315962  0.89919712  1
  Zr  Zr2  1  0.69616774  0.70342372  0.49806121  1
  Zr  Zr3  1  0.89229016  0.50157973  0.30167764  1
  Zr  Zr4  1  0.30597708  0.68944970  0.10269822  1
  Zr  Zr5  1  0.29681124  0.89522017  0.29903851  1
  Zr  Zr6  1  0.50478415  0.90358055  0.09405385  1
  Zr  Zr7  1  0.69994119  0.89076470  0.30055066  1
  Zr  Zr8  1  0.69794353  0.50229479  0.49586724  1
  Zr  Zr9  1  0.70036916  0.50489888  0.70017253  1
  Zr  Zr10  1  0.89602815  0.70315998  0.71175799  1
  Zr  Zr11  1  0.09665399  0.69842208  0.49985263  1
  Zr  Zr12  1  0.69842758  0.49571896  0.90463984  1
  Zr  Zr13  1  0.69332001  0.70272213  0.10365417  1
  Zr  Zr14  1  0.30080859  0.50351168  0.70567212  1
  Zr  Zr15  1  0.50240672  0.10550616  0.29266394  1
  Zr  Zr16  1  0.30131438  0.50366361  0.29982467  1
  Zr  Zr17  1  0.50384024  0.10331503  0.71015439  1
  Zr  Zr18  1  0.90819214  0.49925224  0.49504195  1
  Zr  Zr19  1  0.30467898  0.09926882  0.90710008  1
  Zr  Zr20  1  0.30747133  0.31149077  0.29215833  1
  Zr  Zr21  1  0.50315719  0.69986775  0.10053391  1
  Zr  Zr22  1  0.90240707  0.29837921  0.91005189  1
  Zr  Zr23  1  0.50085323  0.89736287  0.71711207  1
  Zr  Zr24  1  0.90341669  0.70703156  0.89876131  1
  Zr  Zr25  1  0.89607439  0.49882342  0.09821902  1
  Zr  Zr26  1  0.89517802  0.09145349  0.89785080  1
  Zr  Zr27  1  0.10090317  0.10239581  0.69111202  1
  Zr  Zr28  1  0.89389534  0.09801172  0.69944545  1
  Zr  Zr29  1  0.09710755  0.89914540  0.69244663  1
  Zr  Zr30  1  0.30811835  0.30670703  0.90127802  1
  Zr  Zr31  1  0.09737480  0.50135769  0.09945679  1
  Zr  Zr32  1  0.89957520  0.09710523  0.09994387  1
  Zr  Zr33  1  0.90146200  0.69537281  0.09282726  1
  Zr  Zr34  1  0.89573697  0.90202760  0.70572535  1
  Zr  Zr35  1  0.49342125  0.29565804  0.10281159  1
  Zr  Zr36  1  0.09471538  0.89931277  0.90363421  1
  Zr  Zr37  1  0.10361006  0.08876808  0.10101685  1
  Zr  Zr38  1  0.09374490  0.69937301  0.89659904  1
  Zr  Zr39  1  0.50217957  0.29602145  0.29974007  1
  Zr  Zr40  1  0.49743366  0.10144972  0.90244297  1
  Zr  Zr41  1  0.89190474  0.10453966  0.49375739  1
  Zr  Zr42  1  0.68888005  0.89843242  0.09771944  1
  Zr  Zr43  1  0.30743096  0.50545933  0.90045663  1
  Zr  Zr44  1  0.69628123  0.49820541  0.30207203  1
  Zr  Zr45  1  0.10000524  0.30875658  0.49902877  1
  Zr  Zr46  1  0.69714329  0.10979737  0.30200922  1
  Zr  Zr47  1  0.09277241  0.30043332  0.08709321  1
  Zr  Zr48  1  0.50261882  0.10160527  0.09624445  1
  Zr  Zr49  1  0.50637980  0.29820923  0.70908666  1
  Sc  Sc50  1  0.70391350  0.30099951  0.09520166  1
  Sc  Sc51  1  0.70107313  0.89388332  0.49817482  1
  Sc  Sc52  1  0.89854097  0.89680300  0.50188284  1
  Sc  Sc53  1  0.89209300  0.10796477  0.29983164  1
  Sc  Sc54  1  0.09993440  0.90478760  0.10194975  1
  Sc  Sc55  1  0.29495503  0.29947933  0.49880557  1
  Sc  Sc56  1  0.49530271  0.49887820  0.30645221  1
  Sc  Sc57  1  0.69966639  0.49972767  0.09722025  1
  Sc  Sc58  1  0.10699334  0.49951646  0.30645824  1
  Sc  Sc59  1  0.50615228  0.89627997  0.49643033  1
  Sc  Sc60  1  0.49575973  0.69028247  0.89695231  1
  Sc  Sc61  1  0.30364028  0.30444102  0.70381544  1
  Sc  Sc62  1  0.49988593  0.50077104  0.69803512  1
  Sc  Sc63  1  0.10268940  0.89553228  0.49853903  1
  Sc  Sc64  1  0.11032008  0.70172467  0.30473038  1
  Sc  Sc65  1  0.50058636  0.90614874  0.30240491  1
  Sc  Sc66  1  0.10666292  0.90324242  0.29213676  1
  Sc  Sc67  1  0.29575205  0.69482874  0.50190858  1
  Sc  Sc68  1  0.30300617  0.09964586  0.30640461  1
  Sc  Sc69  1  0.09665273  0.69363505  0.09579099  1
  Sc  Sc70  1  0.30670182  0.50426742  0.50088012  1
  Sc  Sc71  1  0.10586192  0.11263367  0.49339930  1
  Sc  Sc72  1  0.69463749  0.29677910  0.49619901  1
  Sc  Sc73  1  0.10340235  0.50051600  0.89835368  1
  Sc  Sc74  1  0.31354789  0.90566969  0.89491813  1
  Sc  Sc75  1  0.69833795  0.10289095  0.90556458  1
  Sc  Sc76  1  0.89632001  0.51342514  0.90095585  1
  Sc  Sc77  1  0.10483994  0.30093726  0.31146116  1
  Sc  Sc78  1  0.89152092  0.30158588  0.10091650  1
  Sc  Sc79  1  0.09615160  0.09881299  0.91364650  1
  Sc  Sc80  1  0.11265019  0.30674971  0.69168600  1
  Sc  Sc81  1  0.70502902  0.10999128  0.70675780  1
  Sc  Sc82  1  0.50407455  0.69513528  0.70030850  1
  Sc  Sc83  1  0.50104024  0.09909859  0.48526582  1
  Sc  Sc84  1  0.50446714  0.50564383  0.09427933  1
  Sc  Sc85  1  0.90562166  0.50838577  0.70077833  1
  Sc  Sc86  1  0.50417982  0.30470424  0.49968401  1
  Sc  Sc87  1  0.09824883  0.69466968  0.69683809  1
  Sc  Sc88  1  0.88683290  0.29737244  0.30455366  1
  Sc  Sc89  1  0.29406024  0.90207955  0.49508161  1
  Sc  Sc90  1  0.29353459  0.90430179  0.10237521  1
  Sc  Sc91  1  0.69395737  0.89527740  0.90069769  1
  Sc  Sc92  1  0.29924231  0.09893863  0.49777684  1
  Sc  Sc93  1  0.70831435  0.69651072  0.89825617  1
  Sc  Sc94  1  0.50254799  0.50171487  0.50463259  1
  Sc  Sc95  1  0.69805228  0.70577536  0.69971201  1
  Sc  Sc96  1  0.90136903  0.89886561  0.09056787  1
  Sc  Sc97  1  0.69367729  0.29959021  0.90406684  1
  Sc  Sc98  1  0.50028467  0.69212772  0.50726782  1
  Sc  Sc99  1  0.30207171  0.10325091  0.70044479  1
  Nb  Nb100  1  0.50043340  0.29980782  0.90272023  1
  Nb  Nb101  1  0.30225028  0.90040761  0.70080739  1
  Nb  Nb102  1  0.49816958  0.90242914  0.90488050  1
  Nb  Nb103  1  0.69503801  0.89413029  0.69404111  1
  Nb  Nb104  1  0.30866267  0.69946016  0.30045922  1
  Nb  Nb105  1  0.70523124  0.29851516  0.70219772  1
  Nb  Nb106  1  0.89520743  0.70285411  0.30485993  1
  Nb  Nb107  1  0.29943662  0.30011564  0.10371256  1
  Nb  Nb108  1  0.69736458  0.30110429  0.29300580  1
  Nb  Nb109  1  0.10010525  0.49692731  0.69686071  1
  Nb  Nb110  1  0.69733292  0.09746870  0.50122729  1
  Nb  Nb111  1  0.90505705  0.29979454  0.49983840  1
  Nb  Nb112  1  0.69999975  0.69856911  0.29968494  1
  Nb  Nb113  1  0.69410160  0.09630546  0.10407338  1
  Nb  Nb114  1  0.29791286  0.48955319  0.10562745  1
  Nb  Nb115  1  0.49332579  0.69318938  0.29341197  1
  Nb  Nb116  1  0.30123720  0.10119822  0.09826156  1
  Nb  Nb117  1  0.50225576  0.48788747  0.90108185  1
  Nb  Nb118  1  0.10081161  0.50013102  0.51162956  1
  Nb  Nb119  1  0.09413912  0.10187025  0.29306054  1
  Nb  Nb120  1  0.90469587  0.89191245  0.89443338  1
  Nb  Nb121  1  0.31050521  0.70108288  0.70932259  1
  Nb  Nb122  1  0.30267447  0.69734652  0.89684222  1
  Nb  Nb123  1  0.89416294  0.29399333  0.70323737  1
  Nb  Nb124  1  0.90013361  0.69628487  0.48718900  1
  Nb  Nb125  1  -0.00704797  0.20693463  0.60073263  1
  Nb  Nb126  1  0.39844755  0.79675090  -0.00270355  1
  Nb  Nb127  1  0.59947317  0.39638327  0.20172006  1
  Nb  Nb128  1  0.39867773  0.79176212  0.39726421  1
  Nb  Nb129  1  0.19669052  0.19708498  0.80430138  1
  Nb  Nb130  1  0.20872063  0.79425525  -0.00862243  1
  Nb  Nb131  1  0.00106674  0.20317440  0.79515286  1
  Nb  Nb132  1  0.79735544  0.60816220  0.20597110  1
  Nb  Nb133  1  0.80395753  0.60057734  0.59125332  1
  Nb  Nb134  1  0.39667363  0.80401630  0.60446870  1
  Nb  Nb135  1  -0.00194697  0.39713918  0.20137820  1
  Nb  Nb136  1  0.20784898  0.80177718  0.79844295  1
  Nb  Nb137  1  0.40647872  -0.00237669  0.60337878  1
  Nb  Nb138  1  -0.00248907  0.39605883  0.79466787  1
  Nb  Nb139  1  0.40111903  0.00504325  0.19769311  1
  Nb  Nb140  1  0.40637773  0.19635496  0.60220142  1
  Nb  Nb141  1  0.00515815  0.20234305  0.20048059  1
  Nb  Nb142  1  -0.00532836  0.79367853  0.20260728  1
  Nb  Nb143  1  0.19977826  0.20087484  0.19483861  1
  Nb  Nb144  1  0.80313102  0.39577700  0.79517672  1
  Nb  Nb145  1  0.60204766  0.00069397  0.60436336  1
  Nb  Nb146  1  0.00064321  0.00636022  0.39395177  1
  Nb  Nb147  1  0.19991326  -0.00148297  0.79790644  1
  Nb  Nb148  1  0.79140554  -0.00020643  0.19704355  1
  Nb  Nb149  1  0.80474391  0.39694090  0.60195916  1
  Pd  Pd150  1  0.60162542  0.60363695  -0.00711867  1
  Pd  Pd151  1  0.19260749  0.79054010  0.18981814  1
  Pd  Pd152  1  0.58851759  0.80062944  0.20881690  1
  Pd  Pd153  1  0.00728885  0.00579143  0.80176844  1
  Pd  Pd154  1  0.40355966  0.40536385  0.00778836  1
  Pd  Pd155  1  0.20119541  0.59686100  0.40506391  1
  Pd  Pd156  1  0.00131480  0.00902533  0.58245430  1
  Pd  Pd157  1  0.58839255  0.78997751  0.39479513  1
  Pd  Pd158  1  0.00048319  0.40059544  0.39052480  1
  Pd  Pd159  1  0.60098020  0.79130757  0.80774003  1
  Pd  Pd160  1  0.78947356  -0.00239665  0.60025591  1
  Pd  Pd161  1  0.40025749  0.39326915  0.60069996  1
  Pd  Pd162  1  0.59861705  0.59992087  0.80316642  1
  Pd  Pd163  1  0.20218556  0.59946437  0.00083458  1
  Pd  Pd164  1  0.20455506  0.60163278  0.60582232  1
  Pd  Pd165  1  0.79610087  0.39260060  0.40744002  1
  Pd  Pd166  1  0.79814068  0.20558734  0.59217640  1
  Pd  Pd167  1  0.61047184  0.00289647  0.80188695  1
  Pd  Pd168  1  0.59645864  0.19238223  0.59656998  1
  Pd  Pd169  1  0.79674909  0.19760378  0.00176456  1
  Pd  Pd170  1  0.40433607  0.58788559  0.19600994  1
  Pd  Pd171  1  0.20379359  0.40606009  -0.00215984  1
  Pd  Pd172  1  0.40115642  0.40064430  0.40685154  1
  Pd  Pd173  1  0.79990426  -0.00180077  0.39461685  1
  Pd  Pd174  1  -0.00305143  0.60070053  0.21180279  1
  Pd  Pd175  1  0.79511459  -0.00906414  0.00092845  1
  Pd  Pd176  1  0.18811619  0.39291387  0.19917673  1
  Pd  Pd177  1  0.20648477  0.20184254  0.39201236  1
  Pd  Pd178  1  0.80707657  0.79261765  0.59606658  1
  Pd  Pd179  1  0.60604072  0.39943869  0.60209256  1
  Pd  Pd180  1  0.79733324  0.80250874  -0.00354414  1
  Pd  Pd181  1  -0.00824334  0.79470177  0.60062946  1
  Pd  Pd182  1  0.39836287  0.20595355  0.40676760  1
  Pd  Pd183  1  0.21208051  0.40553335  0.59604591  1
  Pd  Pd184  1  0.60499099  -0.00090821  0.40268162  1
  Pd  Pd185  1  0.78811353  -0.00812926  0.80281469  1
  Pd  Pd186  1  0.40426088  0.80995786  0.19727868  1
  Pd  Pd187  1  0.80647391  0.80065111  0.19363371  1
  Pd  Pd188  1  0.20737527  0.00334540  0.59992650  1
  Pd  Pd189  1  0.00892738  0.59843819  0.39333909  1
  Pd  Pd190  1  0.19171458  0.00283029  0.39612549  1
  Pd  Pd191  1  0.59128611  0.60456544  0.39674396  1
  Pd  Pd192  1  0.00647576  0.80860905  0.39304788  1
  Pd  Pd193  1  -0.00705595  0.60708857  0.60162361  1
  Pd  Pd194  1  0.19917508  0.60237590  0.20089246  1
  Pd  Pd195  1  0.20735529  0.79273364  0.60397549  1
  Pd  Pd196  1  0.20520736  0.20159792  0.00047247  1
  Pd  Pd197  1  0.19613380  0.60346458  0.79630022  1
  Pd  Pd198  1  0.60516811  0.39903508  0.79945732  1
  Pd  Pd199  1  -0.00570386  0.39537351  0.60911091  1
  Rh  Rh200  1  0.00881371  0.80350016  0.00991636  1
  Rh  Rh201  1  0.80090100  0.40279660  -0.00872273  1
  Rh  Rh202  1  0.40726401  0.40414191  0.79931530  1
  Rh  Rh203  1  0.19591173  0.39964458  0.79977776  1
  Rh  Rh204  1  0.80166910  0.20496371  0.81303093  1
  Rh  Rh205  1  -0.00724785  -0.00455564  -0.00366676  1
  Rh  Rh206  1  -0.01353603  -0.00033086  0.20623682  1
  Rh  Rh207  1  0.60355108  0.59341258  0.20521539  1
  Rh  Rh208  1  0.79895298  0.19323041  0.19381839  1
  Rh  Rh209  1  0.79574153  0.60568624  0.39976460  1
  Rh  Rh210  1  0.40022192  0.59609835  0.00167380  1
  Rh  Rh211  1  0.58860299  0.80802939  0.60434447  1
  Rh  Rh212  1  0.60183298  0.20263832  0.40228451  1
  Rh  Rh213  1  0.40913008  0.59123896  0.80028563  1
  Rh  Rh214  1  0.79289883  0.80768996  0.80213452  1
  Rh  Rh215  1  0.60736330  0.59976795  0.60079543  1
  Rh  Rh216  1  0.20554583  0.79598845  0.40206599  1
  Rh  Rh217  1  0.00161576  0.59546342  -0.00845320  1
  Rh  Rh218  1  0.59011839  0.79183355  -0.01024810  1
  Rh  Rh219  1  0.79297031  0.60409366  0.00797148  1
  Rh  Rh220  1  0.79601789  0.40866628  0.19969407  1
  Rh  Rh221  1  0.79802971  0.59619653  0.79449741  1
  Rh  Rh222  1  0.00736214  0.80216204  0.79044108  1
  Rh  Rh223  1  0.39899473  0.20511343  -0.00034175  1
  Rh  Rh224  1  0.39794657  0.60589819  0.60440664  1
  Rh  Rh225  1  0.79048521  0.20664918  0.40475361  1
  Rh  Rh226  1  0.38823319  0.19261712  0.20001400  1
  Rh  Rh227  1  -0.00270563  0.19724769  0.40075656  1
  Rh  Rh228  1  0.40878084  0.40744032  0.19426062  1
  Rh  Rh229  1  0.60820583  0.20901326  0.19030147  1
  Rh  Rh230  1  0.39430505  0.20330892  0.79941015  1
  Rh  Rh231  1  0.39671190  0.00712529  0.79669074  1
  Rh  Rh232  1  0.60061402  -0.00063120  0.20545532  1
  Rh  Rh233  1  0.00552800  0.59151950  0.79891717  1
  Rh  Rh234  1  -0.00605786  0.41099738  -0.00150502  1
  Rh  Rh235  1  0.59388370  0.39311624  0.00902984  1
  Rh  Rh236  1  0.59774433  0.39650523  0.39301706  1
  Rh  Rh237  1  0.60473110  0.20376029  0.80905912  1
  Rh  Rh238  1  0.40180671  0.79682831  0.80391124  1
  Rh  Rh239  1  0.79878653  0.79772549  0.40516300  1
  Rh  Rh240  1  0.40273880  0.60583333  0.40347433  1
  Rh  Rh241  1  0.20642912  0.20264909  0.60357514  1
  Rh  Rh242  1  0.20313057  0.41037172  0.40871329  1
  Rh  Rh243  1  0.39681592  -0.01184521  0.39790893  1
  Rh  Rh244  1  0.60190717  0.00455780  -0.00861427  1
  Rh  Rh245  1  0.39729951  -0.00630220  0.00945798  1
  Rh  Rh246  1  0.59955425  0.20127076  0.00250895  1
  Rh  Rh247  1  0.20830006  -0.01097932  -0.00880527  1
  Rh  Rh248  1  0.21261676  0.01162984  0.20604902  1
  Rh  Rh249  1  -0.00653829  0.19075919  0.00340595  1
