# generated using pymatgen
data_ZrScNbPdRh
_symmetry_space_group_name_H-M   'P 1'
_cell_length_a   16.55949081
_cell_length_b   16.56452109
_cell_length_c   16.56189899
_cell_angle_alpha   90.01260897
_cell_angle_beta   90.02997508
_cell_angle_gamma   90.00550554
_symmetry_Int_Tables_number   1
_chemical_formula_structural   ZrScNbPdRh
_chemical_formula_sum   'Zr50 Sc50 Nb50 Pd50 Rh50'
_cell_volume   4542.92871649
_cell_formula_units_Z   50
loop_
 _symmetry_equiv_pos_site_id
 _symmetry_equiv_pos_as_xyz
  1  'x, y, z'
loop_
 _atom_site_type_symbol
 _atom_site_label
 _atom_site_symmetry_multiplicity
 _atom_site_fract_x
 _atom_site_fract_y
 _atom_site_fract_z
 _atom_site_occupancy
  Zr  Zr0  1  0.09799708  0.08688101  0.50277415  1
  Zr  Zr1  1  0.70453336  0.30004852  0.69704471  1
  Zr  Zr2  1  0.09808270  0.09665841  0.90214875  1
  Zr  Zr3  1  0.30428792  0.89921064  0.09207758  1
  Zr  Zr4  1  0.69790679  0.49352361  0.70545339  1
  Zr  Zr5  1  0.51062301  0.50489078  0.89262748  1
  Zr  Zr6  1  0.30115686  0.49325817  0.10161670  1
  Zr  Zr7  1  0.69503607  0.90059360  0.89679722  1
  Zr  Zr8  1  0.50100143  0.09501001  0.89270261  1
  Zr  Zr9  1  0.49404495  0.69648765  0.70372352  1
  Zr  Zr10  1  0.30236922  0.70021330  0.09677057  1
  Zr  Zr11  1  0.50335146  0.70100486  0.90018696  1
  Zr  Zr12  1  0.70208243  0.70254828  0.70280626  1
  Zr  Zr13  1  0.10140867  0.69656103  0.89826431  1
  Zr  Zr14  1  0.10110519  0.89740575  0.30900024  1
  Zr  Zr15  1  0.89653745  0.69186560  0.30278223  1
  Zr  Zr16  1  0.89576578  0.10896990  0.30083135  1
  Zr  Zr17  1  0.09687649  0.50192379  0.70286035  1
  Zr  Zr18  1  0.69661983  0.30668028  0.50007040  1
  Zr  Zr19  1  0.10144409  0.69299882  0.09250975  1
  Zr  Zr20  1  0.30233021  0.69463434  0.50734955  1
  Zr  Zr21  1  0.69643564  0.50247284  0.30443087  1
  Zr  Zr22  1  0.69873503  0.49213333  0.50122750  1
  Zr  Zr23  1  0.49791874  0.70279222  0.50211136  1
  Zr  Zr24  1  0.69942078  0.10276032  0.89645045  1
  Zr  Zr25  1  0.29228866  0.70403965  0.90229305  1
  Zr  Zr26  1  0.89855329  0.70022229  0.49859216  1
  Zr  Zr27  1  0.29507796  0.29947173  0.90452044  1
  Zr  Zr28  1  0.70481067  0.69132689  0.49316364  1
  Zr  Zr29  1  0.90364014  0.90136065  0.51378070  1
  Zr  Zr30  1  0.88944062  0.30453760  0.50041032  1
  Zr  Zr31  1  0.09960438  0.71451132  0.50177307  1
  Zr  Zr32  1  0.90203106  0.30571463  0.30336332  1
  Zr  Zr33  1  0.29572046  0.50222099  0.68523436  1
  Zr  Zr34  1  0.09510457  0.10316999  0.30381625  1
  Zr  Zr35  1  0.49167377  0.89940152  0.90481882  1
  Zr  Zr36  1  0.50326049  0.90078975  0.70702727  1
  Zr  Zr37  1  0.29319449  0.89283147  0.50399430  1
  Zr  Zr38  1  0.50477831  0.10799078  0.10387328  1
  Zr  Zr39  1  0.70409825  0.10597366  0.10255510  1
  Zr  Zr40  1  0.90232096  0.69379117  0.10755622  1
  Zr  Zr41  1  0.89533055  0.50091615  0.49700745  1
  Zr  Zr42  1  0.89918250  0.90205197  0.09794893  1
  Zr  Zr43  1  0.30151685  0.29932578  0.69824097  1
  Zr  Zr44  1  0.69882038  0.68449826  0.90375657  1
  Zr  Zr45  1  0.09943548  0.10194364  0.70601377  1
  Zr  Zr46  1  0.50299511  0.49895554  0.49568441  1
  Zr  Zr47  1  0.50391079  0.69995410  0.09629805  1
  Zr  Zr48  1  0.70769919  0.50077933  0.09739149  1
  Zr  Zr49  1  0.49632201  0.29406381  0.30404481  1
  Sc  Sc50  1  0.70136595  0.10966554  0.30384650  1
  Sc  Sc51  1  0.90266362  0.69701740  0.69299676  1
  Sc  Sc52  1  0.30190782  0.50257786  0.49347626  1
  Sc  Sc53  1  0.29659049  0.69938375  0.70111293  1
  Sc  Sc54  1  0.50712490  0.69887279  0.29781379  1
  Sc  Sc55  1  0.90059514  0.91566105  0.89726477  1
  Sc  Sc56  1  0.70138615  0.30313774  0.11131881  1
  Sc  Sc57  1  0.30230826  0.49701720  0.30463393  1
  Sc  Sc58  1  0.49855577  0.30427817  0.49634361  1
  Sc  Sc59  1  0.70783039  0.30029000  0.30476898  1
  Sc  Sc60  1  0.49591898  0.49833281  0.70099257  1
  Sc  Sc61  1  0.29729358  0.09385472  0.89493524  1
  Sc  Sc62  1  0.90118432  0.09989570  0.50225975  1
  Sc  Sc63  1  0.89097993  0.88273643  0.29111540  1
  Sc  Sc64  1  0.29590285  0.30377782  0.09962306  1
  Sc  Sc65  1  0.70320328  0.89531710  0.10612187  1
  Sc  Sc66  1  0.49825016  0.30614720  0.89163174  1
  Sc  Sc67  1  0.49273611  0.30832312  0.69552975  1
  Sc  Sc68  1  0.09556305  0.30780477  0.49461987  1
  Sc  Sc69  1  0.89926958  0.28961321  0.70453234  1
  Sc  Sc70  1  0.50364328  0.88721375  0.10003180  1
  Sc  Sc71  1  0.50010607  0.49776358  0.30008452  1
  Sc  Sc72  1  0.08741130  0.69853715  0.30214083  1
  Sc  Sc73  1  0.31329737  0.69751934  0.30673729  1
  Sc  Sc74  1  0.29588804  0.89947205  0.70237305  1
  Sc  Sc75  1  0.10360424  0.90555725  0.09026602  1
  Sc  Sc76  1  0.29315341  0.10425824  0.09203631  1
  Sc  Sc77  1  0.90742058  0.10232942  0.89615087  1
  Sc  Sc78  1  0.30010704  0.30658410  0.29932963  1
  Sc  Sc79  1  0.90126043  0.31202300  0.10787917  1
  Sc  Sc80  1  0.10062800  0.10604705  0.09478182  1
  Sc  Sc81  1  0.50786184  0.49657383  0.10939434  1
  Sc  Sc82  1  0.69615513  0.89252830  0.49853470  1
  Sc  Sc83  1  0.69925207  0.09800424  0.49395624  1
  Sc  Sc84  1  0.89213407  0.09374896  0.69571652  1
  Sc  Sc85  1  0.11013336  0.50221383  0.49770742  1
  Sc  Sc86  1  0.09223938  0.49806717  0.09680882  1
  Sc  Sc87  1  0.30693992  0.30881699  0.49766808  1
  Sc  Sc88  1  0.69328855  0.69941971  0.09996891  1
  Sc  Sc89  1  0.31067113  0.11255536  0.30129363  1
  Sc  Sc90  1  0.09832993  0.49493007  0.30644111  1
  Sc  Sc91  1  0.10326926  0.29929264  0.09485971  1
  Sc  Sc92  1  0.08439006  0.50330697  0.90054084  1
  Sc  Sc93  1  0.10312052  0.90047732  0.69428036  1
  Sc  Sc94  1  0.10117703  0.69563265  0.70082138  1
  Sc  Sc95  1  0.70793212  0.90342658  0.70008777  1
  Sc  Sc96  1  0.29520820  0.49604264  0.90443897  1
  Sc  Sc97  1  0.09589815  0.30313019  0.29784793  1
  Sc  Sc98  1  0.50409058  0.30541905  0.10606216  1
  Sc  Sc99  1  0.89852985  0.10010105  0.09589074  1
  Nb  Nb100  1  0.09629313  0.29943926  0.70433836  1
  Nb  Nb101  1  0.89268693  0.50275049  0.90443900  1
  Nb  Nb102  1  0.70354235  0.49687853  0.89903442  1
  Nb  Nb103  1  0.90431505  0.49811682  0.28866819  1
  Nb  Nb104  1  0.50338726  0.90463681  0.49652244  1
  Nb  Nb105  1  0.90102943  0.89587760  0.70254287  1
  Nb  Nb106  1  0.70891598  0.71187783  0.30591067  1
  Nb  Nb107  1  0.10347909  0.89982486  0.50201655  1
  Nb  Nb108  1  0.30491971  0.09905289  0.50655805  1
  Nb  Nb109  1  0.30567765  0.10382624  0.68827461  1
  Nb  Nb110  1  0.69750128  0.89737451  0.30308364  1
  Nb  Nb111  1  0.90143236  0.50248834  0.10382172  1
  Nb  Nb112  1  0.49176369  0.10022963  0.69493928  1
  Nb  Nb113  1  0.10165546  0.90188402  0.89471687  1
  Nb  Nb114  1  0.28600409  0.89702323  0.90626557  1
  Nb  Nb115  1  0.90076987  0.30136848  0.89529215  1
  Nb  Nb116  1  0.49665667  0.10243586  0.49702151  1
  Nb  Nb117  1  0.50546034  0.90428203  0.30545254  1
  Nb  Nb118  1  0.89998494  0.69609384  0.90084255  1
  Nb  Nb119  1  0.50366979  0.09982299  0.31045719  1
  Nb  Nb120  1  0.90917180  0.49992378  0.70442113  1
  Nb  Nb121  1  0.08934350  0.29097890  0.88747658  1
  Nb  Nb122  1  0.69254237  0.09810856  0.69836820  1
  Nb  Nb123  1  0.70638305  0.30361431  0.88972273  1
  Nb  Nb124  1  0.30441693  0.90240031  0.29916540  1
  Nb  Nb125  1  0.59295046  0.19305419  0.60232148  1
  Nb  Nb126  1  0.20173392  0.19370890  0.40872033  1
  Nb  Nb127  1  0.00314910  -0.00018556  0.20403887  1
  Nb  Nb128  1  0.40288490  -0.00061415  0.40214235  1
  Nb  Nb129  1  0.80627643  0.79534623  -0.00524891  1
  Nb  Nb130  1  -0.00286243  0.80290190  0.80396246  1
  Nb  Nb131  1  -0.00355558  0.79997399  -0.00859884  1
  Nb  Nb132  1  0.59184682  0.00449541  0.59827798  1
  Nb  Nb133  1  0.60001654  0.00353645  0.00644680  1
  Nb  Nb134  1  0.79864143  -0.00793973  0.39634716  1
  Nb  Nb135  1  0.40544945  -0.00025065  0.20668904  1
  Nb  Nb136  1  0.59717729  -0.00004205  0.20823389  1
  Nb  Nb137  1  0.40446049  0.20175824  -0.00349697  1
  Nb  Nb138  1  0.20423134  0.80081198  0.20166746  1
  Nb  Nb139  1  0.20045071  0.60387696  0.19955605  1
  Nb  Nb140  1  0.79946840  0.21272497  -0.00856640  1
  Nb  Nb141  1  0.61314655  0.39953403  -0.00991480  1
  Nb  Nb142  1  0.40381119  0.59888534  0.00018940  1
  Nb  Nb143  1  0.18995551  0.39393107  0.79726115  1
  Nb  Nb144  1  -0.00146551  0.40146774  0.60727307  1
  Nb  Nb145  1  0.20925860  0.00145880  0.40084969  1
  Nb  Nb146  1  0.20170281  0.19763181  0.59824843  1
  Nb  Nb147  1  0.20410002  -0.00222861  0.20805469  1
  Nb  Nb148  1  0.60023369  0.19845487  0.79028777  1
  Nb  Nb149  1  0.60159707  0.60045199  0.59982984  1
  Pd  Pd150  1  0.79514852  0.59259466  0.60758302  1
  Pd  Pd151  1  -0.01106815  0.80698689  0.40196059  1
  Pd  Pd152  1  0.40564376  0.00871658  0.00881343  1
  Pd  Pd153  1  0.80859986  0.80063210  0.80669188  1
  Pd  Pd154  1  0.80627931  0.59781296  0.79429333  1
  Pd  Pd155  1  0.19387727  0.40694884  0.20265411  1
  Pd  Pd156  1  0.79629183  0.80114671  0.59757355  1
  Pd  Pd157  1  0.00199287  0.20418758  0.40907123  1
  Pd  Pd158  1  0.40296914  -0.01123614  0.59704839  1
  Pd  Pd159  1  0.39730161  0.59513848  0.19780283  1
  Pd  Pd160  1  0.60261590  0.80062758  0.60343859  1
  Pd  Pd161  1  -0.00955428  0.20717984  0.00460322  1
  Pd  Pd162  1  -0.00108951  0.39478314  -0.00378308  1
  Pd  Pd163  1  0.40259273  0.20072645  0.80359372  1
  Pd  Pd164  1  0.60107489  0.20950297  -0.01102671  1
  Pd  Pd165  1  0.79115823  0.60291117  0.20348016  1
  Pd  Pd166  1  0.18307824  0.40074719  -0.00999530  1
  Pd  Pd167  1  0.38891938  0.59409385  0.80629536  1
  Pd  Pd168  1  0.80053998  0.39507852  0.00215384  1
  Pd  Pd169  1  0.20446445  0.00068444  0.79400782  1
  Pd  Pd170  1  0.79435769  0.00266871  -0.00286281  1
  Pd  Pd171  1  0.38828853  0.40830523  0.79908776  1
  Pd  Pd172  1  0.00450264  0.20594994  0.59713304  1
  Pd  Pd173  1  0.20432030  0.19978231  0.79724139  1
  Pd  Pd174  1  0.19259805  0.39250685  0.60068899  1
  Pd  Pd175  1  0.38808486  -0.00475528  0.79877054  1
  Pd  Pd176  1  0.00019810  -0.00106965  0.61009662  1
  Pd  Pd177  1  0.20216377  0.19738481  0.20743020  1
  Pd  Pd178  1  0.60247037  0.79714182  0.80229695  1
  Pd  Pd179  1  0.39418053  0.20191420  0.19117517  1
  Pd  Pd180  1  0.19863599  0.60876283  0.39204371  1
  Pd  Pd181  1  0.20610954  0.79424200  0.39289806  1
  Pd  Pd182  1  0.41519115  0.40131032  0.00220674  1
  Pd  Pd183  1  0.40227749  0.80356268  0.20329821  1
  Pd  Pd184  1  0.00316221  0.59406369  0.40410278  1
  Pd  Pd185  1  0.39917861  0.80626037  0.60453235  1
  Pd  Pd186  1  0.81140309  0.40211938  0.79470009  1
  Pd  Pd187  1  0.60676004  0.60473928  0.20398530  1
  Pd  Pd188  1  0.00682020  0.59563551  0.59132486  1
  Pd  Pd189  1  0.38999516  0.80431982  0.80465599  1
  Pd  Pd190  1  0.79943800  0.00110649  0.21018512  1
  Pd  Pd191  1  0.60332999  0.20250862  0.21100784  1
  Pd  Pd192  1  -0.00352995  0.19884263  0.19082368  1
  Pd  Pd193  1  0.79241935  0.19248113  0.59525050  1
  Pd  Pd194  1  -0.01304134  -0.01079115  0.39285028  1
  Pd  Pd195  1  0.01186588  0.80663458  0.18936142  1
  Pd  Pd196  1  0.80129123  0.00427302  0.79858969  1
  Pd  Pd197  1  0.20327153  0.59001975  0.80177289  1
  Pd  Pd198  1  0.59792894  0.79393189  0.39840458  1
  Pd  Pd199  1  0.40479051  0.80292151  0.40009788  1
  Rh  Rh200  1  0.40192158  0.40357738  0.39747127  1
  Rh  Rh201  1  -0.00505258  0.40470845  0.40572976  1
  Rh  Rh202  1  0.19639961  0.00329709  0.00159320  1
  Rh  Rh203  1  0.79048182  -0.00272772  0.59266914  1
  Rh  Rh204  1  0.60417890  0.39711791  0.20199534  1
  Rh  Rh205  1  0.40772717  0.59602693  0.59806286  1
  Rh  Rh206  1  0.61034247  0.80812864  -0.00193111  1
  Rh  Rh207  1  0.20152897  0.20017468  -0.00827004  1
  Rh  Rh208  1  0.80061392  0.19529162  0.40721366  1
  Rh  Rh209  1  0.81339021  0.40438925  0.61112172  1
  Rh  Rh210  1  -0.00015713  -0.00436505  0.79264562  1
  Rh  Rh211  1  0.60380907  0.00136425  0.40171664  1
  Rh  Rh212  1  0.59818578  0.00263378  0.79661281  1
  Rh  Rh213  1  0.80572867  0.60264219  0.00348666  1
  Rh  Rh214  1  -0.00726209  0.60589244  0.80304890  1
  Rh  Rh215  1  0.60013344  0.39272375  0.79908186  1
  Rh  Rh216  1  0.19268576  0.80187657  0.79765023  1
  Rh  Rh217  1  0.59940022  0.60526704  0.40179435  1
  Rh  Rh218  1  0.19867037  0.79527360  0.60686288  1
  Rh  Rh219  1  0.19502374  0.60546936  0.59469457  1
  Rh  Rh220  1  0.59371939  0.40070910  0.60393547  1
  Rh  Rh221  1  -0.01048185  0.59991111  -0.00105254  1
  Rh  Rh222  1  0.40064938  0.20852155  0.59378376  1
  Rh  Rh223  1  0.00969434  0.59136590  0.20252833  1
  Rh  Rh224  1  0.80457980  0.80658209  0.40791883  1
  Rh  Rh225  1  0.40191551  0.39681090  0.20325108  1
  Rh  Rh226  1  0.59543395  0.58717994  0.00531079  1
  Rh  Rh227  1  0.00374197  -0.00161138  0.00426131  1
  Rh  Rh228  1  0.79933103  0.19344503  0.80267678  1
  Rh  Rh229  1  0.80643395  0.20515462  0.19171771  1
  Rh  Rh230  1  0.80155793  0.59244130  0.39241327  1
  Rh  Rh231  1  0.80291838  0.40757305  0.39065123  1
  Rh  Rh232  1  0.40663438  0.59912495  0.40048433  1
  Rh  Rh233  1  0.79306347  0.79128190  0.19174784  1
  Rh  Rh234  1  0.60345140  0.80136484  0.20749307  1
  Rh  Rh235  1  0.39465098  0.20065491  0.40696412  1
  Rh  Rh236  1  0.79965434  0.40463416  0.20612751  1
  Rh  Rh237  1  0.20855687  0.58777030  0.00673642  1
  Rh  Rh238  1  0.40130862  0.40556870  0.59529310  1
  Rh  Rh239  1  0.60184319  0.20630099  0.40759808  1
  Rh  Rh240  1  0.39947859  0.79211215  -0.00819333  1
  Rh  Rh241  1  0.19067752  0.80425609  0.00214105  1
  Rh  Rh242  1  -0.00803433  0.19188513  0.79572858  1
  Rh  Rh243  1  0.20108383  0.39030465  0.39816373  1
  Rh  Rh244  1  0.00298752  0.80121845  0.60916022  1
  Rh  Rh245  1  -0.00310190  0.40025544  0.80007566  1
  Rh  Rh246  1  0.20226263  0.00413274  0.60033957  1
  Rh  Rh247  1  0.00597779  0.40242650  0.19890789  1
  Rh  Rh248  1  0.59768646  0.39309924  0.39078428  1
  Rh  Rh249  1  0.60396116  0.60160554  0.78962162  1
