# generated using pymatgen
data_ZrScNbPdRh
_symmetry_space_group_name_H-M   'P 1'
_cell_length_a   16.55754197
_cell_length_b   16.55860652
_cell_length_c   16.56269427
_cell_angle_alpha   89.98764021
_cell_angle_beta   89.97944682
_cell_angle_gamma   90.00157166
_symmetry_Int_Tables_number   1
_chemical_formula_structural   ZrScNbPdRh
_chemical_formula_sum   'Zr50 Sc50 Nb50 Pd50 Rh50'
_cell_volume   4540.99054797
_cell_formula_units_Z   50
loop_
 _symmetry_equiv_pos_site_id
 _symmetry_equiv_pos_as_xyz
  1  'x, y, z'
loop_
 _atom_site_type_symbol
 _atom_site_label
 _atom_site_symmetry_multiplicity
 _atom_site_fract_x
 _atom_site_fract_y
 _atom_site_fract_z
 _atom_site_occupancy
  Zr  Zr0  1  0.10351105  0.90427684  0.09706011  1
  Zr  Zr1  1  0.89234508  0.11129115  0.90760876  1
  Zr  Zr2  1  0.29682134  0.50242176  0.91067215  1
  Zr  Zr3  1  0.90444114  0.30652167  0.70661992  1
  Zr  Zr4  1  0.29683083  0.89889034  0.50003670  1
  Zr  Zr5  1  0.70108058  0.09181613  0.10471433  1
  Zr  Zr6  1  0.69153435  0.30123812  0.29979457  1
  Zr  Zr7  1  0.70639573  0.28514559  0.89690578  1
  Zr  Zr8  1  0.09478247  0.70129378  0.71158933  1
  Zr  Zr9  1  0.10614745  0.69273454  0.49345192  1
  Zr  Zr10  1  0.69617789  0.09556729  0.29397911  1
  Zr  Zr11  1  0.50396301  0.09259579  0.48632366  1
  Zr  Zr12  1  0.69828591  0.89876633  0.70374152  1
  Zr  Zr13  1  0.89992404  0.88825722  0.69829426  1
  Zr  Zr14  1  0.50307558  0.30596688  0.09312216  1
  Zr  Zr15  1  0.30321319  0.10206109  0.70465382  1
  Zr  Zr16  1  0.49893524  0.09690242  0.10455563  1
  Zr  Zr17  1  0.50451827  0.09343438  0.70975816  1
  Zr  Zr18  1  0.30328319  0.10424572  0.28922645  1
  Zr  Zr19  1  0.90357177  0.30240825  0.90115830  1
  Zr  Zr20  1  0.31096963  0.50359901  0.69993585  1
  Zr  Zr21  1  0.89385751  0.29360186  0.09289250  1
  Zr  Zr22  1  0.10687629  0.50008908  0.09573857  1
  Zr  Zr23  1  0.29711985  0.90710844  0.70617706  1
  Zr  Zr24  1  0.28795428  0.50078062  0.50404384  1
  Zr  Zr25  1  0.71145015  0.09417408  0.50657070  1
  Zr  Zr26  1  0.90543934  0.50204118  0.89693486  1
  Zr  Zr27  1  0.09785019  0.70637496  0.09753297  1
  Zr  Zr28  1  0.70219712  0.70390692  0.29710479  1
  Zr  Zr29  1  0.10769778  0.09542924  0.69598351  1
  Zr  Zr30  1  0.29278269  0.69912694  0.89798674  1
  Zr  Zr31  1  0.89131951  0.50052197  0.69705042  1
  Zr  Zr32  1  0.50486911  0.89782776  0.49877069  1
  Zr  Zr33  1  0.09465864  0.70452647  0.29842077  1
  Zr  Zr34  1  0.69587399  0.69312173  0.70465217  1
  Zr  Zr35  1  0.70005899  0.50729817  0.30703892  1
  Zr  Zr36  1  0.50744571  0.89171182  0.70316737  1
  Zr  Zr37  1  0.10261119  0.09366965  0.09937622  1
  Zr  Zr38  1  0.30014433  0.70379249  0.09470263  1
  Zr  Zr39  1  0.30616390  0.50997692  0.10134349  1
  Zr  Zr40  1  0.50565053  0.30105020  0.90457478  1
  Zr  Zr41  1  0.09285145  0.10676277  0.50580817  1
  Zr  Zr42  1  0.50392385  0.50009594  0.29809457  1
  Zr  Zr43  1  0.89843522  0.49006730  0.09931247  1
  Zr  Zr44  1  0.10046461  0.09893787  0.90306225  1
  Zr  Zr45  1  0.89266367  0.09977834  0.29217872  1
  Zr  Zr46  1  0.50189361  0.30116538  0.49161452  1
  Zr  Zr47  1  0.49379735  0.49761434  0.90863132  1
  Zr  Zr48  1  0.69348678  0.49251462  0.10653791  1
  Zr  Zr49  1  0.30074002  0.29362562  0.10124183  1
  Sc  Sc50  1  0.29455003  0.09863282  0.50225628  1
  Sc  Sc51  1  0.69923103  0.89961300  0.49868206  1
  Sc  Sc52  1  0.90964470  0.90037933  0.10334548  1
  Sc  Sc53  1  0.31295508  0.29592843  0.89715617  1
  Sc  Sc54  1  0.29556197  0.69821661  0.29024594  1
  Sc  Sc55  1  0.50383037  0.09999074  0.90012202  1
  Sc  Sc56  1  0.90200829  0.10086435  0.10294157  1
  Sc  Sc57  1  0.70086758  0.50414167  0.50663036  1
  Sc  Sc58  1  0.71405692  0.71029672  0.91007282  1
  Sc  Sc59  1  0.09310101  0.49399591  0.31161409  1
  Sc  Sc60  1  0.89101936  0.70731012  0.49564925  1
  Sc  Sc61  1  0.10370748  0.29948482  0.30188758  1
  Sc  Sc62  1  0.49818085  0.89766945  0.09523105  1
  Sc  Sc63  1  0.89793209  0.70316354  0.08795354  1
  Sc  Sc64  1  0.90782711  0.30367274  0.28592305  1
  Sc  Sc65  1  0.71104255  0.30040809  0.69791771  1
  Sc  Sc66  1  0.49474224  0.69700394  0.90188192  1
  Sc  Sc67  1  0.70221224  0.90038250  0.28855554  1
  Sc  Sc68  1  0.49545536  0.31192341  0.69731342  1
  Sc  Sc69  1  0.49268188  0.70228265  0.10709302  1
  Sc  Sc70  1  0.69684055  0.30069772  0.09779558  1
  Sc  Sc71  1  0.10077046  0.89485728  0.90629083  1
  Sc  Sc72  1  0.69589709  0.69675842  0.48649009  1
  Sc  Sc73  1  0.10290800  0.10822825  0.29235765  1
  Sc  Sc74  1  0.30934789  0.09163949  0.89227148  1
  Sc  Sc75  1  0.89627255  0.70860955  0.30687924  1
  Sc  Sc76  1  0.29928160  0.09123442  0.10144460  1
  Sc  Sc77  1  0.89747239  0.10406362  0.68337375  1
  Sc  Sc78  1  0.30288585  0.30171428  0.69662090  1
  Sc  Sc79  1  0.90409169  0.70495379  0.89718506  1
  Sc  Sc80  1  0.50395230  0.90969406  0.29882645  1
  Sc  Sc81  1  0.09428021  0.90051665  0.69918925  1
  Sc  Sc82  1  0.09174417  0.89827534  0.29047622  1
  Sc  Sc83  1  0.30296330  0.49713790  0.30519378  1
  Sc  Sc84  1  0.09048801  0.49582822  0.70406001  1
  Sc  Sc85  1  0.30089830  0.29674244  0.30628634  1
  Sc  Sc86  1  0.29551841  0.90192470  0.29082184  1
  Sc  Sc87  1  0.10196752  0.30171786  0.69325254  1
  Sc  Sc88  1  0.09466801  0.30086539  0.09900823  1
  Sc  Sc89  1  0.49982151  0.49420864  0.50857552  1
  Sc  Sc90  1  0.10607600  0.30888302  0.50185188  1
  Sc  Sc91  1  0.09785898  0.50457555  0.90321576  1
  Sc  Sc92  1  0.50468565  0.90434691  0.90467041  1
  Sc  Sc93  1  0.89282866  0.90353314  0.50695802  1
  Sc  Sc94  1  0.90829108  0.29494846  0.51689411  1
  Sc  Sc95  1  0.89803604  0.89924953  0.29771586  1
  Sc  Sc96  1  0.70953401  0.51086961  0.90152502  1
  Sc  Sc97  1  0.30334764  0.31410410  0.50033649  1
  Sc  Sc98  1  0.09596125  0.90275729  0.50803611  1
  Sc  Sc99  1  0.50770015  0.70255888  0.29676194  1
  Nb  Nb100  1  0.29846616  0.89856716  0.08483070  1
  Nb  Nb101  1  0.30154092  0.69674173  0.69979767  1
  Nb  Nb102  1  0.29795116  0.69636776  0.50214415  1
  Nb  Nb103  1  0.69806499  0.09635389  0.89243905  1
  Nb  Nb104  1  0.69490608  0.50444527  0.70122585  1
  Nb  Nb105  1  0.89933176  0.49912404  0.30047578  1
  Nb  Nb106  1  0.50056649  0.49785162  0.09935703  1
  Nb  Nb107  1  0.90360299  0.50082185  0.49477058  1
  Nb  Nb108  1  0.09461030  0.49914035  0.50266754  1
  Nb  Nb109  1  0.09463989  0.69958381  0.89932738  1
  Nb  Nb110  1  0.49734939  0.70298868  0.49721652  1
  Nb  Nb111  1  0.70089762  0.10205244  0.70595254  1
  Nb  Nb112  1  0.90000393  0.10075569  0.49802197  1
  Nb  Nb113  1  0.49400638  0.69098212  0.70221141  1
  Nb  Nb114  1  0.30597224  0.89712457  0.90823173  1
  Nb  Nb115  1  0.49899947  0.10407740  0.29778490  1
  Nb  Nb116  1  0.89034233  0.89620116  0.89575432  1
  Nb  Nb117  1  0.49459084  0.29621195  0.30318069  1
  Nb  Nb118  1  0.69443138  0.89326293  0.09205207  1
  Nb  Nb119  1  0.90290088  0.70135494  0.69965577  1
  Nb  Nb120  1  0.70094515  0.70280696  0.10070842  1
  Nb  Nb121  1  0.10476337  0.30225522  0.90030530  1
  Nb  Nb122  1  0.50955411  0.51079310  0.70813189  1
  Nb  Nb123  1  0.70192020  0.29643941  0.49770317  1
  Nb  Nb124  1  0.70157809  0.90084206  0.90201797  1
  Nb  Nb125  1  0.79870631  0.00143891  0.80148475  1
  Nb  Nb126  1  0.00370372  0.19718278  0.80072860  1
  Nb  Nb127  1  0.20247737  0.40027965  0.80506255  1
  Nb  Nb128  1  0.40340659  0.39811687  0.19951478  1
  Nb  Nb129  1  0.20563801  0.40110676  0.19722558  1
  Nb  Nb130  1  0.60479920  0.41046583  0.79744930  1
  Nb  Nb131  1  0.39596166  0.79592658  0.79498459  1
  Nb  Nb132  1  0.80459525  0.39660070  0.40428354  1
  Nb  Nb133  1  0.41034955  0.19254036  0.59747088  1
  Nb  Nb134  1  -0.00133207  0.00970677  0.40196679  1
  Nb  Nb135  1  -0.00765703  0.59678734  0.20207023  1
  Nb  Nb136  1  0.39716586  0.79479336  0.40466408  1
  Nb  Nb137  1  0.80323025  0.59849888  0.19935532  1
  Nb  Nb138  1  0.20594072  0.79067376  0.60406975  1
  Nb  Nb139  1  0.39857280  0.79265920  0.60177446  1
  Nb  Nb140  1  0.19973585  0.19838805  -0.00424264  1
  Nb  Nb141  1  0.40422545  -0.00276860  0.60153936  1
  Nb  Nb142  1  0.80212391  0.20443449  0.40192138  1
  Nb  Nb143  1  -0.01070451  0.00304221  0.80275260  1
  Nb  Nb144  1  0.79365771  -0.00622237  -0.00584001  1
  Nb  Nb145  1  0.39996454  0.60732098  0.40652390  1
  Nb  Nb146  1  0.60161673  0.59994338  0.00977051  1
  Nb  Nb147  1  0.60208925  0.19828371  0.59804140  1
  Nb  Nb148  1  0.19235394  0.00307901  0.39731735  1
  Nb  Nb149  1  -0.00558269  0.59939852  0.59525408  1
  Pd  Pd150  1  0.20339236  0.59509158  0.39012189  1
  Pd  Pd151  1  -0.00742082  0.60546013  0.39942267  1
  Pd  Pd152  1  0.18716386  0.59834864  0.61211071  1
  Pd  Pd153  1  0.59554132  0.20387297  0.19643540  1
  Pd  Pd154  1  0.60246804  0.60703172  0.19433030  1
  Pd  Pd155  1  0.79320717  0.40043762  -0.00772551  1
  Pd  Pd156  1  -0.00222054  0.81342891  0.40713563  1
  Pd  Pd157  1  0.20043941  0.20802388  0.80426302  1
  Pd  Pd158  1  0.79877025  0.40033597  0.59327483  1
  Pd  Pd159  1  0.60045578  0.00519643  0.60021297  1
  Pd  Pd160  1  0.21000994  0.20832609  0.59416315  1
  Pd  Pd161  1  0.60445009  0.40702035  0.40478117  1
  Pd  Pd162  1  0.40038943  -0.00886360  0.19528819  1
  Pd  Pd163  1  0.78772561  0.79124397  0.59755410  1
  Pd  Pd164  1  0.39084386  0.19761327  0.40670052  1
  Pd  Pd165  1  0.00302988  0.39854787  -0.00049656  1
  Pd  Pd166  1  -0.00850130  0.20348773  0.39694444  1
  Pd  Pd167  1  0.40047217  0.80602997  0.20659803  1
  Pd  Pd168  1  0.59835255  0.80601735  0.39057393  1
  Pd  Pd169  1  0.60274806  0.78682625  0.59912712  1
  Pd  Pd170  1  0.80297941  -0.00126404  0.39610691  1
  Pd  Pd171  1  0.59705344  0.78958175  0.81129387  1
  Pd  Pd172  1  0.79632334  0.39837641  0.20787247  1
  Pd  Pd173  1  0.20046928  0.80593152  0.79974142  1
  Pd  Pd174  1  0.60482362  0.39476363  0.60671797  1
  Pd  Pd175  1  0.40532574  0.59779561  0.59367295  1
  Pd  Pd176  1  0.40133776  0.40296708  0.80104086  1
  Pd  Pd177  1  0.59193785  0.78950781  -0.00105878  1
  Pd  Pd178  1  0.20020785  0.80719020  0.40042956  1
  Pd  Pd179  1  0.19167576  -0.00947109  0.80920196  1
  Pd  Pd180  1  0.60298572  0.60337894  0.81734519  1
  Pd  Pd181  1  0.60872842  0.19174408  0.40260679  1
  Pd  Pd182  1  0.80191371  0.60710138  0.59546136  1
  Pd  Pd183  1  -0.00686161  0.38684778  0.40499472  1
  Pd  Pd184  1  0.80668108  0.79858742  0.19284388  1
  Pd  Pd185  1  0.19635198  0.58982881  0.79731828  1
  Pd  Pd186  1  0.00689890  0.78902835  0.59096638  1
  Pd  Pd187  1  0.60380561  0.19041605  0.00369064  1
  Pd  Pd188  1  0.59754855  0.60542510  0.59346092  1
  Pd  Pd189  1  0.18921964  0.59106564  0.21052134  1
  Pd  Pd190  1  0.80533642  0.60824083  0.80163399  1
  Pd  Pd191  1  0.39534621  0.18965032  -0.00056947  1
  Pd  Pd192  1  -0.00087969  0.60180194  0.00458412  1
  Pd  Pd193  1  0.00358838  0.20009800  0.19562060  1
  Pd  Pd194  1  0.38973866  -0.00439589  0.39751042  1
  Pd  Pd195  1  0.20156201  0.80550379  0.19489530  1
  Pd  Pd196  1  0.59463635  0.21369194  0.78895893  1
  Pd  Pd197  1  -0.01148674  -0.00542419  -0.00629815  1
  Pd  Pd198  1  0.20491583  0.19869556  0.40533419  1
  Pd  Pd199  1  0.79123945  0.40329795  0.80527770  1
  Rh  Rh200  1  0.40302334  0.59543417  0.20809954  1
  Rh  Rh201  1  0.40176512  0.79854838  -0.00626750  1
  Rh  Rh202  1  0.20983121  0.00481108  -0.00658790  1
  Rh  Rh203  1  0.39816333  0.60172506  0.80642126  1
  Rh  Rh204  1  0.19890619  0.40783724  0.60988651  1
  Rh  Rh205  1  0.40321107  0.40827963  0.39534399  1
  Rh  Rh206  1  -0.00013358  0.40806908  0.59793015  1
  Rh  Rh207  1  -0.00594216  0.00150242  0.60057827  1
  Rh  Rh208  1  0.19566305  0.20702755  0.19110631  1
  Rh  Rh209  1  0.60366028  0.00270541  0.00177794  1
  Rh  Rh210  1  0.19652518  0.79712251  -0.00192527  1
  Rh  Rh211  1  0.79396575  0.80963595  0.39985191  1
  Rh  Rh212  1  0.40951898  0.20359554  0.79285776  1
  Rh  Rh213  1  0.80575491  0.80908235  0.00707678  1
  Rh  Rh214  1  0.59057077  0.39171253  0.20582949  1
  Rh  Rh215  1  0.00543653  0.20115904  0.60904248  1
  Rh  Rh216  1  0.19730304  0.40218691  0.39578341  1
  Rh  Rh217  1  0.79985599  -0.00480467  0.61003221  1
  Rh  Rh218  1  0.40293792  0.00122723  0.00052061  1
  Rh  Rh219  1  0.58912610  0.59579234  0.40676538  1
  Rh  Rh220  1  -0.00736364  0.60103457  0.79628668  1
  Rh  Rh221  1  0.40814002  0.20502028  0.19989320  1
  Rh  Rh222  1  0.59827428  0.80531682  0.19535602  1
  Rh  Rh223  1  0.20905569  0.38769486  -0.00230028  1
  Rh  Rh224  1  0.00980839  0.20432549  -0.00328460  1
  Rh  Rh225  1  -0.00576134  0.78926722  0.19770724  1
  Rh  Rh226  1  0.20279828  -0.00611736  0.59560169  1
  Rh  Rh227  1  0.79617672  0.79697228  0.79413908  1
  Rh  Rh228  1  0.79950134  -0.01194084  0.18628230  1
  Rh  Rh229  1  0.40859017  -0.01235021  0.80080250  1
  Rh  Rh230  1  0.19235346  0.61062442  -0.00311111  1
  Rh  Rh231  1  0.60843539  0.00029334  0.39316304  1
  Rh  Rh232  1  0.79579677  0.20824675  0.20321039  1
  Rh  Rh233  1  0.39248457  0.39910865  0.00840858  1
  Rh  Rh234  1  0.00993486  0.39399300  0.80421500  1
  Rh  Rh235  1  0.80524513  0.59496807  0.39636073  1
  Rh  Rh236  1  0.81126016  0.19325125  0.79022253  1
  Rh  Rh237  1  0.79340618  0.59596281  0.01374376  1
  Rh  Rh238  1  0.40726345  0.60733514  0.00444481  1
  Rh  Rh239  1  0.59427161  -0.00553612  0.19673090  1
  Rh  Rh240  1  0.19978526  -0.00463392  0.20145083  1
  Rh  Rh241  1  0.40173973  0.40212374  0.60026113  1
  Rh  Rh242  1  0.79579522  0.20349303  0.59872499  1
  Rh  Rh243  1  0.60463850  -0.00508631  0.80560890  1
  Rh  Rh244  1  -0.00018103  0.80632761  0.80663594  1
  Rh  Rh245  1  0.00071372  0.00517077  0.20782107  1
  Rh  Rh246  1  0.78802326  0.19165451  0.01015242  1
  Rh  Rh247  1  0.01234787  0.40822923  0.19789229  1
  Rh  Rh248  1  -0.00135547  0.80386119  -0.00579611  1
  Rh  Rh249  1  0.61090108  0.40949464  -0.01443215  1
