# generated using pymatgen
data_ZrScNbPdRh
_symmetry_space_group_name_H-M   'P 1'
_cell_length_a   16.55901827
_cell_length_b   16.56428215
_cell_length_c   16.56203879
_cell_angle_alpha   89.99764543
_cell_angle_beta   90.02825221
_cell_angle_gamma   90.00509550
_symmetry_Int_Tables_number   1
_chemical_formula_structural   ZrScNbPdRh
_chemical_formula_sum   'Zr50 Sc50 Nb50 Pd50 Rh50'
_cell_volume   4542.77207630
_cell_formula_units_Z   50
loop_
 _symmetry_equiv_pos_site_id
 _symmetry_equiv_pos_as_xyz
  1  'x, y, z'
loop_
 _atom_site_type_symbol
 _atom_site_label
 _atom_site_symmetry_multiplicity
 _atom_site_fract_x
 _atom_site_fract_y
 _atom_site_fract_z
 _atom_site_occupancy
  Zr  Zr0  1  0.29681672  0.09888591  0.90046896  1
  Zr  Zr1  1  0.10633644  0.50358187  0.29962041  1
  Zr  Zr2  1  0.49858895  0.89517110  0.10157020  1
  Zr  Zr3  1  0.30232556  0.50835262  0.89298038  1
  Zr  Zr4  1  0.50013220  0.30511555  0.11285446  1
  Zr  Zr5  1  0.89859248  0.89204343  0.90233651  1
  Zr  Zr6  1  0.89845101  0.90003802  0.69158019  1
  Zr  Zr7  1  0.09741841  0.49252297  0.50686271  1
  Zr  Zr8  1  0.30038040  0.50426217  0.30053794  1
  Zr  Zr9  1  0.29624813  0.30313078  0.50482197  1
  Zr  Zr10  1  0.30401246  0.30141764  0.29542387  1
  Zr  Zr11  1  0.49811987  0.50069138  0.49634884  1
  Zr  Zr12  1  0.10333344  0.50031509  0.89580172  1
  Zr  Zr13  1  0.89265428  0.49732368  0.10283070  1
  Zr  Zr14  1  0.89278894  0.29832280  0.69117713  1
  Zr  Zr15  1  0.69987174  0.29641886  0.90387403  1
  Zr  Zr16  1  0.90198112  0.49975036  0.68760374  1
  Zr  Zr17  1  0.68918841  0.11050839  0.90354134  1
  Zr  Zr18  1  0.90446386  0.89121164  0.10998903  1
  Zr  Zr19  1  0.49947718  0.51034740  0.90390271  1
  Zr  Zr20  1  0.09793631  0.69167882  0.90793607  1
  Zr  Zr21  1  0.70067110  0.29210936  0.70109826  1
  Zr  Zr22  1  0.69346919  0.89552475  0.10024487  1
  Zr  Zr23  1  0.50787355  0.49323631  0.29566509  1
  Zr  Zr24  1  0.09415935  0.89717345  0.69864921  1
  Zr  Zr25  1  0.70943227  0.89369764  0.49730505  1
  Zr  Zr26  1  0.70080879  0.10166705  0.10168466  1
  Zr  Zr27  1  0.90475752  0.70249239  0.09185898  1
  Zr  Zr28  1  0.28353608  0.09987206  0.49640657  1
  Zr  Zr29  1  0.71118911  0.29891606  0.10007742  1
  Zr  Zr30  1  0.89559859  0.09741310  0.69175346  1
  Zr  Zr31  1  0.50544415  0.10835274  0.30247673  1
  Zr  Zr32  1  0.29541206  0.89913446  0.90528837  1
  Zr  Zr33  1  0.89793453  0.70815914  0.50154297  1
  Zr  Zr34  1  0.49980586  0.69482303  0.90335079  1
  Zr  Zr35  1  0.09560921  0.09407428  0.68657415  1
  Zr  Zr36  1  0.09907677  0.89260997  0.10716000  1
  Zr  Zr37  1  0.28987167  0.90298226  0.29888060  1
  Zr  Zr38  1  0.09419085  0.90371633  0.49306363  1
  Zr  Zr39  1  0.69712482  0.89583765  0.89910751  1
  Zr  Zr40  1  0.30841929  0.70221699  0.89851307  1
  Zr  Zr41  1  0.30549061  0.09983621  0.70474417  1
  Zr  Zr42  1  0.50051753  0.70266408  0.09744151  1
  Zr  Zr43  1  0.90332521  0.11036093  0.10814073  1
  Zr  Zr44  1  0.49819863  0.70824293  0.70770941  1
  Zr  Zr45  1  0.69853276  0.89727438  0.69529873  1
  Zr  Zr46  1  0.70203072  0.70239847  0.89798025  1
  Zr  Zr47  1  0.70647621  0.50016944  0.29756341  1
  Zr  Zr48  1  0.30916863  0.89006819  0.70073384  1
  Zr  Zr49  1  0.70401701  0.50333409  0.49080426  1
  Sc  Sc50  1  0.89989951  0.30409031  0.49903300  1
  Sc  Sc51  1  0.70603018  0.70572180  0.70443927  1
  Sc  Sc52  1  0.70899684  0.50377815  0.69444101  1
  Sc  Sc53  1  0.90422386  0.10081752  0.30526000  1
  Sc  Sc54  1  0.50774417  0.09876423  0.10921562  1
  Sc  Sc55  1  0.29705566  0.70019740  0.30949680  1
  Sc  Sc56  1  0.90186395  0.50926798  0.90729554  1
  Sc  Sc57  1  0.10658551  0.70386966  0.30278201  1
  Sc  Sc58  1  0.50632424  0.90278451  0.50412500  1
  Sc  Sc59  1  0.10124605  0.70462427  0.49978343  1
  Sc  Sc60  1  0.29777889  0.50358126  0.68901741  1
  Sc  Sc61  1  0.69815125  0.69832850  0.10337801  1
  Sc  Sc62  1  0.69637721  0.30169872  0.30403835  1
  Sc  Sc63  1  0.09667998  0.70240569  0.69909784  1
  Sc  Sc64  1  0.49991793  0.88787650  0.90224312  1
  Sc  Sc65  1  0.29135107  0.10634606  0.29468142  1
  Sc  Sc66  1  0.50128322  0.30159126  0.69595923  1
  Sc  Sc67  1  0.69522924  0.49852135  0.10508281  1
  Sc  Sc68  1  0.70193180  0.51137171  0.90667261  1
  Sc  Sc69  1  0.70231017  0.08729741  0.49034923  1
  Sc  Sc70  1  0.29967845  0.29394175  0.11062146  1
  Sc  Sc71  1  0.10081215  0.50146024  0.69885266  1
  Sc  Sc72  1  0.28918662  0.09884306  0.10339980  1
  Sc  Sc73  1  0.89969882  0.70833189  0.29524097  1
  Sc  Sc74  1  0.10182268  0.29260360  0.50134221  1
  Sc  Sc75  1  0.50938982  0.29120134  0.89962019  1
  Sc  Sc76  1  0.90198025  0.29876157  0.91897413  1
  Sc  Sc77  1  0.10308314  0.10123168  0.90874614  1
  Sc  Sc78  1  0.70122270  0.10473550  0.30317452  1
  Sc  Sc79  1  0.10213721  0.29425598  0.90340771  1
  Sc  Sc80  1  0.10448679  0.50502686  0.09648391  1
  Sc  Sc81  1  0.89850482  0.70017018  0.70183456  1
  Sc  Sc82  1  0.50013323  0.70538771  0.48291524  1
  Sc  Sc83  1  0.29407345  0.89999665  0.10315507  1
  Sc  Sc84  1  0.49802334  0.89502749  0.29438134  1
  Sc  Sc85  1  0.29961832  0.50115578  0.10751198  1
  Sc  Sc86  1  0.09912371  0.89515859  0.90128348  1
  Sc  Sc87  1  0.89222353  0.29730896  0.30402179  1
  Sc  Sc88  1  0.49787948  0.50655146  0.69795470  1
  Sc  Sc89  1  0.89414847  0.69714958  0.90153709  1
  Sc  Sc90  1  0.10927327  0.30653691  0.68944182  1
  Sc  Sc91  1  0.68974158  0.69740979  0.30145762  1
  Sc  Sc92  1  0.70180299  0.30537259  0.49907742  1
  Sc  Sc93  1  0.10035671  0.10041640  0.30819504  1
  Sc  Sc94  1  0.09664703  0.29274629  0.09573425  1
  Sc  Sc95  1  0.29828510  0.89126761  0.50055981  1
  Sc  Sc96  1  0.50854600  0.30900151  0.49634593  1
  Sc  Sc97  1  0.90265801  0.10257653  0.90192862  1
  Sc  Sc98  1  0.29554291  0.28695187  0.88944525  1
  Sc  Sc99  1  0.10076363  0.10253344  0.10436011  1
  Nb  Nb100  1  0.90000315  0.49815679  0.30247075  1
  Nb  Nb101  1  0.49656695  0.09484021  0.69836259  1
  Nb  Nb102  1  0.90976710  0.90163506  0.30512660  1
  Nb  Nb103  1  0.49700104  0.29973073  0.30167044  1
  Nb  Nb104  1  0.49835707  0.09835371  0.49764290  1
  Nb  Nb105  1  0.30514860  0.70489465  0.69320897  1
  Nb  Nb106  1  0.30313579  0.29586531  0.69863470  1
  Nb  Nb107  1  0.49998199  0.90614581  0.69945668  1
  Nb  Nb108  1  0.69477248  0.70066102  0.49893452  1
  Nb  Nb109  1  0.29910831  0.50858210  0.49580412  1
  Nb  Nb110  1  0.90074802  0.30069852  0.10550803  1
  Nb  Nb111  1  0.29752760  0.70073636  0.10086153  1
  Nb  Nb112  1  0.10452057  0.30340455  0.30409570  1
  Nb  Nb113  1  0.08744864  0.89904036  0.29988381  1
  Nb  Nb114  1  0.89795983  0.49824038  0.49438607  1
  Nb  Nb115  1  0.10088140  0.69774338  0.10493561  1
  Nb  Nb116  1  0.71239267  0.90422583  0.30208482  1
  Nb  Nb117  1  0.49940092  0.50299249  0.09757007  1
  Nb  Nb118  1  0.29948003  0.68790004  0.50238813  1
  Nb  Nb119  1  0.90524215  0.09035907  0.50158617  1
  Nb  Nb120  1  0.10023486  0.09891073  0.49985874  1
  Nb  Nb121  1  0.70015250  0.10122670  0.70479078  1
  Nb  Nb122  1  0.49465651  0.10391978  0.89536689  1
  Nb  Nb123  1  0.89651135  0.90401970  0.49130758  1
  Nb  Nb124  1  0.50233950  0.69779633  0.29116455  1
  Nb  Nb125  1  0.40335336  0.19463167  0.59632545  1
  Nb  Nb126  1  0.60285551  0.60752111  0.59170888  1
  Nb  Nb127  1  0.40258401  0.19668792  0.00113164  1
  Nb  Nb128  1  -0.00180461  0.20445815  0.79308560  1
  Nb  Nb129  1  0.40093553  0.39900814  0.80302280  1
  Nb  Nb130  1  0.59661355  0.18601770  0.59898653  1
  Nb  Nb131  1  -0.00567677  -0.00510029  0.00890239  1
  Nb  Nb132  1  0.80255512  0.39865235  0.80326142  1
  Nb  Nb133  1  0.80502350  -0.00545950  0.20109086  1
  Nb  Nb134  1  0.40309238  0.19976017  0.40332268  1
  Nb  Nb135  1  0.60393890  0.40236085  0.80130139  1
  Nb  Nb136  1  0.40317507  0.00509333  -0.00052117  1
  Nb  Nb137  1  0.80137505  -0.00134635  0.00382403  1
  Nb  Nb138  1  0.20041341  -0.00372906  0.79541013  1
  Nb  Nb139  1  0.59454900  0.00453280  0.79413968  1
  Nb  Nb140  1  0.20341472  0.40394262  0.40124666  1
  Nb  Nb141  1  -0.00290870  0.40118916  0.20279726  1
  Nb  Nb142  1  0.20965187  0.39934261  -0.00472003  1
  Nb  Nb143  1  -0.00090685  0.59591810  0.20355644  1
  Nb  Nb144  1  0.40492548  0.60400846  0.20006797  1
  Nb  Nb145  1  0.39753034  0.39646518  -0.00345033  1
  Nb  Nb146  1  0.39815180  0.00669155  0.39934486  1
  Nb  Nb147  1  -0.00586468  0.59361750  0.39933194  1
  Nb  Nb148  1  0.79282242  0.00363704  0.80245592  1
  Nb  Nb149  1  -0.00552382  0.39458463  0.79956053  1
  Pd  Pd150  1  0.79572003  0.60748143  0.59708400  1
  Pd  Pd151  1  0.18766945  0.00131495  0.20532007  1
  Pd  Pd152  1  0.39789196  0.00795377  0.20048723  1
  Pd  Pd153  1  0.00156734  0.60524481  0.59212574  1
  Pd  Pd154  1  0.80381480  0.60640852  0.20066983  1
  Pd  Pd155  1  0.80481296  0.61039494  0.39489240  1
  Pd  Pd156  1  0.20758955  0.59600273  0.00353397  1
  Pd  Pd157  1  0.19774626  0.79511251  0.00389586  1
  Pd  Pd158  1  -0.00352753  0.79108086  0.80357659  1
  Pd  Pd159  1  0.40920097  0.79449206  0.58909105  1
  Pd  Pd160  1  0.60673299  0.40745020  0.60638652  1
  Pd  Pd161  1  0.81039251  0.20088651  0.80861578  1
  Pd  Pd162  1  0.20486450  -0.01112051  0.60448615  1
  Pd  Pd163  1  0.39001417  0.79353381  0.20186927  1
  Pd  Pd164  1  0.79782597  0.40610472  -0.00450294  1
  Pd  Pd165  1  0.41012838  0.60956320  0.59768936  1
  Pd  Pd166  1  0.18501135  0.19225113  0.78980714  1
  Pd  Pd167  1  0.60115926  0.80862024  0.39107046  1
  Pd  Pd168  1  0.59395726  0.00184340  -0.00752300  1
  Pd  Pd169  1  0.19805827  0.79698419  0.79888671  1
  Pd  Pd170  1  -0.00529018  0.59511805  0.79842741  1
  Pd  Pd171  1  0.19413474  0.60397689  0.60187711  1
  Pd  Pd172  1  0.39778036  0.39783648  0.60472898  1
  Pd  Pd173  1  0.79451797  0.79913069  0.20459927  1
  Pd  Pd174  1  0.20505678  0.61177724  0.78795896  1
  Pd  Pd175  1  0.60835702  0.20834849  0.20098165  1
  Pd  Pd176  1  0.19764168  0.79900581  0.59668625  1
  Pd  Pd177  1  0.59482753  0.40020117  -0.00303189  1
  Pd  Pd178  1  0.40735182  0.60214050  0.39100408  1
  Pd  Pd179  1  0.79874080  0.79228600  0.39265471  1
  Pd  Pd180  1  0.59466364  -0.00879116  0.39275991  1
  Pd  Pd181  1  0.00973197  0.40309698  0.00238435  1
  Pd  Pd182  1  0.60761603  0.00307648  0.60030402  1
  Pd  Pd183  1  0.39854817  0.80668685  0.39889982  1
  Pd  Pd184  1  0.00460220  0.39869951  0.39655142  1
  Pd  Pd185  1  0.80053042  0.19705941  0.40618589  1
  Pd  Pd186  1  0.59467918  0.79380883  0.59976415  1
  Pd  Pd187  1  0.20174696  0.39592423  0.80095961  1
  Pd  Pd188  1  0.00019064  0.20508241  0.59826823  1
  Pd  Pd189  1  0.19137582  0.39422059  0.19359794  1
  Pd  Pd190  1  0.20031124  0.79985498  0.40330069  1
  Pd  Pd191  1  0.00421596  0.20941089  0.21098243  1
  Pd  Pd192  1  0.60687318  -0.00513488  0.21127436  1
  Pd  Pd193  1  0.00165055  0.00737185  0.81008754  1
  Pd  Pd194  1  -0.00051114  0.19999791  0.40314576  1
  Pd  Pd195  1  0.40132195  -0.00987884  0.80946501  1
  Pd  Pd196  1  0.60808360  0.59583640  0.78899049  1
  Pd  Pd197  1  0.39210115  0.00149099  0.58918500  1
  Pd  Pd198  1  0.39597553  0.39673169  0.40198953  1
  Pd  Pd199  1  0.78974561  0.19112900  0.58361882  1
  Rh  Rh200  1  0.19505932  -0.00322669  -0.00328280  1
  Rh  Rh201  1  0.79331298  0.79941574  0.00262341  1
  Rh  Rh202  1  0.19025830  0.20283569  0.20285715  1
  Rh  Rh203  1  0.40778260  0.21053026  0.79616364  1
  Rh  Rh204  1  0.40334431  0.80212670  0.80346940  1
  Rh  Rh205  1  0.79587871  0.00085004  0.59925554  1
  Rh  Rh206  1  -0.00293841  -0.00810091  0.58984330  1
  Rh  Rh207  1  0.20453041  0.61128217  0.19796919  1
  Rh  Rh208  1  0.60190773  0.79176944  -0.00103605  1
  Rh  Rh209  1  0.80257746  0.39413000  0.20410506  1
  Rh  Rh210  1  0.60565887  0.60452974  0.00511954  1
  Rh  Rh211  1  0.39442573  0.80637003  0.00475978  1
  Rh  Rh212  1  0.39247623  0.59904962  0.78663202  1
  Rh  Rh213  1  0.59569180  0.80609509  0.79784279  1
  Rh  Rh214  1  0.40103015  0.19215217  0.20164682  1
  Rh  Rh215  1  -0.00150473  0.19202774  -0.00147996  1
  Rh  Rh216  1  0.20221288  0.21013047  0.39640829  1
  Rh  Rh217  1  -0.00121265  0.79415463  0.39926797  1
  Rh  Rh218  1  0.58881624  0.20122758  0.01237879  1
  Rh  Rh219  1  0.79565404  0.60338404  0.00699507  1
  Rh  Rh220  1  0.59646612  0.20517087  0.40833822  1
  Rh  Rh221  1  0.20675621  0.40418366  0.59625564  1
  Rh  Rh222  1  0.60436774  0.40117763  0.39559184  1
  Rh  Rh223  1  0.00742092  0.79868220  -0.00423575  1
  Rh  Rh224  1  0.19035673  0.59650439  0.41170512  1
  Rh  Rh225  1  0.80819130  0.00180733  0.39276317  1
  Rh  Rh226  1  0.20391319  0.19781324  0.60572932  1
  Rh  Rh227  1  0.80513000  0.19439707  0.00322653  1
  Rh  Rh228  1  0.59456532  0.59773535  0.19592189  1
  Rh  Rh229  1  0.39356116  0.59738959  0.01306942  1
  Rh  Rh230  1  0.79903685  0.39815515  0.39933003  1
  Rh  Rh231  1  0.59021290  0.19983054  0.78770657  1
  Rh  Rh232  1  -0.00277033  0.80399990  0.59590725  1
  Rh  Rh233  1  0.79761647  0.40191741  0.59733835  1
  Rh  Rh234  1  0.80175280  0.79825652  0.59839408  1
  Rh  Rh235  1  0.20943770  0.20714146  0.00733022  1
  Rh  Rh236  1  0.79881315  0.19860530  0.20644687  1
  Rh  Rh237  1  0.00076645  0.59823304  0.00740991  1
  Rh  Rh238  1  0.80576989  0.80581374  0.79608067  1
  Rh  Rh239  1  -0.00207440  0.39503400  0.60202048  1
  Rh  Rh240  1  -0.00192442  0.00206298  0.20033091  1
  Rh  Rh241  1  0.60464755  0.80298228  0.20682316  1
  Rh  Rh242  1  0.59624516  0.59741443  0.40144797  1
  Rh  Rh243  1  0.80409098  0.59308097  0.79890167  1
  Rh  Rh244  1  0.00787299  0.78868006  0.20780237  1
  Rh  Rh245  1  0.00180348  0.00657186  0.40134164  1
  Rh  Rh246  1  0.19779794  -0.00456781  0.39671747  1
  Rh  Rh247  1  0.60474461  0.39775858  0.20088610  1
  Rh  Rh248  1  0.40349347  0.41072564  0.19484535  1
  Rh  Rh249  1  0.19907498  0.79754948  0.20510947  1
