# generated using pymatgen
data_ZrScNbPdRh
_symmetry_space_group_name_H-M   'P 1'
_cell_length_a   16.56346717
_cell_length_b   16.56102740
_cell_length_c   16.56480437
_cell_angle_alpha   89.98601544
_cell_angle_beta   89.96490339
_cell_angle_gamma   90.03365877
_symmetry_Int_Tables_number   1
_chemical_formula_structural   ZrScNbPdRh
_chemical_formula_sum   'Zr50 Sc50 Nb50 Pd50 Rh50'
_cell_volume   4543.85714275
_cell_formula_units_Z   50
loop_
 _symmetry_equiv_pos_site_id
 _symmetry_equiv_pos_as_xyz
  1  'x, y, z'
loop_
 _atom_site_type_symbol
 _atom_site_label
 _atom_site_symmetry_multiplicity
 _atom_site_fract_x
 _atom_site_fract_y
 _atom_site_fract_z
 _atom_site_occupancy
  Zr  Zr0  1  0.10179553  0.30478026  0.90806562  1
  Zr  Zr1  1  0.69485916  0.10452459  0.89952322  1
  Zr  Zr2  1  0.50168674  0.90814888  0.90165394  1
  Zr  Zr3  1  0.29453318  0.70118905  0.69591906  1
  Zr  Zr4  1  0.10564447  0.70002477  0.89134148  1
  Zr  Zr5  1  0.51035617  0.70113356  0.69575811  1
  Zr  Zr6  1  0.89174790  0.49471854  0.10552064  1
  Zr  Zr7  1  0.09811520  0.29259507  0.10824761  1
  Zr  Zr8  1  0.30050701  0.69673942  0.30387317  1
  Zr  Zr9  1  0.10082114  0.50706796  0.70380295  1
  Zr  Zr10  1  0.09537629  0.69086555  0.30323097  1
  Zr  Zr11  1  0.30121239  0.90166701  0.69635738  1
  Zr  Zr12  1  0.69388085  0.10201845  0.70021660  1
  Zr  Zr13  1  0.30056847  0.69610452  0.50001328  1
  Zr  Zr14  1  0.09880873  0.50178089  0.50546937  1
  Zr  Zr15  1  0.30357228  0.09795078  0.49671644  1
  Zr  Zr16  1  0.89869609  0.29370459  0.09878065  1
  Zr  Zr17  1  0.70184841  0.30392478  0.69911065  1
  Zr  Zr18  1  0.30057226  0.50072902  0.90389499  1
  Zr  Zr19  1  0.70053657  0.50255339  0.10122831  1
  Zr  Zr20  1  0.69675925  0.10822033  0.09624392  1
  Zr  Zr21  1  0.09375424  0.10525547  0.10973288  1
  Zr  Zr22  1  0.30136738  0.30109915  0.70379121  1
  Zr  Zr23  1  0.90040401  0.29873574  0.69707848  1
  Zr  Zr24  1  0.89650077  0.69829361  0.30217593  1
  Zr  Zr25  1  0.50677667  0.69751676  0.09933427  1
  Zr  Zr26  1  0.09321863  0.10504915  0.89102743  1
  Zr  Zr27  1  0.90142322  0.90038031  0.89599510  1
  Zr  Zr28  1  0.50502045  0.50441286  0.49443877  1
  Zr  Zr29  1  0.69695582  0.69623156  0.09684071  1
  Zr  Zr30  1  0.30011842  0.50682428  0.69521164  1
  Zr  Zr31  1  0.90987895  0.09889183  0.50620726  1
  Zr  Zr32  1  0.09470557  0.70700767  0.49863810  1
  Zr  Zr33  1  0.29648287  0.29361975  0.10089824  1
  Zr  Zr34  1  0.88926687  0.29901601  0.90182879  1
  Zr  Zr35  1  0.29607072  0.10079609  0.10856021  1
  Zr  Zr36  1  0.70139867  0.30208176  0.10108424  1
  Zr  Zr37  1  0.49853056  0.90013790  0.30397935  1
  Zr  Zr38  1  0.10204335  0.29868739  0.70571884  1
  Zr  Zr39  1  0.10566526  0.70020659  0.09738331  1
  Zr  Zr40  1  0.69896990  0.69664605  0.49914807  1
  Zr  Zr41  1  0.08935542  0.10615668  0.68916679  1
  Zr  Zr42  1  0.49381956  0.09958288  0.50169978  1
  Zr  Zr43  1  0.30401060  0.10308379  0.69854543  1
  Zr  Zr44  1  0.29374851  0.89635831  0.89921532  1
  Zr  Zr45  1  0.49628974  0.10699786  0.30475598  1
  Zr  Zr46  1  0.30019509  0.90383618  0.09758466  1
  Zr  Zr47  1  0.90128274  0.10157919  0.70588258  1
  Zr  Zr48  1  0.68120952  0.89734207  0.69712950  1
  Zr  Zr49  1  0.50482652  0.50101906  0.09133436  1
  Sc  Sc50  1  0.69967084  0.49417239  0.89581477  1
  Sc  Sc51  1  0.49704794  0.89671843  0.50580820  1
  Sc  Sc52  1  0.90616255  0.68914384  0.69566382  1
  Sc  Sc53  1  0.30525508  0.49497614  0.10194624  1
  Sc  Sc54  1  0.10369716  0.89207378  0.90031092  1
  Sc  Sc55  1  0.29828811  0.89284870  0.49541720  1
  Sc  Sc56  1  0.50641314  0.29526552  0.70257248  1
  Sc  Sc57  1  0.89322013  0.49554753  0.90024788  1
  Sc  Sc58  1  0.70427600  0.50492864  0.69864807  1
  Sc  Sc59  1  0.70792468  0.12116720  0.50141270  1
  Sc  Sc60  1  0.69295937  0.88875315  0.49467483  1
  Sc  Sc61  1  0.30079642  0.30889119  0.50541931  1
  Sc  Sc62  1  0.88768478  0.30123141  0.30171905  1
  Sc  Sc63  1  0.90867093  0.69821621  0.89396123  1
  Sc  Sc64  1  0.49532034  0.10051015  0.09467706  1
  Sc  Sc65  1  0.10003240  0.49383968  0.11359731  1
  Sc  Sc66  1  0.30902832  0.50103547  0.50219236  1
  Sc  Sc67  1  0.50150997  0.70040804  0.30769041  1
  Sc  Sc68  1  0.90652499  0.90643482  0.69963422  1
  Sc  Sc69  1  0.69702193  0.48670833  0.29990665  1
  Sc  Sc70  1  0.50241947  0.10911220  0.89691905  1
  Sc  Sc71  1  0.50813069  0.69349406  0.91300445  1
  Sc  Sc72  1  0.49667317  0.09841101  0.69656517  1
  Sc  Sc73  1  0.70303972  0.71129635  0.29697217  1
  Sc  Sc74  1  0.50418491  0.49308253  0.30208220  1
  Sc  Sc75  1  0.30319256  0.29991766  0.29556544  1
  Sc  Sc76  1  0.50012155  0.30556969  0.09353951  1
  Sc  Sc77  1  0.50369626  0.30691110  0.49695128  1
  Sc  Sc78  1  0.69204260  0.89373845  0.09877564  1
  Sc  Sc79  1  0.30530185  0.70007739  0.09624135  1
  Sc  Sc80  1  0.89931886  0.89333056  0.10217787  1
  Sc  Sc81  1  0.10417050  0.90404831  0.09542055  1
  Sc  Sc82  1  0.09154392  0.90132129  0.49261764  1
  Sc  Sc83  1  0.09704201  0.09073426  0.29824056  1
  Sc  Sc84  1  0.89691635  0.50091551  0.69632915  1
  Sc  Sc85  1  0.49787448  0.69686116  0.49452661  1
  Sc  Sc86  1  0.51060122  0.49770781  0.69544276  1
  Sc  Sc87  1  0.30267581  0.09867814  0.89735225  1
  Sc  Sc88  1  0.90716204  0.10048140  0.29843731  1
  Sc  Sc89  1  0.30548714  0.90284995  0.30454401  1
  Sc  Sc90  1  0.10259770  0.69536511  0.69511904  1
  Sc  Sc91  1  0.29700825  0.49448226  0.29790998  1
  Sc  Sc92  1  0.30003428  0.29825651  0.90430274  1
  Sc  Sc93  1  0.30680817  0.09779249  0.29870746  1
  Sc  Sc94  1  0.68829936  0.90877136  0.89644773  1
  Sc  Sc95  1  0.49693396  0.89933192  0.09849553  1
  Sc  Sc96  1  0.10419230  0.89268469  0.69740221  1
  Sc  Sc97  1  0.89856072  0.89422307  0.30391379  1
  Sc  Sc98  1  0.88886804  0.69343788  0.10532858  1
  Sc  Sc99  1  0.10255808  0.30591725  0.51494122  1
  Nb  Nb100  1  0.70259211  0.70096179  0.70101718  1
  Nb  Nb101  1  0.30271529  0.69932785  0.89806654  1
  Nb  Nb102  1  0.51511008  0.30367239  0.30165856  1
  Nb  Nb103  1  0.70265737  0.90273263  0.30112303  1
  Nb  Nb104  1  0.69309602  0.29109710  0.30815111  1
  Nb  Nb105  1  0.49799944  0.89932993  0.69915418  1
  Nb  Nb106  1  0.10001026  0.50237899  0.89981170  1
  Nb  Nb107  1  0.09996911  0.30119324  0.30413199  1
  Nb  Nb108  1  0.70118857  0.70067295  0.89637287  1
  Nb  Nb109  1  0.09548836  0.49972283  0.30371183  1
  Nb  Nb110  1  0.09752351  0.10003265  0.49717545  1
  Nb  Nb111  1  0.89479084  0.09724714  0.89811244  1
  Nb  Nb112  1  0.89025922  0.30271042  0.49982676  1
  Nb  Nb113  1  0.71997133  0.30846940  0.48951583  1
  Nb  Nb114  1  0.89551884  0.89894990  0.49933824  1
  Nb  Nb115  1  0.89930728  0.69867619  0.49771754  1
  Nb  Nb116  1  0.09846709  0.89136550  0.30357767  1
  Nb  Nb117  1  0.50731094  0.30900320  0.89695964  1
  Nb  Nb118  1  0.89831334  0.10112508  0.09800108  1
  Nb  Nb119  1  0.69789933  0.10605819  0.30059539  1
  Nb  Nb120  1  0.69130047  0.30070454  0.89871011  1
  Nb  Nb121  1  0.90606190  0.50647613  0.30237757  1
  Nb  Nb122  1  0.89426433  0.49731344  0.50126574  1
  Nb  Nb123  1  0.70938796  0.49413821  0.49992134  1
  Nb  Nb124  1  0.49696214  0.49478083  0.90575445  1
  Nb  Nb125  1  0.79495513  0.00159496  0.39983135  1
  Nb  Nb126  1  0.79392297  0.00214818  0.20058963  1
  Nb  Nb127  1  0.80348534  0.00289214  0.00161578  1
  Nb  Nb128  1  -0.00335593  0.40162144  0.40056107  1
  Nb  Nb129  1  0.19682119  0.00613880  0.59456650  1
  Nb  Nb130  1  0.00494890  0.20938253  0.40422598  1
  Nb  Nb131  1  0.40534919  0.40574850  0.80481156  1
  Nb  Nb132  1  0.00311219  0.40021546  0.80377882  1
  Nb  Nb133  1  0.19725266  0.79975073  0.20525360  1
  Nb  Nb134  1  0.79525099  0.80040836  -0.01073926  1
  Nb  Nb135  1  0.60499521  0.00499094  0.20835399  1
  Nb  Nb136  1  0.60710441  0.00647708  0.39661144  1
  Nb  Nb137  1  0.79698638  -0.00547524  0.59529032  1
  Nb  Nb138  1  0.19309101  0.20109152  0.40160973  1
  Nb  Nb139  1  0.19771547  0.59844511  -0.00330330  1
  Nb  Nb140  1  0.40442885  0.79650437  0.80048316  1
  Nb  Nb141  1  0.79383331  0.79744099  0.79500399  1
  Nb  Nb142  1  -0.00792558  0.00707709  -0.00135476  1
  Nb  Nb143  1  0.40578102  0.59910656  0.19907143  1
  Nb  Nb144  1  0.00595476  0.59494788  -0.00012917  1
  Nb  Nb145  1  0.79985690  0.79907297  0.60259629  1
  Nb  Nb146  1  0.00656959  0.79666846  0.20314744  1
  Nb  Nb147  1  0.40413979  0.60139243  0.80328055  1
  Nb  Nb148  1  0.19326255  0.59534075  0.39821307  1
  Nb  Nb149  1  0.80387007  0.59408430  0.40367512  1
  Pd  Pd150  1  0.19947399  0.19016438  -0.00195140  1
  Pd  Pd151  1  0.59861051  0.80458068  0.20284542  1
  Pd  Pd152  1  -0.00340345  0.40138089  0.60297596  1
  Pd  Pd153  1  0.18979031  0.00959071  -0.00286806  1
  Pd  Pd154  1  0.59845316  0.59944482  0.21165485  1
  Pd  Pd155  1  0.20220469  0.40288171  0.79930822  1
  Pd  Pd156  1  0.80349599  0.19623819  0.20552956  1
  Pd  Pd157  1  0.20394742  0.19737465  0.80357420  1
  Pd  Pd158  1  -0.00302774  0.79635318  0.78854720  1
  Pd  Pd159  1  0.61211252  0.59716024  0.39213362  1
  Pd  Pd160  1  -0.00258639  0.40657036  -0.00103207  1
  Pd  Pd161  1  0.40352182  0.20917910  0.59902015  1
  Pd  Pd162  1  0.60526348  0.00374517  0.58673304  1
  Pd  Pd163  1  -0.00348688  0.19589582  -0.00527445  1
  Pd  Pd164  1  0.39257261  0.21405667  0.40079374  1
  Pd  Pd165  1  -0.00650055  0.39222305  0.20877044  1
  Pd  Pd166  1  0.40290063  0.79982025  -0.00596966  1
  Pd  Pd167  1  0.59601370  0.59357347  0.80599216  1
  Pd  Pd168  1  0.40801567  0.40147845  0.20084296  1
  Pd  Pd169  1  0.59487483  0.79716060  0.80887820  1
  Pd  Pd170  1  0.80553087  0.60385934  -0.00946812  1
  Pd  Pd171  1  0.60062769  0.20959238  0.59191333  1
  Pd  Pd172  1  0.19875273  0.00298878  0.40013791  1
  Pd  Pd173  1  0.19896004  0.40575395  0.01159598  1
  Pd  Pd174  1  0.20021170  0.39746053  0.20076664  1
  Pd  Pd175  1  0.19318816  0.00290728  0.78953121  1
  Pd  Pd176  1  -0.00722475  -0.01184952  0.19700622  1
  Pd  Pd177  1  0.59043600  0.20135701  0.19283523  1
  Pd  Pd178  1  0.40787406  0.39978925  0.60851197  1
  Pd  Pd179  1  0.40830319  0.20708962  0.20013247  1
  Pd  Pd180  1  0.20061506  -0.00722267  0.20893171  1
  Pd  Pd181  1  0.79647495  0.39786256  0.20765222  1
  Pd  Pd182  1  -0.00197921  0.60283399  0.18987805  1
  Pd  Pd183  1  0.40370438  -0.00225964  0.79995849  1
  Pd  Pd184  1  0.60789247  0.39732508  0.59393803  1
  Pd  Pd185  1  0.01037769  -0.00630807  0.80173483  1
  Pd  Pd186  1  0.40147877  0.39881402  0.39528889  1
  Pd  Pd187  1  -0.00750056  0.79498950  0.00680743  1
  Pd  Pd188  1  0.40240401  0.79658480  0.60127512  1
  Pd  Pd189  1  0.79448169  0.20246122  0.79906890  1
  Pd  Pd190  1  0.40359758  0.20319111  -0.00539199  1
  Pd  Pd191  1  0.19615378  0.40055373  0.40324104  1
  Pd  Pd192  1  0.79171764  -0.00755503  0.79511160  1
  Pd  Pd193  1  0.39546150  0.79451709  0.20214520  1
  Pd  Pd194  1  0.59852588  0.20118868  0.41200230  1
  Pd  Pd195  1  0.20333313  0.19740626  0.59300178  1
  Pd  Pd196  1  0.60386932  0.59793227  0.59598804  1
  Pd  Pd197  1  0.39805852  0.00564203  -0.00140477  1
  Pd  Pd198  1  -0.00646400  0.80236738  0.60301726  1
  Pd  Pd199  1  0.80481279  0.60284826  0.80179090  1
  Rh  Rh200  1  0.21227215  0.60147983  0.20186351  1
  Rh  Rh201  1  0.40285246  0.21143978  0.80397470  1
  Rh  Rh202  1  0.59576108  0.20818617  -0.00132767  1
  Rh  Rh203  1  0.80181117  0.39816119  0.79614247  1
  Rh  Rh204  1  0.79306350  0.39714486  0.00079976  1
  Rh  Rh205  1  0.80007814  0.60499326  0.59379941  1
  Rh  Rh206  1  0.20802903  0.60198929  0.80430250  1
  Rh  Rh207  1  0.60331100  0.00175486  0.00947685  1
  Rh  Rh208  1  0.79558856  0.19858322  -0.00445585  1
  Rh  Rh209  1  -0.00378651  0.20628043  0.21063844  1
  Rh  Rh210  1  0.80350263  0.19664721  0.60594546  1
  Rh  Rh211  1  0.39753447  0.39109345  -0.00310982  1
  Rh  Rh212  1  0.80163583  0.80460853  0.19073678  1
  Rh  Rh213  1  -0.00484334  0.58877693  0.80556101  1
  Rh  Rh214  1  0.20443275  0.40529687  0.60580827  1
  Rh  Rh215  1  0.20841462  0.79497050  0.00501700  1
  Rh  Rh216  1  0.60385559  0.80278690  -0.00378861  1
  Rh  Rh217  1  -0.00198536  0.59903459  0.59586710  1
  Rh  Rh218  1  0.60021432  0.79462534  0.59322059  1
  Rh  Rh219  1  0.59503138  0.80407045  0.39962234  1
  Rh  Rh220  1  0.41036554  0.60117509  0.60543557  1
  Rh  Rh221  1  0.00342360  -0.00751182  0.59917283  1
  Rh  Rh222  1  0.40750282  0.00102006  0.19672970  1
  Rh  Rh223  1  0.80260302  0.79797888  0.40734032  1
  Rh  Rh224  1  0.40712802  -0.00456265  0.40485868  1
  Rh  Rh225  1  0.80536743  0.40818745  0.39050221  1
  Rh  Rh226  1  -0.00401673  0.21218468  0.80835211  1
  Rh  Rh227  1  0.61047942  0.59233707  -0.00736915  1
  Rh  Rh228  1  0.60525091  0.39715894  0.40620746  1
  Rh  Rh229  1  0.79030093  0.59513337  0.21491583  1
  Rh  Rh230  1  -0.00771977  0.80274828  0.39622678  1
  Rh  Rh231  1  0.20513151  0.79729661  0.79582276  1
  Rh  Rh232  1  0.58974846  0.00872576  0.79523331  1
  Rh  Rh233  1  0.19535848  0.80780733  0.59211432  1
  Rh  Rh234  1  0.40243310  0.80037046  0.40276977  1
  Rh  Rh235  1  0.81190722  0.19262514  0.39690753  1
  Rh  Rh236  1  0.39482066  0.59973269  0.00349537  1
  Rh  Rh237  1  -0.00655644  -0.00047528  0.39767033  1
  Rh  Rh238  1  -0.00345245  0.59186466  0.41130750  1
  Rh  Rh239  1  0.59870710  0.40431894  0.79799259  1
  Rh  Rh240  1  -0.00387069  0.21045956  0.59177612  1
  Rh  Rh241  1  0.60218603  0.39295047  0.19742231  1
  Rh  Rh242  1  0.59879965  0.20075897  0.79782877  1
  Rh  Rh243  1  0.79680367  0.40197029  0.60711407  1
  Rh  Rh244  1  0.19891430  0.19666199  0.21457518  1
  Rh  Rh245  1  0.20079753  0.79305483  0.39684875  1
  Rh  Rh246  1  0.39290550  -0.00499090  0.59699433  1
  Rh  Rh247  1  0.19768515  0.60177941  0.58935924  1
  Rh  Rh248  1  0.60742550  0.40155483  -0.00057775  1
  Rh  Rh249  1  0.39315500  0.59060131  0.39134092  1
