# generated using pymatgen
data_ZrScNbPdRh
_symmetry_space_group_name_H-M   'P 1'
_cell_length_a   16.55819426
_cell_length_b   16.55969438
_cell_length_c   16.56383140
_cell_angle_alpha   89.98800485
_cell_angle_beta   90.00395400
_cell_angle_gamma   90.00503026
_symmetry_Int_Tables_number   1
_chemical_formula_structural   ZrScNbPdRh
_chemical_formula_sum   'Zr50 Sc50 Nb50 Pd50 Rh50'
_cell_volume   4541.77985633
_cell_formula_units_Z   50
loop_
 _symmetry_equiv_pos_site_id
 _symmetry_equiv_pos_as_xyz
  1  'x, y, z'
loop_
 _atom_site_type_symbol
 _atom_site_label
 _atom_site_symmetry_multiplicity
 _atom_site_fract_x
 _atom_site_fract_y
 _atom_site_fract_z
 _atom_site_occupancy
  Zr  Zr0  1  0.91091094  0.50046121  0.49802696  1
  Zr  Zr1  1  0.69948201  0.90133331  0.30801689  1
  Zr  Zr2  1  0.30234846  0.70620615  0.70424416  1
  Zr  Zr3  1  0.29482099  0.49728419  0.50134249  1
  Zr  Zr4  1  0.48992578  0.09513080  0.50470644  1
  Zr  Zr5  1  0.69556044  0.68591425  0.30603245  1
  Zr  Zr6  1  0.28915970  0.69676254  0.89073200  1
  Zr  Zr7  1  0.69528531  0.49678406  0.71089229  1
  Zr  Zr8  1  0.50218707  0.69986489  0.89279428  1
  Zr  Zr9  1  0.10168751  0.10028032  0.89848817  1
  Zr  Zr10  1  0.89327355  0.09314622  0.09314867  1
  Zr  Zr11  1  0.89735119  0.10134981  0.49733283  1
  Zr  Zr12  1  0.89932806  0.89413790  0.29929491  1
  Zr  Zr13  1  0.09996736  0.30539008  0.70380279  1
  Zr  Zr14  1  0.90477701  0.89938611  0.90941246  1
  Zr  Zr15  1  0.68650784  0.30020320  0.09885237  1
  Zr  Zr16  1  0.49594818  0.48939004  0.10423944  1
  Zr  Zr17  1  0.50125245  0.10521681  0.09674235  1
  Zr  Zr18  1  0.10274793  0.30420368  0.89852571  1
  Zr  Zr19  1  0.50700209  0.89029529  0.50083839  1
  Zr  Zr20  1  0.10169053  0.50667442  0.50156517  1
  Zr  Zr21  1  0.09777323  0.09559009  0.50417641  1
  Zr  Zr22  1  0.70560943  0.10717080  0.90935489  1
  Zr  Zr23  1  0.89472263  0.30581820  0.69800953  1
  Zr  Zr24  1  0.29618832  0.69121053  0.10437561  1
  Zr  Zr25  1  0.30094968  0.10164365  0.90131142  1
  Zr  Zr26  1  0.10330984  0.89687072  0.90297988  1
  Zr  Zr27  1  0.10257751  0.31851579  0.50447543  1
  Zr  Zr28  1  0.30382956  0.09206953  0.68616269  1
  Zr  Zr29  1  0.90881105  0.70220737  0.70327209  1
  Zr  Zr30  1  0.30062617  0.31325992  0.09739899  1
  Zr  Zr31  1  0.48948840  0.69402799  0.30050722  1
  Zr  Zr32  1  0.49413783  0.10800274  0.70062892  1
  Zr  Zr33  1  0.89761082  0.69824612  0.50055879  1
  Zr  Zr34  1  0.69964878  0.89555569  0.68949708  1
  Zr  Zr35  1  0.09234110  0.89864743  0.50033483  1
  Zr  Zr36  1  0.70373068  0.89446128  0.09426591  1
  Zr  Zr37  1  0.29429732  0.30052321  0.90325631  1
  Zr  Zr38  1  0.50232029  0.89364637  0.90287659  1
  Zr  Zr39  1  0.90126820  0.31327444  0.10007194  1
  Zr  Zr40  1  0.29640657  0.89772500  0.89722721  1
  Zr  Zr41  1  0.29700798  0.90468139  0.09107494  1
  Zr  Zr42  1  0.69656037  0.10658494  0.69931142  1
  Zr  Zr43  1  0.90013069  0.30703949  0.89867537  1
  Zr  Zr44  1  0.70098671  0.30904339  0.89803696  1
  Zr  Zr45  1  0.89969430  0.29533054  0.30254604  1
  Zr  Zr46  1  0.50075057  0.49866371  0.70098120  1
  Zr  Zr47  1  0.10246987  0.10365642  0.29410925  1
  Zr  Zr48  1  0.29423619  0.30674659  0.29798342  1
  Zr  Zr49  1  0.71140562  0.29095834  0.50406644  1
  Sc  Sc50  1  0.10289516  0.09427700  0.10782917  1
  Sc  Sc51  1  0.49193560  0.10759584  0.90385144  1
  Sc  Sc52  1  0.90538308  0.29843779  0.50481756  1
  Sc  Sc53  1  0.30153845  0.50320495  0.30261089  1
  Sc  Sc54  1  0.49298321  0.29495745  0.90996602  1
  Sc  Sc55  1  0.10176587  0.68833017  0.09831024  1
  Sc  Sc56  1  0.89753839  0.50475921  0.70245141  1
  Sc  Sc57  1  0.70168697  0.70017236  0.70109084  1
  Sc  Sc58  1  0.09868708  0.30051084  0.29711082  1
  Sc  Sc59  1  0.30759136  0.31376803  0.50088089  1
  Sc  Sc60  1  0.90024618  0.09852340  0.90030865  1
  Sc  Sc61  1  0.30281718  0.29775753  0.70095207  1
  Sc  Sc62  1  0.90603886  0.89801192  0.68663691  1
  Sc  Sc63  1  0.69965955  0.30529341  0.70254992  1
  Sc  Sc64  1  0.49488571  0.90312998  0.10146141  1
  Sc  Sc65  1  0.50248454  0.30033803  0.69921619  1
  Sc  Sc66  1  0.90646555  0.69471556  0.09178987  1
  Sc  Sc67  1  0.70002552  0.49332606  0.09987764  1
  Sc  Sc68  1  0.09787522  0.90331395  0.69735077  1
  Sc  Sc69  1  0.49874500  0.88655306  0.69609265  1
  Sc  Sc70  1  0.09938082  0.69949843  0.70591730  1
  Sc  Sc71  1  0.10054213  0.70036332  0.30890806  1
  Sc  Sc72  1  0.09846230  0.09401330  0.69962031  1
  Sc  Sc73  1  0.49774512  0.30733337  0.50877544  1
  Sc  Sc74  1  0.70028487  0.69943855  0.89980121  1
  Sc  Sc75  1  0.70598662  0.08963605  0.49886715  1
  Sc  Sc76  1  0.29579180  0.09695706  0.09946498  1
  Sc  Sc77  1  0.90485277  0.09769229  0.30502590  1
  Sc  Sc78  1  0.10072560  0.50381484  0.30715902  1
  Sc  Sc79  1  0.30606409  0.69886169  0.49084057  1
  Sc  Sc80  1  0.31108682  0.89682838  0.30508740  1
  Sc  Sc81  1  0.10213846  0.49907028  0.89435222  1
  Sc  Sc82  1  0.29651885  0.50925884  0.70131441  1
  Sc  Sc83  1  0.69591057  0.88703804  0.90265249  1
  Sc  Sc84  1  0.10456765  0.30507693  0.10408602  1
  Sc  Sc85  1  0.49531153  0.70011370  0.70347571  1
  Sc  Sc86  1  0.48612727  0.49638749  0.49901400  1
  Sc  Sc87  1  0.70314348  0.69763464  0.09778703  1
  Sc  Sc88  1  0.31350267  0.90480545  0.50309721  1
  Sc  Sc89  1  0.90991649  0.49986039  0.30269372  1
  Sc  Sc90  1  0.49910277  0.31407746  0.29249134  1
  Sc  Sc91  1  0.71293317  0.51483583  0.49548954  1
  Sc  Sc92  1  0.50236011  0.50056797  0.89073520  1
  Sc  Sc93  1  0.90219352  0.50692520  0.90406937  1
  Sc  Sc94  1  0.90663002  0.89365578  0.10358621  1
  Sc  Sc95  1  0.50228448  0.50541680  0.29653787  1
  Sc  Sc96  1  0.49845178  0.89935279  0.30471520  1
  Sc  Sc97  1  0.09290281  0.90103865  0.29787210  1
  Sc  Sc98  1  0.90496729  0.10260849  0.69766224  1
  Sc  Sc99  1  0.50489669  0.08775280  0.29686306  1
  Nb  Nb100  1  0.69659715  0.10077044  0.10383196  1
  Nb  Nb101  1  0.09053199  0.70119628  0.89234579  1
  Nb  Nb102  1  0.69999010  0.49773168  0.29800125  1
  Nb  Nb103  1  0.50241625  0.69883684  0.49950704  1
  Nb  Nb104  1  0.69281263  0.50299336  0.89524890  1
  Nb  Nb105  1  0.29882216  0.89562517  0.69739886  1
  Nb  Nb106  1  0.28977666  0.49928919  0.09248970  1
  Nb  Nb107  1  0.70041943  0.29956200  0.29961875  1
  Nb  Nb108  1  0.29797416  0.70235688  0.29590064  1
  Nb  Nb109  1  0.70791245  0.88846785  0.50326407  1
  Nb  Nb110  1  0.10548176  0.49618906  0.69573531  1
  Nb  Nb111  1  0.30031588  0.10497733  0.30349035  1
  Nb  Nb112  1  0.09350896  0.50230072  0.09722944  1
  Nb  Nb113  1  0.91542988  0.70019746  0.89411651  1
  Nb  Nb114  1  0.70024888  0.10236715  0.29988717  1
  Nb  Nb115  1  0.88896946  0.90097586  0.49824777  1
  Nb  Nb116  1  0.49962815  0.69264688  0.10291298  1
  Nb  Nb117  1  0.90977150  0.50403057  0.09991945  1
  Nb  Nb118  1  0.69619644  0.70554414  0.50118746  1
  Nb  Nb119  1  0.10539663  0.90152554  0.10610080  1
  Nb  Nb120  1  0.10143331  0.70341281  0.50220960  1
  Nb  Nb121  1  0.89655267  0.69794485  0.29632864  1
  Nb  Nb122  1  0.29900762  0.49638562  0.90175236  1
  Nb  Nb123  1  0.49353041  0.29949257  0.10077705  1
  Nb  Nb124  1  0.30240480  0.09867250  0.49915875  1
  Nb  Nb125  1  0.59905141  0.60355068  0.59488319  1
  Nb  Nb126  1  0.79306778  0.00345879  0.20149827  1
  Nb  Nb127  1  0.59934883  0.20295046  0.39693392  1
  Nb  Nb128  1  0.59411280  0.59873174  0.00131614  1
  Nb  Nb129  1  0.39465727  0.40081274  0.80569704  1
  Nb  Nb130  1  0.20238407  0.19927839  0.59190820  1
  Nb  Nb131  1  0.20026898  0.80049843  0.59522108  1
  Nb  Nb132  1  0.40118502  0.20003694  0.39534990  1
  Nb  Nb133  1  0.39768574  0.59645575  -0.00087905  1
  Nb  Nb134  1  0.20470948  0.00560738  0.40158630  1
  Nb  Nb135  1  0.39736950  0.78765589  0.00109364  1
  Nb  Nb136  1  0.81083101  0.80206584  0.80129434  1
  Nb  Nb137  1  0.79428039  -0.00652705  0.80084608  1
  Nb  Nb138  1  0.20549486  0.19843163  0.40644344  1
  Nb  Nb139  1  0.79757736  0.39885246  0.39471585  1
  Nb  Nb140  1  0.00012774  0.20458626  0.00020414  1
  Nb  Nb141  1  0.60000630  0.00139032  0.80228216  1
  Nb  Nb142  1  0.20334021  0.79852020  0.20093477  1
  Nb  Nb143  1  0.61114880  0.39841006  0.39930383  1
  Nb  Nb144  1  0.60322430  0.00410772  -0.00126707  1
  Nb  Nb145  1  0.39839558  0.20266706  0.20190986  1
  Nb  Nb146  1  0.80644017  0.59385932  0.20105256  1
  Nb  Nb147  1  0.40179758  -0.00389725  0.79644030  1
  Nb  Nb148  1  0.79269072  0.19764392  0.19965939  1
  Nb  Nb149  1  0.59687458  0.79208530  0.20069915  1
  Pd  Pd150  1  0.00660807  0.20352194  0.60122131  1
  Pd  Pd151  1  0.59208858  0.40533308  -0.00723073  1
  Pd  Pd152  1  0.00637559  0.60103181  0.60546109  1
  Pd  Pd153  1  0.80445780  0.19578539  0.79650060  1
  Pd  Pd154  1  -0.00345551  0.40985907  0.79680976  1
  Pd  Pd155  1  0.00036489  0.60474873  0.20605945  1
  Pd  Pd156  1  0.19348132  0.19866059  0.01095085  1
  Pd  Pd157  1  0.80382414  0.00403786  0.60541478  1
  Pd  Pd158  1  0.80442141  0.20994729  0.00766850  1
  Pd  Pd159  1  0.79343942  0.79360965  0.20065575  1
  Pd  Pd160  1  -0.00815147  -0.00511217  0.79759408  1
  Pd  Pd161  1  -0.00580243  0.79560024  0.40183613  1
  Pd  Pd162  1  0.19501063  0.59705977  -0.00857233  1
  Pd  Pd163  1  0.60163152  0.00253693  0.40984659  1
  Pd  Pd164  1  0.79964790  0.41248628  -0.00325091  1
  Pd  Pd165  1  0.80866939  0.78801382  -0.00636039  1
  Pd  Pd166  1  0.19677455  0.79272348  0.00710129  1
  Pd  Pd167  1  0.79965231  0.79287815  0.39868081  1
  Pd  Pd168  1  0.60497019  -0.01185893  0.19384230  1
  Pd  Pd169  1  -0.00918257  0.19766559  0.18884444  1
  Pd  Pd170  1  0.79816411  0.40845436  0.59352509  1
  Pd  Pd171  1  0.80090608  0.40173482  0.20330729  1
  Pd  Pd172  1  0.39905649  0.80267216  0.19427243  1
  Pd  Pd173  1  0.59619746  0.20269898  0.80894530  1
  Pd  Pd174  1  0.01128659  0.20724090  0.40639373  1
  Pd  Pd175  1  0.20049082  0.61202189  0.60229965  1
  Pd  Pd176  1  -0.00400742  0.20016763  0.80378695  1
  Pd  Pd177  1  0.20595534  0.81052278  0.40060955  1
  Pd  Pd178  1  0.39183585  0.58797786  0.19664426  1
  Pd  Pd179  1  0.59676027  0.79538991  0.39197567  1
  Pd  Pd180  1  0.40269323  0.60424548  0.59898697  1
  Pd  Pd181  1  0.60924250  0.41286810  0.58699084  1
  Pd  Pd182  1  0.59210325  0.58866593  0.41024198  1
  Pd  Pd183  1  0.59918328  0.19941563  0.58987053  1
  Pd  Pd184  1  0.59286657  0.20368669  0.20798619  1
  Pd  Pd185  1  0.20518671  -0.00004183  0.79528199  1
  Pd  Pd186  1  0.01035449  0.79649865  0.00945065  1
  Pd  Pd187  1  0.00130339  -0.00157750  0.39798898  1
  Pd  Pd188  1  0.80155899  0.60696408  0.80497610  1
  Pd  Pd189  1  0.79515462  0.59608015  0.00249246  1
  Pd  Pd190  1  0.79616638  0.60362226  0.60576310  1
  Pd  Pd191  1  0.59580562  -0.00103704  0.60151725  1
  Pd  Pd192  1  0.20853343  -0.01011161  0.21189258  1
  Pd  Pd193  1  0.00898164  0.00394137  0.00661240  1
  Pd  Pd194  1  0.20400040  0.19391225  0.78708968  1
  Pd  Pd195  1  0.19310341  0.41330298  0.20228935  1
  Pd  Pd196  1  0.01106467  0.79009683  0.19554599  1
  Pd  Pd197  1  0.20419875  0.60223660  0.39809779  1
  Pd  Pd198  1  0.00773110  0.40514067  0.20527901  1
  Pd  Pd199  1  0.39451772  0.00529490  0.20198021  1
  Rh  Rh200  1  0.40588499  -0.00521659  -0.00969485  1
  Rh  Rh201  1  0.00001694  0.81011611  0.79970054  1
  Rh  Rh202  1  0.19641340  0.59995922  0.20697469  1
  Rh  Rh203  1  0.19405456  0.59671182  0.79863303  1
  Rh  Rh204  1  0.39531277  0.59147094  0.80551512  1
  Rh  Rh205  1  0.40303728  0.79538712  0.40284307  1
  Rh  Rh206  1  0.79991976  -0.00285898  0.39630215  1
  Rh  Rh207  1  0.61118840  0.59989701  0.18976584  1
  Rh  Rh208  1  0.19783433  0.40093387  0.39684955  1
  Rh  Rh209  1  0.39679866  0.59919011  0.39981834  1
  Rh  Rh210  1  0.80477751  0.79247261  0.60239507  1
  Rh  Rh211  1  0.41002236  -0.01173736  0.60780720  1
  Rh  Rh212  1  0.58922926  0.39007251  0.80688389  1
  Rh  Rh213  1  0.18949011  0.80443461  0.78980747  1
  Rh  Rh214  1  0.20853767  0.40531989  0.79451060  1
  Rh  Rh215  1  0.40156366  0.40591042  -0.00602998  1
  Rh  Rh216  1  0.39029653  0.20219669  0.01237708  1
  Rh  Rh217  1  0.59931939  0.19978004  -0.00250334  1
  Rh  Rh218  1  0.00672791  0.59727634  -0.00803165  1
  Rh  Rh219  1  0.60398526  0.60609654  0.79649537  1
  Rh  Rh220  1  0.39809290  0.80606014  0.80622063  1
  Rh  Rh221  1  0.39547245  0.20123502  0.80012014  1
  Rh  Rh222  1  0.40159311  0.00328799  0.39610004  1
  Rh  Rh223  1  0.39489068  0.40322083  0.61608887  1
  Rh  Rh224  1  0.79165290  -0.00494708  -0.00082126  1
  Rh  Rh225  1  -0.00053974  0.60929531  0.40083742  1
  Rh  Rh226  1  -0.00380081  0.39516390  0.39689280  1
  Rh  Rh227  1  0.80200375  0.40795076  0.80551081  1
  Rh  Rh228  1  -0.01086456  -0.00118470  0.19768362  1
  Rh  Rh229  1  0.60992937  0.80127629  0.79097576  1
  Rh  Rh230  1  0.39446551  0.21078873  0.59158980  1
  Rh  Rh231  1  0.00724874  0.59148418  0.79702551  1
  Rh  Rh232  1  0.79637751  0.20172871  0.39455970  1
  Rh  Rh233  1  0.40728338  0.39960791  0.39473435  1
  Rh  Rh234  1  0.20649492  0.39720244  0.60841864  1
  Rh  Rh235  1  0.00552823  0.40049439  0.00051692  1
  Rh  Rh236  1  0.00378290  0.79715356  0.59338939  1
  Rh  Rh237  1  -0.00400752  0.40757560  0.60860918  1
  Rh  Rh238  1  0.39434150  0.79468064  0.59402069  1
  Rh  Rh239  1  0.59884366  0.78837848  0.60147638  1
  Rh  Rh240  1  0.80258501  0.19555021  0.60655433  1
  Rh  Rh241  1  0.58792617  0.79637647  0.01471567  1
  Rh  Rh242  1  0.19914787  -0.00569926  0.59262920  1
  Rh  Rh243  1  0.59952627  0.40163602  0.20277694  1
  Rh  Rh244  1  0.20791645  0.20245832  0.20096527  1
  Rh  Rh245  1  0.19268729  0.00406232  -0.00187231  1
  Rh  Rh246  1  0.81033153  0.59601882  0.39144996  1
  Rh  Rh247  1  0.39332005  0.40306164  0.20118840  1
  Rh  Rh248  1  0.18865797  0.40588526  0.00142201  1
  Rh  Rh249  1  -0.00785470  -0.00003423  0.59517093  1
