# generated using pymatgen
data_ZrScNbPdRh
_symmetry_space_group_name_H-M   'P 1'
_cell_length_a   16.56110372
_cell_length_b   16.55518804
_cell_length_c   16.56041566
_cell_angle_alpha   89.97227155
_cell_angle_beta   89.96519611
_cell_angle_gamma   90.00762105
_symmetry_Int_Tables_number   1
_chemical_formula_structural   ZrScNbPdRh
_chemical_formula_sum   'Zr50 Sc50 Nb50 Pd50 Rh50'
_cell_volume   4540.40395677
_cell_formula_units_Z   50
loop_
 _symmetry_equiv_pos_site_id
 _symmetry_equiv_pos_as_xyz
  1  'x, y, z'
loop_
 _atom_site_type_symbol
 _atom_site_label
 _atom_site_symmetry_multiplicity
 _atom_site_fract_x
 _atom_site_fract_y
 _atom_site_fract_z
 _atom_site_occupancy
  Zr  Zr0  1  0.69542624  0.49225220  0.70173093  1
  Zr  Zr1  1  0.70103392  0.09171808  0.70169634  1
  Zr  Zr2  1  0.30646421  0.89531531  0.29732927  1
  Zr  Zr3  1  0.50607761  0.89647103  0.29783230  1
  Zr  Zr4  1  0.51101938  0.10113195  0.49498890  1
  Zr  Zr5  1  0.49410340  0.29294280  0.30311635  1
  Zr  Zr6  1  0.29624710  0.50230983  0.09853051  1
  Zr  Zr7  1  0.90091821  0.09842015  0.10250145  1
  Zr  Zr8  1  0.90002364  0.90393702  0.30582319  1
  Zr  Zr9  1  0.89978932  0.90649657  0.09110298  1
  Zr  Zr10  1  0.50453962  0.69388888  0.49361153  1
  Zr  Zr11  1  0.50049404  0.69607938  0.89684949  1
  Zr  Zr12  1  0.10255592  0.70057944  0.50692025  1
  Zr  Zr13  1  0.69273987  0.89035651  0.09487600  1
  Zr  Zr14  1  0.90134597  0.70159691  0.49492439  1
  Zr  Zr15  1  0.29613063  0.10305252  0.09408995  1
  Zr  Zr16  1  0.10465387  0.69773533  0.70871802  1
  Zr  Zr17  1  0.89864990  0.29939781  0.10661295  1
  Zr  Zr18  1  0.30403053  0.69159649  0.50596149  1
  Zr  Zr19  1  0.29694939  0.49087130  0.49497043  1
  Zr  Zr20  1  0.09862386  0.69346577  0.09158096  1
  Zr  Zr21  1  0.30416803  0.49857228  0.90263495  1
  Zr  Zr22  1  0.49472945  0.50277402  0.08851554  1
  Zr  Zr23  1  0.10235419  0.30637636  0.50172079  1
  Zr  Zr24  1  0.70050771  0.71311308  0.90664675  1
  Zr  Zr25  1  0.49805043  0.70455916  0.69810378  1
  Zr  Zr26  1  0.50689793  0.70870418  0.09785563  1
  Zr  Zr27  1  0.29789020  0.71381298  0.69617260  1
  Zr  Zr28  1  0.48695763  0.29962827  0.50476624  1
  Zr  Zr29  1  0.70202730  0.50100516  0.48922230  1
  Zr  Zr30  1  0.10088834  0.10122763  0.09158667  1
  Zr  Zr31  1  0.50030117  0.30746902  0.09577565  1
  Zr  Zr32  1  0.09633586  0.90647944  0.50181036  1
  Zr  Zr33  1  0.69938193  0.70404337  0.49345670  1
  Zr  Zr34  1  0.49490890  0.49587384  0.89142548  1
  Zr  Zr35  1  0.10103587  0.49930792  0.50065150  1
  Zr  Zr36  1  0.70148536  0.09937518  0.10187877  1
  Zr  Zr37  1  0.69612604  0.49616643  0.09807710  1
  Zr  Zr38  1  0.10014429  0.31127274  0.89520888  1
  Zr  Zr39  1  0.10561593  0.30410683  0.10516595  1
  Zr  Zr40  1  0.89879182  0.50280600  0.30001345  1
  Zr  Zr41  1  0.29670310  0.30665920  0.30112832  1
  Zr  Zr42  1  0.09792915  0.90331796  0.09489647  1
  Zr  Zr43  1  0.30686708  0.69541062  0.09964112  1
  Zr  Zr44  1  0.09077449  0.69564023  0.30226165  1
  Zr  Zr45  1  0.29858347  0.29962664  0.10735707  1
  Zr  Zr46  1  0.70184958  0.29136302  0.70299787  1
  Zr  Zr47  1  0.90274359  0.49405076  0.90359960  1
  Zr  Zr48  1  0.10553027  0.29972187  0.70098374  1
  Zr  Zr49  1  0.70593750  0.30034802  0.90139747  1
  Sc  Sc50  1  0.30284564  0.10060282  0.89668521  1
  Sc  Sc51  1  0.69606505  0.49644576  0.89877316  1
  Sc  Sc52  1  0.89953391  0.49702154  0.48651254  1
  Sc  Sc53  1  0.30458465  0.11436541  0.29194050  1
  Sc  Sc54  1  0.09549791  0.90632620  0.30560864  1
  Sc  Sc55  1  0.30334474  0.29810132  0.88811886  1
  Sc  Sc56  1  0.90939826  0.50597631  0.10267020  1
  Sc  Sc57  1  0.89316224  0.90210439  0.49951939  1
  Sc  Sc58  1  0.89890020  0.70051142  0.10299626  1
  Sc  Sc59  1  0.89314507  0.08495890  0.90158658  1
  Sc  Sc60  1  0.49744739  0.50398147  0.30145335  1
  Sc  Sc61  1  0.51627386  0.89294007  0.49844678  1
  Sc  Sc62  1  0.09854106  0.30564604  0.29798315  1
  Sc  Sc63  1  0.69964336  0.70885501  0.70518523  1
  Sc  Sc64  1  0.90400897  0.30173093  0.30860600  1
  Sc  Sc65  1  0.49913987  0.70365849  0.30097255  1
  Sc  Sc66  1  0.69340191  0.90094476  0.69766837  1
  Sc  Sc67  1  0.50016553  0.90521902  0.90138725  1
  Sc  Sc68  1  0.69838430  0.09414016  0.50545180  1
  Sc  Sc69  1  0.29034238  0.09666279  0.71047589  1
  Sc  Sc70  1  0.69762926  0.09791350  0.30827239  1
  Sc  Sc71  1  0.89270683  0.09833701  0.69248338  1
  Sc  Sc72  1  0.69710141  0.29081951  0.49870896  1
  Sc  Sc73  1  0.29380105  0.89639920  0.51304403  1
  Sc  Sc74  1  0.69336221  0.30222471  0.09881136  1
  Sc  Sc75  1  0.90071712  0.09690590  0.50070134  1
  Sc  Sc76  1  0.70493338  0.29314286  0.30095897  1
  Sc  Sc77  1  0.11656452  0.90351452  0.69905817  1
  Sc  Sc78  1  0.89371714  0.10496009  0.29828253  1
  Sc  Sc79  1  0.89323575  0.69508383  0.29716715  1
  Sc  Sc80  1  0.29878402  0.70379480  0.89593250  1
  Sc  Sc81  1  0.49228066  0.29822515  0.89667135  1
  Sc  Sc82  1  0.09348729  0.09651838  0.51284194  1
  Sc  Sc83  1  0.50337620  0.09386216  0.08462848  1
  Sc  Sc84  1  0.09334302  0.49584742  0.29402920  1
  Sc  Sc85  1  0.30527000  0.10720651  0.51512873  1
  Sc  Sc86  1  0.31343014  0.69563997  0.29548069  1
  Sc  Sc87  1  0.30738887  0.90532880  0.89069326  1
  Sc  Sc88  1  0.68842443  0.09605977  0.89571138  1
  Sc  Sc89  1  0.49432421  0.49855086  0.49806145  1
  Sc  Sc90  1  0.69955292  0.89518415  0.30181030  1
  Sc  Sc91  1  0.29519451  0.50751956  0.69931139  1
  Sc  Sc92  1  0.09272925  0.10364411  0.30153344  1
  Sc  Sc93  1  0.51245198  0.09681957  0.70696650  1
  Sc  Sc94  1  0.09702094  0.89494588  0.90604894  1
  Sc  Sc95  1  0.30574847  0.89673023  0.08690632  1
  Sc  Sc96  1  0.89432811  0.49803519  0.71670774  1
  Sc  Sc97  1  0.88775216  0.90000025  0.70503949  1
  Sc  Sc98  1  0.30259771  0.50071077  0.29556404  1
  Sc  Sc99  1  0.89829543  0.70411920  0.71944292  1
  Nb  Nb100  1  0.49572739  0.90035335  0.70253092  1
  Nb  Nb101  1  0.90365227  0.70790641  0.90267534  1
  Nb  Nb102  1  0.50619128  0.49717046  0.70290068  1
  Nb  Nb103  1  0.09870682  0.09736063  0.70895717  1
  Nb  Nb104  1  0.50140903  0.90083140  0.10322345  1
  Nb  Nb105  1  0.08272220  0.70292914  0.89814052  1
  Nb  Nb106  1  0.09988224  0.50200496  0.09266705  1
  Nb  Nb107  1  0.30384802  0.29665506  0.68694719  1
  Nb  Nb108  1  0.30874138  0.90387039  0.70177490  1
  Nb  Nb109  1  0.49661489  0.09451493  0.89948854  1
  Nb  Nb110  1  0.70331817  0.70020045  0.10280729  1
  Nb  Nb111  1  0.29437418  0.30455619  0.50370719  1
  Nb  Nb112  1  0.90037677  0.30074882  0.89647714  1
  Nb  Nb113  1  0.09944677  0.50378148  0.90198128  1
  Nb  Nb114  1  0.90105175  0.89107804  0.89896339  1
  Nb  Nb115  1  0.70842213  0.90268498  0.89870353  1
  Nb  Nb116  1  0.10459150  0.10344038  0.89212605  1
  Nb  Nb117  1  0.89863129  0.30163866  0.70689710  1
  Nb  Nb118  1  0.09824063  0.49930839  0.70443855  1
  Nb  Nb119  1  0.50146023  0.09574585  0.30395117  1
  Nb  Nb120  1  0.90349212  0.30396837  0.50545359  1
  Nb  Nb121  1  0.49655305  0.31400585  0.69870799  1
  Nb  Nb122  1  0.70064888  0.89435892  0.50189171  1
  Nb  Nb123  1  0.70161640  0.69107961  0.29542661  1
  Nb  Nb124  1  0.70518771  0.50197071  0.30228147  1
  Nb  Nb125  1  0.20122519  0.79876924  0.39721920  1
  Nb  Nb126  1  0.19593984  0.80096251  0.20056420  1
  Nb  Nb127  1  0.79882201  0.60513999  -0.00116740  1
  Nb  Nb128  1  0.20555498  -0.00188303  0.20172090  1
  Nb  Nb129  1  0.39993379  0.00146541  0.40118588  1
  Nb  Nb130  1  0.79794312  0.40478200  0.20413635  1
  Nb  Nb131  1  0.00117926  0.79627459  0.60659410  1
  Nb  Nb132  1  0.80481334  0.39726971  0.60073176  1
  Nb  Nb133  1  0.19973025  0.60344829  0.40096710  1
  Nb  Nb134  1  0.80530386  0.20092815  -0.00157763  1
  Nb  Nb135  1  -0.00227190  0.20118578  -0.00909180  1
  Nb  Nb136  1  0.59344190  0.19519790  0.20135606  1
  Nb  Nb137  1  0.00330550  0.80408036  0.19799937  1
  Nb  Nb138  1  0.40426048  0.00033355  0.19954056  1
  Nb  Nb139  1  0.00352982  0.00214526  0.80025132  1
  Nb  Nb140  1  0.80059353  0.59636605  0.60179434  1
  Nb  Nb141  1  0.60248308  0.59644892  0.60270796  1
  Nb  Nb142  1  0.60712587  0.59985467  0.19892568  1
  Nb  Nb143  1  0.20962920  0.00515183  0.39903439  1
  Nb  Nb144  1  -0.00544090  0.40226662  0.60828334  1
  Nb  Nb145  1  0.59989150  0.39770973  0.39699274  1
  Nb  Nb146  1  -0.00496513  0.59733956  0.60780803  1
  Nb  Nb147  1  0.20193111  0.20217513  0.40769408  1
  Nb  Nb148  1  -0.00276560  0.19760678  0.80192528  1
  Nb  Nb149  1  0.40707447  -0.00414934  0.60361441  1
  Pd  Pd150  1  0.60568784  0.60091637  0.00070242  1
  Pd  Pd151  1  0.39918630  0.20280714  -0.00109288  1
  Pd  Pd152  1  0.60405829  0.39917078  0.21076519  1
  Pd  Pd153  1  0.40731514  0.59192794  0.60624449  1
  Pd  Pd154  1  0.60641409  0.60420276  0.79580737  1
  Pd  Pd155  1  0.80639692  0.18813353  0.80739828  1
  Pd  Pd156  1  0.59229938  0.20643291  0.80224682  1
  Pd  Pd157  1  0.59444077  0.20203152  0.60577491  1
  Pd  Pd158  1  0.19778224  0.80718393  0.80796075  1
  Pd  Pd159  1  0.00459268  0.19836271  0.40477208  1
  Pd  Pd160  1  0.79272582  0.60218954  0.80750458  1
  Pd  Pd161  1  0.79186599  0.00280632  -0.00176791  1
  Pd  Pd162  1  0.19526067  0.60135786  0.20651464  1
  Pd  Pd163  1  0.00120529  0.80367001  0.40118779  1
  Pd  Pd164  1  0.39494405  0.41063363  0.60693813  1
  Pd  Pd165  1  0.40226696  0.40651117  0.20044395  1
  Pd  Pd166  1  -0.00729287  -0.01079603  0.61279106  1
  Pd  Pd167  1  0.60315469  0.20016650  -0.00028824  1
  Pd  Pd168  1  0.19589308  0.19306995  0.60013871  1
  Pd  Pd169  1  0.40476955  0.80117086  -0.00717142  1
  Pd  Pd170  1  0.59726599  0.80895004  0.80424223  1
  Pd  Pd171  1  0.59930965  0.00437640  0.19885539  1
  Pd  Pd172  1  -0.00254790  0.20443937  0.60808028  1
  Pd  Pd173  1  0.00411416  0.20182047  0.19905084  1
  Pd  Pd174  1  0.20442410  -0.00283343  -0.00651087  1
  Pd  Pd175  1  0.59941093  0.38817430  0.80553424  1
  Pd  Pd176  1  -0.00181363  0.59639123  0.80213383  1
  Pd  Pd177  1  0.80380343  0.40176296  0.00806766  1
  Pd  Pd178  1  0.79494382  0.00219426  0.40391002  1
  Pd  Pd179  1  0.40422009  0.19568008  0.78914579  1
  Pd  Pd180  1  0.60568724  0.40055450  0.58888420  1
  Pd  Pd181  1  0.79346885  -0.00624029  0.20376714  1
  Pd  Pd182  1  0.39632283  0.80641355  0.41218705  1
  Pd  Pd183  1  0.40902015  0.18830172  0.61390863  1
  Pd  Pd184  1  0.41147926  0.19062601  0.18762069  1
  Pd  Pd185  1  0.39030810  0.19537905  0.40595406  1
  Pd  Pd186  1  0.80164464  0.20168202  0.59515937  1
  Pd  Pd187  1  0.20127217  0.79650449  -0.00251540  1
  Pd  Pd188  1  0.80327725  0.19896942  0.40742041  1
  Pd  Pd189  1  0.39408666  0.60283680  0.79327121  1
  Pd  Pd190  1  0.19860825  0.20881200  -0.01069546  1
  Pd  Pd191  1  0.19948043  0.60566994  -0.01178461  1
  Pd  Pd192  1  0.40882593  0.80761209  0.59107880  1
  Pd  Pd193  1  0.00398123  -0.00096497  0.20491585  1
  Pd  Pd194  1  0.21000128  0.40198137  0.79393588  1
  Pd  Pd195  1  0.00148860  0.39647587  0.00601106  1
  Pd  Pd196  1  0.20649186  0.39625752  -0.00174110  1
  Pd  Pd197  1  0.80626359  0.80550036  0.20228676  1
  Pd  Pd198  1  0.80517458  0.79372540  0.60394427  1
  Pd  Pd199  1  0.20020847  0.60124814  0.80895303  1
  Rh  Rh200  1  0.60255831  -0.00718109  0.40338968  1
  Rh  Rh201  1  0.00278592  0.59418693  0.40396071  1
  Rh  Rh202  1  0.79620235  0.80545321  0.80292999  1
  Rh  Rh203  1  0.00197292  0.39975926  0.79707567  1
  Rh  Rh204  1  0.40542421  0.00647143  0.79412153  1
  Rh  Rh205  1  0.40100320  0.00096783  0.00122620  1
  Rh  Rh206  1  0.19728190  0.40122251  0.39205728  1
  Rh  Rh207  1  0.40374937  0.39885208  0.39827203  1
  Rh  Rh208  1  0.40235794  0.79926907  0.80254411  1
  Rh  Rh209  1  0.79427803  0.39827340  0.79752555  1
  Rh  Rh210  1  0.20025130  0.20571384  0.79739129  1
  Rh  Rh211  1  0.80609658  0.79774701  0.00177002  1
  Rh  Rh212  1  0.40016878  0.60523837  -0.00473502  1
  Rh  Rh213  1  0.19655378  0.41057553  0.19747985  1
  Rh  Rh214  1  0.19528026  0.59428018  0.59829966  1
  Rh  Rh215  1  0.59513404  0.80732932  -0.00736046  1
  Rh  Rh216  1  0.79627312  0.79772896  0.39309035  1
  Rh  Rh217  1  -0.00595888  0.79631079  0.00742733  1
  Rh  Rh218  1  0.60753182  0.79646597  0.39212286  1
  Rh  Rh219  1  0.39752174  0.80469726  0.18862954  1
  Rh  Rh220  1  0.59695307  0.59499288  0.39531800  1
  Rh  Rh221  1  0.39323533  0.40093172  0.78920056  1
  Rh  Rh222  1  0.19080581  0.19450844  0.21029173  1
  Rh  Rh223  1  -0.00449593  0.40253314  0.19628401  1
  Rh  Rh224  1  0.79472794  -0.00475010  0.59617504  1
  Rh  Rh225  1  0.00482099  0.81360284  0.79350742  1
  Rh  Rh226  1  0.39271998  0.59652832  0.39835431  1
  Rh  Rh227  1  0.79453273  0.38886814  0.39895483  1
  Rh  Rh228  1  0.78936983  0.20606997  0.19274712  1
  Rh  Rh229  1  0.00404279  0.60384173  0.19538806  1
  Rh  Rh230  1  0.19862850  0.40477111  0.60928271  1
  Rh  Rh231  1  0.60205218  -0.00560977  -0.00481274  1
  Rh  Rh232  1  0.80004737  -0.00280369  0.80053610  1
  Rh  Rh233  1  0.59999755  -0.00723981  0.80540911  1
  Rh  Rh234  1  0.59807485  -0.00710868  0.59976326  1
  Rh  Rh235  1  0.60352728  0.79161902  0.20438949  1
  Rh  Rh236  1  0.19682814  -0.00664140  0.80627327  1
  Rh  Rh237  1  0.59323015  0.39736673  -0.01259377  1
  Rh  Rh238  1  0.19613341  0.80248132  0.59970273  1
  Rh  Rh239  1  0.00171328  0.39899101  0.40299653  1
  Rh  Rh240  1  0.60033695  0.20572456  0.39434653  1
  Rh  Rh241  1  0.39252821  0.39343653  -0.00194959  1
  Rh  Rh242  1  -0.00176017  0.00895998  0.40133543  1
  Rh  Rh243  1  0.80314290  0.60725057  0.40442326  1
  Rh  Rh244  1  0.41425668  0.59919730  0.19566283  1
  Rh  Rh245  1  -0.00623326  0.60147865  -0.00629491  1
  Rh  Rh246  1  0.59931539  0.79461224  0.60252624  1
  Rh  Rh247  1  0.20939358  0.00603945  0.59900189  1
  Rh  Rh248  1  0.79419898  0.59143357  0.19028939  1
  Rh  Rh249  1  0.00433572  0.00760507  -0.01475913  1
