# generated using pymatgen
data_ZrScNbPdRh
_symmetry_space_group_name_H-M   'P 1'
_cell_length_a   16.56399636
_cell_length_b   16.56410708
_cell_length_c   16.56122418
_cell_angle_alpha   90.01015466
_cell_angle_beta   90.01871672
_cell_angle_gamma   89.97621147
_symmetry_Int_Tables_number   1
_chemical_formula_structural   ZrScNbPdRh
_chemical_formula_sum   'Zr50 Sc50 Nb50 Pd50 Rh50'
_cell_volume   4543.86609387
_cell_formula_units_Z   50
loop_
 _symmetry_equiv_pos_site_id
 _symmetry_equiv_pos_as_xyz
  1  'x, y, z'
loop_
 _atom_site_type_symbol
 _atom_site_label
 _atom_site_symmetry_multiplicity
 _atom_site_fract_x
 _atom_site_fract_y
 _atom_site_fract_z
 _atom_site_occupancy
  Zr  Zr0  1  0.89423383  0.70695442  0.49187980  1
  Zr  Zr1  1  0.89674194  0.69072070  0.89636066  1
  Zr  Zr2  1  0.89701247  0.11284647  0.70281242  1
  Zr  Zr3  1  0.50029428  0.09858085  0.70331113  1
  Zr  Zr4  1  0.70571074  0.49417841  0.10045798  1
  Zr  Zr5  1  0.30517026  0.70189669  0.29062238  1
  Zr  Zr6  1  0.70178194  0.50137720  0.49991536  1
  Zr  Zr7  1  0.10489168  0.49512451  0.50210742  1
  Zr  Zr8  1  0.90394671  0.10405331  0.89973768  1
  Zr  Zr9  1  0.49699038  0.68618958  0.89689965  1
  Zr  Zr10  1  0.50298988  0.89816832  0.50325770  1
  Zr  Zr11  1  0.50614218  0.10878979  0.90632299  1
  Zr  Zr12  1  0.10163542  0.10791314  0.89819231  1
  Zr  Zr13  1  0.10314238  0.90384172  0.30796226  1
  Zr  Zr14  1  0.69407808  0.89606124  0.09674386  1
  Zr  Zr15  1  0.90044838  0.68907148  0.69811176  1
  Zr  Zr16  1  0.28517695  0.30148585  0.89509343  1
  Zr  Zr17  1  0.69700651  0.50217539  0.89284411  1
  Zr  Zr18  1  0.09959019  0.30605131  0.70562530  1
  Zr  Zr19  1  0.50034050  0.11419614  0.50204205  1
  Zr  Zr20  1  0.50024879  0.70078236  0.50159802  1
  Zr  Zr21  1  0.31075069  0.89135747  0.09545967  1
  Zr  Zr22  1  0.30189440  0.90023173  0.29994042  1
  Zr  Zr23  1  0.89581481  0.49821462  0.29831301  1
  Zr  Zr24  1  0.70917633  0.69624623  0.29756815  1
  Zr  Zr25  1  0.10741985  0.69619610  0.89336991  1
  Zr  Zr26  1  0.69476337  0.29607467  0.89303679  1
  Zr  Zr27  1  0.09560084  0.90852894  0.50287910  1
  Zr  Zr28  1  0.90518178  0.30085232  0.89673129  1
  Zr  Zr29  1  0.30625638  0.30266052  0.50986966  1
  Zr  Zr30  1  0.69875891  0.10919743  0.50597570  1
  Zr  Zr31  1  0.49974064  0.50130635  0.71251380  1
  Zr  Zr32  1  0.50073595  0.29257378  0.09837530  1
  Zr  Zr33  1  0.89660415  0.69907147  0.30229123  1
  Zr  Zr34  1  0.49652176  0.29800160  0.30132233  1
  Zr  Zr35  1  0.49244420  0.49449060  0.29649454  1
  Zr  Zr36  1  0.49651398  0.50048838  0.10127277  1
  Zr  Zr37  1  0.11144944  0.70183995  0.09317350  1
  Zr  Zr38  1  0.89797956  0.89000458  0.30416504  1
  Zr  Zr39  1  0.89677243  0.89796183  0.50209095  1
  Zr  Zr40  1  0.69624205  0.69861450  0.89949620  1
  Zr  Zr41  1  0.49744865  0.88790947  0.90115340  1
  Zr  Zr42  1  0.69083122  0.90552136  0.89799563  1
  Zr  Zr43  1  0.09943021  0.49446213  0.10224019  1
  Zr  Zr44  1  0.89286152  0.69806684  0.10052246  1
  Zr  Zr45  1  0.91047170  0.10127761  0.50698527  1
  Zr  Zr46  1  0.10172430  0.48913777  0.30200181  1
  Zr  Zr47  1  0.30017359  0.49017547  0.50049941  1
  Zr  Zr48  1  0.49826160  0.69416240  0.30337240  1
  Zr  Zr49  1  0.90173622  0.90276254  0.09715291  1
  Sc  Sc50  1  0.69882781  0.69426173  0.10126084  1
  Sc  Sc51  1  0.90585830  0.49684163  0.49119650  1
  Sc  Sc52  1  0.09607820  0.10391799  0.10219223  1
  Sc  Sc53  1  0.10477781  0.89861131  0.90007314  1
  Sc  Sc54  1  0.10890961  0.70233514  0.30685592  1
  Sc  Sc55  1  0.10070740  0.29522275  0.50151987  1
  Sc  Sc56  1  0.68140271  0.09890382  0.09597536  1
  Sc  Sc57  1  0.89935449  0.91412328  0.69374875  1
  Sc  Sc58  1  0.49671558  0.49772085  0.49589540  1
  Sc  Sc59  1  0.30093355  0.30280282  0.29932284  1
  Sc  Sc60  1  0.49835198  0.88931723  0.29415484  1
  Sc  Sc61  1  0.89294092  0.49691296  0.89997686  1
  Sc  Sc62  1  0.90018830  0.31301926  0.09812639  1
  Sc  Sc63  1  0.69392790  0.30632618  0.29408225  1
  Sc  Sc64  1  0.69697714  0.49848972  0.29715473  1
  Sc  Sc65  1  0.10252992  0.10294588  0.69976215  1
  Sc  Sc66  1  0.29615182  0.69596002  0.49172892  1
  Sc  Sc67  1  0.49347686  0.10080118  0.10038269  1
  Sc  Sc68  1  0.29766683  0.10855180  0.50748595  1
  Sc  Sc69  1  0.90878069  0.09447125  0.09444267  1
  Sc  Sc70  1  0.29310567  0.91433745  0.50005830  1
  Sc  Sc71  1  0.09877771  0.89862029  0.09208608  1
  Sc  Sc72  1  0.30067320  0.10612903  0.90382170  1
  Sc  Sc73  1  0.49991360  0.89906090  0.09508138  1
  Sc  Sc74  1  0.69468938  0.09989063  0.89317704  1
  Sc  Sc75  1  0.09891174  0.29684260  0.29727389  1
  Sc  Sc76  1  0.10338254  0.10519325  0.30701204  1
  Sc  Sc77  1  0.29812278  0.50117793  0.11225443  1
  Sc  Sc78  1  0.69741865  0.30442364  0.10262489  1
  Sc  Sc79  1  0.10933503  0.91058536  0.70914722  1
  Sc  Sc80  1  0.10058910  0.69151537  0.49894964  1
  Sc  Sc81  1  0.69768670  0.29806001  0.50125090  1
  Sc  Sc82  1  0.49695976  0.90312590  0.71224178  1
  Sc  Sc83  1  0.90946380  0.30523482  0.30370033  1
  Sc  Sc84  1  0.30007644  0.50577761  0.88679746  1
  Sc  Sc85  1  0.69580820  0.88861809  0.29452512  1
  Sc  Sc86  1  0.49102082  0.69862409  0.09261709  1
  Sc  Sc87  1  0.91541696  0.10175486  0.29691984  1
  Sc  Sc88  1  0.90469114  0.91278573  0.90261651  1
  Sc  Sc89  1  0.29281414  0.49090431  0.69582418  1
  Sc  Sc90  1  0.30428300  0.10946810  0.30234677  1
  Sc  Sc91  1  0.69964547  0.70474204  0.50318150  1
  Sc  Sc92  1  0.29964985  0.29544611  0.10204868  1
  Sc  Sc93  1  0.70211019  0.69254778  0.69194811  1
  Sc  Sc94  1  0.29767041  0.70158616  0.89936173  1
  Sc  Sc95  1  0.50202200  0.70220773  0.70703563  1
  Sc  Sc96  1  0.49882178  0.30429615  0.70293808  1
  Sc  Sc97  1  0.89482089  0.49336053  0.09536262  1
  Sc  Sc98  1  0.10476690  0.49335825  0.89577433  1
  Sc  Sc99  1  0.10125439  0.30704984  0.09732819  1
  Nb  Nb100  1  0.09816022  0.69509156  0.70037316  1
  Nb  Nb101  1  0.29438241  0.70231893  0.70712927  1
  Nb  Nb102  1  0.70363522  0.90447644  0.69661487  1
  Nb  Nb103  1  0.30326902  0.09363079  0.09902847  1
  Nb  Nb104  1  0.69834255  0.10144608  0.29936605  1
  Nb  Nb105  1  0.30556063  0.49392306  0.29947763  1
  Nb  Nb106  1  0.70485391  0.29213111  0.70015288  1
  Nb  Nb107  1  0.30261458  0.90066576  0.71073881  1
  Nb  Nb108  1  0.50654032  0.10248013  0.30454111  1
  Nb  Nb109  1  0.49863506  0.49622960  0.89631372  1
  Nb  Nb110  1  0.69763816  0.10870356  0.70117768  1
  Nb  Nb111  1  0.70269949  0.90208642  0.50833656  1
  Nb  Nb112  1  0.89843864  0.30071314  0.69914319  1
  Nb  Nb113  1  0.70248710  0.49357670  0.69905580  1
  Nb  Nb114  1  0.29808727  0.70160718  0.09937281  1
  Nb  Nb115  1  0.30006708  0.09794935  0.70460342  1
  Nb  Nb116  1  0.29838489  0.89714355  0.88996277  1
  Nb  Nb117  1  0.29190702  0.29628638  0.69679049  1
  Nb  Nb118  1  0.49802049  0.30391974  0.50468458  1
  Nb  Nb119  1  0.49530897  0.29996594  0.89988105  1
  Nb  Nb120  1  0.10151864  0.29926754  0.90000929  1
  Nb  Nb121  1  0.10503408  0.09568432  0.49882794  1
  Nb  Nb122  1  0.09022614  0.51112039  0.69733137  1
  Nb  Nb123  1  0.90138856  0.49849698  0.70300812  1
  Nb  Nb124  1  0.89989738  0.29480954  0.50278822  1
  Nb  Nb125  1  0.79766305  0.80250665  -0.00804516  1
  Nb  Nb126  1  0.39592239  0.60539194  0.60450688  1
  Nb  Nb127  1  0.20947360  -0.00012477  0.00269403  1
  Nb  Nb128  1  0.20037585  0.79918999  0.60898218  1
  Nb  Nb129  1  0.79943927  0.19969824  0.00248581  1
  Nb  Nb130  1  0.80273370  0.19538161  0.39550873  1
  Nb  Nb131  1  0.39427541  0.20452550  0.79920133  1
  Nb  Nb132  1  0.60605037  0.39972862  0.60648299  1
  Nb  Nb133  1  0.40213758  0.39985142  -0.00772292  1
  Nb  Nb134  1  0.79950192  0.19326208  0.20004609  1
  Nb  Nb135  1  0.00284228  0.60331256  0.19690944  1
  Nb  Nb136  1  0.41142496  0.00758351  0.40004834  1
  Nb  Nb137  1  0.59149282  0.40182599  -0.00868141  1
  Nb  Nb138  1  0.80210841  0.80520988  0.79745445  1
  Nb  Nb139  1  0.79586434  0.00526286  0.20494109  1
  Nb  Nb140  1  0.38859888  0.79991839  0.60754992  1
  Nb  Nb141  1  0.00593407  0.79797407  0.60655120  1
  Nb  Nb142  1  0.00085446  0.79450436  0.20029584  1
  Nb  Nb143  1  0.60570346  0.00089877  0.60221952  1
  Nb  Nb144  1  0.00398741  0.59904723  0.00299772  1
  Nb  Nb145  1  0.20799066  0.00117527  0.19436683  1
  Nb  Nb146  1  0.80420904  0.39642569  0.60723219  1
  Nb  Nb147  1  0.79396704  0.00429238  0.39783834  1
  Nb  Nb148  1  -0.00254133  0.79645484  0.79293806  1
  Nb  Nb149  1  0.60282885  0.00154660  0.40228884  1
  Pd  Pd150  1  0.59017071  0.59173376  0.60261227  1
  Pd  Pd151  1  0.79224655  0.00581628  0.00774323  1
  Pd  Pd152  1  0.00191277  0.40549778  0.80272478  1
  Pd  Pd153  1  -0.00689475  0.79378388  -0.00715677  1
  Pd  Pd154  1  0.60379797  0.59805105  0.39822519  1
  Pd  Pd155  1  0.40016502  -0.00201091  -0.00961644  1
  Pd  Pd156  1  0.60107717  0.59302647  0.00329739  1
  Pd  Pd157  1  0.00597665  -0.00822812  0.20165106  1
  Pd  Pd158  1  0.38686734  0.59183917  0.00066826  1
  Pd  Pd159  1  0.40044141  0.20337764  0.61114804  1
  Pd  Pd160  1  0.60843264  0.79760234  0.79143195  1
  Pd  Pd161  1  0.00214054  -0.00116185  0.79797122  1
  Pd  Pd162  1  0.59426559  0.80608394  0.61170594  1
  Pd  Pd163  1  0.59202397  0.78737326  0.19268515  1
  Pd  Pd164  1  0.39960162  0.01005011  0.81216338  1
  Pd  Pd165  1  0.60541278  0.20740378  0.39630321  1
  Pd  Pd166  1  0.20123291  0.00150010  0.60652604  1
  Pd  Pd167  1  0.20027166  0.19581158  0.00947647  1
  Pd  Pd168  1  0.40345003  -0.00416007  0.59691735  1
  Pd  Pd169  1  0.59791903  0.39790203  0.40624491  1
  Pd  Pd170  1  0.20365264  0.59012852  -0.00240713  1
  Pd  Pd171  1  0.40263779  0.00247526  0.20864313  1
  Pd  Pd172  1  -0.00571533  0.00349304  0.39907455  1
  Pd  Pd173  1  0.79983761  0.38946182  0.40364409  1
  Pd  Pd174  1  0.40092430  0.19805697  0.20187602  1
  Pd  Pd175  1  0.39218847  0.80859496  0.41064091  1
  Pd  Pd176  1  -0.00372653  0.39915756  0.59651005  1
  Pd  Pd177  1  0.39401603  0.59588949  0.40427775  1
  Pd  Pd178  1  0.79764959  0.01017979  0.59909420  1
  Pd  Pd179  1  0.20107555  0.80295290  0.41249968  1
  Pd  Pd180  1  0.60632304  0.80136364  0.40002257  1
  Pd  Pd181  1  0.59767741  0.60053506  0.19885705  1
  Pd  Pd182  1  0.01043414  0.20026393  0.60328757  1
  Pd  Pd183  1  -0.00627744  0.20904097  0.19312223  1
  Pd  Pd184  1  0.19758978  0.59698270  0.20789825  1
  Pd  Pd185  1  0.20701155  0.60225135  0.60313954  1
  Pd  Pd186  1  0.20327022  0.20425793  0.40552988  1
  Pd  Pd187  1  0.20750316  0.59391191  0.39136706  1
  Pd  Pd188  1  0.79765458  0.00234398  0.79967842  1
  Pd  Pd189  1  -0.00368487  0.20878179  0.00735464  1
  Pd  Pd190  1  0.21014497  0.40757852  0.00247656  1
  Pd  Pd191  1  0.20139838  0.38825653  0.39952960  1
  Pd  Pd192  1  -0.00642662  0.60084556  0.58898682  1
  Pd  Pd193  1  0.19921256  0.19596951  0.19635075  1
  Pd  Pd194  1  0.59778869  -0.00115656  0.20508538  1
  Pd  Pd195  1  0.80864579  0.59061584  0.59244892  1
  Pd  Pd196  1  0.80133601  0.39780333  0.79779166  1
  Pd  Pd197  1  0.39062170  0.39261068  0.79912502  1
  Pd  Pd198  1  0.19432412  0.80958518  0.19722430  1
  Pd  Pd199  1  0.00365066  0.59939025  0.39465452  1
  Rh  Rh200  1  0.59493485  0.20674398  0.61005169  1
  Rh  Rh201  1  0.78794053  0.39057555  -0.00746314  1
  Rh  Rh202  1  0.60193687  0.00231608  0.79446994  1
  Rh  Rh203  1  0.60576301  0.60137184  0.79361865  1
  Rh  Rh204  1  0.00264104  0.59540688  0.80897664  1
  Rh  Rh205  1  0.80807885  0.79914046  0.60803586  1
  Rh  Rh206  1  0.39930386  0.39382446  0.40044726  1
  Rh  Rh207  1  0.18960738  0.39946094  0.60486194  1
  Rh  Rh208  1  -0.00031407  0.20077225  0.40619048  1
  Rh  Rh209  1  0.00453843  0.39440136  0.40539582  1
  Rh  Rh210  1  0.39684428  0.79356556  -0.00748945  1
  Rh  Rh211  1  0.40527634  0.79373083  0.19462454  1
  Rh  Rh212  1  0.58970914  -0.00089407  -0.00270585  1
  Rh  Rh213  1  0.59164126  0.20385326  0.79347353  1
  Rh  Rh214  1  0.20968724  0.80738636  -0.00528572  1
  Rh  Rh215  1  0.20275984  0.19694865  0.79245944  1
  Rh  Rh216  1  0.60104017  0.20098629  0.19935078  1
  Rh  Rh217  1  0.00319071  0.20434842  0.79665222  1
  Rh  Rh218  1  0.01183546  0.79679267  0.40472400  1
  Rh  Rh219  1  0.39837723  0.39412228  0.19277595  1
  Rh  Rh220  1  0.60269311  0.39449496  0.79782015  1
  Rh  Rh221  1  0.39050484  0.20872062  -0.00590371  1
  Rh  Rh222  1  0.80070274  0.60175326  0.00083489  1
  Rh  Rh223  1  -0.00085195  0.40495671  0.20153081  1
  Rh  Rh224  1  0.19272252  0.80065409  0.79663572  1
  Rh  Rh225  1  0.60107963  0.79348729  0.00114816  1
  Rh  Rh226  1  0.20615458  0.00852807  0.80942694  1
  Rh  Rh227  1  0.80314214  0.58994614  0.19853270  1
  Rh  Rh228  1  0.79438106  0.59899330  0.40344946  1
  Rh  Rh229  1  0.79455534  0.59985934  0.79503134  1
  Rh  Rh230  1  0.19827090  0.59380181  0.79186323  1
  Rh  Rh231  1  0.39931064  0.79225330  0.80096942  1
  Rh  Rh232  1  0.00387044  0.40513586  -0.00792912  1
  Rh  Rh233  1  0.59381068  0.40137494  0.19341927  1
  Rh  Rh234  1  0.80168734  0.19840821  0.80812961  1
  Rh  Rh235  1  0.21136718  0.01240731  0.39175632  1
  Rh  Rh236  1  0.80256212  0.20601518  0.59659673  1
  Rh  Rh237  1  0.20311836  0.39548432  0.20376247  1
  Rh  Rh238  1  0.39908149  0.20293999  0.40208931  1
  Rh  Rh239  1  0.01778374  0.00397111  -0.00582049  1
  Rh  Rh240  1  0.00596999  0.00122824  0.60532105  1
  Rh  Rh241  1  0.39399394  0.60243109  0.79251805  1
  Rh  Rh242  1  0.60741778  0.20808790  0.00203579  1
  Rh  Rh243  1  0.80330596  0.80987489  0.18799960  1
  Rh  Rh244  1  0.41088506  0.40754315  0.60388343  1
  Rh  Rh245  1  0.78649678  0.80619013  0.40431664  1
  Rh  Rh246  1  0.80262968  0.39309281  0.20715989  1
  Rh  Rh247  1  0.39796742  0.60249048  0.19846484  1
  Rh  Rh248  1  0.19662058  0.19804532  0.60254020  1
  Rh  Rh249  1  0.19319349  0.40538472  0.79214168  1
