# generated using pymatgen
data_ZrScNbPdRh
_symmetry_space_group_name_H-M   'P 1'
_cell_length_a   16.55519819
_cell_length_b   16.55523008
_cell_length_c   16.55287140
_cell_angle_alpha   89.98698338
_cell_angle_beta   90.00461419
_cell_angle_gamma   89.98148554
_symmetry_Int_Tables_number   1
_chemical_formula_structural   ZrScNbPdRh
_chemical_formula_sum   'Zr50 Sc50 Nb50 Pd50 Rh50'
_cell_volume   4536.72976525
_cell_formula_units_Z   50
loop_
 _symmetry_equiv_pos_site_id
 _symmetry_equiv_pos_as_xyz
  1  'x, y, z'
loop_
 _atom_site_type_symbol
 _atom_site_label
 _atom_site_symmetry_multiplicity
 _atom_site_fract_x
 _atom_site_fract_y
 _atom_site_fract_z
 _atom_site_occupancy
  Zr  Zr0  1  0.70381084  0.09980916  0.30314078  1
  Zr  Zr1  1  0.09785210  0.29188609  0.10797965  1
  Zr  Zr2  1  0.10224724  0.30069239  0.30176668  1
  Zr  Zr3  1  0.90012987  0.69964690  0.90098261  1
  Zr  Zr4  1  0.69230268  0.49861427  0.10218965  1
  Zr  Zr5  1  0.29437342  0.30776783  0.09510537  1
  Zr  Zr6  1  0.49122407  0.70643216  0.30020838  1
  Zr  Zr7  1  0.49660558  0.50087201  0.90208514  1
  Zr  Zr8  1  0.31325874  0.90586035  0.30249909  1
  Zr  Zr9  1  0.69864021  0.89560589  0.09193379  1
  Zr  Zr10  1  0.90563121  0.30291616  0.29856694  1
  Zr  Zr11  1  0.49800346  0.09963331  0.29589021  1
  Zr  Zr12  1  0.69683139  0.90293230  0.50471946  1
  Zr  Zr13  1  0.90818506  0.89807692  0.68983427  1
  Zr  Zr14  1  0.10457449  0.90373952  0.90077022  1
  Zr  Zr15  1  0.69343783  0.89901676  0.90286165  1
  Zr  Zr16  1  0.50389489  0.71125149  0.50315485  1
  Zr  Zr17  1  0.48878448  0.09833120  0.90395381  1
  Zr  Zr18  1  0.10169579  0.70272681  0.69651551  1
  Zr  Zr19  1  0.90850971  0.29743017  0.69831182  1
  Zr  Zr20  1  0.50574229  0.90049537  0.69016839  1
  Zr  Zr21  1  0.90255519  0.29370022  0.09410302  1
  Zr  Zr22  1  0.90005815  0.70640704  0.30018654  1
  Zr  Zr23  1  0.10909984  0.10288657  0.50176621  1
  Zr  Zr24  1  0.09219713  0.49155804  0.30367289  1
  Zr  Zr25  1  0.70006390  0.90335465  0.70637107  1
  Zr  Zr26  1  0.89679047  0.90499994  0.29632132  1
  Zr  Zr27  1  0.29780082  0.10526176  0.70883841  1
  Zr  Zr28  1  0.30040974  0.48893202  0.90560306  1
  Zr  Zr29  1  0.10371514  0.47978976  0.69855917  1
  Zr  Zr30  1  0.29992562  0.50040905  0.69349155  1
  Zr  Zr31  1  0.70040848  0.29900235  0.70617786  1
  Zr  Zr32  1  0.71005966  0.09635688  0.89535620  1
  Zr  Zr33  1  0.30197965  0.90428646  0.69844392  1
  Zr  Zr34  1  0.30477736  0.69791326  0.69786750  1
  Zr  Zr35  1  0.89752032  0.70303218  0.69668171  1
  Zr  Zr36  1  0.89840338  0.49890367  0.29848335  1
  Zr  Zr37  1  0.90096341  0.10564695  0.70893715  1
  Zr  Zr38  1  0.70025033  0.90900120  0.29903028  1
  Zr  Zr39  1  0.09805967  0.09414622  0.09718808  1
  Zr  Zr40  1  0.90615684  0.09715705  0.10005808  1
  Zr  Zr41  1  0.68921723  0.49020392  0.89597777  1
  Zr  Zr42  1  0.49486820  0.09810382  0.69687467  1
  Zr  Zr43  1  0.10100657  0.09622527  0.89601088  1
  Zr  Zr44  1  0.50106912  0.29826559  0.68556258  1
  Zr  Zr45  1  0.29979724  0.28853879  0.30323468  1
  Zr  Zr46  1  0.49540862  0.10641931  0.50890359  1
  Zr  Zr47  1  0.30863688  0.70134246  0.89783682  1
  Zr  Zr48  1  0.69935352  0.50170330  0.29636931  1
  Zr  Zr49  1  0.90151302  0.71094434  0.50301648  1
  Sc  Sc50  1  0.10909962  0.70314834  0.29920250  1
  Sc  Sc51  1  0.30132618  0.09821876  0.30051566  1
  Sc  Sc52  1  0.49752019  0.70237775  0.70937747  1
  Sc  Sc53  1  0.70035237  0.09635025  0.69504723  1
  Sc  Sc54  1  0.30196042  0.90916471  0.90523873  1
  Sc  Sc55  1  0.90434385  0.10253866  0.90448156  1
  Sc  Sc56  1  0.69808270  0.70894976  0.90259260  1
  Sc  Sc57  1  0.89368363  0.29078846  0.90075859  1
  Sc  Sc58  1  0.50267999  0.30240703  0.90953990  1
  Sc  Sc59  1  0.10285595  0.90778133  0.10123305  1
  Sc  Sc60  1  0.89516024  0.90231146  0.89399791  1
  Sc  Sc61  1  0.10933704  0.49562220  0.49895373  1
  Sc  Sc62  1  0.30245095  0.10457086  0.49588515  1
  Sc  Sc63  1  0.89285610  0.49488532  0.09799482  1
  Sc  Sc64  1  0.29055360  0.29806879  0.69924916  1
  Sc  Sc65  1  0.50910598  0.29064499  0.10084737  1
  Sc  Sc66  1  0.30379638  0.09206443  0.10375506  1
  Sc  Sc67  1  0.10853169  0.48569485  0.10175426  1
  Sc  Sc68  1  0.49406780  0.48091886  0.50453452  1
  Sc  Sc69  1  0.70630615  0.69881841  0.29344044  1
  Sc  Sc70  1  0.49595960  0.90640555  0.49360567  1
  Sc  Sc71  1  0.70865876  0.70599291  0.50139992  1
  Sc  Sc72  1  0.29267550  0.50534319  0.30023089  1
  Sc  Sc73  1  0.50065957  0.09695574  0.09985523  1
  Sc  Sc74  1  0.70082947  0.10258023  0.50113296  1
  Sc  Sc75  1  0.30313040  0.90158225  0.09927564  1
  Sc  Sc76  1  0.10190899  0.90066976  0.29533875  1
  Sc  Sc77  1  0.10060179  0.30707090  0.89692195  1
  Sc  Sc78  1  0.88351815  0.10320327  0.50220395  1
  Sc  Sc79  1  0.50386123  0.49584501  0.29643587  1
  Sc  Sc80  1  0.11124955  0.10363534  0.29378597  1
  Sc  Sc81  1  0.29205786  0.69872688  0.50780174  1
  Sc  Sc82  1  0.70098200  0.49930081  0.49913716  1
  Sc  Sc83  1  0.10475888  0.70827189  0.49856691  1
  Sc  Sc84  1  0.48902750  0.69611827  0.10250001  1
  Sc  Sc85  1  0.50340473  0.50491819  0.70672803  1
  Sc  Sc86  1  0.10330289  0.30221390  0.50384613  1
  Sc  Sc87  1  0.50248965  0.89461519  0.90514767  1
  Sc  Sc88  1  0.30057210  0.29499529  0.89752502  1
  Sc  Sc89  1  0.89847624  0.48935232  0.90620401  1
  Sc  Sc90  1  0.90140462  0.49894019  0.49712987  1
  Sc  Sc91  1  0.30598782  0.69655873  0.10789852  1
  Sc  Sc92  1  0.69621120  0.09571032  0.09636505  1
  Sc  Sc93  1  0.69660130  0.70502340  0.70000925  1
  Sc  Sc94  1  0.88603357  0.70652546  0.09938027  1
  Sc  Sc95  1  0.11173948  0.70870369  0.10479199  1
  Sc  Sc96  1  0.69490427  0.49802888  0.70527727  1
  Sc  Sc97  1  0.90231445  0.90363896  0.10535082  1
  Sc  Sc98  1  0.69091938  0.30354363  0.29048971  1
  Sc  Sc99  1  0.29971870  0.70367619  0.29848700  1
  Nb  Nb100  1  0.10302777  0.28753774  0.69837166  1
  Nb  Nb101  1  0.48897715  0.50069689  0.09648464  1
  Nb  Nb102  1  0.49544965  0.29743479  0.30407916  1
  Nb  Nb103  1  0.49663012  0.29622359  0.49690170  1
  Nb  Nb104  1  0.29620689  0.09896745  0.89986265  1
  Nb  Nb105  1  0.29281889  0.91045558  0.49905881  1
  Nb  Nb106  1  0.10040727  0.91107395  0.69712300  1
  Nb  Nb107  1  0.89157913  0.29377184  0.49704857  1
  Nb  Nb108  1  0.90712638  0.89863487  0.49788398  1
  Nb  Nb109  1  0.69528665  0.29727811  0.90259359  1
  Nb  Nb110  1  0.50097061  0.89978040  0.29854779  1
  Nb  Nb111  1  0.31119317  0.50169581  0.09516991  1
  Nb  Nb112  1  0.69388496  0.70384865  0.09571935  1
  Nb  Nb113  1  0.90163647  0.50089414  0.69857503  1
  Nb  Nb114  1  0.10249914  0.69931085  0.89827207  1
  Nb  Nb115  1  0.30165172  0.49901491  0.50577360  1
  Nb  Nb116  1  0.69931074  0.29515087  0.50463993  1
  Nb  Nb117  1  0.10162923  0.11133740  0.70226993  1
  Nb  Nb118  1  0.10261191  0.50268467  0.89810729  1
  Nb  Nb119  1  0.69953840  0.29356114  0.09426358  1
  Nb  Nb120  1  0.50434936  0.69378336  0.89692177  1
  Nb  Nb121  1  0.89232522  0.09687816  0.30484346  1
  Nb  Nb122  1  0.09419958  0.90745495  0.50915446  1
  Nb  Nb123  1  0.31392885  0.30271777  0.49978102  1
  Nb  Nb124  1  0.50179031  0.90242800  0.10024913  1
  Nb  Nb125  1  0.59463305  0.60118499  0.40373496  1
  Nb  Nb126  1  0.40231129  0.59774471  0.40768267  1
  Nb  Nb127  1  0.59548343  0.60090879  0.00266541  1
  Nb  Nb128  1  -0.00557553  0.19600668  0.39997382  1
  Nb  Nb129  1  0.40077642  0.39932942  0.79798687  1
  Nb  Nb130  1  0.59458874  0.20911164  0.40175490  1
  Nb  Nb131  1  0.59924853  0.19939344  0.80228597  1
  Nb  Nb132  1  0.59771288  0.60223479  0.59279596  1
  Nb  Nb133  1  0.20048487  0.59705896  -0.00313371  1
  Nb  Nb134  1  0.00087158  0.60070304  0.19758370  1
  Nb  Nb135  1  0.19967101  0.19393603  -0.00153998  1
  Nb  Nb136  1  0.00129631  0.59477074  0.79965474  1
  Nb  Nb137  1  0.00390578  0.79515862  -0.00414711  1
  Nb  Nb138  1  0.80284868  0.39456292  0.59880013  1
  Nb  Nb139  1  -0.00226961  0.00351676  0.40435241  1
  Nb  Nb140  1  0.79713204  0.39186125  0.40311015  1
  Nb  Nb141  1  0.59520005  0.80481362  0.19728935  1
  Nb  Nb142  1  0.40059201  0.39888172  0.19748752  1
  Nb  Nb143  1  0.00069146  0.59799813  0.60181885  1
  Nb  Nb144  1  0.19868436  0.80196435  0.79725366  1
  Nb  Nb145  1  -0.00018635  0.60368260  0.39881798  1
  Nb  Nb146  1  0.80049950  0.19870679  0.19811011  1
  Nb  Nb147  1  0.00968944  0.60251648  0.00096958  1
  Nb  Nb148  1  0.19680654  0.59946793  0.80263213  1
  Nb  Nb149  1  0.80553492  0.59673907  0.80003331  1
  Pd  Pd150  1  0.39716074  0.20366442  0.19200367  1
  Pd  Pd151  1  0.59031581  0.39512999  0.19282673  1
  Pd  Pd152  1  0.79387850  0.80662361  0.39849675  1
  Pd  Pd153  1  0.60542903  0.39880206  0.40315153  1
  Pd  Pd154  1  0.19517369  0.59360038  0.19238904  1
  Pd  Pd155  1  0.60972795  0.79471583  0.38998253  1
  Pd  Pd156  1  0.80560084  -0.00365050  0.00130262  1
  Pd  Pd157  1  0.79062127  0.59828812  -0.00598713  1
  Pd  Pd158  1  0.00567466  0.80244013  0.80179955  1
  Pd  Pd159  1  0.00990268  0.80460671  0.39801693  1
  Pd  Pd160  1  0.59279860  0.00618839  0.80474691  1
  Pd  Pd161  1  0.20952613  0.39585019  0.40447013  1
  Pd  Pd162  1  0.59182408  0.60899452  0.19935436  1
  Pd  Pd163  1  0.20989138  0.80927859  0.20164859  1
  Pd  Pd164  1  0.19409615  -0.00270135  0.39436552  1
  Pd  Pd165  1  0.19867623  0.80899594  0.60224291  1
  Pd  Pd166  1  0.39321063  0.40780445  0.38928395  1
  Pd  Pd167  1  0.00417990  0.40025994  0.00186268  1
  Pd  Pd168  1  0.79538669  0.59238608  0.60432380  1
  Pd  Pd169  1  -0.00223916  0.00072622  0.80015697  1
  Pd  Pd170  1  0.80035519  0.59664520  0.40462281  1
  Pd  Pd171  1  0.80418213  0.60202629  0.19323146  1
  Pd  Pd172  1  0.40095882  0.81015127  0.80187269  1
  Pd  Pd173  1  -0.00436586  0.18969701  0.21024895  1
  Pd  Pd174  1  0.20436999  0.00948790  0.60593736  1
  Pd  Pd175  1  0.59415578  0.01121180  0.40675363  1
  Pd  Pd176  1  0.79302836  0.39474953  -0.00027011  1
  Pd  Pd177  1  0.19994175  0.60099392  0.40426147  1
  Pd  Pd178  1  0.40415317  -0.00867678  0.80272726  1
  Pd  Pd179  1  0.60620025  0.40605337  0.59977759  1
  Pd  Pd180  1  -0.00410890  0.40065607  0.59123532  1
  Pd  Pd181  1  0.80367496  -0.00212683  0.60162483  1
  Pd  Pd182  1  0.40277779  0.79913229  0.00289831  1
  Pd  Pd183  1  0.40684833  0.21051607  0.79879190  1
  Pd  Pd184  1  0.00074484  0.79530583  0.19051396  1
  Pd  Pd185  1  -0.00274392  0.19356997  0.58991731  1
  Pd  Pd186  1  -0.00405733  0.39690696  0.80467876  1
  Pd  Pd187  1  0.38656250  0.79683398  0.41124434  1
  Pd  Pd188  1  0.20184492  0.79764893  -0.00272651  1
  Pd  Pd189  1  0.60055660  -0.00105422  0.19489674  1
  Pd  Pd190  1  0.20901349  0.40318034  0.20461330  1
  Pd  Pd191  1  0.41243048  0.59860883  0.59378112  1
  Pd  Pd192  1  0.80607535  0.40056429  0.79702314  1
  Pd  Pd193  1  0.79874248  0.38980703  0.19951902  1
  Pd  Pd194  1  0.20243783  0.81046717  0.40108253  1
  Pd  Pd195  1  -0.00473947  0.01594655  0.59495609  1
  Pd  Pd196  1  0.39243373  0.20078996  0.00665897  1
  Pd  Pd197  1  0.60357219  0.18887120  -0.00756865  1
  Pd  Pd198  1  0.79671831  0.79730324  0.79955755  1
  Pd  Pd199  1  0.39636923  0.80799791  0.59180564  1
  Rh  Rh200  1  0.79772394  0.00586395  0.19210777  1
  Rh  Rh201  1  0.40492837  -0.00321039  0.19927845  1
  Rh  Rh202  1  0.80706738  -0.00039136  0.79540112  1
  Rh  Rh203  1  0.20516340  0.00644397  0.00340288  1
  Rh  Rh204  1  0.40658607  0.38951665  0.00357006  1
  Rh  Rh205  1  0.19966198  -0.00253806  0.79370624  1
  Rh  Rh206  1  0.20707662  0.19475519  0.19008317  1
  Rh  Rh207  1  0.20715518  0.38952925  0.59319030  1
  Rh  Rh208  1  0.40342773  0.80867277  0.19533324  1
  Rh  Rh209  1  0.01094065  0.20130041  -0.00795499  1
  Rh  Rh210  1  0.40116690  -0.00090665  0.00190582  1
  Rh  Rh211  1  0.79525595  0.19956043  0.80043100  1
  Rh  Rh212  1  0.79575134  0.81123427  0.60118360  1
  Rh  Rh213  1  -0.00365088  0.40775498  0.18914732  1
  Rh  Rh214  1  0.59766544  0.40353500  0.00830824  1
  Rh  Rh215  1  0.19450229  0.20227083  0.80798937  1
  Rh  Rh216  1  0.78911390  0.80558397  0.19823208  1
  Rh  Rh217  1  0.39265515  -0.00022302  0.59554442  1
  Rh  Rh218  1  0.79737307  0.20352355  0.61039306  1
  Rh  Rh219  1  0.61214335  0.60861184  0.80340386  1
  Rh  Rh220  1  0.19025655  0.59372207  0.60285821  1
  Rh  Rh221  1  0.59941427  0.00217951  0.59598753  1
  Rh  Rh222  1  -0.00616957  0.39530806  0.40914551  1
  Rh  Rh223  1  0.58772133  0.38589067  0.79846702  1
  Rh  Rh224  1  0.80726461  0.80725690  0.00010092  1
  Rh  Rh225  1  0.00828421  0.79780014  0.59857147  1
  Rh  Rh226  1  0.20614904  0.39829890  0.79924245  1
  Rh  Rh227  1  0.59625385  0.80185695  0.79863050  1
  Rh  Rh228  1  0.19746115  0.20706183  0.40641731  1
  Rh  Rh229  1  0.19529103  0.39603662  -0.00178182  1
  Rh  Rh230  1  0.39973839  0.60747322  -0.00542102  1
  Rh  Rh231  1  0.80461103  -0.00923404  0.41000640  1
  Rh  Rh232  1  0.79659702  0.19761758  0.00623004  1
  Rh  Rh233  1  0.39556405  0.39613763  0.60793981  1
  Rh  Rh234  1  0.39240175  0.59053477  0.80338699  1
  Rh  Rh235  1  0.20645368  0.20217013  0.59547877  1
  Rh  Rh236  1  0.79347572  0.20999745  0.38767538  1
  Rh  Rh237  1  0.20514366  -0.00331146  0.20249095  1
  Rh  Rh238  1  0.60479838  0.19557668  0.59985771  1
  Rh  Rh239  1  0.40501813  0.19349441  0.39895843  1
  Rh  Rh240  1  0.00320883  0.00410674  0.21193105  1
  Rh  Rh241  1  0.40296004  0.00456544  0.40202452  1
  Rh  Rh242  1  0.60526350  0.19739843  0.20634089  1
  Rh  Rh243  1  0.39962493  0.59015201  0.21381846  1
  Rh  Rh244  1  -0.00405469  -0.01207421  -0.00387833  1
  Rh  Rh245  1  0.60310052  0.79689521  0.60467637  1
  Rh  Rh246  1  0.59647283  0.00316335  -0.00562498  1
  Rh  Rh247  1  0.38952303  0.20256064  0.60366782  1
  Rh  Rh248  1  0.58655547  0.78881708  0.00792121  1
  Rh  Rh249  1  0.00544839  0.20582086  0.80566370  1
