# generated using pymatgen
data_ZrScNbPdRh
_symmetry_space_group_name_H-M   'P 1'
_cell_length_a   16.55256997
_cell_length_b   16.55701033
_cell_length_c   16.56068282
_cell_angle_alpha   89.99690045
_cell_angle_beta   89.99045795
_cell_angle_gamma   89.99722915
_symmetry_Int_Tables_number   1
_chemical_formula_structural   ZrScNbPdRh
_chemical_formula_sum   'Zr50 Sc50 Nb50 Pd50 Rh50'
_cell_volume   4538.63841032
_cell_formula_units_Z   50
loop_
 _symmetry_equiv_pos_site_id
 _symmetry_equiv_pos_as_xyz
  1  'x, y, z'
loop_
 _atom_site_type_symbol
 _atom_site_label
 _atom_site_symmetry_multiplicity
 _atom_site_fract_x
 _atom_site_fract_y
 _atom_site_fract_z
 _atom_site_occupancy
  Zr  Zr0  1  0.89614005  0.30499075  0.70165747  1
  Zr  Zr1  1  0.30595680  0.29704610  0.30745703  1
  Zr  Zr2  1  0.49367208  0.49015165  0.91453316  1
  Zr  Zr3  1  0.48946273  0.29662854  0.70704832  1
  Zr  Zr4  1  0.09636460  0.90629141  0.70591009  1
  Zr  Zr5  1  0.89698232  0.29722999  0.30104069  1
  Zr  Zr6  1  0.29276431  0.90814076  0.90350174  1
  Zr  Zr7  1  0.69927825  0.29647087  0.29517716  1
  Zr  Zr8  1  0.90039359  0.90247668  0.70037781  1
  Zr  Zr9  1  0.49429920  0.68716284  0.10366148  1
  Zr  Zr10  1  0.69510091  0.49908011  0.29415265  1
  Zr  Zr11  1  0.90232792  0.71752413  0.09311198  1
  Zr  Zr12  1  0.89679239  0.70400397  0.50374644  1
  Zr  Zr13  1  0.10070805  0.10058463  0.30158943  1
  Zr  Zr14  1  0.69816955  0.90078667  0.30506653  1
  Zr  Zr15  1  0.90032967  0.29273512  0.09652574  1
  Zr  Zr16  1  0.30572178  0.50447317  0.09612332  1
  Zr  Zr17  1  0.69886652  0.90715266  0.69536363  1
  Zr  Zr18  1  0.49451530  0.90633178  0.10301699  1
  Zr  Zr19  1  0.70463473  0.49075925  0.70006264  1
  Zr  Zr20  1  0.69697132  0.90352895  0.89594075  1
  Zr  Zr21  1  0.29953033  0.30637650  0.50945144  1
  Zr  Zr22  1  0.11016249  0.30493239  0.30383812  1
  Zr  Zr23  1  0.28481488  0.69301852  0.91034789  1
  Zr  Zr24  1  0.70183482  0.29741492  0.70672003  1
  Zr  Zr25  1  0.89437217  0.90045110  0.49990417  1
  Zr  Zr26  1  0.30090160  0.90409946  0.29284403  1
  Zr  Zr27  1  0.08850935  0.68326464  0.89749767  1
  Zr  Zr28  1  0.10037692  0.89990096  0.49821875  1
  Zr  Zr29  1  0.91184166  0.50866719  0.89634088  1
  Zr  Zr30  1  0.89583081  0.88905462  0.89765003  1
  Zr  Zr31  1  0.69318459  0.50397918  0.49465917  1
  Zr  Zr32  1  0.11202822  0.29954141  0.69672913  1
  Zr  Zr33  1  0.69346950  0.70222427  0.29777867  1
  Zr  Zr34  1  0.70046826  0.89675808  0.11180950  1
  Zr  Zr35  1  0.30018807  0.29683147  0.11349117  1
  Zr  Zr36  1  0.49585895  0.09935418  0.90988098  1
  Zr  Zr37  1  0.30253383  0.49468942  0.30264753  1
  Zr  Zr38  1  0.50011541  0.69463768  0.90565555  1
  Zr  Zr39  1  0.10309603  0.90240150  0.29708685  1
  Zr  Zr40  1  0.10226840  0.09999994  0.70414728  1
  Zr  Zr41  1  0.09668637  0.10386504  0.49985419  1
  Zr  Zr42  1  0.29295376  0.89633202  0.70582216  1
  Zr  Zr43  1  0.90825438  0.49157656  0.49981506  1
  Zr  Zr44  1  0.69607421  0.49524244  0.90012225  1
  Zr  Zr45  1  0.69306410  0.50600922  0.10209243  1
  Zr  Zr46  1  0.28930490  0.89509774  0.10077949  1
  Zr  Zr47  1  0.30242579  0.09361780  0.10025210  1
  Zr  Zr48  1  0.49800115  0.70029658  0.69762218  1
  Zr  Zr49  1  0.49500453  0.90403988  0.89679265  1
  Sc  Sc50  1  0.50028146  0.70212104  0.30093008  1
  Sc  Sc51  1  0.50268813  0.30218588  0.29736243  1
  Sc  Sc52  1  0.30090478  0.89012036  0.48305500  1
  Sc  Sc53  1  0.10509036  0.70355575  0.69753667  1
  Sc  Sc54  1  0.69874222  0.70768799  0.49926653  1
  Sc  Sc55  1  0.89615047  0.10056856  0.30464099  1
  Sc  Sc56  1  0.89667228  0.89844268  0.29157937  1
  Sc  Sc57  1  0.90056625  0.10259251  0.09631067  1
  Sc  Sc58  1  0.50691940  0.90180339  0.49394385  1
  Sc  Sc59  1  0.09898084  0.70592105  0.09627181  1
  Sc  Sc60  1  0.70183490  0.10302109  0.29654225  1
  Sc  Sc61  1  0.49809376  0.89731787  0.30527547  1
  Sc  Sc62  1  0.69721650  0.70412310  0.68823305  1
  Sc  Sc63  1  0.69563951  0.70023426  0.10825921  1
  Sc  Sc64  1  0.69978027  0.70926976  0.90303883  1
  Sc  Sc65  1  0.69832969  0.09428217  0.49484853  1
  Sc  Sc66  1  0.50119871  0.10112877  0.69696755  1
  Sc  Sc67  1  0.90076950  0.49611432  0.69401530  1
  Sc  Sc68  1  0.10562454  0.49688520  0.48651128  1
  Sc  Sc69  1  0.50332448  0.09964046  0.50091523  1
  Sc  Sc70  1  0.49786034  0.49823230  0.10263739  1
  Sc  Sc71  1  0.89885580  0.51431565  0.11537663  1
  Sc  Sc72  1  0.90702298  0.29664117  0.50047698  1
  Sc  Sc73  1  0.90645055  0.70715754  0.70438354  1
  Sc  Sc74  1  0.30551230  0.70591642  0.30084809  1
  Sc  Sc75  1  0.29733608  0.10307044  0.29669892  1
  Sc  Sc76  1  0.70143642  0.29069393  0.49740925  1
  Sc  Sc77  1  0.90226214  0.10435735  0.90660011  1
  Sc  Sc78  1  0.11756081  0.30241321  0.89885373  1
  Sc  Sc79  1  0.89882371  0.10328004  0.49392338  1
  Sc  Sc80  1  0.90656847  0.69274970  0.28285744  1
  Sc  Sc81  1  0.09602544  0.30340834  0.49995643  1
  Sc  Sc82  1  0.70049005  0.29058282  0.10659068  1
  Sc  Sc83  1  0.09385794  0.89975510  0.09975219  1
  Sc  Sc84  1  0.69908925  0.10401823  0.70121771  1
  Sc  Sc85  1  0.30779948  0.11332690  0.49586323  1
  Sc  Sc86  1  0.89928462  0.09971230  0.70230742  1
  Sc  Sc87  1  0.50732906  0.90397743  0.70175617  1
  Sc  Sc88  1  0.89301088  0.29339804  0.90177301  1
  Sc  Sc89  1  0.29947625  0.11593471  0.69929391  1
  Sc  Sc90  1  0.10201781  0.50477047  0.70141553  1
  Sc  Sc91  1  0.30145736  0.49255335  0.69146740  1
  Sc  Sc92  1  0.49333832  0.29570123  0.49215732  1
  Sc  Sc93  1  0.29207678  0.68818160  0.69082443  1
  Sc  Sc94  1  0.50439783  0.10652735  0.10018545  1
  Sc  Sc95  1  0.69915067  0.29912119  0.89415792  1
  Sc  Sc96  1  0.49071991  0.49918150  0.69100556  1
  Sc  Sc97  1  0.69953068  0.90014347  0.49929446  1
  Sc  Sc98  1  0.50901056  0.69886751  0.50071838  1
  Sc  Sc99  1  0.09470023  0.09514157  0.09400463  1
  Nb  Nb100  1  0.09381957  0.50456266  0.29862509  1
  Nb  Nb101  1  0.29841962  0.69746129  0.10253967  1
  Nb  Nb102  1  0.70018185  0.10072521  0.09766768  1
  Nb  Nb103  1  0.30836594  0.30387483  0.88461393  1
  Nb  Nb104  1  0.10667980  0.49791769  0.90589571  1
  Nb  Nb105  1  0.90338514  0.50001230  0.30022221  1
  Nb  Nb106  1  0.89587275  0.89677844  0.09597796  1
  Nb  Nb107  1  0.09640616  0.69226013  0.30150920  1
  Nb  Nb108  1  0.10186795  0.09775277  0.89967216  1
  Nb  Nb109  1  0.49998063  0.49326131  0.49655960  1
  Nb  Nb110  1  0.70276325  0.10216408  0.90697576  1
  Nb  Nb111  1  0.29454704  0.49258049  0.90193565  1
  Nb  Nb112  1  0.10319665  0.29765694  0.10110724  1
  Nb  Nb113  1  0.10724665  0.69718777  0.49601177  1
  Nb  Nb114  1  0.49074627  0.30395351  0.90534388  1
  Nb  Nb115  1  0.50317174  0.09999313  0.30708676  1
  Nb  Nb116  1  0.10537472  0.91751238  0.89444334  1
  Nb  Nb117  1  0.29217405  0.09924671  0.90429585  1
  Nb  Nb118  1  0.50507691  0.49830637  0.31280726  1
  Nb  Nb119  1  0.89705149  0.69849343  0.90140500  1
  Nb  Nb120  1  0.29860567  0.30069417  0.70554317  1
  Nb  Nb121  1  0.31070505  0.50340976  0.50485193  1
  Nb  Nb122  1  0.10578246  0.49475348  0.09970305  1
  Nb  Nb123  1  0.29922560  0.69352597  0.50052882  1
  Nb  Nb124  1  0.49644677  0.29771126  0.09157126  1
  Nb  Nb125  1  0.59710994  0.39592899  0.59755399  1
  Nb  Nb126  1  0.39725233  0.80157602  0.60117213  1
  Nb  Nb127  1  0.00633591  0.79340386  0.39856753  1
  Nb  Nb128  1  0.39154731  -0.00666845  0.59915580  1
  Nb  Nb129  1  0.39784289  0.59755127  0.80705255  1
  Nb  Nb130  1  0.39319386  0.79199652  0.80255087  1
  Nb  Nb131  1  0.00555735  0.40049092  0.19906549  1
  Nb  Nb132  1  0.00541596  0.60449794  0.59050123  1
  Nb  Nb133  1  0.00804431  0.39747532  0.80693203  1
  Nb  Nb134  1  0.39507434  0.79733785  0.00083289  1
  Nb  Nb135  1  0.19719153  0.59878018  0.20140703  1
  Nb  Nb136  1  0.00515687  0.40123159  0.00334069  1
  Nb  Nb137  1  0.40286732  0.59396317  0.40632168  1
  Nb  Nb138  1  0.80618003  0.40862311  0.00354651  1
  Nb  Nb139  1  0.79999203  0.40519326  0.39445594  1
  Nb  Nb140  1  0.80336501  0.59498901  0.39496506  1
  Nb  Nb141  1  0.20581805  0.19907577  -0.00247308  1
  Nb  Nb142  1  0.20523885  -0.00010398  0.59642372  1
  Nb  Nb143  1  0.00812629  0.20464796  0.80436718  1
  Nb  Nb144  1  0.00559088  0.20662257  0.20035467  1
  Nb  Nb145  1  0.80308769  0.60326919  -0.00384553  1
  Nb  Nb146  1  0.59861017  0.59542079  0.80084888  1
  Nb  Nb147  1  0.59140379  0.80449822  0.00496872  1
  Nb  Nb148  1  0.79757878  0.60166218  0.80297630  1
  Nb  Nb149  1  0.79483411  -0.00400884  0.00351908  1
  Pd  Pd150  1  0.21050798  0.59810417  0.39435209  1
  Pd  Pd151  1  0.19415039  0.79443200  0.80865100  1
  Pd  Pd152  1  0.80475941  0.00634385  0.19566180  1
  Pd  Pd153  1  0.60502791  -0.00311203  0.00452050  1
  Pd  Pd154  1  0.59647061  0.00592265  0.20644420  1
  Pd  Pd155  1  0.59889919  0.20041649  0.39841349  1
  Pd  Pd156  1  0.00092495  0.00484187  0.59816596  1
  Pd  Pd157  1  0.39847389  0.00484106  0.40453278  1
  Pd  Pd158  1  -0.00189261  0.59591112  0.01350271  1
  Pd  Pd159  1  -0.00784951  0.60630184  0.40504185  1
  Pd  Pd160  1  0.79922451  0.00705108  0.59556849  1
  Pd  Pd161  1  0.58526625  0.40461283  0.79307430  1
  Pd  Pd162  1  0.19991820  0.40622572  0.20367356  1
  Pd  Pd163  1  0.80989486  0.79039704  0.38793886  1
  Pd  Pd164  1  -0.00317849  0.20063801  0.60718303  1
  Pd  Pd165  1  0.01275113  0.80921820  -0.01408126  1
  Pd  Pd166  1  -0.00933913  -0.00692091  -0.00550524  1
  Pd  Pd167  1  0.39050843  0.20484233  -0.00207441  1
  Pd  Pd168  1  0.80385285  0.00955246  0.80818288  1
  Pd  Pd169  1  0.80549000  0.40153266  0.19617753  1
  Pd  Pd170  1  0.59652578  0.20529928  0.59883592  1
  Pd  Pd171  1  0.00541034  0.79641027  0.59598714  1
  Pd  Pd172  1  0.19575463  0.40808762  0.59606577  1
  Pd  Pd173  1  0.79274279  0.79237001  0.79060940  1
  Pd  Pd174  1  0.19331255  0.79068003  0.20480001  1
  Pd  Pd175  1  0.40174855  0.18967850  0.80577415  1
  Pd  Pd176  1  0.59977077  0.01377565  0.79930161  1
  Pd  Pd177  1  0.40936215  0.19480222  0.20577281  1
  Pd  Pd178  1  0.20044088  0.20351049  0.40714372  1
  Pd  Pd179  1  0.39343369  0.00571302  0.79162548  1
  Pd  Pd180  1  0.20656884  0.59087313  0.79508531  1
  Pd  Pd181  1  0.60966604  0.38766900  0.00867096  1
  Pd  Pd182  1  0.60318978  0.20915884  -0.00413342  1
  Pd  Pd183  1  0.59654014  0.79389334  0.80172110  1
  Pd  Pd184  1  0.40589486  0.00834341  0.20520560  1
  Pd  Pd185  1  0.19837657  0.79544142  0.39079981  1
  Pd  Pd186  1  0.20528401  0.80443862  0.59467241  1
  Pd  Pd187  1  0.00949626  0.80066848  0.80669621  1
  Pd  Pd188  1  0.40272523  0.79783278  0.19584895  1
  Pd  Pd189  1  0.20943105  0.00735304  0.40587178  1
  Pd  Pd190  1  0.79214594  0.39331025  0.58618544  1
  Pd  Pd191  1  0.20849561  0.39015350  0.00272840  1
  Pd  Pd192  1  0.59885195  0.59226250  0.60484117  1
  Pd  Pd193  1  -0.00599854  0.00557875  0.19952732  1
  Pd  Pd194  1  0.59110113  0.39436806  0.19327109  1
  Pd  Pd195  1  -0.00739659  -0.00744437  0.39502463  1
  Pd  Pd196  1  0.40891050  0.40197554  0.20006541  1
  Pd  Pd197  1  0.80155644  0.19524310  0.59825272  1
  Pd  Pd198  1  0.80706434  0.60142815  0.60177223  1
  Pd  Pd199  1  0.59576164  0.19628809  0.80883046  1
  Rh  Rh200  1  0.01054206  0.40627480  0.60914464  1
  Rh  Rh201  1  0.19141177  0.18757763  0.19086451  1
  Rh  Rh202  1  0.40227978  0.19990633  0.60046777  1
  Rh  Rh203  1  0.78777566  0.80135635  0.00444682  1
  Rh  Rh204  1  0.79760280  0.80654433  0.60710617  1
  Rh  Rh205  1  0.20798322  0.01097987  0.79118849  1
  Rh  Rh206  1  0.39719050  0.59461178  0.21371715  1
  Rh  Rh207  1  0.59944127  0.60468146  0.39814753  1
  Rh  Rh208  1  0.60734335  0.39094930  0.40644626  1
  Rh  Rh209  1  0.79585517  0.60668087  0.20076692  1
  Rh  Rh210  1  0.01252191  0.59743776  0.19163147  1
  Rh  Rh211  1  0.20741702  0.40173132  0.40549168  1
  Rh  Rh212  1  -0.00482838  0.59686416  0.78484988  1
  Rh  Rh213  1  0.40522157  0.19843198  0.39430055  1
  Rh  Rh214  1  0.58997886  0.80102335  0.19689344  1
  Rh  Rh215  1  0.80274751  0.79607110  0.20329440  1
  Rh  Rh216  1  -0.00326588  0.39453930  0.39019018  1
  Rh  Rh217  1  0.19580511  0.00297605  0.19617702  1
  Rh  Rh218  1  0.40442373  0.78630820  0.41109477  1
  Rh  Rh219  1  0.39619081  -0.00261103  0.00227043  1
  Rh  Rh220  1  0.20160425  0.40681765  0.79587163  1
  Rh  Rh221  1  0.40613264  0.39012259  0.59985264  1
  Rh  Rh222  1  0.58905255  0.59723324  0.20730732  1
  Rh  Rh223  1  0.01728397  0.20907972  -0.00430496  1
  Rh  Rh224  1  0.81526449  0.40562778  0.81200056  1
  Rh  Rh225  1  0.59366646  0.19740802  0.19916357  1
  Rh  Rh226  1  0.59440401  0.00104171  0.59937374  1
  Rh  Rh227  1  0.59942028  0.80158311  0.39977931  1
  Rh  Rh228  1  0.19934491  0.19639891  0.80791142  1
  Rh  Rh229  1  0.80535550  0.19003650  0.19816132  1
  Rh  Rh230  1  0.19172307  0.59280438  0.59281008  1
  Rh  Rh231  1  0.00325187  0.20267849  0.39343663  1
  Rh  Rh232  1  0.19428361  0.80314532  -0.00492232  1
  Rh  Rh233  1  0.19431601  0.00303506  0.00687517  1
  Rh  Rh234  1  0.79907319  -0.00131061  0.39910260  1
  Rh  Rh235  1  0.19510812  0.59871629  0.01069692  1
  Rh  Rh236  1  0.38981924  0.38904685  0.00642506  1
  Rh  Rh237  1  0.39807742  0.40146789  0.40231633  1
  Rh  Rh238  1  0.40225062  0.60725227  0.59518823  1
  Rh  Rh239  1  0.00356914  0.80442864  0.20582711  1
  Rh  Rh240  1  -0.00783386  0.00619242  0.80862413  1
  Rh  Rh241  1  0.80478142  0.19542142  0.80101245  1
  Rh  Rh242  1  0.79873548  0.20351898  0.40022161  1
  Rh  Rh243  1  0.39885206  0.41043692  0.79871735  1
  Rh  Rh244  1  0.59634839  0.81019540  0.59707621  1
  Rh  Rh245  1  0.20150019  0.19781127  0.59371625  1
  Rh  Rh246  1  0.61235161  0.60883870  -0.00355402  1
  Rh  Rh247  1  0.78995902  0.19907991  0.00127615  1
  Rh  Rh248  1  0.39262807  0.60095984  -0.00515231  1
  Rh  Rh249  1  0.60263256  0.00165889  0.39473903  1
