# generated using pymatgen
data_ZrScNbPdRh
_symmetry_space_group_name_H-M   'P 1'
_cell_length_a   16.55408853
_cell_length_b   16.55308667
_cell_length_c   16.55216687
_cell_angle_alpha   89.99230934
_cell_angle_beta   90.00913049
_cell_angle_gamma   90.01358267
_symmetry_Int_Tables_number   1
_chemical_formula_structural   ZrScNbPdRh
_chemical_formula_sum   'Zr50 Sc50 Nb50 Pd50 Rh50'
_cell_volume   4535.64543209
_cell_formula_units_Z   50
loop_
 _symmetry_equiv_pos_site_id
 _symmetry_equiv_pos_as_xyz
  1  'x, y, z'
loop_
 _atom_site_type_symbol
 _atom_site_label
 _atom_site_symmetry_multiplicity
 _atom_site_fract_x
 _atom_site_fract_y
 _atom_site_fract_z
 _atom_site_occupancy
  Zr  Zr0  1  0.90825057  0.69634442  0.29781723  1
  Zr  Zr1  1  0.49913746  0.90192126  0.49804819  1
  Zr  Zr2  1  0.29617515  0.50480070  0.90127871  1
  Zr  Zr3  1  0.70508778  0.49379842  0.10552139  1
  Zr  Zr4  1  0.71431470  0.70120165  0.70302684  1
  Zr  Zr5  1  0.09474503  0.09815614  0.88975599  1
  Zr  Zr6  1  0.30207742  0.09905024  0.90430894  1
  Zr  Zr7  1  0.29688986  0.50191297  0.49837007  1
  Zr  Zr8  1  0.70247355  0.70136471  0.89792226  1
  Zr  Zr9  1  0.50176907  0.89834015  0.30016492  1
  Zr  Zr10  1  0.70597303  0.10360462  0.50100288  1
  Zr  Zr11  1  0.89809468  0.10076913  0.89811570  1
  Zr  Zr12  1  0.69470495  0.70120130  0.29877167  1
  Zr  Zr13  1  0.71495313  0.10887098  0.30526341  1
  Zr  Zr14  1  0.09248506  0.70552092  0.89186466  1
  Zr  Zr15  1  0.29937261  0.50399554  0.09140732  1
  Zr  Zr16  1  0.48416007  0.29300850  0.49664234  1
  Zr  Zr17  1  0.49163172  0.69719278  0.50381380  1
  Zr  Zr18  1  0.49960758  0.09811960  0.50150636  1
  Zr  Zr19  1  0.10311174  0.09644144  0.69078182  1
  Zr  Zr20  1  0.69386675  0.10093192  0.09477298  1
  Zr  Zr21  1  0.69737494  0.10158973  0.69968578  1
  Zr  Zr22  1  0.29519598  0.09351319  0.70723605  1
  Zr  Zr23  1  0.49836092  0.50215869  0.69468936  1
  Zr  Zr24  1  0.09286092  0.10143590  0.29107325  1
  Zr  Zr25  1  0.89161905  0.70349553  0.89480068  1
  Zr  Zr26  1  0.50078541  0.29977074  0.30085734  1
  Zr  Zr27  1  0.30160897  0.29824043  0.30782420  1
  Zr  Zr28  1  0.28880062  0.30455951  0.50148015  1
  Zr  Zr29  1  0.30242389  0.10064797  0.10132502  1
  Zr  Zr30  1  0.08829812  0.89993075  0.10613769  1
  Zr  Zr31  1  0.10557988  0.89557274  0.30394610  1
  Zr  Zr32  1  0.09527387  0.29953170  0.30408106  1
  Zr  Zr33  1  0.89754080  0.69527204  0.10166409  1
  Zr  Zr34  1  0.90750736  0.89836271  0.89644612  1
  Zr  Zr35  1  0.29790779  0.70482658  0.68576017  1
  Zr  Zr36  1  0.29928029  0.49610650  0.70190393  1
  Zr  Zr37  1  0.49880821  0.70100617  0.90242054  1
  Zr  Zr38  1  0.49458184  0.50415538  0.88775692  1
  Zr  Zr39  1  0.09312049  0.90061535  0.50627500  1
  Zr  Zr40  1  0.30083990  0.50588911  0.30702404  1
  Zr  Zr41  1  0.69935627  0.70062013  0.09277153  1
  Zr  Zr42  1  0.29333428  0.30180832  0.89757082  1
  Zr  Zr43  1  0.69945962  0.69965870  0.50506173  1
  Zr  Zr44  1  0.29355676  0.29501099  0.69616414  1
  Zr  Zr45  1  0.70097141  0.30320630  0.29323312  1
  Zr  Zr46  1  0.29645771  0.70357975  0.31164430  1
  Zr  Zr47  1  0.30117478  0.90285015  0.30782921  1
  Zr  Zr48  1  0.90064283  0.49222842  0.50532333  1
  Zr  Zr49  1  0.70943824  0.90539004  0.69684637  1
  Sc  Sc50  1  0.90928824  0.69896540  0.70085832  1
  Sc  Sc51  1  0.70446510  0.50571873  0.69517524  1
  Sc  Sc52  1  0.50425096  0.70459952  0.09774463  1
  Sc  Sc53  1  0.30458635  0.69603271  0.09198762  1
  Sc  Sc54  1  0.30364180  0.69636325  0.90551986  1
  Sc  Sc55  1  0.10496622  0.89799421  0.70463154  1
  Sc  Sc56  1  0.70734120  0.50043806  0.50521973  1
  Sc  Sc57  1  0.30141388  0.10381946  0.50513924  1
  Sc  Sc58  1  0.71244469  0.90198403  0.50024951  1
  Sc  Sc59  1  0.10066170  0.49506997  0.49952362  1
  Sc  Sc60  1  0.70543029  0.29390672  0.10089481  1
  Sc  Sc61  1  0.09533190  0.70037490  0.10866417  1
  Sc  Sc62  1  0.10427603  0.49557666  0.89779813  1
  Sc  Sc63  1  0.10325085  0.29783674  0.69854181  1
  Sc  Sc64  1  0.49881870  0.30063786  0.70621267  1
  Sc  Sc65  1  0.29696439  0.29136991  0.09622075  1
  Sc  Sc66  1  0.50903766  0.28705035  0.10570514  1
  Sc  Sc67  1  0.89883683  0.48445636  0.89580730  1
  Sc  Sc68  1  0.70107853  0.10387014  0.89794409  1
  Sc  Sc69  1  0.90182114  0.89485601  0.31091342  1
  Sc  Sc70  1  0.69898329  0.29817394  0.70642331  1
  Sc  Sc71  1  0.30478343  0.88939781  0.49629041  1
  Sc  Sc72  1  0.90337523  0.49861726  0.29048147  1
  Sc  Sc73  1  0.71768522  0.30033478  0.49758708  1
  Sc  Sc74  1  0.30142372  0.91062142  0.89773608  1
  Sc  Sc75  1  0.49434650  0.09884992  0.69680554  1
  Sc  Sc76  1  0.10109934  0.49953609  0.09445371  1
  Sc  Sc77  1  0.09505210  0.30023188  0.88992362  1
  Sc  Sc78  1  0.09370335  0.29276154  0.10092766  1
  Sc  Sc79  1  0.90931814  0.10993400  0.10429347  1
  Sc  Sc80  1  0.50552007  0.51067183  0.10850907  1
  Sc  Sc81  1  0.49310121  0.91139749  0.68949064  1
  Sc  Sc82  1  0.90035043  0.29447457  0.29440257  1
  Sc  Sc83  1  0.89908585  0.49909037  0.69934351  1
  Sc  Sc84  1  0.50990331  0.90681043  0.09662716  1
  Sc  Sc85  1  0.70370397  0.29230476  0.90252659  1
  Sc  Sc86  1  0.91140780  0.70981290  0.50342327  1
  Sc  Sc87  1  0.09471303  0.50318899  0.30649293  1
  Sc  Sc88  1  0.09268094  0.49712902  0.70019581  1
  Sc  Sc89  1  0.09669255  0.70254217  0.30603908  1
  Sc  Sc90  1  0.89629251  0.11106355  0.50244830  1
  Sc  Sc91  1  0.70895101  0.89652885  0.90237633  1
  Sc  Sc92  1  0.49464724  0.69000891  0.69564303  1
  Sc  Sc93  1  0.30180218  0.90375765  0.10248544  1
  Sc  Sc94  1  0.70071246  0.50424804  0.89394660  1
  Sc  Sc95  1  0.69866794  0.89945217  0.30494588  1
  Sc  Sc96  1  0.50417207  0.69158494  0.30347999  1
  Sc  Sc97  1  0.50447017  0.09843625  0.91026361  1
  Sc  Sc98  1  0.89598495  0.09572026  0.70233848  1
  Sc  Sc99  1  0.49031763  0.10219064  0.29969949  1
  Nb  Nb100  1  0.90389816  0.30124472  0.50741355  1
  Nb  Nb101  1  0.50697886  0.30018563  0.89739745  1
  Nb  Nb102  1  0.90348455  0.90313779  0.50296400  1
  Nb  Nb103  1  0.09252850  0.10290621  0.50126564  1
  Nb  Nb104  1  0.70065891  0.90153797  0.10587440  1
  Nb  Nb105  1  0.29680949  0.69637322  0.49650345  1
  Nb  Nb106  1  0.09804264  0.90009174  0.90300487  1
  Nb  Nb107  1  0.10106107  0.09782396  0.10269973  1
  Nb  Nb108  1  0.10536471  0.69941379  0.50987774  1
  Nb  Nb109  1  0.90001529  0.89668774  0.69074245  1
  Nb  Nb110  1  0.90206758  0.49681126  0.09503325  1
  Nb  Nb111  1  0.69282292  0.49924788  0.29801900  1
  Nb  Nb112  1  0.89440042  0.30849097  0.08536722  1
  Nb  Nb113  1  0.50743249  0.50006206  0.29864849  1
  Nb  Nb114  1  0.89732898  0.29802864  0.90465170  1
  Nb  Nb115  1  0.90063296  0.10166254  0.30319174  1
  Nb  Nb116  1  0.50164765  0.50156963  0.50080321  1
  Nb  Nb117  1  0.50206918  0.09328647  0.09432107  1
  Nb  Nb118  1  0.30339289  0.90203332  0.70809050  1
  Nb  Nb119  1  0.09894487  0.70020054  0.69623503  1
  Nb  Nb120  1  0.89750704  0.30793506  0.69955714  1
  Nb  Nb121  1  0.89716351  0.89558461  0.09852889  1
  Nb  Nb122  1  0.29352310  0.09590668  0.30217233  1
  Nb  Nb123  1  0.09343126  0.29016113  0.49986637  1
  Nb  Nb124  1  0.49850366  0.90421858  0.89793842  1
  Nb  Nb125  1  0.20565043  0.40311963  0.20350225  1
  Nb  Nb126  1  0.19633678  0.60828741  0.79297122  1
  Nb  Nb127  1  0.60152849  0.80184557  0.60582137  1
  Nb  Nb128  1  0.79914403  0.80344843  0.19577108  1
  Nb  Nb129  1  0.39894285  0.40249974  0.19780456  1
  Nb  Nb130  1  0.80394344  -0.00260104  0.19786544  1
  Nb  Nb131  1  0.80057605  0.59867881  0.39608622  1
  Nb  Nb132  1  0.18736780  0.00042847  0.00277960  1
  Nb  Nb133  1  0.60314555  0.00615845  0.40272552  1
  Nb  Nb134  1  0.59880076  -0.00666303  0.80074839  1
  Nb  Nb135  1  0.19077884  0.19387451  0.40165605  1
  Nb  Nb136  1  0.59927725  0.20507570  0.59598012  1
  Nb  Nb137  1  0.40967412  0.39729749  0.00088185  1
  Nb  Nb138  1  0.39826525  0.20042079  0.80771139  1
  Nb  Nb139  1  -0.00775175  0.59728873  -0.00085852  1
  Nb  Nb140  1  0.59923610  0.40320871  0.40138205  1
  Nb  Nb141  1  0.59446147  0.39897532  -0.00295834  1
  Nb  Nb142  1  0.40282276  0.80641249  0.79649612  1
  Nb  Nb143  1  -0.00135151  0.00598789  0.40482439  1
  Nb  Nb144  1  0.20328574  0.59660397  0.20271100  1
  Nb  Nb145  1  0.80442320  -0.00296207  0.00950971  1
  Nb  Nb146  1  0.19270406  0.80822975  -0.00253430  1
  Nb  Nb147  1  0.59373648  0.80603346  0.79492918  1
  Nb  Nb148  1  0.40163023  0.80110963  0.20458589  1
  Nb  Nb149  1  0.59666807  0.39649534  0.59106206  1
  Pd  Pd150  1  -0.00627279  0.39698805  0.40016912  1
  Pd  Pd151  1  0.20939636  0.79718057  0.80805353  1
  Pd  Pd152  1  0.20982244  0.79159287  0.19110008  1
  Pd  Pd153  1  0.18713691  0.19544558  -0.00552703  1
  Pd  Pd154  1  0.39826232  0.20098689  0.19993208  1
  Pd  Pd155  1  0.80562176  0.58800740  -0.00755297  1
  Pd  Pd156  1  0.20071081  -0.00192312  0.19549564  1
  Pd  Pd157  1  0.79548654  0.60178328  0.20536363  1
  Pd  Pd158  1  0.39695921  0.39287380  0.80361215  1
  Pd  Pd159  1  0.20656958  -0.00699558  0.59277047  1
  Pd  Pd160  1  -0.00305911  0.00663085  0.00321639  1
  Pd  Pd161  1  0.19398072  0.59128304  0.60397187  1
  Pd  Pd162  1  0.20083591  0.20463773  0.20572759  1
  Pd  Pd163  1  0.20121242  0.80942105  0.59667614  1
  Pd  Pd164  1  -0.00978592  -0.00633516  0.20962285  1
  Pd  Pd165  1  0.80176705  0.40460403  0.39241533  1
  Pd  Pd166  1  0.19638388  0.39017403  0.00661288  1
  Pd  Pd167  1  0.19486134  0.00623192  0.40901671  1
  Pd  Pd168  1  0.60712317  0.00933856  0.21244870  1
  Pd  Pd169  1  0.80583657  0.20409631  0.79646870  1
  Pd  Pd170  1  -0.00600617  0.20489462  0.78972994  1
  Pd  Pd171  1  0.00634644  0.40170668  -0.00481655  1
  Pd  Pd172  1  0.81465282  0.60698349  0.59323272  1
  Pd  Pd173  1  0.60252170  0.80909659  -0.00542991  1
  Pd  Pd174  1  0.60391145  0.20435773  0.40495985  1
  Pd  Pd175  1  0.60006261  0.18938777  0.20404659  1
  Pd  Pd176  1  0.00098095  0.79047931  0.00282658  1
  Pd  Pd177  1  -0.00379120  0.59917508  0.41065250  1
  Pd  Pd178  1  0.00561889  0.39763139  0.60411437  1
  Pd  Pd179  1  0.60863026  0.40274579  0.79764736  1
  Pd  Pd180  1  0.00494493  0.39887668  0.19604208  1
  Pd  Pd181  1  0.80634967  0.39669611  0.19994151  1
  Pd  Pd182  1  0.40675005  0.40893260  0.39650459  1
  Pd  Pd183  1  0.39724846  0.60522135  0.20103089  1
  Pd  Pd184  1  0.59911350  0.59016325  -0.00038229  1
  Pd  Pd185  1  0.80778339  0.00567342  0.59592018  1
  Pd  Pd186  1  0.00226075  0.20069819  -0.00205480  1
  Pd  Pd187  1  0.79353908  0.39956872  0.79942421  1
  Pd  Pd188  1  0.39422091  0.81069568  0.00089112  1
  Pd  Pd189  1  -0.00059037  -0.00607205  0.78835683  1
  Pd  Pd190  1  0.60139925  0.80514152  0.40976768  1
  Pd  Pd191  1  0.00067361  0.59240218  0.80537463  1
  Pd  Pd192  1  -0.00853202  0.19988525  0.61105915  1
  Pd  Pd193  1  0.40254025  -0.00417054  0.19732747  1
  Pd  Pd194  1  0.38702295  -0.00202205  0.59387270  1
  Pd  Pd195  1  0.40948219  0.20543592  -0.00211683  1
  Pd  Pd196  1  0.40184807  0.39885756  0.60055758  1
  Pd  Pd197  1  0.60630560  0.59324428  0.40840787  1
  Pd  Pd198  1  0.60255619  0.60827994  0.79131532  1
  Pd  Pd199  1  0.80342995  0.79237239  0.39737443  1
  Rh  Rh200  1  0.79986872  0.20698269  0.60838009  1
  Rh  Rh201  1  0.19594480  0.40724352  0.79510611  1
  Rh  Rh202  1  0.79439568  0.39423343  0.60821987  1
  Rh  Rh203  1  0.80559466  0.00084882  0.39624204  1
  Rh  Rh204  1  0.19169684  0.39941434  0.59837049  1
  Rh  Rh205  1  0.39787626  -0.00226126  0.00649031  1
  Rh  Rh206  1  0.00692347  0.80359058  0.40480227  1
  Rh  Rh207  1  0.40228888  0.00485008  0.40143498  1
  Rh  Rh208  1  0.79789433  0.80616778  0.00536267  1
  Rh  Rh209  1  0.20220980  0.19628389  0.80118474  1
  Rh  Rh210  1  0.60672040  0.00243917  0.59723252  1
  Rh  Rh211  1  0.38580191  0.61207248  0.79475428  1
  Rh  Rh212  1  -0.00276250  0.39335071  0.79812085  1
  Rh  Rh213  1  0.38622691  0.18982932  0.39778117  1
  Rh  Rh214  1  0.39299959  0.59435925  0.59425560  1
  Rh  Rh215  1  -0.00337400  0.19689978  0.40110947  1
  Rh  Rh216  1  0.40334131  0.59831183  0.40342086  1
  Rh  Rh217  1  0.40580229  0.79284511  0.39476025  1
  Rh  Rh218  1  0.00243537  0.59865773  0.59686093  1
  Rh  Rh219  1  -0.00824767  0.80486805  0.20663162  1
  Rh  Rh220  1  0.60530507  0.60525840  0.19522436  1
  Rh  Rh221  1  0.80893989  0.59489284  0.80148180  1
  Rh  Rh222  1  0.60161464  0.59988549  0.60094463  1
  Rh  Rh223  1  0.80468193  0.19366552  0.00329203  1
  Rh  Rh224  1  0.80403249  0.79724353  0.59869450  1
  Rh  Rh225  1  0.81183516  0.21098078  0.40073558  1
  Rh  Rh226  1  0.59866796  0.20451560  -0.00108619  1
  Rh  Rh227  1  0.80760252  0.19852955  0.19232046  1
  Rh  Rh228  1  0.00966043  0.59016313  0.19152290  1
  Rh  Rh229  1  0.19038542  0.60652463  0.40057811  1
  Rh  Rh230  1  0.18201229  0.61787394  -0.00382125  1
  Rh  Rh231  1  -0.00300451  0.80773862  0.78957543  1
  Rh  Rh232  1  0.80525272  0.80676070  0.79419112  1
  Rh  Rh233  1  0.19329979  0.79661497  0.41099472  1
  Rh  Rh234  1  -0.00577123  0.20753216  0.19446849  1
  Rh  Rh235  1  0.61053620  -0.00259019  -0.00893356  1
  Rh  Rh236  1  0.41242575  0.59232618  0.00016706  1
  Rh  Rh237  1  0.59861808  0.79493299  0.19714082  1
  Rh  Rh238  1  0.40155661  0.20190094  0.61197794  1
  Rh  Rh239  1  -0.00708517  0.00294030  0.59809978  1
  Rh  Rh240  1  0.40388133  0.80381714  0.60495037  1
  Rh  Rh241  1  0.19030481  0.39253219  0.39975491  1
  Rh  Rh242  1  0.78977083  0.39923797  -0.00308859  1
  Rh  Rh243  1  0.59379882  0.39921808  0.19794656  1
  Rh  Rh244  1  0.19430183  -0.00280120  0.80575515  1
  Rh  Rh245  1  0.40829286  0.00461426  0.80354093  1
  Rh  Rh246  1  0.79814447  -0.00431074  0.80893076  1
  Rh  Rh247  1  0.00187894  0.80127507  0.60572880  1
  Rh  Rh248  1  0.19670415  0.19685326  0.59344434  1
  Rh  Rh249  1  0.58969104  0.18729513  0.79481211  1
