# generated using pymatgen
data_ZrScNbPdRh
_symmetry_space_group_name_H-M   'P 1'
_cell_length_a   16.56430975
_cell_length_b   16.56182106
_cell_length_c   16.56875438
_cell_angle_alpha   90.00710138
_cell_angle_beta   90.02283347
_cell_angle_gamma   89.99500836
_symmetry_Int_Tables_number   1
_chemical_formula_structural   ZrScNbPdRh
_chemical_formula_sum   'Zr50 Sc50 Nb50 Pd50 Rh50'
_cell_volume   4545.39104256
_cell_formula_units_Z   50
loop_
 _symmetry_equiv_pos_site_id
 _symmetry_equiv_pos_as_xyz
  1  'x, y, z'
loop_
 _atom_site_type_symbol
 _atom_site_label
 _atom_site_symmetry_multiplicity
 _atom_site_fract_x
 _atom_site_fract_y
 _atom_site_fract_z
 _atom_site_occupancy
  Zr  Zr0  1  0.50562466  0.29950211  0.11556975  1
  Zr  Zr1  1  0.49845970  0.50193540  0.89485088  1
  Zr  Zr2  1  0.90049630  0.89912057  0.30847220  1
  Zr  Zr3  1  0.89217266  0.10522991  0.49989961  1
  Zr  Zr4  1  0.69523350  0.70494885  0.89782852  1
  Zr  Zr5  1  0.89388269  0.29350957  0.10770484  1
  Zr  Zr6  1  0.30587591  0.89732764  0.29454312  1
  Zr  Zr7  1  0.49678169  0.69605018  0.71045637  1
  Zr  Zr8  1  0.90105347  0.10661562  0.29821943  1
  Zr  Zr9  1  0.90200296  0.70601294  0.49765504  1
  Zr  Zr10  1  0.30184439  0.30304916  0.89514376  1
  Zr  Zr11  1  0.29754904  0.90788352  0.70266713  1
  Zr  Zr12  1  0.09991451  0.30230656  0.90609433  1
  Zr  Zr13  1  0.29621986  0.70063623  0.29713422  1
  Zr  Zr14  1  0.30508588  0.49832466  0.69566071  1
  Zr  Zr15  1  0.70480521  0.90441220  0.89427704  1
  Zr  Zr16  1  0.89984715  0.69442938  0.30407200  1
  Zr  Zr17  1  0.10342206  0.48841808  0.50515967  1
  Zr  Zr18  1  0.29576586  0.09773738  0.10340149  1
  Zr  Zr19  1  0.89790682  0.10596591  0.69212896  1
  Zr  Zr20  1  0.90330450  0.48983462  0.70232222  1
  Zr  Zr21  1  0.70197901  0.70055862  0.30292464  1
  Zr  Zr22  1  0.69705245  0.48696861  0.69805694  1
  Zr  Zr23  1  0.69925127  0.09764373  0.50464183  1
  Zr  Zr24  1  0.70155573  0.09722021  0.30981121  1
  Zr  Zr25  1  0.10027641  0.89654398  0.89603035  1
  Zr  Zr26  1  0.50260180  0.50276442  0.09691762  1
  Zr  Zr27  1  0.29288863  0.89780793  0.90219460  1
  Zr  Zr28  1  0.69836023  0.50639221  0.10033763  1
  Zr  Zr29  1  0.09192085  0.30991250  0.68958828  1
  Zr  Zr30  1  0.30000119  0.89030384  0.10471422  1
  Zr  Zr31  1  0.09501495  0.30092695  0.30542995  1
  Zr  Zr32  1  0.29464248  0.29715215  0.10146184  1
  Zr  Zr33  1  0.10459226  0.09801743  0.69588280  1
  Zr  Zr34  1  0.10528654  0.49689548  0.30019728  1
  Zr  Zr35  1  0.90485876  0.90253253  0.89882458  1
  Zr  Zr36  1  0.50243305  0.69939893  0.09877573  1
  Zr  Zr37  1  0.10024031  0.10438330  0.09785440  1
  Zr  Zr38  1  0.89626437  0.30149992  0.89306602  1
  Zr  Zr39  1  0.90267847  0.50011776  0.89653468  1
  Zr  Zr40  1  0.09834502  0.09746390  0.90427108  1
  Zr  Zr41  1  0.89103612  0.09421957  0.89489468  1
  Zr  Zr42  1  0.89704130  0.30001033  0.29788260  1
  Zr  Zr43  1  0.70546437  0.69428636  0.09448356  1
  Zr  Zr44  1  0.69852491  0.70665715  0.49550288  1
  Zr  Zr45  1  0.70012267  0.49895851  0.89982937  1
  Zr  Zr46  1  0.29804121  0.09473413  0.29882852  1
  Zr  Zr47  1  0.69690633  0.30557562  0.50286153  1
  Zr  Zr48  1  0.09538633  0.50505765  0.70067142  1
  Zr  Zr49  1  0.30045191  0.30307256  0.50247618  1
  Sc  Sc50  1  0.29880423  0.68646171  0.51649238  1
  Sc  Sc51  1  0.69563419  0.49257353  0.49760184  1
  Sc  Sc52  1  0.10469304  0.10688470  0.30091932  1
  Sc  Sc53  1  0.29701594  0.50125565  0.89486731  1
  Sc  Sc54  1  0.89517619  0.89464595  0.50446827  1
  Sc  Sc55  1  0.50989893  0.90718545  0.49974914  1
  Sc  Sc56  1  0.29261371  0.49812573  0.10364795  1
  Sc  Sc57  1  0.29846918  0.70191748  0.90106478  1
  Sc  Sc58  1  0.50738407  0.90297226  0.29761114  1
  Sc  Sc59  1  0.49906272  0.30241862  0.49757860  1
  Sc  Sc60  1  0.51383168  0.70604348  0.30264346  1
  Sc  Sc61  1  0.10107100  0.70197129  0.89514593  1
  Sc  Sc62  1  0.49949786  0.49433736  0.50761807  1
  Sc  Sc63  1  0.29844106  0.49730702  0.50741835  1
  Sc  Sc64  1  0.70906580  0.09631993  0.69475199  1
  Sc  Sc65  1  0.29381414  0.10067012  0.90170928  1
  Sc  Sc66  1  0.90387142  0.10170246  0.10136876  1
  Sc  Sc67  1  0.90835232  0.70250280  0.69622681  1
  Sc  Sc68  1  0.10554807  0.89630993  0.50835054  1
  Sc  Sc69  1  0.89625550  0.51178661  0.10131550  1
  Sc  Sc70  1  0.70424843  0.90691903  0.49886575  1
  Sc  Sc71  1  0.90249371  0.70431806  0.90629022  1
  Sc  Sc72  1  0.70373361  0.50103752  0.30101304  1
  Sc  Sc73  1  0.09405465  0.68769376  0.30541611  1
  Sc  Sc74  1  0.90625137  0.49997919  0.29837478  1
  Sc  Sc75  1  0.50050346  0.89737901  0.89542772  1
  Sc  Sc76  1  0.89341666  0.90131133  0.70263162  1
  Sc  Sc77  1  0.10532143  0.90224292  0.29883682  1
  Sc  Sc78  1  0.90534832  0.29643899  0.50221537  1
  Sc  Sc79  1  0.29955139  0.10106367  0.49170852  1
  Sc  Sc80  1  0.09698609  0.50028951  0.09999198  1
  Sc  Sc81  1  0.90695231  0.90404411  0.09024945  1
  Sc  Sc82  1  0.69726328  0.10336513  0.09380055  1
  Sc  Sc83  1  0.29564404  0.29499839  0.29223077  1
  Sc  Sc84  1  0.50002403  0.09860202  0.49719227  1
  Sc  Sc85  1  0.10060917  0.30010310  0.10220231  1
  Sc  Sc86  1  0.10083487  0.69832109  0.09258591  1
  Sc  Sc87  1  0.10105747  0.90006459  0.08990877  1
  Sc  Sc88  1  0.68920021  0.90680883  0.09323471  1
  Sc  Sc89  1  0.09635641  0.50277170  0.89840341  1
  Sc  Sc90  1  0.10377316  0.70226217  0.69672556  1
  Sc  Sc91  1  0.50804545  0.09171904  0.10513613  1
  Sc  Sc92  1  0.89595205  0.49102164  0.49879954  1
  Sc  Sc93  1  0.50469188  0.29250899  0.88266695  1
  Sc  Sc94  1  0.50685107  0.10094706  0.89883709  1
  Sc  Sc95  1  0.49579264  0.69578673  0.90074030  1
  Sc  Sc96  1  0.29856317  0.90845349  0.50405710  1
  Sc  Sc97  1  0.50063137  0.09838352  0.30116970  1
  Sc  Sc98  1  0.51434949  0.49881242  0.29113364  1
  Sc  Sc99  1  0.49847220  0.90035996  0.10807808  1
  Nb  Nb100  1  0.70085237  0.89969350  0.30330819  1
  Nb  Nb101  1  0.30342437  0.10386227  0.69318392  1
  Nb  Nb102  1  0.69763639  0.89548099  0.69676457  1
  Nb  Nb103  1  0.30849582  0.29879844  0.70027098  1
  Nb  Nb104  1  0.10162062  0.29518850  0.49752851  1
  Nb  Nb105  1  0.10704230  0.90486624  0.69978817  1
  Nb  Nb106  1  0.50080878  0.90552511  0.69887298  1
  Nb  Nb107  1  0.50030636  0.10046515  0.69886503  1
  Nb  Nb108  1  0.89796361  0.70175188  0.10483257  1
  Nb  Nb109  1  0.69142813  0.30153387  0.29227739  1
  Nb  Nb110  1  0.49672505  0.29967924  0.69951860  1
  Nb  Nb111  1  0.49981212  0.69980607  0.50365889  1
  Nb  Nb112  1  0.69505162  0.30210460  0.70764686  1
  Nb  Nb113  1  0.69989964  0.70426315  0.70066865  1
  Nb  Nb114  1  0.50552367  0.30534502  0.30008807  1
  Nb  Nb115  1  0.30282598  0.69673228  0.70129434  1
  Nb  Nb116  1  0.09923085  0.69786143  0.50294002  1
  Nb  Nb117  1  0.69443357  0.10040988  0.89710268  1
  Nb  Nb118  1  0.49748782  0.49360447  0.70118006  1
  Nb  Nb119  1  0.69722366  0.29331590  0.89816580  1
  Nb  Nb120  1  0.89280677  0.30200839  0.69779591  1
  Nb  Nb121  1  0.30622643  0.70692381  0.10309917  1
  Nb  Nb122  1  0.29997032  0.50491247  0.30040573  1
  Nb  Nb123  1  0.70133507  0.29905966  0.10118357  1
  Nb  Nb124  1  0.09650268  0.11078712  0.49990574  1
  Nb  Nb125  1  0.40118953  0.59875929  0.39661516  1
  Nb  Nb126  1  0.60182298  0.38968900  -0.00078401  1
  Nb  Nb127  1  0.20388489  0.20314088  0.60192706  1
  Nb  Nb128  1  0.00406349  0.00370589  0.59771111  1
  Nb  Nb129  1  0.60230963  0.00011715  0.79116443  1
  Nb  Nb130  1  0.79889539  -0.00567089  0.20441201  1
  Nb  Nb131  1  0.79268080  0.39240332  0.00036738  1
  Nb  Nb132  1  0.40220247  0.20146935  0.00452021  1
  Nb  Nb133  1  0.00172169  0.00585865  0.40862697  1
  Nb  Nb134  1  0.80247861  0.80397538  0.19894095  1
  Nb  Nb135  1  0.40675057  0.39249537  0.00097579  1
  Nb  Nb136  1  0.79770088  0.60198149  0.79262277  1
  Nb  Nb137  1  0.59656729  0.79927500  0.60700931  1
  Nb  Nb138  1  0.00091917  0.20237524  0.79553135  1
  Nb  Nb139  1  0.79411434  0.60192045  0.60446911  1
  Nb  Nb140  1  -0.00699313  0.79571505  0.19933919  1
  Nb  Nb141  1  0.40475010  0.80013952  0.60373518  1
  Nb  Nb142  1  0.39759932  0.60406589  0.20330828  1
  Nb  Nb143  1  0.39706942  0.00195115  0.00219890  1
  Nb  Nb144  1  0.60064248  0.60445164  0.60630497  1
  Nb  Nb145  1  0.40038647  0.40543300  0.38762641  1
  Nb  Nb146  1  0.39914970  0.79299818  0.40942141  1
  Nb  Nb147  1  0.20043673  0.20445211  0.79011512  1
  Nb  Nb148  1  0.59606239  0.20241646  0.61017385  1
  Nb  Nb149  1  0.20437853  0.79145265  0.40688278  1
  Pd  Pd150  1  0.40129121  0.20825385  0.39233121  1
  Pd  Pd151  1  0.59183915  0.20417576  0.00075067  1
  Pd  Pd152  1  0.60514723  0.19031561  0.20499136  1
  Pd  Pd153  1  0.79779073  0.19877587  0.79484904  1
  Pd  Pd154  1  -0.01124462  0.40067431  0.00922290  1
  Pd  Pd155  1  0.20417543  0.60127606  0.41187741  1
  Pd  Pd156  1  0.40496503  -0.00944676  0.39934560  1
  Pd  Pd157  1  0.00059604  0.58804959  0.41096907  1
  Pd  Pd158  1  -0.00635798  0.59646219  0.59369810  1
  Pd  Pd159  1  0.59468991  0.80436188  -0.00206670  1
  Pd  Pd160  1  0.40408586  0.00777531  0.80780796  1
  Pd  Pd161  1  0.80749347  0.79408903  0.79826417  1
  Pd  Pd162  1  0.39537700  0.18965622  0.80557495  1
  Pd  Pd163  1  0.19945475  0.60470012  0.19169063  1
  Pd  Pd164  1  0.79835496  0.00326762  0.00836786  1
  Pd  Pd165  1  0.80067835  0.80624335  0.00473907  1
  Pd  Pd166  1  -0.00117974  0.40261814  0.19423081  1
  Pd  Pd167  1  0.40121426  0.00019025  0.59472632  1
  Pd  Pd168  1  0.38906278  0.59386635  0.00544952  1
  Pd  Pd169  1  0.79749810  0.40693768  0.19751163  1
  Pd  Pd170  1  0.79547915  0.21152673  0.40066892  1
  Pd  Pd171  1  -0.00084527  0.00361694  0.79050402  1
  Pd  Pd172  1  0.19273527  -0.00476477  0.40590024  1
  Pd  Pd173  1  0.19335439  -0.00330310  0.19527548  1
  Pd  Pd174  1  0.20458467  0.60177175  0.00072340  1
  Pd  Pd175  1  -0.00075751  0.60402921  -0.00060549  1
  Pd  Pd176  1  0.40333447  0.19276148  0.20178010  1
  Pd  Pd177  1  0.59312794  0.59061640  0.40768085  1
  Pd  Pd178  1  0.39426623  0.80119162  0.79732806  1
  Pd  Pd179  1  0.20847597  0.39598714  0.39513884  1
  Pd  Pd180  1  0.20894821  0.79790574  0.60032284  1
  Pd  Pd181  1  0.80091939  0.59352785  0.40856441  1
  Pd  Pd182  1  0.20142488  0.60354356  0.79589647  1
  Pd  Pd183  1  0.39578031  0.40800877  0.20052129  1
  Pd  Pd184  1  0.40524722  0.80664167  -0.00264189  1
  Pd  Pd185  1  0.20266482  0.00734578  0.80183714  1
  Pd  Pd186  1  0.80066074  0.19825850  -0.00042675  1
  Pd  Pd187  1  0.19559358  0.39943365  0.79372385  1
  Pd  Pd188  1  0.60928671  0.80120508  0.19608068  1
  Pd  Pd189  1  0.18322773  0.79173707  0.20445634  1
  Pd  Pd190  1  0.20342259  0.40582165  -0.00021964  1
  Pd  Pd191  1  0.40299508  0.19699015  0.59337195  1
  Pd  Pd192  1  0.59646506  0.20215820  0.40690400  1
  Pd  Pd193  1  0.01387408  0.80663729  0.39801482  1
  Pd  Pd194  1  0.00242639  0.79894333  0.79354231  1
  Pd  Pd195  1  0.00325709  0.81056656  0.60664143  1
  Pd  Pd196  1  0.60495238  0.59661483  0.79674151  1
  Pd  Pd197  1  -0.00790188  0.19919386  -0.00488932  1
  Pd  Pd198  1  0.79880124  0.39468310  0.39585805  1
  Pd  Pd199  1  -0.00204701  -0.00584855  0.20532434  1
  Rh  Rh200  1  0.59756901  0.80912566  0.40812698  1
  Rh  Rh201  1  0.79511603  0.40086901  0.80470257  1
  Rh  Rh202  1  0.20205228  0.79860045  0.79396534  1
  Rh  Rh203  1  -0.00675752  0.39861646  0.59180053  1
  Rh  Rh204  1  0.60009359  0.60052234  -0.00593753  1
  Rh  Rh205  1  0.60139855  0.00374603  0.60511169  1
  Rh  Rh206  1  0.59964300  0.60535304  0.20045393  1
  Rh  Rh207  1  0.59910595  -0.00089812  0.39886230  1
  Rh  Rh208  1  0.79551211  0.80335576  0.39809520  1
  Rh  Rh209  1  0.20461782  -0.00509123  0.00453131  1
  Rh  Rh210  1  0.59581029  0.40101200  0.39512160  1
  Rh  Rh211  1  0.78947911  0.19006618  0.20198829  1
  Rh  Rh212  1  0.00226748  0.79782408  0.00349246  1
  Rh  Rh213  1  0.41011835  0.79200208  0.20985762  1
  Rh  Rh214  1  0.59473338  0.39802920  0.80299342  1
  Rh  Rh215  1  0.79362188  0.00051537  0.79517010  1
  Rh  Rh216  1  0.00389200  0.20011988  0.60399992  1
  Rh  Rh217  1  0.19284414  0.59756609  0.60464510  1
  Rh  Rh218  1  0.40919793  0.60040036  0.60199845  1
  Rh  Rh219  1  0.19745546  0.00993315  0.59292661  1
  Rh  Rh220  1  0.19988504  0.79499789  -0.00199553  1
  Rh  Rh221  1  0.79945974  0.60409303  0.20692942  1
  Rh  Rh222  1  0.40124667  0.00177343  0.19631576  1
  Rh  Rh223  1  0.19301148  0.20063663  0.20223993  1
  Rh  Rh224  1  0.40389523  0.39777370  0.59650096  1
  Rh  Rh225  1  0.20384905  0.20363981  0.40360917  1
  Rh  Rh226  1  0.61085038  0.40370701  0.19700517  1
  Rh  Rh227  1  0.79432910  0.79608688  0.60044041  1
  Rh  Rh228  1  0.00530885  0.20223217  0.20093004  1
  Rh  Rh229  1  -0.00045281  0.39776798  0.40245283  1
  Rh  Rh230  1  0.20478412  0.39481926  0.60602896  1
  Rh  Rh231  1  0.40363272  0.40268862  0.80173592  1
  Rh  Rh232  1  0.80418931  0.59744059  -0.01216286  1
  Rh  Rh233  1  -0.00010133  0.00307978  -0.00266807  1
  Rh  Rh234  1  0.78738737  0.21327380  0.60252137  1
  Rh  Rh235  1  0.59908659  0.80875606  0.79762959  1
  Rh  Rh236  1  0.59311867  -0.00198622  -0.01240132  1
  Rh  Rh237  1  -0.00197524  0.19956405  0.39731968  1
  Rh  Rh238  1  0.19640312  0.39998910  0.20330664  1
  Rh  Rh239  1  0.59172777  0.39545190  0.60523293  1
  Rh  Rh240  1  0.60829260  0.18965550  0.78911129  1
  Rh  Rh241  1  -0.00507910  0.60530582  0.80140186  1
  Rh  Rh242  1  0.80131214  0.39760495  0.60021117  1
  Rh  Rh243  1  0.00521534  0.39358005  0.80170409  1
  Rh  Rh244  1  0.20435427  0.20298964  -0.00514155  1
  Rh  Rh245  1  0.39210847  0.59614509  0.80063422  1
  Rh  Rh246  1  0.80618789  -0.00719497  0.59984630  1
  Rh  Rh247  1  0.61044706  0.00154982  0.20547459  1
  Rh  Rh248  1  0.00296229  0.60446304  0.19608863  1
  Rh  Rh249  1  0.80674651  -0.00087260  0.39919935  1
