# generated using pymatgen
data_ZrScNbPdRh
_symmetry_space_group_name_H-M   'P 1'
_cell_length_a   16.55624056
_cell_length_b   16.55972065
_cell_length_c   16.55794849
_cell_angle_alpha   90.00983997
_cell_angle_beta   90.02092513
_cell_angle_gamma   90.01465872
_symmetry_Int_Tables_number   1
_chemical_formula_structural   ZrScNbPdRh
_chemical_formula_sum   'Zr50 Sc50 Nb50 Pd50 Rh50'
_cell_volume   4539.63788826
_cell_formula_units_Z   50
loop_
 _symmetry_equiv_pos_site_id
 _symmetry_equiv_pos_as_xyz
  1  'x, y, z'
loop_
 _atom_site_type_symbol
 _atom_site_label
 _atom_site_symmetry_multiplicity
 _atom_site_fract_x
 _atom_site_fract_y
 _atom_site_fract_z
 _atom_site_occupancy
  Zr  Zr0  1  0.69952906  0.90151524  0.29699105  1
  Zr  Zr1  1  0.29899732  0.49857447  0.70255212  1
  Zr  Zr2  1  0.70552155  0.09554641  0.11068751  1
  Zr  Zr3  1  0.90134242  0.50157113  0.70314152  1
  Zr  Zr4  1  0.29645787  0.70172537  0.68594798  1
  Zr  Zr5  1  0.31552797  0.09309898  0.30520588  1
  Zr  Zr6  1  0.90314925  0.50050677  0.29788408  1
  Zr  Zr7  1  0.29750740  0.30213930  0.70679121  1
  Zr  Zr8  1  0.89757777  0.69756016  0.30384582  1
  Zr  Zr9  1  0.30351878  0.69588698  0.90364167  1
  Zr  Zr10  1  0.50197375  0.30038540  0.49348847  1
  Zr  Zr11  1  0.49973057  0.89244854  0.49118210  1
  Zr  Zr12  1  0.90237415  0.49847564  0.89360927  1
  Zr  Zr13  1  0.10349866  0.89793286  0.89190102  1
  Zr  Zr14  1  0.09768576  0.50418284  0.69840350  1
  Zr  Zr15  1  0.50258964  0.69761884  0.09702736  1
  Zr  Zr16  1  0.10871907  0.69840384  0.50620234  1
  Zr  Zr17  1  0.89657308  0.70434582  0.50160988  1
  Zr  Zr18  1  0.89644388  0.09236900  0.70514119  1
  Zr  Zr19  1  0.69260646  0.29882432  0.70393904  1
  Zr  Zr20  1  0.70548778  0.91402842  0.69892782  1
  Zr  Zr21  1  0.70303422  0.89989564  0.08696422  1
  Zr  Zr22  1  0.49995558  0.50186912  0.89446985  1
  Zr  Zr23  1  0.90167839  0.30643943  0.29986505  1
  Zr  Zr24  1  0.10127626  0.50481314  0.89905743  1
  Zr  Zr25  1  0.10486001  0.28943363  0.10558124  1
  Zr  Zr26  1  0.70334242  0.49882867  0.29772431  1
  Zr  Zr27  1  0.49201274  0.10401112  0.90731421  1
  Zr  Zr28  1  0.50691639  0.29823150  0.89601590  1
  Zr  Zr29  1  0.30129855  0.29472295  0.89928707  1
  Zr  Zr30  1  0.29875298  0.29999178  0.09898098  1
  Zr  Zr31  1  0.09642012  0.88930266  0.09950245  1
  Zr  Zr32  1  0.70573774  0.49507466  0.89189478  1
  Zr  Zr33  1  0.10249509  0.89474124  0.69672773  1
  Zr  Zr34  1  0.91018272  0.70082407  0.09745526  1
  Zr  Zr35  1  0.29362440  0.90786595  0.70763629  1
  Zr  Zr36  1  0.50458318  0.69833611  0.90318292  1
  Zr  Zr37  1  0.29967507  0.49333759  0.89276790  1
  Zr  Zr38  1  0.49676642  0.69287597  0.69025023  1
  Zr  Zr39  1  0.90103166  0.69725672  0.89401626  1
  Zr  Zr40  1  0.69929836  0.10154639  0.69878992  1
  Zr  Zr41  1  0.29207700  0.70550307  0.09814017  1
  Zr  Zr42  1  0.50831795  0.29138571  0.09428025  1
  Zr  Zr43  1  0.69290491  0.30004308  0.50023281  1
  Zr  Zr44  1  0.50070928  0.90457376  0.90177616  1
  Zr  Zr45  1  0.69475424  0.70244542  0.49621123  1
  Zr  Zr46  1  0.10650302  0.30361738  0.49847093  1
  Zr  Zr47  1  0.91365339  0.29801981  0.49630127  1
  Zr  Zr48  1  0.89856159  0.90477396  0.10238512  1
  Zr  Zr49  1  0.48755024  0.90878386  0.29773727  1
  Sc  Sc50  1  0.09858760  0.70241905  0.90459357  1
  Sc  Sc51  1  0.70486943  0.70205079  0.89769469  1
  Sc  Sc52  1  0.70596152  0.29223846  0.30613989  1
  Sc  Sc53  1  0.89762886  0.69294846  0.69700828  1
  Sc  Sc54  1  0.28590237  0.49218210  0.49269379  1
  Sc  Sc55  1  0.71385102  0.09637669  0.89381753  1
  Sc  Sc56  1  0.50081557  0.49721828  0.50458350  1
  Sc  Sc57  1  0.69725687  0.49778898  0.49728513  1
  Sc  Sc58  1  0.90487162  0.50059667  0.50503926  1
  Sc  Sc59  1  0.29881224  0.90366152  0.90232141  1
  Sc  Sc60  1  0.29403666  0.48953950  0.10231043  1
  Sc  Sc61  1  0.89589066  0.10567861  0.28761803  1
  Sc  Sc62  1  0.50022636  0.91409995  0.70120509  1
  Sc  Sc63  1  0.50455240  0.10396573  0.70679660  1
  Sc  Sc64  1  0.70322105  0.30320647  0.90065832  1
  Sc  Sc65  1  0.50174269  0.49874260  0.70002163  1
  Sc  Sc66  1  0.50009969  0.91062878  0.09141627  1
  Sc  Sc67  1  0.09685814  0.70461360  0.29727643  1
  Sc  Sc68  1  0.90350224  0.90297777  0.68788718  1
  Sc  Sc69  1  0.69569351  0.50314437  0.70056620  1
  Sc  Sc70  1  0.70043330  0.68913925  0.30344536  1
  Sc  Sc71  1  0.28435901  0.70868279  0.30933799  1
  Sc  Sc72  1  0.50504646  0.29698056  0.70209498  1
  Sc  Sc73  1  0.30043081  0.10748037  0.70835332  1
  Sc  Sc74  1  0.29863655  0.10997683  0.09709708  1
  Sc  Sc75  1  0.89206423  0.89214412  0.90289730  1
  Sc  Sc76  1  0.49874739  0.49296141  0.30399346  1
  Sc  Sc77  1  0.50521786  0.50415883  0.10270854  1
  Sc  Sc78  1  0.90850559  0.30042327  0.71026239  1
  Sc  Sc79  1  0.69564956  0.10400724  0.50354353  1
  Sc  Sc80  1  0.09837508  0.29483714  0.90238541  1
  Sc  Sc81  1  0.09333937  0.11931703  0.49754571  1
  Sc  Sc82  1  0.69673411  0.69521493  0.09625613  1
  Sc  Sc83  1  0.09877044  0.49268554  0.50379907  1
  Sc  Sc84  1  0.09577451  0.89554588  0.29794724  1
  Sc  Sc85  1  0.29595100  0.10290722  0.89652254  1
  Sc  Sc86  1  0.89755378  0.30121378  0.90523780  1
  Sc  Sc87  1  0.51111107  0.69796649  0.30766273  1
  Sc  Sc88  1  0.90059270  0.30253836  0.10092408  1
  Sc  Sc89  1  0.29819159  0.90037018  0.29872159  1
  Sc  Sc90  1  0.30019472  0.31158276  0.30203289  1
  Sc  Sc91  1  0.90501637  0.49333245  0.10652312  1
  Sc  Sc92  1  0.49468650  0.11307866  0.48902669  1
  Sc  Sc93  1  0.70507416  0.49644263  0.10272374  1
  Sc  Sc94  1  0.10159185  0.30455322  0.69867482  1
  Sc  Sc95  1  0.70676443  0.29856001  0.09374385  1
  Sc  Sc96  1  0.30562844  0.89125504  0.48900238  1
  Sc  Sc97  1  0.29747097  0.90185415  0.10286630  1
  Sc  Sc98  1  0.08793423  0.89541142  0.50925375  1
  Sc  Sc99  1  0.09124766  0.09131924  0.71222957  1
  Nb  Nb100  1  0.89656132  0.89986020  0.30535416  1
  Nb  Nb101  1  0.29854819  0.10735349  0.50075531  1
  Nb  Nb102  1  0.89450930  0.90476900  0.49854099  1
  Nb  Nb103  1  0.09198876  0.29395385  0.30879998  1
  Nb  Nb104  1  0.50142689  0.10401542  0.10597306  1
  Nb  Nb105  1  0.10578962  0.49905299  0.30838259  1
  Nb  Nb106  1  0.09762216  0.50547374  0.10552589  1
  Nb  Nb107  1  0.70056511  0.89217135  0.89896743  1
  Nb  Nb108  1  0.69524815  0.70080543  0.69944366  1
  Nb  Nb109  1  0.90265624  0.09604268  0.50704777  1
  Nb  Nb110  1  0.91340274  0.10509289  0.89979041  1
  Nb  Nb111  1  0.29939071  0.29093724  0.50660826  1
  Nb  Nb112  1  0.69831065  0.09748746  0.29879375  1
  Nb  Nb113  1  0.09717641  0.10793919  0.29837282  1
  Nb  Nb114  1  0.10136236  0.69740576  0.10093534  1
  Nb  Nb115  1  0.91064827  0.09958681  0.09364602  1
  Nb  Nb116  1  0.09010261  0.10078230  0.10222936  1
  Nb  Nb117  1  0.08984825  0.10013546  0.90955686  1
  Nb  Nb118  1  0.09920776  0.70567234  0.69153483  1
  Nb  Nb119  1  0.50618337  0.10352343  0.29421823  1
  Nb  Nb120  1  0.69952602  0.90260992  0.50050684  1
  Nb  Nb121  1  0.30767704  0.69947350  0.50018000  1
  Nb  Nb122  1  0.48811237  0.70213518  0.50143799  1
  Nb  Nb123  1  0.29600189  0.50452079  0.30016073  1
  Nb  Nb124  1  0.50509612  0.29532888  0.30254610  1
  Nb  Nb125  1  0.40468263  0.79244816  0.19969111  1
  Nb  Nb126  1  0.59921762  0.80331955  0.19782797  1
  Nb  Nb127  1  0.40500536  0.79830162  0.79836955  1
  Nb  Nb128  1  0.60246098  0.00273830  0.39424488  1
  Nb  Nb129  1  0.20342490  0.00658351  0.58925108  1
  Nb  Nb130  1  0.00392724  0.60067797  0.39931151  1
  Nb  Nb131  1  -0.00642622  0.00280557  0.40021198  1
  Nb  Nb132  1  0.60139615  0.80230768  0.60083341  1
  Nb  Nb133  1  0.79948639  0.00013341  0.40166402  1
  Nb  Nb134  1  0.19019382  0.01080712  0.20073247  1
  Nb  Nb135  1  0.79853941  0.80234793  0.20098568  1
  Nb  Nb136  1  0.40377736  0.39610787  -0.00309863  1
  Nb  Nb137  1  0.19108080  0.00861089  0.40108396  1
  Nb  Nb138  1  0.41022364  0.20206857  0.20226902  1
  Nb  Nb139  1  0.59980251  0.39081224  0.20425001  1
  Nb  Nb140  1  0.18689253  0.00744685  0.00519454  1
  Nb  Nb141  1  0.39213406  0.00721507  0.59296171  1
  Nb  Nb142  1  0.80559781  0.20312412  0.59940786  1
  Nb  Nb143  1  0.80801172  0.59655928  -0.00438916  1
  Nb  Nb144  1  0.60121269  0.80191998  0.79399543  1
  Nb  Nb145  1  0.39215404  0.60225917  0.40155340  1
  Nb  Nb146  1  0.19566720  0.59716026  0.20110621  1
  Nb  Nb147  1  0.39278299  0.39209070  0.59767812  1
  Nb  Nb148  1  0.39092218  0.60311150  0.20809827  1
  Nb  Nb149  1  0.80073186  0.39119916  0.60215780  1
  Pd  Pd150  1  0.80522813  0.19025212  0.40676962  1
  Pd  Pd151  1  0.61513557  0.18780451  -0.00484008  1
  Pd  Pd152  1  -0.00803719  -0.01138989  0.80531166  1
  Pd  Pd153  1  0.19010998  0.81067664  0.40595500  1
  Pd  Pd154  1  0.59954830  0.40662157  0.00539317  1
  Pd  Pd155  1  -0.00086349  -0.01104191  -0.00704370  1
  Pd  Pd156  1  0.60665903  0.01024340  -0.00621046  1
  Pd  Pd157  1  0.60302072  0.00193627  0.81033838  1
  Pd  Pd158  1  0.18809462  0.19568191  0.79996859  1
  Pd  Pd159  1  0.58640196  0.00334540  0.58646192  1
  Pd  Pd160  1  0.38681227  0.00625244  0.00523977  1
  Pd  Pd161  1  0.79807738  0.80273231  0.78792747  1
  Pd  Pd162  1  0.41013893  0.39995520  0.19417270  1
  Pd  Pd163  1  0.21126231  0.19576397  0.21150296  1
  Pd  Pd164  1  0.20797277  0.79020099  0.80290281  1
  Pd  Pd165  1  0.19706349  0.39918310  -0.00334022  1
  Pd  Pd166  1  0.19480794  0.61116563  0.79708624  1
  Pd  Pd167  1  0.80421989  0.20463402  0.79726958  1
  Pd  Pd168  1  0.39161390  0.58662163  0.01124011  1
  Pd  Pd169  1  0.00354738  0.79914061  0.40513331  1
  Pd  Pd170  1  0.00702257  0.39591914  0.80382031  1
  Pd  Pd171  1  0.80507136  0.19389996  0.00224030  1
  Pd  Pd172  1  0.39901886  0.60597781  0.79483714  1
  Pd  Pd173  1  0.20301971  0.59172888  0.59518096  1
  Pd  Pd174  1  0.79445254  0.59121589  0.59702617  1
  Pd  Pd175  1  0.40635754  0.20059311  0.60704796  1
  Pd  Pd176  1  0.19126609  0.19271960  0.61240236  1
  Pd  Pd177  1  -0.00337068  0.59539093  -0.00037261  1
  Pd  Pd178  1  0.80278481  0.20407029  0.19530379  1
  Pd  Pd179  1  0.01141038  0.39579303  0.20204728  1
  Pd  Pd180  1  0.39611172  0.40211558  0.40741887  1
  Pd  Pd181  1  -0.00507056  0.79776167  0.79164499  1
  Pd  Pd182  1  0.79553694  0.80160161  0.60472642  1
  Pd  Pd183  1  0.18968531  0.40068526  0.20678418  1
  Pd  Pd184  1  0.61321491  0.59198909  -0.00532836  1
  Pd  Pd185  1  0.79276911  0.80221287  0.39609859  1
  Pd  Pd186  1  0.20823482  0.20163125  0.39062933  1
  Pd  Pd187  1  0.59073098  0.59237339  0.40429862  1
  Pd  Pd188  1  0.00060153  0.19879193  0.61224346  1
  Pd  Pd189  1  0.40151797  0.81477563  0.60900777  1
  Pd  Pd190  1  0.59696584  -0.00625986  0.19869804  1
  Pd  Pd191  1  0.80653452  0.00732882  -0.00653005  1
  Pd  Pd192  1  -0.00687819  0.79972350  0.20368457  1
  Pd  Pd193  1  0.80099681  0.60583339  0.18958155  1
  Pd  Pd194  1  0.39935331  0.80586147  0.00128264  1
  Pd  Pd195  1  0.60099974  0.60125762  0.59314342  1
  Pd  Pd196  1  0.80307166  0.40402328  0.40870367  1
  Pd  Pd197  1  0.00572293  0.39707699  0.00288605  1
  Pd  Pd198  1  0.00073438  -0.00010715  0.20914348  1
  Pd  Pd199  1  0.20332074  0.59452699  0.00557856  1
  Rh  Rh200  1  0.01011140  0.00471480  0.59341574  1
  Rh  Rh201  1  0.40342667  0.00417074  0.41056362  1
  Rh  Rh202  1  0.00112401  0.20150151  0.80331599  1
  Rh  Rh203  1  0.39838347  0.20362695  0.00452395  1
  Rh  Rh204  1  0.40481657  0.19994417  0.79983619  1
  Rh  Rh205  1  0.79100200  0.39329323  0.20130946  1
  Rh  Rh206  1  0.19462870  0.19268909  -0.00319585  1
  Rh  Rh207  1  0.00278199  0.60457865  0.59536930  1
  Rh  Rh208  1  0.60332721  0.20528175  0.20199923  1
  Rh  Rh209  1  0.39532578  0.20858998  0.39062815  1
  Rh  Rh210  1  0.60346492  0.40120713  0.39184756  1
  Rh  Rh211  1  0.79579063  0.60210505  0.80100521  1
  Rh  Rh212  1  0.19620460  0.60300911  0.39935739  1
  Rh  Rh213  1  0.00951060  0.59763430  0.20894393  1
  Rh  Rh214  1  -0.00434362  0.39916932  0.60304447  1
  Rh  Rh215  1  0.20692817  0.81025500  0.59310065  1
  Rh  Rh216  1  0.60111451  0.80234818  -0.00272655  1
  Rh  Rh217  1  0.59805929  0.39839918  0.60227976  1
  Rh  Rh218  1  0.60273527  0.19280499  0.80918129  1
  Rh  Rh219  1  0.40745159  0.39575194  0.79781958  1
  Rh  Rh220  1  0.80739291  -0.00143204  0.20154158  1
  Rh  Rh221  1  0.59946047  0.40318941  0.79752958  1
  Rh  Rh222  1  0.19926143  0.39082402  0.39752068  1
  Rh  Rh223  1  0.19544233  0.00786606  0.80686331  1
  Rh  Rh224  1  0.59922946  0.19888343  0.59883576  1
  Rh  Rh225  1  0.39378917  0.00557339  0.18845659  1
  Rh  Rh226  1  0.80579482  0.40756194  -0.00080229  1
  Rh  Rh227  1  0.40189435  0.78698679  0.38536434  1
  Rh  Rh228  1  0.80057366  0.78848509  0.00782453  1
  Rh  Rh229  1  0.39832846  0.00041063  0.79619201  1
  Rh  Rh230  1  0.79742939  0.00865126  0.59312162  1
  Rh  Rh231  1  0.20497462  0.39799919  0.60264103  1
  Rh  Rh232  1  0.19096090  0.39913489  0.80393189  1
  Rh  Rh233  1  0.00991040  0.61005519  0.79287618  1
  Rh  Rh234  1  -0.00412599  0.20784546  0.00463335  1
  Rh  Rh235  1  0.20360678  0.80083775  0.19869557  1
  Rh  Rh236  1  0.39028486  0.58252894  0.58814602  1
  Rh  Rh237  1  -0.01098999  0.19244422  0.39164483  1
  Rh  Rh238  1  0.60160602  0.80403544  0.39890524  1
  Rh  Rh239  1  0.19735884  0.80617383  -0.00324083  1
  Rh  Rh240  1  0.79940374  0.39525634  0.79106433  1
  Rh  Rh241  1  0.81083747  0.59273621  0.40730143  1
  Rh  Rh242  1  0.60468396  0.19380469  0.39545781  1
  Rh  Rh243  1  0.59645640  0.59516825  0.20515550  1
  Rh  Rh244  1  -0.00594683  0.20624623  0.19951164  1
  Rh  Rh245  1  -0.00837571  0.79485328  0.60142267  1
  Rh  Rh246  1  0.80874941  -0.00559215  0.80694827  1
  Rh  Rh247  1  0.00452170  0.40723556  0.39897060  1
  Rh  Rh248  1  0.60242595  0.60629135  0.80148895  1
  Rh  Rh249  1  0.00109342  0.80058877  -0.00367681  1
