# generated using pymatgen
data_ZrScNbPdRh
_symmetry_space_group_name_H-M   'P 1'
_cell_length_a   16.56000278
_cell_length_b   16.56358945
_cell_length_c   16.55992632
_cell_angle_alpha   90.00835513
_cell_angle_beta   89.95967413
_cell_angle_gamma   90.00231045
_symmetry_Int_Tables_number   1
_chemical_formula_structural   ZrScNbPdRh
_chemical_formula_sum   'Zr50 Sc50 Nb50 Pd50 Rh50'
_cell_volume   4542.27213973
_cell_formula_units_Z   50
loop_
 _symmetry_equiv_pos_site_id
 _symmetry_equiv_pos_as_xyz
  1  'x, y, z'
loop_
 _atom_site_type_symbol
 _atom_site_label
 _atom_site_symmetry_multiplicity
 _atom_site_fract_x
 _atom_site_fract_y
 _atom_site_fract_z
 _atom_site_occupancy
  Zr  Zr0  1  0.69826491  0.09045040  0.89042489  1
  Zr  Zr1  1  0.88857391  0.30057192  0.89832024  1
  Zr  Zr2  1  0.10034917  0.89423550  0.10563893  1
  Zr  Zr3  1  0.49256315  0.10133456  0.30344197  1
  Zr  Zr4  1  0.10220957  0.49569697  0.69502959  1
  Zr  Zr5  1  0.49965894  0.89959516  0.49874142  1
  Zr  Zr6  1  0.69783970  0.70436211  0.48817165  1
  Zr  Zr7  1  0.29774511  0.30369316  0.09543094  1
  Zr  Zr8  1  0.49696542  0.10928242  0.50625904  1
  Zr  Zr9  1  0.49371569  0.90103083  0.70107552  1
  Zr  Zr10  1  0.90146544  0.70402431  0.09232473  1
  Zr  Zr11  1  0.31002196  0.70260744  0.70602079  1
  Zr  Zr12  1  0.29182398  0.09904763  0.90253619  1
  Zr  Zr13  1  0.29969450  0.50047021  0.70346285  1
  Zr  Zr14  1  0.50902993  0.49506857  0.49953282  1
  Zr  Zr15  1  0.51034777  0.29091787  0.69431621  1
  Zr  Zr16  1  0.69522822  0.30994114  0.50649605  1
  Zr  Zr17  1  0.29819899  0.09537185  0.70658979  1
  Zr  Zr18  1  0.71688697  0.70420728  0.90261485  1
  Zr  Zr19  1  0.09358084  0.49798846  0.30281494  1
  Zr  Zr20  1  0.49724975  0.49255487  0.90173260  1
  Zr  Zr21  1  0.30375778  0.29721082  0.90087059  1
  Zr  Zr22  1  0.71098951  0.50281547  0.30580346  1
  Zr  Zr23  1  0.08823645  0.90145218  0.50021963  1
  Zr  Zr24  1  0.90003964  0.10078681  0.90313922  1
  Zr  Zr25  1  0.90338381  0.90555387  0.09949448  1
  Zr  Zr26  1  0.10083920  0.51184065  0.89859965  1
  Zr  Zr27  1  0.09948901  0.70937253  0.29437535  1
  Zr  Zr28  1  0.70293307  0.90518300  0.90640723  1
  Zr  Zr29  1  0.70527404  0.89050762  0.30788733  1
  Zr  Zr30  1  0.89593516  0.50453219  0.49337599  1
  Zr  Zr31  1  0.50010899  0.10495839  0.90037605  1
  Zr  Zr32  1  0.48604503  0.70275315  0.90944660  1
  Zr  Zr33  1  0.09963746  0.30073253  0.51043150  1
  Zr  Zr34  1  0.69560139  0.70177417  0.29760554  1
  Zr  Zr35  1  0.09528352  0.69962903  0.09585875  1
  Zr  Zr36  1  0.09377413  0.09161819  0.09395750  1
  Zr  Zr37  1  0.29120678  0.89984015  0.70991983  1
  Zr  Zr38  1  0.10168639  0.70149035  0.48864925  1
  Zr  Zr39  1  0.49058907  0.09688097  0.09969726  1
  Zr  Zr40  1  0.29166871  0.89720410  0.29937083  1
  Zr  Zr41  1  0.49563809  0.89806817  0.09715482  1
  Zr  Zr42  1  0.71246931  0.10025684  0.50402041  1
  Zr  Zr43  1  0.49393606  0.69046351  0.50394270  1
  Zr  Zr44  1  0.50264679  0.10158871  0.70762051  1
  Zr  Zr45  1  0.30642059  0.69843255  0.09552598  1
  Zr  Zr46  1  0.49362782  0.50736927  0.29787983  1
  Zr  Zr47  1  0.90543952  0.09179710  0.50166716  1
  Zr  Zr48  1  0.29646647  0.29509467  0.30001892  1
  Zr  Zr49  1  0.90226304  0.29345214  0.70456092  1
  Sc  Sc50  1  0.29663295  0.90663042  0.50563029  1
  Sc  Sc51  1  0.09803868  0.09961139  0.89792075  1
  Sc  Sc52  1  0.70536001  0.30013738  0.70189898  1
  Sc  Sc53  1  0.49013409  0.30416258  0.30476029  1
  Sc  Sc54  1  0.28682833  0.69242847  0.30386342  1
  Sc  Sc55  1  0.70970411  0.69528138  0.70032679  1
  Sc  Sc56  1  0.88972307  0.70537416  0.30062387  1
  Sc  Sc57  1  0.49458793  0.29881899  0.08777667  1
  Sc  Sc58  1  0.69903164  0.30034923  0.89433692  1
  Sc  Sc59  1  0.89570924  0.50546030  0.69205340  1
  Sc  Sc60  1  0.29692204  0.28983679  0.49828827  1
  Sc  Sc61  1  0.31241798  0.50864278  0.49344692  1
  Sc  Sc62  1  0.29903571  0.49883912  0.90094086  1
  Sc  Sc63  1  0.70983682  0.09599678  0.30005567  1
  Sc  Sc64  1  0.09730936  0.29818936  0.09961561  1
  Sc  Sc65  1  0.90640904  0.70153790  0.49897798  1
  Sc  Sc66  1  0.70790690  0.90942685  0.71562226  1
  Sc  Sc67  1  0.70360792  0.89643016  0.09607080  1
  Sc  Sc68  1  0.09689624  0.10333425  0.70195403  1
  Sc  Sc69  1  0.90203482  0.89829908  0.30305380  1
  Sc  Sc70  1  0.10183545  0.09190282  0.30644892  1
  Sc  Sc71  1  0.70359627  0.70736700  0.10072953  1
  Sc  Sc72  1  0.50090834  0.29682079  0.89657908  1
  Sc  Sc73  1  0.50211447  0.90712933  0.90741107  1
  Sc  Sc74  1  0.70728439  0.30937815  0.29813091  1
  Sc  Sc75  1  0.89773746  0.10504269  0.69936502  1
  Sc  Sc76  1  0.70615306  0.50187955  0.10296972  1
  Sc  Sc77  1  0.30422380  0.49607875  0.29116171  1
  Sc  Sc78  1  0.90821351  0.31676158  0.28665254  1
  Sc  Sc79  1  0.90475167  0.08918195  0.29715188  1
  Sc  Sc80  1  0.30474438  0.09592033  0.30507945  1
  Sc  Sc81  1  0.90208940  0.30020607  0.51510513  1
  Sc  Sc82  1  0.49993492  0.50612415  0.69714554  1
  Sc  Sc83  1  0.10404876  0.09694318  0.50365024  1
  Sc  Sc84  1  0.71104309  0.48945802  0.89529114  1
  Sc  Sc85  1  0.70371591  0.09141216  0.08862718  1
  Sc  Sc86  1  0.30672880  0.49648834  0.09969277  1
  Sc  Sc87  1  0.70310427  0.30498426  0.09005922  1
  Sc  Sc88  1  0.10714044  0.29586049  0.89678613  1
  Sc  Sc89  1  0.09669645  0.69654713  0.71224044  1
  Sc  Sc90  1  0.28783769  0.29914246  0.70379637  1
  Sc  Sc91  1  0.09773552  0.90636994  0.89183591  1
  Sc  Sc92  1  0.08722426  0.50243371  0.50355931  1
  Sc  Sc93  1  0.89807470  0.90162861  0.89283194  1
  Sc  Sc94  1  0.49597218  0.90252710  0.30167901  1
  Sc  Sc95  1  0.49979453  0.69471352  0.10367051  1
  Sc  Sc96  1  0.29818124  0.09931671  0.49753439  1
  Sc  Sc97  1  0.11048895  0.49932447  0.09388847  1
  Sc  Sc98  1  0.90283152  0.70083277  0.70477987  1
  Sc  Sc99  1  0.29643802  0.91028905  0.09964629  1
  Nb  Nb100  1  0.50337227  0.29920318  0.50359727  1
  Nb  Nb101  1  0.89656794  0.50120996  0.29066103  1
  Nb  Nb102  1  0.29203312  0.70520842  0.89640493  1
  Nb  Nb103  1  0.50035125  0.70286764  0.30275851  1
  Nb  Nb104  1  0.70181923  0.50099043  0.50522367  1
  Nb  Nb105  1  0.69915474  0.50073633  0.69272563  1
  Nb  Nb106  1  0.90208429  0.50021588  0.90408289  1
  Nb  Nb107  1  0.69728481  0.10364685  0.70214436  1
  Nb  Nb108  1  0.09142068  0.30213303  0.69815180  1
  Nb  Nb109  1  0.91423920  0.68934585  0.90494640  1
  Nb  Nb110  1  0.90056993  0.29748830  0.09672936  1
  Nb  Nb111  1  0.29809099  0.70088520  0.50283976  1
  Nb  Nb112  1  0.29598471  0.10215073  0.10272578  1
  Nb  Nb113  1  0.09758732  0.69576164  0.90380417  1
  Nb  Nb114  1  0.09934901  0.89925145  0.69650009  1
  Nb  Nb115  1  0.10089089  0.88780156  0.30134954  1
  Nb  Nb116  1  0.89805644  0.90391007  0.50237367  1
  Nb  Nb117  1  0.70250302  0.90186866  0.49911650  1
  Nb  Nb118  1  0.90457910  0.10572864  0.09891012  1
  Nb  Nb119  1  0.89888174  0.49059468  0.10273084  1
  Nb  Nb120  1  0.10091642  0.29632316  0.30492154  1
  Nb  Nb121  1  0.49672862  0.50141726  0.10073912  1
  Nb  Nb122  1  0.50250479  0.70354494  0.70293902  1
  Nb  Nb123  1  0.28967679  0.89558443  0.89994928  1
  Nb  Nb124  1  0.91201773  0.90087300  0.69163127  1
  Nb  Nb125  1  0.60577525  -0.00151488  0.60030076  1
  Nb  Nb126  1  0.59502817  0.40156920  0.19847845  1
  Nb  Nb127  1  -0.00137944  0.20398124  0.39855727  1
  Nb  Nb128  1  0.60351668  0.00383809  0.40395123  1
  Nb  Nb129  1  0.39667353  0.79374143  0.39963349  1
  Nb  Nb130  1  0.19634682  0.79703502  0.60379508  1
  Nb  Nb131  1  0.20378382  0.60773536  0.59894269  1
  Nb  Nb132  1  -0.00650745  0.59445346  0.19843915  1
  Nb  Nb133  1  -0.00245170  0.40154259  0.80337478  1
  Nb  Nb134  1  0.39736930  0.79657609  0.20645943  1
  Nb  Nb135  1  0.60098505  0.59739177  -0.00624490  1
  Nb  Nb136  1  0.40533617  0.39403448  0.59719545  1
  Nb  Nb137  1  0.80802773  0.20397484  0.39606500  1
  Nb  Nb138  1  0.60603793  0.20107133  0.39904951  1
  Nb  Nb139  1  0.80664055  0.20046297  0.19438553  1
  Nb  Nb140  1  0.80050092  0.81086339  0.59763091  1
  Nb  Nb141  1  0.60517088  0.80317985  0.60476001  1
  Nb  Nb142  1  0.60179015  0.60507998  0.80509962  1
  Nb  Nb143  1  0.19778630  0.79680510  -0.00789760  1
  Nb  Nb144  1  0.59934089  0.00372297  0.20402361  1
  Nb  Nb145  1  -0.00624315  0.40131882  -0.00373967  1
  Nb  Nb146  1  0.60418849  0.20022381  0.20191702  1
  Nb  Nb147  1  0.59889986  0.79327283  0.79938657  1
  Nb  Nb148  1  0.19883765  0.19520979  0.19876922  1
  Nb  Nb149  1  0.19410678  0.39714016  0.39887190  1
  Pd  Pd150  1  0.39621275  0.80195428  0.59492624  1
  Pd  Pd151  1  0.79239813  0.19631539  0.00001757  1
  Pd  Pd152  1  0.40377483  0.59826663  0.80512440  1
  Pd  Pd153  1  0.80103210  0.59350857  0.80127344  1
  Pd  Pd154  1  0.19619173  0.59883781  0.19655642  1
  Pd  Pd155  1  -0.00893469  0.60611471  0.38740638  1
  Pd  Pd156  1  0.39960708  0.00431977  0.59990471  1
  Pd  Pd157  1  0.00096938  0.19622726  0.20784383  1
  Pd  Pd158  1  0.80552160  0.80266304  0.79547638  1
  Pd  Pd159  1  0.19661216  -0.00530013  0.40268899  1
  Pd  Pd160  1  -0.00010422  0.80033814  0.80674633  1
  Pd  Pd161  1  0.60148958  0.59480167  0.19323694  1
  Pd  Pd162  1  0.39129310  0.39380597  0.40744843  1
  Pd  Pd163  1  0.60165111  0.59494170  0.39836908  1
  Pd  Pd164  1  -0.00410654  0.39273449  0.40564964  1
  Pd  Pd165  1  0.19594932  0.00618257  0.20400413  1
  Pd  Pd166  1  0.21343702  0.41082974  0.58585787  1
  Pd  Pd167  1  0.19988361  0.58715359  0.40441260  1
  Pd  Pd168  1  0.39799944  0.20624732  0.19664303  1
  Pd  Pd169  1  0.20918639  0.60102126  0.00032977  1
  Pd  Pd170  1  0.80084406  0.61183832  0.59145912  1
  Pd  Pd171  1  0.79805425  0.59503455  0.00291630  1
  Pd  Pd172  1  0.79579771  0.00077852  0.19613705  1
  Pd  Pd173  1  0.79962067  -0.00320659  0.61171119  1
  Pd  Pd174  1  0.40516270  0.80877521  0.81109091  1
  Pd  Pd175  1  0.60119808  0.79183885  -0.00434233  1
  Pd  Pd176  1  0.40462169  0.39020841  0.78847260  1
  Pd  Pd177  1  0.00102646  0.79062770  0.60112866  1
  Pd  Pd178  1  0.00331585  0.80999230  -0.01184092  1
  Pd  Pd179  1  0.38840855  0.20499003  0.60761228  1
  Pd  Pd180  1  0.60475457  0.19648729  0.00317406  1
  Pd  Pd181  1  0.19473672  0.39420084  0.20323934  1
  Pd  Pd182  1  0.19456036  0.19859662  0.00546580  1
  Pd  Pd183  1  0.60498115  0.60692183  0.60550074  1
  Pd  Pd184  1  0.59393587  0.80780098  0.19974598  1
  Pd  Pd185  1  0.00596826  -0.00487658  0.20634806  1
  Pd  Pd186  1  0.60108672  0.40552973  0.79187732  1
  Pd  Pd187  1  0.60018215  0.39802607  0.38976309  1
  Pd  Pd188  1  0.01090679  0.40450789  0.18918124  1
  Pd  Pd189  1  0.39765336  -0.00355990  0.81210932  1
  Pd  Pd190  1  -0.00483203  0.59188942  0.79337432  1
  Pd  Pd191  1  -0.00224505  0.00544950  0.79375571  1
  Pd  Pd192  1  0.19940166  0.19363340  0.60585288  1
  Pd  Pd193  1  0.80338343  0.40002417  0.60492576  1
  Pd  Pd194  1  0.19321345  0.39873662  0.80548782  1
  Pd  Pd195  1  0.39199122  0.00025281  -0.00558332  1
  Pd  Pd196  1  0.81117537  0.39295178  0.40294686  1
  Pd  Pd197  1  0.00429245  0.20784543  -0.00769176  1
  Pd  Pd198  1  0.60288173  0.40741472  0.00555497  1
  Pd  Pd199  1  0.80452423  0.60732581  0.19370399  1
  Rh  Rh200  1  0.20560856  0.80821217  0.41258378  1
  Rh  Rh201  1  0.20863280  0.79644202  0.18689049  1
  Rh  Rh202  1  0.80165008  0.80363947  0.19647722  1
  Rh  Rh203  1  0.59697316  0.40475013  0.60811847  1
  Rh  Rh204  1  0.39621309  0.19659428  -0.00259276  1
  Rh  Rh205  1  0.00158807  0.20542205  0.80461160  1
  Rh  Rh206  1  0.59073368  0.80362771  0.40357849  1
  Rh  Rh207  1  0.19568413  -0.00565093  -0.00161757  1
  Rh  Rh208  1  0.61166500  0.19478764  0.59527432  1
  Rh  Rh209  1  0.00337726  0.00525633  0.60570633  1
  Rh  Rh210  1  0.38686177  0.80901232  0.00400284  1
  Rh  Rh211  1  -0.00443689  0.58951447  0.01068467  1
  Rh  Rh212  1  0.80655460  0.40684287  0.79059260  1
  Rh  Rh213  1  0.79410186  0.19402265  0.80105000  1
  Rh  Rh214  1  0.80948849  0.80046959  0.40904020  1
  Rh  Rh215  1  0.39826528  0.60745532  0.20398398  1
  Rh  Rh216  1  0.19290044  0.00303222  0.80003953  1
  Rh  Rh217  1  0.40096915  -0.00759722  0.20108851  1
  Rh  Rh218  1  0.18986124  0.79582442  0.80143411  1
  Rh  Rh219  1  0.20368215  0.60400992  0.79633576  1
  Rh  Rh220  1  0.39809777  0.39979987  -0.00144692  1
  Rh  Rh221  1  -0.00891616  0.79455499  0.20454781  1
  Rh  Rh222  1  0.81259497  0.80365047  -0.00394997  1
  Rh  Rh223  1  0.40335744  0.20308355  0.40489295  1
  Rh  Rh224  1  0.39665507  0.60827173  0.39135840  1
  Rh  Rh225  1  0.39646494  0.20277127  0.79862941  1
  Rh  Rh226  1  0.80208699  0.00000076  0.39570186  1
  Rh  Rh227  1  -0.00873907  0.40453702  0.60899854  1
  Rh  Rh228  1  0.39591903  0.59373991  0.60545937  1
  Rh  Rh229  1  0.79791490  0.20348539  0.59910940  1
  Rh  Rh230  1  0.40083594  0.59160127  -0.00399360  1
  Rh  Rh231  1  0.60578586  0.20186561  0.80446211  1
  Rh  Rh232  1  0.19415731  0.20094994  0.39522987  1
  Rh  Rh233  1  0.39990333  -0.00534989  0.40408728  1
  Rh  Rh234  1  0.79197486  0.39357372  0.19270240  1
  Rh  Rh235  1  0.40936800  0.39487461  0.19271968  1
  Rh  Rh236  1  0.59718681  0.00201039  0.00932030  1
  Rh  Rh237  1  0.80095810  0.60242087  0.40176304  1
  Rh  Rh238  1  -0.00605516  0.80282921  0.39663301  1
  Rh  Rh239  1  0.59534166  -0.00619251  0.79543456  1
  Rh  Rh240  1  0.19644564  0.19881604  0.79586889  1
  Rh  Rh241  1  0.00233620  -0.00135014  0.39732362  1
  Rh  Rh242  1  0.19579551  -0.00368134  0.60562460  1
  Rh  Rh243  1  0.80845978  0.00007930  0.00077739  1
  Rh  Rh244  1  0.19644361  0.40079842  -0.00543631  1
  Rh  Rh245  1  0.81166158  0.00447162  0.79500393  1
  Rh  Rh246  1  0.00592836  0.60360611  0.60249894  1
  Rh  Rh247  1  -0.00150771  -0.00344779  -0.00272000  1
  Rh  Rh248  1  0.80340219  0.40066684  0.00165375  1
  Rh  Rh249  1  0.00330471  0.19348056  0.59473817  1
