# generated using pymatgen
data_ZrScNbPdRh
_symmetry_space_group_name_H-M   'P 1'
_cell_length_a   16.56303812
_cell_length_b   16.56133252
_cell_length_c   16.56358942
_cell_angle_alpha   89.95917394
_cell_angle_beta   90.01411181
_cell_angle_gamma   89.97759103
_symmetry_Int_Tables_number   1
_chemical_formula_structural   ZrScNbPdRh
_chemical_formula_sum   'Zr50 Sc50 Nb50 Pd50 Rh50'
_cell_volume   4543.49002013
_cell_formula_units_Z   50
loop_
 _symmetry_equiv_pos_site_id
 _symmetry_equiv_pos_as_xyz
  1  'x, y, z'
loop_
 _atom_site_type_symbol
 _atom_site_label
 _atom_site_symmetry_multiplicity
 _atom_site_fract_x
 _atom_site_fract_y
 _atom_site_fract_z
 _atom_site_occupancy
  Zr  Zr0  1  0.71184671  0.29500856  0.10368237  1
  Zr  Zr1  1  0.29952402  0.90504832  0.48805785  1
  Zr  Zr2  1  0.89326024  0.50622611  0.89848645  1
  Zr  Zr3  1  0.89689641  0.69622025  0.49931020  1
  Zr  Zr4  1  0.30208888  0.29778431  0.49621440  1
  Zr  Zr5  1  0.88492763  0.30381641  0.89901872  1
  Zr  Zr6  1  0.10032143  0.89503841  0.49825984  1
  Zr  Zr7  1  0.70871025  0.89576630  0.90585221  1
  Zr  Zr8  1  0.29414779  0.09945505  0.31635293  1
  Zr  Zr9  1  0.49627506  0.91517139  0.10512378  1
  Zr  Zr10  1  0.89094364  0.49421053  0.50530024  1
  Zr  Zr11  1  0.10248045  0.10014623  0.89697529  1
  Zr  Zr12  1  0.29922173  0.70382799  0.89670818  1
  Zr  Zr13  1  0.90029601  0.89339154  0.50991548  1
  Zr  Zr14  1  0.49948282  0.10276954  0.90758731  1
  Zr  Zr15  1  0.70251285  0.29505785  0.70726647  1
  Zr  Zr16  1  0.70014196  0.11121107  0.49638045  1
  Zr  Zr17  1  0.90186382  0.49353416  0.10887648  1
  Zr  Zr18  1  0.89685586  0.09015640  0.89979206  1
  Zr  Zr19  1  0.50468651  0.30263154  0.30087284  1
  Zr  Zr20  1  0.90469867  0.30640926  0.29568547  1
  Zr  Zr21  1  0.89593092  0.10146488  0.69852892  1
  Zr  Zr22  1  0.30539542  0.09465629  0.69337121  1
  Zr  Zr23  1  0.89989606  0.70420551  0.89822964  1
  Zr  Zr24  1  0.70059743  0.09961237  0.69900770  1
  Zr  Zr25  1  0.50244442  0.10194810  0.70445615  1
  Zr  Zr26  1  0.30152858  0.49566058  0.30282390  1
  Zr  Zr27  1  0.09778900  0.70178677  0.49980055  1
  Zr  Zr28  1  0.69155174  0.49391199  0.30937284  1
  Zr  Zr29  1  0.48973703  0.10518087  0.50350524  1
  Zr  Zr30  1  0.30164663  0.88950176  0.90823476  1
  Zr  Zr31  1  0.69613245  0.50593529  0.50294492  1
  Zr  Zr32  1  0.49911467  0.50049030  0.28991594  1
  Zr  Zr33  1  0.89954347  0.70561637  0.70054458  1
  Zr  Zr34  1  0.48858922  0.89501455  0.29923817  1
  Zr  Zr35  1  0.49745106  0.29078808  0.10502714  1
  Zr  Zr36  1  0.09395703  0.50789272  0.10471368  1
  Zr  Zr37  1  0.30613085  0.70833780  0.30086736  1
  Zr  Zr38  1  0.10548799  0.29754458  0.69863904  1
  Zr  Zr39  1  0.70082833  0.70435418  0.09505344  1
  Zr  Zr40  1  0.70199327  0.30382070  0.49357693  1
  Zr  Zr41  1  0.30109000  0.49951070  0.50410180  1
  Zr  Zr42  1  0.50267710  0.30173102  0.89286090  1
  Zr  Zr43  1  0.69773067  0.49983992  0.89932106  1
  Zr  Zr44  1  0.70618674  0.89832068  0.69735768  1
  Zr  Zr45  1  0.50041098  0.70407490  0.50180307  1
  Zr  Zr46  1  0.69541931  0.09422961  0.89136103  1
  Zr  Zr47  1  0.10742481  0.29676274  0.89910310  1
  Zr  Zr48  1  0.09185858  0.29673076  0.49702287  1
  Zr  Zr49  1  0.89941663  0.89796280  0.70545072  1
  Sc  Sc50  1  0.69994639  0.50425241  0.70267025  1
  Sc  Sc51  1  0.09524283  0.49630186  0.30373097  1
  Sc  Sc52  1  0.11124374  0.50069333  0.69724413  1
  Sc  Sc53  1  0.69396560  0.69927795  0.29011619  1
  Sc  Sc54  1  0.69872089  0.30145549  0.89539818  1
  Sc  Sc55  1  0.68714994  0.89503312  0.28254658  1
  Sc  Sc56  1  0.10405500  0.10161264  0.09694173  1
  Sc  Sc57  1  0.89720799  0.09573754  0.29794667  1
  Sc  Sc58  1  0.49651721  0.90155589  0.69961890  1
  Sc  Sc59  1  0.69095497  0.70115654  0.50416148  1
  Sc  Sc60  1  0.29941859  0.50759046  0.89891668  1
  Sc  Sc61  1  0.49716968  0.29523991  0.49770452  1
  Sc  Sc62  1  0.09661259  0.89992390  0.30646988  1
  Sc  Sc63  1  0.50325599  0.91296802  0.90331006  1
  Sc  Sc64  1  0.50474670  0.50372777  0.89693602  1
  Sc  Sc65  1  0.30277014  0.10597305  0.90006530  1
  Sc  Sc66  1  0.30253132  0.29581482  0.30348090  1
  Sc  Sc67  1  0.30908998  0.10969743  0.09373159  1
  Sc  Sc68  1  0.90609054  0.89870095  0.28896645  1
  Sc  Sc69  1  0.09265442  0.90068763  0.10503455  1
  Sc  Sc70  1  0.10334328  0.29643369  0.10207867  1
  Sc  Sc71  1  0.49744079  0.50196552  0.69863728  1
  Sc  Sc72  1  0.69992983  0.28959592  0.30382443  1
  Sc  Sc73  1  0.70228800  0.09576266  0.10649634  1
  Sc  Sc74  1  0.89967390  0.90113905  0.89698948  1
  Sc  Sc75  1  0.08868444  0.89627942  0.69994358  1
  Sc  Sc76  1  0.29518705  0.70470763  0.50671170  1
  Sc  Sc77  1  0.90319500  0.10585845  0.50373566  1
  Sc  Sc78  1  0.89904634  0.69246005  0.10968114  1
  Sc  Sc79  1  0.69987341  0.69942026  0.69326906  1
  Sc  Sc80  1  0.09570317  0.09588377  0.69752928  1
  Sc  Sc81  1  0.50354395  0.69710095  0.90993154  1
  Sc  Sc82  1  0.09977651  0.51238893  0.89915003  1
  Sc  Sc83  1  0.31034139  0.70133017  0.08786539  1
  Sc  Sc84  1  0.70085424  0.51040148  0.10632163  1
  Sc  Sc85  1  0.50066172  0.68471943  0.10114451  1
  Sc  Sc86  1  0.10505908  0.69989763  0.70304565  1
  Sc  Sc87  1  0.49941920  0.70682004  0.68764162  1
  Sc  Sc88  1  0.11126325  0.49529102  0.49885083  1
  Sc  Sc89  1  0.90102752  0.50703941  0.30019110  1
  Sc  Sc90  1  0.29850073  0.29408732  0.89669358  1
  Sc  Sc91  1  0.29793843  0.50091080  0.69125233  1
  Sc  Sc92  1  0.10123183  0.09373258  0.48851835  1
  Sc  Sc93  1  0.30227194  0.30550543  0.70251535  1
  Sc  Sc94  1  0.50057816  0.70585856  0.29706119  1
  Sc  Sc95  1  0.70237183  0.69456207  0.90979861  1
  Sc  Sc96  1  0.30495884  0.89173923  0.69681121  1
  Sc  Sc97  1  0.10733279  0.70204534  0.89986471  1
  Sc  Sc98  1  0.09211543  0.70206548  0.30637984  1
  Sc  Sc99  1  0.50209156  0.10004222  0.29014180  1
  Nb  Nb100  1  0.69591181  0.89496290  0.49673030  1
  Nb  Nb101  1  0.90257262  0.70260577  0.30996117  1
  Nb  Nb102  1  0.89266783  0.90754050  0.09452259  1
  Nb  Nb103  1  0.89825767  0.10105667  0.10112726  1
  Nb  Nb104  1  0.90225108  0.29882107  0.51203164  1
  Nb  Nb105  1  0.90364949  0.30128214  0.69404006  1
  Nb  Nb106  1  0.10282786  0.70063977  0.10026692  1
  Nb  Nb107  1  0.50117009  0.10251425  0.09255538  1
  Nb  Nb108  1  0.29954456  0.30370855  0.09720957  1
  Nb  Nb109  1  0.49293926  0.49613183  0.10269913  1
  Nb  Nb110  1  0.10172213  0.10470385  0.29751647  1
  Nb  Nb111  1  0.50724713  0.89132434  0.49610246  1
  Nb  Nb112  1  0.69984776  0.09478681  0.30629635  1
  Nb  Nb113  1  0.29863966  0.10295130  0.50162989  1
  Nb  Nb114  1  0.09893094  0.89954588  0.90267985  1
  Nb  Nb115  1  0.50273967  0.50422444  0.49997418  1
  Nb  Nb116  1  0.10211144  0.29651694  0.29936466  1
  Nb  Nb117  1  0.50456685  0.30309876  0.70243103  1
  Nb  Nb118  1  0.89821924  0.29682584  0.10086954  1
  Nb  Nb119  1  0.89919563  0.50029857  0.70029612  1
  Nb  Nb120  1  0.30088775  0.89934140  0.10312334  1
  Nb  Nb121  1  0.30174480  0.89851674  0.29338643  1
  Nb  Nb122  1  0.30384044  0.69689090  0.69784257  1
  Nb  Nb123  1  0.70870712  0.89544013  0.09699459  1
  Nb  Nb124  1  0.30984335  0.50254597  0.10737236  1
  Nb  Nb125  1  0.20320060  0.40505872  0.00864906  1
  Nb  Nb126  1  0.60038863  -0.00256095  0.59030583  1
  Nb  Nb127  1  0.60340247  0.80280161  0.80327972  1
  Nb  Nb128  1  -0.00524160  0.39963600  0.79868445  1
  Nb  Nb129  1  0.59691054  0.39774378  0.60013509  1
  Nb  Nb130  1  0.79121086  -0.00835857  0.39977543  1
  Nb  Nb131  1  0.59565350  0.39936427  0.00888701  1
  Nb  Nb132  1  0.00045133  0.80150861  0.00467679  1
  Nb  Nb133  1  -0.00020120  0.39569796  -0.00255084  1
  Nb  Nb134  1  0.39952031  0.40109825  0.00572948  1
  Nb  Nb135  1  -0.00930334  0.20255927  0.00101208  1
  Nb  Nb136  1  0.20347726  0.40256484  0.19697919  1
  Nb  Nb137  1  0.20286783  0.60301183  0.19800785  1
  Nb  Nb138  1  0.20008538  -0.00706286  0.80590861  1
  Nb  Nb139  1  -0.00201756  0.19908646  0.19705493  1
  Nb  Nb140  1  -0.00594567  0.20635228  0.80208878  1
  Nb  Nb141  1  0.60061823  -0.00290725  0.40150230  1
  Nb  Nb142  1  0.40227488  0.59781737  0.40409331  1
  Nb  Nb143  1  0.39643852  0.60943303  0.79505475  1
  Nb  Nb144  1  0.20278745  0.80027381  0.19578244  1
  Nb  Nb145  1  0.20381385  0.19473862  0.59342957  1
  Nb  Nb146  1  0.79676224  0.80377398  0.39593894  1
  Nb  Nb147  1  0.20342523  -0.00836043  0.00129252  1
  Nb  Nb148  1  -0.00400774  0.59589937  0.60168010  1
  Nb  Nb149  1  0.20566869  -0.00263048  0.20144463  1
  Pd  Pd150  1  0.58851009  0.79892446  0.18658403  1
  Pd  Pd151  1  0.81281614  0.19842497  0.39756508  1
  Pd  Pd152  1  0.60967856  0.20518790  -0.00109411  1
  Pd  Pd153  1  0.39232017  -0.00266683  0.80745741  1
  Pd  Pd154  1  0.40775460  0.39654115  0.60001448  1
  Pd  Pd155  1  0.20774379  0.59771141  0.00656371  1
  Pd  Pd156  1  0.39444323  0.19657269  0.20617471  1
  Pd  Pd157  1  0.60904076  0.39771455  0.19287363  1
  Pd  Pd158  1  -0.00313964  0.40391033  0.40367802  1
  Pd  Pd159  1  0.19645324  -0.00119760  0.60461250  1
  Pd  Pd160  1  0.39743335  0.41253363  0.80510832  1
  Pd  Pd161  1  0.79495711  0.00252622  0.59088410  1
  Pd  Pd162  1  -0.00580423  0.19728585  0.39216650  1
  Pd  Pd163  1  0.20525851  0.60567518  0.39505444  1
  Pd  Pd164  1  0.00406013  -0.00065627  0.00385100  1
  Pd  Pd165  1  0.19951620  0.41014561  0.80897312  1
  Pd  Pd166  1  0.40676898  0.40369988  0.40187218  1
  Pd  Pd167  1  0.79383655  0.60639642  0.79666278  1
  Pd  Pd168  1  0.00208186  0.00370976  0.59630773  1
  Pd  Pd169  1  0.78914906  0.39740755  0.60725642  1
  Pd  Pd170  1  0.79280608  0.40222813  0.20903409  1
  Pd  Pd171  1  0.40539001  -0.01044052  0.59203727  1
  Pd  Pd172  1  0.19925674  0.80346130  0.60433458  1
  Pd  Pd173  1  0.79101720  0.60920958  0.39506816  1
  Pd  Pd174  1  0.59386523  0.60794522  0.39561937  1
  Pd  Pd175  1  -0.00670311  0.60513456  0.00164143  1
  Pd  Pd176  1  0.60634659  0.19328994  0.20157299  1
  Pd  Pd177  1  0.60988716  -0.00101249  0.00841639  1
  Pd  Pd178  1  0.59270460  0.80633383  0.00117602  1
  Pd  Pd179  1  0.79519770  0.18974516  -0.00319531  1
  Pd  Pd180  1  0.20119622  0.19830210  0.19792728  1
  Pd  Pd181  1  0.80605944  0.39707067  0.39588540  1
  Pd  Pd182  1  0.59196836  0.61249064  0.79276960  1
  Pd  Pd183  1  0.19707932  0.80538707  0.79212494  1
  Pd  Pd184  1  0.00213890  0.58901070  0.40883902  1
  Pd  Pd185  1  0.59791829  0.20433713  0.59990024  1
  Pd  Pd186  1  0.41398698  0.79461045  0.80197695  1
  Pd  Pd187  1  0.79425641  0.40880687  0.00641328  1
  Pd  Pd188  1  0.40753115  0.00180812  0.40017035  1
  Pd  Pd189  1  0.79872136  0.60126340  0.20903341  1
  Pd  Pd190  1  0.39228836  0.01450037  0.19936898  1
  Pd  Pd191  1  -0.00939847  -0.00232481  0.40010452  1
  Pd  Pd192  1  0.41542301  0.80297647  0.00591588  1
  Pd  Pd193  1  0.79566022  -0.00292343  0.20475395  1
  Pd  Pd194  1  0.00530331  0.59704599  0.79138465  1
  Pd  Pd195  1  0.00790220  0.00801890  0.19753758  1
  Pd  Pd196  1  0.00110863  0.79534969  0.19512200  1
  Pd  Pd197  1  0.39846926  0.20114894  0.79644446  1
  Pd  Pd198  1  0.00721359  0.40897127  0.60532291  1
  Pd  Pd199  1  0.80685301  0.79718578  0.20351088  1
  Rh  Rh200  1  0.81309309  0.79607834  0.00658629  1
  Rh  Rh201  1  0.59987283  0.58785249  0.00544959  1
  Rh  Rh202  1  0.59800010  0.19771305  0.80289364  1
  Rh  Rh203  1  -0.00942125  0.80689850  0.40103517  1
  Rh  Rh204  1  0.00969001  0.38995982  0.19494460  1
  Rh  Rh205  1  0.40031300  0.79495811  0.18884627  1
  Rh  Rh206  1  0.59657088  0.59230368  0.60472928  1
  Rh  Rh207  1  0.39972566  0.60250048  0.59795332  1
  Rh  Rh208  1  0.79618635  0.79281508  0.59234272  1
  Rh  Rh209  1  0.79120039  0.79507828  0.80299684  1
  Rh  Rh210  1  0.80385277  0.59886953  0.00476514  1
  Rh  Rh211  1  0.80030611  0.20570644  0.59952010  1
  Rh  Rh212  1  0.19941961  0.38795466  0.59249198  1
  Rh  Rh213  1  0.19374351  0.60542917  0.59965638  1
  Rh  Rh214  1  0.19623956  0.39086542  0.39334017  1
  Rh  Rh215  1  0.18870781  0.80607083  0.01044237  1
  Rh  Rh216  1  0.60016601  0.80972199  0.60991391  1
  Rh  Rh217  1  0.39481053  0.38884477  0.19915856  1
  Rh  Rh218  1  0.20165398  0.18575953  0.78277606  1
  Rh  Rh219  1  0.19523161  0.20438385  0.40719450  1
  Rh  Rh220  1  0.39679399  0.60696214  0.20946677  1
  Rh  Rh221  1  0.00296523  0.00235462  0.79780346  1
  Rh  Rh222  1  0.40184634  0.20900714  -0.00452709  1
  Rh  Rh223  1  0.60065967  0.00264649  0.19812617  1
  Rh  Rh224  1  0.39593783  0.80513240  0.59240811  1
  Rh  Rh225  1  0.59195137  0.19378690  0.39522604  1
  Rh  Rh226  1  0.20093532  0.80269586  0.39230721  1
  Rh  Rh227  1  0.00463149  0.79890277  0.81045101  1
  Rh  Rh228  1  0.80535752  0.19543744  0.20754129  1
  Rh  Rh229  1  0.60188925  -0.00843978  0.78919036  1
  Rh  Rh230  1  0.80124803  0.40324567  0.79187898  1
  Rh  Rh231  1  0.20919417  0.60117477  0.79493400  1
  Rh  Rh232  1  0.00718796  0.19557207  0.60389517  1
  Rh  Rh233  1  0.80472826  0.19696035  0.79861294  1
  Rh  Rh234  1  0.60158441  0.40302344  0.79656633  1
  Rh  Rh235  1  0.39697065  0.79547091  0.40804367  1
  Rh  Rh236  1  0.00358789  0.60830111  0.20931978  1
  Rh  Rh237  1  0.19895748  0.19876551  0.00331289  1
  Rh  Rh238  1  0.59312938  0.39901383  0.40878471  1
  Rh  Rh239  1  0.19571509  -0.00532340  0.39389660  1
  Rh  Rh240  1  0.39271336  0.00316202  -0.00000410  1
  Rh  Rh241  1  0.79522925  0.00362085  0.00231914  1
  Rh  Rh242  1  0.40600008  0.19561718  0.39363307  1
  Rh  Rh243  1  0.80467656  0.60277956  0.60340941  1
  Rh  Rh244  1  0.80055292  -0.00306084  0.79996683  1
  Rh  Rh245  1  0.39340011  0.20771224  0.60767749  1
  Rh  Rh246  1  0.40296184  0.59123900  -0.01116355  1
  Rh  Rh247  1  0.59988918  0.59851841  0.19889979  1
  Rh  Rh248  1  0.00388835  0.79045997  0.60264197  1
  Rh  Rh249  1  0.60526013  0.80169137  0.39068119  1
