# generated using pymatgen
data_ZrScNbPdRh
_symmetry_space_group_name_H-M   'P 1'
_cell_length_a   16.56018752
_cell_length_b   16.55734947
_cell_length_c   16.56084262
_cell_angle_alpha   89.98129739
_cell_angle_beta   89.98324315
_cell_angle_gamma   90.01889491
_symmetry_Int_Tables_number   1
_chemical_formula_structural   ZrScNbPdRh
_chemical_formula_sum   'Zr50 Sc50 Nb50 Pd50 Rh50'
_cell_volume   4540.86332563
_cell_formula_units_Z   50
loop_
 _symmetry_equiv_pos_site_id
 _symmetry_equiv_pos_as_xyz
  1  'x, y, z'
loop_
 _atom_site_type_symbol
 _atom_site_label
 _atom_site_symmetry_multiplicity
 _atom_site_fract_x
 _atom_site_fract_y
 _atom_site_fract_z
 _atom_site_occupancy
  Zr  Zr0  1  0.51024376  0.70448790  0.30421290  1
  Zr  Zr1  1  0.69489744  0.70462862  0.49308144  1
  Zr  Zr2  1  0.90265351  0.30027934  0.29976139  1
  Zr  Zr3  1  0.49686925  0.70378661  0.70887321  1
  Zr  Zr4  1  0.90306851  0.90381455  0.31357961  1
  Zr  Zr5  1  0.30165912  0.30111835  0.70242657  1
  Zr  Zr6  1  0.29640310  0.09396568  0.69282792  1
  Zr  Zr7  1  0.30085537  0.90548578  0.10316506  1
  Zr  Zr8  1  0.50351399  0.49481444  0.10094610  1
  Zr  Zr9  1  0.09547353  0.09789485  0.10476837  1
  Zr  Zr10  1  0.49939256  0.49063663  0.69846158  1
  Zr  Zr11  1  0.69967048  0.09532589  0.89679059  1
  Zr  Zr12  1  0.09784280  0.69519350  0.29919746  1
  Zr  Zr13  1  0.89235573  0.89891012  0.69312723  1
  Zr  Zr14  1  0.50560098  0.70149053  0.10058272  1
  Zr  Zr15  1  0.49782425  0.50463835  0.49724828  1
  Zr  Zr16  1  0.69740592  0.29497979  0.29911301  1
  Zr  Zr17  1  0.49950922  0.29771660  0.29671609  1
  Zr  Zr18  1  0.50475501  0.10032744  0.90218477  1
  Zr  Zr19  1  0.70251796  0.91249222  0.70089544  1
  Zr  Zr20  1  0.09996640  0.49918922  0.30266305  1
  Zr  Zr21  1  0.29679409  0.49990340  0.69128504  1
  Zr  Zr22  1  0.89472598  0.09526801  0.10019449  1
  Zr  Zr23  1  0.70722773  0.50009690  0.90488952  1
  Zr  Zr24  1  0.89406957  0.69717442  0.89818480  1
  Zr  Zr25  1  0.49737318  0.50436458  0.89437984  1
  Zr  Zr26  1  0.69946576  0.30388680  0.69322832  1
  Zr  Zr27  1  0.09290357  0.29147491  0.70524629  1
  Zr  Zr28  1  0.09296160  0.89720277  0.09713923  1
  Zr  Zr29  1  0.10069986  0.09340868  0.30568975  1
  Zr  Zr30  1  0.09021858  0.48984400  0.89608941  1
  Zr  Zr31  1  0.69893100  0.10544439  0.09540949  1
  Zr  Zr32  1  0.88735318  0.30300131  0.10621240  1
  Zr  Zr33  1  0.70498878  0.29814887  0.50200318  1
  Zr  Zr34  1  0.29123106  0.89179138  0.90103170  1
  Zr  Zr35  1  0.08727762  0.90344384  0.49051869  1
  Zr  Zr36  1  0.29591415  0.49833671  0.30271506  1
  Zr  Zr37  1  0.29043636  0.29982924  0.90529980  1
  Zr  Zr38  1  0.29993503  0.69306678  0.89363352  1
  Zr  Zr39  1  0.49907122  0.69791997  0.89753515  1
  Zr  Zr40  1  0.50405787  0.90638023  0.29513852  1
  Zr  Zr41  1  0.29539604  0.50075731  0.50176282  1
  Zr  Zr42  1  0.10256210  0.70388821  0.89780152  1
  Zr  Zr43  1  0.10036376  0.89461072  0.29557822  1
  Zr  Zr44  1  0.50432208  0.10437314  0.29425056  1
  Zr  Zr45  1  0.70649251  0.48784188  0.09323086  1
  Zr  Zr46  1  0.29270970  0.69765852  0.70139764  1
  Zr  Zr47  1  0.50314474  0.90070135  0.49938442  1
  Zr  Zr48  1  0.69874698  0.90225948  0.30647498  1
  Zr  Zr49  1  0.49246826  0.09598823  0.10063360  1
  Sc  Sc50  1  0.29006308  0.69480921  0.10365922  1
  Sc  Sc51  1  0.89542636  0.09688045  0.89905306  1
  Sc  Sc52  1  0.29438650  0.49833531  0.89287498  1
  Sc  Sc53  1  0.70012185  0.90194528  0.09601809  1
  Sc  Sc54  1  0.31437401  0.10817847  0.90394352  1
  Sc  Sc55  1  0.69967680  0.10018492  0.30226964  1
  Sc  Sc56  1  0.70667526  0.90167156  0.89792931  1
  Sc  Sc57  1  0.89602322  0.10165807  0.29511280  1
  Sc  Sc58  1  0.91340892  0.49677341  0.51131450  1
  Sc  Sc59  1  0.09852306  0.29892337  0.08432844  1
  Sc  Sc60  1  0.49383790  0.70460655  0.49462017  1
  Sc  Sc61  1  0.69168482  0.49057932  0.50347293  1
  Sc  Sc62  1  0.50532680  0.29691981  0.10745799  1
  Sc  Sc63  1  0.90111483  0.10264245  0.69203756  1
  Sc  Sc64  1  0.90910997  0.50127578  0.28821115  1
  Sc  Sc65  1  0.69559153  0.70180958  0.29779508  1
  Sc  Sc66  1  0.91029138  0.50364532  0.70269871  1
  Sc  Sc67  1  0.69647261  0.49215009  0.69968042  1
  Sc  Sc68  1  0.29959642  0.89751844  0.50683432  1
  Sc  Sc69  1  0.90159834  0.69909037  0.70110973  1
  Sc  Sc70  1  0.70339905  0.70072791  0.09902686  1
  Sc  Sc71  1  0.50138389  0.09144869  0.71267809  1
  Sc  Sc72  1  0.89843199  0.29908414  0.51536683  1
  Sc  Sc73  1  0.70849333  0.71485446  0.70936875  1
  Sc  Sc74  1  0.30999180  0.89661172  0.69410304  1
  Sc  Sc75  1  0.29528258  0.49880555  0.10028493  1
  Sc  Sc76  1  0.69263049  0.50395446  0.29858484  1
  Sc  Sc77  1  0.09429990  0.70836429  0.10946494  1
  Sc  Sc78  1  0.10793083  0.90250974  0.68310207  1
  Sc  Sc79  1  0.50912105  0.30635367  0.49156061  1
  Sc  Sc80  1  0.49150740  0.28821787  0.88947470  1
  Sc  Sc81  1  0.90214313  0.71379181  0.50390387  1
  Sc  Sc82  1  0.28693937  0.70058811  0.30262469  1
  Sc  Sc83  1  0.51082659  0.09846737  0.49449030  1
  Sc  Sc84  1  0.30119849  0.69755542  0.50199808  1
  Sc  Sc85  1  0.10350265  0.49760992  0.50397011  1
  Sc  Sc86  1  0.28991704  0.30143457  0.49487375  1
  Sc  Sc87  1  0.10854459  0.09806915  0.51138226  1
  Sc  Sc88  1  0.09132885  0.12021720  0.89993453  1
  Sc  Sc89  1  0.70272238  0.70816525  0.89856285  1
  Sc  Sc90  1  0.09757615  0.50294634  0.69481495  1
  Sc  Sc91  1  0.50291742  0.49307875  0.30525001  1
  Sc  Sc92  1  0.50744398  0.90181227  0.89546115  1
  Sc  Sc93  1  0.69522777  0.29679035  0.90962891  1
  Sc  Sc94  1  0.50767527  0.90881140  0.10077643  1
  Sc  Sc95  1  0.91992434  0.29952577  0.89732715  1
  Sc  Sc96  1  0.70397820  0.09587809  0.49883251  1
  Sc  Sc97  1  0.09971316  0.69559989  0.50308180  1
  Sc  Sc98  1  0.29118757  0.90220354  0.30088892  1
  Sc  Sc99  1  0.89572770  0.90105836  0.91048606  1
  Nb  Nb100  1  0.09800424  0.89954416  0.90382620  1
  Nb  Nb101  1  0.69984424  0.10139824  0.70289272  1
  Nb  Nb102  1  0.50591857  0.89966756  0.69494188  1
  Nb  Nb103  1  0.50103232  0.29437488  0.69955001  1
  Nb  Nb104  1  0.70728518  0.90224049  0.50380992  1
  Nb  Nb105  1  0.90375851  0.89157987  0.09974781  1
  Nb  Nb106  1  0.30550121  0.10668227  0.30076760  1
  Nb  Nb107  1  0.10376033  0.30112366  0.30602773  1
  Nb  Nb108  1  0.09747760  0.69250017  0.70331669  1
  Nb  Nb109  1  0.30129392  0.29733127  0.09970231  1
  Nb  Nb110  1  0.10320310  0.30368585  0.89616827  1
  Nb  Nb111  1  0.10107082  0.49882485  0.09999319  1
  Nb  Nb112  1  0.29949500  0.29606700  0.29674841  1
  Nb  Nb113  1  0.30389441  0.10281373  0.10340843  1
  Nb  Nb114  1  0.70164289  0.30251730  0.10277695  1
  Nb  Nb115  1  0.30514023  0.10295921  0.49829609  1
  Nb  Nb116  1  0.10340211  0.09634542  0.70425584  1
  Nb  Nb117  1  0.89408920  0.50360957  0.09069703  1
  Nb  Nb118  1  0.89445350  0.30248799  0.69757594  1
  Nb  Nb119  1  0.09777716  0.30438239  0.49799439  1
  Nb  Nb120  1  0.90119821  0.09861030  0.49712209  1
  Nb  Nb121  1  0.88942986  0.90826049  0.50148736  1
  Nb  Nb122  1  0.89681630  0.50116800  0.90179024  1
  Nb  Nb123  1  0.90003620  0.70198364  0.10037675  1
  Nb  Nb124  1  0.89921064  0.69636906  0.29433400  1
  Nb  Nb125  1  0.80470121  0.59649078  0.40325511  1
  Nb  Nb126  1  0.80435556  0.40472825  0.40104649  1
  Nb  Nb127  1  0.19812022  0.38982171  0.20062040  1
  Nb  Nb128  1  0.20468223  0.20163553  0.20278704  1
  Nb  Nb129  1  0.18643593  0.59515468  -0.00051027  1
  Nb  Nb130  1  -0.00511141  0.59697292  0.00310552  1
  Nb  Nb131  1  0.60114520  0.60847331  0.60363644  1
  Nb  Nb132  1  0.40588135  0.19986398  0.59967435  1
  Nb  Nb133  1  0.79380182  0.60220580  0.59414274  1
  Nb  Nb134  1  0.39973994  0.79665276  0.00340158  1
  Nb  Nb135  1  0.80681833  0.39621827  0.80277678  1
  Nb  Nb136  1  0.19333505  0.00119774  0.80682925  1
  Nb  Nb137  1  0.59841514  0.19876828  0.60732827  1
  Nb  Nb138  1  0.39565202  0.00812741  0.39755347  1
  Nb  Nb139  1  0.00601743  0.80806516  0.79986813  1
  Nb  Nb140  1  0.80980454  0.80084561  0.20141879  1
  Nb  Nb141  1  0.40312556  0.60375567  0.20277911  1
  Nb  Nb142  1  0.80046305  0.20645410  0.79351076  1
  Nb  Nb143  1  0.39647639  0.39586192  0.00173077  1
  Nb  Nb144  1  0.60123851  0.80452819  0.60230593  1
  Nb  Nb145  1  0.19668543  0.00465508  -0.00326839  1
  Nb  Nb146  1  0.00793964  -0.00355929  0.79766925  1
  Nb  Nb147  1  0.60049508  0.59660442  -0.00252407  1
  Nb  Nb148  1  0.40158839  0.79685030  0.19792503  1
  Nb  Nb149  1  0.00517829  0.20274611  0.40502571  1
  Pd  Pd150  1  0.39482317  0.39340460  0.40380404  1
  Pd  Pd151  1  0.79581525  0.40685017  0.21170214  1
  Pd  Pd152  1  0.19535773  0.19759763  0.39925617  1
  Pd  Pd153  1  0.80161204  0.79297609  0.39437777  1
  Pd  Pd154  1  0.39655546  -0.00903668  -0.00842870  1
  Pd  Pd155  1  0.80652118  0.20567652  -0.00945084  1
  Pd  Pd156  1  -0.00723182  -0.00425971  0.20347266  1
  Pd  Pd157  1  0.00639809  0.39402480  0.18970943  1
  Pd  Pd158  1  0.20246760  0.00581252  0.19652025  1
  Pd  Pd159  1  0.00692302  0.20565085  0.20369833  1
  Pd  Pd160  1  0.59880316  0.79925825  -0.00264522  1
  Pd  Pd161  1  0.00249655  0.19770524  0.59634671  1
  Pd  Pd162  1  0.59311891  0.20302834  0.00440559  1
  Pd  Pd163  1  0.19413950  0.40282305  0.79050627  1
  Pd  Pd164  1  0.39732837  0.39946929  0.80582965  1
  Pd  Pd165  1  0.39371128  0.80908104  0.39130429  1
  Pd  Pd166  1  0.60422134  0.39180883  0.80846806  1
  Pd  Pd167  1  0.39589412  0.59742117  0.00869253  1
  Pd  Pd168  1  0.39729952  0.60497783  0.39031571  1
  Pd  Pd169  1  0.58758743  0.39579096  -0.00867130  1
  Pd  Pd170  1  0.20740508  0.00039090  0.40834688  1
  Pd  Pd171  1  0.60094644  0.59560831  0.19373226  1
  Pd  Pd172  1  0.79581298  0.59216276  0.78820719  1
  Pd  Pd173  1  0.40837665  0.00814134  0.59210347  1
  Pd  Pd174  1  0.20218076  0.79598305  0.00948214  1
  Pd  Pd175  1  0.79467146  0.60227753  0.20223616  1
  Pd  Pd176  1  0.80902564  0.20297513  0.40232126  1
  Pd  Pd177  1  0.20568767  0.19150495  0.80367147  1
  Pd  Pd178  1  0.39407781  0.40544636  0.19623516  1
  Pd  Pd179  1  -0.00739996  0.60210374  0.40765606  1
  Pd  Pd180  1  0.20398809  0.20517882  0.59897020  1
  Pd  Pd181  1  0.19292312  0.80890909  0.78554408  1
  Pd  Pd182  1  0.19890530  0.79773609  0.40852154  1
  Pd  Pd183  1  0.00214556  0.00567918  -0.00755097  1
  Pd  Pd184  1  -0.00940140  0.19973577  0.00504329  1
  Pd  Pd185  1  0.19736146  0.79648348  0.59624067  1
  Pd  Pd186  1  -0.00085970  0.79242027  0.39806318  1
  Pd  Pd187  1  0.00195305  0.59772615  0.19045299  1
  Pd  Pd188  1  -0.00637645  0.39635413  0.40555571  1
  Pd  Pd189  1  -0.00190267  0.00221571  0.60173181  1
  Pd  Pd190  1  0.00337940  0.79773075  0.60652751  1
  Pd  Pd191  1  0.19983997  0.19121792  0.00419334  1
  Pd  Pd192  1  0.61256020  0.60244968  0.79806129  1
  Pd  Pd193  1  0.39348950  -0.00552370  0.80480637  1
  Pd  Pd194  1  -0.00727663  0.40062721  0.00638626  1
  Pd  Pd195  1  0.79741330  -0.00725934  0.19775513  1
  Pd  Pd196  1  0.40672371  0.20123812  0.40861290  1
  Pd  Pd197  1  0.40655419  0.60686495  0.60338533  1
  Pd  Pd198  1  0.40164817  0.80848360  0.80431908  1
  Pd  Pd199  1  0.40144023  0.38815005  0.58929925  1
  Rh  Rh200  1  0.19999873  0.59120921  0.19685359  1
  Rh  Rh201  1  0.20187686  0.80206780  0.19864655  1
  Rh  Rh202  1  0.19223347  0.39255689  0.60297454  1
  Rh  Rh203  1  0.60343566  0.80926693  0.79478329  1
  Rh  Rh204  1  0.80876155  0.38732227  -0.01005430  1
  Rh  Rh205  1  0.60507741  0.19749724  0.19506630  1
  Rh  Rh206  1  0.60366403  0.59496391  0.40834158  1
  Rh  Rh207  1  0.40732722  0.79532380  0.60195553  1
  Rh  Rh208  1  0.79343051  0.19084764  0.60352567  1
  Rh  Rh209  1  0.80026316  0.80051932  0.00698211  1
  Rh  Rh210  1  0.61008416  0.00616027  0.19560450  1
  Rh  Rh211  1  0.80059117  0.00631713  0.40163960  1
  Rh  Rh212  1  0.80165222  0.00987728  0.59746011  1
  Rh  Rh213  1  0.39279496  0.59236075  0.78835163  1
  Rh  Rh214  1  0.60962838  0.20163825  0.79496555  1
  Rh  Rh215  1  -0.00876360  0.19351254  0.79376718  1
  Rh  Rh216  1  0.00765902  0.39423276  0.60673837  1
  Rh  Rh217  1  0.79969098  -0.00288737  0.00606301  1
  Rh  Rh218  1  0.20048971  0.40140171  0.39771362  1
  Rh  Rh219  1  0.00254724  0.60619399  0.80697768  1
  Rh  Rh220  1  0.19652335  0.60323112  0.60013716  1
  Rh  Rh221  1  0.20406614  0.40417828  0.00396704  1
  Rh  Rh222  1  0.60103795  -0.00321443  0.80261735  1
  Rh  Rh223  1  0.39393686  -0.00424435  0.21068439  1
  Rh  Rh224  1  0.79827433  0.60631643  0.00254932  1
  Rh  Rh225  1  0.60614345  0.39655878  0.20355377  1
  Rh  Rh226  1  0.39724414  0.20081025  0.19600756  1
  Rh  Rh227  1  0.60197498  0.80917502  0.40465045  1
  Rh  Rh228  1  0.80676952  0.41592961  0.60295401  1
  Rh  Rh229  1  -0.00730067  0.80255195  0.20923811  1
  Rh  Rh230  1  -0.00466174  0.60795870  0.59945326  1
  Rh  Rh231  1  -0.00356253  0.01071651  0.40406549  1
  Rh  Rh232  1  0.60617269  0.80680305  0.20047916  1
  Rh  Rh233  1  0.60268305  0.00190682  0.60085406  1
  Rh  Rh234  1  0.19688999  0.59752205  0.40592890  1
  Rh  Rh235  1  0.20351074  -0.00249146  0.59685747  1
  Rh  Rh236  1  0.19426914  0.59130007  0.80217158  1
  Rh  Rh237  1  0.39412790  0.19524225  0.78898302  1
  Rh  Rh238  1  0.60869900  0.39939182  0.39460175  1
  Rh  Rh239  1  -0.00767879  0.78959302  -0.00835118  1
  Rh  Rh240  1  0.40744059  0.20863881  0.00862826  1
  Rh  Rh241  1  0.81129311  0.80958414  0.80430319  1
  Rh  Rh242  1  0.79320043  0.79724528  0.59758565  1
  Rh  Rh243  1  0.59975192  -0.00078745  0.40138654  1
  Rh  Rh244  1  0.60337212  0.00049866  -0.00300638  1
  Rh  Rh245  1  0.60282627  0.19941442  0.40624761  1
  Rh  Rh246  1  -0.00347006  0.39755329  0.79326163  1
  Rh  Rh247  1  0.59009055  0.39809499  0.59817772  1
  Rh  Rh248  1  0.79465562  0.19659608  0.19969236  1
  Rh  Rh249  1  0.80982974  0.00744876  0.79645693  1
