# generated using pymatgen
data_ZrScNbPdRh
_symmetry_space_group_name_H-M   'P 1'
_cell_length_a   16.55895766
_cell_length_b   16.56026125
_cell_length_c   16.56077602
_cell_angle_alpha   89.96249888
_cell_angle_beta   90.01899812
_cell_angle_gamma   89.98725319
_symmetry_Int_Tables_number   1
_chemical_formula_structural   ZrScNbPdRh
_chemical_formula_sum   'Zr50 Sc50 Nb50 Pd50 Rh50'
_cell_volume   4541.30567805
_cell_formula_units_Z   50
loop_
 _symmetry_equiv_pos_site_id
 _symmetry_equiv_pos_as_xyz
  1  'x, y, z'
loop_
 _atom_site_type_symbol
 _atom_site_label
 _atom_site_symmetry_multiplicity
 _atom_site_fract_x
 _atom_site_fract_y
 _atom_site_fract_z
 _atom_site_occupancy
  Zr  Zr0  1  0.29182221  0.49707405  0.09291912  1
  Zr  Zr1  1  0.30852552  0.30329654  0.10859200  1
  Zr  Zr2  1  0.10008275  0.50387103  0.30258013  1
  Zr  Zr3  1  0.10167841  0.30725562  0.69969255  1
  Zr  Zr4  1  0.09734530  0.09765239  0.70032255  1
  Zr  Zr5  1  0.70337694  0.29564054  0.10930955  1
  Zr  Zr6  1  0.29723833  0.49647176  0.50338363  1
  Zr  Zr7  1  0.89854714  0.30346014  0.70273410  1
  Zr  Zr8  1  0.90009019  0.10646669  0.70247945  1
  Zr  Zr9  1  0.49855777  0.10319056  0.49787735  1
  Zr  Zr10  1  0.49489898  0.90132761  0.29012509  1
  Zr  Zr11  1  0.90291728  0.89556718  0.29443210  1
  Zr  Zr12  1  0.10786750  0.49923095  0.89476517  1
  Zr  Zr13  1  0.70194956  0.10402475  0.28861227  1
  Zr  Zr14  1  0.90249406  0.69936572  0.69951438  1
  Zr  Zr15  1  0.90849770  0.89407008  0.69642438  1
  Zr  Zr16  1  0.10409153  0.10680911  0.49847019  1
  Zr  Zr17  1  0.70325696  0.50155177  0.10687092  1
  Zr  Zr18  1  0.29887923  0.69558016  0.09125744  1
  Zr  Zr19  1  0.30042318  0.50498882  0.28927822  1
  Zr  Zr20  1  0.69831278  0.49830507  0.30261324  1
  Zr  Zr21  1  0.10104193  0.10575196  0.10127589  1
  Zr  Zr22  1  0.69524864  0.89784371  0.90968211  1
  Zr  Zr23  1  0.49865452  0.29759652  0.29271406  1
  Zr  Zr24  1  0.90765299  0.09974385  0.50613633  1
  Zr  Zr25  1  0.09289589  0.70468393  0.70437502  1
  Zr  Zr26  1  0.10011207  0.69358178  0.30226339  1
  Zr  Zr27  1  0.70521731  0.89771649  0.49958158  1
  Zr  Zr28  1  0.70372963  0.68600342  0.69459873  1
  Zr  Zr29  1  0.49546110  0.70363301  0.30208434  1
  Zr  Zr30  1  0.29546865  0.31229195  0.90557143  1
  Zr  Zr31  1  0.09230715  0.50016974  0.49630998  1
  Zr  Zr32  1  0.70115314  0.70158032  0.09335788  1
  Zr  Zr33  1  0.49342237  0.69687733  0.89593792  1
  Zr  Zr34  1  0.29749957  0.69721453  0.89456573  1
  Zr  Zr35  1  0.51183140  0.91354726  0.49755909  1
  Zr  Zr36  1  0.69704150  0.49590632  0.70071832  1
  Zr  Zr37  1  0.69814843  0.30325066  0.29638151  1
  Zr  Zr38  1  0.10925539  0.29378422  0.09296198  1
  Zr  Zr39  1  0.89957632  0.49967445  0.08899975  1
  Zr  Zr40  1  0.50353030  0.30525657  0.70018889  1
  Zr  Zr41  1  0.09327415  0.50101880  0.69927042  1
  Zr  Zr42  1  0.69483866  0.50807429  0.49942538  1
  Zr  Zr43  1  0.49561677  0.10107601  0.70098860  1
  Zr  Zr44  1  0.69343943  0.89870247  0.09878703  1
  Zr  Zr45  1  0.49461235  0.69518036  0.70288871  1
  Zr  Zr46  1  0.70123099  0.69210889  0.30181258  1
  Zr  Zr47  1  0.50056823  0.09971716  0.90643583  1
  Zr  Zr48  1  0.29975593  0.10354979  0.09798438  1
  Zr  Zr49  1  0.70220316  0.50182117  0.89517708  1
  Sc  Sc50  1  0.29924277  0.70118720  0.49451842  1
  Sc  Sc51  1  0.49271819  0.50028986  0.11084950  1
  Sc  Sc52  1  0.49634673  0.30058493  0.50974507  1
  Sc  Sc53  1  0.30321832  0.70560847  0.69769273  1
  Sc  Sc54  1  0.70287831  0.30523046  0.89496120  1
  Sc  Sc55  1  0.90228341  0.29855225  0.90099376  1
  Sc  Sc56  1  0.10214478  0.89180998  0.70150954  1
  Sc  Sc57  1  0.90689968  0.10504147  0.29290283  1
  Sc  Sc58  1  0.09881078  0.90218310  0.50439917  1
  Sc  Sc59  1  0.31143846  0.10291229  0.30859629  1
  Sc  Sc60  1  0.49699675  0.90229843  0.90494361  1
  Sc  Sc61  1  0.88531971  0.70455077  0.50851330  1
  Sc  Sc62  1  0.49644709  0.09311637  0.30025185  1
  Sc  Sc63  1  0.90096573  0.69506190  0.29467569  1
  Sc  Sc64  1  0.49423102  0.30256558  0.90220781  1
  Sc  Sc65  1  0.49623056  0.49855461  0.88692818  1
  Sc  Sc66  1  0.50869617  0.50417581  0.30285369  1
  Sc  Sc67  1  0.09780177  0.29041383  0.29572181  1
  Sc  Sc68  1  0.90058953  0.30434310  0.50780443  1
  Sc  Sc69  1  0.29135521  0.49727164  0.70642436  1
  Sc  Sc70  1  0.49237409  0.68840920  0.50210973  1
  Sc  Sc71  1  0.90200417  0.69096985  0.10019019  1
  Sc  Sc72  1  0.29690273  0.89564042  0.70883859  1
  Sc  Sc73  1  0.30209701  0.29237077  0.50581643  1
  Sc  Sc74  1  0.89663982  0.49887049  0.30806442  1
  Sc  Sc75  1  0.69731642  0.90932072  0.70131610  1
  Sc  Sc76  1  0.50108116  0.71153481  0.09901387  1
  Sc  Sc77  1  0.10308566  0.89793081  0.30649858  1
  Sc  Sc78  1  0.30483354  0.30484299  0.69307431  1
  Sc  Sc79  1  0.90339924  0.49106890  0.90038107  1
  Sc  Sc80  1  0.70090876  0.10383925  0.69979701  1
  Sc  Sc81  1  0.89413098  0.90511957  0.90832076  1
  Sc  Sc82  1  0.09545501  0.30350004  0.90057284  1
  Sc  Sc83  1  0.10804083  0.09805358  0.91219055  1
  Sc  Sc84  1  0.11048755  0.90002604  0.09001676  1
  Sc  Sc85  1  0.29092229  0.88969813  0.49589752  1
  Sc  Sc86  1  0.09948481  0.10140299  0.30747032  1
  Sc  Sc87  1  0.90006440  0.69202745  0.90170483  1
  Sc  Sc88  1  0.49505624  0.89853572  0.70493093  1
  Sc  Sc89  1  0.30775128  0.89824007  0.09374072  1
  Sc  Sc90  1  0.69492272  0.10225957  0.09898237  1
  Sc  Sc91  1  0.90005008  0.10657396  0.09246786  1
  Sc  Sc92  1  0.70460663  0.30397321  0.70057620  1
  Sc  Sc93  1  0.90458469  0.89472006  0.50329649  1
  Sc  Sc94  1  0.50079643  0.50019708  0.69582857  1
  Sc  Sc95  1  0.69216792  0.90531880  0.29188532  1
  Sc  Sc96  1  0.70116192  0.30607619  0.51089530  1
  Sc  Sc97  1  0.89635106  0.29746803  0.29598011  1
  Sc  Sc98  1  0.30218233  0.08999329  0.89843789  1
  Sc  Sc99  1  0.70731125  0.09285299  0.90265764  1
  Nb  Nb100  1  0.69639958  0.69875628  0.89918168  1
  Nb  Nb101  1  0.10776858  0.89771366  0.89533518  1
  Nb  Nb102  1  0.90000093  0.50021763  0.69168390  1
  Nb  Nb103  1  0.30674691  0.30406628  0.30079667  1
  Nb  Nb104  1  0.50783568  0.90617075  0.10223793  1
  Nb  Nb105  1  0.10659431  0.30671693  0.49898174  1
  Nb  Nb106  1  0.50430200  0.29506682  0.10045376  1
  Nb  Nb107  1  0.30047423  0.89613132  0.29461278  1
  Nb  Nb108  1  0.90046118  0.49422647  0.50971861  1
  Nb  Nb109  1  0.90578528  0.09825532  0.89838112  1
  Nb  Nb110  1  0.30353587  0.10378327  0.50519003  1
  Nb  Nb111  1  0.29449720  0.50590141  0.89919229  1
  Nb  Nb112  1  0.10810605  0.70325213  0.49633720  1
  Nb  Nb113  1  0.10150829  0.71119120  0.89522796  1
  Nb  Nb114  1  0.69359845  0.09172384  0.49961841  1
  Nb  Nb115  1  0.09382498  0.70164307  0.10411230  1
  Nb  Nb116  1  0.29723192  0.70815618  0.30370000  1
  Nb  Nb117  1  0.91022608  0.30049066  0.09783150  1
  Nb  Nb118  1  0.29930560  0.10045334  0.70251664  1
  Nb  Nb119  1  0.09752730  0.50054481  0.09878575  1
  Nb  Nb120  1  0.49804063  0.49727061  0.50048704  1
  Nb  Nb121  1  0.90603882  0.89310785  0.10291297  1
  Nb  Nb122  1  0.49568849  0.10243338  0.10068618  1
  Nb  Nb123  1  0.69690678  0.70379500  0.50134303  1
  Nb  Nb124  1  0.28051816  0.89447973  0.90165781  1
  Nb  Nb125  1  0.60096036  0.79707591  0.40351698  1
  Nb  Nb126  1  0.20226122  0.79772393  0.20103190  1
  Nb  Nb127  1  0.59548522  0.19877889  0.80202605  1
  Nb  Nb128  1  0.79408614  0.79688112  0.80251493  1
  Nb  Nb129  1  0.20318577  0.39544072  0.39726217  1
  Nb  Nb130  1  0.20507292  -0.00374003  0.20380283  1
  Nb  Nb131  1  0.79381408  0.19320754  0.40662093  1
  Nb  Nb132  1  0.80066547  0.00506191  0.40059211  1
  Nb  Nb133  1  0.00257912  0.79313634  0.40006727  1
  Nb  Nb134  1  0.60486792  0.79330767  0.79922379  1
  Nb  Nb135  1  0.39085728  0.00392150  0.59963711  1
  Nb  Nb136  1  0.20428945  0.19904073  0.79743536  1
  Nb  Nb137  1  0.59925458  0.40195375  0.00668037  1
  Nb  Nb138  1  0.00685167  0.79860863  -0.00091267  1
  Nb  Nb139  1  0.60120173  0.79506280  0.60018809  1
  Nb  Nb140  1  0.60055582  0.59672196  -0.00342213  1
  Nb  Nb141  1  0.60545619  0.19821456  0.40131151  1
  Nb  Nb142  1  0.39688236  0.39964579  0.39763957  1
  Nb  Nb143  1  0.20639780  0.00752280  0.60174266  1
  Nb  Nb144  1  0.00331574  0.40089849  0.19092888  1
  Nb  Nb145  1  0.00699376  -0.00463601  0.19360991  1
  Nb  Nb146  1  0.80229027  0.00342202  0.59554497  1
  Nb  Nb147  1  0.19158781  0.60288489  0.59775821  1
  Nb  Nb148  1  0.79937226  0.80054203  0.19443580  1
  Nb  Nb149  1  0.00067506  -0.00000152  0.80832938  1
  Pd  Pd150  1  0.40133132  0.80632166  -0.00386752  1
  Pd  Pd151  1  0.40044211  0.60800088  0.19933270  1
  Pd  Pd152  1  0.00038946  0.60925666  0.58967780  1
  Pd  Pd153  1  0.39625332  0.59272678  0.39659335  1
  Pd  Pd154  1  0.40791446  0.40918787  0.00222155  1
  Pd  Pd155  1  0.20676418  0.00041683  0.40209385  1
  Pd  Pd156  1  0.39415888  0.79743681  0.19196636  1
  Pd  Pd157  1  0.79414178  0.39237258  0.00063768  1
  Pd  Pd158  1  0.38815216  0.59371760  0.60640346  1
  Pd  Pd159  1  0.79353022  0.20021396  0.80596456  1
  Pd  Pd160  1  0.01041142  0.19546143  0.80970714  1
  Pd  Pd161  1  0.81000748  -0.00147413  0.19503307  1
  Pd  Pd162  1  0.39667124  0.20523620  0.80456670  1
  Pd  Pd163  1  0.81113803  0.79403056  0.00001732  1
  Pd  Pd164  1  0.80856830  0.59781527  0.80151340  1
  Pd  Pd165  1  0.39738403  -0.00599403  -0.00054785  1
  Pd  Pd166  1  0.40606215  0.81044824  0.59126515  1
  Pd  Pd167  1  0.60588659  0.20752116  -0.00744690  1
  Pd  Pd168  1  -0.00706288  0.58883481  0.20015607  1
  Pd  Pd169  1  -0.00298166  0.59473308  0.80694588  1
  Pd  Pd170  1  0.20017899  0.60676872  0.19604883  1
  Pd  Pd171  1  0.80563142  0.59829611  0.40725088  1
  Pd  Pd172  1  0.59849405  0.00112078  0.80155419  1
  Pd  Pd173  1  0.39470314  -0.00894426  0.80091064  1
  Pd  Pd174  1  -0.00772623  0.21018175  0.40370854  1
  Pd  Pd175  1  0.39418739  0.20285662  -0.00323201  1
  Pd  Pd176  1  0.60508684  0.20086237  0.60252080  1
  Pd  Pd177  1  0.40859895  0.59012845  -0.00165856  1
  Pd  Pd178  1  0.39522092  0.40410143  0.79567339  1
  Pd  Pd179  1  0.00934444  0.60442846  -0.00806952  1
  Pd  Pd180  1  0.80127547  0.00367050  0.01097093  1
  Pd  Pd181  1  0.19085239  0.39637654  0.20472713  1
  Pd  Pd182  1  0.00474216  0.21026247  0.59734852  1
  Pd  Pd183  1  0.79949067  0.80453073  0.38822620  1
  Pd  Pd184  1  0.19997135  0.20012308  0.60680173  1
  Pd  Pd185  1  0.81253957  0.40355396  0.19989516  1
  Pd  Pd186  1  0.59186473  0.39099801  0.40692818  1
  Pd  Pd187  1  0.38947847  -0.00858395  0.40695047  1
  Pd  Pd188  1  0.80046742  0.39285974  0.40670763  1
  Pd  Pd189  1  0.00305217  -0.00620132  0.00091955  1
  Pd  Pd190  1  0.40823077  0.80681865  0.40822928  1
  Pd  Pd191  1  0.20868083  0.19177459  0.21288039  1
  Pd  Pd192  1  0.00282026  0.39036697  0.39164496  1
  Pd  Pd193  1  -0.00423268  -0.00645394  0.39442636  1
  Pd  Pd194  1  0.79997275  0.20263845  -0.00318211  1
  Pd  Pd195  1  0.59499412  0.60707981  0.19251163  1
  Pd  Pd196  1  0.20707348  0.20616793  0.39595845  1
  Pd  Pd197  1  -0.01467153  0.60893629  0.41112895  1
  Pd  Pd198  1  0.80825817  -0.00699874  0.79393310  1
  Pd  Pd199  1  0.18801660  0.60557949  -0.00307202  1
  Rh  Rh200  1  0.60614812  0.79485586  0.20883863  1
  Rh  Rh201  1  -0.00191188  0.20127814  -0.00531109  1
  Rh  Rh202  1  0.79472320  0.59766605  -0.00435875  1
  Rh  Rh203  1  0.40899892  0.20978015  0.40290604  1
  Rh  Rh204  1  0.20617934  0.00058042  0.00499608  1
  Rh  Rh205  1  0.20759368  0.59471420  0.40538437  1
  Rh  Rh206  1  0.39923178  0.80571830  0.80996105  1
  Rh  Rh207  1  0.59817831  0.00558593  0.00502615  1
  Rh  Rh208  1  0.19329325  0.00382195  0.79650531  1
  Rh  Rh209  1  0.20140209  0.39450131  0.80059680  1
  Rh  Rh210  1  0.58946945  0.19299903  0.20343744  1
  Rh  Rh211  1  0.40521059  0.40153061  0.20354576  1
  Rh  Rh212  1  0.59645797  -0.00233050  0.61147976  1
  Rh  Rh213  1  0.40197617  0.19601020  0.20017968  1
  Rh  Rh214  1  0.59558870  0.60229435  0.80378341  1
  Rh  Rh215  1  0.39985612  0.19603057  0.60432540  1
  Rh  Rh216  1  0.00485183  0.80477616  0.19776069  1
  Rh  Rh217  1  -0.01338741  0.81081640  0.81657917  1
  Rh  Rh218  1  0.58827643  0.79483123  -0.00928776  1
  Rh  Rh219  1  0.80798133  0.40455371  0.79573387  1
  Rh  Rh220  1  0.39637783  0.00263647  0.19276100  1
  Rh  Rh221  1  0.20383092  0.79419264  0.79323704  1
  Rh  Rh222  1  0.80876346  0.20093999  0.19791559  1
  Rh  Rh223  1  0.00663564  0.79325000  0.58655717  1
  Rh  Rh224  1  0.59618772  0.60644992  0.40440693  1
  Rh  Rh225  1  0.19524930  0.40647391  0.59389592  1
  Rh  Rh226  1  0.60682947  0.00195440  0.38655013  1
  Rh  Rh227  1  0.59265177  0.00874747  0.19461704  1
  Rh  Rh228  1  0.19949697  0.60766351  0.79248280  1
  Rh  Rh229  1  0.19761268  0.79753000  0.60398984  1
  Rh  Rh230  1  0.19569734  0.40207640  0.00067136  1
  Rh  Rh231  1  0.80158075  0.59219916  0.59466657  1
  Rh  Rh232  1  0.19422937  0.80051460  0.39297375  1
  Rh  Rh233  1  0.00032937  0.19991997  0.19428843  1
  Rh  Rh234  1  0.79721147  0.40630974  0.60169548  1
  Rh  Rh235  1  0.40133608  0.40449427  0.59739901  1
  Rh  Rh236  1  -0.00440074  0.40348848  0.79818808  1
  Rh  Rh237  1  0.00433493  -0.00347464  0.60869235  1
  Rh  Rh238  1  0.19520061  0.79181941  0.00552277  1
  Rh  Rh239  1  0.00000154  0.39588221  0.60129691  1
  Rh  Rh240  1  0.20960379  0.20215571  -0.01140544  1
  Rh  Rh241  1  0.80404551  0.60096147  0.20015696  1
  Rh  Rh242  1  0.59767993  0.39090425  0.80612932  1
  Rh  Rh243  1  0.59483342  0.60038410  0.59570650  1
  Rh  Rh244  1  0.39037769  0.59334697  0.79474789  1
  Rh  Rh245  1  0.79680509  0.19247698  0.59440245  1
  Rh  Rh246  1  0.59564935  0.40037004  0.19238492  1
  Rh  Rh247  1  0.00796104  0.39790891  0.00353617  1
  Rh  Rh248  1  0.60006585  0.40571141  0.59799253  1
  Rh  Rh249  1  0.78963355  0.80776550  0.61530030  1
