# generated using pymatgen
data_ZrScNbPdRh
_symmetry_space_group_name_H-M   'P 1'
_cell_length_a   16.56830737
_cell_length_b   16.56150138
_cell_length_c   16.56640431
_cell_angle_alpha   90.04605569
_cell_angle_beta   89.98735274
_cell_angle_gamma   89.97892929
_symmetry_Int_Tables_number   1
_chemical_formula_structural   ZrScNbPdRh
_chemical_formula_sum   'Zr50 Sc50 Nb50 Pd50 Rh50'
_cell_volume   4545.75394192
_cell_formula_units_Z   50
loop_
 _symmetry_equiv_pos_site_id
 _symmetry_equiv_pos_as_xyz
  1  'x, y, z'
loop_
 _atom_site_type_symbol
 _atom_site_label
 _atom_site_symmetry_multiplicity
 _atom_site_fract_x
 _atom_site_fract_y
 _atom_site_fract_z
 _atom_site_occupancy
  Zr  Zr0  1  0.70445981  0.69803933  0.09627224  1
  Zr  Zr1  1  0.90880683  0.70745040  0.69882529  1
  Zr  Zr2  1  0.70027921  0.89815621  0.49831748  1
  Zr  Zr3  1  0.90243139  0.89959347  0.69806394  1
  Zr  Zr4  1  0.09669059  0.29138363  0.10437222  1
  Zr  Zr5  1  0.90345677  0.30341747  0.30692045  1
  Zr  Zr6  1  0.48899056  0.50927279  0.90248915  1
  Zr  Zr7  1  0.09618496  0.09615179  0.91127865  1
  Zr  Zr8  1  0.70693369  0.10090712  0.90930026  1
  Zr  Zr9  1  0.49112861  0.10265482  0.49987816  1
  Zr  Zr10  1  0.90214747  0.89656131  0.29850995  1
  Zr  Zr11  1  0.30162475  0.29384300  0.09336399  1
  Zr  Zr12  1  0.29638918  0.70397544  0.29271436  1
  Zr  Zr13  1  0.09949848  0.90192824  0.90007101  1
  Zr  Zr14  1  0.10740445  0.09424027  0.49166566  1
  Zr  Zr15  1  0.29836222  0.09976984  0.10006547  1
  Zr  Zr16  1  0.49161224  0.48229875  0.69570101  1
  Zr  Zr17  1  0.50539171  0.49960211  0.10122932  1
  Zr  Zr18  1  0.50158009  0.69788764  0.49340899  1
  Zr  Zr19  1  0.50422723  0.29246325  0.69911022  1
  Zr  Zr20  1  0.51071895  0.50376718  0.29760002  1
  Zr  Zr21  1  0.29472787  0.91002987  0.50528703  1
  Zr  Zr22  1  0.69810479  0.10149434  0.48689819  1
  Zr  Zr23  1  0.69753016  0.10072154  0.71904467  1
  Zr  Zr24  1  0.50662926  0.69414244  0.29705626  1
  Zr  Zr25  1  0.28445386  0.69447922  0.69764577  1
  Zr  Zr26  1  0.50731897  0.09189678  0.88874931  1
  Zr  Zr27  1  0.09519113  0.88854134  0.70331999  1
  Zr  Zr28  1  0.70272034  0.69653044  0.50005840  1
  Zr  Zr29  1  0.69843939  0.30120546  0.10047197  1
  Zr  Zr30  1  0.69736340  0.90746245  0.90007268  1
  Zr  Zr31  1  0.89792322  0.09608712  0.28975507  1
  Zr  Zr32  1  0.49807450  0.69939888  0.90290102  1
  Zr  Zr33  1  0.29940185  0.90234812  0.09956817  1
  Zr  Zr34  1  0.08997959  0.29888392  0.49392921  1
  Zr  Zr35  1  0.30578389  0.68939910  0.89620327  1
  Zr  Zr36  1  0.70477447  0.10383409  0.29810705  1
  Zr  Zr37  1  0.30096476  0.49601886  0.50039135  1
  Zr  Zr38  1  0.70022765  0.30180307  0.69649000  1
  Zr  Zr39  1  0.09468084  0.49843952  0.49652052  1
  Zr  Zr40  1  0.30740206  0.09669614  0.69629125  1
  Zr  Zr41  1  0.09709169  0.69369280  0.51147181  1
  Zr  Zr42  1  0.89769191  0.50006342  0.89793696  1
  Zr  Zr43  1  0.29854292  0.89209790  0.69677559  1
  Zr  Zr44  1  0.10006007  0.90761487  0.50288138  1
  Zr  Zr45  1  0.09547442  0.90598199  0.30533110  1
  Zr  Zr46  1  0.08763251  0.69533005  0.29625267  1
  Zr  Zr47  1  0.89394893  0.10122444  0.90166106  1
  Zr  Zr48  1  0.49981633  0.30510334  0.10415004  1
  Zr  Zr49  1  0.50538711  0.69569214  0.09803473  1
  Sc  Sc50  1  0.49355560  0.29992135  0.90713203  1
  Sc  Sc51  1  0.70829388  0.89906652  0.70199551  1
  Sc  Sc52  1  0.70335944  0.49774216  0.49782927  1
  Sc  Sc53  1  0.10489594  0.28736068  0.90101997  1
  Sc  Sc54  1  0.49100771  0.09936814  0.09455487  1
  Sc  Sc55  1  0.29286006  0.70260262  0.10194332  1
  Sc  Sc56  1  0.50323024  0.90558760  0.29397132  1
  Sc  Sc57  1  0.30590533  0.29346262  0.49029778  1
  Sc  Sc58  1  0.29770532  0.70407231  0.50780117  1
  Sc  Sc59  1  0.88340384  0.69562309  0.89513557  1
  Sc  Sc60  1  0.70135791  0.29578393  0.90785321  1
  Sc  Sc61  1  0.29619754  0.50229871  0.08950111  1
  Sc  Sc62  1  0.69600982  0.90361834  0.09857608  1
  Sc  Sc63  1  0.30428466  0.10460357  0.31258343  1
  Sc  Sc64  1  0.72117904  0.70011875  0.69904860  1
  Sc  Sc65  1  0.90226395  0.69423864  0.50087504  1
  Sc  Sc66  1  0.49595004  0.90156776  0.50071909  1
  Sc  Sc67  1  0.30030808  0.90439740  0.29053870  1
  Sc  Sc68  1  0.50186758  0.09814742  0.30458403  1
  Sc  Sc69  1  0.70141270  0.49827966  0.10056245  1
  Sc  Sc70  1  0.89240604  0.50138074  0.10789481  1
  Sc  Sc71  1  0.31285622  0.29734630  0.70437669  1
  Sc  Sc72  1  0.90096979  0.29994266  0.88674441  1
  Sc  Sc73  1  0.90972083  0.10309932  0.49452643  1
  Sc  Sc74  1  0.69616514  0.91118551  0.29788089  1
  Sc  Sc75  1  0.89729947  0.29817052  0.11038647  1
  Sc  Sc76  1  0.89203106  0.89588656  0.10750607  1
  Sc  Sc77  1  0.08561071  0.29696773  0.70048190  1
  Sc  Sc78  1  0.30254557  0.50180607  0.29802576  1
  Sc  Sc79  1  0.49661158  0.90822810  0.10228692  1
  Sc  Sc80  1  0.90270782  0.90176379  0.89456675  1
  Sc  Sc81  1  0.30697073  0.29549137  0.29781363  1
  Sc  Sc82  1  0.10726692  0.69892460  0.10438842  1
  Sc  Sc83  1  0.70321590  0.30658651  0.30790541  1
  Sc  Sc84  1  0.71271340  0.49766627  0.69756364  1
  Sc  Sc85  1  0.70432895  0.30666823  0.49528852  1
  Sc  Sc86  1  0.48778584  0.90502071  0.70452655  1
  Sc  Sc87  1  0.10928036  0.50014031  0.90782951  1
  Sc  Sc88  1  0.90412669  0.50385325  0.29852691  1
  Sc  Sc89  1  0.51233142  0.30468607  0.50673849  1
  Sc  Sc90  1  0.49815208  0.90545228  0.90381182  1
  Sc  Sc91  1  0.10814547  0.70180503  0.89744953  1
  Sc  Sc92  1  0.09863764  0.50401657  0.10508075  1
  Sc  Sc93  1  0.90719131  0.89872922  0.50022919  1
  Sc  Sc94  1  0.47328120  0.71238261  0.70783973  1
  Sc  Sc95  1  0.89950143  0.49312827  0.49977098  1
  Sc  Sc96  1  0.10801411  0.89941339  0.08997360  1
  Sc  Sc97  1  0.70816185  0.50926677  0.90424458  1
  Sc  Sc98  1  0.10107782  0.09880488  0.70627517  1
  Sc  Sc99  1  0.29152264  0.10346500  0.89686331  1
  Nb  Nb100  1  0.90117085  0.69835104  0.10640259  1
  Nb  Nb101  1  0.89489214  0.10860702  0.70162138  1
  Nb  Nb102  1  0.69895347  0.69115507  0.30282269  1
  Nb  Nb103  1  0.29089785  0.89886581  0.91060427  1
  Nb  Nb104  1  0.10523710  0.50108448  0.69384527  1
  Nb  Nb105  1  0.30127145  0.49497850  0.70064258  1
  Nb  Nb106  1  0.09182257  0.10499160  0.10224740  1
  Nb  Nb107  1  0.70162903  0.50584556  0.30197039  1
  Nb  Nb108  1  0.09510167  0.49246436  0.30326441  1
  Nb  Nb109  1  0.29588952  0.09729208  0.50277710  1
  Nb  Nb110  1  0.09655466  0.30565498  0.29735997  1
  Nb  Nb111  1  0.09800200  0.10349624  0.29482080  1
  Nb  Nb112  1  0.89686109  0.70039025  0.28706368  1
  Nb  Nb113  1  0.50327068  0.09965292  0.69874871  1
  Nb  Nb114  1  0.71844769  0.11011017  0.10230780  1
  Nb  Nb115  1  0.50370805  0.30827124  0.29560623  1
  Nb  Nb116  1  0.89907307  0.30127251  0.69072318  1
  Nb  Nb117  1  0.50293445  0.49972227  0.50127199  1
  Nb  Nb118  1  0.09763718  0.69385975  0.69875748  1
  Nb  Nb119  1  0.30206860  0.49619558  0.89462162  1
  Nb  Nb120  1  0.89583868  0.10479398  0.10194137  1
  Nb  Nb121  1  0.69403348  0.69715440  0.89911284  1
  Nb  Nb122  1  0.90794122  0.48062835  0.70574552  1
  Nb  Nb123  1  0.90039776  0.29818855  0.50538949  1
  Nb  Nb124  1  0.29246941  0.30386954  0.89915859  1
  Nb  Nb125  1  0.40060775  0.59377340  0.60050868  1
  Nb  Nb126  1  -0.00073678  0.40191619  0.00149858  1
  Nb  Nb127  1  0.59889314  0.79641906  0.60808632  1
  Nb  Nb128  1  0.19933076  0.39532433  0.60404643  1
  Nb  Nb129  1  0.79976122  0.79132481  0.38969496  1
  Nb  Nb130  1  0.19455713  0.60194322  0.39814547  1
  Nb  Nb131  1  0.00384023  0.59470277  0.79548336  1
  Nb  Nb132  1  0.60268611  0.79305353  0.79946676  1
  Nb  Nb133  1  0.19529123  0.39420554  0.20353807  1
  Nb  Nb134  1  -0.00545640  0.60279552  -0.00142594  1
  Nb  Nb135  1  -0.00611165  0.78956489  0.00112481  1
  Nb  Nb136  1  0.41276597  0.40326460  0.39798500  1
  Nb  Nb137  1  0.20059066  0.20009496  0.59670214  1
  Nb  Nb138  1  0.59733055  0.60292739  0.79172675  1
  Nb  Nb139  1  0.19785001  0.79787011  0.39958864  1
  Nb  Nb140  1  0.39608691  0.80103943  -0.00027926  1
  Nb  Nb141  1  0.60174024  0.20473943  0.19792682  1
  Nb  Nb142  1  0.60121729  0.00344108  0.60447114  1
  Nb  Nb143  1  0.19161500  0.01248083  0.19944735  1
  Nb  Nb144  1  0.59144627  0.60384876  0.60833040  1
  Nb  Nb145  1  0.80375640  0.19762505  0.60046567  1
  Nb  Nb146  1  0.39532260  0.79758474  0.39557607  1
  Nb  Nb147  1  0.59815387  0.40628133  0.80206949  1
  Nb  Nb148  1  0.79902942  0.01031620  0.60178430  1
  Nb  Nb149  1  0.20424963  0.40082891  0.79603062  1
  Pd  Pd150  1  0.20174992  0.79924357  0.80334369  1
  Pd  Pd151  1  0.19837597  0.20335068  0.39914174  1
  Pd  Pd152  1  0.80747973  -0.00652853  0.00579267  1
  Pd  Pd153  1  -0.00289439  0.79160040  0.40577061  1
  Pd  Pd154  1  0.80330114  0.80165653  -0.00402082  1
  Pd  Pd155  1  0.20331887  0.20012174  0.20607868  1
  Pd  Pd156  1  0.40913324  0.19434699  0.20665929  1
  Pd  Pd157  1  0.38976952  -0.00297173  0.80588185  1
  Pd  Pd158  1  0.01576066  0.40395541  0.81036645  1
  Pd  Pd159  1  0.80952708  -0.00708152  0.40429010  1
  Pd  Pd160  1  0.19743465  0.58869074  0.20604571  1
  Pd  Pd161  1  -0.00438453  0.00768281  0.79711049  1
  Pd  Pd162  1  0.59427002  0.80484202  -0.00324580  1
  Pd  Pd163  1  0.19515054  0.59125515  0.80339433  1
  Pd  Pd164  1  -0.00286677  0.00904617  0.60516578  1
  Pd  Pd165  1  0.39649281  0.20464299  0.59529779  1
  Pd  Pd166  1  0.39683543  0.59594864  0.19307251  1
  Pd  Pd167  1  0.80945915  0.59134916  0.60460535  1
  Pd  Pd168  1  0.39848712  0.19238819  -0.01155982  1
  Pd  Pd169  1  0.00350410  -0.00531291  0.18909004  1
  Pd  Pd170  1  0.59925433  0.80651563  0.39705481  1
  Pd  Pd171  1  0.60408219  0.80075675  0.20043661  1
  Pd  Pd172  1  -0.00990002  -0.00955457  0.01024587  1
  Pd  Pd173  1  -0.01157614  0.58813008  0.60754476  1
  Pd  Pd174  1  0.79018148  0.39544364  0.80508685  1
  Pd  Pd175  1  0.40048525  0.19863912  0.80802585  1
  Pd  Pd176  1  0.59610676  0.19215534  0.00608991  1
  Pd  Pd177  1  0.59505608  0.20725955  0.39295785  1
  Pd  Pd178  1  0.20844343  0.40013983  0.39549602  1
  Pd  Pd179  1  0.79711142  0.40037976  0.20842414  1
  Pd  Pd180  1  0.60250329  0.00991653  0.01021041  1
  Pd  Pd181  1  0.39163449  0.60106217  0.40278476  1
  Pd  Pd182  1  0.61188717  0.19159816  0.59743258  1
  Pd  Pd183  1  0.40839264  0.80107180  0.19689437  1
  Pd  Pd184  1  0.79633249  0.80529359  0.80707295  1
  Pd  Pd185  1  0.59972317  0.21041201  0.81087647  1
  Pd  Pd186  1  -0.00144902  0.19487419  0.39335514  1
  Pd  Pd187  1  0.20233148  -0.00243331  0.79698095  1
  Pd  Pd188  1  0.80924457  0.60048819  0.39629670  1
  Pd  Pd189  1  0.39752393  0.40184451  0.00037910  1
  Pd  Pd190  1  0.80898468  0.39459734  0.00101614  1
  Pd  Pd191  1  -0.01086402  0.20968176  -0.00061483  1
  Pd  Pd192  1  0.39039579  0.40578056  0.20054969  1
  Pd  Pd193  1  0.19322995  0.39622285  0.00327208  1
  Pd  Pd194  1  0.39769336  -0.00837374  0.39668518  1
  Pd  Pd195  1  0.78545077  0.80176348  0.20576279  1
  Pd  Pd196  1  0.60210637  0.40863791  -0.01021276  1
  Pd  Pd197  1  0.60279395  0.01572786  0.19053142  1
  Pd  Pd198  1  -0.00005062  0.19521087  0.80118542  1
  Pd  Pd199  1  0.00884819  0.80609385  0.18828925  1
  Rh  Rh200  1  -0.00156918  0.59466945  0.19485902  1
  Rh  Rh201  1  0.80522230  0.40348607  0.39830266  1
  Rh  Rh202  1  0.39255885  0.00822882  0.20372466  1
  Rh  Rh203  1  0.59854231  -0.01379444  0.79147652  1
  Rh  Rh204  1  0.40128486  0.59296390  0.78812957  1
  Rh  Rh205  1  0.40524646  0.00161824  0.60041921  1
  Rh  Rh206  1  0.00544588  0.40217229  0.19403744  1
  Rh  Rh207  1  0.79745292  0.20909976  0.20662785  1
  Rh  Rh208  1  0.19653674  0.00631326  0.61047273  1
  Rh  Rh209  1  0.40472902  0.79654148  0.58798729  1
  Rh  Rh210  1  0.80964703  0.20880729  -0.00022705  1
  Rh  Rh211  1  0.20540542  0.59021563  0.59397402  1
  Rh  Rh212  1  0.60462748  0.59408130  -0.00293993  1
  Rh  Rh213  1  0.61132103  0.39823499  0.20467999  1
  Rh  Rh214  1  0.80189499  0.80801504  0.58728539  1
  Rh  Rh215  1  0.00137552  0.78685993  0.81113088  1
  Rh  Rh216  1  0.39420294  -0.00286292  -0.00667298  1
  Rh  Rh217  1  -0.00490804  0.00717404  0.39527806  1
  Rh  Rh218  1  0.39288325  0.60564895  0.01065539  1
  Rh  Rh219  1  0.00323301  0.80034426  0.59491786  1
  Rh  Rh220  1  0.19840473  0.60193175  -0.00327352  1
  Rh  Rh221  1  0.61080315  0.59825920  0.19425332  1
  Rh  Rh222  1  0.39954656  0.39356376  0.80958855  1
  Rh  Rh223  1  0.19031837  0.80377744  0.59632724  1
  Rh  Rh224  1  0.59918532  0.40646688  0.39867755  1
  Rh  Rh225  1  0.19995640  0.19599558  0.00013292  1
  Rh  Rh226  1  0.80791027  -0.00257952  0.79642806  1
  Rh  Rh227  1  0.19047348  0.81482003  0.20735866  1
  Rh  Rh228  1  0.61124501  0.40918817  0.60563685  1
  Rh  Rh229  1  -0.00125782  0.59985588  0.39630244  1
  Rh  Rh230  1  0.20119976  0.79145704  -0.00307533  1
  Rh  Rh231  1  0.80194556  0.39549951  0.59517807  1
  Rh  Rh232  1  0.59161436  -0.00124486  0.40687236  1
  Rh  Rh233  1  0.79564196  0.59882697  0.20198125  1
  Rh  Rh234  1  -0.00612183  0.20054870  0.20613184  1
  Rh  Rh235  1  0.39340258  0.81322682  0.81611219  1
  Rh  Rh236  1  0.00506896  0.40033945  0.59687903  1
  Rh  Rh237  1  0.41246201  0.21127217  0.40092629  1
  Rh  Rh238  1  0.00147923  0.19625730  0.60059944  1
  Rh  Rh239  1  0.79716257  -0.00212513  0.19511979  1
  Rh  Rh240  1  -0.00788618  0.40124709  0.40150158  1
  Rh  Rh241  1  0.80340798  0.60443278  0.00744459  1
  Rh  Rh242  1  0.60694717  0.59176819  0.40805916  1
  Rh  Rh243  1  0.80757538  0.20403633  0.40494461  1
  Rh  Rh244  1  0.20532156  -0.00256844  0.38841490  1
  Rh  Rh245  1  0.19786139  0.00962822  0.00666259  1
  Rh  Rh246  1  0.39321308  0.39433213  0.58722511  1
  Rh  Rh247  1  0.80054462  0.20874037  0.79692503  1
  Rh  Rh248  1  0.80638616  0.59514107  0.78915226  1
  Rh  Rh249  1  0.20393676  0.20954569  0.78844966  1
