# generated using pymatgen
data_ZrScNbPdRh
_symmetry_space_group_name_H-M   'P 1'
_cell_length_a   16.56166246
_cell_length_b   16.55756819
_cell_length_c   16.56536165
_cell_angle_alpha   89.99580365
_cell_angle_beta   89.98720736
_cell_angle_gamma   89.96880279
_symmetry_Int_Tables_number   1
_chemical_formula_structural   ZrScNbPdRh
_chemical_formula_sum   'Zr50 Sc50 Nb50 Pd50 Rh50'
_cell_volume   4542.56684530
_cell_formula_units_Z   50
loop_
 _symmetry_equiv_pos_site_id
 _symmetry_equiv_pos_as_xyz
  1  'x, y, z'
loop_
 _atom_site_type_symbol
 _atom_site_label
 _atom_site_symmetry_multiplicity
 _atom_site_fract_x
 _atom_site_fract_y
 _atom_site_fract_z
 _atom_site_occupancy
  Zr  Zr0  1  0.09273493  0.90036659  0.90069082  1
  Zr  Zr1  1  0.09562091  0.30262618  0.69761796  1
  Zr  Zr2  1  0.30099859  0.09428540  0.69179206  1
  Zr  Zr3  1  0.10630638  0.10255934  0.49955676  1
  Zr  Zr4  1  0.50863558  0.10299565  0.29048832  1
  Zr  Zr5  1  0.89021055  0.50304854  0.29113239  1
  Zr  Zr6  1  0.69835648  0.10320471  0.70492195  1
  Zr  Zr7  1  0.69654877  0.29218196  0.30955564  1
  Zr  Zr8  1  0.70628476  0.69948038  0.88963579  1
  Zr  Zr9  1  0.09712524  0.70078300  0.49454158  1
  Zr  Zr10  1  0.49475633  0.50094956  0.31165306  1
  Zr  Zr11  1  0.89975867  0.89916081  0.09968671  1
  Zr  Zr12  1  0.09340659  0.10629328  0.10108731  1
  Zr  Zr13  1  0.89817893  0.89404044  0.29737603  1
  Zr  Zr14  1  0.50737778  0.49408892  0.69212383  1
  Zr  Zr15  1  0.89937630  0.09977270  0.50259985  1
  Zr  Zr16  1  0.70113144  0.69936323  0.08698177  1
  Zr  Zr17  1  0.70404282  0.50021157  0.10241148  1
  Zr  Zr18  1  0.29302609  0.70789055  0.29697788  1
  Zr  Zr19  1  0.49255656  0.70403580  0.30098832  1
  Zr  Zr20  1  0.89891970  0.30206396  0.50132247  1
  Zr  Zr21  1  0.70204279  0.50778177  0.69767565  1
  Zr  Zr22  1  0.30106108  0.29214389  0.49542670  1
  Zr  Zr23  1  0.70165501  0.30150005  0.89798262  1
  Zr  Zr24  1  0.89993425  0.69723994  0.50212935  1
  Zr  Zr25  1  0.90276102  0.69508517  0.89653702  1
  Zr  Zr26  1  0.09707084  0.90401633  0.10484611  1
  Zr  Zr27  1  0.30374135  0.10441471  0.89375583  1
  Zr  Zr28  1  0.09805384  0.09993654  0.69511280  1
  Zr  Zr29  1  0.50496764  0.89946649  0.89780920  1
  Zr  Zr30  1  0.10065806  0.90182345  0.69824997  1
  Zr  Zr31  1  0.70128253  0.70782919  0.51047440  1
  Zr  Zr32  1  0.29280642  0.69765467  0.70407502  1
  Zr  Zr33  1  0.49986772  0.49791773  0.50255506  1
  Zr  Zr34  1  0.89469030  0.09755873  0.10091942  1
  Zr  Zr35  1  0.70132006  0.88596693  0.69960101  1
  Zr  Zr36  1  0.90140813  0.70023413  0.09769116  1
  Zr  Zr37  1  0.49792040  0.10817138  0.69775102  1
  Zr  Zr38  1  0.69989427  0.89947849  0.89291601  1
  Zr  Zr39  1  0.68945567  0.30106814  0.70051556  1
  Zr  Zr40  1  0.89123831  0.10056541  0.89238811  1
  Zr  Zr41  1  0.90837708  0.29703362  0.09836592  1
  Zr  Zr42  1  0.09896930  0.49778032  0.90825004  1
  Zr  Zr43  1  0.30053186  0.50734207  0.30333863  1
  Zr  Zr44  1  0.29870429  0.10219169  0.49877764  1
  Zr  Zr45  1  0.49708134  0.10107365  0.89923686  1
  Zr  Zr46  1  0.31138902  0.10091649  0.09476927  1
  Zr  Zr47  1  0.29557832  0.69313853  0.90414128  1
  Zr  Zr48  1  0.70087199  0.49846202  0.49675778  1
  Zr  Zr49  1  0.10753992  0.89614057  0.29566092  1
  Sc  Sc50  1  0.29726102  0.29486915  0.69971488  1
  Sc  Sc51  1  0.10966086  0.89601382  0.50114375  1
  Sc  Sc52  1  0.10137969  0.28739330  0.29643689  1
  Sc  Sc53  1  0.29207909  0.49574500  0.90098101  1
  Sc  Sc54  1  0.51086720  0.89890680  0.69991430  1
  Sc  Sc55  1  0.90847380  0.70118099  0.30207650  1
  Sc  Sc56  1  0.89891398  0.30400232  0.70518083  1
  Sc  Sc57  1  0.69629249  0.09564020  0.89265664  1
  Sc  Sc58  1  0.70737029  0.49696108  0.90328944  1
  Sc  Sc59  1  0.70407665  0.31067877  0.10329338  1
  Sc  Sc60  1  0.89324762  0.29439058  0.29356582  1
  Sc  Sc61  1  0.50989727  0.49702718  0.90698986  1
  Sc  Sc62  1  0.49354058  0.90359809  0.30157528  1
  Sc  Sc63  1  0.90682869  0.10089326  0.69881486  1
  Sc  Sc64  1  0.50837667  0.70265300  0.49519697  1
  Sc  Sc65  1  0.89581883  0.50025468  0.09839552  1
  Sc  Sc66  1  0.30227394  0.91250632  0.50082262  1
  Sc  Sc67  1  0.10188544  0.52214616  0.29568908  1
  Sc  Sc68  1  0.88640957  0.10285304  0.29618783  1
  Sc  Sc69  1  0.30962771  0.70081347  0.10287235  1
  Sc  Sc70  1  0.09486142  0.49287081  0.70891360  1
  Sc  Sc71  1  0.28835112  0.71006237  0.49413259  1
  Sc  Sc72  1  0.11301943  0.09296975  0.29670762  1
  Sc  Sc73  1  0.89661810  0.49916729  0.50403550  1
  Sc  Sc74  1  0.69804124  0.90488836  0.30917998  1
  Sc  Sc75  1  0.09494279  0.50017455  0.50307106  1
  Sc  Sc76  1  0.48569195  0.09913744  0.49988348  1
  Sc  Sc77  1  0.50876094  0.69916016  0.91305422  1
  Sc  Sc78  1  0.88586591  0.90481813  0.49914607  1
  Sc  Sc79  1  0.90102207  0.49857813  0.70157880  1
  Sc  Sc80  1  0.31344825  0.30062949  0.30150096  1
  Sc  Sc81  1  0.70601543  0.09537948  0.48192147  1
  Sc  Sc82  1  0.30424350  0.89835291  0.11203063  1
  Sc  Sc83  1  0.90088613  0.90135349  0.90102045  1
  Sc  Sc84  1  0.09879128  0.30564644  0.90551026  1
  Sc  Sc85  1  0.29742272  0.29732805  0.90271622  1
  Sc  Sc86  1  0.10230663  0.29613331  0.50754720  1
  Sc  Sc87  1  0.30184813  0.89997484  0.90249847  1
  Sc  Sc88  1  0.70373440  0.70545058  0.31256451  1
  Sc  Sc89  1  0.09642413  0.69081171  0.10335870  1
  Sc  Sc90  1  0.49740249  0.50090340  0.09593779  1
  Sc  Sc91  1  0.89659586  0.30704834  0.89824169  1
  Sc  Sc92  1  0.52483018  0.69805016  0.69539409  1
  Sc  Sc93  1  0.09079341  0.68921662  0.90502550  1
  Sc  Sc94  1  0.09704162  0.10220735  0.89045148  1
  Sc  Sc95  1  0.29093234  0.49111605  0.70630382  1
  Sc  Sc96  1  0.49887528  0.90082550  0.49460865  1
  Sc  Sc97  1  0.30227988  0.49553746  0.49756392  1
  Sc  Sc98  1  0.29945587  0.50186658  0.09104692  1
  Sc  Sc99  1  0.30382318  0.09790806  0.30755158  1
  Nb  Nb100  1  0.49293927  0.29691303  0.10961317  1
  Nb  Nb101  1  0.70176654  0.29769359  0.50085499  1
  Nb  Nb102  1  0.50371666  0.29651878  0.89554407  1
  Nb  Nb103  1  0.29954808  0.30314695  0.10054886  1
  Nb  Nb104  1  0.71293219  0.69700542  0.70228106  1
  Nb  Nb105  1  0.50027006  0.30109201  0.30323545  1
  Nb  Nb106  1  0.09522239  0.70570361  0.69236432  1
  Nb  Nb107  1  0.50352047  0.29723201  0.69755762  1
  Nb  Nb108  1  0.50357811  0.09800442  0.10325161  1
  Nb  Nb109  1  0.69024991  0.09840645  0.11292235  1
  Nb  Nb110  1  0.09828485  0.49534835  0.09781603  1
  Nb  Nb111  1  0.10788379  0.70372258  0.30812550  1
  Nb  Nb112  1  0.89969871  0.69903287  0.70207949  1
  Nb  Nb113  1  0.70016276  0.90058904  0.10181069  1
  Nb  Nb114  1  0.29983462  0.89736942  0.69763303  1
  Nb  Nb115  1  0.90652298  0.89666941  0.70318699  1
  Nb  Nb116  1  0.90834947  0.49734949  0.89365878  1
  Nb  Nb117  1  0.50435519  0.70350230  0.10414038  1
  Nb  Nb118  1  0.69759868  0.89951858  0.49999290  1
  Nb  Nb119  1  0.50082995  0.30180852  0.50513729  1
  Nb  Nb120  1  0.29507174  0.90511666  0.29639103  1
  Nb  Nb121  1  0.49980593  0.90093303  0.10445634  1
  Nb  Nb122  1  0.10124943  0.30195091  0.09790097  1
  Nb  Nb123  1  0.69518955  0.10290001  0.29362090  1
  Nb  Nb124  1  0.69678063  0.49618979  0.29494754  1
  Nb  Nb125  1  0.59352889  0.40151058  0.20962315  1
  Nb  Nb126  1  0.20710585  0.20632891  0.18984999  1
  Nb  Nb127  1  0.19682148  0.60402392  0.60321075  1
  Nb  Nb128  1  0.59945926  0.00091586  0.01252344  1
  Nb  Nb129  1  0.19357702  0.39970499  0.39049691  1
  Nb  Nb130  1  -0.00050783  0.19623832  0.40010884  1
  Nb  Nb131  1  0.39923139  0.79438564  0.79644180  1
  Nb  Nb132  1  0.19613123  0.80298614  0.00064019  1
  Nb  Nb133  1  0.79345386  0.20252980  0.59799557  1
  Nb  Nb134  1  0.00337001  0.39740282  0.39019981  1
  Nb  Nb135  1  0.39828446  0.79633864  0.60774787  1
  Nb  Nb136  1  0.41032743  0.39501233  0.79900051  1
  Nb  Nb137  1  0.79110504  0.19464569  0.00307345  1
  Nb  Nb138  1  0.19725380  0.79872840  0.80179436  1
  Nb  Nb139  1  0.59981335  0.60163397  0.20259383  1
  Nb  Nb140  1  0.00009610  0.00219403  0.39807173  1
  Nb  Nb141  1  0.39555754  0.60562839  0.60640923  1
  Nb  Nb142  1  0.40660880  0.59698519  0.79536713  1
  Nb  Nb143  1  0.00942795  0.40119403  0.20123373  1
  Nb  Nb144  1  0.59903830  0.79903099  0.19430646  1
  Nb  Nb145  1  0.59708911  0.19814023  0.00959610  1
  Nb  Nb146  1  0.19976361  0.00003352  0.00220974  1
  Nb  Nb147  1  0.60804768  -0.00090902  0.59580415  1
  Nb  Nb148  1  0.39935576  -0.00625101  0.79474313  1
  Nb  Nb149  1  0.19830132  0.39852940  0.19782772  1
  Pd  Pd150  1  0.80443658  -0.00584991  0.78870675  1
  Pd  Pd151  1  0.00337334  0.59363541  0.60684485  1
  Pd  Pd152  1  0.39184572  0.61049786  0.41457579  1
  Pd  Pd153  1  0.59890710  0.39659257  0.40199330  1
  Pd  Pd154  1  0.39919115  0.40880519  0.19896477  1
  Pd  Pd155  1  0.18879168  0.60101467  0.79736503  1
  Pd  Pd156  1  0.00167998  0.00851300  -0.00532064  1
  Pd  Pd157  1  0.39269322  0.39914384  0.60625346  1
  Pd  Pd158  1  0.00269311  0.79594717  0.80210243  1
  Pd  Pd159  1  0.59459826  0.00301577  0.40213306  1
  Pd  Pd160  1  0.39505827  0.80231169  -0.00086047  1
  Pd  Pd161  1  -0.00434546  0.59175211  0.39779084  1
  Pd  Pd162  1  0.00201661  -0.00910195  0.59103796  1
  Pd  Pd163  1  0.40073126  0.39507413  -0.00803674  1
  Pd  Pd164  1  -0.00195466  0.20746367  0.80365267  1
  Pd  Pd165  1  0.40094688  -0.00818441  -0.00210247  1
  Pd  Pd166  1  0.59416649  0.39139375  0.01171035  1
  Pd  Pd167  1  0.60285463  0.80755420  0.00199752  1
  Pd  Pd168  1  0.60051627  0.40548220  0.80158133  1
  Pd  Pd169  1  -0.00187970  0.81077207  0.40658128  1
  Pd  Pd170  1  0.39222224  0.80584155  0.40666923  1
  Pd  Pd171  1  0.80961855  0.80073498  0.60241765  1
  Pd  Pd172  1  0.59838593  0.59832497  0.80617119  1
  Pd  Pd173  1  0.79430545  -0.00429145  0.20522087  1
  Pd  Pd174  1  0.79250176  0.61424420  0.20388506  1
  Pd  Pd175  1  0.80423441  0.80420254  -0.00731931  1
  Pd  Pd176  1  -0.00512271  0.00753891  0.21165216  1
  Pd  Pd177  1  0.79209241  0.20593719  0.19245261  1
  Pd  Pd178  1  0.40415287  0.59778309  -0.00701638  1
  Pd  Pd179  1  0.80513504  0.39887178  0.39419035  1
  Pd  Pd180  1  0.39526588  0.19498256  0.20586107  1
  Pd  Pd181  1  0.79049964  0.79623502  0.20308019  1
  Pd  Pd182  1  -0.00720470  0.80839194  0.59055856  1
  Pd  Pd183  1  0.19882140  0.19464520  0.00116449  1
  Pd  Pd184  1  0.40664728  0.21014361  -0.00090514  1
  Pd  Pd185  1  0.78907384  0.00528650  0.00143587  1
  Pd  Pd186  1  0.40410305  0.59577429  0.19664372  1
  Pd  Pd187  1  0.79654345  0.39640758  0.60695748  1
  Pd  Pd188  1  0.19969670  0.40502462  0.59241442  1
  Pd  Pd189  1  0.20506810  -0.00563145  0.80521146  1
  Pd  Pd190  1  0.60552487  0.60425209  0.39853628  1
  Pd  Pd191  1  0.19598155  0.20490723  0.79674912  1
  Pd  Pd192  1  0.79370809  0.00484019  0.60800874  1
  Pd  Pd193  1  0.79947266  0.60150639  0.40067495  1
  Pd  Pd194  1  0.60557745  0.18899099  0.58471549  1
  Pd  Pd195  1  0.00655064  0.79118494  0.20013436  1
  Pd  Pd196  1  0.80652561  0.59341974  -0.00759725  1
  Pd  Pd197  1  0.59170081  0.19496845  0.40936206  1
  Pd  Pd198  1  0.20419182  0.60094898  0.19096767  1
  Pd  Pd199  1  -0.00856287  0.19756481  -0.01143470  1
  Rh  Rh200  1  0.00027273  0.59992192  0.79445346  1
  Rh  Rh201  1  0.60096960  -0.01198070  0.20035408  1
  Rh  Rh202  1  -0.00559960  0.40471711  0.00489028  1
  Rh  Rh203  1  0.21214038  0.01230294  0.18989506  1
  Rh  Rh204  1  0.19696727  0.79310181  0.19323353  1
  Rh  Rh205  1  0.00489546  0.19822283  0.20557153  1
  Rh  Rh206  1  0.40904050  0.20075488  0.39732044  1
  Rh  Rh207  1  0.59426502  0.80787485  0.59226606  1
  Rh  Rh208  1  0.60276978  0.59582022  0.00600090  1
  Rh  Rh209  1  0.60555215  0.39802533  0.59168351  1
  Rh  Rh210  1  0.60054628  0.80390099  0.39471763  1
  Rh  Rh211  1  0.39968547  0.00176217  0.39323946  1
  Rh  Rh212  1  0.81115895  0.80231527  0.79893505  1
  Rh  Rh213  1  0.00194481  0.79832324  0.00534659  1
  Rh  Rh214  1  0.80445937  0.19863951  0.40376020  1
  Rh  Rh215  1  0.40035268  0.20390656  0.79465653  1
  Rh  Rh216  1  0.39791241  0.39318179  0.40632917  1
  Rh  Rh217  1  -0.00607922  0.00051421  0.79818159  1
  Rh  Rh218  1  0.19860093  -0.00392172  0.40157413  1
  Rh  Rh219  1  0.80859156  0.39757795  -0.00179803  1
  Rh  Rh220  1  0.19884277  0.59307997  0.41163191  1
  Rh  Rh221  1  -0.00167891  0.40038472  0.59606608  1
  Rh  Rh222  1  0.20324434  0.79747269  0.60397487  1
  Rh  Rh223  1  -0.00654949  0.59140897  0.00388901  1
  Rh  Rh224  1  0.60393503  0.59961252  0.59193738  1
  Rh  Rh225  1  0.59922970  0.78909013  0.80367003  1
  Rh  Rh226  1  0.79756583  0.40529887  0.79798298  1
  Rh  Rh227  1  -0.00847806  0.20583565  0.59759130  1
  Rh  Rh228  1  0.19817139  0.00062012  0.59787748  1
  Rh  Rh229  1  0.20474313  0.81048990  0.39740894  1
  Rh  Rh230  1  0.80256790  0.79959158  0.40423517  1
  Rh  Rh231  1  0.40457837  0.80494025  0.20329473  1
  Rh  Rh232  1  0.79833956  0.20470961  0.79787250  1
  Rh  Rh233  1  -0.00205436  0.59852407  0.19950141  1
  Rh  Rh234  1  0.80305631  0.60139734  0.60134667  1
  Rh  Rh235  1  0.59925100  0.19914605  0.80817170  1
  Rh  Rh236  1  0.39996109  0.00234250  0.20550658  1
  Rh  Rh237  1  0.39829639  0.20932780  0.60002857  1
  Rh  Rh238  1  0.19920273  0.20578005  0.39255460  1
  Rh  Rh239  1  0.20377059  0.39216660  0.80605022  1
  Rh  Rh240  1  0.19810969  0.60494674  0.00702346  1
  Rh  Rh241  1  0.00147828  0.39771042  0.80343527  1
  Rh  Rh242  1  0.79992369  0.39439946  0.20453995  1
  Rh  Rh243  1  0.80263774  -0.00065562  0.39027507  1
  Rh  Rh244  1  0.80761218  0.59372966  0.79942898  1
  Rh  Rh245  1  0.20174518  0.19775793  0.60639346  1
  Rh  Rh246  1  0.60079229  0.21364122  0.19724001  1
  Rh  Rh247  1  0.20205701  0.39946834  0.00408578  1
  Rh  Rh248  1  0.59266463  0.00514533  0.79282954  1
  Rh  Rh249  1  0.41306885  -0.01129622  0.60762349  1
