# generated using pymatgen
data_ZrScNbPdRh
_symmetry_space_group_name_H-M   'P 1'
_cell_length_a   16.55138749
_cell_length_b   16.55580073
_cell_length_c   16.55348076
_cell_angle_alpha   89.97935097
_cell_angle_beta   90.00644637
_cell_angle_gamma   89.99285978
_symmetry_Int_Tables_number   1
_chemical_formula_structural   ZrScNbPdRh
_chemical_formula_sum   'Zr50 Sc50 Nb50 Pd50 Rh50'
_cell_volume   4536.00882540
_cell_formula_units_Z   50
loop_
 _symmetry_equiv_pos_site_id
 _symmetry_equiv_pos_as_xyz
  1  'x, y, z'
loop_
 _atom_site_type_symbol
 _atom_site_label
 _atom_site_symmetry_multiplicity
 _atom_site_fract_x
 _atom_site_fract_y
 _atom_site_fract_z
 _atom_site_occupancy
  Zr  Zr0  1  0.10415413  0.70220199  0.50093058  1
  Zr  Zr1  1  0.11124995  0.30045247  0.10159481  1
  Zr  Zr2  1  0.49835036  0.30134285  0.50065770  1
  Zr  Zr3  1  0.89809195  0.09829707  0.09967710  1
  Zr  Zr4  1  0.09748310  0.09965391  0.49750810  1
  Zr  Zr5  1  0.09974631  0.70137825  0.30204636  1
  Zr  Zr6  1  0.50064037  0.30301725  0.29611253  1
  Zr  Zr7  1  0.89971946  0.70262205  0.29987319  1
  Zr  Zr8  1  0.30664339  0.50331158  0.50681769  1
  Zr  Zr9  1  0.69983008  0.09973165  0.48545773  1
  Zr  Zr10  1  0.49871798  0.89728448  0.89251476  1
  Zr  Zr11  1  0.90558177  0.50607688  0.49953950  1
  Zr  Zr12  1  0.30000347  0.09890353  0.30262494  1
  Zr  Zr13  1  0.30730317  0.69501879  0.09392251  1
  Zr  Zr14  1  0.71041983  0.29114898  0.10014331  1
  Zr  Zr15  1  0.30106767  0.90241655  0.89777746  1
  Zr  Zr16  1  0.30306353  0.70001849  0.49070034  1
  Zr  Zr17  1  0.70147688  0.69911070  0.09623283  1
  Zr  Zr18  1  0.09417569  0.69878675  0.70484831  1
  Zr  Zr19  1  0.29545497  0.49845224  0.70314092  1
  Zr  Zr20  1  0.10540063  0.89332300  0.70369255  1
  Zr  Zr21  1  0.09413534  0.30868070  0.70946020  1
  Zr  Zr22  1  0.30428777  0.09988318  0.50285052  1
  Zr  Zr23  1  0.30132901  0.09838760  0.90643421  1
  Zr  Zr24  1  0.50515349  0.69389074  0.10228315  1
  Zr  Zr25  1  0.29815872  0.69441989  0.69938919  1
  Zr  Zr26  1  0.90965805  0.09674592  0.90031915  1
  Zr  Zr27  1  0.89538669  0.90216552  0.70743052  1
  Zr  Zr28  1  0.50868731  0.09758017  0.30795957  1
  Zr  Zr29  1  0.10122069  0.49949520  0.89370300  1
  Zr  Zr30  1  0.70386172  0.30590722  0.90215799  1
  Zr  Zr31  1  0.50997635  0.50614594  0.49984750  1
  Zr  Zr32  1  0.09924283  0.50355959  0.70384523  1
  Zr  Zr33  1  0.49273337  0.70481188  0.29884044  1
  Zr  Zr34  1  0.70966241  0.09513953  0.69534695  1
  Zr  Zr35  1  0.30780084  0.90221435  0.69708391  1
  Zr  Zr36  1  0.89630136  0.89793948  0.49086070  1
  Zr  Zr37  1  0.10013084  0.09539890  0.70782783  1
  Zr  Zr38  1  0.10237574  0.10266294  0.09379247  1
  Zr  Zr39  1  0.29913525  0.69882539  0.30566146  1
  Zr  Zr40  1  0.89466177  0.09879896  0.49840279  1
  Zr  Zr41  1  0.50278837  0.49350028  0.90259296  1
  Zr  Zr42  1  0.30589689  0.89074124  0.30118730  1
  Zr  Zr43  1  0.50778295  0.49970808  0.29443802  1
  Zr  Zr44  1  0.49400373  0.49731771  0.69733179  1
  Zr  Zr45  1  0.29713622  0.10678110  0.09182869  1
  Zr  Zr46  1  0.10900265  0.30459921  0.29459609  1
  Zr  Zr47  1  0.69907985  0.29910497  0.49740147  1
  Zr  Zr48  1  0.09859027  0.50078969  0.49756655  1
  Zr  Zr49  1  0.50156241  0.09222190  0.09271678  1
  Sc  Sc50  1  0.70041833  0.69438965  0.70361308  1
  Sc  Sc51  1  0.50583182  0.70007945  0.71216692  1
  Sc  Sc52  1  0.29313866  0.49690480  0.31191261  1
  Sc  Sc53  1  0.69443561  0.50878824  0.70080853  1
  Sc  Sc54  1  0.49569555  0.29754800  0.70998408  1
  Sc  Sc55  1  0.89600004  0.30473868  0.28661545  1
  Sc  Sc56  1  0.50452161  0.90324079  0.10249404  1
  Sc  Sc57  1  0.90164655  0.09416672  0.30200935  1
  Sc  Sc58  1  0.89534022  0.69861553  0.90289452  1
  Sc  Sc59  1  0.90130636  0.69772309  0.70390980  1
  Sc  Sc60  1  0.08603386  0.30236024  0.90165155  1
  Sc  Sc61  1  0.49775357  0.31074222  0.09758209  1
  Sc  Sc62  1  0.70370862  0.90510606  0.09886679  1
  Sc  Sc63  1  0.90121014  0.71544334  0.10064743  1
  Sc  Sc64  1  0.10233783  0.48802763  0.10077837  1
  Sc  Sc65  1  0.07908963  0.89740138  0.09848461  1
  Sc  Sc66  1  0.09044747  0.90504752  0.30028930  1
  Sc  Sc67  1  0.90132216  0.29680720  0.49689755  1
  Sc  Sc68  1  0.89290906  0.70090481  0.51016435  1
  Sc  Sc69  1  0.69881333  0.30276158  0.70232569  1
  Sc  Sc70  1  0.50208315  0.49872494  0.09786249  1
  Sc  Sc71  1  0.69858560  0.70783641  0.29220831  1
  Sc  Sc72  1  0.29936710  0.30200654  0.49896684  1
  Sc  Sc73  1  0.30020642  0.48880957  0.08896108  1
  Sc  Sc74  1  0.09188323  0.49951717  0.30256715  1
  Sc  Sc75  1  0.89669703  0.90152055  0.28948950  1
  Sc  Sc76  1  0.30348422  0.09836327  0.69885087  1
  Sc  Sc77  1  0.69522453  0.29385427  0.29164231  1
  Sc  Sc78  1  0.10652718  0.89745758  0.50217129  1
  Sc  Sc79  1  0.09933872  0.30075969  0.49810781  1
  Sc  Sc80  1  0.31394989  0.29088904  0.90887483  1
  Sc  Sc81  1  0.09276307  0.69710837  0.89738518  1
  Sc  Sc82  1  0.69295800  0.49893534  0.09498887  1
  Sc  Sc83  1  0.89130098  0.49848269  0.89881982  1
  Sc  Sc84  1  0.49970357  0.90375890  0.29809780  1
  Sc  Sc85  1  0.30116979  0.30138955  0.69648415  1
  Sc  Sc86  1  0.09212611  0.90312108  0.89957564  1
  Sc  Sc87  1  0.30214712  0.50570786  0.90073775  1
  Sc  Sc88  1  0.09719306  0.09780114  0.30436927  1
  Sc  Sc89  1  0.90338334  0.50811012  0.70072344  1
  Sc  Sc90  1  0.70979637  0.89946966  0.49489771  1
  Sc  Sc91  1  0.30186288  0.89258630  0.50304082  1
  Sc  Sc92  1  0.70423044  0.90280138  0.29899536  1
  Sc  Sc93  1  0.69909415  0.09735713  0.10119501  1
  Sc  Sc94  1  0.69537467  0.10569111  0.91213123  1
  Sc  Sc95  1  0.31378932  0.90744800  0.09502145  1
  Sc  Sc96  1  0.70100823  0.90716383  0.90803305  1
  Sc  Sc97  1  0.69835709  0.68968930  0.89610192  1
  Sc  Sc98  1  0.29630332  0.30432503  0.30097171  1
  Sc  Sc99  1  0.90011833  0.30401389  0.09284757  1
  Nb  Nb100  1  0.49768846  0.69796570  0.90477155  1
  Nb  Nb101  1  0.10561383  0.10037071  0.90021689  1
  Nb  Nb102  1  0.69790753  0.50504507  0.50155447  1
  Nb  Nb103  1  0.90492022  0.49882684  0.11175538  1
  Nb  Nb104  1  0.69547279  0.10327548  0.29801506  1
  Nb  Nb105  1  0.69374937  0.89858417  0.70691851  1
  Nb  Nb106  1  0.89938394  0.50423504  0.30054388  1
  Nb  Nb107  1  0.90099233  0.29970116  0.70602100  1
  Nb  Nb108  1  0.50241868  0.09694255  0.50017214  1
  Nb  Nb109  1  0.29750773  0.29331054  0.10495646  1
  Nb  Nb110  1  0.49769777  0.11336014  0.89385872  1
  Nb  Nb111  1  0.69960089  0.50043685  0.29857047  1
  Nb  Nb112  1  0.69591494  0.69429940  0.50488747  1
  Nb  Nb113  1  0.50261112  0.29059984  0.89732656  1
  Nb  Nb114  1  0.30456289  0.70046015  0.90411296  1
  Nb  Nb115  1  0.69949854  0.50425089  0.89805930  1
  Nb  Nb116  1  0.50215810  0.70018581  0.49603619  1
  Nb  Nb117  1  0.49973298  0.09747930  0.69611006  1
  Nb  Nb118  1  0.50255168  0.90207269  0.50370692  1
  Nb  Nb119  1  0.50371468  0.90131453  0.69792799  1
  Nb  Nb120  1  0.89821415  0.89388736  0.91259372  1
  Nb  Nb121  1  0.89595821  0.90062667  0.08942150  1
  Nb  Nb122  1  0.90032024  0.09955215  0.70054005  1
  Nb  Nb123  1  0.09871300  0.70181675  0.10091005  1
  Nb  Nb124  1  0.89577952  0.29932341  0.89234022  1
  Nb  Nb125  1  -0.00478387  0.19561188  0.61054821  1
  Nb  Nb126  1  0.59566445  0.00517317  0.79483492  1
  Nb  Nb127  1  0.20130585  0.60383914  0.19569008  1
  Nb  Nb128  1  0.79872415  0.40554467  0.59412495  1
  Nb  Nb129  1  0.80343887  0.59415295  0.20190471  1
  Nb  Nb130  1  0.20733642  0.79672514  0.80703478  1
  Nb  Nb131  1  0.59709829  0.19082159  0.59906195  1
  Nb  Nb132  1  0.59864757  0.79833856  0.40904059  1
  Nb  Nb133  1  0.59840993  -0.00195336  0.60017878  1
  Nb  Nb134  1  0.00471890  0.20016495  0.19536673  1
  Nb  Nb135  1  0.59949660  0.80282552  0.59885949  1
  Nb  Nb136  1  0.79617008  0.80716706  0.80403035  1
  Nb  Nb137  1  -0.00126572  0.59693517  0.00997068  1
  Nb  Nb138  1  0.39774677  0.19976774  0.19733941  1
  Nb  Nb139  1  0.19644884  0.19633058  0.80547407  1
  Nb  Nb140  1  0.19973653  0.80082450  0.19153126  1
  Nb  Nb141  1  0.59746352  0.79505821  -0.00555555  1
  Nb  Nb142  1  -0.00370582  0.79769912  0.40090026  1
  Nb  Nb143  1  -0.00453267  0.00229904  0.60360812  1
  Nb  Nb144  1  0.80828167  0.19944869  0.80044963  1
  Nb  Nb145  1  0.79620078  0.41023414  0.39870386  1
  Nb  Nb146  1  0.79288776  0.59710355  0.39832294  1
  Nb  Nb147  1  0.20035327  0.79532482  0.00039076  1
  Nb  Nb148  1  0.39432351  0.59692375  0.20179632  1
  Nb  Nb149  1  0.20073256  -0.00444373  0.19709563  1
  Pd  Pd150  1  0.80226237  0.40748534  0.00307786  1
  Pd  Pd151  1  0.80440079  0.20880461  0.38657124  1
  Pd  Pd152  1  0.19118850  0.20547930  0.60814594  1
  Pd  Pd153  1  0.60556554  0.39601078  0.39517588  1
  Pd  Pd154  1  0.60334502  0.39413931  0.00130955  1
  Pd  Pd155  1  0.40311356  0.59826441  0.80490322  1
  Pd  Pd156  1  0.40467643  0.20331640  0.60334009  1
  Pd  Pd157  1  0.00296827  0.60144680  0.19529383  1
  Pd  Pd158  1  0.80875476  0.59546523  0.00907761  1
  Pd  Pd159  1  0.61064534  0.19432203  0.79319355  1
  Pd  Pd160  1  0.20175076  -0.00744879  0.39644942  1
  Pd  Pd161  1  0.60137962  0.39408344  0.60702750  1
  Pd  Pd162  1  -0.00699528  0.39149036  0.39269884  1
  Pd  Pd163  1  0.60254310  0.40315531  0.79823032  1
  Pd  Pd164  1  0.39444305  0.39563682  0.80588858  1
  Pd  Pd165  1  0.40172645  0.40504316  0.40199673  1
  Pd  Pd166  1  0.39890191  -0.00659598  0.40556608  1
  Pd  Pd167  1  0.40035631  0.20330077  0.39436386  1
  Pd  Pd168  1  -0.00357151  0.20670620  0.39132211  1
  Pd  Pd169  1  0.79899448  0.40431520  0.78928078  1
  Pd  Pd170  1  0.21167483  0.38668377  0.81187372  1
  Pd  Pd171  1  0.39749917  0.79393352  0.79508596  1
  Pd  Pd172  1  0.19706961  0.60086512  0.59781213  1
  Pd  Pd173  1  -0.00313896  0.80619516  0.59642162  1
  Pd  Pd174  1  0.59664012  0.20725742  0.00747457  1
  Pd  Pd175  1  0.40767893  0.60851347  0.60134003  1
  Pd  Pd176  1  0.38964492  0.40223536  0.19963068  1
  Pd  Pd177  1  0.79970181  -0.00805342  0.59667772  1
  Pd  Pd178  1  0.19835472  0.39693965  0.59659669  1
  Pd  Pd179  1  0.20179105  0.20315091  0.40074704  1
  Pd  Pd180  1  0.79407820  0.40480869  0.19969134  1
  Pd  Pd181  1  0.40715271  0.79127453  0.60085716  1
  Pd  Pd182  1  0.79655105  0.00320412  0.19995755  1
  Pd  Pd183  1  0.19810260  -0.00090752  0.59845167  1
  Pd  Pd184  1  0.60476432  0.61003221  0.38978040  1
  Pd  Pd185  1  0.20566803  0.39163400  -0.01087201  1
  Pd  Pd186  1  -0.00102894  -0.00695730  0.80119957  1
  Pd  Pd187  1  -0.00099057  0.20398807  0.00281891  1
  Pd  Pd188  1  0.19089518  0.60245449  0.00070496  1
  Pd  Pd189  1  -0.00706493  0.39570232  0.60200373  1
  Pd  Pd190  1  0.39762935  0.00691024  0.20074110  1
  Pd  Pd191  1  0.80023630  0.20967231  0.60477057  1
  Pd  Pd192  1  0.79480912  0.00361043  0.81403900  1
  Pd  Pd193  1  0.79235619  0.79891436  0.60981695  1
  Pd  Pd194  1  0.40620374  0.80380681  0.00465074  1
  Pd  Pd195  1  0.19130461  -0.01544569  0.00734122  1
  Pd  Pd196  1  0.40402508  0.00848704  0.80147002  1
  Pd  Pd197  1  0.60280903  0.80923395  0.19824798  1
  Pd  Pd198  1  0.59050590  0.19891702  0.19017047  1
  Pd  Pd199  1  -0.00752299  0.40679715  -0.00342096  1
  Rh  Rh200  1  0.59635956  0.20540647  0.40258906  1
  Rh  Rh201  1  0.00232375  0.79144832  -0.00517081  1
  Rh  Rh202  1  0.39280762  0.19696979  0.79472296  1
  Rh  Rh203  1  0.19385685  0.21097036  -0.01314449  1
  Rh  Rh204  1  -0.00051371  -0.00853272  0.40855997  1
  Rh  Rh205  1  0.19795686  0.40270473  0.40762766  1
  Rh  Rh206  1  0.59170097  -0.00516816  -0.01121305  1
  Rh  Rh207  1  0.40173781  0.39569804  -0.00413802  1
  Rh  Rh208  1  0.40801934  0.59093536  0.39624814  1
  Rh  Rh209  1  0.79938444  0.60411418  0.79956549  1
  Rh  Rh210  1  0.80733041  0.19269902  0.20132827  1
  Rh  Rh211  1  0.20318522  0.60774408  0.80580702  1
  Rh  Rh212  1  0.00293263  0.00801654  0.19243366  1
  Rh  Rh213  1  0.59461830  0.59257696  0.80390279  1
  Rh  Rh214  1  0.20445174  0.41204569  0.20158629  1
  Rh  Rh215  1  0.79710065  0.78952124  0.39901063  1
  Rh  Rh216  1  -0.00575225  0.59657714  0.81120845  1
  Rh  Rh217  1  0.60926634  0.39742723  0.19364914  1
  Rh  Rh218  1  0.20534538  0.79631446  0.60949386  1
  Rh  Rh219  1  0.00410309  0.39231804  0.20283763  1
  Rh  Rh220  1  0.79926713  0.59478226  0.59915314  1
  Rh  Rh221  1  0.20115217  0.18911497  0.20757677  1
  Rh  Rh222  1  0.19462834  0.59384847  0.39938850  1
  Rh  Rh223  1  0.41025571  0.80706586  0.40670240  1
  Rh  Rh224  1  0.60515669  -0.00951718  0.40066779  1
  Rh  Rh225  1  0.60453046  0.00127381  0.20562229  1
  Rh  Rh226  1  0.00052667  0.00021743  -0.00174394  1
  Rh  Rh227  1  -0.00041034  0.80512706  0.20539607  1
  Rh  Rh228  1  0.60215619  0.59747568  0.20217641  1
  Rh  Rh229  1  0.78888441  0.79932594  -0.00557297  1
  Rh  Rh230  1  0.80252368  0.00617035  -0.00009516  1
  Rh  Rh231  1  0.00455256  0.60380640  0.59980542  1
  Rh  Rh232  1  0.19066228  0.80870274  0.39151822  1
  Rh  Rh233  1  0.39749184  0.79581933  0.19337244  1
  Rh  Rh234  1  0.80513917  0.19774513  -0.00799759  1
  Rh  Rh235  1  0.79947642  0.80044168  0.19347940  1
  Rh  Rh236  1  0.41147659  0.20436655  0.00980779  1
  Rh  Rh237  1  0.59365613  0.60740677  0.60687331  1
  Rh  Rh238  1  0.40917095  0.00166052  -0.00879991  1
  Rh  Rh239  1  0.20404890  -0.00111288  0.80105478  1
  Rh  Rh240  1  0.00096133  0.19971943  0.79885658  1
  Rh  Rh241  1  -0.00649239  0.80132657  0.80753224  1
  Rh  Rh242  1  0.40237980  0.00082897  0.59358504  1
  Rh  Rh243  1  0.60629053  0.80410811  0.80566546  1
  Rh  Rh244  1  -0.00504131  0.61149914  0.40695254  1
  Rh  Rh245  1  -0.00990079  0.40977796  0.80282824  1
  Rh  Rh246  1  0.59742456  0.60137990  -0.00816207  1
  Rh  Rh247  1  0.79713001  0.00451864  0.38780163  1
  Rh  Rh248  1  0.40165005  0.39813014  0.60003140  1
  Rh  Rh249  1  0.40730078  0.59162119  0.00140914  1
