# generated using pymatgen
data_ZrScNbPdRh
_symmetry_space_group_name_H-M   'P 1'
_cell_length_a   16.55816961
_cell_length_b   16.55803343
_cell_length_c   16.56036825
_cell_angle_alpha   90.02016753
_cell_angle_beta   90.02741402
_cell_angle_gamma   90.04551014
_symmetry_Int_Tables_number   1
_chemical_formula_structural   ZrScNbPdRh
_chemical_formula_sum   'Zr50 Sc50 Nb50 Pd50 Rh50'
_cell_volume   4540.36594838
_cell_formula_units_Z   50
loop_
 _symmetry_equiv_pos_site_id
 _symmetry_equiv_pos_as_xyz
  1  'x, y, z'
loop_
 _atom_site_type_symbol
 _atom_site_label
 _atom_site_symmetry_multiplicity
 _atom_site_fract_x
 _atom_site_fract_y
 _atom_site_fract_z
 _atom_site_occupancy
  Zr  Zr0  1  0.90212740  0.29119274  0.10352255  1
  Zr  Zr1  1  0.10239898  0.09448212  0.69650216  1
  Zr  Zr2  1  0.70242896  0.09757392  0.09964620  1
  Zr  Zr3  1  0.89963304  0.29949370  0.50303922  1
  Zr  Zr4  1  0.50261757  0.30273366  0.09709817  1
  Zr  Zr5  1  0.09925867  0.89999964  0.70284068  1
  Zr  Zr6  1  0.89882167  0.90874938  0.90282007  1
  Zr  Zr7  1  0.09864259  0.30108594  0.69989517  1
  Zr  Zr8  1  0.69378330  0.89772907  0.29264412  1
  Zr  Zr9  1  0.11112193  0.29530192  0.30187224  1
  Zr  Zr10  1  0.29765560  0.31369983  0.89585303  1
  Zr  Zr11  1  0.50108965  0.30040934  0.70352214  1
  Zr  Zr12  1  0.29209110  0.89151683  0.29941646  1
  Zr  Zr13  1  0.69433200  0.69696887  0.51373405  1
  Zr  Zr14  1  0.50798110  0.30235945  0.51026526  1
  Zr  Zr15  1  0.09865685  0.30619536  0.49814732  1
  Zr  Zr16  1  0.10602108  0.50501520  0.09839801  1
  Zr  Zr17  1  0.89604049  0.50242098  0.29942707  1
  Zr  Zr18  1  0.30215762  0.68881967  0.30107158  1
  Zr  Zr19  1  0.70177688  0.90113085  0.48805168  1
  Zr  Zr20  1  0.10056883  0.70062473  0.69646681  1
  Zr  Zr21  1  0.90051171  0.29984718  0.70756397  1
  Zr  Zr22  1  0.70976857  0.09097143  0.89727700  1
  Zr  Zr23  1  0.09538427  0.89733959  0.10349504  1
  Zr  Zr24  1  0.08785956  0.10307147  0.10575666  1
  Zr  Zr25  1  0.30137678  0.10683638  0.69054472  1
  Zr  Zr26  1  0.49495536  0.49703208  0.10111112  1
  Zr  Zr27  1  0.69965878  0.70249287  0.10403336  1
  Zr  Zr28  1  0.89791213  0.09660372  0.70425827  1
  Zr  Zr29  1  0.30390946  0.30925268  0.10453240  1
  Zr  Zr30  1  0.10380032  0.69192236  0.90073209  1
  Zr  Zr31  1  0.70181556  0.69482595  0.71039470  1
  Zr  Zr32  1  0.50379701  0.10534681  0.09740912  1
  Zr  Zr33  1  0.30130492  0.30466322  0.69920173  1
  Zr  Zr34  1  0.30338757  0.50315936  0.10246803  1
  Zr  Zr35  1  0.70505210  0.29432074  0.30620321  1
  Zr  Zr36  1  0.69560811  0.29462003  0.70217374  1
  Zr  Zr37  1  0.09319048  0.90359437  0.29303165  1
  Zr  Zr38  1  0.30253608  0.10393605  0.50262414  1
  Zr  Zr39  1  0.89526563  0.70050826  0.70031682  1
  Zr  Zr40  1  0.50144306  0.69131678  0.89304330  1
  Zr  Zr41  1  0.09850977  0.69895153  0.10187727  1
  Zr  Zr42  1  0.10034463  0.10687042  0.49762819  1
  Zr  Zr43  1  0.29560018  0.69293831  0.10108870  1
  Zr  Zr44  1  0.50959563  0.69858291  0.69488737  1
  Zr  Zr45  1  0.29307676  0.69784458  0.70640212  1
  Zr  Zr46  1  0.50714303  0.10477120  0.29673165  1
  Zr  Zr47  1  0.09824274  0.30279607  0.90068453  1
  Zr  Zr48  1  0.30311164  0.89739510  0.89051050  1
  Zr  Zr49  1  0.90098978  0.49588697  0.70178775  1
  Sc  Sc50  1  0.29534741  0.29845424  0.50286745  1
  Sc  Sc51  1  0.69885337  0.10762265  0.49541088  1
  Sc  Sc52  1  0.90516802  0.49674249  0.49671283  1
  Sc  Sc53  1  0.69764496  0.89099300  0.70748301  1
  Sc  Sc54  1  0.90053451  0.89806592  0.10180909  1
  Sc  Sc55  1  0.89762394  0.70605948  0.30015611  1
  Sc  Sc56  1  0.89877992  0.09832975  0.09582131  1
  Sc  Sc57  1  0.29931410  0.90098080  0.70038213  1
  Sc  Sc58  1  0.89758201  0.30047813  0.90444070  1
  Sc  Sc59  1  0.29568465  0.70213884  0.49537153  1
  Sc  Sc60  1  0.70531883  0.70939044  0.29323312  1
  Sc  Sc61  1  0.49234358  0.50425014  0.89773321  1
  Sc  Sc62  1  0.50441710  0.09834108  0.50806424  1
  Sc  Sc63  1  0.89684319  0.70119380  0.10805895  1
  Sc  Sc64  1  0.89962254  0.89692653  0.49690406  1
  Sc  Sc65  1  0.51050073  0.90565906  0.10002644  1
  Sc  Sc66  1  0.90345883  0.49290318  0.89989977  1
  Sc  Sc67  1  0.49828299  0.70446009  0.30286415  1
  Sc  Sc68  1  0.50348458  0.49856808  0.50435088  1
  Sc  Sc69  1  0.30441100  0.09440505  0.89375699  1
  Sc  Sc70  1  0.51012586  0.30467239  0.28690815  1
  Sc  Sc71  1  0.69550392  0.10122260  0.70687981  1
  Sc  Sc72  1  0.70256130  0.29903810  0.10580775  1
  Sc  Sc73  1  0.70779823  0.09817506  0.30306840  1
  Sc  Sc74  1  0.90220456  0.10104199  0.29702838  1
  Sc  Sc75  1  0.89637717  0.70289613  0.90403427  1
  Sc  Sc76  1  0.10632366  0.70940062  0.30103958  1
  Sc  Sc77  1  0.09395952  0.50442208  0.49697974  1
  Sc  Sc78  1  0.29634202  0.90284190  0.09907211  1
  Sc  Sc79  1  0.70372066  0.48353587  0.29722537  1
  Sc  Sc80  1  0.89373418  0.49095929  0.10496918  1
  Sc  Sc81  1  0.89441853  0.89951546  0.30545478  1
  Sc  Sc82  1  0.30351451  0.10149974  0.10065431  1
  Sc  Sc83  1  0.90020651  0.70507333  0.50057460  1
  Sc  Sc84  1  0.70090981  0.29427986  0.89396830  1
  Sc  Sc85  1  0.90438430  0.89771207  0.69492786  1
  Sc  Sc86  1  0.29263882  0.11223804  0.29581677  1
  Sc  Sc87  1  0.49865627  0.69055589  0.09654279  1
  Sc  Sc88  1  0.29435255  0.51070622  0.49033699  1
  Sc  Sc89  1  0.90028351  0.10024928  0.49542770  1
  Sc  Sc90  1  0.50740953  0.10119740  0.69792385  1
  Sc  Sc91  1  0.50950812  0.09163509  0.89861726  1
  Sc  Sc92  1  0.50208228  0.90148075  0.70003306  1
  Sc  Sc93  1  0.50130383  0.49190411  0.70006259  1
  Sc  Sc94  1  0.09365754  0.50941682  0.70323906  1
  Sc  Sc95  1  0.69712305  0.49174592  0.50218108  1
  Sc  Sc96  1  0.08970149  0.89906447  0.50687649  1
  Sc  Sc97  1  0.09590970  0.30429519  0.10297817  1
  Sc  Sc98  1  0.30697134  0.89685674  0.50368571  1
  Sc  Sc99  1  0.89526284  0.30214563  0.29915406  1
  Nb  Nb100  1  0.30137223  0.50334419  0.69982829  1
  Nb  Nb101  1  0.90610240  0.09685032  0.90228233  1
  Nb  Nb102  1  0.50200845  0.89788805  0.89924375  1
  Nb  Nb103  1  0.29790458  0.30725956  0.30402298  1
  Nb  Nb104  1  0.30066839  0.49798817  0.29691483  1
  Nb  Nb105  1  0.69244196  0.51129629  0.90115340  1
  Nb  Nb106  1  0.49775102  0.69669540  0.50002726  1
  Nb  Nb107  1  0.70269451  0.89583332  0.09901057  1
  Nb  Nb108  1  0.29922488  0.50819476  0.89426754  1
  Nb  Nb109  1  0.10232311  0.50126802  0.90419732  1
  Nb  Nb110  1  0.70462402  0.30320786  0.49973482  1
  Nb  Nb111  1  0.50099269  0.89917250  0.30005998  1
  Nb  Nb112  1  0.30307895  0.69691360  0.89564104  1
  Nb  Nb113  1  0.69999865  0.89071961  0.89982325  1
  Nb  Nb114  1  0.70267724  0.50352766  0.70083786  1
  Nb  Nb115  1  0.50177078  0.89337776  0.48962966  1
  Nb  Nb116  1  0.10084026  0.69726072  0.50882269  1
  Nb  Nb117  1  0.10030844  0.09891536  0.30024680  1
  Nb  Nb118  1  0.69827580  0.50321842  0.10171923  1
  Nb  Nb119  1  0.10639270  0.49336572  0.30097135  1
  Nb  Nb120  1  0.09910717  0.90238676  0.89942740  1
  Nb  Nb121  1  0.49939377  0.30515343  0.89906377  1
  Nb  Nb122  1  0.09123949  0.09428323  0.90301100  1
  Nb  Nb123  1  0.49364668  0.50395139  0.29902263  1
  Nb  Nb124  1  0.69425248  0.69782538  0.89712366  1
  Nb  Nb125  1  0.40187978  0.80407201  0.19674277  1
  Nb  Nb126  1  0.00444928  0.80187775  0.80443929  1
  Nb  Nb127  1  0.40241072  0.20600685  0.39758249  1
  Nb  Nb128  1  0.19941036  0.40800439  0.60236726  1
  Nb  Nb129  1  0.60070743  0.79892144  -0.00610567  1
  Nb  Nb130  1  0.40343337  -0.00361401  0.20827622  1
  Nb  Nb131  1  0.00481444  0.59517375  0.20552833  1
  Nb  Nb132  1  0.40320163  0.20642780  0.80359440  1
  Nb  Nb133  1  0.19963675  0.00261636  0.39721732  1
  Nb  Nb134  1  0.60086435  0.59463826  0.20608033  1
  Nb  Nb135  1  0.20248941  0.80152264  -0.00825979  1
  Nb  Nb136  1  0.79783818  0.39552832  0.60505429  1
  Nb  Nb137  1  0.79154222  0.60037318  0.40019999  1
  Nb  Nb138  1  0.79615293  0.00028458  0.59877810  1
  Nb  Nb139  1  0.20003206  0.19637755  -0.00391167  1
  Nb  Nb140  1  0.78952106  0.59783245  0.00050516  1
  Nb  Nb141  1  0.39860180  0.60360079  0.60047645  1
  Nb  Nb142  1  0.39874062  0.39858175  0.39413066  1
  Nb  Nb143  1  0.60170177  0.59915834  0.39661735  1
  Nb  Nb144  1  0.19227758  0.00097544  -0.00393346  1
  Nb  Nb145  1  0.40102650  0.80038505  -0.00418747  1
  Nb  Nb146  1  0.60400386  0.40683214  -0.00282612  1
  Nb  Nb147  1  0.39921952  0.20687251  -0.00755597  1
  Nb  Nb148  1  0.00144465  0.19233094  0.80612248  1
  Nb  Nb149  1  0.40125839  0.00104013  0.39367168  1
  Pd  Pd150  1  0.79940023  0.19902184  -0.00248621  1
  Pd  Pd151  1  0.20009234  0.19179746  0.80623605  1
  Pd  Pd152  1  0.39602544  -0.00068279  0.00509824  1
  Pd  Pd153  1  0.60066325  0.20714562  -0.00672785  1
  Pd  Pd154  1  0.20077147  -0.00832669  0.58970285  1
  Pd  Pd155  1  0.19902597  0.20318578  0.18951167  1
  Pd  Pd156  1  0.60727096  -0.00646318  0.59799211  1
  Pd  Pd157  1  0.00191646  0.00034129  0.40107437  1
  Pd  Pd158  1  0.19244654  0.41295001  0.79274012  1
  Pd  Pd159  1  0.59851173  0.80926050  0.59749128  1
  Pd  Pd160  1  0.80592772  -0.00227850  0.19907305  1
  Pd  Pd161  1  0.38866781  0.41064684  0.58786826  1
  Pd  Pd162  1  0.39870288  0.20029081  0.20118915  1
  Pd  Pd163  1  0.00384502  0.79595444  0.40155850  1
  Pd  Pd164  1  0.60108356  0.00307012  0.19953908  1
  Pd  Pd165  1  0.20405431  0.00622265  0.19878279  1
  Pd  Pd166  1  -0.00140011  0.39528681  0.39179482  1
  Pd  Pd167  1  -0.00108812  0.60891031  0.39313130  1
  Pd  Pd168  1  -0.00059831  0.19574301  0.60555621  1
  Pd  Pd169  1  -0.00111017  0.40266793  0.00350457  1
  Pd  Pd170  1  0.59294249  0.40381958  0.39666357  1
  Pd  Pd171  1  0.40727022  0.79813726  0.79645594  1
  Pd  Pd172  1  -0.00554615  0.20491148  0.39256802  1
  Pd  Pd173  1  0.40042481  0.79420367  0.60224033  1
  Pd  Pd174  1  0.79047176  0.40300655  -0.00131084  1
  Pd  Pd175  1  -0.01588041  0.59482184  0.00959050  1
  Pd  Pd176  1  0.79140364  0.40318190  0.80103069  1
  Pd  Pd177  1  0.79674286  0.79538445  -0.00080137  1
  Pd  Pd178  1  0.80328975  0.58864142  0.59120527  1
  Pd  Pd179  1  0.00273277  0.79890961  -0.00459321  1
  Pd  Pd180  1  -0.00635404  0.60112491  0.59568731  1
  Pd  Pd181  1  0.60319702  0.40588580  0.80636683  1
  Pd  Pd182  1  0.80696817  0.59691145  0.81090846  1
  Pd  Pd183  1  0.59633607  0.00406741  0.40141966  1
  Pd  Pd184  1  0.20236739  0.00522598  0.80094037  1
  Pd  Pd185  1  0.60820904  -0.00742407  -0.00327882  1
  Pd  Pd186  1  0.79726709  0.80842678  0.60049912  1
  Pd  Pd187  1  0.59522875  0.20396295  0.40276929  1
  Pd  Pd188  1  0.20242289  0.80371617  0.59562327  1
  Pd  Pd189  1  0.18942472  0.60014679  0.39707716  1
  Pd  Pd190  1  -0.00626439  0.60485836  0.80512893  1
  Pd  Pd191  1  0.19110025  0.80764337  0.41132172  1
  Pd  Pd192  1  0.00242138  0.40173407  0.20524162  1
  Pd  Pd193  1  0.79481786  0.19682603  0.59960459  1
  Pd  Pd194  1  0.60381662  0.78896976  0.39937945  1
  Pd  Pd195  1  0.40773192  -0.00457981  0.59579653  1
  Pd  Pd196  1  0.40636061  0.00770480  0.79078968  1
  Pd  Pd197  1  0.79844374  -0.00908116  0.79304490  1
  Pd  Pd198  1  0.39897698  0.80093935  0.39572724  1
  Pd  Pd199  1  0.20048895  0.40095821  0.00358967  1
  Rh  Rh200  1  0.20459375  0.40480834  0.40681165  1
  Rh  Rh201  1  0.80482457  0.20040211  0.40044431  1
  Rh  Rh202  1  0.60195884  0.40549359  0.19405071  1
  Rh  Rh203  1  0.40307846  0.59758265  0.78920483  1
  Rh  Rh204  1  0.39896403  0.39966512  0.20812187  1
  Rh  Rh205  1  0.20426858  0.59649147  0.59996008  1
  Rh  Rh206  1  0.80942743  0.80109249  0.80333391  1
  Rh  Rh207  1  0.80337477  0.40311719  0.41051912  1
  Rh  Rh208  1  0.59519797  0.80166206  0.80465191  1
  Rh  Rh209  1  0.19991026  0.40284300  0.19881070  1
  Rh  Rh210  1  0.00076307  -0.00264507  0.00865924  1
  Rh  Rh211  1  0.40392145  0.40398647  -0.00779475  1
  Rh  Rh212  1  0.80374429  0.81068226  0.20070390  1
  Rh  Rh213  1  0.60249638  -0.00530853  0.80202447  1
  Rh  Rh214  1  0.40680026  0.60703766  0.20321760  1
  Rh  Rh215  1  0.40928933  0.59334817  0.40777311  1
  Rh  Rh216  1  -0.00936866  0.00424792  0.59650997  1
  Rh  Rh217  1  0.40650981  0.20212056  0.60212446  1
  Rh  Rh218  1  0.79762125  -0.00392972  0.00270650  1
  Rh  Rh219  1  0.20636451  0.79609314  0.19029567  1
  Rh  Rh220  1  0.58943672  0.79329232  0.18874707  1
  Rh  Rh221  1  0.19433597  0.21102847  0.59787380  1
  Rh  Rh222  1  0.61178333  0.40148164  0.60734420  1
  Rh  Rh223  1  0.00433446  0.39786102  0.80448214  1
  Rh  Rh224  1  0.60375107  0.60038028  0.00907393  1
  Rh  Rh225  1  0.19265679  0.79839173  0.80370275  1
  Rh  Rh226  1  0.00171229  0.40477337  0.60305021  1
  Rh  Rh227  1  0.59385698  0.19536395  0.80517667  1
  Rh  Rh228  1  -0.00007486  0.20170443  0.20735722  1
  Rh  Rh229  1  0.20506877  0.19651604  0.40287768  1
  Rh  Rh230  1  0.40006629  0.40248120  0.80163679  1
  Rh  Rh231  1  0.59433312  0.59301721  0.60030021  1
  Rh  Rh232  1  0.79785091  0.39301379  0.19675993  1
  Rh  Rh233  1  0.80066407  0.00264653  0.40463267  1
  Rh  Rh234  1  -0.00174609  0.79454190  0.60446456  1
  Rh  Rh235  1  0.00309267  0.20167099  -0.00487187  1
  Rh  Rh236  1  0.80914698  0.19631965  0.80809205  1
  Rh  Rh237  1  0.19695602  0.59460080  0.80128239  1
  Rh  Rh238  1  0.61203487  0.19733440  0.19928053  1
  Rh  Rh239  1  0.20783638  0.60076543  -0.00743004  1
  Rh  Rh240  1  0.79322252  0.79257938  0.40257829  1
  Rh  Rh241  1  0.19208026  0.59718811  0.21131895  1
  Rh  Rh242  1  -0.00418678  0.79462995  0.20510416  1
  Rh  Rh243  1  -0.00156246  -0.00207663  0.79632145  1
  Rh  Rh244  1  0.39268406  0.60030375  -0.00410271  1
  Rh  Rh245  1  0.79964537  0.59690255  0.20273108  1
  Rh  Rh246  1  0.59615711  0.59162698  0.79043332  1
  Rh  Rh247  1  0.60518490  0.20005307  0.59885128  1
  Rh  Rh248  1  0.80006452  0.19721960  0.20062076  1
  Rh  Rh249  1  -0.00741651  0.00115774  0.20135910  1
