# generated using pymatgen
data_ZrScNbPdRh
_symmetry_space_group_name_H-M   'P 1'
_cell_length_a   16.54952038
_cell_length_b   16.55656534
_cell_length_c   16.55236368
_cell_angle_alpha   90.01037039
_cell_angle_beta   89.95811422
_cell_angle_gamma   90.01619422
_symmetry_Int_Tables_number   1
_chemical_formula_structural   ZrScNbPdRh
_chemical_formula_sum   'Zr50 Sc50 Nb50 Pd50 Rh50'
_cell_volume   4535.39940615
_cell_formula_units_Z   50
loop_
 _symmetry_equiv_pos_site_id
 _symmetry_equiv_pos_as_xyz
  1  'x, y, z'
loop_
 _atom_site_type_symbol
 _atom_site_label
 _atom_site_symmetry_multiplicity
 _atom_site_fract_x
 _atom_site_fract_y
 _atom_site_fract_z
 _atom_site_occupancy
  Zr  Zr0  1  0.90195794  0.69497462  0.69893790  1
  Zr  Zr1  1  0.09757610  0.89989939  0.90294173  1
  Zr  Zr2  1  0.29068255  0.89984873  0.69169703  1
  Zr  Zr3  1  0.29716989  0.49780386  0.70865956  1
  Zr  Zr4  1  0.50634729  0.50590948  0.29699544  1
  Zr  Zr5  1  0.30169369  0.10318743  0.10010480  1
  Zr  Zr6  1  0.90157605  0.30382383  0.29627324  1
  Zr  Zr7  1  0.50093641  0.69578736  0.50153708  1
  Zr  Zr8  1  0.70287060  0.49371784  0.30079844  1
  Zr  Zr9  1  0.49618420  0.69783295  0.10624419  1
  Zr  Zr10  1  0.90985646  0.49558042  0.50219996  1
  Zr  Zr11  1  0.49981255  0.30383476  0.89336516  1
  Zr  Zr12  1  0.69567638  0.89300125  0.09493534  1
  Zr  Zr13  1  0.50390964  0.89651837  0.69746139  1
  Zr  Zr14  1  0.90428238  0.30076805  0.09939622  1
  Zr  Zr15  1  0.70421597  0.90446299  0.30231878  1
  Zr  Zr16  1  0.70266756  0.89788038  0.49953380  1
  Zr  Zr17  1  0.09639525  0.30952532  0.49585432  1
  Zr  Zr18  1  0.70173029  0.10539768  0.89711476  1
  Zr  Zr19  1  0.10355791  0.50201990  0.89586062  1
  Zr  Zr20  1  0.09767683  0.50555995  0.49732534  1
  Zr  Zr21  1  0.49704604  0.31119532  0.10184826  1
  Zr  Zr22  1  0.69498412  0.49739176  0.10767633  1
  Zr  Zr23  1  0.89238439  0.30235006  0.50250366  1
  Zr  Zr24  1  0.69549224  0.10212562  0.69900498  1
  Zr  Zr25  1  0.70752521  0.29290813  0.30164145  1
  Zr  Zr26  1  0.09606618  0.30603066  0.90589748  1
  Zr  Zr27  1  0.68964687  0.90184032  0.90017202  1
  Zr  Zr28  1  0.90179692  0.29636983  0.89624436  1
  Zr  Zr29  1  0.90693232  0.90623704  0.29785541  1
  Zr  Zr30  1  0.29520715  0.70151139  0.10321449  1
  Zr  Zr31  1  0.69470419  0.30836989  0.70051171  1
  Zr  Zr32  1  0.09417243  0.09559689  0.29183490  1
  Zr  Zr33  1  0.49457987  0.89522761  0.49421607  1
  Zr  Zr34  1  0.90439033  0.70695237  0.90040556  1
  Zr  Zr35  1  0.89916701  0.90125395  0.91171267  1
  Zr  Zr36  1  0.49560479  0.09751884  0.48413651  1
  Zr  Zr37  1  0.49434615  0.30191885  0.50407015  1
  Zr  Zr38  1  0.49679687  0.89369389  0.08457868  1
  Zr  Zr39  1  0.09814205  0.49169965  0.30639873  1
  Zr  Zr40  1  0.30203900  0.10121272  0.90245528  1
  Zr  Zr41  1  0.50301835  0.69261967  0.69363004  1
  Zr  Zr42  1  0.70780465  0.69394516  0.89599903  1
  Zr  Zr43  1  0.30672796  0.50011286  0.09757184  1
  Zr  Zr44  1  0.89733483  0.30659324  0.69303910  1
  Zr  Zr45  1  0.29554400  0.30305509  0.29977956  1
  Zr  Zr46  1  0.29948748  0.30222092  0.50267815  1
  Zr  Zr47  1  0.29235686  0.10557398  0.70332338  1
  Zr  Zr48  1  0.49299007  0.50301975  0.70259252  1
  Zr  Zr49  1  0.90177458  0.10274135  0.90249862  1
  Sc  Sc50  1  0.90863935  0.89317093  0.69862513  1
  Sc  Sc51  1  0.10265326  0.89718277  0.51004019  1
  Sc  Sc52  1  0.29746341  0.50094275  0.30290144  1
  Sc  Sc53  1  0.89559245  0.90105835  0.49586773  1
  Sc  Sc54  1  0.70041335  0.89017690  0.69757296  1
  Sc  Sc55  1  0.70091533  0.49209971  0.49852405  1
  Sc  Sc56  1  0.29217001  0.69042098  0.91201182  1
  Sc  Sc57  1  0.90840209  0.49889028  0.89511961  1
  Sc  Sc58  1  0.50043022  0.89946529  0.29928858  1
  Sc  Sc59  1  0.29954651  0.70596758  0.49384466  1
  Sc  Sc60  1  0.30260011  0.89291787  0.29976431  1
  Sc  Sc61  1  0.69541485  0.69266757  0.29829354  1
  Sc  Sc62  1  0.10159379  0.69976652  0.90126029  1
  Sc  Sc63  1  0.10070282  0.69954168  0.49993839  1
  Sc  Sc64  1  0.90462170  0.11051315  0.69186671  1
  Sc  Sc65  1  0.90389259  0.50152565  0.69517370  1
  Sc  Sc66  1  0.09361242  0.49966564  0.70759691  1
  Sc  Sc67  1  0.09885221  0.89972809  0.69400877  1
  Sc  Sc68  1  0.11234017  0.69822893  0.30088880  1
  Sc  Sc69  1  0.09389353  0.90219285  0.10993223  1
  Sc  Sc70  1  0.30221078  0.89817523  0.91509653  1
  Sc  Sc71  1  0.50354521  0.09245087  0.90114976  1
  Sc  Sc72  1  0.70402780  0.10788622  0.48811103  1
  Sc  Sc73  1  0.30995108  0.69099360  0.69553542  1
  Sc  Sc74  1  0.29841396  0.49706548  0.49379414  1
  Sc  Sc75  1  0.30028192  0.10530772  0.49843411  1
  Sc  Sc76  1  0.49731741  0.29576962  0.29988043  1
  Sc  Sc77  1  0.70212365  0.30244157  0.11528370  1
  Sc  Sc78  1  0.70434078  0.69884329  0.51219871  1
  Sc  Sc79  1  0.50025579  0.50127464  0.49260358  1
  Sc  Sc80  1  0.49394996  0.70069444  0.90947917  1
  Sc  Sc81  1  0.10139328  0.49261098  0.10966703  1
  Sc  Sc82  1  0.30285704  0.29477301  0.10415430  1
  Sc  Sc83  1  0.30263248  0.70200858  0.29502338  1
  Sc  Sc84  1  0.89051420  0.49905898  0.10529268  1
  Sc  Sc85  1  0.89731189  0.10210781  0.30672873  1
  Sc  Sc86  1  0.50183041  0.10977964  0.09914061  1
  Sc  Sc87  1  0.48880198  0.49253116  0.90088930  1
  Sc  Sc88  1  0.90502358  0.10549467  0.50067229  1
  Sc  Sc89  1  0.29803016  0.29293498  0.89606076  1
  Sc  Sc90  1  0.10726421  0.30390242  0.70266933  1
  Sc  Sc91  1  0.49773874  0.69667021  0.30120347  1
  Sc  Sc92  1  0.30076993  0.10004067  0.29488321  1
  Sc  Sc93  1  0.70240286  0.30282865  0.50346888  1
  Sc  Sc94  1  0.10289738  0.11036663  0.90006207  1
  Sc  Sc95  1  0.70271810  0.69674169  0.09644471  1
  Sc  Sc96  1  0.69981367  0.10797599  0.10603565  1
  Sc  Sc97  1  0.29629008  0.89364556  0.10534586  1
  Sc  Sc98  1  0.90243127  0.09585423  0.09385127  1
  Sc  Sc99  1  0.50042347  0.10868341  0.70485388  1
  Nb  Nb100  1  0.31029910  0.29729074  0.69784577  1
  Nb  Nb101  1  0.90344921  0.50410786  0.30287357  1
  Nb  Nb102  1  0.69388585  0.49441679  0.89437119  1
  Nb  Nb103  1  0.50548086  0.09738437  0.29402929  1
  Nb  Nb104  1  0.90546258  0.69147124  0.49549527  1
  Nb  Nb105  1  0.30476707  0.90404805  0.49300652  1
  Nb  Nb106  1  0.90076498  0.70399294  0.09870887  1
  Nb  Nb107  1  0.48873000  0.30406914  0.69935280  1
  Nb  Nb108  1  0.70045020  0.30621998  0.89297741  1
  Nb  Nb109  1  0.09923130  0.30277837  0.28834047  1
  Nb  Nb110  1  0.10088761  0.90603490  0.29736516  1
  Nb  Nb111  1  0.09925001  0.08901288  0.69271003  1
  Nb  Nb112  1  0.90382550  0.70087465  0.30012947  1
  Nb  Nb113  1  0.09782593  0.10224507  0.50145501  1
  Nb  Nb114  1  0.69547380  0.51013345  0.71143509  1
  Nb  Nb115  1  0.09934908  0.70626348  0.70027682  1
  Nb  Nb116  1  0.10358163  0.29743527  0.10962063  1
  Nb  Nb117  1  0.50083916  0.49880277  0.10173101  1
  Nb  Nb118  1  0.10559038  0.69863469  0.09990758  1
  Nb  Nb119  1  0.10990568  0.09932182  0.10473429  1
  Nb  Nb120  1  0.69802540  0.69218351  0.70477049  1
  Nb  Nb121  1  0.89898281  0.89789538  0.09925860  1
  Nb  Nb122  1  0.49922959  0.89747680  0.89976993  1
  Nb  Nb123  1  0.69640583  0.10218243  0.29399246  1
  Nb  Nb124  1  0.29033642  0.49930994  0.90376847  1
  Nb  Nb125  1  0.80407203  0.00080593  0.79742546  1
  Nb  Nb126  1  0.39818418  -0.00828326  0.79766308  1
  Nb  Nb127  1  0.40639665  0.00117278  0.19773791  1
  Nb  Nb128  1  -0.00246242  0.60657280  0.20021583  1
  Nb  Nb129  1  0.19731288  0.00551376  0.00675477  1
  Nb  Nb130  1  0.59846559  0.00113190  0.59493487  1
  Nb  Nb131  1  0.20463492  0.79999340  0.79828638  1
  Nb  Nb132  1  0.18837155  0.19890990  0.39710437  1
  Nb  Nb133  1  0.79587783  0.00236928  0.60271271  1
  Nb  Nb134  1  0.59702820  0.79194040  0.79929949  1
  Nb  Nb135  1  0.39911414  0.80180350  0.80162743  1
  Nb  Nb136  1  0.40094148  -0.00066179  0.60043994  1
  Nb  Nb137  1  0.00041663  0.60450975  0.01127486  1
  Nb  Nb138  1  -0.00024864  0.00448286  0.79991366  1
  Nb  Nb139  1  0.81053314  0.59972246  0.40011301  1
  Nb  Nb140  1  0.79989576  -0.00526194  0.19929033  1
  Nb  Nb141  1  0.80969209  0.80088410  0.19849661  1
  Nb  Nb142  1  0.19547099  0.00131734  0.39985665  1
  Nb  Nb143  1  0.20016900  0.39802581  0.00124592  1
  Nb  Nb144  1  0.60209390  0.79822599  0.40424470  1
  Nb  Nb145  1  0.19702407  0.59958066  0.60270288  1
  Nb  Nb146  1  0.60631948  0.21373029  -0.00587416  1
  Nb  Nb147  1  0.79152838  0.39834718  -0.00887806  1
  Nb  Nb148  1  -0.00084226  0.79792642  0.39420996  1
  Nb  Nb149  1  0.60040314  0.58847168  0.00090257  1
  Pd  Pd150  1  0.79756843  0.80576675  0.79894989  1
  Pd  Pd151  1  0.59950597  0.20736819  0.40013950  1
  Pd  Pd152  1  0.00504913  0.79503929  0.20440223  1
  Pd  Pd153  1  0.80666626  0.40872891  0.79825165  1
  Pd  Pd154  1  -0.00516048  0.79747643  0.58993895  1
  Pd  Pd155  1  0.59671943  0.39068936  0.39670290  1
  Pd  Pd156  1  0.19408124  0.20264956  0.59646224  1
  Pd  Pd157  1  0.59595096  0.19651418  0.59306939  1
  Pd  Pd158  1  -0.00083003  0.41017761  0.00811830  1
  Pd  Pd159  1  -0.00614159  0.19183230  0.19413664  1
  Pd  Pd160  1  0.40412958  0.59787980  -0.00077381  1
  Pd  Pd161  1  0.19456448  0.20470771  0.79716062  1
  Pd  Pd162  1  0.39047520  0.39893344  0.80574136  1
  Pd  Pd163  1  0.00863910  0.79664393  0.00632188  1
  Pd  Pd164  1  0.19906717  -0.00566039  0.80962592  1
  Pd  Pd165  1  0.39821184  0.41024422  0.59619679  1
  Pd  Pd166  1  0.60240843  0.79619009  0.20760701  1
  Pd  Pd167  1  0.00795511  0.19748621  0.79068769  1
  Pd  Pd168  1  0.00176648  0.20770609  0.39755609  1
  Pd  Pd169  1  0.59472641  0.20480251  0.80183621  1
  Pd  Pd170  1  0.81046232  0.59239290  0.80242335  1
  Pd  Pd171  1  0.80149022  0.19848091  0.79074492  1
  Pd  Pd172  1  0.60454617  0.39930877  0.00075596  1
  Pd  Pd173  1  0.00886179  0.19508061  0.00918686  1
  Pd  Pd174  1  0.39296211  0.79993323  0.59998567  1
  Pd  Pd175  1  0.39339644  0.60167968  0.39844418  1
  Pd  Pd176  1  0.60548138  0.58868218  0.59385505  1
  Pd  Pd177  1  0.20533508  0.00416016  0.58779909  1
  Pd  Pd178  1  0.59829495  -0.00110395  0.19121152  1
  Pd  Pd179  1  0.00991246  0.20713043  0.60334692  1
  Pd  Pd180  1  0.80267832  0.58926493  -0.00527861  1
  Pd  Pd181  1  0.79154167  0.00163378  0.00231321  1
  Pd  Pd182  1  0.40973536  0.20458705  -0.00324522  1
  Pd  Pd183  1  0.79230711  0.21101991  0.00669311  1
  Pd  Pd184  1  0.60131148  0.01283183  0.00792476  1
  Pd  Pd185  1  0.40311182  0.19123406  0.60043704  1
  Pd  Pd186  1  0.58570823  0.60190032  0.81392621  1
  Pd  Pd187  1  0.59714971  0.40782856  0.60456070  1
  Pd  Pd188  1  0.00664768  -0.00738270  0.41158047  1
  Pd  Pd189  1  0.19805943  0.40837660  0.60429432  1
  Pd  Pd190  1  0.39814276  0.40520480  0.20921169  1
  Pd  Pd191  1  0.20095075  0.61081667  0.79331878  1
  Pd  Pd192  1  0.19803966  0.59305581  0.20247599  1
  Pd  Pd193  1  0.80794578  0.79930805  0.60294691  1
  Pd  Pd194  1  0.79908782  0.59216794  0.59508020  1
  Pd  Pd195  1  0.60336696  -0.00405880  0.40253795  1
  Pd  Pd196  1  0.19366760  0.80835871  0.39897519  1
  Pd  Pd197  1  0.79952765  0.78898001  0.39428809  1
  Pd  Pd198  1  0.80303862  0.60600827  0.20575487  1
  Pd  Pd199  1  0.39261696  0.19962701  0.39180579  1
  Rh  Rh200  1  0.59590188  0.39568710  0.21012825  1
  Rh  Rh201  1  -0.00380073  0.39543202  0.79573123  1
  Rh  Rh202  1  -0.00066185  0.60769614  0.80513111  1
  Rh  Rh203  1  0.80248662  0.20102727  0.39867717  1
  Rh  Rh204  1  0.79503400  0.79916351  0.00252299  1
  Rh  Rh205  1  0.79850959  0.01058935  0.39939720  1
  Rh  Rh206  1  -0.00842722  0.00638240  0.19251234  1
  Rh  Rh207  1  0.80670931  0.18917320  0.20096685  1
  Rh  Rh208  1  0.19457497  0.20428690  0.00688000  1
  Rh  Rh209  1  0.60565268  0.78387331  -0.01072508  1
  Rh  Rh210  1  0.21022240  -0.00487364  0.20104128  1
  Rh  Rh211  1  -0.00533960  0.40722416  0.19819082  1
  Rh  Rh212  1  0.39522461  0.00087118  0.00350534  1
  Rh  Rh213  1  0.40608596  0.79476852  0.39554064  1
  Rh  Rh214  1  0.80716353  0.40558569  0.39926370  1
  Rh  Rh215  1  0.79372749  0.19789609  0.59841791  1
  Rh  Rh216  1  0.40304996  0.19387489  0.80074562  1
  Rh  Rh217  1  0.01219895  0.00607867  -0.00065798  1
  Rh  Rh218  1  0.19937645  0.39426221  0.39790005  1
  Rh  Rh219  1  0.61322102  0.60762207  0.40802631  1
  Rh  Rh220  1  0.39086837  0.59360684  0.58943334  1
  Rh  Rh221  1  0.20046257  0.20237220  0.20650885  1
  Rh  Rh222  1  0.60075386  -0.00877131  0.79239063  1
  Rh  Rh223  1  0.20730441  0.39974774  0.19354986  1
  Rh  Rh224  1  0.19554213  0.80744448  0.00099487  1
  Rh  Rh225  1  0.80599840  0.39958934  0.20058182  1
  Rh  Rh226  1  0.40423211  0.80544662  0.19862616  1
  Rh  Rh227  1  0.00938669  0.80479059  0.79921791  1
  Rh  Rh228  1  0.59533017  0.20661067  0.19672629  1
  Rh  Rh229  1  0.59343903  0.40360860  0.79012680  1
  Rh  Rh230  1  0.00900365  0.60439361  0.60652310  1
  Rh  Rh231  1  0.59767237  0.60174418  0.19339902  1
  Rh  Rh232  1  0.40286887  0.39971125  0.39906789  1
  Rh  Rh233  1  0.39949555  0.59644431  0.20262132  1
  Rh  Rh234  1  0.20208984  0.60041039  0.40654006  1
  Rh  Rh235  1  0.39094589  0.00221864  0.39070345  1
  Rh  Rh236  1  0.20466907  0.78743349  0.60447978  1
  Rh  Rh237  1  0.19507350  0.80224338  0.20193707  1
  Rh  Rh238  1  0.79051208  0.40992317  0.60875781  1
  Rh  Rh239  1  -0.00850633  0.00248890  0.60196743  1
  Rh  Rh240  1  0.00561900  0.39796136  0.60488634  1
  Rh  Rh241  1  0.40433696  0.19474558  0.20390925  1
  Rh  Rh242  1  0.60481135  0.79728724  0.60031901  1
  Rh  Rh243  1  0.20591807  0.39249304  0.80580500  1
  Rh  Rh244  1  0.18907564  0.58770023  0.00934033  1
  Rh  Rh245  1  -0.00492216  0.39316174  0.39640595  1
  Rh  Rh246  1  0.39199591  0.79284068  -0.00032428  1
  Rh  Rh247  1  0.39637731  0.60297513  0.80990235  1
  Rh  Rh248  1  0.00267092  0.60709850  0.39116880  1
  Rh  Rh249  1  0.38675860  0.39549983  -0.00545567  1
