# generated using pymatgen
data_ZrScNbPdRh
_symmetry_space_group_name_H-M   'P 1'
_cell_length_a   16.55739936
_cell_length_b   16.55934400
_cell_length_c   16.55755448
_cell_angle_alpha   90.01118693
_cell_angle_beta   90.02087210
_cell_angle_gamma   89.98109280
_symmetry_Int_Tables_number   1
_chemical_formula_structural   ZrScNbPdRh
_chemical_formula_sum   'Zr50 Sc50 Nb50 Pd50 Rh50'
_cell_volume   4539.74421785
_cell_formula_units_Z   50
loop_
 _symmetry_equiv_pos_site_id
 _symmetry_equiv_pos_as_xyz
  1  'x, y, z'
loop_
 _atom_site_type_symbol
 _atom_site_label
 _atom_site_symmetry_multiplicity
 _atom_site_fract_x
 _atom_site_fract_y
 _atom_site_fract_z
 _atom_site_occupancy
  Zr  Zr0  1  0.89983461  0.09506583  0.30229757  1
  Zr  Zr1  1  0.30609362  0.10074594  0.50404129  1
  Zr  Zr2  1  0.29775945  0.90066689  0.89529998  1
  Zr  Zr3  1  0.50343960  0.50537944  0.10196062  1
  Zr  Zr4  1  0.10915033  0.69273238  0.49124861  1
  Zr  Zr5  1  0.29548408  0.70403143  0.30227966  1
  Zr  Zr6  1  0.09534398  0.10286773  0.29971353  1
  Zr  Zr7  1  0.70224385  0.31171549  0.89474786  1
  Zr  Zr8  1  0.09506136  0.10097584  0.69409934  1
  Zr  Zr9  1  0.89379949  0.70627755  0.90282548  1
  Zr  Zr10  1  0.29791976  0.29907802  0.69733788  1
  Zr  Zr11  1  0.49514898  0.50948760  0.70227882  1
  Zr  Zr12  1  0.90445897  0.49859701  0.30425797  1
  Zr  Zr13  1  0.90243958  0.49958566  0.69743947  1
  Zr  Zr14  1  0.09497336  0.50157214  0.30188457  1
  Zr  Zr15  1  0.69866050  0.50019286  0.29716553  1
  Zr  Zr16  1  0.10358220  0.50214750  0.90242354  1
  Zr  Zr17  1  0.10788047  0.89793935  0.29462683  1
  Zr  Zr18  1  0.49694706  0.10003845  0.50576711  1
  Zr  Zr19  1  0.10365370  0.29462470  0.89997303  1
  Zr  Zr20  1  0.50461837  0.30621055  0.69823001  1
  Zr  Zr21  1  0.70438387  0.10021539  0.89579168  1
  Zr  Zr22  1  0.50743539  0.49961509  0.30064373  1
  Zr  Zr23  1  0.09750621  0.09701926  0.49722220  1
  Zr  Zr24  1  0.10558354  0.30408280  0.29417220  1
  Zr  Zr25  1  0.29935459  0.50061783  0.69622170  1
  Zr  Zr26  1  0.70554757  0.50628741  0.50411965  1
  Zr  Zr27  1  0.50267906  0.91058199  0.50636975  1
  Zr  Zr28  1  0.10044360  0.90197178  0.49474280  1
  Zr  Zr29  1  0.89864009  0.49804395  0.11195348  1
  Zr  Zr30  1  0.10242722  0.09102018  0.10124187  1
  Zr  Zr31  1  0.70902250  0.90377894  0.30309138  1
  Zr  Zr32  1  0.90256503  0.10337476  0.89491993  1
  Zr  Zr33  1  0.69155949  0.70556181  0.89824292  1
  Zr  Zr34  1  0.69691601  0.09228777  0.10093952  1
  Zr  Zr35  1  0.50904618  0.69476839  0.50336271  1
  Zr  Zr36  1  0.29905678  0.09393684  0.89728049  1
  Zr  Zr37  1  0.89942908  0.90093186  0.89987113  1
  Zr  Zr38  1  0.69015373  0.90216915  0.90085598  1
  Zr  Zr39  1  0.70099057  0.31353540  0.09904458  1
  Zr  Zr40  1  0.49755967  0.69814456  0.88801696  1
  Zr  Zr41  1  0.70502649  0.09946904  0.70532938  1
  Zr  Zr42  1  0.29309892  0.49109957  0.29841073  1
  Zr  Zr43  1  0.30108118  0.30313366  0.90270882  1
  Zr  Zr44  1  0.30040874  0.29659219  0.29088252  1
  Zr  Zr45  1  0.90913091  0.29339218  0.30308452  1
  Zr  Zr46  1  0.69044455  0.70342605  0.09629867  1
  Zr  Zr47  1  0.49990099  0.70418135  0.09687943  1
  Zr  Zr48  1  0.91143871  0.10375183  0.49976653  1
  Zr  Zr49  1  0.29571296  0.29675687  0.50083567  1
  Sc  Sc50  1  0.10180983  0.30244718  0.69621783  1
  Sc  Sc51  1  0.70371491  0.70308529  0.51539981  1
  Sc  Sc52  1  0.90471419  0.69589143  0.29342131  1
  Sc  Sc53  1  0.49845527  0.90751400  0.70167056  1
  Sc  Sc54  1  0.30021310  0.89564950  0.29934450  1
  Sc  Sc55  1  0.10218422  0.89937459  0.70570074  1
  Sc  Sc56  1  0.69430747  0.89647837  0.69693700  1
  Sc  Sc57  1  0.49926543  0.08328093  0.90539913  1
  Sc  Sc58  1  0.09863709  0.29744788  0.50579512  1
  Sc  Sc59  1  0.29701618  0.10314329  0.29526983  1
  Sc  Sc60  1  0.30194129  0.69834927  0.69692176  1
  Sc  Sc61  1  0.29789056  0.69738135  0.09546937  1
  Sc  Sc62  1  0.90610884  0.49544876  0.50681609  1
  Sc  Sc63  1  0.91010705  0.09686268  0.10358161  1
  Sc  Sc64  1  0.29963142  0.89649823  0.70981475  1
  Sc  Sc65  1  0.90423045  0.70213487  0.09986215  1
  Sc  Sc66  1  0.90311676  0.10349158  0.70597472  1
  Sc  Sc67  1  0.30105726  0.09634824  0.69759410  1
  Sc  Sc68  1  0.49397491  0.10056488  0.30303194  1
  Sc  Sc69  1  0.69316516  0.10356211  0.49768299  1
  Sc  Sc70  1  0.10449169  0.90534019  0.90606623  1
  Sc  Sc71  1  0.49908960  0.50148773  0.89243796  1
  Sc  Sc72  1  0.30327184  0.49862488  0.90044619  1
  Sc  Sc73  1  0.50212430  0.90123948  0.10114093  1
  Sc  Sc74  1  0.48885344  0.30397496  0.09972791  1
  Sc  Sc75  1  0.89266841  0.70421924  0.70229636  1
  Sc  Sc76  1  0.89818967  0.90219166  0.49762003  1
  Sc  Sc77  1  0.69418492  0.89746554  0.10600072  1
  Sc  Sc78  1  0.10392218  0.49381675  0.49744901  1
  Sc  Sc79  1  0.29154562  0.50336242  0.50017177  1
  Sc  Sc80  1  0.69985406  0.49002278  0.69929381  1
  Sc  Sc81  1  0.29776909  0.49770245  0.09156181  1
  Sc  Sc82  1  0.51166109  0.50751026  0.50090447  1
  Sc  Sc83  1  0.09796686  0.10006585  0.90044654  1
  Sc  Sc84  1  0.90480660  0.90428933  0.70326393  1
  Sc  Sc85  1  0.90683003  0.30154501  0.10741392  1
  Sc  Sc86  1  0.49391443  0.09608132  0.10181538  1
  Sc  Sc87  1  0.50013398  0.70475989  0.29308416  1
  Sc  Sc88  1  0.29696245  0.69786754  0.50089108  1
  Sc  Sc89  1  0.90415911  0.90080366  0.10571702  1
  Sc  Sc90  1  0.90506794  0.49721931  0.89484598  1
  Sc  Sc91  1  0.30232778  0.10377339  0.10253710  1
  Sc  Sc92  1  0.70157170  0.70628324  0.30018019  1
  Sc  Sc93  1  0.69176529  0.30342125  0.30705363  1
  Sc  Sc94  1  0.49632744  0.89955228  0.30003246  1
  Sc  Sc95  1  0.90107565  0.29983450  0.69784672  1
  Sc  Sc96  1  0.09137569  0.69977902  0.91011020  1
  Sc  Sc97  1  0.69788509  0.09242484  0.30420836  1
  Sc  Sc98  1  0.29806262  0.30035575  0.09942719  1
  Sc  Sc99  1  0.49541810  0.31326850  0.90048445  1
  Nb  Nb100  1  0.69611368  0.90367167  0.50296013  1
  Nb  Nb101  1  0.30393268  0.89686644  0.50114262  1
  Nb  Nb102  1  0.70092378  0.49973781  0.90229348  1
  Nb  Nb103  1  0.10278384  0.69711670  0.69428973  1
  Nb  Nb104  1  0.70174999  0.50104188  0.09840414  1
  Nb  Nb105  1  0.89650661  0.89604524  0.30423663  1
  Nb  Nb106  1  0.11021844  0.89809600  0.10009886  1
  Nb  Nb107  1  0.09946335  0.69793259  0.10538201  1
  Nb  Nb108  1  0.70038031  0.29705974  0.69745720  1
  Nb  Nb109  1  0.90067373  0.69691173  0.50380656  1
  Nb  Nb110  1  0.29952522  0.69926783  0.89416644  1
  Nb  Nb111  1  0.10367636  0.30074940  0.10068585  1
  Nb  Nb112  1  0.89533472  0.29783372  0.50291849  1
  Nb  Nb113  1  0.49155230  0.89622466  0.89957462  1
  Nb  Nb114  1  0.50153183  0.30318703  0.29890310  1
  Nb  Nb115  1  0.70177075  0.30123433  0.51121390  1
  Nb  Nb116  1  0.28107927  0.89970743  0.09848227  1
  Nb  Nb117  1  0.50094903  0.69646573  0.69506068  1
  Nb  Nb118  1  0.10161608  0.50260511  0.09480353  1
  Nb  Nb119  1  0.09954520  0.69743068  0.29955826  1
  Nb  Nb120  1  0.49495956  0.10203273  0.69555383  1
  Nb  Nb121  1  0.50120352  0.29461864  0.49820505  1
  Nb  Nb122  1  0.09801190  0.50146697  0.69961048  1
  Nb  Nb123  1  0.69333057  0.69631895  0.70043529  1
  Nb  Nb124  1  0.90345474  0.29502849  0.90099572  1
  Nb  Nb125  1  0.80091140  0.00301639  -0.00258758  1
  Nb  Nb126  1  0.20133390  -0.00373939  0.59421675  1
  Nb  Nb127  1  0.79223469  0.59408474  -0.00092749  1
  Nb  Nb128  1  -0.00109327  0.79637132  0.39798695  1
  Nb  Nb129  1  0.19139768  0.60092079  0.19761675  1
  Nb  Nb130  1  0.60468119  0.80767800  0.40874188  1
  Nb  Nb131  1  0.39458475  0.80259424  -0.00862075  1
  Nb  Nb132  1  0.79084982  0.60152239  0.80435689  1
  Nb  Nb133  1  0.40466395  0.79954716  0.59908947  1
  Nb  Nb134  1  0.00506879  0.60460723  0.60214562  1
  Nb  Nb135  1  0.40693124  0.19779094  0.79870744  1
  Nb  Nb136  1  0.59676713  0.20151320  0.80136345  1
  Nb  Nb137  1  0.40205906  0.59501403  0.39565803  1
  Nb  Nb138  1  0.00402629  0.79325628  0.59426305  1
  Nb  Nb139  1  0.40386891  0.39822460  0.59081267  1
  Nb  Nb140  1  0.79999345  0.39661968  0.40885377  1
  Nb  Nb141  1  0.60387882  0.20211897  -0.00165204  1
  Nb  Nb142  1  0.40681210  0.39680967  0.40261644  1
  Nb  Nb143  1  0.80380271  0.59821018  0.40394617  1
  Nb  Nb144  1  0.59999437  0.20442533  0.19639358  1
  Nb  Nb145  1  0.00651736  0.39770177  0.00151067  1
  Nb  Nb146  1  0.79828890  0.00166813  0.59820332  1
  Nb  Nb147  1  0.79400040  0.19856304  0.19821197  1
  Nb  Nb148  1  0.79939906  0.20184579  0.00205247  1
  Nb  Nb149  1  0.19416711  0.60250093  0.79860508  1
  Pd  Pd150  1  0.00430159  0.80807391  0.00661520  1
  Pd  Pd151  1  0.40051470  0.20366399  0.39401784  1
  Pd  Pd152  1  0.00139500  0.80289230  0.20386870  1
  Pd  Pd153  1  0.80026520  0.79663090  0.19413710  1
  Pd  Pd154  1  0.79332928  0.20442484  0.39556626  1
  Pd  Pd155  1  0.19736445  0.20185138  0.39976910  1
  Pd  Pd156  1  0.00332208  0.39176017  0.80264326  1
  Pd  Pd157  1  0.60118041  0.19555706  0.60475907  1
  Pd  Pd158  1  0.40903439  0.19908937  -0.00887337  1
  Pd  Pd159  1  0.80059509  0.79086778  0.40638110  1
  Pd  Pd160  1  -0.00032722  -0.00854167  0.20475028  1
  Pd  Pd161  1  0.39566992  -0.00061645  0.39431130  1
  Pd  Pd162  1  0.40058173  0.40372687  0.19977629  1
  Pd  Pd163  1  0.59295798  0.00282373  0.20779482  1
  Pd  Pd164  1  0.80665369  0.80938614  0.60403473  1
  Pd  Pd165  1  0.20480540  0.19467185  0.79521172  1
  Pd  Pd166  1  -0.00128253  0.39247019  0.40988858  1
  Pd  Pd167  1  0.60281757  0.39716064  0.41172798  1
  Pd  Pd168  1  0.79379346  0.80293602  0.79327870  1
  Pd  Pd169  1  0.59851588  0.59719980  -0.00663292  1
  Pd  Pd170  1  -0.00261170  0.20306852  0.00696981  1
  Pd  Pd171  1  0.40856063  0.79242624  0.40943977  1
  Pd  Pd172  1  0.39176459  -0.00545747  0.19818776  1
  Pd  Pd173  1  0.79587584  0.60929896  0.19921560  1
  Pd  Pd174  1  0.80194430  0.00458775  0.41102416  1
  Pd  Pd175  1  0.00619102  -0.00053667  0.80317490  1
  Pd  Pd176  1  0.59333680  0.00285984  0.79616155  1
  Pd  Pd177  1  0.79676988  0.80569195  0.00925364  1
  Pd  Pd178  1  0.60356901  0.60575388  0.20347635  1
  Pd  Pd179  1  0.80505666  0.40138747  0.79513484  1
  Pd  Pd180  1  0.60025973  0.19890530  0.39583852  1
  Pd  Pd181  1  0.20051720  0.40652015  0.79974040  1
  Pd  Pd182  1  0.00579116  0.79544962  0.79575113  1
  Pd  Pd183  1  0.59213112  0.80379128  0.79064863  1
  Pd  Pd184  1  -0.00295313  0.60909316  0.79498259  1
  Pd  Pd185  1  0.20122675  0.79221412  -0.00386524  1
  Pd  Pd186  1  0.39211384  -0.01023261  0.00933496  1
  Pd  Pd187  1  0.59180381  0.40181063  0.00156717  1
  Pd  Pd188  1  0.80507885  0.19142536  0.60230585  1
  Pd  Pd189  1  -0.01163435  0.59384522  0.00486804  1
  Pd  Pd190  1  0.81526668  0.40184317  -0.00089216  1
  Pd  Pd191  1  0.39943485  0.60302024  -0.00463405  1
  Pd  Pd192  1  0.20333463  0.80628996  0.60052805  1
  Pd  Pd193  1  0.59659838  0.40514437  0.59777189  1
  Pd  Pd194  1  0.19072691  0.79106753  0.80503137  1
  Pd  Pd195  1  0.79906668  0.39060340  0.21466782  1
  Pd  Pd196  1  0.21117577  0.00049065  0.40025723  1
  Pd  Pd197  1  0.20267611  0.19380949  0.00420307  1
  Pd  Pd198  1  0.39053881  0.59814630  0.20342848  1
  Pd  Pd199  1  0.39209509  0.80521251  0.18744512  1
  Rh  Rh200  1  0.20158056  0.00596215  -0.00006289  1
  Rh  Rh201  1  -0.00268928  -0.00746500  -0.00036974  1
  Rh  Rh202  1  0.20756844  0.59642055  0.38981620  1
  Rh  Rh203  1  0.39860243  0.60124072  0.58899674  1
  Rh  Rh204  1  0.20071988  0.79121311  0.19725304  1
  Rh  Rh205  1  0.19491802  0.59369947  0.60564276  1
  Rh  Rh206  1  0.20406366  0.00374758  0.20248720  1
  Rh  Rh207  1  0.60715625  0.59413616  0.61015320  1
  Rh  Rh208  1  -0.00198264  0.20597754  0.60102394  1
  Rh  Rh209  1  0.59722000  -0.00486502  0.39693084  1
  Rh  Rh210  1  0.19573704  0.40709322  0.19075422  1
  Rh  Rh211  1  0.19526758  0.00545007  0.79162169  1
  Rh  Rh212  1  0.20215203  0.39252418  0.40126163  1
  Rh  Rh213  1  0.00585760  0.59797794  0.19509625  1
  Rh  Rh214  1  0.19535308  0.19674271  0.19432309  1
  Rh  Rh215  1  0.58697449  0.80565443  -0.00198946  1
  Rh  Rh216  1  0.80468513  0.59972336  0.60733485  1
  Rh  Rh217  1  -0.00770635  0.60578224  0.40785551  1
  Rh  Rh218  1  0.00154863  0.19900830  0.19775707  1
  Rh  Rh219  1  0.60173165  0.80698887  0.21227592  1
  Rh  Rh220  1  0.19727056  0.80167174  0.39870497  1
  Rh  Rh221  1  0.80223284  0.39563905  0.59874668  1
  Rh  Rh222  1  0.40042563  0.40757931  0.00160229  1
  Rh  Rh223  1  0.00961181  0.40047834  0.19266303  1
  Rh  Rh224  1  0.00296021  0.20504520  0.79487037  1
  Rh  Rh225  1  0.40298620  0.20868532  0.60683093  1
  Rh  Rh226  1  0.00215003  0.40200140  0.59956070  1
  Rh  Rh227  1  0.59436897  0.39684067  0.19218921  1
  Rh  Rh228  1  0.60857749  0.00912181  0.60577851  1
  Rh  Rh229  1  0.00670500  0.20620350  0.40288669  1
  Rh  Rh230  1  0.60514540  0.61601407  0.39424778  1
  Rh  Rh231  1  0.80120154  -0.01186459  0.79796639  1
  Rh  Rh232  1  -0.00315075  -0.01056144  0.39030790  1
  Rh  Rh233  1  0.60121995  -0.00250870  -0.00008276  1
  Rh  Rh234  1  0.40388231  0.79631446  0.79426142  1
  Rh  Rh235  1  0.39648836  0.39500285  0.79234755  1
  Rh  Rh236  1  0.60737487  0.59316287  0.79528324  1
  Rh  Rh237  1  0.79844924  0.21419915  0.80241354  1
  Rh  Rh238  1  0.20134038  0.40305422  0.59848362  1
  Rh  Rh239  1  0.40798793  0.20092721  0.20171314  1
  Rh  Rh240  1  -0.00004463  -0.00816929  0.60218082  1
  Rh  Rh241  1  0.80772286  0.00352170  0.19548351  1
  Rh  Rh242  1  0.19710509  0.39606905  0.00097307  1
  Rh  Rh243  1  0.59263792  0.80112687  0.60077334  1
  Rh  Rh244  1  0.20109935  0.60582779  -0.00208693  1
  Rh  Rh245  1  0.60155591  0.40155721  0.79692812  1
  Rh  Rh246  1  0.38859829  -0.01063838  0.60758739  1
  Rh  Rh247  1  0.19636229  0.18920586  0.59999877  1
  Rh  Rh248  1  0.40246492  0.00656540  0.79608069  1
  Rh  Rh249  1  0.39003543  0.60292103  0.79871720  1
