# generated using pymatgen
data_ZrScNbPdRh
_symmetry_space_group_name_H-M   'P 1'
_cell_length_a   16.55607750
_cell_length_b   16.55644781
_cell_length_c   16.55673902
_cell_angle_alpha   90.03138736
_cell_angle_beta   89.99606182
_cell_angle_gamma   89.98598986
_symmetry_Int_Tables_number   1
_chemical_formula_structural   ZrScNbPdRh
_chemical_formula_sum   'Zr50 Sc50 Nb50 Pd50 Rh50'
_cell_volume   4538.36414053
_cell_formula_units_Z   50
loop_
 _symmetry_equiv_pos_site_id
 _symmetry_equiv_pos_as_xyz
  1  'x, y, z'
loop_
 _atom_site_type_symbol
 _atom_site_label
 _atom_site_symmetry_multiplicity
 _atom_site_fract_x
 _atom_site_fract_y
 _atom_site_fract_z
 _atom_site_occupancy
  Zr  Zr0  1  0.69693679  0.28705140  0.50205823  1
  Zr  Zr1  1  0.10043845  0.10234131  0.70315934  1
  Zr  Zr2  1  0.30523859  0.30847017  0.09160613  1
  Zr  Zr3  1  0.71074927  0.70303377  0.89954290  1
  Zr  Zr4  1  0.30551179  0.10465671  0.89266680  1
  Zr  Zr5  1  0.10023163  0.50457646  0.29870289  1
  Zr  Zr6  1  0.90244310  0.10446161  0.90198577  1
  Zr  Zr7  1  0.69863490  0.49419760  0.09626828  1
  Zr  Zr8  1  0.69945795  0.70258592  0.49984405  1
  Zr  Zr9  1  0.30915906  0.29829955  0.30545571  1
  Zr  Zr10  1  0.49835859  0.10176696  0.50716737  1
  Zr  Zr11  1  0.49967466  0.29721601  0.69632489  1
  Zr  Zr12  1  0.50029236  0.30068005  0.10482791  1
  Zr  Zr13  1  0.08758171  0.30397609  0.09559581  1
  Zr  Zr14  1  0.10476610  0.89124608  0.10173237  1
  Zr  Zr15  1  0.30049028  0.49543240  0.90180665  1
  Zr  Zr16  1  0.50418754  0.49427068  0.09844198  1
  Zr  Zr17  1  0.70121009  0.90607062  0.89995968  1
  Zr  Zr18  1  0.89955991  0.90483775  0.70513284  1
  Zr  Zr19  1  0.90649732  0.70123690  0.29919001  1
  Zr  Zr20  1  0.49567629  0.30011599  0.89562247  1
  Zr  Zr21  1  0.29525298  0.90801972  0.49126844  1
  Zr  Zr22  1  0.30124716  0.70634536  0.10066874  1
  Zr  Zr23  1  0.90221855  0.89520889  0.29964348  1
  Zr  Zr24  1  0.90416546  0.50471170  0.30798749  1
  Zr  Zr25  1  0.70025335  0.69256345  0.69798633  1
  Zr  Zr26  1  0.90609328  0.29826299  0.50087633  1
  Zr  Zr27  1  0.50056750  0.90688278  0.49890970  1
  Zr  Zr28  1  0.11101989  0.10373968  0.50165462  1
  Zr  Zr29  1  0.50143143  0.69291109  0.70174898  1
  Zr  Zr30  1  0.09781357  0.70619186  0.29040013  1
  Zr  Zr31  1  0.09931260  0.49299801  0.49980137  1
  Zr  Zr32  1  0.69385325  0.49596494  0.29758844  1
  Zr  Zr33  1  0.70089189  0.90783112  0.09626398  1
  Zr  Zr34  1  0.89598673  0.89750194  0.90153054  1
  Zr  Zr35  1  0.29356875  0.69686819  0.69979564  1
  Zr  Zr36  1  0.09168980  0.89620471  0.89954727  1
  Zr  Zr37  1  0.49558678  0.69673041  0.10101029  1
  Zr  Zr38  1  0.50633425  0.91077429  0.89539166  1
  Zr  Zr39  1  0.30427993  0.90037392  0.89926353  1
  Zr  Zr40  1  0.50381016  0.91568963  0.69774941  1
  Zr  Zr41  1  0.89809600  0.29618391  0.70791513  1
  Zr  Zr42  1  0.29916455  0.30670754  0.89569053  1
  Zr  Zr43  1  0.30070801  0.09978050  0.30794661  1
  Zr  Zr44  1  0.29692058  0.69974790  0.50040971  1
  Zr  Zr45  1  0.49419068  0.49510698  0.50159103  1
  Zr  Zr46  1  0.49636960  0.10463677  0.29229793  1
  Zr  Zr47  1  0.30738023  0.29499521  0.50263548  1
  Zr  Zr48  1  0.89199190  0.11264730  0.10340651  1
  Zr  Zr49  1  0.90600680  0.49066482  0.09833086  1
  Sc  Sc50  1  0.70399754  0.69949334  0.29873093  1
  Sc  Sc51  1  0.10608372  0.70625203  0.70408926  1
  Sc  Sc52  1  0.70055135  0.10695841  0.69704557  1
  Sc  Sc53  1  0.10456693  0.49120320  0.69983579  1
  Sc  Sc54  1  0.70635841  0.51063126  0.50141919  1
  Sc  Sc55  1  0.89763890  0.50099819  0.90471557  1
  Sc  Sc56  1  0.89410142  0.09896343  0.69871585  1
  Sc  Sc57  1  0.09518107  0.30046241  0.31382074  1
  Sc  Sc58  1  0.09890064  0.90441643  0.49110450  1
  Sc  Sc59  1  0.70065291  0.29682743  0.09927214  1
  Sc  Sc60  1  0.49982472  0.70951716  0.49378737  1
  Sc  Sc61  1  0.49766056  0.49834988  0.89468801  1
  Sc  Sc62  1  0.49576375  0.49075704  0.29187493  1
  Sc  Sc63  1  0.29944739  0.90866637  0.29081774  1
  Sc  Sc64  1  0.49875717  0.90049571  0.10214129  1
  Sc  Sc65  1  0.70682737  0.90926663  0.29688973  1
  Sc  Sc66  1  0.10951762  0.70891361  0.49477816  1
  Sc  Sc67  1  0.90264000  0.28520941  0.30406671  1
  Sc  Sc68  1  0.48842191  0.70148320  0.29686134  1
  Sc  Sc69  1  0.89971193  0.30019630  0.90137038  1
  Sc  Sc70  1  0.10532821  0.30439837  0.50070102  1
  Sc  Sc71  1  0.30203507  0.10323708  0.68814846  1
  Sc  Sc72  1  0.29645647  0.69642434  0.29882203  1
  Sc  Sc73  1  0.10239351  0.10089747  0.30720287  1
  Sc  Sc74  1  0.29941705  0.50331815  0.09457179  1
  Sc  Sc75  1  0.29935198  0.30121054  0.70073381  1
  Sc  Sc76  1  0.70091272  0.10417798  0.29346157  1
  Sc  Sc77  1  0.90347691  0.69937440  0.10023365  1
  Sc  Sc78  1  0.29172870  0.49660087  0.49878338  1
  Sc  Sc79  1  0.30834665  0.69361069  0.90861618  1
  Sc  Sc80  1  0.49980521  0.69245040  0.90232041  1
  Sc  Sc81  1  0.69985166  0.69476335  0.09213602  1
  Sc  Sc82  1  0.89625420  0.69589969  0.71301296  1
  Sc  Sc83  1  0.69653619  0.49138181  0.90229366  1
  Sc  Sc84  1  0.30264513  0.49356717  0.70246881  1
  Sc  Sc85  1  0.89952750  0.91409830  0.49880241  1
  Sc  Sc86  1  0.09992232  0.50267223  0.09917752  1
  Sc  Sc87  1  0.89087145  0.09747942  0.30501718  1
  Sc  Sc88  1  0.90457058  0.49824839  0.50206664  1
  Sc  Sc89  1  0.90169216  0.69605349  0.90167525  1
  Sc  Sc90  1  0.90520476  0.49517110  0.70477351  1
  Sc  Sc91  1  0.89784852  0.69100122  0.49587816  1
  Sc  Sc92  1  0.30691283  0.09949683  0.11205838  1
  Sc  Sc93  1  0.70346021  0.09840948  0.50139385  1
  Sc  Sc94  1  0.08894041  0.10210291  0.09737006  1
  Sc  Sc95  1  0.50157620  0.09891673  0.88431503  1
  Sc  Sc96  1  0.89368504  0.10254077  0.50072266  1
  Sc  Sc97  1  0.49277502  0.90304582  0.30348855  1
  Sc  Sc98  1  0.09929043  0.49145521  0.90995808  1
  Sc  Sc99  1  0.69156045  0.90824005  0.50161693  1
  Nb  Nb100  1  0.30287215  0.90541947  0.09605095  1
  Nb  Nb101  1  0.50731665  0.10163830  0.10009857  1
  Nb  Nb102  1  0.10801411  0.69429861  0.09863760  1
  Nb  Nb103  1  0.50944454  0.30132006  0.30484133  1
  Nb  Nb104  1  0.69111564  0.49555202  0.69753708  1
  Nb  Nb105  1  0.10167648  0.10156695  0.90202165  1
  Nb  Nb106  1  0.09575943  0.29937811  0.70485697  1
  Nb  Nb107  1  0.09990215  0.89940909  0.70311263  1
  Nb  Nb108  1  0.29168153  0.49645080  0.29587071  1
  Nb  Nb109  1  0.90023948  0.29811231  0.10515479  1
  Nb  Nb110  1  0.69410742  0.10043845  0.10001054  1
  Nb  Nb111  1  0.70064693  0.30107971  0.70322130  1
  Nb  Nb112  1  0.69524610  0.29953301  0.30173538  1
  Nb  Nb113  1  0.10293795  0.69476495  0.90666396  1
  Nb  Nb114  1  0.29592338  0.10611911  0.49387206  1
  Nb  Nb115  1  0.90031683  0.90262889  0.10659456  1
  Nb  Nb116  1  0.70340489  0.89931459  0.70024646  1
  Nb  Nb117  1  0.09369418  0.89463260  0.30104938  1
  Nb  Nb118  1  0.50008246  0.30017254  0.49764391  1
  Nb  Nb119  1  0.69452629  0.29682344  0.88917640  1
  Nb  Nb120  1  0.69982811  0.09898319  0.90875929  1
  Nb  Nb121  1  0.49804766  0.09927164  0.69838151  1
  Nb  Nb122  1  0.10132377  0.29177692  0.89406527  1
  Nb  Nb123  1  0.50137118  0.50051926  0.70140553  1
  Nb  Nb124  1  0.29648130  0.89665501  0.70370339  1
  Nb  Nb125  1  0.19787188  0.59939316  0.80862755  1
  Nb  Nb126  1  -0.00364608  0.80176611  0.60310630  1
  Nb  Nb127  1  0.79231548  0.39606013  0.60318897  1
  Nb  Nb128  1  0.80109507  0.80181690  0.40517206  1
  Nb  Nb129  1  0.19898273  0.20850378  0.19672063  1
  Nb  Nb130  1  0.60166453  0.39845008  0.60260437  1
  Nb  Nb131  1  0.39952324  0.60294389  0.59994982  1
  Nb  Nb132  1  0.80288764  0.58939576  0.19837955  1
  Nb  Nb133  1  0.79635803  0.39426051  0.40012357  1
  Nb  Nb134  1  0.00562164  0.20346480  0.60613974  1
  Nb  Nb135  1  0.20089101  0.39601835  0.20239836  1
  Nb  Nb136  1  0.19630648  -0.00373412  0.80019666  1
  Nb  Nb137  1  0.80243719  0.80245029  0.60072380  1
  Nb  Nb138  1  0.00819170  0.60515503  0.60270123  1
  Nb  Nb139  1  0.39985327  0.00386275  0.00183408  1
  Nb  Nb140  1  -0.00224057  -0.00695124  0.20080118  1
  Nb  Nb141  1  0.20245023  0.00357718  -0.00213795  1
  Nb  Nb142  1  0.19900352  0.19852541  -0.00086630  1
  Nb  Nb143  1  0.59584215  0.59907757  0.39793355  1
  Nb  Nb144  1  0.60084921  0.80024679  0.19687372  1
  Nb  Nb145  1  0.60206000  0.80213313  0.79675555  1
  Nb  Nb146  1  0.60158403  0.19500497  -0.00306838  1
  Nb  Nb147  1  0.80359332  0.39451268  0.20514066  1
  Nb  Nb148  1  0.39598530  0.80382701  0.60455100  1
  Nb  Nb149  1  0.40476932  0.80286088  0.79334861  1
  Pd  Pd150  1  0.59761217  0.18987149  0.39866863  1
  Pd  Pd151  1  0.00564879  0.19188345  0.20883212  1
  Pd  Pd152  1  0.60136139  0.59798377  -0.00749188  1
  Pd  Pd153  1  0.20219228  0.80120786  -0.00496639  1
  Pd  Pd154  1  0.79771088  0.40515671  0.79882337  1
  Pd  Pd155  1  0.20805375  0.80171909  0.20395550  1
  Pd  Pd156  1  0.20470630  0.79572895  0.81201312  1
  Pd  Pd157  1  0.39324106  0.59258679  0.19752304  1
  Pd  Pd158  1  0.18922650  0.00902663  0.19564713  1
  Pd  Pd159  1  0.60179530  0.19389412  0.79910083  1
  Pd  Pd160  1  0.59108577  0.59606503  0.58935516  1
  Pd  Pd161  1  0.60092018  0.00810167  0.39273342  1
  Pd  Pd162  1  0.60565355  0.79917345  0.38543609  1
  Pd  Pd163  1  0.60650903  0.60088434  0.81040475  1
  Pd  Pd164  1  0.79325532  0.20869584  -0.00450689  1
  Pd  Pd165  1  0.20350163  0.39523921  0.60318106  1
  Pd  Pd166  1  0.00043613  0.00694734  0.39538789  1
  Pd  Pd167  1  0.00076638  0.39546440  0.21136559  1
  Pd  Pd168  1  0.59572498  0.79843705  -0.00011865  1
  Pd  Pd169  1  0.40359568  0.19133108  0.00104257  1
  Pd  Pd170  1  0.79312598  0.79296477  0.19800797  1
  Pd  Pd171  1  0.79952283  0.38915873  0.00170134  1
  Pd  Pd172  1  0.20014681  -0.00453112  0.60473993  1
  Pd  Pd173  1  -0.00201366  0.79241329  0.79824933  1
  Pd  Pd174  1  0.00105270  0.00535089  0.80151219  1
  Pd  Pd175  1  0.79505074  0.58659789  0.80247347  1
  Pd  Pd176  1  0.00268418  0.00290044  0.59885686  1
  Pd  Pd177  1  0.19576855  0.81164411  0.59401074  1
  Pd  Pd178  1  0.80555473  0.79964099  0.00709836  1
  Pd  Pd179  1  0.20476868  0.19801279  0.79751386  1
  Pd  Pd180  1  0.00319977  0.40232486  0.80782120  1
  Pd  Pd181  1  0.39660831  0.40512864  0.39718974  1
  Pd  Pd182  1  0.41038110  0.80636861  -0.00639026  1
  Pd  Pd183  1  0.79510901  0.00945157  0.80025098  1
  Pd  Pd184  1  -0.00154329  -0.00135206  0.00748277  1
  Pd  Pd185  1  0.39852615  0.20487031  0.19984921  1
  Pd  Pd186  1  0.19556458  0.60258364  0.39813534  1
  Pd  Pd187  1  0.60227583  0.60870522  0.20549793  1
  Pd  Pd188  1  0.01247977  0.60728869  0.40967263  1
  Pd  Pd189  1  0.59952636  0.80510374  0.60524978  1
  Pd  Pd190  1  0.40139938  0.59401487  0.40128738  1
  Pd  Pd191  1  0.39195254  0.80389875  0.39937524  1
  Pd  Pd192  1  0.81320806  0.59572958  0.60763395  1
  Pd  Pd193  1  0.01200361  0.59608784  0.79749332  1
  Pd  Pd194  1  -0.00300899  0.79385275  0.00453200  1
  Pd  Pd195  1  0.39032007  -0.00158809  0.59667399  1
  Pd  Pd196  1  0.59615067  -0.00714979  0.20453135  1
  Pd  Pd197  1  0.80747196  0.00356593  0.00518810  1
  Pd  Pd198  1  0.60586073  0.40649132  0.41154356  1
  Pd  Pd199  1  -0.00026133  0.60020284  0.00355557  1
  Rh  Rh200  1  0.79574736  0.20206825  0.39759302  1
  Rh  Rh201  1  0.79543225  0.80110664  0.79637518  1
  Rh  Rh202  1  0.60425733  0.38940232  0.19742767  1
  Rh  Rh203  1  0.40024897  0.80445732  0.19981540  1
  Rh  Rh204  1  -0.00312680  0.39353493  -0.00719648  1
  Rh  Rh205  1  0.79274840  0.20521800  0.20284004  1
  Rh  Rh206  1  0.41011832  0.19784555  0.40302984  1
  Rh  Rh207  1  0.00261880  0.80046656  0.18941674  1
  Rh  Rh208  1  0.59532416  0.39993369  0.79518182  1
  Rh  Rh209  1  0.40656433  -0.00009810  0.19374175  1
  Rh  Rh210  1  0.39050726  0.60069434  0.79380636  1
  Rh  Rh211  1  0.79448820  -0.00314081  0.40124803  1
  Rh  Rh212  1  0.39385369  0.40122292  0.20243946  1
  Rh  Rh213  1  0.19262150  0.39136333  0.00353694  1
  Rh  Rh214  1  0.61286178  0.00411761  0.79243938  1
  Rh  Rh215  1  0.20224301  0.20604542  0.39660666  1
  Rh  Rh216  1  0.80884093  0.20505174  0.60299462  1
  Rh  Rh217  1  0.19561199  0.20823406  0.60108153  1
  Rh  Rh218  1  0.00206700  0.19256161  0.41344788  1
  Rh  Rh219  1  0.19534254  0.40298557  0.80326738  1
  Rh  Rh220  1  0.00008930  0.60444240  0.19105925  1
  Rh  Rh221  1  -0.00849070  0.79999603  0.41289248  1
  Rh  Rh222  1  0.80581181  0.00647855  0.19435124  1
  Rh  Rh223  1  0.79126050  0.59888695  0.38965974  1
  Rh  Rh224  1  0.20186115  0.59520789  0.19497379  1
  Rh  Rh225  1  -0.00607906  0.39907841  0.39899344  1
  Rh  Rh226  1  0.40134497  0.00729999  0.40315953  1
  Rh  Rh227  1  0.00090811  0.20597541  -0.00630349  1
  Rh  Rh228  1  0.19883289  0.59137822  0.60925650  1
  Rh  Rh229  1  0.59747356  0.38808443  -0.00691441  1
  Rh  Rh230  1  0.59553117  0.20061656  0.60226356  1
  Rh  Rh231  1  0.20152769  0.60140856  -0.00219008  1
  Rh  Rh232  1  0.80215912  0.59652496  0.00452590  1
  Rh  Rh233  1  0.20355900  0.80631848  0.38851537  1
  Rh  Rh234  1  0.39832547  0.20121831  0.78775659  1
  Rh  Rh235  1  0.20478512  0.39756341  0.39522124  1
  Rh  Rh236  1  0.79673211  0.19577100  0.80637609  1
  Rh  Rh237  1  0.60658060  0.00981827  0.60422183  1
  Rh  Rh238  1  0.40475984  0.40285720  0.60222195  1
  Rh  Rh239  1  0.60286226  0.20448376  0.19557488  1
  Rh  Rh240  1  0.39135750  -0.00024986  0.79600414  1
  Rh  Rh241  1  0.40882418  0.40617309  -0.00311030  1
  Rh  Rh242  1  0.19674368  -0.00326674  0.39187251  1
  Rh  Rh243  1  -0.00511805  0.39791279  0.60382106  1
  Rh  Rh244  1  0.59230295  0.00967917  -0.00034359  1
  Rh  Rh245  1  0.40112020  0.19966032  0.59886183  1
  Rh  Rh246  1  0.40406370  0.59304429  0.00616080  1
  Rh  Rh247  1  -0.00365592  0.19586170  0.79831844  1
  Rh  Rh248  1  0.79428531  -0.00482499  0.60095525  1
  Rh  Rh249  1  0.40349180  0.39984410  0.79546919  1
