# generated using pymatgen
data_ZrScNbPdRh
_symmetry_space_group_name_H-M   'P 1'
_cell_length_a   16.55360973
_cell_length_b   16.55625329
_cell_length_c   16.55525203
_cell_angle_alpha   89.99738768
_cell_angle_beta   89.97444588
_cell_angle_gamma   90.00381767
_symmetry_Int_Tables_number   1
_chemical_formula_structural   ZrScNbPdRh
_chemical_formula_sum   'Zr50 Sc50 Nb50 Pd50 Rh50'
_cell_volume   4537.22718857
_cell_formula_units_Z   50
loop_
 _symmetry_equiv_pos_site_id
 _symmetry_equiv_pos_as_xyz
  1  'x, y, z'
loop_
 _atom_site_type_symbol
 _atom_site_label
 _atom_site_symmetry_multiplicity
 _atom_site_fract_x
 _atom_site_fract_y
 _atom_site_fract_z
 _atom_site_occupancy
  Zr  Zr0  1  0.89370159  0.69231195  0.30672023  1
  Zr  Zr1  1  0.10366410  0.29557017  0.30626824  1
  Zr  Zr2  1  0.50740997  0.90272279  0.89323786  1
  Zr  Zr3  1  0.89938309  0.70526679  0.70152100  1
  Zr  Zr4  1  0.30644854  0.29530376  0.30414928  1
  Zr  Zr5  1  0.89849327  0.49934154  0.90619923  1
  Zr  Zr6  1  0.69539488  0.29884127  0.50091715  1
  Zr  Zr7  1  0.49291065  0.70098853  0.29109259  1
  Zr  Zr8  1  0.70364729  0.50336292  0.89904817  1
  Zr  Zr9  1  0.88928304  0.90187275  0.30178257  1
  Zr  Zr10  1  0.50571675  0.30373317  0.69913766  1
  Zr  Zr11  1  0.29229347  0.89486519  0.91091732  1
  Zr  Zr12  1  0.88835206  0.10353343  0.29464929  1
  Zr  Zr13  1  0.09517314  0.49838997  0.91018143  1
  Zr  Zr14  1  0.70193216  0.70900111  0.90109975  1
  Zr  Zr15  1  0.10928279  0.89452663  0.09389508  1
  Zr  Zr16  1  0.69886465  0.30297841  0.10273960  1
  Zr  Zr17  1  0.49769083  0.10125666  0.29938984  1
  Zr  Zr18  1  0.90201106  0.11452664  0.90598280  1
  Zr  Zr19  1  0.90627991  0.30221481  0.90383237  1
  Zr  Zr20  1  0.09360080  0.89560684  0.70704454  1
  Zr  Zr21  1  0.70085336  0.89822827  0.90051393  1
  Zr  Zr22  1  0.50169293  0.49418350  0.49648790  1
  Zr  Zr23  1  0.09781201  0.50501203  0.10161737  1
  Zr  Zr24  1  0.49735139  0.49951248  0.10443076  1
  Zr  Zr25  1  0.09900255  0.10378767  0.69425748  1
  Zr  Zr26  1  0.50719557  0.69091071  0.49665710  1
  Zr  Zr27  1  0.10838213  0.69402178  0.30179971  1
  Zr  Zr28  1  0.90559775  0.69725373  0.49988931  1
  Zr  Zr29  1  0.70202190  0.69561741  0.70121459  1
  Zr  Zr30  1  0.49743281  0.68988696  0.09086644  1
  Zr  Zr31  1  0.69535817  0.69669859  0.10323027  1
  Zr  Zr32  1  0.10630974  0.10596528  0.49410980  1
  Zr  Zr33  1  0.90219351  0.88831360  0.89599279  1
  Zr  Zr34  1  0.71009634  0.10440235  0.10946693  1
  Zr  Zr35  1  0.10575450  0.30186315  0.10349006  1
  Zr  Zr36  1  0.70589934  0.50580124  0.29634437  1
  Zr  Zr37  1  0.69267896  0.10117861  0.90310150  1
  Zr  Zr38  1  0.69355610  0.09853975  0.69525907  1
  Zr  Zr39  1  0.29480263  0.49083730  0.69238102  1
  Zr  Zr40  1  0.29133070  0.69636036  0.70409888  1
  Zr  Zr41  1  0.49050918  0.90341117  0.30187554  1
  Zr  Zr42  1  0.90202902  0.29926666  0.31058260  1
  Zr  Zr43  1  0.30262615  0.10254496  0.90430021  1
  Zr  Zr44  1  0.69821891  0.49833012  0.10170929  1
  Zr  Zr45  1  0.49785576  0.29726684  0.90335428  1
  Zr  Zr46  1  0.69826212  0.90067095  0.10259046  1
  Zr  Zr47  1  0.69808005  0.09522102  0.29981817  1
  Zr  Zr48  1  0.09412373  0.29763505  0.50296343  1
  Zr  Zr49  1  0.50009401  0.09989032  0.90089475  1
  Sc  Sc50  1  0.49545853  0.09164028  0.50029333  1
  Sc  Sc51  1  0.50086455  0.49547000  0.90734477  1
  Sc  Sc52  1  0.10256634  0.49733948  0.69877225  1
  Sc  Sc53  1  0.89543709  0.29604391  0.09266351  1
  Sc  Sc54  1  0.49736540  0.90160522  0.10592376  1
  Sc  Sc55  1  0.69381377  0.30226483  0.90406247  1
  Sc  Sc56  1  0.90711231  0.31403474  0.69690716  1
  Sc  Sc57  1  0.90546837  0.50125710  0.50225526  1
  Sc  Sc58  1  0.09735529  0.70073195  0.70152639  1
  Sc  Sc59  1  0.90466921  0.69688962  0.09553910  1
  Sc  Sc60  1  0.49423805  0.10573504  0.09797894  1
  Sc  Sc61  1  0.29348275  0.49574620  0.89573822  1
  Sc  Sc62  1  0.10121889  0.30299848  0.89931267  1
  Sc  Sc63  1  0.69382811  0.50036840  0.50274673  1
  Sc  Sc64  1  0.49934842  0.29731389  0.09921039  1
  Sc  Sc65  1  0.69660042  0.90277804  0.70252949  1
  Sc  Sc66  1  0.30014796  0.28814296  0.09930824  1
  Sc  Sc67  1  0.09601094  0.11753013  0.89607988  1
  Sc  Sc68  1  0.49864652  0.08666987  0.69679620  1
  Sc  Sc69  1  0.11474436  0.89402715  0.28784040  1
  Sc  Sc70  1  0.30404429  0.90864300  0.48948472  1
  Sc  Sc71  1  0.90211753  0.10547132  0.50213628  1
  Sc  Sc72  1  0.91018069  0.10403453  0.69993752  1
  Sc  Sc73  1  0.49730100  0.30179957  0.49440949  1
  Sc  Sc74  1  0.10279012  0.30205856  0.69933216  1
  Sc  Sc75  1  0.09853418  0.69519046  0.50165932  1
  Sc  Sc76  1  0.30238474  0.10205276  0.68924808  1
  Sc  Sc77  1  0.11180891  0.70782128  0.89827525  1
  Sc  Sc78  1  0.10137303  0.90431685  0.50631572  1
  Sc  Sc79  1  0.90189008  0.49948464  0.09790188  1
  Sc  Sc80  1  0.50903494  0.49313475  0.69836202  1
  Sc  Sc81  1  0.50284508  0.29652150  0.30205375  1
  Sc  Sc82  1  0.29696663  0.09488533  0.30222808  1
  Sc  Sc83  1  0.90790690  0.90146545  0.69705807  1
  Sc  Sc84  1  0.30545631  0.90794924  0.70013174  1
  Sc  Sc85  1  0.70410770  0.29394707  0.30128241  1
  Sc  Sc86  1  0.29169189  0.50163262  0.10306086  1
  Sc  Sc87  1  0.10407812  0.50584358  0.50446968  1
  Sc  Sc88  1  0.69354755  0.10244321  0.49721883  1
  Sc  Sc89  1  0.90216615  0.49952415  0.30174280  1
  Sc  Sc90  1  0.29285421  0.50511846  0.29406615  1
  Sc  Sc91  1  0.30478214  0.69741271  0.09417577  1
  Sc  Sc92  1  0.90441746  0.88783089  0.09880532  1
  Sc  Sc93  1  0.70290162  0.68584215  0.49244765  1
  Sc  Sc94  1  0.90379265  0.30378211  0.49958124  1
  Sc  Sc95  1  0.28724750  0.69530074  0.49245555  1
  Sc  Sc96  1  0.50229529  0.49528822  0.30124612  1
  Sc  Sc97  1  0.10270041  0.49802998  0.29180116  1
  Sc  Sc98  1  0.70332973  0.91311850  0.49726607  1
  Sc  Sc99  1  0.29369069  0.30200670  0.89970916  1
  Nb  Nb100  1  0.69629514  0.30540429  0.69956201  1
  Nb  Nb101  1  0.69645566  0.90400105  0.29621247  1
  Nb  Nb102  1  0.10153480  0.90052105  0.89730165  1
  Nb  Nb103  1  0.50014149  0.89614205  0.69390757  1
  Nb  Nb104  1  0.29096467  0.91171000  0.10500756  1
  Nb  Nb105  1  0.69998246  0.69936854  0.30221004  1
  Nb  Nb106  1  0.49939400  0.69970662  0.89752040  1
  Nb  Nb107  1  0.30501256  0.30710474  0.50717993  1
  Nb  Nb108  1  0.89065853  0.69892047  0.89636673  1
  Nb  Nb109  1  0.10346023  0.09868128  0.10500100  1
  Nb  Nb110  1  0.49797540  0.89451198  0.50165283  1
  Nb  Nb111  1  0.30531233  0.89197096  0.29208110  1
  Nb  Nb112  1  0.30565444  0.30579681  0.69618519  1
  Nb  Nb113  1  0.29744249  0.10331092  0.49874449  1
  Nb  Nb114  1  0.30276496  0.49547809  0.50052590  1
  Nb  Nb115  1  0.30801739  0.70435390  0.89503380  1
  Nb  Nb116  1  0.50198963  0.69964017  0.69788986  1
  Nb  Nb117  1  0.29967194  0.70056882  0.30190277  1
  Nb  Nb118  1  0.29389215  0.09698665  0.09690779  1
  Nb  Nb119  1  0.90354122  0.10181530  0.09818277  1
  Nb  Nb120  1  0.09738921  0.10100942  0.30239818  1
  Nb  Nb121  1  0.09808127  0.69563686  0.09926884  1
  Nb  Nb122  1  0.70367576  0.49378161  0.70274042  1
  Nb  Nb123  1  0.89168808  0.50490065  0.70732860  1
  Nb  Nb124  1  0.90317586  0.89649231  0.49848928  1
  Nb  Nb125  1  0.80803622  0.00126874  -0.00106440  1
  Nb  Nb126  1  0.40142603  0.79466984  0.60008237  1
  Nb  Nb127  1  0.59801388  0.60363986  0.80151427  1
  Nb  Nb128  1  0.79502519  0.20327403  0.79335867  1
  Nb  Nb129  1  0.79235697  0.79610618  0.20796739  1
  Nb  Nb130  1  0.19472768  0.00105413  0.80325499  1
  Nb  Nb131  1  0.79451630  0.20682491  0.60890552  1
  Nb  Nb132  1  0.79948839  0.80135752  0.59343742  1
  Nb  Nb133  1  0.20699847  0.39683650  0.40745311  1
  Nb  Nb134  1  0.60017996  0.79869709  0.59383862  1
  Nb  Nb135  1  0.00176938  0.19384234  0.20072337  1
  Nb  Nb136  1  -0.00137533  0.80566299  0.39781767  1
  Nb  Nb137  1  0.00254932  0.00221295  0.00201779  1
  Nb  Nb138  1  0.60314457  0.80291061  0.39616670  1
  Nb  Nb139  1  0.39478011  0.59842694  0.40044871  1
  Nb  Nb140  1  0.40419331  0.79665129  0.79879403  1
  Nb  Nb141  1  0.39899017  0.59972327  0.59973235  1
  Nb  Nb142  1  0.40392353  0.60346925  0.79722891  1
  Nb  Nb143  1  0.39781404  0.39773669  0.20129052  1
  Nb  Nb144  1  0.00098499  -0.00202339  0.39168743  1
  Nb  Nb145  1  0.00328129  0.00377906  0.19769301  1
  Nb  Nb146  1  0.20572525  0.80253452  0.60283512  1
  Nb  Nb147  1  0.80272498  0.00731090  0.80571668  1
  Nb  Nb148  1  -0.00946887  0.59988794  0.80636654  1
  Nb  Nb149  1  0.40002635  0.20472774  0.79485723  1
  Pd  Pd150  1  0.59237625  0.79999942  0.00313236  1
  Pd  Pd151  1  0.39052751  0.39947943  0.00865989  1
  Pd  Pd152  1  0.80403124  0.00931418  0.40822219  1
  Pd  Pd153  1  0.79888508  0.60243051  0.00717127  1
  Pd  Pd154  1  0.80148640  0.39919269  0.59511168  1
  Pd  Pd155  1  0.20393603  0.20771819  0.59970998  1
  Pd  Pd156  1  0.40116711  0.40183035  0.80110875  1
  Pd  Pd157  1  0.19812812  -0.00768074  0.39174507  1
  Pd  Pd158  1  0.60219232  0.00503366  0.01194988  1
  Pd  Pd159  1  0.00010354  0.00272593  0.59107038  1
  Pd  Pd160  1  0.21029095  0.78894689  0.19073669  1
  Pd  Pd161  1  0.39224745  0.58981174  -0.01009028  1
  Pd  Pd162  1  0.80572584  0.00227342  0.60535754  1
  Pd  Pd163  1  0.00106816  0.59541816  0.61248695  1
  Pd  Pd164  1  0.59605409  0.59653328  0.20466749  1
  Pd  Pd165  1  0.19484789  0.59249967  0.80425917  1
  Pd  Pd166  1  0.00476323  0.40678497  0.79757539  1
  Pd  Pd167  1  0.79590256  0.40484263  0.40642606  1
  Pd  Pd168  1  0.18877315  0.01168992  -0.00968275  1
  Pd  Pd169  1  0.39987470  0.79151787  0.40710179  1
  Pd  Pd170  1  -0.00491586  0.79956550  0.20939278  1
  Pd  Pd171  1  0.39225733  0.79898769  0.18622851  1
  Pd  Pd172  1  0.39362430  0.00046929  0.80139855  1
  Pd  Pd173  1  0.59933930  0.40125752  0.00067411  1
  Pd  Pd174  1  -0.00393206  0.60113826  0.20313016  1
  Pd  Pd175  1  0.79858129  0.39043777  0.80544534  1
  Pd  Pd176  1  0.20249977  0.19468101  0.20351608  1
  Pd  Pd177  1  0.59735800  0.20011235  0.19950750  1
  Pd  Pd178  1  0.59363236  -0.00430838  0.40120745  1
  Pd  Pd179  1  0.40692228  0.19910800  0.60123828  1
  Pd  Pd180  1  0.01208428  0.41166978  0.40378378  1
  Pd  Pd181  1  0.79378334  0.80100496  0.40405728  1
  Pd  Pd182  1  0.20306301  -0.00487328  0.60551132  1
  Pd  Pd183  1  0.40000299  0.19436143  0.40729873  1
  Pd  Pd184  1  0.80872237  0.39756215  0.20005843  1
  Pd  Pd185  1  0.80051972  0.59974441  0.59679022  1
  Pd  Pd186  1  0.40226210  -0.00586020  0.00515450  1
  Pd  Pd187  1  0.59561508  0.19868460  0.79714773  1
  Pd  Pd188  1  0.19396047  0.80824179  0.40726980  1
  Pd  Pd189  1  0.20331174  0.60588664  -0.00342046  1
  Pd  Pd190  1  -0.00684001  0.39101030  0.19676542  1
  Pd  Pd191  1  0.00596672  0.79490504  -0.00701054  1
  Pd  Pd192  1  0.20967711  0.19882980  0.79320363  1
  Pd  Pd193  1  0.39500377  0.00761639  0.19655547  1
  Pd  Pd194  1  0.20381086  0.39842786  0.00418838  1
  Pd  Pd195  1  0.40376755  0.80887857  0.00166122  1
  Pd  Pd196  1  0.59926384  0.80110142  0.20504408  1
  Pd  Pd197  1  0.60854697  0.39669243  0.39192608  1
  Pd  Pd198  1  0.00081663  0.00725502  0.81007960  1
  Pd  Pd199  1  0.59451736  0.19792105  0.59572489  1
  Rh  Rh200  1  0.79784084  0.59943682  0.80090846  1
  Rh  Rh201  1  0.80704681  0.21192963  0.20050008  1
  Rh  Rh202  1  0.80805651  -0.01296601  0.18602486  1
  Rh  Rh203  1  0.20179935  0.00251204  0.20566799  1
  Rh  Rh204  1  -0.00579381  0.20551302  0.60279885  1
  Rh  Rh205  1  0.39600368  0.19963739  0.19854377  1
  Rh  Rh206  1  0.60228872  0.19914314  0.00907373  1
  Rh  Rh207  1  0.01396289  0.20320846  0.01164649  1
  Rh  Rh208  1  0.20207882  0.79160471  0.00710806  1
  Rh  Rh209  1  0.80405810  0.60430496  0.19692560  1
  Rh  Rh210  1  0.59622023  0.19638961  0.40008298  1
  Rh  Rh211  1  0.60320801  0.40770289  0.80492331  1
  Rh  Rh212  1  0.20192038  0.58936114  0.39963599  1
  Rh  Rh213  1  0.00061591  0.78730725  0.80810980  1
  Rh  Rh214  1  0.59275749  0.39654993  0.20309101  1
  Rh  Rh215  1  0.39639403  0.59392390  0.20578796  1
  Rh  Rh216  1  0.59275088  0.00526862  0.20023848  1
  Rh  Rh217  1  0.20997780  0.39196637  0.20918665  1
  Rh  Rh218  1  0.00198428  0.39539174  0.00939187  1
  Rh  Rh219  1  -0.00762089  0.18986615  0.39535013  1
  Rh  Rh220  1  0.40960091  0.40387952  0.60164172  1
  Rh  Rh221  1  0.78967917  0.20013409  -0.00422869  1
  Rh  Rh222  1  0.19452988  0.39389660  0.59476006  1
  Rh  Rh223  1  0.20024195  0.60821720  0.19342714  1
  Rh  Rh224  1  0.60352310  0.60058489  -0.00709163  1
  Rh  Rh225  1  0.20909472  0.81346935  0.79273921  1
  Rh  Rh226  1  -0.00577966  0.21220591  0.79305429  1
  Rh  Rh227  1  0.60220704  -0.00136623  0.79444059  1
  Rh  Rh228  1  0.59703800  0.79668569  0.79332057  1
  Rh  Rh229  1  0.00336912  0.80000388  0.58991606  1
  Rh  Rh230  1  0.19746783  0.19906259  -0.00023751  1
  Rh  Rh231  1  0.79781672  0.20026114  0.41285881  1
  Rh  Rh232  1  0.39777061  -0.00464781  0.59116334  1
  Rh  Rh233  1  0.59673642  -0.00804905  0.59586386  1
  Rh  Rh234  1  0.19700750  0.39874870  0.79800641  1
  Rh  Rh235  1  -0.00032102  0.40904988  0.60212995  1
  Rh  Rh236  1  0.39642230  0.20071728  -0.00459948  1
  Rh  Rh237  1  0.20977771  0.20651696  0.40908658  1
  Rh  Rh238  1  0.59400892  0.60178405  0.38661696  1
  Rh  Rh239  1  0.80106007  0.58820847  0.40351352  1
  Rh  Rh240  1  0.79747774  0.39960282  0.00085658  1
  Rh  Rh241  1  0.80245645  0.81162956  0.78664025  1
  Rh  Rh242  1  0.20198514  0.60439979  0.59872621  1
  Rh  Rh243  1  0.79849337  0.80017226  0.01251732  1
  Rh  Rh244  1  0.39621870  0.00215788  0.39880817  1
  Rh  Rh245  1  0.00546898  0.60170034  0.39498742  1
  Rh  Rh246  1  0.00274928  0.61085859  -0.00858992  1
  Rh  Rh247  1  0.60210080  0.59495125  0.61122108  1
  Rh  Rh248  1  0.60003336  0.40108646  0.59702108  1
  Rh  Rh249  1  0.39133674  0.40739363  0.39066480  1
