# generated using pymatgen
data_ZrScNbPdRh
_symmetry_space_group_name_H-M   'P 1'
_cell_length_a   16.56302464
_cell_length_b   16.56118040
_cell_length_c   16.56008849
_cell_angle_alpha   90.00194294
_cell_angle_beta   89.99083963
_cell_angle_gamma   90.00506044
_symmetry_Int_Tables_number   1
_chemical_formula_structural   ZrScNbPdRh
_chemical_formula_sum   'Zr50 Sc50 Nb50 Pd50 Rh50'
_cell_volume   4542.48583580
_cell_formula_units_Z   50
loop_
 _symmetry_equiv_pos_site_id
 _symmetry_equiv_pos_as_xyz
  1  'x, y, z'
loop_
 _atom_site_type_symbol
 _atom_site_label
 _atom_site_symmetry_multiplicity
 _atom_site_fract_x
 _atom_site_fract_y
 _atom_site_fract_z
 _atom_site_occupancy
  Zr  Zr0  1  0.09814767  0.30399248  0.70566729  1
  Zr  Zr1  1  0.90307840  0.29839008  0.90985986  1
  Zr  Zr2  1  0.10925294  0.30391613  0.90399527  1
  Zr  Zr3  1  0.69043718  0.69617761  0.69192531  1
  Zr  Zr4  1  0.70830714  0.09446833  0.29893334  1
  Zr  Zr5  1  0.70375958  0.90630180  0.10440422  1
  Zr  Zr6  1  0.50081091  0.50046031  0.48782288  1
  Zr  Zr7  1  0.50315483  0.49992385  0.90740026  1
  Zr  Zr8  1  0.10449886  0.09331029  0.69729534  1
  Zr  Zr9  1  0.30492988  0.90399649  0.69615734  1
  Zr  Zr10  1  0.50567906  0.90088277  0.89309335  1
  Zr  Zr11  1  0.90058709  0.09004781  0.90424582  1
  Zr  Zr12  1  0.89108513  0.10046292  0.10003823  1
  Zr  Zr13  1  0.70033450  0.10235828  0.90145961  1
  Zr  Zr14  1  0.69605037  0.90270830  0.31325909  1
  Zr  Zr15  1  0.29955081  0.49723973  0.89695121  1
  Zr  Zr16  1  0.89790754  0.89074020  0.89496661  1
  Zr  Zr17  1  0.09867675  0.30513601  0.49429500  1
  Zr  Zr18  1  0.29795396  0.09698252  0.29684401  1
  Zr  Zr19  1  0.89943302  0.29618194  0.10100142  1
  Zr  Zr20  1  0.88781417  0.50876885  0.89253569  1
  Zr  Zr21  1  0.50162764  0.29877563  0.09366124  1
  Zr  Zr22  1  0.10173953  0.89991998  0.50407520  1
  Zr  Zr23  1  0.09816304  0.49459381  0.90313364  1
  Zr  Zr24  1  0.69098923  0.50388734  0.29449674  1
  Zr  Zr25  1  0.89443134  0.49123484  0.69999058  1
  Zr  Zr26  1  0.10640338  0.70489871  0.49682251  1
  Zr  Zr27  1  0.50466794  0.09642332  0.70131817  1
  Zr  Zr28  1  0.69664661  0.29579701  0.30188455  1
  Zr  Zr29  1  0.49998963  0.50089678  0.69210139  1
  Zr  Zr30  1  0.89493033  0.91065830  0.69916830  1
  Zr  Zr31  1  0.90666115  0.09697077  0.29401461  1
  Zr  Zr32  1  0.09892068  0.30881555  0.29714869  1
  Zr  Zr33  1  0.30544139  0.51186961  0.50443420  1
  Zr  Zr34  1  0.30490023  0.09939101  0.70466194  1
  Zr  Zr35  1  0.50340837  0.10527276  0.50624379  1
  Zr  Zr36  1  0.49348127  0.69279604  0.50761512  1
  Zr  Zr37  1  0.29570900  0.70614436  0.11776821  1
  Zr  Zr38  1  0.30529133  0.69435678  0.89416420  1
  Zr  Zr39  1  0.69173287  0.49317289  0.09632077  1
  Zr  Zr40  1  0.50454370  0.29626247  0.49721424  1
  Zr  Zr41  1  0.09561668  0.50000532  0.70608554  1
  Zr  Zr42  1  0.69285437  0.90683268  0.70012039  1
  Zr  Zr43  1  0.49871986  0.10510580  0.09709076  1
  Zr  Zr44  1  0.50479007  0.70409497  0.90597519  1
  Zr  Zr45  1  0.10780578  0.10185490  0.89678946  1
  Zr  Zr46  1  0.70017601  0.29269328  0.49988370  1
  Zr  Zr47  1  0.30503220  0.30073084  0.70737185  1
  Zr  Zr48  1  0.29809753  0.10013725  0.10076245  1
  Zr  Zr49  1  0.29847902  0.89178444  0.49149345  1
  Sc  Sc50  1  0.70437940  0.30094582  0.69916315  1
  Sc  Sc51  1  0.50462099  0.09223920  0.30903043  1
  Sc  Sc52  1  0.49939259  0.30283097  0.30464469  1
  Sc  Sc53  1  0.30125469  0.50741286  0.70547084  1
  Sc  Sc54  1  0.50061689  0.28813430  0.69768265  1
  Sc  Sc55  1  0.90226715  0.70046807  0.71498031  1
  Sc  Sc56  1  0.69968258  0.09524122  0.69174879  1
  Sc  Sc57  1  0.89308359  0.30357666  0.50518397  1
  Sc  Sc58  1  0.50491866  0.89027144  0.10220820  1
  Sc  Sc59  1  0.90481355  0.70337559  0.10528688  1
  Sc  Sc60  1  0.10175239  0.09700311  0.29754927  1
  Sc  Sc61  1  0.29377709  0.70316953  0.30962389  1
  Sc  Sc62  1  0.90565050  0.90253014  0.30360890  1
  Sc  Sc63  1  0.10297969  0.08792325  0.49722340  1
  Sc  Sc64  1  0.10124148  0.69635465  0.29318462  1
  Sc  Sc65  1  0.49579455  0.71247331  0.70134645  1
  Sc  Sc66  1  0.69412902  0.30425054  0.90130412  1
  Sc  Sc67  1  0.10021698  0.70267331  0.69587889  1
  Sc  Sc68  1  0.69802517  0.69753167  0.09871543  1
  Sc  Sc69  1  0.30196283  0.09438160  0.49706488  1
  Sc  Sc70  1  0.71113562  0.70001388  0.90508605  1
  Sc  Sc71  1  0.49858538  0.69341118  0.10006396  1
  Sc  Sc72  1  0.09753832  0.90146237  0.69459395  1
  Sc  Sc73  1  0.90713718  0.70309643  0.30075960  1
  Sc  Sc74  1  0.09467882  0.90424733  0.89872048  1
  Sc  Sc75  1  0.89067185  0.09709970  0.50471749  1
  Sc  Sc76  1  0.90459334  0.49235938  0.49519301  1
  Sc  Sc77  1  0.09722747  0.90017394  0.30054438  1
  Sc  Sc78  1  0.10093517  0.50095290  0.29588603  1
  Sc  Sc79  1  0.89680838  0.49408065  0.10091990  1
  Sc  Sc80  1  0.08721194  0.70387941  0.88830801  1
  Sc  Sc81  1  0.68733071  0.70592584  0.49494292  1
  Sc  Sc82  1  0.29652899  0.50107434  0.30008188  1
  Sc  Sc83  1  0.50497213  0.29334032  0.89708776  1
  Sc  Sc84  1  0.29953843  0.50259006  0.11040678  1
  Sc  Sc85  1  0.10108239  0.50106491  0.48782296  1
  Sc  Sc86  1  0.49161484  0.70155974  0.30428882  1
  Sc  Sc87  1  0.90793346  0.90371459  0.09995434  1
  Sc  Sc88  1  0.90640096  0.50249705  0.29463693  1
  Sc  Sc89  1  0.09863756  0.09118284  0.10207198  1
  Sc  Sc90  1  0.31034652  0.29600125  0.49539891  1
  Sc  Sc91  1  0.49980080  0.10869623  0.89531270  1
  Sc  Sc92  1  0.29278849  0.29654156  0.29655982  1
  Sc  Sc93  1  0.29815392  0.91379140  0.89230554  1
  Sc  Sc94  1  0.89921018  0.30015296  0.29299897  1
  Sc  Sc95  1  0.70499294  0.89699917  0.90152308  1
  Sc  Sc96  1  0.90781994  0.90086313  0.49688618  1
  Sc  Sc97  1  0.29822433  0.29477405  0.10303892  1
  Sc  Sc98  1  0.70769075  0.49250006  0.70480989  1
  Sc  Sc99  1  0.29739128  0.10912115  0.89934571  1
  Nb  Nb100  1  0.89790527  0.70246605  0.49895356  1
  Nb  Nb101  1  0.29802450  0.70431982  0.69031057  1
  Nb  Nb102  1  0.70370100  0.09810899  0.10093519  1
  Nb  Nb103  1  0.10415358  0.88879796  0.10323283  1
  Nb  Nb104  1  0.70280877  0.90249560  0.50088713  1
  Nb  Nb105  1  0.89875157  0.10032030  0.69937436  1
  Nb  Nb106  1  0.69627661  0.50355766  0.49858528  1
  Nb  Nb107  1  0.29516201  0.70205519  0.50840039  1
  Nb  Nb108  1  0.09790160  0.50383533  0.10163586  1
  Nb  Nb109  1  0.70603046  0.70523968  0.30159947  1
  Nb  Nb110  1  0.31210996  0.88799145  0.29485015  1
  Nb  Nb111  1  0.50268347  0.91116407  0.70119524  1
  Nb  Nb112  1  0.49929279  0.49649930  0.10479806  1
  Nb  Nb113  1  0.89652533  0.29827257  0.69765770  1
  Nb  Nb114  1  0.29800004  0.89707569  0.10275182  1
  Nb  Nb115  1  0.69714194  0.09869670  0.49853178  1
  Nb  Nb116  1  0.90150666  0.69832952  0.89928877  1
  Nb  Nb117  1  0.09939846  0.70029300  0.10334518  1
  Nb  Nb118  1  0.49342129  0.89890198  0.30740710  1
  Nb  Nb119  1  0.09196876  0.32101474  0.09651898  1
  Nb  Nb120  1  0.50168864  0.49544386  0.29143710  1
  Nb  Nb121  1  0.70316256  0.29060667  0.09793174  1
  Nb  Nb122  1  0.69913582  0.50102456  0.89581399  1
  Nb  Nb123  1  0.50184203  0.90656740  0.49144277  1
  Nb  Nb124  1  0.30105778  0.30152136  0.90174331  1
  Nb  Nb125  1  0.40201840  -0.00313316  0.00561226  1
  Nb  Nb126  1  0.20000429  0.79749948  -0.00118028  1
  Nb  Nb127  1  0.79016999  0.40712976  0.39777552  1
  Nb  Nb128  1  0.79443427  0.80304683  0.20778085  1
  Nb  Nb129  1  0.79795685  0.79966243  0.59518304  1
  Nb  Nb130  1  0.00190621  0.60094889  -0.00018038  1
  Nb  Nb131  1  0.19302575  0.60676517  0.00439529  1
  Nb  Nb132  1  -0.00711533  0.60173209  0.59696819  1
  Nb  Nb133  1  0.20262995  0.39803877  0.60001257  1
  Nb  Nb134  1  0.00026542  0.19962350  0.60268157  1
  Nb  Nb135  1  0.39869003  -0.00914525  0.19878985  1
  Nb  Nb136  1  0.80907790  0.19790821  0.79768815  1
  Nb  Nb137  1  0.20636676  0.79873207  0.79865081  1
  Nb  Nb138  1  0.60436290  0.80161986  0.21046437  1
  Nb  Nb139  1  0.40260761  0.40206275  0.00240881  1
  Nb  Nb140  1  0.59866102  0.00274487  0.00377016  1
  Nb  Nb141  1  0.60239537  0.59618275  0.80399371  1
  Nb  Nb142  1  0.60067909  0.40128491  0.59118897  1
  Nb  Nb143  1  0.60623707  0.19572057  0.19583094  1
  Nb  Nb144  1  0.19698179  0.20452382  0.60070228  1
  Nb  Nb145  1  0.39073202  0.80507747  0.00125599  1
  Nb  Nb146  1  0.79738463  0.60149050  0.40237862  1
  Nb  Nb147  1  0.80294047  0.60387234  0.59255544  1
  Nb  Nb148  1  -0.00372859  0.19845913  0.79637351  1
  Nb  Nb149  1  0.00046695  0.20049524  0.40471628  1
  Pd  Pd150  1  0.00406024  -0.00252502  0.00441526  1
  Pd  Pd151  1  0.80466418  0.60644561  0.20270579  1
  Pd  Pd152  1  0.80541963  0.60208610  0.01022326  1
  Pd  Pd153  1  0.40120976  0.19568805  0.39278827  1
  Pd  Pd154  1  0.39424476  0.40128034  0.39358327  1
  Pd  Pd155  1  0.60928613  0.79417489  0.80338221  1
  Pd  Pd156  1  0.20395904  -0.00911468  0.39085445  1
  Pd  Pd157  1  -0.00286375  0.60207396  0.40215449  1
  Pd  Pd158  1  0.19022022  0.59248921  0.59983594  1
  Pd  Pd159  1  0.79556443  0.39902369  -0.00286077  1
  Pd  Pd160  1  0.19370983  0.20420735  0.01068053  1
  Pd  Pd161  1  0.59423484  0.61059621  0.20392410  1
  Pd  Pd162  1  0.18616953  0.20645665  0.19100453  1
  Pd  Pd163  1  0.59089301  -0.00152609  0.19835398  1
  Pd  Pd164  1  0.40039674  0.60122297  0.20866040  1
  Pd  Pd165  1  0.19287813  0.60773747  0.80259830  1
  Pd  Pd166  1  0.00854702  0.20075986  0.20020445  1
  Pd  Pd167  1  0.79690740  0.39984936  0.20379602  1
  Pd  Pd168  1  0.41150462  0.60367326  0.79208260  1
  Pd  Pd169  1  0.20253492  -0.00670499  -0.00049498  1
  Pd  Pd170  1  0.40956287  0.19531006  0.21046100  1
  Pd  Pd171  1  -0.00886747  0.39619277  0.80771667  1
  Pd  Pd172  1  0.39514170  0.80559391  0.80286055  1
  Pd  Pd173  1  0.40981548  0.39657873  0.80655919  1
  Pd  Pd174  1  0.59643485  0.40120707  0.79086678  1
  Pd  Pd175  1  0.40025487  -0.00264280  0.59207598  1
  Pd  Pd176  1  0.60523760  0.60086612  -0.00188027  1
  Pd  Pd177  1  0.00309540  0.79440567  -0.00020752  1
  Pd  Pd178  1  0.20278464  -0.00979589  0.20647092  1
  Pd  Pd179  1  0.19469818  0.19680502  0.40596218  1
  Pd  Pd180  1  0.80760032  -0.00238935  0.40375725  1
  Pd  Pd181  1  0.59491266  0.81128270  0.59482287  1
  Pd  Pd182  1  0.21161350  0.40723196  0.01055571  1
  Pd  Pd183  1  0.59886360  0.60648284  0.39178604  1
  Pd  Pd184  1  0.01048590  0.19567543  0.00141045  1
  Pd  Pd185  1  0.58993175  0.79667040  0.40034031  1
  Pd  Pd186  1  0.79268632  0.79586903  0.79103550  1
  Pd  Pd187  1  0.00590031  0.79837960  0.39619437  1
  Pd  Pd188  1  -0.00966122  0.79424281  0.60767939  1
  Pd  Pd189  1  0.59900687  0.38902190  0.19708305  1
  Pd  Pd190  1  0.40139744  0.39790363  0.59787662  1
  Pd  Pd191  1  0.40795343  0.80874468  0.59553508  1
  Pd  Pd192  1  0.00256170  0.00054897  0.79940882  1
  Pd  Pd193  1  0.21173369  0.40380507  0.40470994  1
  Pd  Pd194  1  0.39647161  0.39633659  0.19885810  1
  Pd  Pd195  1  0.81035425  0.20403618  0.39887317  1
  Pd  Pd196  1  0.80571415  0.80060930  0.01174286  1
  Pd  Pd197  1  0.39488467  0.60217785  0.39265723  1
  Pd  Pd198  1  0.00542146  0.40335653  0.59605700  1
  Pd  Pd199  1  0.39013546  0.59975002  0.00950163  1
  Rh  Rh200  1  0.60687122  0.19491469  0.00454611  1
  Rh  Rh201  1  0.00314603  0.80846389  0.79527400  1
  Rh  Rh202  1  0.79629815  0.20108538  -0.00486612  1
  Rh  Rh203  1  -0.00099972  0.40458455  0.19965979  1
  Rh  Rh204  1  -0.00093302  0.00890288  0.40210781  1
  Rh  Rh205  1  0.00322255  -0.00468474  0.19511684  1
  Rh  Rh206  1  0.59800971  -0.00325403  0.59077403  1
  Rh  Rh207  1  0.59840739  0.39862182  0.00156666  1
  Rh  Rh208  1  0.19826177  0.40032039  0.19644658  1
  Rh  Rh209  1  0.78969259  0.60735917  0.79224375  1
  Rh  Rh210  1  -0.01252155  0.39176852  0.39150372  1
  Rh  Rh211  1  0.19299430  0.80271158  0.20620927  1
  Rh  Rh212  1  0.60381396  0.58900046  0.60568060  1
  Rh  Rh213  1  0.79626319  0.19974002  0.20035939  1
  Rh  Rh214  1  0.39481253  -0.00042271  0.39533285  1
  Rh  Rh215  1  0.19623475  -0.00858557  0.79607218  1
  Rh  Rh216  1  0.39339172  0.20483085  -0.00673957  1
  Rh  Rh217  1  0.40209399  0.79307334  0.41136276  1
  Rh  Rh218  1  -0.00868241  0.41102542  -0.00032772  1
  Rh  Rh219  1  0.20839273  0.00081961  0.59892679  1
  Rh  Rh220  1  0.80289587  0.79720927  0.40202821  1
  Rh  Rh221  1  0.61325249  0.19730726  0.79298144  1
  Rh  Rh222  1  0.41167488  0.80048293  0.19632135  1
  Rh  Rh223  1  0.19768021  0.59764648  0.20130414  1
  Rh  Rh224  1  0.60234801  0.40172865  0.40146028  1
  Rh  Rh225  1  -0.00063051  0.59693979  0.79929442  1
  Rh  Rh226  1  0.60159580  0.19037092  0.39260654  1
  Rh  Rh227  1  0.60744676  0.20338739  0.60438389  1
  Rh  Rh228  1  0.79862968  -0.00501428  0.59462766  1
  Rh  Rh229  1  0.79693067  -0.00577074  -0.00239053  1
  Rh  Rh230  1  0.19670345  0.80117297  0.39493855  1
  Rh  Rh231  1  -0.00069649  0.59892763  0.19292917  1
  Rh  Rh232  1  -0.00316575  0.80253853  0.20278165  1
  Rh  Rh233  1  0.79124836  0.40602501  0.58988001  1
  Rh  Rh234  1  0.40626883  0.00550023  0.80728700  1
  Rh  Rh235  1  0.59854487  0.80290478  0.00465254  1
  Rh  Rh236  1  0.19911617  0.20423147  0.79577825  1
  Rh  Rh237  1  0.20172557  0.80529649  0.60615797  1
  Rh  Rh238  1  0.79863804  0.19384948  0.60549764  1
  Rh  Rh239  1  0.79450042  0.00584526  0.80117242  1
  Rh  Rh240  1  0.20677000  0.40183336  0.79400561  1
  Rh  Rh241  1  0.60258681  0.00444710  0.80745917  1
  Rh  Rh242  1  -0.00486244  0.00495859  0.59405399  1
  Rh  Rh243  1  0.60094508  0.00368815  0.40733705  1
  Rh  Rh244  1  0.80830612  -0.00833048  0.20263745  1
  Rh  Rh245  1  0.39847421  0.20029937  0.80425157  1
  Rh  Rh246  1  0.80147800  0.38739565  0.80992215  1
  Rh  Rh247  1  0.20160214  0.60267212  0.40175471  1
  Rh  Rh248  1  0.39360201  0.19525714  0.60036146  1
  Rh  Rh249  1  0.39891051  0.60405128  0.60703794  1
