# generated using pymatgen
data_ZrScNbPdRh
_symmetry_space_group_name_H-M   'P 1'
_cell_length_a   16.55374497
_cell_length_b   16.55435692
_cell_length_c   16.55446979
_cell_angle_alpha   90.00270347
_cell_angle_beta   90.01937401
_cell_angle_gamma   90.02901613
_symmetry_Int_Tables_number   1
_chemical_formula_structural   ZrScNbPdRh
_chemical_formula_sum   'Zr50 Sc50 Nb50 Pd50 Rh50'
_cell_volume   4536.52981017
_cell_formula_units_Z   50
loop_
 _symmetry_equiv_pos_site_id
 _symmetry_equiv_pos_as_xyz
  1  'x, y, z'
loop_
 _atom_site_type_symbol
 _atom_site_label
 _atom_site_symmetry_multiplicity
 _atom_site_fract_x
 _atom_site_fract_y
 _atom_site_fract_z
 _atom_site_occupancy
  Zr  Zr0  1  0.30620382  0.69899253  0.10274789  1
  Zr  Zr1  1  0.09885744  0.09485998  0.10594280  1
  Zr  Zr2  1  0.89859994  0.50181015  0.90473762  1
  Zr  Zr3  1  0.89775179  0.70118211  0.70420646  1
  Zr  Zr4  1  0.50335790  0.90739295  0.70369403  1
  Zr  Zr5  1  0.89465513  0.09843678  0.50450254  1
  Zr  Zr6  1  0.09966900  0.89029116  0.70209926  1
  Zr  Zr7  1  0.89649238  0.29303125  0.69666010  1
  Zr  Zr8  1  0.09817375  0.10406298  0.49569505  1
  Zr  Zr9  1  0.29672492  0.09803154  0.10441133  1
  Zr  Zr10  1  0.90102911  0.09054573  0.09670809  1
  Zr  Zr11  1  0.08851871  0.10545724  0.69937851  1
  Zr  Zr12  1  0.09636936  0.30328463  0.49200203  1
  Zr  Zr13  1  0.10047811  0.50576887  0.68927248  1
  Zr  Zr14  1  0.69550417  0.09706335  0.70412792  1
  Zr  Zr15  1  0.50135020  0.09575887  0.69451376  1
  Zr  Zr16  1  0.90125501  0.30461349  0.29994026  1
  Zr  Zr17  1  0.09363262  0.70067737  0.70179043  1
  Zr  Zr18  1  0.70215206  0.69900455  0.49434495  1
  Zr  Zr19  1  0.09857670  0.69831890  0.30451972  1
  Zr  Zr20  1  0.50757453  0.70321706  0.70370191  1
  Zr  Zr21  1  0.50135900  0.09373771  0.08988489  1
  Zr  Zr22  1  0.09477360  0.09724308  0.90389367  1
  Zr  Zr23  1  0.89399541  0.50795267  0.50327183  1
  Zr  Zr24  1  0.30565501  0.90316093  0.69854361  1
  Zr  Zr25  1  0.69518809  0.50648368  0.30698660  1
  Zr  Zr26  1  0.70495096  0.89112940  0.69590112  1
  Zr  Zr27  1  0.10096963  0.30493826  0.69834824  1
  Zr  Zr28  1  0.89218113  0.09961794  0.89923531  1
  Zr  Zr29  1  0.50736913  0.89633691  0.29995145  1
  Zr  Zr30  1  0.89185684  0.50428393  0.70130734  1
  Zr  Zr31  1  0.30198692  0.51257188  0.50196205  1
  Zr  Zr32  1  0.50884241  0.10043127  0.89624900  1
  Zr  Zr33  1  0.50254773  0.09433450  0.30815793  1
  Zr  Zr34  1  0.30517888  0.30955279  0.70950874  1
  Zr  Zr35  1  0.10952686  0.30358967  0.90717468  1
  Zr  Zr36  1  0.10073793  0.30246355  0.10737062  1
  Zr  Zr37  1  0.29476328  0.29640756  0.09422620  1
  Zr  Zr38  1  0.30369599  0.30447203  0.29383672  1
  Zr  Zr39  1  0.70439949  0.09346382  0.09791912  1
  Zr  Zr40  1  0.89939514  0.89359589  0.90615007  1
  Zr  Zr41  1  0.49906973  0.10021161  0.49927388  1
  Zr  Zr42  1  0.89456881  0.29279950  0.49940596  1
  Zr  Zr43  1  0.50291434  0.49635765  0.70251576  1
  Zr  Zr44  1  0.50142104  0.50268455  0.10223797  1
  Zr  Zr45  1  0.30992785  0.11032371  0.91220532  1
  Zr  Zr46  1  0.50404120  0.50495817  0.90008382  1
  Zr  Zr47  1  0.29568587  0.69492370  0.90663571  1
  Zr  Zr48  1  0.29764032  0.89443155  0.89573735  1
  Zr  Zr49  1  0.09670444  0.89052369  0.90285858  1
  Sc  Sc50  1  0.70448990  0.09886821  0.90547665  1
  Sc  Sc51  1  0.29374767  0.49867002  0.10122781  1
  Sc  Sc52  1  0.51461410  0.29552220  0.49680182  1
  Sc  Sc53  1  0.09650388  0.88828673  0.49974746  1
  Sc  Sc54  1  0.70142089  0.90057183  0.10580198  1
  Sc  Sc55  1  0.50933376  0.69981072  0.09697154  1
  Sc  Sc56  1  0.29749912  0.29503269  0.48643732  1
  Sc  Sc57  1  0.70023302  0.29869125  0.30028904  1
  Sc  Sc58  1  0.70605253  0.90117656  0.89752045  1
  Sc  Sc59  1  0.50486555  0.30229858  0.30266714  1
  Sc  Sc60  1  0.29277700  0.50258423  0.29742540  1
  Sc  Sc61  1  0.30251800  0.09774775  0.49023078  1
  Sc  Sc62  1  0.09606601  0.70016969  0.90002499  1
  Sc  Sc63  1  0.29366043  0.09699285  0.30780755  1
  Sc  Sc64  1  0.09569196  0.70088728  0.10048213  1
  Sc  Sc65  1  0.70048190  0.30299641  0.69151449  1
  Sc  Sc66  1  0.09793743  0.89428330  0.29414180  1
  Sc  Sc67  1  0.09709489  0.69453168  0.49690676  1
  Sc  Sc68  1  0.69907488  0.70508963  0.10441979  1
  Sc  Sc69  1  0.50114037  0.70920924  0.30142024  1
  Sc  Sc70  1  0.29858504  0.89769093  0.49519050  1
  Sc  Sc71  1  0.89766770  0.70655531  0.49140227  1
  Sc  Sc72  1  0.09522224  0.49959129  0.10321368  1
  Sc  Sc73  1  0.49931884  0.30529750  0.10941544  1
  Sc  Sc74  1  0.70243357  0.50308674  0.10639404  1
  Sc  Sc75  1  0.89315181  0.10188044  0.69348638  1
  Sc  Sc76  1  0.50726437  0.30038143  0.70566133  1
  Sc  Sc77  1  0.10041426  0.50707913  0.91097384  1
  Sc  Sc78  1  0.29997656  0.70518134  0.30193664  1
  Sc  Sc79  1  0.10109739  0.09484902  0.29635071  1
  Sc  Sc80  1  0.89156930  0.30127435  0.90447533  1
  Sc  Sc81  1  0.30137513  0.70215038  0.49275882  1
  Sc  Sc82  1  0.89773965  0.70237224  0.29541266  1
  Sc  Sc83  1  0.29598712  0.69917608  0.69943895  1
  Sc  Sc84  1  0.09896293  0.30659312  0.30122461  1
  Sc  Sc85  1  0.29682998  0.89139013  0.29905834  1
  Sc  Sc86  1  0.89808058  0.50621420  0.29066058  1
  Sc  Sc87  1  0.70449984  0.70570976  0.30096002  1
  Sc  Sc88  1  0.50507073  0.90275883  0.49548542  1
  Sc  Sc89  1  0.89879747  0.31320591  0.10430744  1
  Sc  Sc90  1  0.70910263  0.29942243  0.09437118  1
  Sc  Sc91  1  0.69986137  0.10133857  0.49844759  1
  Sc  Sc92  1  0.70361579  0.50093762  0.88886407  1
  Sc  Sc93  1  0.29527709  0.50147231  0.90476992  1
  Sc  Sc94  1  0.49441554  0.69977669  0.49483694  1
  Sc  Sc95  1  0.70403593  0.29234358  0.90117052  1
  Sc  Sc96  1  0.29927970  0.50585347  0.69880905  1
  Sc  Sc97  1  0.88643909  0.09982595  0.29937206  1
  Sc  Sc98  1  0.70727018  0.89735712  0.49789493  1
  Sc  Sc99  1  0.50792634  0.89276792  0.10177768  1
  Nb  Nb100  1  0.70247248  0.70062737  0.89180240  1
  Nb  Nb101  1  0.69898598  0.90899128  0.30299478  1
  Nb  Nb102  1  0.89961802  0.89767950  0.69272162  1
  Nb  Nb103  1  0.69749778  0.08617819  0.29263567  1
  Nb  Nb104  1  0.69980995  0.30777586  0.50357825  1
  Nb  Nb105  1  0.50529331  0.69769760  0.90302914  1
  Nb  Nb106  1  0.69638810  0.49659143  0.50357314  1
  Nb  Nb107  1  0.70146128  0.50236755  0.69234602  1
  Nb  Nb108  1  0.89766463  0.70009491  0.90360822  1
  Nb  Nb109  1  0.30101983  0.09852765  0.69559971  1
  Nb  Nb110  1  0.09960681  0.50055799  0.30690079  1
  Nb  Nb111  1  0.89680942  0.50654085  0.09608265  1
  Nb  Nb112  1  0.49572760  0.89814767  0.89568170  1
  Nb  Nb113  1  0.09344716  0.90481709  0.09925866  1
  Nb  Nb114  1  0.09855932  0.50153212  0.49510789  1
  Nb  Nb115  1  0.50237149  0.50317039  0.50034706  1
  Nb  Nb116  1  0.49106960  0.30269270  0.89817739  1
  Nb  Nb117  1  0.89361919  0.90184601  0.50164809  1
  Nb  Nb118  1  0.70083762  0.69742467  0.70551939  1
  Nb  Nb119  1  0.91511944  0.89016563  0.10203346  1
  Nb  Nb120  1  0.89659468  0.89329890  0.30895114  1
  Nb  Nb121  1  0.89852362  0.70046591  0.09997241  1
  Nb  Nb122  1  0.30579751  0.30072726  0.90296677  1
  Nb  Nb123  1  0.50151911  0.49292924  0.29733078  1
  Nb  Nb124  1  0.30073825  0.89540015  0.10200769  1
  Nb  Nb125  1  0.40272477  0.39872320  -0.00336552  1
  Nb  Nb126  1  0.19811387  0.00475403  0.60430187  1
  Nb  Nb127  1  0.59515958  0.40015717  -0.00425730  1
  Nb  Nb128  1  -0.01022160  -0.00677253  0.40320067  1
  Nb  Nb129  1  0.40568437  0.79845116  -0.00698412  1
  Nb  Nb130  1  0.20678292  0.19846290  0.79985685  1
  Nb  Nb131  1  0.40331338  0.39884588  0.59180733  1
  Nb  Nb132  1  0.20459101  0.19853577  0.60483618  1
  Nb  Nb133  1  -0.00088618  0.40485396  0.59824175  1
  Nb  Nb134  1  0.40719786  0.60439236  0.80680107  1
  Nb  Nb135  1  -0.00286320  -0.00681060  0.79670258  1
  Nb  Nb136  1  0.39701526  0.20266638  0.60064038  1
  Nb  Nb137  1  0.19971016  -0.00683977  0.00235943  1
  Nb  Nb138  1  0.39964121  -0.00272952  0.19815096  1
  Nb  Nb139  1  0.19851186  0.00682703  0.80025944  1
  Nb  Nb140  1  0.00009891  0.40250071  0.79650490  1
  Nb  Nb141  1  0.40597510  0.59646258  0.20146987  1
  Nb  Nb142  1  0.40462018  0.80306676  0.60443911  1
  Nb  Nb143  1  0.80396509  0.60824592  0.00024300  1
  Nb  Nb144  1  0.40740295  0.40939018  0.40283679  1
  Nb  Nb145  1  0.00058115  0.19977473  0.00583033  1
  Nb  Nb146  1  0.60145389  0.18888579  0.19965277  1
  Nb  Nb147  1  0.40486052  0.19159867  0.20201827  1
  Nb  Nb148  1  0.79456811  0.40288132  0.40654297  1
  Nb  Nb149  1  0.60469255  0.59670298  0.60006487  1
  Pd  Pd150  1  0.80594246  -0.00317856  0.79332530  1
  Pd  Pd151  1  0.39772636  -0.01335602  0.00404866  1
  Pd  Pd152  1  0.78987671  0.20202684  0.39788098  1
  Pd  Pd153  1  0.79996995  0.80557947  0.20232026  1
  Pd  Pd154  1  0.00360276  -0.00598352  0.59772105  1
  Pd  Pd155  1  -0.00622415  0.20022324  0.19987945  1
  Pd  Pd156  1  -0.00202112  0.39523986  -0.00206329  1
  Pd  Pd157  1  0.20083687  0.59861358  0.80152452  1
  Pd  Pd158  1  0.60518227  0.80632731  0.80742272  1
  Pd  Pd159  1  0.61035740  0.39247422  0.19411434  1
  Pd  Pd160  1  0.20529412  0.39631462  0.58807082  1
  Pd  Pd161  1  0.39689729  0.00897148  0.80551585  1
  Pd  Pd162  1  0.60828342  -0.00314175  0.59250895  1
  Pd  Pd163  1  0.40124618  0.19441408  0.79289179  1
  Pd  Pd164  1  -0.00795171  0.60040500  0.39628508  1
  Pd  Pd165  1  -0.01177756  0.41081183  0.40123637  1
  Pd  Pd166  1  0.59622703  0.21046854  0.00549987  1
  Pd  Pd167  1  0.61758409  0.59633602  -0.00155597  1
  Pd  Pd168  1  0.59766881  0.60885187  0.20767416  1
  Pd  Pd169  1  0.61014005  0.39305292  0.80461098  1
  Pd  Pd170  1  0.59597019  0.79438821  0.59088381  1
  Pd  Pd171  1  0.79694162  0.20019681  0.19569423  1
  Pd  Pd172  1  0.39681111  -0.01011005  0.39430562  1
  Pd  Pd173  1  0.18832632  -0.01004687  0.40385736  1
  Pd  Pd174  1  0.81039232  -0.01287398  0.19605682  1
  Pd  Pd175  1  0.00107050  0.59967163  0.19922245  1
  Pd  Pd176  1  0.20204372  0.60113827  0.20027560  1
  Pd  Pd177  1  0.20010306  0.79901915  0.00851306  1
  Pd  Pd178  1  0.59489895  0.60473283  0.40130221  1
  Pd  Pd179  1  0.79453590  0.40587778  0.20705480  1
  Pd  Pd180  1  -0.00654299  0.79327297  0.59316528  1
  Pd  Pd181  1  -0.00868617  -0.00471106  0.21454244  1
  Pd  Pd182  1  0.60480214  0.20390915  0.80024640  1
  Pd  Pd183  1  0.20778530  0.79847877  0.59619147  1
  Pd  Pd184  1  0.19702585  0.40669756  0.80679421  1
  Pd  Pd185  1  0.60567916  -0.01104328  -0.00666802  1
  Pd  Pd186  1  0.20810778  0.40679568  0.40076539  1
  Pd  Pd187  1  0.40211604  0.59759499  0.38628899  1
  Pd  Pd188  1  0.39834472  0.79002514  0.80002063  1
  Pd  Pd189  1  0.79514564  0.61072127  0.59842681  1
  Pd  Pd190  1  -0.00041348  0.20671552  0.81234819  1
  Pd  Pd191  1  0.79962973  0.39491786  0.79895211  1
  Pd  Pd192  1  0.60235297  0.80529505  -0.00656187  1
  Pd  Pd193  1  0.20262561  0.19937866  0.20977001  1
  Pd  Pd194  1  0.00123450  0.59504726  0.80496549  1
  Pd  Pd195  1  0.19371735  0.79912498  0.19722572  1
  Pd  Pd196  1  -0.00181723  0.18920126  0.38821223  1
  Pd  Pd197  1  0.19842291  0.61084548  0.59423449  1
  Pd  Pd198  1  0.61023828  0.19706512  0.39414229  1
  Pd  Pd199  1  0.79486212  0.79859759  0.00457178  1
  Rh  Rh200  1  0.60417825  -0.00520456  0.80568584  1
  Rh  Rh201  1  0.78635214  0.19487028  0.60200102  1
  Rh  Rh202  1  -0.00590436  0.60612916  0.00521100  1
  Rh  Rh203  1  0.39408661  -0.00039974  0.58704549  1
  Rh  Rh204  1  0.80337374  -0.01218870  0.00768222  1
  Rh  Rh205  1  -0.00964902  0.80139318  0.80113843  1
  Rh  Rh206  1  0.80288508  0.79901828  0.79771069  1
  Rh  Rh207  1  0.19511739  0.79652980  0.39718330  1
  Rh  Rh208  1  0.00496607  0.21032758  0.59342805  1
  Rh  Rh209  1  0.79429674  -0.00012593  0.60177129  1
  Rh  Rh210  1  0.80110462  0.59544550  0.39575992  1
  Rh  Rh211  1  0.80154910  -0.00095125  0.39999489  1
  Rh  Rh212  1  0.00090595  0.79053242  0.00371851  1
  Rh  Rh213  1  0.60213169  0.40150190  0.40281592  1
  Rh  Rh214  1  0.19226226  0.40474304  0.20220874  1
  Rh  Rh215  1  0.40070410  0.80371913  0.40807945  1
  Rh  Rh216  1  0.19325399  0.60088532  0.00778948  1
  Rh  Rh217  1  0.39588770  0.40256067  0.20088448  1
  Rh  Rh218  1  0.79339838  0.19973256  0.79585537  1
  Rh  Rh219  1  0.39588774  0.41418360  0.80458082  1
  Rh  Rh220  1  0.80237871  0.79446183  0.59987561  1
  Rh  Rh221  1  0.79807215  0.60392484  0.80400443  1
  Rh  Rh222  1  0.79658788  0.80315723  0.39740389  1
  Rh  Rh223  1  -0.00119848  0.60103278  0.59396353  1
  Rh  Rh224  1  0.59278609  0.00072567  0.19772062  1
  Rh  Rh225  1  0.79955943  0.60342648  0.19412963  1
  Rh  Rh226  1  0.20635635  -0.01047487  0.19620414  1
  Rh  Rh227  1  0.41125276  0.60267445  0.61318749  1
  Rh  Rh228  1  0.81071467  0.19896859  0.00680314  1
  Rh  Rh229  1  0.59810089  0.20014438  0.60114599  1
  Rh  Rh230  1  0.41210955  0.21162069  0.01050765  1
  Rh  Rh231  1  0.19470150  0.20082990  0.39655916  1
  Rh  Rh232  1  0.39818267  0.60156878  0.00291283  1
  Rh  Rh233  1  0.78939711  0.41231229  -0.00003162  1
  Rh  Rh234  1  0.60208141  0.60112737  0.79415241  1
  Rh  Rh235  1  0.20000697  0.79538541  0.79723845  1
  Rh  Rh236  1  0.80555526  0.39856521  0.59551059  1
  Rh  Rh237  1  -0.00131725  -0.00012863  -0.00535785  1
  Rh  Rh238  1  0.60740857  -0.00132633  0.40608880  1
  Rh  Rh239  1  -0.00119198  0.80393703  0.39930833  1
  Rh  Rh240  1  0.19076423  0.19322640  -0.00286692  1
  Rh  Rh241  1  0.40233710  0.21061967  0.39750971  1
  Rh  Rh242  1  -0.00023462  0.79691960  0.20203817  1
  Rh  Rh243  1  0.19845726  0.60024159  0.39890372  1
  Rh  Rh244  1  0.59389872  0.40393797  0.59795349  1
  Rh  Rh245  1  0.60626640  0.80049005  0.20606570  1
  Rh  Rh246  1  0.40515773  0.79781981  0.19047200  1
  Rh  Rh247  1  0.20601666  0.40438135  0.00337358  1
  Rh  Rh248  1  0.00119036  0.40965432  0.20340300  1
  Rh  Rh249  1  0.60523758  0.80268636  0.40026750  1
