# generated using pymatgen
data_ZrScNbPdRh
_symmetry_space_group_name_H-M   'P 1'
_cell_length_a   16.55805951
_cell_length_b   16.55066401
_cell_length_c   16.55528407
_cell_angle_alpha   90.02574821
_cell_angle_beta   90.03009583
_cell_angle_gamma   89.98503989
_symmetry_Int_Tables_number   1
_chemical_formula_structural   ZrScNbPdRh
_chemical_formula_sum   'Zr50 Sc50 Nb50 Pd50 Rh50'
_cell_volume   4536.92270198
_cell_formula_units_Z   50
loop_
 _symmetry_equiv_pos_site_id
 _symmetry_equiv_pos_as_xyz
  1  'x, y, z'
loop_
 _atom_site_type_symbol
 _atom_site_label
 _atom_site_symmetry_multiplicity
 _atom_site_fract_x
 _atom_site_fract_y
 _atom_site_fract_z
 _atom_site_occupancy
  Zr  Zr0  1  0.48827132  0.10261015  0.70441341  1
  Zr  Zr1  1  0.09557974  0.69370167  0.89759756  1
  Zr  Zr2  1  0.10576353  0.30100369  0.09454221  1
  Zr  Zr3  1  0.90392747  0.30278645  0.88827008  1
  Zr  Zr4  1  0.49552880  0.09644933  0.49563775  1
  Zr  Zr5  1  0.09984028  0.69584273  0.29686942  1
  Zr  Zr6  1  0.30264817  0.50042724  0.10036712  1
  Zr  Zr7  1  0.70373394  0.10199243  0.29794551  1
  Zr  Zr8  1  0.49306928  0.90299664  0.89690985  1
  Zr  Zr9  1  0.29773002  0.29781952  0.30343995  1
  Zr  Zr10  1  0.70045686  0.89537541  0.49741218  1
  Zr  Zr11  1  0.29892472  0.69295989  0.69860127  1
  Zr  Zr12  1  0.91287004  0.71514983  0.70677031  1
  Zr  Zr13  1  0.49599695  0.09395706  0.90890796  1
  Zr  Zr14  1  0.71005674  0.89502417  0.69235475  1
  Zr  Zr15  1  0.29792975  0.29944076  0.09352741  1
  Zr  Zr16  1  0.90206370  0.50185803  0.49856979  1
  Zr  Zr17  1  0.89997074  0.10689620  0.30692832  1
  Zr  Zr18  1  0.69608829  0.69797955  0.10217722  1
  Zr  Zr19  1  0.49513812  0.49910023  0.29707167  1
  Zr  Zr20  1  0.90466583  0.69532278  0.09077483  1
  Zr  Zr21  1  0.70779579  0.10000736  0.50815708  1
  Zr  Zr22  1  0.10790825  0.30536309  0.29707518  1
  Zr  Zr23  1  0.70006067  0.70049526  0.50558661  1
  Zr  Zr24  1  0.49333034  0.70156815  0.70740967  1
  Zr  Zr25  1  0.49488968  0.69554757  0.10243655  1
  Zr  Zr26  1  0.49962406  0.29695086  0.10069510  1
  Zr  Zr27  1  0.69678773  0.10151410  0.90666778  1
  Zr  Zr28  1  0.29940010  0.49948829  0.69946294  1
  Zr  Zr29  1  0.30469632  0.69633222  0.89570822  1
  Zr  Zr30  1  0.09385729  0.89312885  0.69767773  1
  Zr  Zr31  1  0.49883703  0.50078790  0.49555300  1
  Zr  Zr32  1  0.48582112  0.91195624  0.09954439  1
  Zr  Zr33  1  0.49586855  0.69796330  0.90248461  1
  Zr  Zr34  1  0.89967539  0.89472777  0.89750849  1
  Zr  Zr35  1  0.69728376  0.30045056  0.10218637  1
  Zr  Zr36  1  0.29717942  0.49365894  0.30664353  1
  Zr  Zr37  1  0.70395468  0.89861398  0.30321355  1
  Zr  Zr38  1  0.30337699  0.49344900  0.50382865  1
  Zr  Zr39  1  0.50439867  0.29687865  0.28994295  1
  Zr  Zr40  1  0.09649253  0.69998050  0.50324634  1
  Zr  Zr41  1  0.09570855  0.49653869  0.10758270  1
  Zr  Zr42  1  0.10600759  0.50640963  0.70294010  1
  Zr  Zr43  1  0.50207486  0.50173526  0.90044190  1
  Zr  Zr44  1  0.70749767  0.29557130  0.28956111  1
  Zr  Zr45  1  0.30372373  0.29194160  0.70056753  1
  Zr  Zr46  1  0.90371550  0.09765430  0.89534795  1
  Zr  Zr47  1  0.90154902  0.90374048  0.30477352  1
  Zr  Zr48  1  0.69961021  0.50679346  0.50260269  1
  Zr  Zr49  1  0.29871463  0.70558310  0.09558424  1
  Sc  Sc50  1  0.50172814  0.49332894  0.69753080  1
  Sc  Sc51  1  0.69627582  0.10037426  0.10199120  1
  Sc  Sc52  1  0.70336873  0.90336245  0.91099505  1
  Sc  Sc53  1  0.69340902  0.50289111  0.70247217  1
  Sc  Sc54  1  0.90595441  0.28977926  0.50382291  1
  Sc  Sc55  1  0.90110632  0.10844961  0.69639771  1
  Sc  Sc56  1  0.49756016  0.89624568  0.49644470  1
  Sc  Sc57  1  0.10135886  0.10761415  0.50049991  1
  Sc  Sc58  1  0.09487676  0.10906916  0.90095061  1
  Sc  Sc59  1  0.69932768  0.50129990  0.29071230  1
  Sc  Sc60  1  0.70039666  0.90751061  0.10573497  1
  Sc  Sc61  1  0.29938171  0.71118617  0.29960170  1
  Sc  Sc62  1  0.49740633  0.69920442  0.29685667  1
  Sc  Sc63  1  0.70417702  0.29277881  0.50804690  1
  Sc  Sc64  1  0.89664312  0.10021770  0.09668380  1
  Sc  Sc65  1  0.90327334  0.90127548  0.70366651  1
  Sc  Sc66  1  0.30161130  0.50244635  0.90517844  1
  Sc  Sc67  1  0.70032495  0.30156623  0.70302027  1
  Sc  Sc68  1  0.10179773  0.49544332  0.51131378  1
  Sc  Sc69  1  0.89683905  0.69552115  0.49718823  1
  Sc  Sc70  1  0.48973626  0.89633448  0.69625423  1
  Sc  Sc71  1  0.90577274  0.50430708  0.28635285  1
  Sc  Sc72  1  0.30383148  0.10667725  0.29898011  1
  Sc  Sc73  1  0.49613652  0.69807698  0.49670387  1
  Sc  Sc74  1  0.30122824  0.90281703  0.90822926  1
  Sc  Sc75  1  0.11582402  0.89641563  0.29881153  1
  Sc  Sc76  1  0.29864458  0.10066561  0.69178513  1
  Sc  Sc77  1  0.69995308  0.70692878  0.29997319  1
  Sc  Sc78  1  0.30556769  0.90048677  0.69622335  1
  Sc  Sc79  1  0.89922308  0.89990927  0.08927127  1
  Sc  Sc80  1  0.89750229  0.90300339  0.50121613  1
  Sc  Sc81  1  0.30423947  0.89436272  0.49446284  1
  Sc  Sc82  1  0.10370078  0.69850249  0.09494852  1
  Sc  Sc83  1  0.89529496  0.31057563  0.10601335  1
  Sc  Sc84  1  0.69672956  0.49501997  0.90017824  1
  Sc  Sc85  1  0.69962475  0.69513479  0.90819785  1
  Sc  Sc86  1  0.10736171  0.10056237  0.09432395  1
  Sc  Sc87  1  0.90335023  0.49516232  0.90330364  1
  Sc  Sc88  1  0.49450260  0.90297341  0.30047336  1
  Sc  Sc89  1  0.49570718  0.30401401  0.51346360  1
  Sc  Sc90  1  0.10430848  0.30237738  0.50295234  1
  Sc  Sc91  1  0.30087071  0.09584488  0.10034359  1
  Sc  Sc92  1  0.09388690  0.30092455  0.69381851  1
  Sc  Sc93  1  0.90268146  0.10333311  0.49829288  1
  Sc  Sc94  1  0.89561599  0.69792529  0.29653238  1
  Sc  Sc95  1  0.49934344  0.29751532  0.91123135  1
  Sc  Sc96  1  0.91221703  0.49338194  0.70635666  1
  Sc  Sc97  1  0.09175420  0.90631052  0.90762759  1
  Sc  Sc98  1  0.70205784  0.49598305  0.09517356  1
  Sc  Sc99  1  0.49251198  0.09650570  0.29605030  1
  Nb  Nb100  1  0.09775655  0.09733306  0.30475036  1
  Nb  Nb101  1  0.28746842  0.90395195  0.11194184  1
  Nb  Nb102  1  0.10654641  0.30229273  0.90616218  1
  Nb  Nb103  1  0.30127816  0.10543342  0.88707777  1
  Nb  Nb104  1  0.29941303  0.90468277  0.29058264  1
  Nb  Nb105  1  0.70660475  0.70367527  0.70211745  1
  Nb  Nb106  1  0.29835925  0.69514701  0.49720517  1
  Nb  Nb107  1  0.10361158  0.69962929  0.70161601  1
  Nb  Nb108  1  0.10240476  0.49833006  0.29883359  1
  Nb  Nb109  1  0.50164917  0.10242996  0.09690930  1
  Nb  Nb110  1  0.09998118  0.48877134  0.89828162  1
  Nb  Nb111  1  0.70175848  0.30197488  0.90045194  1
  Nb  Nb112  1  0.89846710  0.29975109  0.29967340  1
  Nb  Nb113  1  0.09919014  0.09170184  0.69894714  1
  Nb  Nb114  1  0.10842262  0.90223724  0.10538957  1
  Nb  Nb115  1  0.49733140  0.49720228  0.09845749  1
  Nb  Nb116  1  0.29818088  0.10375413  0.49176660  1
  Nb  Nb117  1  0.69926521  0.10008290  0.69943601  1
  Nb  Nb118  1  0.10200730  0.89964189  0.49644297  1
  Nb  Nb119  1  0.89862769  0.70633593  0.90186131  1
  Nb  Nb120  1  0.29262673  0.30008301  0.49730704  1
  Nb  Nb121  1  0.49935228  0.29884219  0.70717126  1
  Nb  Nb122  1  0.90064286  0.30416000  0.69554684  1
  Nb  Nb123  1  0.89940000  0.49793998  0.10135289  1
  Nb  Nb124  1  0.29443772  0.29745698  0.90170497  1
  Nb  Nb125  1  0.80287647  0.39857148  0.40010171  1
  Nb  Nb126  1  0.79463740  0.00352831  0.79794221  1
  Nb  Nb127  1  0.79874561  0.20915058  -0.00705658  1
  Nb  Nb128  1  0.80491204  0.40212912  0.59859325  1
  Nb  Nb129  1  0.19575911  0.00039921  0.79614803  1
  Nb  Nb130  1  0.00471579  0.80659003  0.19815181  1
  Nb  Nb131  1  0.60184761  0.00184264  0.60447871  1
  Nb  Nb132  1  0.19977175  0.59831196  0.40238898  1
  Nb  Nb133  1  0.20287044  0.00290777  0.40057170  1
  Nb  Nb134  1  0.20040493  0.39384788  0.80634329  1
  Nb  Nb135  1  0.39616830  0.39144992  0.80403571  1
  Nb  Nb136  1  0.00204909  0.19884021  0.20522868  1
  Nb  Nb137  1  0.80534172  0.61030829  0.80092928  1
  Nb  Nb138  1  0.19715870  0.80038408  0.79684398  1
  Nb  Nb139  1  0.00754618  -0.00020061  0.59834898  1
  Nb  Nb140  1  0.00449169  0.80276555  0.39521197  1
  Nb  Nb141  1  0.60488964  0.80246732  0.80176825  1
  Nb  Nb142  1  0.00736873  0.00010260  0.20399017  1
  Nb  Nb143  1  0.59897113  0.19762340  0.80184667  1
  Nb  Nb144  1  0.60590114  0.39506453  0.39900343  1
  Nb  Nb145  1  -0.00202667  0.40064608  0.39346994  1
  Nb  Nb146  1  0.59206102  0.80134059  0.00144807  1
  Nb  Nb147  1  0.60400620  -0.00080285  0.79346283  1
  Nb  Nb148  1  0.60085907  0.20184425  0.40026614  1
  Nb  Nb149  1  0.19863715  0.79467893  0.60001947  1
  Pd  Pd150  1  0.79730247  0.41055090  0.79351920  1
  Pd  Pd151  1  0.80057097  0.59153048  -0.00716331  1
  Pd  Pd152  1  0.00125749  0.00184659  0.00897948  1
  Pd  Pd153  1  0.80940817  0.00183175  0.19698886  1
  Pd  Pd154  1  0.20705831  0.60230609  0.20513631  1
  Pd  Pd155  1  0.40862438  0.38874118  0.40174146  1
  Pd  Pd156  1  0.19656830  0.59320720  -0.00313560  1
  Pd  Pd157  1  0.39664870  0.20187794  0.59163476  1
  Pd  Pd158  1  0.79646730  0.59590126  0.38986388  1
  Pd  Pd159  1  0.59625833  0.00013913  0.20264344  1
  Pd  Pd160  1  0.40113316  0.80023694  0.39582955  1
  Pd  Pd161  1  0.20366151  0.00783834  -0.01162258  1
  Pd  Pd162  1  -0.00942307  0.20861235  0.00977980  1
  Pd  Pd163  1  0.59403853  0.79538232  0.39634677  1
  Pd  Pd164  1  0.81111629  0.59590240  0.61710800  1
  Pd  Pd165  1  0.80089156  0.00263594  0.40555539  1
  Pd  Pd166  1  0.19695283  0.19402123  0.19950457  1
  Pd  Pd167  1  0.19067815  0.19829431  0.79724853  1
  Pd  Pd168  1  0.40042597  -0.00235472  0.59174587  1
  Pd  Pd169  1  0.80969410  0.80094390  0.19263806  1
  Pd  Pd170  1  0.60794513  0.39736319  0.59750879  1
  Pd  Pd171  1  0.81260248  0.79689864  0.59428116  1
  Pd  Pd172  1  -0.00661414  0.59823626  0.80498931  1
  Pd  Pd173  1  0.39828632  0.80555798  0.00538923  1
  Pd  Pd174  1  0.59973157  0.59463163  0.19769148  1
  Pd  Pd175  1  0.00571174  0.59670538  0.39731740  1
  Pd  Pd176  1  0.00198942  0.59221296  -0.00216602  1
  Pd  Pd177  1  0.40768265  0.20818253  0.40327560  1
  Pd  Pd178  1  0.39485675  0.39536427  0.19835995  1
  Pd  Pd179  1  0.39233724  0.19351210  0.00092820  1
  Pd  Pd180  1  0.60717252  0.60786916  0.79880244  1
  Pd  Pd181  1  0.59236523  0.60653699  0.60509936  1
  Pd  Pd182  1  0.79968806  0.59997439  0.19736314  1
  Pd  Pd183  1  0.60228886  0.00521401  0.40347446  1
  Pd  Pd184  1  0.59280291  0.80930479  0.19519184  1
  Pd  Pd185  1  0.79516282  0.19835989  0.79876870  1
  Pd  Pd186  1  0.60253319  0.59900894  0.39373360  1
  Pd  Pd187  1  -0.00548841  0.60072118  0.60646678  1
  Pd  Pd188  1  0.59540864  0.19549591  0.60267965  1
  Pd  Pd189  1  0.00883447  0.21134271  0.39811566  1
  Pd  Pd190  1  0.59228299  0.80189260  0.60491742  1
  Pd  Pd191  1  0.59879654  0.39997371  0.00151396  1
  Pd  Pd192  1  0.19742448  0.20159037  0.59986187  1
  Pd  Pd193  1  -0.00518771  0.39562855  0.00296329  1
  Pd  Pd194  1  0.40773845  0.59955311  0.60008958  1
  Pd  Pd195  1  0.19472715  0.80324074  -0.00861086  1
  Pd  Pd196  1  0.79032628  0.80033173  0.00542940  1
  Pd  Pd197  1  0.39088282  0.60358353  0.20624818  1
  Pd  Pd198  1  0.00741444  0.20407542  0.79357730  1
  Pd  Pd199  1  0.19998776  -0.00691245  0.59602545  1
  Rh  Rh200  1  0.20198724  0.40690750  -0.00133256  1
  Rh  Rh201  1  0.40123009  0.59582485  0.00281954  1
  Rh  Rh202  1  0.59159086  0.38981710  0.80444161  1
  Rh  Rh203  1  0.39970782  0.40196621  -0.00321599  1
  Rh  Rh204  1  0.80565509  0.20621809  0.60656159  1
  Rh  Rh205  1  0.19983223  0.60416998  0.59169176  1
  Rh  Rh206  1  0.80336447  0.39712287  -0.00204274  1
  Rh  Rh207  1  0.39070946  0.60348605  0.39541254  1
  Rh  Rh208  1  0.19109644  0.40735939  0.40682066  1
  Rh  Rh209  1  0.80281700  0.00962431  -0.00460933  1
  Rh  Rh210  1  0.79164633  0.79920775  0.80799978  1
  Rh  Rh211  1  0.60572577  0.20440355  -0.00037009  1
  Rh  Rh212  1  0.80164533  0.40738265  0.20259042  1
  Rh  Rh213  1  0.40828074  0.20588531  0.81010938  1
  Rh  Rh214  1  0.19826323  0.00887819  0.20865405  1
  Rh  Rh215  1  0.19846874  0.79796525  0.40792038  1
  Rh  Rh216  1  -0.00262238  0.00265048  0.79266026  1
  Rh  Rh217  1  0.39101114  -0.00093359  0.79982577  1
  Rh  Rh218  1  0.00992744  0.80252049  0.81159420  1
  Rh  Rh219  1  0.01074343  -0.00769369  0.40194409  1
  Rh  Rh220  1  0.59818272  0.40769143  0.19914913  1
  Rh  Rh221  1  -0.00030875  0.80538144  0.58714901  1
  Rh  Rh222  1  0.39598211  0.00584383  0.19957191  1
  Rh  Rh223  1  0.19838755  0.59694065  0.80935475  1
  Rh  Rh224  1  -0.00069540  0.60522939  0.19239490  1
  Rh  Rh225  1  0.20602909  0.40044892  0.19469396  1
  Rh  Rh226  1  0.80535930  0.79559475  0.40286212  1
  Rh  Rh227  1  0.38748870  -0.00367802  0.39726776  1
  Rh  Rh228  1  0.80691049  0.00370465  0.60485480  1
  Rh  Rh229  1  0.59701274  0.60017743  0.00734811  1
  Rh  Rh230  1  0.39320284  0.79244663  0.59455221  1
  Rh  Rh231  1  0.81031844  0.19709338  0.18846863  1
  Rh  Rh232  1  0.38731442  0.00489546  0.00269754  1
  Rh  Rh233  1  0.39474937  0.39456680  0.60730009  1
  Rh  Rh234  1  0.19872574  0.79332506  0.19529367  1
  Rh  Rh235  1  0.19897528  0.19650347  0.40170943  1
  Rh  Rh236  1  -0.00041498  0.39541378  0.20466349  1
  Rh  Rh237  1  0.59478569  0.18826873  0.20243918  1
  Rh  Rh238  1  -0.00652657  0.39825009  0.59229843  1
  Rh  Rh239  1  0.39641808  0.80441791  0.19816214  1
  Rh  Rh240  1  0.00299670  0.19420563  0.60273184  1
  Rh  Rh241  1  0.00672808  0.80107422  0.00515660  1
  Rh  Rh242  1  0.79253407  0.20515003  0.40343260  1
  Rh  Rh243  1  0.40233311  0.58523140  0.79806766  1
  Rh  Rh244  1  0.59761245  -0.00864940  0.00423592  1
  Rh  Rh245  1  0.20549372  0.19160986  -0.00450608  1
  Rh  Rh246  1  0.39201696  0.80447412  0.80085674  1
  Rh  Rh247  1  0.39976314  0.19835978  0.19249082  1
  Rh  Rh248  1  0.01163635  0.39408118  0.79929061  1
  Rh  Rh249  1  0.20604539  0.39253583  0.60821078  1
