# generated using pymatgen
data_ZrScNbPdRh
_symmetry_space_group_name_H-M   'P 1'
_cell_length_a   16.56083143
_cell_length_b   16.56499696
_cell_length_c   16.56448216
_cell_angle_alpha   90.03117252
_cell_angle_beta   89.96105120
_cell_angle_gamma   90.03441059
_symmetry_Int_Tables_number   1
_chemical_formula_structural   ZrScNbPdRh
_chemical_formula_sum   'Zr50 Sc50 Nb50 Pd50 Rh50'
_cell_volume   4544.13387431
_cell_formula_units_Z   50
loop_
 _symmetry_equiv_pos_site_id
 _symmetry_equiv_pos_as_xyz
  1  'x, y, z'
loop_
 _atom_site_type_symbol
 _atom_site_label
 _atom_site_symmetry_multiplicity
 _atom_site_fract_x
 _atom_site_fract_y
 _atom_site_fract_z
 _atom_site_occupancy
  Zr  Zr0  1  0.49885384  0.90251347  0.69863773  1
  Zr  Zr1  1  0.50026540  0.09853280  0.10356463  1
  Zr  Zr2  1  0.29963844  0.49289991  0.10428377  1
  Zr  Zr3  1  0.50684129  0.89582735  0.29810865  1
  Zr  Zr4  1  0.50786941  0.69289296  0.48718420  1
  Zr  Zr5  1  0.89623860  0.90273878  0.69707488  1
  Zr  Zr6  1  0.89746473  0.50598124  0.29306660  1
  Zr  Zr7  1  0.30117871  0.10432230  0.89420898  1
  Zr  Zr8  1  0.70432219  0.50110066  0.90049320  1
  Zr  Zr9  1  0.70080481  0.10029653  0.50079013  1
  Zr  Zr10  1  0.49341575  0.69160666  0.08562445  1
  Zr  Zr11  1  0.69759745  0.70001513  0.09600042  1
  Zr  Zr12  1  0.10887643  0.68820526  0.69809603  1
  Zr  Zr13  1  0.09198464  0.29520459  0.30083661  1
  Zr  Zr14  1  0.70062036  0.89967923  0.29453178  1
  Zr  Zr15  1  0.89133588  0.09982980  0.50530409  1
  Zr  Zr16  1  0.29581275  0.50339052  0.69642537  1
  Zr  Zr17  1  0.49498465  0.29378593  0.10400387  1
  Zr  Zr18  1  0.09350663  0.30236410  0.48967937  1
  Zr  Zr19  1  0.08800103  0.50189925  0.09918248  1
  Zr  Zr20  1  0.70638348  0.30207893  0.89801357  1
  Zr  Zr21  1  0.89403854  0.89501078  0.89366597  1
  Zr  Zr22  1  0.08951198  0.30385291  0.70042618  1
  Zr  Zr23  1  0.49922401  0.49915896  0.10577397  1
  Zr  Zr24  1  0.09716175  0.10056653  0.50076968  1
  Zr  Zr25  1  0.89386003  0.69859693  0.30797344  1
  Zr  Zr26  1  0.50377600  0.70042977  0.70908323  1
  Zr  Zr27  1  0.09668232  0.90219113  0.09990528  1
  Zr  Zr28  1  0.30447848  0.49352116  0.49827969  1
  Zr  Zr29  1  0.68962189  0.49772673  0.50311113  1
  Zr  Zr30  1  0.90393075  0.48918754  0.69513409  1
  Zr  Zr31  1  0.90105294  0.30796049  0.30966443  1
  Zr  Zr32  1  0.30094605  0.69821310  0.10305368  1
  Zr  Zr33  1  0.30559818  0.90253279  0.70499697  1
  Zr  Zr34  1  0.70563092  0.90640894  0.49495541  1
  Zr  Zr35  1  0.30097295  0.09678198  0.69794134  1
  Zr  Zr36  1  0.70015779  0.09032968  0.09711951  1
  Zr  Zr37  1  0.10240951  0.90267603  0.89896918  1
  Zr  Zr38  1  0.69172195  0.09544967  0.30878958  1
  Zr  Zr39  1  0.70159545  0.89844640  0.70516530  1
  Zr  Zr40  1  0.69867317  0.70700223  0.30025948  1
  Zr  Zr41  1  0.49819532  0.30899349  0.50496793  1
  Zr  Zr42  1  0.50156836  0.51146094  0.90136537  1
  Zr  Zr43  1  0.30344466  0.10158976  0.29552445  1
  Zr  Zr44  1  0.89694857  0.50293228  0.90979998  1
  Zr  Zr45  1  0.70448646  0.70051878  0.49273688  1
  Zr  Zr46  1  0.50153988  0.89844893  0.89306717  1
  Zr  Zr47  1  0.90126583  0.10563149  0.69796425  1
  Zr  Zr48  1  0.09290914  0.69849966  0.30228854  1
  Zr  Zr49  1  0.10171027  0.50115014  0.51320805  1
  Sc  Sc50  1  0.10103925  0.90750738  0.69825938  1
  Sc  Sc51  1  0.29664080  0.29568952  0.90448388  1
  Sc  Sc52  1  0.09269353  0.49404933  0.30655952  1
  Sc  Sc53  1  0.50001658  0.09993864  0.49695978  1
  Sc  Sc54  1  0.69869038  0.90205473  0.90637170  1
  Sc  Sc55  1  0.31888044  0.70293519  0.90649975  1
  Sc  Sc56  1  0.30517867  0.69193924  0.49423378  1
  Sc  Sc57  1  0.09692516  0.70052946  0.09816525  1
  Sc  Sc58  1  0.09756419  0.49699024  0.89823880  1
  Sc  Sc59  1  0.50617287  0.30049206  0.30012384  1
  Sc  Sc60  1  0.50057138  0.29495644  0.88671564  1
  Sc  Sc61  1  0.30606899  0.49621434  0.30495927  1
  Sc  Sc62  1  0.31118115  0.30066245  0.69883907  1
  Sc  Sc63  1  0.09349792  0.89309429  0.50445422  1
  Sc  Sc64  1  0.90217539  0.29865819  0.09376047  1
  Sc  Sc65  1  0.70374965  0.30704918  0.10462456  1
  Sc  Sc66  1  0.09910193  0.30326436  0.90748326  1
  Sc  Sc67  1  0.69613643  0.30631361  0.70527742  1
  Sc  Sc68  1  0.30723320  0.10406280  0.50311180  1
  Sc  Sc69  1  0.30622065  0.88868984  0.28777792  1
  Sc  Sc70  1  0.89325079  0.68414494  0.10271760  1
  Sc  Sc71  1  0.70507387  0.09532418  0.69835988  1
  Sc  Sc72  1  0.29834433  0.30069919  0.29640593  1
  Sc  Sc73  1  0.31017678  0.90485546  0.50984705  1
  Sc  Sc74  1  0.09132973  0.89974465  0.29777286  1
  Sc  Sc75  1  0.50189881  0.89967139  0.50103599  1
  Sc  Sc76  1  0.08940129  0.69280748  0.89710575  1
  Sc  Sc77  1  0.30632025  0.29992717  0.49947978  1
  Sc  Sc78  1  0.50766900  0.49301636  0.70121819  1
  Sc  Sc79  1  0.50876301  0.70071648  0.89805643  1
  Sc  Sc80  1  0.31140467  0.11838737  0.09991523  1
  Sc  Sc81  1  0.10463204  0.11317346  0.89613375  1
  Sc  Sc82  1  0.89706779  0.10309584  0.10176231  1
  Sc  Sc83  1  0.70304976  0.29952706  0.49306786  1
  Sc  Sc84  1  0.10295981  0.30522297  0.10014465  1
  Sc  Sc85  1  0.50125467  0.30231877  0.70208709  1
  Sc  Sc86  1  0.89877825  0.70890980  0.70873259  1
  Sc  Sc87  1  0.69890784  0.49729503  0.70602208  1
  Sc  Sc88  1  0.51578367  0.90137563  0.09491869  1
  Sc  Sc89  1  0.09344919  0.10777486  0.29830342  1
  Sc  Sc90  1  0.08557189  0.10994359  0.10660704  1
  Sc  Sc91  1  0.30162250  0.88495004  0.09221335  1
  Sc  Sc92  1  0.89318020  0.29903411  0.70037003  1
  Sc  Sc93  1  0.31033233  0.69563122  0.70322781  1
  Sc  Sc94  1  0.29739363  0.49600448  0.89522136  1
  Sc  Sc95  1  0.89128538  0.90250697  0.29597565  1
  Sc  Sc96  1  0.09065304  0.69596662  0.49918151  1
  Sc  Sc97  1  0.10139131  0.49784073  0.70267624  1
  Sc  Sc98  1  0.70534625  0.48967949  0.29617501  1
  Sc  Sc99  1  0.90348059  0.09881743  0.29593407  1
  Nb  Nb100  1  0.71157655  0.89979581  0.10562577  1
  Nb  Nb101  1  0.49965714  0.49637385  0.49411226  1
  Nb  Nb102  1  0.30419859  0.30613559  0.09872368  1
  Nb  Nb103  1  0.49867153  0.49783673  0.30769798  1
  Nb  Nb104  1  0.89623550  0.70349706  0.49624548  1
  Nb  Nb105  1  0.70580528  0.50160721  0.09996089  1
  Nb  Nb106  1  0.89411426  0.11471892  0.90524604  1
  Nb  Nb107  1  0.89900653  0.30318726  0.50383222  1
  Nb  Nb108  1  0.70543908  0.69534620  0.89028701  1
  Nb  Nb109  1  0.50494682  0.10351354  0.90067653  1
  Nb  Nb110  1  0.89231389  0.29387993  0.90466333  1
  Nb  Nb111  1  0.70324525  0.29744421  0.29975905  1
  Nb  Nb112  1  0.89552007  0.69967147  0.90245200  1
  Nb  Nb113  1  0.50005623  0.10819607  0.70465351  1
  Nb  Nb114  1  0.88682042  0.50200044  0.10234994  1
  Nb  Nb115  1  0.29823928  0.90360511  0.89949883  1
  Nb  Nb116  1  0.69723040  0.10730823  0.90279642  1
  Nb  Nb117  1  0.70025835  0.69822984  0.70171470  1
  Nb  Nb118  1  0.90165849  0.89178317  0.49857964  1
  Nb  Nb119  1  0.49941382  0.09414632  0.29276030  1
  Nb  Nb120  1  0.30216022  0.70064933  0.29872464  1
  Nb  Nb121  1  0.89369580  0.90695788  0.10258957  1
  Nb  Nb122  1  0.89565336  0.50219338  0.50053767  1
  Nb  Nb123  1  0.10100006  0.10217813  0.70028016  1
  Nb  Nb124  1  0.49582885  0.69741953  0.30082733  1
  Nb  Nb125  1  -0.01180897  0.80251183  0.00171186  1
  Nb  Nb126  1  0.39788273  0.00213886  -0.00577121  1
  Nb  Nb127  1  0.20487759  0.80227550  0.79907762  1
  Nb  Nb128  1  0.59764080  0.39933184  0.00119314  1
  Nb  Nb129  1  0.60264694  0.20089658  -0.00268955  1
  Nb  Nb130  1  0.20230526  -0.00483389  0.39441820  1
  Nb  Nb131  1  -0.01051774  0.80014693  0.19328195  1
  Nb  Nb132  1  0.59422363  0.59921250  0.20344395  1
  Nb  Nb133  1  0.80225627  0.60334477  0.59602410  1
  Nb  Nb134  1  0.41115508  0.59265884  0.59365975  1
  Nb  Nb135  1  0.20093792  0.60188889  0.20316736  1
  Nb  Nb136  1  0.19275874  0.19870566  0.60375289  1
  Nb  Nb137  1  0.20111864  0.59830136  0.00667773  1
  Nb  Nb138  1  0.60572388  0.79502121  0.60193763  1
  Nb  Nb139  1  0.59868543  0.19864262  0.60221222  1
  Nb  Nb140  1  -0.00420134  0.00101769  -0.00684033  1
  Nb  Nb141  1  -0.00340642  0.01129576  0.80257186  1
  Nb  Nb142  1  0.20244447  0.80172794  0.40126246  1
  Nb  Nb143  1  0.20153420  0.00152905  0.19561130  1
  Nb  Nb144  1  -0.00137298  -0.00248904  0.40629305  1
  Nb  Nb145  1  0.40481770  0.39643763  0.00272039  1
  Nb  Nb146  1  0.39966736  0.00078643  0.38856916  1
  Nb  Nb147  1  0.20403199  0.79603894  0.60169265  1
  Nb  Nb148  1  0.20225007  0.00548370  0.00368148  1
  Nb  Nb149  1  0.79382343  0.20396460  0.20740097  1
  Pd  Pd150  1  0.19426978  0.40501189  0.20675835  1
  Pd  Pd151  1  0.20899593  0.61048620  0.81539023  1
  Pd  Pd152  1  0.20131160  0.60291645  0.39667384  1
  Pd  Pd153  1  0.60128539  0.60232249  0.60566765  1
  Pd  Pd154  1  -0.00681930  0.39755099  0.19500181  1
  Pd  Pd155  1  0.60958943  0.59090117  0.38673931  1
  Pd  Pd156  1  0.20432083  0.19474201  0.40595887  1
  Pd  Pd157  1  0.19139507  0.79078774  -0.01060083  1
  Pd  Pd158  1  0.40534085  0.00617884  0.80331216  1
  Pd  Pd159  1  0.60538993  0.79931976  -0.00502240  1
  Pd  Pd160  1  0.20126018  0.39220165  0.79971322  1
  Pd  Pd161  1  0.60446162  0.00552284  0.80140635  1
  Pd  Pd162  1  0.59261079  0.20425984  0.40619757  1
  Pd  Pd163  1  0.20049658  0.39913634  0.39655173  1
  Pd  Pd164  1  0.59625926  0.00174676  0.60045555  1
  Pd  Pd165  1  0.80846813  0.59538770  0.78977674  1
  Pd  Pd166  1  0.20278873  0.21191888  0.79061853  1
  Pd  Pd167  1  0.79902712  0.40670302  0.40350321  1
  Pd  Pd168  1  0.80119477  0.79453361  0.00343385  1
  Pd  Pd169  1  0.19923213  0.19902280  0.19333780  1
  Pd  Pd170  1  -0.00315072  -0.00139998  0.60046823  1
  Pd  Pd171  1  0.41370661  0.80027985  0.18972253  1
  Pd  Pd172  1  0.40794724  0.19954816  0.39474811  1
  Pd  Pd173  1  -0.00235278  0.59218956  0.40548867  1
  Pd  Pd174  1  -0.00159597  0.20331279  0.80621906  1
  Pd  Pd175  1  0.39531436  0.80676633  0.40398140  1
  Pd  Pd176  1  -0.00003879  0.20595441  0.59649506  1
  Pd  Pd177  1  -0.00651340  0.39864364  -0.00136455  1
  Pd  Pd178  1  -0.00716120  0.39526323  0.81085970  1
  Pd  Pd179  1  0.19018744  0.79855366  0.20683179  1
  Pd  Pd180  1  0.60826321  0.19823154  0.19538210  1
  Pd  Pd181  1  0.40016402  0.40234704  0.80469138  1
  Pd  Pd182  1  0.40412248  0.78626873  0.59504424  1
  Pd  Pd183  1  0.79198645  0.39998587  0.59963483  1
  Pd  Pd184  1  0.20059252  -0.00146554  0.59209311  1
  Pd  Pd185  1  0.60066238  0.40357258  0.19987869  1
  Pd  Pd186  1  0.39388419  -0.00978697  0.19035133  1
  Pd  Pd187  1  0.39898680  0.59736027  0.20861253  1
  Pd  Pd188  1  -0.01150248  0.60660304  0.60541933  1
  Pd  Pd189  1  0.00588921  0.79248920  0.60795083  1
  Pd  Pd190  1  0.79613392  0.79555958  0.60039392  1
  Pd  Pd191  1  0.19534999  0.19671566  0.01010044  1
  Pd  Pd192  1  0.00800272  0.80366887  0.79858549  1
  Pd  Pd193  1  -0.00859307  0.59467602  0.79731015  1
  Pd  Pd194  1  0.80445140  0.00340486  -0.00750154  1
  Pd  Pd195  1  0.80598427  0.19702825  0.39528858  1
  Pd  Pd196  1  0.20186575  0.38659099  0.60181075  1
  Pd  Pd197  1  0.80240723  0.00827971  0.80806499  1
  Pd  Pd198  1  0.59333335  0.79136114  0.19245487  1
  Pd  Pd199  1  0.79370248  0.19959919  0.79226710  1
  Rh  Rh200  1  0.39842134  0.19963615  0.79855923  1
  Rh  Rh201  1  0.40896917  0.00941376  0.59742662  1
  Rh  Rh202  1  0.79637613  0.59194052  0.40462419  1
  Rh  Rh203  1  0.59049456  -0.00390409  0.39958162  1
  Rh  Rh204  1  -0.00092207  0.60182020  0.00130173  1
  Rh  Rh205  1  0.60250782  0.39179326  0.59939116  1
  Rh  Rh206  1  0.40054160  0.20840359  0.21012900  1
  Rh  Rh207  1  0.40267828  0.59380073  0.79254231  1
  Rh  Rh208  1  0.60569958  0.19563650  0.79651977  1
  Rh  Rh209  1  0.79351235  0.79800079  0.80213111  1
  Rh  Rh210  1  0.59670518  0.00457194  -0.00441428  1
  Rh  Rh211  1  -0.00106879  0.39720700  0.59436665  1
  Rh  Rh212  1  0.39733442  0.80167670  0.80462053  1
  Rh  Rh213  1  0.80843795  0.40182291  0.80399577  1
  Rh  Rh214  1  0.59893387  0.40349524  0.81027608  1
  Rh  Rh215  1  0.40199882  0.39522919  0.20301991  1
  Rh  Rh216  1  -0.00523734  0.41033416  0.40869235  1
  Rh  Rh217  1  0.60071374  0.80635159  0.40513957  1
  Rh  Rh218  1  0.80735815  0.39325709  0.19755079  1
  Rh  Rh219  1  -0.01229457  0.21218774  0.20167400  1
  Rh  Rh220  1  0.40303583  0.40863206  0.60431466  1
  Rh  Rh221  1  0.40861047  0.20367759  -0.00910578  1
  Rh  Rh222  1  0.00227878  0.60282711  0.19976230  1
  Rh  Rh223  1  0.60152385  0.39824556  0.39651953  1
  Rh  Rh224  1  0.80957040  -0.00211773  0.39887078  1
  Rh  Rh225  1  0.20673162  0.40522888  -0.00116438  1
  Rh  Rh226  1  0.60772436  0.79921851  0.79842880  1
  Rh  Rh227  1  0.80205836  0.80860575  0.39674449  1
  Rh  Rh228  1  0.38768804  0.58584061  -0.00299006  1
  Rh  Rh229  1  0.40299817  0.39317165  0.39423532  1
  Rh  Rh230  1  0.61140194  0.59544247  0.00223040  1
  Rh  Rh231  1  0.41108296  0.81099750  -0.00314407  1
  Rh  Rh232  1  -0.00341066  0.80610669  0.39266024  1
  Rh  Rh233  1  0.60425892  0.59901215  0.79948986  1
  Rh  Rh234  1  0.60533494  -0.00309182  0.19935560  1
  Rh  Rh235  1  0.19288273  -0.00000308  0.80421700  1
  Rh  Rh236  1  0.00107688  -0.00479660  0.19985857  1
  Rh  Rh237  1  0.79571001  0.01106047  0.20556026  1
  Rh  Rh238  1  0.39913072  0.59633607  0.39858656  1
  Rh  Rh239  1  -0.01029085  0.19267759  0.40498843  1
  Rh  Rh240  1  0.78637772  0.60158681  0.20503207  1
  Rh  Rh241  1  0.79851126  0.39857581  0.00420857  1
  Rh  Rh242  1  0.79548740  0.60484379  -0.00270572  1
  Rh  Rh243  1  0.78887940  0.21008499  0.60211247  1
  Rh  Rh244  1  0.40476422  0.19743432  0.60424499  1
  Rh  Rh245  1  0.79122897  0.20239183  0.01134597  1
  Rh  Rh246  1  0.00198790  0.19962040  -0.00234130  1
  Rh  Rh247  1  0.80218197  -0.00435996  0.59921150  1
  Rh  Rh248  1  0.80506788  0.79415599  0.19433314  1
  Rh  Rh249  1  0.21120599  0.60606687  0.59355997  1
