# generated using pymatgen
data_ZrScNbPdRh
_symmetry_space_group_name_H-M   'P 1'
_cell_length_a   16.55524378
_cell_length_b   16.55593748
_cell_length_c   16.55484138
_cell_angle_alpha   90.02758949
_cell_angle_beta   90.00735738
_cell_angle_gamma   90.01928372
_symmetry_Int_Tables_number   1
_chemical_formula_structural   ZrScNbPdRh
_chemical_formula_sum   'Zr50 Sc50 Nb50 Pd50 Rh50'
_cell_volume   4537.47560710
_cell_formula_units_Z   50
loop_
 _symmetry_equiv_pos_site_id
 _symmetry_equiv_pos_as_xyz
  1  'x, y, z'
loop_
 _atom_site_type_symbol
 _atom_site_label
 _atom_site_symmetry_multiplicity
 _atom_site_fract_x
 _atom_site_fract_y
 _atom_site_fract_z
 _atom_site_occupancy
  Zr  Zr0  1  0.89934548  0.49920907  0.49942368  1
  Zr  Zr1  1  0.28837489  0.50411284  0.70058533  1
  Zr  Zr2  1  0.09218226  0.69567032  0.90010467  1
  Zr  Zr3  1  0.69571532  0.70304596  0.09913217  1
  Zr  Zr4  1  0.09499660  0.29947661  0.30963384  1
  Zr  Zr5  1  0.49166876  0.49976223  0.09656938  1
  Zr  Zr6  1  0.69954692  0.30294483  0.10114615  1
  Zr  Zr7  1  0.89115170  0.08768804  0.70210291  1
  Zr  Zr8  1  0.10341408  0.69922757  0.10015202  1
  Zr  Zr9  1  0.89962629  0.50460781  0.88656307  1
  Zr  Zr10  1  0.30003121  0.89308118  0.10370983  1
  Zr  Zr11  1  0.10357158  0.90130790  0.88465547  1
  Zr  Zr12  1  0.50204622  0.89466045  0.69333520  1
  Zr  Zr13  1  0.29847430  0.70098020  0.50173767  1
  Zr  Zr14  1  0.50225552  0.69824821  0.10016411  1
  Zr  Zr15  1  0.49486257  0.30441908  0.49336641  1
  Zr  Zr16  1  0.30288536  0.11198071  0.70250187  1
  Zr  Zr17  1  0.30089067  0.09767959  0.89765270  1
  Zr  Zr18  1  0.50176932  0.30314279  0.09627233  1
  Zr  Zr19  1  0.69040409  0.50421531  0.70318510  1
  Zr  Zr20  1  0.71144089  0.10543063  0.09289398  1
  Zr  Zr21  1  0.69495107  0.49563140  0.30379680  1
  Zr  Zr22  1  0.30529856  0.89463529  0.90110418  1
  Zr  Zr23  1  0.50369165  0.50006557  0.90151718  1
  Zr  Zr24  1  0.89008398  0.09762736  0.91113678  1
  Zr  Zr25  1  0.91378560  0.90356474  0.30591633  1
  Zr  Zr26  1  0.70101292  0.09180503  0.90037340  1
  Zr  Zr27  1  0.31070937  0.50281891  0.29971617  1
  Zr  Zr28  1  0.90156924  0.70480605  0.30606672  1
  Zr  Zr29  1  0.28872592  0.89526412  0.70024746  1
  Zr  Zr30  1  0.50288157  0.89958645  0.30147133  1
  Zr  Zr31  1  0.69747341  0.69824166  0.89818894  1
  Zr  Zr32  1  0.49601262  0.30898486  0.29802243  1
  Zr  Zr33  1  0.69462036  0.50199927  0.50352520  1
  Zr  Zr34  1  0.90504764  0.70333461  0.50581142  1
  Zr  Zr35  1  0.71124565  0.10065065  0.30547835  1
  Zr  Zr36  1  0.09933857  0.29981906  0.10136013  1
  Zr  Zr37  1  0.89760038  0.29570855  0.09692796  1
  Zr  Zr38  1  0.50294252  0.10591651  0.09878947  1
  Zr  Zr39  1  0.49955726  0.89358369  0.49417717  1
  Zr  Zr40  1  0.09248167  0.49831902  0.09675076  1
  Zr  Zr41  1  0.69601707  0.89468532  0.50446656  1
  Zr  Zr42  1  0.09449670  0.49814973  0.50115090  1
  Zr  Zr43  1  0.10838840  0.89927857  0.30397472  1
  Zr  Zr44  1  0.30030564  0.10494829  0.10473803  1
  Zr  Zr45  1  0.30635780  0.69659116  0.09947973  1
  Zr  Zr46  1  0.69759124  0.69352866  0.29710772  1
  Zr  Zr47  1  0.91006520  0.30510460  0.49854093  1
  Zr  Zr48  1  0.50692855  0.30577165  0.90456023  1
  Zr  Zr49  1  0.10536696  0.10204987  0.10631391  1
  Sc  Sc50  1  0.89615491  0.88889260  0.69996539  1
  Sc  Sc51  1  0.69024369  0.50041287  0.89055509  1
  Sc  Sc52  1  0.10389355  0.10508044  0.89721712  1
  Sc  Sc53  1  0.10562809  0.49840222  0.89390562  1
  Sc  Sc54  1  0.29704217  0.70230706  0.90509566  1
  Sc  Sc55  1  0.89362035  0.50430110  0.29407001  1
  Sc  Sc56  1  0.89211943  0.30000321  0.30620197  1
  Sc  Sc57  1  0.10243216  0.70528509  0.30125158  1
  Sc  Sc58  1  0.50341073  0.89286479  0.09785264  1
  Sc  Sc59  1  0.89629661  0.30703912  0.89765645  1
  Sc  Sc60  1  0.30659945  0.29594197  0.30274966  1
  Sc  Sc61  1  0.10958458  0.89860258  0.49845316  1
  Sc  Sc62  1  0.50161930  0.09830179  0.90673061  1
  Sc  Sc63  1  0.29683384  0.50942870  0.48980558  1
  Sc  Sc64  1  0.10090951  0.89165362  0.11472275  1
  Sc  Sc65  1  0.10571262  0.09238582  0.30160243  1
  Sc  Sc66  1  0.11214569  0.09600009  0.70938669  1
  Sc  Sc67  1  0.10313160  0.10372556  0.49127155  1
  Sc  Sc68  1  0.90656426  0.89125901  0.50103404  1
  Sc  Sc69  1  0.10071349  0.69974192  0.69561862  1
  Sc  Sc70  1  0.29895845  0.10748979  0.49299892  1
  Sc  Sc71  1  0.50058154  0.69638563  0.30147891  1
  Sc  Sc72  1  0.69037414  0.89958142  0.30510762  1
  Sc  Sc73  1  0.70332063  0.31408832  0.49878143  1
  Sc  Sc74  1  0.69684890  0.89800042  0.09762807  1
  Sc  Sc75  1  0.89271300  0.89681425  0.89479642  1
  Sc  Sc76  1  0.09699902  0.50128786  0.30632639  1
  Sc  Sc77  1  0.70430766  0.90499539  0.69807119  1
  Sc  Sc78  1  0.50000419  0.69598618  0.90839857  1
  Sc  Sc79  1  0.29477049  0.29894443  0.89525351  1
  Sc  Sc80  1  0.49753973  0.29355342  0.69279961  1
  Sc  Sc81  1  0.69529015  0.31356359  0.69619467  1
  Sc  Sc82  1  0.49979002  0.10451918  0.50256628  1
  Sc  Sc83  1  0.50182761  0.50286134  0.49598615  1
  Sc  Sc84  1  0.30698809  0.29671086  0.10482135  1
  Sc  Sc85  1  0.69976812  0.69904902  0.69432072  1
  Sc  Sc86  1  0.89820492  0.49611167  0.70182687  1
  Sc  Sc87  1  0.90335446  0.89459961  0.09609119  1
  Sc  Sc88  1  0.09776802  0.30556428  0.90101280  1
  Sc  Sc89  1  0.30054512  0.69569237  0.30482600  1
  Sc  Sc90  1  0.49759250  0.10106094  0.30686111  1
  Sc  Sc91  1  0.10464358  0.30141760  0.70818318  1
  Sc  Sc92  1  0.69468943  0.30834372  0.89943179  1
  Sc  Sc93  1  0.89726408  0.69794088  0.70253178  1
  Sc  Sc94  1  0.89537825  0.70540743  0.89505927  1
  Sc  Sc95  1  0.90196570  0.09402903  0.48566120  1
  Sc  Sc96  1  0.90964131  0.70075055  0.09912164  1
  Sc  Sc97  1  0.29650825  0.89603557  0.30989637  1
  Sc  Sc98  1  0.69929446  0.69841703  0.49832719  1
  Sc  Sc99  1  0.70382750  0.89459216  0.90561371  1
  Nb  Nb100  1  0.30029603  0.10181310  0.29111850  1
  Nb  Nb101  1  0.69821026  0.30061193  0.29986528  1
  Nb  Nb102  1  0.49707577  0.69661020  0.69304878  1
  Nb  Nb103  1  0.30231027  0.49894831  0.09558287  1
  Nb  Nb104  1  0.29618523  0.30172787  0.50344094  1
  Nb  Nb105  1  0.29907694  0.30133306  0.69778219  1
  Nb  Nb106  1  0.90420254  0.09945303  0.29938522  1
  Nb  Nb107  1  0.70570295  0.50788446  0.10857252  1
  Nb  Nb108  1  0.09702603  0.69697989  0.49579189  1
  Nb  Nb109  1  0.49881673  0.89796186  0.89633678  1
  Nb  Nb110  1  0.89888061  0.10170826  0.09980676  1
  Nb  Nb111  1  0.50544513  0.70165175  0.50617184  1
  Nb  Nb112  1  0.70360522  0.10128713  0.50485899  1
  Nb  Nb113  1  0.30077494  0.90354267  0.50096211  1
  Nb  Nb114  1  0.89707529  0.50132108  0.10117710  1
  Nb  Nb115  1  0.09823828  0.30214706  0.49831751  1
  Nb  Nb116  1  0.09815168  0.90471474  0.69646179  1
  Nb  Nb117  1  0.30596162  0.49800781  0.90131228  1
  Nb  Nb118  1  0.69650617  0.09756061  0.69315541  1
  Nb  Nb119  1  0.09807743  0.49831606  0.70750199  1
  Nb  Nb120  1  0.30756525  0.69780677  0.69743050  1
  Nb  Nb121  1  0.50076588  0.50101425  0.70075472  1
  Nb  Nb122  1  0.50292906  0.09582784  0.69854810  1
  Nb  Nb123  1  0.49397436  0.49866516  0.30634187  1
  Nb  Nb124  1  0.89787108  0.29735100  0.70210473  1
  Nb  Nb125  1  0.80708202  0.00045159  0.20200050  1
  Nb  Nb126  1  -0.00594014  0.19470986  0.20226522  1
  Nb  Nb127  1  0.38992178  0.40187041  0.60264232  1
  Nb  Nb128  1  0.60916551  0.20444043  0.39905762  1
  Nb  Nb129  1  0.20173613  0.40509029  0.19905624  1
  Nb  Nb130  1  0.39606796  -0.00206915  0.60188992  1
  Nb  Nb131  1  0.60326879  0.19108534  0.79209739  1
  Nb  Nb132  1  0.19816878  0.39678119  0.59661397  1
  Nb  Nb133  1  0.00638022  0.00006068  0.60465410  1
  Nb  Nb134  1  0.60645903  0.20237516  0.20665498  1
  Nb  Nb135  1  0.39844210  0.60023135  0.79346112  1
  Nb  Nb136  1  -0.01102634  0.19780313  0.79449800  1
  Nb  Nb137  1  0.39892418  0.00120597  0.20162586  1
  Nb  Nb138  1  0.40589007  -0.00216892  0.79298856  1
  Nb  Nb139  1  0.20343836  0.59137253  0.19374010  1
  Nb  Nb140  1  0.79892540  0.59508407  0.00404626  1
  Nb  Nb141  1  0.80170008  0.80377460  0.20493950  1
  Nb  Nb142  1  0.00558721  0.00169227  0.00128538  1
  Nb  Nb143  1  0.19822121  -0.00266305  0.00297989  1
  Nb  Nb144  1  0.80162103  0.19859403  0.60167233  1
  Nb  Nb145  1  -0.00289645  0.19685595  0.60508889  1
  Nb  Nb146  1  0.59188031  0.79971461  0.79721643  1
  Nb  Nb147  1  0.79376340  0.19831523  0.79224595  1
  Nb  Nb148  1  0.39683257  0.40451462  0.79401671  1
  Nb  Nb149  1  0.79863589  0.41303702  0.00604894  1
  Pd  Pd150  1  0.39990877  0.79320890  0.39831224  1
  Pd  Pd151  1  0.00054742  0.19543104  -0.00446716  1
  Pd  Pd152  1  0.40168871  0.59262030  0.59672548  1
  Pd  Pd153  1  -0.00814353  0.59600799  -0.00674131  1
  Pd  Pd154  1  0.79935448  0.20683266  0.41048869  1
  Pd  Pd155  1  0.19013763  0.80658847  -0.00085794  1
  Pd  Pd156  1  -0.00050247  0.79645487  0.79329272  1
  Pd  Pd157  1  0.60228583  0.00777019  0.19663096  1
  Pd  Pd158  1  0.20095159  0.59543292  -0.00074505  1
  Pd  Pd159  1  0.19395547  0.79497427  0.59686677  1
  Pd  Pd160  1  0.79886388  0.59776627  0.40360590  1
  Pd  Pd161  1  0.39999178  0.80302460  0.20789894  1
  Pd  Pd162  1  0.59915516  -0.00433802  0.80212359  1
  Pd  Pd163  1  0.58978918  0.59215529  0.20279006  1
  Pd  Pd164  1  0.39974019  0.19867820  0.59470877  1
  Pd  Pd165  1  0.40489251  0.79402034  0.80142114  1
  Pd  Pd166  1  0.18901733  0.20344303  0.60080479  1
  Pd  Pd167  1  0.59916420  -0.00575567  0.00285717  1
  Pd  Pd168  1  0.20560951  0.40123241  0.39790031  1
  Pd  Pd169  1  -0.00226833  0.00216587  0.19426159  1
  Pd  Pd170  1  0.39659389  0.20623555  -0.00677989  1
  Pd  Pd171  1  0.39805775  -0.00451267  0.00370769  1
  Pd  Pd172  1  0.60801705  0.20839522  0.59610505  1
  Pd  Pd173  1  0.19253621  0.59755406  0.59651716  1
  Pd  Pd174  1  0.80093808  0.60057877  0.60285582  1
  Pd  Pd175  1  0.39363188  0.00528173  0.39959197  1
  Pd  Pd176  1  0.00387791  0.81002889  -0.00562167  1
  Pd  Pd177  1  -0.00077960  0.59923642  0.39635167  1
  Pd  Pd178  1  0.80911170  -0.00293906  0.58934788  1
  Pd  Pd179  1  0.79595772  0.80449331  0.39683618  1
  Pd  Pd180  1  0.20418141  0.19978542  0.39368288  1
  Pd  Pd181  1  0.19763908  0.78798779  0.79561095  1
  Pd  Pd182  1  0.80056088  -0.01124907  0.40071653  1
  Pd  Pd183  1  0.59647405  0.40438121  0.19746179  1
  Pd  Pd184  1  0.80364872  0.39764576  0.20093371  1
  Pd  Pd185  1  0.00483574  0.60285442  0.20589168  1
  Pd  Pd186  1  -0.00046094  0.59917074  0.60837559  1
  Pd  Pd187  1  0.39557793  0.80418522  0.59562904  1
  Pd  Pd188  1  -0.00437625  0.00415858  0.80206328  1
  Pd  Pd189  1  -0.00168862  0.39351374  0.20649964  1
  Pd  Pd190  1  0.00779349  0.39427201  0.61168222  1
  Pd  Pd191  1  -0.00729326  0.40644042  -0.00830326  1
  Pd  Pd192  1  0.20558917  0.39690983  0.00412109  1
  Pd  Pd193  1  0.59333609  -0.00147380  0.59081705  1
  Pd  Pd194  1  0.60065823  0.01000821  0.40823212  1
  Pd  Pd195  1  0.41254548  0.20297021  0.80560659  1
  Pd  Pd196  1  0.20159992  0.00868038  0.59412884  1
  Pd  Pd197  1  0.20310292  0.60786264  0.80439101  1
  Pd  Pd198  1  0.80181885  0.40022704  0.60326701  1
  Pd  Pd199  1  0.20305829  0.20067458  -0.00332754  1
  Rh  Rh200  1  0.20718985  0.78805723  0.20509499  1
  Rh  Rh201  1  0.00206312  0.60204384  0.79466790  1
  Rh  Rh202  1  0.58859427  0.38931922  0.78876691  1
  Rh  Rh203  1  0.39350601  0.39409345  -0.00738999  1
  Rh  Rh204  1  0.60475828  0.79554098  0.60380202  1
  Rh  Rh205  1  0.21043213  -0.00136655  0.80413576  1
  Rh  Rh206  1  0.79362954  -0.00428242  0.80128883  1
  Rh  Rh207  1  0.59495917  0.80323867  -0.00952299  1
  Rh  Rh208  1  0.60480919  0.79916049  0.20482004  1
  Rh  Rh209  1  0.80772319  -0.01231990  0.00891227  1
  Rh  Rh210  1  -0.00855723  0.40756253  0.39354665  1
  Rh  Rh211  1  0.78714654  0.79841611  0.79541010  1
  Rh  Rh212  1  0.79366977  0.21587106  -0.01381381  1
  Rh  Rh213  1  0.80017950  0.40605276  0.39748254  1
  Rh  Rh214  1  0.21251758  -0.00576338  0.19969610  1
  Rh  Rh215  1  0.40049595  0.20157125  0.39954842  1
  Rh  Rh216  1  0.79455119  0.60044528  0.80159708  1
  Rh  Rh217  1  0.00765713  0.80487154  0.60011084  1
  Rh  Rh218  1  0.80680171  0.61602229  0.19382060  1
  Rh  Rh219  1  0.19323836  0.20648588  0.80429334  1
  Rh  Rh220  1  0.41217938  0.19429997  0.20448557  1
  Rh  Rh221  1  0.60016774  0.39867272  0.40083390  1
  Rh  Rh222  1  0.59098872  0.61212294  0.79474349  1
  Rh  Rh223  1  0.60665339  0.19903630  -0.00386226  1
  Rh  Rh224  1  0.20356896  0.39874198  0.79833323  1
  Rh  Rh225  1  0.59569496  0.60102591  0.40103116  1
  Rh  Rh226  1  0.40678101  0.79596823  0.00104770  1
  Rh  Rh227  1  0.80270060  0.79082065  0.00818021  1
  Rh  Rh228  1  0.61005547  0.41339595  0.01112560  1
  Rh  Rh229  1  0.00887432  -0.00203028  0.40869890  1
  Rh  Rh230  1  0.19086439  0.21289830  0.20941154  1
  Rh  Rh231  1  0.60694796  0.59415401  0.00417264  1
  Rh  Rh232  1  0.40957797  0.60801920  0.40733868  1
  Rh  Rh233  1  -0.00002238  0.19604062  0.39931906  1
  Rh  Rh234  1  0.39270148  0.40229929  0.40856782  1
  Rh  Rh235  1  0.79951786  0.79603261  0.59815658  1
  Rh  Rh236  1  0.01081336  0.80138793  0.40606925  1
  Rh  Rh237  1  0.59728995  0.60102290  0.59782317  1
  Rh  Rh238  1  0.39545464  0.40284650  0.19713282  1
  Rh  Rh239  1  0.20673640  0.00340125  0.39961117  1
  Rh  Rh240  1  0.00251606  0.39547605  0.79899760  1
  Rh  Rh241  1  0.19298411  0.60449184  0.39528466  1
  Rh  Rh242  1  0.80301054  0.19514393  0.20445209  1
  Rh  Rh243  1  0.39689885  0.60128251  -0.00746693  1
  Rh  Rh244  1  0.40069202  0.59914763  0.20035998  1
  Rh  Rh245  1  -0.00396401  0.79647112  0.20481310  1
  Rh  Rh246  1  0.58850226  0.40275725  0.59893992  1
  Rh  Rh247  1  0.79522951  0.39844442  0.80351050  1
  Rh  Rh248  1  0.59816956  0.79037060  0.40117976  1
  Rh  Rh249  1  0.20077589  0.79497520  0.40783553  1
