# generated using pymatgen
data_ZrScNbPdRh
_symmetry_space_group_name_H-M   'P 1'
_cell_length_a   16.56477857
_cell_length_b   16.55757452
_cell_length_c   16.56780616
_cell_angle_alpha   89.97163622
_cell_angle_beta   90.05620264
_cell_angle_gamma   90.00779573
_symmetry_Int_Tables_number   1
_chemical_formula_structural   ZrScNbPdRh
_chemical_formula_sum   'Zr50 Sc50 Nb50 Pd50 Rh50'
_cell_volume   4544.09175264
_cell_formula_units_Z   50
loop_
 _symmetry_equiv_pos_site_id
 _symmetry_equiv_pos_as_xyz
  1  'x, y, z'
loop_
 _atom_site_type_symbol
 _atom_site_label
 _atom_site_symmetry_multiplicity
 _atom_site_fract_x
 _atom_site_fract_y
 _atom_site_fract_z
 _atom_site_occupancy
  Zr  Zr0  1  0.90334824  0.89891263  0.88996784  1
  Zr  Zr1  1  0.29953742  0.89221813  0.10042191  1
  Zr  Zr2  1  0.29605116  0.69161744  0.89945291  1
  Zr  Zr3  1  0.10207747  0.30584011  0.70140238  1
  Zr  Zr4  1  0.69816635  0.70353165  0.89757560  1
  Zr  Zr5  1  0.69888502  0.29548528  0.90433349  1
  Zr  Zr6  1  0.89402299  0.49570076  0.30365325  1
  Zr  Zr7  1  0.69241446  0.10143125  0.49706942  1
  Zr  Zr8  1  0.50193507  0.69799136  0.49851899  1
  Zr  Zr9  1  0.50378128  0.49915536  0.49768128  1
  Zr  Zr10  1  0.89999946  0.69767622  0.29377971  1
  Zr  Zr11  1  0.71323974  0.09508797  0.29552392  1
  Zr  Zr12  1  0.09389632  0.89144613  0.09756434  1
  Zr  Zr13  1  0.49462846  0.69166581  0.30521387  1
  Zr  Zr14  1  0.50752820  0.69914468  0.69558035  1
  Zr  Zr15  1  0.90267296  0.49533181  0.49993665  1
  Zr  Zr16  1  0.69717207  0.50527556  0.90120200  1
  Zr  Zr17  1  0.69959469  0.50237059  0.69470677  1
  Zr  Zr18  1  0.29145830  0.30391898  0.90559040  1
  Zr  Zr19  1  0.70361512  0.29568829  0.09541424  1
  Zr  Zr20  1  0.51250176  0.29982580  0.69949638  1
  Zr  Zr21  1  0.90527782  0.89858828  0.10230665  1
  Zr  Zr22  1  0.29432787  0.29620221  0.49989142  1
  Zr  Zr23  1  0.09742925  0.10717228  0.70031143  1
  Zr  Zr24  1  0.49344008  0.90076151  0.29716475  1
  Zr  Zr25  1  0.69452602  0.30624422  0.50959798  1
  Zr  Zr26  1  0.49529554  0.49549238  0.30099444  1
  Zr  Zr27  1  0.30267897  0.30678264  0.10558221  1
  Zr  Zr28  1  0.89651081  0.09994311  0.10735526  1
  Zr  Zr29  1  0.29526275  0.50125038  0.70806241  1
  Zr  Zr30  1  0.30551157  0.10194830  0.50659940  1
  Zr  Zr31  1  0.90932838  0.49710204  0.90019216  1
  Zr  Zr32  1  0.09245005  0.49865332  0.50199098  1
  Zr  Zr33  1  0.29588513  0.89358298  0.29378307  1
  Zr  Zr34  1  0.49839395  0.08747855  0.90877657  1
  Zr  Zr35  1  0.69656305  0.10513663  0.70762779  1
  Zr  Zr36  1  0.09752845  0.49950520  0.69754523  1
  Zr  Zr37  1  0.89686348  0.09253566  0.49181491  1
  Zr  Zr38  1  0.10155535  0.29476742  0.30392047  1
  Zr  Zr39  1  0.90083580  0.09818664  0.70643624  1
  Zr  Zr40  1  0.29380393  0.29798003  0.69764695  1
  Zr  Zr41  1  0.89753145  0.69245172  0.89518507  1
  Zr  Zr42  1  0.70004857  0.69641028  0.50140302  1
  Zr  Zr43  1  0.29593799  0.70499042  0.49767690  1
  Zr  Zr44  1  0.09104014  0.30467637  0.50586177  1
  Zr  Zr45  1  0.69810998  0.49070087  0.10317698  1
  Zr  Zr46  1  0.50072742  0.90756570  0.49872220  1
  Zr  Zr47  1  0.69864449  0.09940308  0.90228542  1
  Zr  Zr48  1  0.09344820  0.31145142  0.90423840  1
  Zr  Zr49  1  0.09480119  0.09468393  0.30258753  1
  Sc  Sc50  1  0.29961716  0.50048000  0.10260110  1
  Sc  Sc51  1  0.90143813  0.69559445  0.50049845  1
  Sc  Sc52  1  0.49155844  0.49878653  0.09719446  1
  Sc  Sc53  1  0.50689689  0.89997881  0.90170087  1
  Sc  Sc54  1  0.09930925  0.11070509  0.90063136  1
  Sc  Sc55  1  0.11373171  0.30696716  0.09962335  1
  Sc  Sc56  1  0.29082339  0.90254099  0.51314338  1
  Sc  Sc57  1  0.10007156  0.69986718  0.09853945  1
  Sc  Sc58  1  0.50382484  0.31001998  0.90122039  1
  Sc  Sc59  1  0.90563660  0.70373775  0.09773318  1
  Sc  Sc60  1  0.30568166  0.10260961  0.10956809  1
  Sc  Sc61  1  0.89622092  0.90286648  0.29732876  1
  Sc  Sc62  1  0.90303862  0.69945975  0.69272097  1
  Sc  Sc63  1  0.90097181  0.50076984  0.09872199  1
  Sc  Sc64  1  0.70434895  0.90225076  0.48572188  1
  Sc  Sc65  1  0.70716556  0.70048695  0.09304654  1
  Sc  Sc66  1  0.09662944  0.89236519  0.90542472  1
  Sc  Sc67  1  0.50333777  0.29420140  0.49352913  1
  Sc  Sc68  1  0.10169013  0.50333265  0.90329666  1
  Sc  Sc69  1  0.29848986  0.50093031  0.49189252  1
  Sc  Sc70  1  0.29747616  0.69858606  0.10281766  1
  Sc  Sc71  1  0.50541476  0.49615733  0.71155583  1
  Sc  Sc72  1  0.31400138  0.90616754  0.90734209  1
  Sc  Sc73  1  0.09724007  0.69812039  0.90600496  1
  Sc  Sc74  1  0.50118384  0.09753215  0.69537131  1
  Sc  Sc75  1  0.70721399  0.49674597  0.50064153  1
  Sc  Sc76  1  0.91207312  0.29664799  0.70239064  1
  Sc  Sc77  1  0.90483718  0.09787355  0.29339523  1
  Sc  Sc78  1  0.30205896  0.29684985  0.29552675  1
  Sc  Sc79  1  0.70013329  0.31325747  0.29557876  1
  Sc  Sc80  1  0.10352228  0.50025556  0.10009029  1
  Sc  Sc81  1  0.09945001  0.50796873  0.29698695  1
  Sc  Sc82  1  0.10181463  0.89908765  0.49257865  1
  Sc  Sc83  1  0.49104992  0.69879735  0.09999915  1
  Sc  Sc84  1  0.50016706  0.90888467  0.70337958  1
  Sc  Sc85  1  0.30082446  0.50272026  0.29239622  1
  Sc  Sc86  1  0.10149878  0.70190299  0.49840372  1
  Sc  Sc87  1  0.10046291  0.89755790  0.69395432  1
  Sc  Sc88  1  0.90029328  0.50903832  0.69941874  1
  Sc  Sc89  1  0.48747115  0.10029465  0.30730198  1
  Sc  Sc90  1  0.90095907  0.89130335  0.49400144  1
  Sc  Sc91  1  0.48749126  0.90264821  0.09786444  1
  Sc  Sc92  1  0.90196072  0.10458047  0.89273248  1
  Sc  Sc93  1  0.70886339  0.89233449  0.09878571  1
  Sc  Sc94  1  0.29922216  0.10707448  0.30461757  1
  Sc  Sc95  1  0.50087541  0.30708758  0.09696507  1
  Sc  Sc96  1  0.10493709  0.09598406  0.49342587  1
  Sc  Sc97  1  0.29579200  0.69842487  0.69231188  1
  Sc  Sc98  1  0.50333024  0.69342490  0.90300202  1
  Sc  Sc99  1  0.70335625  0.10514592  0.09458386  1
  Nb  Nb100  1  0.29739474  0.69958507  0.29727073  1
  Nb  Nb101  1  0.70446929  0.50426571  0.29275641  1
  Nb  Nb102  1  0.69988766  0.90198467  0.89468052  1
  Nb  Nb103  1  0.49212125  0.49818838  0.90462001  1
  Nb  Nb104  1  0.50108126  0.10294386  0.49824322  1
  Nb  Nb105  1  0.10795367  0.69650536  0.69885787  1
  Nb  Nb106  1  0.30149910  0.10087632  0.90195747  1
  Nb  Nb107  1  0.11065458  0.70869432  0.29664999  1
  Nb  Nb108  1  0.70076942  0.90325863  0.70530328  1
  Nb  Nb109  1  0.29968516  0.09454590  0.70389620  1
  Nb  Nb110  1  0.69743133  0.30289485  0.70380760  1
  Nb  Nb111  1  0.50301625  0.10241463  0.10255359  1
  Nb  Nb112  1  0.09333043  0.09226510  0.10169591  1
  Nb  Nb113  1  0.29824094  0.90233895  0.70230797  1
  Nb  Nb114  1  0.89784707  0.90237011  0.69868133  1
  Nb  Nb115  1  0.69974388  0.89711450  0.29310388  1
  Nb  Nb116  1  0.89458484  0.29805196  0.10159087  1
  Nb  Nb117  1  0.70359972  0.69808091  0.69763032  1
  Nb  Nb118  1  0.69869290  0.70234921  0.29898921  1
  Nb  Nb119  1  0.90026284  0.29934405  0.30032573  1
  Nb  Nb120  1  0.31291880  0.50139953  0.90163896  1
  Nb  Nb121  1  0.09868211  0.89505776  0.29751822  1
  Nb  Nb122  1  0.90190438  0.30447818  0.90944052  1
  Nb  Nb123  1  0.89652004  0.30794798  0.49226840  1
  Nb  Nb124  1  0.49597369  0.29684748  0.29723617  1
  Nb  Nb125  1  0.19200925  -0.00359034  0.19725316  1
  Nb  Nb126  1  0.80233219  -0.00348128  -0.00753621  1
  Nb  Nb127  1  0.19462638  0.39754599  0.39980923  1
  Nb  Nb128  1  0.80002152  0.20096493  0.59829210  1
  Nb  Nb129  1  0.59586338  0.19728146  0.20210686  1
  Nb  Nb130  1  0.79916763  0.39628683  0.80298223  1
  Nb  Nb131  1  0.59941513  -0.00065739  0.19977229  1
  Nb  Nb132  1  0.60125819  0.79782229  0.20511693  1
  Nb  Nb133  1  0.39417664  0.19480468  0.80391107  1
  Nb  Nb134  1  0.39960810  0.40159099  0.60190499  1
  Nb  Nb135  1  0.60925469  0.80394125  0.60308000  1
  Nb  Nb136  1  -0.00258471  0.20590874  0.00906315  1
  Nb  Nb137  1  0.80032302  -0.00057787  0.60614930  1
  Nb  Nb138  1  0.20672472  0.80297292  0.79875724  1
  Nb  Nb139  1  0.19934010  0.00395425  0.00257854  1
  Nb  Nb140  1  0.39537896  0.80020103  0.40001595  1
  Nb  Nb141  1  0.79466312  0.80188654  0.79213845  1
  Nb  Nb142  1  0.80157346  0.20885088  0.40230874  1
  Nb  Nb143  1  0.39887550  0.19857505  -0.00320364  1
  Nb  Nb144  1  0.40253796  0.59444503  0.59913428  1
  Nb  Nb145  1  0.20636686  -0.00037171  0.80342970  1
  Nb  Nb146  1  0.39577849  0.80016404  0.79512921  1
  Nb  Nb147  1  -0.00525163  0.39218556  0.20240438  1
  Nb  Nb148  1  -0.00691206  -0.00082627  0.60156924  1
  Nb  Nb149  1  0.60454558  0.60170372  0.20482221  1
  Pd  Pd150  1  0.38780587  -0.00527648  0.40443735  1
  Pd  Pd151  1  0.58682794  0.19443735  0.81078561  1
  Pd  Pd152  1  0.60982869  0.59074489  0.39610003  1
  Pd  Pd153  1  0.19774879  0.40850065  0.80806464  1
  Pd  Pd154  1  0.00681321  0.60404560  0.79785052  1
  Pd  Pd155  1  0.59578660  0.80443612  0.01067196  1
  Pd  Pd156  1  0.00656993  0.20748510  0.19278783  1
  Pd  Pd157  1  0.80471715  0.21138421  0.79816530  1
  Pd  Pd158  1  0.59881350  0.00456812  0.38856397  1
  Pd  Pd159  1  0.59603070  0.80311743  0.40054651  1
  Pd  Pd160  1  0.40329006  0.60781810  0.79371548  1
  Pd  Pd161  1  0.59249231  0.39970621  0.19956153  1
  Pd  Pd162  1  0.79570122  0.80569275  0.60196815  1
  Pd  Pd163  1  -0.00200544  0.00855173  -0.00845006  1
  Pd  Pd164  1  0.19880643  0.19329726  0.01051915  1
  Pd  Pd165  1  0.80392035  0.79614959  0.39405617  1
  Pd  Pd166  1  0.59752089  0.80212926  0.79533567  1
  Pd  Pd167  1  0.19645396  0.19128623  0.19662643  1
  Pd  Pd168  1  0.19923616  0.59568803  0.39638520  1
  Pd  Pd169  1  0.00523281  0.80222293  0.59895510  1
  Pd  Pd170  1  0.40104412  0.00031900  0.60092954  1
  Pd  Pd171  1  0.59456342  0.59840462  0.01107708  1
  Pd  Pd172  1  0.00368483  0.79270701  0.79261115  1
  Pd  Pd173  1  0.00356237  0.60690686  0.39535597  1
  Pd  Pd174  1  0.40174482  0.79215705  -0.01025052  1
  Pd  Pd175  1  0.80085419  0.40606430  -0.00395916  1
  Pd  Pd176  1  0.60951995  -0.01037862  0.01206984  1
  Pd  Pd177  1  0.80356309  0.59676642  0.00398199  1
  Pd  Pd178  1  0.20226331  0.59622640  0.00404646  1
  Pd  Pd179  1  0.79779061  0.60433587  0.19153803  1
  Pd  Pd180  1  0.20636778  -0.00256401  0.39335280  1
  Pd  Pd181  1  0.40057503  0.38972919  0.79567191  1
  Pd  Pd182  1  0.39187021  0.39273553  0.40191502  1
  Pd  Pd183  1  0.19430707  0.19347138  0.59589030  1
  Pd  Pd184  1  0.80952703  0.39386285  0.61353622  1
  Pd  Pd185  1  0.20368269  0.59495700  0.59492244  1
  Pd  Pd186  1  0.01517419  -0.00327114  0.79798648  1
  Pd  Pd187  1  0.60469899  0.40220656  0.39633098  1
  Pd  Pd188  1  0.79877312  0.60003960  0.40242159  1
  Pd  Pd189  1  0.60739162  -0.00403467  0.59968721  1
  Pd  Pd190  1  0.80650772  0.80485802  -0.01034936  1
  Pd  Pd191  1  0.59866592  0.59777883  0.80247946  1
  Pd  Pd192  1  -0.00564717  0.19847350  0.40510380  1
  Pd  Pd193  1  0.40738589  0.20492209  0.60592032  1
  Pd  Pd194  1  0.60543555  0.20128872  0.38798295  1
  Pd  Pd195  1  0.20081738  0.19721482  0.80213740  1
  Pd  Pd196  1  -0.00664080  0.19385265  0.58925369  1
  Pd  Pd197  1  -0.00065248  0.79635044  0.39442425  1
  Pd  Pd198  1  0.00311590  0.59599826  0.19663953  1
  Pd  Pd199  1  0.40704207  0.79951295  0.60088762  1
  Rh  Rh200  1  0.39898482  -0.00093638  0.79830124  1
  Rh  Rh201  1  -0.00159238  -0.00880549  0.40172207  1
  Rh  Rh202  1  0.38828307  0.60635946  0.40431844  1
  Rh  Rh203  1  0.59841880  0.40533043  -0.00284580  1
  Rh  Rh204  1  0.40248256  0.39935054  0.20160666  1
  Rh  Rh205  1  -0.00015341  0.59984085  0.00301009  1
  Rh  Rh206  1  0.59943739  0.59823133  0.59905814  1
  Rh  Rh207  1  -0.00852383  0.40193456  0.60691993  1
  Rh  Rh208  1  0.80681966  0.39809933  0.19882626  1
  Rh  Rh209  1  0.79702280  -0.00487592  0.80309538  1
  Rh  Rh210  1  -0.00004308  0.79668233  0.20675572  1
  Rh  Rh211  1  0.20001001  0.20284829  0.40300872  1
  Rh  Rh212  1  0.40015601  0.20137437  0.40441812  1
  Rh  Rh213  1  0.40457269  0.79018460  0.20734552  1
  Rh  Rh214  1  0.00339590  0.60567433  0.59982724  1
  Rh  Rh215  1  0.58845658  0.20502894  0.00472158  1
  Rh  Rh216  1  0.79394038  0.39795290  0.39754456  1
  Rh  Rh217  1  0.20685126  0.40655561  0.59068269  1
  Rh  Rh218  1  0.00140287  0.39508889  0.01631444  1
  Rh  Rh219  1  0.20485913  0.80537200  -0.00794767  1
  Rh  Rh220  1  0.20723399  0.41336828  -0.00315642  1
  Rh  Rh221  1  0.39763712  0.59919368  0.00202156  1
  Rh  Rh222  1  0.39748510  0.00501420  0.19918153  1
  Rh  Rh223  1  0.59281157  0.40500440  0.60025095  1
  Rh  Rh224  1  0.19494153  0.60279364  0.80252268  1
  Rh  Rh225  1  0.19012427  0.00521626  0.60865840  1
  Rh  Rh226  1  0.19236182  0.40415764  0.21212757  1
  Rh  Rh227  1  0.00260958  0.21086481  0.81309716  1
  Rh  Rh228  1  0.39596921  0.39688115  -0.00004246  1
  Rh  Rh229  1  0.80354586  0.59902867  0.59653671  1
  Rh  Rh230  1  0.19309684  0.80083428  0.60471579  1
  Rh  Rh231  1  0.79831889  0.60109006  0.79631777  1
  Rh  Rh232  1  0.19935149  0.60631244  0.19970753  1
  Rh  Rh233  1  -0.00609931  0.40210760  0.79555987  1
  Rh  Rh234  1  0.79868891  0.79539819  0.20228905  1
  Rh  Rh235  1  0.79485771  -0.00601202  0.18820209  1
  Rh  Rh236  1  0.60901122  0.40558315  0.80750239  1
  Rh  Rh237  1  0.00674931  0.40151553  0.38999319  1
  Rh  Rh238  1  0.39215677  0.00804692  0.01178701  1
  Rh  Rh239  1  0.60168856  0.19660621  0.59962814  1
  Rh  Rh240  1  0.59685861  0.00368885  0.80116875  1
  Rh  Rh241  1  -0.00593641  0.79201621  -0.00476919  1
  Rh  Rh242  1  0.79164355  0.20970032  0.20957720  1
  Rh  Rh243  1  0.19573014  0.79912500  0.19323161  1
  Rh  Rh244  1  0.40208089  0.59976310  0.19848487  1
  Rh  Rh245  1  0.20386778  0.80278033  0.39982593  1
  Rh  Rh246  1  0.00384599  -0.00799733  0.20617786  1
  Rh  Rh247  1  0.40912838  0.20404800  0.19395274  1
  Rh  Rh248  1  0.81219840  0.18973788  -0.00411783  1
  Rh  Rh249  1  0.80158190  -0.00078867  0.39824367  1
