# generated using pymatgen
data_ZrScNbPdRh
_symmetry_space_group_name_H-M   'P 1'
_cell_length_a   16.56182154
_cell_length_b   16.56150905
_cell_length_c   16.56183132
_cell_angle_alpha   89.98924465
_cell_angle_beta   89.97878466
_cell_angle_gamma   90.03671246
_symmetry_Int_Tables_number   1
_chemical_formula_structural   ZrScNbPdRh
_chemical_formula_sum   'Zr50 Sc50 Nb50 Pd50 Rh50'
_cell_volume   4542.72281062
_cell_formula_units_Z   50
loop_
 _symmetry_equiv_pos_site_id
 _symmetry_equiv_pos_as_xyz
  1  'x, y, z'
loop_
 _atom_site_type_symbol
 _atom_site_label
 _atom_site_symmetry_multiplicity
 _atom_site_fract_x
 _atom_site_fract_y
 _atom_site_fract_z
 _atom_site_occupancy
  Zr  Zr0  1  0.89941306  0.88786956  0.50415012  1
  Zr  Zr1  1  0.08352101  0.10161584  0.30427920  1
  Zr  Zr2  1  0.90450009  0.50085442  0.49650079  1
  Zr  Zr3  1  0.49512435  0.51058354  0.10690268  1
  Zr  Zr4  1  0.70061214  0.70788579  0.50046269  1
  Zr  Zr5  1  0.30019343  0.89946445  0.30673542  1
  Zr  Zr6  1  0.49666139  0.69454900  0.29439514  1
  Zr  Zr7  1  0.89113005  0.29186082  0.30817482  1
  Zr  Zr8  1  0.09625705  0.69344876  0.50220770  1
  Zr  Zr9  1  0.29440943  0.30361661  0.30353708  1
  Zr  Zr10  1  0.89758290  0.49976012  0.69775652  1
  Zr  Zr11  1  0.90408002  0.90226563  0.29599763  1
  Zr  Zr12  1  0.50636667  0.29285284  0.70142676  1
  Zr  Zr13  1  0.89727582  0.49889110  0.30043331  1
  Zr  Zr14  1  0.50625683  0.09541115  0.70607399  1
  Zr  Zr15  1  0.69863038  0.91342941  0.70355748  1
  Zr  Zr16  1  0.70465872  0.29681614  0.49197559  1
  Zr  Zr17  1  0.29531591  0.50199474  0.69923044  1
  Zr  Zr18  1  0.70089105  0.30153333  0.89837365  1
  Zr  Zr19  1  0.69882375  0.10432272  0.69421488  1
  Zr  Zr20  1  0.50174817  0.09954510  0.50476753  1
  Zr  Zr21  1  0.30164464  0.09754006  0.89381689  1
  Zr  Zr22  1  0.49142144  0.50587952  0.90290885  1
  Zr  Zr23  1  0.30642997  0.30078199  0.89337813  1
  Zr  Zr24  1  0.70053753  0.48468488  0.30346610  1
  Zr  Zr25  1  0.29563206  0.88947694  0.10035003  1
  Zr  Zr26  1  0.09289997  0.10341112  0.10018597  1
  Zr  Zr27  1  0.10076872  0.70580286  0.90254450  1
  Zr  Zr28  1  0.29143259  0.29950018  0.50455400  1
  Zr  Zr29  1  0.10374616  0.50392092  0.89494184  1
  Zr  Zr30  1  0.30375923  0.50336497  0.28881826  1
  Zr  Zr31  1  0.09940937  0.30889920  0.10312014  1
  Zr  Zr32  1  0.50478844  0.10357512  0.09453498  1
  Zr  Zr33  1  0.10072096  0.89608453  0.30260043  1
  Zr  Zr34  1  0.50276980  0.89185774  0.70173207  1
  Zr  Zr35  1  0.50237482  0.50289926  0.29894497  1
  Zr  Zr36  1  0.50220753  0.89079303  0.09649328  1
  Zr  Zr37  1  0.71147607  0.10558854  0.30080517  1
  Zr  Zr38  1  0.70682864  0.30190235  0.70117117  1
  Zr  Zr39  1  0.70253961  0.29655071  0.09874655  1
  Zr  Zr40  1  0.88989283  0.89937318  0.09525316  1
  Zr  Zr41  1  0.90030650  0.50225094  0.10384231  1
  Zr  Zr42  1  0.89890868  0.69538793  0.09787529  1
  Zr  Zr43  1  0.29925416  0.50860946  0.51145866  1
  Zr  Zr44  1  0.90428400  0.69273390  0.30586889  1
  Zr  Zr45  1  0.89673544  0.09857902  0.10139209  1
  Zr  Zr46  1  0.88906589  0.10391481  0.70487447  1
  Zr  Zr47  1  0.29594488  0.89516149  0.70067063  1
  Zr  Zr48  1  0.10318720  0.89840149  0.70099265  1
  Zr  Zr49  1  0.49233799  0.09795970  0.30822321  1
  Sc  Sc50  1  0.29654932  0.09569120  0.70121930  1
  Sc  Sc51  1  0.90385460  0.69426847  0.90080740  1
  Sc  Sc52  1  0.49746959  0.29312599  0.50446002  1
  Sc  Sc53  1  0.09480271  0.29171971  0.50126066  1
  Sc  Sc54  1  0.49688448  0.29357809  0.08900640  1
  Sc  Sc55  1  0.70569383  0.89343788  0.29596997  1
  Sc  Sc56  1  0.70565075  0.49858412  0.11005257  1
  Sc  Sc57  1  0.10480180  0.49807742  0.09533848  1
  Sc  Sc58  1  0.30241388  0.10619730  0.31105204  1
  Sc  Sc59  1  0.09858522  0.88626659  0.09888571  1
  Sc  Sc60  1  0.70391524  0.90073725  0.90389308  1
  Sc  Sc61  1  0.49557295  0.70313146  0.89004519  1
  Sc  Sc62  1  0.30176220  0.88949768  0.49517895  1
  Sc  Sc63  1  0.10352533  0.30371113  0.69339809  1
  Sc  Sc64  1  0.70074793  0.69772474  0.29833815  1
  Sc  Sc65  1  0.90396192  0.49961779  0.89970130  1
  Sc  Sc66  1  0.09363695  0.09357323  0.90603704  1
  Sc  Sc67  1  0.30110403  0.50397047  0.89321608  1
  Sc  Sc68  1  0.29755409  0.69829846  0.50195486  1
  Sc  Sc69  1  0.90239524  0.89604768  0.69586850  1
  Sc  Sc70  1  0.49980850  0.29363258  0.89537466  1
  Sc  Sc71  1  0.29781208  0.70951806  0.30727937  1
  Sc  Sc72  1  0.30476003  0.50352062  0.09149243  1
  Sc  Sc73  1  0.29850020  0.30339156  0.69769464  1
  Sc  Sc74  1  0.30662154  0.11172465  0.10141074  1
  Sc  Sc75  1  0.29867921  0.69640963  0.90039345  1
  Sc  Sc76  1  0.09118814  0.50925529  0.30154029  1
  Sc  Sc77  1  0.50417569  0.30183222  0.30639382  1
  Sc  Sc78  1  0.09573934  0.70176007  0.70178219  1
  Sc  Sc79  1  0.10145573  0.50146809  0.69719361  1
  Sc  Sc80  1  0.30255736  0.10756417  0.49649583  1
  Sc  Sc81  1  0.09453450  0.31501824  0.90185202  1
  Sc  Sc82  1  0.50387404  0.90222796  0.89229728  1
  Sc  Sc83  1  0.29977905  0.31085889  0.10462888  1
  Sc  Sc84  1  0.09375988  0.30266423  0.31007395  1
  Sc  Sc85  1  0.89673246  0.29860282  0.69353309  1
  Sc  Sc86  1  0.70210684  0.50054978  0.70644033  1
  Sc  Sc87  1  0.70713253  0.09544196  0.09179932  1
  Sc  Sc88  1  0.10326289  0.09422511  0.68726862  1
  Sc  Sc89  1  0.71172333  0.50608825  0.89159018  1
  Sc  Sc90  1  0.70340347  0.09740624  0.89643290  1
  Sc  Sc91  1  0.70183265  0.89267205  0.09582054  1
  Sc  Sc92  1  0.09740695  0.70366576  0.29932751  1
  Sc  Sc93  1  0.90218108  0.30337884  0.50355371  1
  Sc  Sc94  1  0.89604643  0.29844428  0.09264225  1
  Sc  Sc95  1  0.89504295  0.30280332  0.90030616  1
  Sc  Sc96  1  0.90593377  0.10768768  0.50498186  1
  Sc  Sc97  1  0.29497171  0.89314252  0.88869208  1
  Sc  Sc98  1  0.49549262  0.51247441  0.69872500  1
  Sc  Sc99  1  0.49352026  0.89030671  0.30696299  1
  Nb  Nb100  1  0.10363361  0.10268491  0.50008202  1
  Nb  Nb101  1  0.09902644  0.89747228  0.89259293  1
  Nb  Nb102  1  0.49532340  0.10529122  0.90492011  1
  Nb  Nb103  1  0.10223315  0.50132408  0.50083323  1
  Nb  Nb104  1  0.69845867  0.90531762  0.49979100  1
  Nb  Nb105  1  0.89883775  0.69875698  0.50936162  1
  Nb  Nb106  1  0.90158029  0.70348859  0.69136376  1
  Nb  Nb107  1  0.70126840  0.49760181  0.50246956  1
  Nb  Nb108  1  0.71002949  0.69446125  0.90027496  1
  Nb  Nb109  1  0.70017891  0.69420856  0.71061323  1
  Nb  Nb110  1  0.49949047  0.69938143  0.09624571  1
  Nb  Nb111  1  0.89653596  0.09464891  0.29733094  1
  Nb  Nb112  1  0.50459656  0.89573600  0.50085289  1
  Nb  Nb113  1  0.29561250  0.70188189  0.09376679  1
  Nb  Nb114  1  0.50425713  0.70275960  0.69561402  1
  Nb  Nb115  1  0.30722466  0.70167026  0.70137536  1
  Nb  Nb116  1  0.09871902  0.90538845  0.50441766  1
  Nb  Nb117  1  0.90187549  0.89874624  0.89601458  1
  Nb  Nb118  1  0.89834119  0.09489926  0.90370957  1
  Nb  Nb119  1  0.69994270  0.70279333  0.08711436  1
  Nb  Nb120  1  0.50370030  0.69871065  0.50731827  1
  Nb  Nb121  1  0.10894183  0.69752152  0.09670254  1
  Nb  Nb122  1  0.70242271  0.29859436  0.29777970  1
  Nb  Nb123  1  0.49845263  0.50643324  0.50463354  1
  Nb  Nb124  1  0.69904158  0.09547714  0.50363190  1
  Nb  Nb125  1  0.20285350  -0.00000363  0.00339203  1
  Nb  Nb126  1  0.59963389  0.40939812  -0.00266928  1
  Nb  Nb127  1  0.39714411  0.40942874  0.40758915  1
  Nb  Nb128  1  0.40594304  -0.00805252  0.59761096  1
  Nb  Nb129  1  0.60283249  0.60408974  0.00168619  1
  Nb  Nb130  1  0.20126183  0.41103527  0.40553717  1
  Nb  Nb131  1  0.20222083  0.00510272  0.20138128  1
  Nb  Nb132  1  0.80042230  0.00058949  0.40444616  1
  Nb  Nb133  1  0.00110550  0.19358778  0.80053044  1
  Nb  Nb134  1  0.60455823  0.19639455  0.20346642  1
  Nb  Nb135  1  0.19796767  0.20079435  -0.00067149  1
  Nb  Nb136  1  0.39766582  -0.00059780  0.00081997  1
  Nb  Nb137  1  -0.00354254  -0.00058237  0.80278494  1
  Nb  Nb138  1  0.79942613  0.60569854  0.59950474  1
  Nb  Nb139  1  0.59588026  0.00201945  0.20517675  1
  Nb  Nb140  1  0.59805617  0.59648651  0.40979934  1
  Nb  Nb141  1  0.60558483  -0.00372529  0.40292382  1
  Nb  Nb142  1  0.19128382  0.19936149  0.80611617  1
  Nb  Nb143  1  0.20186885  0.60694633  0.19355768  1
  Nb  Nb144  1  0.60085552  0.40565749  0.59641788  1
  Nb  Nb145  1  0.19372085  0.19879484  0.20042143  1
  Nb  Nb146  1  0.19099966  0.00132374  0.40163648  1
  Nb  Nb147  1  0.40001597  -0.00228060  0.19560497  1
  Nb  Nb148  1  0.80082006  0.79391084  0.79782168  1
  Nb  Nb149  1  -0.00613049  0.40185843  0.20315042  1
  Pd  Pd150  1  0.79391682  0.40867777  -0.00111881  1
  Pd  Pd151  1  -0.00450222  0.21126683  0.20155662  1
  Pd  Pd152  1  0.60486460  0.19420872  0.80739602  1
  Pd  Pd153  1  0.80174982  0.79131952  0.20021062  1
  Pd  Pd154  1  0.39395043  0.19146603  0.60857326  1
  Pd  Pd155  1  0.19612854  0.79255405  0.59891449  1
  Pd  Pd156  1  -0.00476862  0.00134499  0.41069584  1
  Pd  Pd157  1  0.59191465  0.40265240  0.40979421  1
  Pd  Pd158  1  0.39946034  0.80144472  -0.01203256  1
  Pd  Pd159  1  -0.00164070  0.60312948  0.79572353  1
  Pd  Pd160  1  0.20790254  0.40083421  -0.00817414  1
  Pd  Pd161  1  -0.00267435  0.79351977  0.19513153  1
  Pd  Pd162  1  0.79306274  0.59934365  0.40555154  1
  Pd  Pd163  1  0.78789040  0.79830357  0.61136522  1
  Pd  Pd164  1  -0.00342606  0.80024271  0.00027293  1
  Pd  Pd165  1  0.61115944  0.60423016  0.19810488  1
  Pd  Pd166  1  0.80303739  0.80311849  0.39606349  1
  Pd  Pd167  1  0.80892021  0.00065948  0.59393757  1
  Pd  Pd168  1  0.59244473  0.38871596  0.18957477  1
  Pd  Pd169  1  -0.00751615  0.00261849  0.60463563  1
  Pd  Pd170  1  0.00473677  0.39955306  0.59884861  1
  Pd  Pd171  1  0.40858225  0.39922864  0.60135984  1
  Pd  Pd172  1  0.41052396  0.39110386  0.20246687  1
  Pd  Pd173  1  0.40126282  0.20327059  0.20469569  1
  Pd  Pd174  1  0.00093067  0.20841878  -0.00930968  1
  Pd  Pd175  1  0.19944592  0.59935445  0.39037074  1
  Pd  Pd176  1  0.00400685  -0.00879379  0.19018688  1
  Pd  Pd177  1  0.40363513  -0.00381737  0.79825296  1
  Pd  Pd178  1  0.60997709  0.79815204  0.80545116  1
  Pd  Pd179  1  0.60035880  0.19460838  0.39784426  1
  Pd  Pd180  1  0.60247006  0.80135866  0.20057702  1
  Pd  Pd181  1  0.60956945  0.59662181  0.60057557  1
  Pd  Pd182  1  0.59766643  0.79755737  0.39551446  1
  Pd  Pd183  1  0.59567759  0.59861475  0.80763202  1
  Pd  Pd184  1  -0.00375418  0.39296691  0.79290556  1
  Pd  Pd185  1  0.39696135  0.79728724  0.20091786  1
  Pd  Pd186  1  0.39968723  0.79917345  0.59629033  1
  Pd  Pd187  1  0.59787442  -0.00051192  -0.00079511  1
  Pd  Pd188  1  0.60011808  0.79281136  -0.01364455  1
  Pd  Pd189  1  0.40349578  0.39886413  -0.00054160  1
  Pd  Pd190  1  0.60926134  0.80201022  0.60603436  1
  Pd  Pd191  1  0.40619599  0.40225480  0.79139294  1
  Pd  Pd192  1  0.21421527  -0.00009119  0.58677232  1
  Pd  Pd193  1  0.00362814  -0.01180238  0.00013607  1
  Pd  Pd194  1  0.20010758  0.60748672  0.79518384  1
  Pd  Pd195  1  0.40210018  0.60301858  0.40312563  1
  Pd  Pd196  1  0.00533502  0.59564802  0.00162143  1
  Pd  Pd197  1  0.79289604  0.60567976  0.20046108  1
  Pd  Pd198  1  0.00164339  0.79564401  0.40521723  1
  Pd  Pd199  1  0.59513741  0.40916776  0.79931847  1
  Rh  Rh200  1  0.80002752  -0.00263768  -0.00365708  1
  Rh  Rh201  1  0.19766769  0.60573549  0.60902151  1
  Rh  Rh202  1  0.20168236  0.59752388  0.00048103  1
  Rh  Rh203  1  0.80533926  0.19214547  0.40878964  1
  Rh  Rh204  1  0.39919145  0.60578526  0.79330014  1
  Rh  Rh205  1  0.19334200  0.40183444  0.59387207  1
  Rh  Rh206  1  0.79645842  0.20212759  0.59384819  1
  Rh  Rh207  1  0.80652911  0.79747709  -0.00994835  1
  Rh  Rh208  1  0.00184858  0.19842120  0.60710445  1
  Rh  Rh209  1  -0.00676799  0.19760209  0.40510975  1
  Rh  Rh210  1  0.79705013  0.59590845  0.00292048  1
  Rh  Rh211  1  0.39000618  0.20014503  -0.00559022  1
  Rh  Rh212  1  0.80874275  0.39104736  0.20223615  1
  Rh  Rh213  1  0.18498256  0.40615225  0.21396588  1
  Rh  Rh214  1  0.39841703  0.79664146  0.79757257  1
  Rh  Rh215  1  0.38722203  0.61317844  0.19328548  1
  Rh  Rh216  1  0.80301460  0.39870361  0.40334666  1
  Rh  Rh217  1  0.19954159  0.39563440  0.79935748  1
  Rh  Rh218  1  0.19202879  0.19734818  0.39438349  1
  Rh  Rh219  1  0.20046832  0.79394118  0.20263008  1
  Rh  Rh220  1  0.39479507  0.19863935  0.79300931  1
  Rh  Rh221  1  -0.00678185  0.80474477  0.79754496  1
  Rh  Rh222  1  0.00997256  0.59848023  0.19140304  1
  Rh  Rh223  1  0.40321483  0.60924194  0.00038867  1
  Rh  Rh224  1  0.39964614  0.61111722  0.60555992  1
  Rh  Rh225  1  -0.00069219  0.60235612  0.40485600  1
  Rh  Rh226  1  0.60041906  0.00520204  0.80776520  1
  Rh  Rh227  1  -0.00315938  0.59716532  0.60175489  1
  Rh  Rh228  1  0.39875768  0.21656113  0.40282108  1
  Rh  Rh229  1  0.80086626  0.19454673  -0.00527319  1
  Rh  Rh230  1  0.40057980  -0.00721407  0.40737539  1
  Rh  Rh231  1  0.18889105  0.80431997  0.40968337  1
  Rh  Rh232  1  0.19974358  0.19851234  0.60742708  1
  Rh  Rh233  1  0.40918998  0.78896597  0.40868208  1
  Rh  Rh234  1  0.01039203  0.79963747  0.59806811  1
  Rh  Rh235  1  0.79973360  0.20096113  0.19432201  1
  Rh  Rh236  1  0.00355456  0.40300289  0.39912457  1
  Rh  Rh237  1  0.81397654  0.60641008  0.79177443  1
  Rh  Rh238  1  0.59258370  -0.00465840  0.59665829  1
  Rh  Rh239  1  0.60874961  0.21018012  0.59868456  1
  Rh  Rh240  1  0.80754618  0.39930942  0.79872285  1
  Rh  Rh241  1  0.80593997  -0.00736854  0.80320278  1
  Rh  Rh242  1  0.20049323  0.79159981  0.79866307  1
  Rh  Rh243  1  0.79471931  -0.00326381  0.20291619  1
  Rh  Rh244  1  0.79436923  0.40569253  0.59906238  1
  Rh  Rh245  1  -0.00597938  0.40609961  0.00559015  1
  Rh  Rh246  1  0.19922113  0.80508456  -0.00954643  1
  Rh  Rh247  1  0.80483190  0.20201563  0.80689263  1
  Rh  Rh248  1  0.60755725  0.20614211  -0.00235596  1
  Rh  Rh249  1  0.18660696  0.00637609  0.80692705  1
