# generated using pymatgen
data_ZrScNbPdRh
_symmetry_space_group_name_H-M   'P 1'
_cell_length_a   16.55951613
_cell_length_b   16.55898265
_cell_length_c   16.56199440
_cell_angle_alpha   90.05015089
_cell_angle_beta   89.98957083
_cell_angle_gamma   89.98019109
_symmetry_Int_Tables_number   1
_chemical_formula_structural   ZrScNbPdRh
_chemical_formula_sum   'Zr50 Sc50 Nb50 Pd50 Rh50'
_cell_volume   4541.44153288
_cell_formula_units_Z   50
loop_
 _symmetry_equiv_pos_site_id
 _symmetry_equiv_pos_as_xyz
  1  'x, y, z'
loop_
 _atom_site_type_symbol
 _atom_site_label
 _atom_site_symmetry_multiplicity
 _atom_site_fract_x
 _atom_site_fract_y
 _atom_site_fract_z
 _atom_site_occupancy
  Zr  Zr0  1  0.49474417  0.30018156  0.49772598  1
  Zr  Zr1  1  0.10304618  0.29278776  0.30000816  1
  Zr  Zr2  1  0.89543012  0.09673030  0.90241691  1
  Zr  Zr3  1  0.30097796  0.89942474  0.49552237  1
  Zr  Zr4  1  0.09543732  0.69114032  0.29262054  1
  Zr  Zr5  1  0.50413878  0.50381685  0.08799366  1
  Zr  Zr6  1  0.69384270  0.88506349  0.69835916  1
  Zr  Zr7  1  0.49902778  0.70415630  0.10156524  1
  Zr  Zr8  1  0.08805042  0.10751313  0.30652398  1
  Zr  Zr9  1  0.09800239  0.89217632  0.69805492  1
  Zr  Zr10  1  0.69143377  0.29651691  0.50242087  1
  Zr  Zr11  1  0.90291002  0.50074242  0.31156799  1
  Zr  Zr12  1  0.50169634  0.10405943  0.09475133  1
  Zr  Zr13  1  0.49436470  0.89626723  0.11473282  1
  Zr  Zr14  1  0.30829661  0.09424869  0.89729692  1
  Zr  Zr15  1  0.69811248  0.90350961  0.49844222  1
  Zr  Zr16  1  0.70044432  0.49681073  0.49906380  1
  Zr  Zr17  1  0.90012473  0.89855328  0.89992184  1
  Zr  Zr18  1  0.10334964  0.10139469  0.89631265  1
  Zr  Zr19  1  0.89690178  0.70246136  0.89873705  1
  Zr  Zr20  1  0.10216752  0.49819120  0.29687139  1
  Zr  Zr21  1  0.89742351  0.30175232  0.70118273  1
  Zr  Zr22  1  0.90184811  0.69776674  0.50527463  1
  Zr  Zr23  1  0.90412573  0.09054012  0.48906985  1
  Zr  Zr24  1  0.90531247  0.69445787  0.10111715  1
  Zr  Zr25  1  0.09885534  0.70010298  0.50703057  1
  Zr  Zr26  1  0.70150229  0.29910054  0.29867278  1
  Zr  Zr27  1  0.48958915  0.30206329  0.89819164  1
  Zr  Zr28  1  0.50022889  0.49570416  0.30125959  1
  Zr  Zr29  1  0.29914864  0.30419388  0.69246620  1
  Zr  Zr30  1  0.50828014  0.10285458  0.50341447  1
  Zr  Zr31  1  0.49505115  0.30034563  0.10149204  1
  Zr  Zr32  1  0.29776036  0.10487624  0.50051365  1
  Zr  Zr33  1  0.69666837  0.09829901  0.49529226  1
  Zr  Zr34  1  0.10196130  0.29188470  0.50898064  1
  Zr  Zr35  1  0.30477726  0.89983493  0.29353409  1
  Zr  Zr36  1  0.69880429  0.50057723  0.70856321  1
  Zr  Zr37  1  0.69527501  0.70031749  0.30339456  1
  Zr  Zr38  1  0.09472942  0.29771195  0.70529958  1
  Zr  Zr39  1  0.30423564  0.30488241  0.29691535  1
  Zr  Zr40  1  0.49700753  0.10346404  0.89407839  1
  Zr  Zr41  1  0.49499570  0.30607373  0.69759449  1
  Zr  Zr42  1  0.09871538  0.30874724  0.10544477  1
  Zr  Zr43  1  0.49708655  0.89994031  0.51005028  1
  Zr  Zr44  1  0.70161672  0.50981974  0.89626216  1
  Zr  Zr45  1  0.08575830  0.50574086  0.49839195  1
  Zr  Zr46  1  0.29868841  0.89677905  0.08673706  1
  Zr  Zr47  1  0.90082227  0.88828290  0.70155821  1
  Zr  Zr48  1  0.30166654  0.09357398  0.09776809  1
  Zr  Zr49  1  0.89556881  0.69529503  0.29671473  1
  Sc  Sc50  1  0.10204452  0.10750307  0.69545895  1
  Sc  Sc51  1  0.69417761  0.09389930  0.90870207  1
  Sc  Sc52  1  0.10171355  0.89933973  0.30118095  1
  Sc  Sc53  1  0.28988831  0.10486608  0.29922600  1
  Sc  Sc54  1  0.50108308  0.89857472  0.30128627  1
  Sc  Sc55  1  0.70544805  0.89843654  0.90514422  1
  Sc  Sc56  1  0.90382288  0.50109899  0.09737391  1
  Sc  Sc57  1  0.89200982  0.89632563  0.50029566  1
  Sc  Sc58  1  0.49681883  0.29904028  0.30279124  1
  Sc  Sc59  1  0.71259095  0.69973554  0.10013121  1
  Sc  Sc60  1  0.29944441  0.69850149  0.49831741  1
  Sc  Sc61  1  0.11030624  0.10508874  0.10780925  1
  Sc  Sc62  1  0.30031615  0.49868077  0.29933356  1
  Sc  Sc63  1  0.90517314  0.30898985  0.89141048  1
  Sc  Sc64  1  0.49766531  0.69954306  0.49780922  1
  Sc  Sc65  1  0.70475665  0.30435960  0.69285194  1
  Sc  Sc66  1  0.30507346  0.89875723  0.68504060  1
  Sc  Sc67  1  0.70340229  0.30805785  0.89486131  1
  Sc  Sc68  1  0.90158556  0.30923431  0.10760664  1
  Sc  Sc69  1  0.70813864  0.49869598  0.08664441  1
  Sc  Sc70  1  0.89905556  0.49505196  0.70464900  1
  Sc  Sc71  1  0.30423758  0.10309386  0.70185732  1
  Sc  Sc72  1  0.70194400  0.10717343  0.68851056  1
  Sc  Sc73  1  0.30239558  0.49783208  0.69209216  1
  Sc  Sc74  1  0.09945059  0.51327543  0.70438569  1
  Sc  Sc75  1  0.29476209  0.69480308  0.68760656  1
  Sc  Sc76  1  0.89334557  0.10041667  0.10547795  1
  Sc  Sc77  1  0.29770685  0.48834703  0.10342730  1
  Sc  Sc78  1  0.70345989  0.50001709  0.31315003  1
  Sc  Sc79  1  0.09616574  0.69081999  0.89494360  1
  Sc  Sc80  1  0.09560098  0.50022291  0.10040662  1
  Sc  Sc81  1  0.50007321  0.70513655  0.30167278  1
  Sc  Sc82  1  0.69559353  0.09591257  0.10655921  1
  Sc  Sc83  1  0.10017035  0.10242091  0.49379467  1
  Sc  Sc84  1  0.10742764  0.89953547  0.49865474  1
  Sc  Sc85  1  0.90188142  0.10718872  0.69924443  1
  Sc  Sc86  1  0.88494622  0.89653896  0.09999399  1
  Sc  Sc87  1  0.50445985  0.49718402  0.89839856  1
  Sc  Sc88  1  0.70508625  0.69804533  0.89783428  1
  Sc  Sc89  1  0.90392536  0.30801447  0.50805159  1
  Sc  Sc90  1  0.90843106  0.29716498  0.29515551  1
  Sc  Sc91  1  0.90470578  0.50155589  0.90113125  1
  Sc  Sc92  1  0.50506142  0.91033078  0.88884129  1
  Sc  Sc93  1  0.69798272  0.70430457  0.49769830  1
  Sc  Sc94  1  0.10228261  0.89643184  0.90126946  1
  Sc  Sc95  1  0.50886889  0.09921163  0.30352556  1
  Sc  Sc96  1  0.89442774  0.90376416  0.30493701  1
  Sc  Sc97  1  0.49829608  0.49912033  0.49538987  1
  Sc  Sc98  1  0.29615181  0.69642519  0.30085834  1
  Sc  Sc99  1  0.50046078  0.69113871  0.91366035  1
  Nb  Nb100  1  0.89528361  0.50569917  0.50413413  1
  Nb  Nb101  1  0.10080534  0.69894756  0.09856638  1
  Nb  Nb102  1  0.10022779  0.30439490  0.90389226  1
  Nb  Nb103  1  0.90323854  0.09810228  0.30313521  1
  Nb  Nb104  1  0.70101385  0.69638273  0.70482009  1
  Nb  Nb105  1  0.69059466  0.90702387  0.29327606  1
  Nb  Nb106  1  0.09028558  0.70650679  0.69586150  1
  Nb  Nb107  1  0.30474490  0.70373771  0.90558200  1
  Nb  Nb108  1  0.50008958  0.50644548  0.70666929  1
  Nb  Nb109  1  0.30106188  0.30615227  0.50347704  1
  Nb  Nb110  1  0.30776623  0.70590963  0.08482610  1
  Nb  Nb111  1  0.29966645  0.30531467  0.89578303  1
  Nb  Nb112  1  0.69444159  0.89965586  0.10330552  1
  Nb  Nb113  1  0.70258862  0.29867369  0.10196339  1
  Nb  Nb114  1  0.30021549  0.50369008  0.89600100  1
  Nb  Nb115  1  0.29849866  0.29703964  0.10248575  1
  Nb  Nb116  1  0.70208312  0.09575044  0.30346830  1
  Nb  Nb117  1  0.29916498  0.49240012  0.50132013  1
  Nb  Nb118  1  0.90136604  0.70596606  0.70054410  1
  Nb  Nb119  1  0.29831085  0.89429553  0.90060576  1
  Nb  Nb120  1  0.50419712  0.70629791  0.70017177  1
  Nb  Nb121  1  0.49698625  0.09327664  0.70957141  1
  Nb  Nb122  1  0.09991823  0.49575403  0.90318202  1
  Nb  Nb123  1  0.10422285  0.90017167  0.09594964  1
  Nb  Nb124  1  0.49988630  0.89334188  0.70006834  1
  Nb  Nb125  1  0.40291811  0.60160136  0.19212273  1
  Nb  Nb126  1  0.80016424  -0.00328817  0.79587634  1
  Nb  Nb127  1  0.80048894  0.19353695  0.39487792  1
  Nb  Nb128  1  -0.00009669  -0.00097395  0.19750087  1
  Nb  Nb129  1  0.60198891  0.80443098  0.00839028  1
  Nb  Nb130  1  0.39842426  0.60468031  0.79950942  1
  Nb  Nb131  1  0.59926988  0.59523337  0.19856124  1
  Nb  Nb132  1  0.20062574  0.39838652  0.40951524  1
  Nb  Nb133  1  -0.00066728  -0.00351129  0.59947486  1
  Nb  Nb134  1  0.79799201  0.60229996  0.60592582  1
  Nb  Nb135  1  -0.00004095  0.79355924  0.39820415  1
  Nb  Nb136  1  0.00174530  0.20094865  0.00049762  1
  Nb  Nb137  1  0.80073496  0.20605329  0.00404246  1
  Nb  Nb138  1  0.39926224  0.79564962  0.79843953  1
  Nb  Nb139  1  0.20656001  0.79536502  0.80102176  1
  Nb  Nb140  1  0.19874788  0.40112019  0.80770165  1
  Nb  Nb141  1  0.20265372  0.21037356  -0.00409550  1
  Nb  Nb142  1  0.59339447  0.19948126  0.79666214  1
  Nb  Nb143  1  0.60090770  0.60295901  0.61021291  1
  Nb  Nb144  1  0.00330035  -0.00031844  0.00834537  1
  Nb  Nb145  1  0.19896340  0.79663795  0.18601798  1
  Nb  Nb146  1  0.20424019  0.60112217  -0.00335983  1
  Nb  Nb147  1  0.20505222  -0.00889010  0.80021415  1
  Nb  Nb148  1  0.60430759  0.40172039  0.19503761  1
  Nb  Nb149  1  0.00480315  0.80078709  0.00774860  1
  Pd  Pd150  1  0.00371125  0.40799002  0.60892720  1
  Pd  Pd151  1  -0.00606485  0.59906143  0.79804589  1
  Pd  Pd152  1  0.19471988  0.00477027  0.60493404  1
  Pd  Pd153  1  0.59962453  -0.00031821  0.60974967  1
  Pd  Pd154  1  0.20660005  0.20204427  0.80161305  1
  Pd  Pd155  1  0.40312520  0.00640945  0.39683081  1
  Pd  Pd156  1  0.19855397  0.00202623  0.39487987  1
  Pd  Pd157  1  0.39700672  0.19539214  0.39732383  1
  Pd  Pd158  1  0.39816945  0.59839137  0.39401502  1
  Pd  Pd159  1  0.78760821  0.19294043  0.80848887  1
  Pd  Pd160  1  0.00296101  0.80974754  0.20007539  1
  Pd  Pd161  1  -0.00358691  0.20068147  0.80567772  1
  Pd  Pd162  1  0.21253857  0.60492276  0.18576208  1
  Pd  Pd163  1  0.20641556  0.60258535  0.80194244  1
  Pd  Pd164  1  0.61428137  0.00658431  0.79018110  1
  Pd  Pd165  1  0.59370307  0.40994777  0.60023230  1
  Pd  Pd166  1  0.40126568  0.00610132  0.60206590  1
  Pd  Pd167  1  0.39102068  0.20300629  -0.00118255  1
  Pd  Pd168  1  0.60745847  0.20976257  -0.00830142  1
  Pd  Pd169  1  0.59890785  0.20291425  0.20361730  1
  Pd  Pd170  1  0.79295837  0.58817519  0.20091597  1
  Pd  Pd171  1  0.40277456  0.19459733  0.60355948  1
  Pd  Pd172  1  0.19567407  0.79602993  0.39157483  1
  Pd  Pd173  1  0.79700531  0.40985448  0.20255472  1
  Pd  Pd174  1  0.39989453  0.19260959  0.20608196  1
  Pd  Pd175  1  0.80847901  0.19952999  0.58666520  1
  Pd  Pd176  1  0.80194787  -0.00089859  0.20374257  1
  Pd  Pd177  1  0.80739506  0.39627504  -0.00535461  1
  Pd  Pd178  1  0.19416544  -0.00435928  0.20506667  1
  Pd  Pd179  1  0.19784282  0.59557550  0.59603119  1
  Pd  Pd180  1  0.59507355  0.79139269  0.81587805  1
  Pd  Pd181  1  0.20185756  0.59356562  0.40658674  1
  Pd  Pd182  1  0.40045077  0.79761454  0.39958149  1
  Pd  Pd183  1  0.18805556  0.40880398  0.60360201  1
  Pd  Pd184  1  0.79491367  0.80331431  0.20512684  1
  Pd  Pd185  1  0.00210528  0.00189612  0.79526483  1
  Pd  Pd186  1  0.59337245  -0.00819293  0.00612573  1
  Pd  Pd187  1  0.80533218  0.38756652  0.40493709  1
  Pd  Pd188  1  0.60448956  0.39161153  0.00042920  1
  Pd  Pd189  1  0.80096877  0.80094553  0.39572163  1
  Pd  Pd190  1  0.80306021  0.19822033  0.20102631  1
  Pd  Pd191  1  0.41094262  -0.00830493  -0.00212354  1
  Pd  Pd192  1  0.00500098  0.39242338  0.40072231  1
  Pd  Pd193  1  0.39502323  0.40399087  0.00021306  1
  Pd  Pd194  1  0.40724550  0.59946018  0.60122395  1
  Pd  Pd195  1  0.40430876  0.01015163  0.20734623  1
  Pd  Pd196  1  0.59513058  0.80625707  0.40334108  1
  Pd  Pd197  1  0.20268847  0.40315886  -0.00202559  1
  Pd  Pd198  1  0.80622235  -0.00159727  0.60878662  1
  Pd  Pd199  1  0.59976958  0.39316804  0.80073296  1
  Rh  Rh200  1  0.59664585  0.39331622  0.39475242  1
  Rh  Rh201  1  0.00400483  -0.01375709  0.39898346  1
  Rh  Rh202  1  0.20229109  0.79595514  0.60304216  1
  Rh  Rh203  1  0.41773730  0.81299777  -0.01319053  1
  Rh  Rh204  1  0.58996975  0.60726511  0.80092315  1
  Rh  Rh205  1  0.40739695  0.40794310  0.59741930  1
  Rh  Rh206  1  0.79333888  0.79085732  0.60167359  1
  Rh  Rh207  1  0.40853595  0.40598288  0.19411581  1
  Rh  Rh208  1  0.00908954  0.79363863  0.81001653  1
  Rh  Rh209  1  -0.00374620  0.60685169  0.39884033  1
  Rh  Rh210  1  -0.00462193  0.18979905  0.59494487  1
  Rh  Rh211  1  0.79923300  0.79865015  0.00239066  1
  Rh  Rh212  1  0.80064141  0.00533194  -0.00049309  1
  Rh  Rh213  1  -0.00169418  0.40754733  0.20585585  1
  Rh  Rh214  1  0.80093418  0.40355349  0.80200422  1
  Rh  Rh215  1  0.59868187  0.60126786  0.40154305  1
  Rh  Rh216  1  0.80575302  0.59968108  -0.00451961  1
  Rh  Rh217  1  0.00566290  0.60300736  -0.00055542  1
  Rh  Rh218  1  -0.00149711  0.19135949  0.19058606  1
  Rh  Rh219  1  -0.00318044  0.59130311  0.19797975  1
  Rh  Rh220  1  0.61395339  0.61270431  0.00570984  1
  Rh  Rh221  1  0.39890335  0.79524671  0.59977073  1
  Rh  Rh222  1  0.59946609  0.79253989  0.59411266  1
  Rh  Rh223  1  0.59673096  0.00415332  0.19979795  1
  Rh  Rh224  1  0.20878569  0.20971994  0.40470170  1
  Rh  Rh225  1  0.00920652  0.40563790  0.79795684  1
  Rh  Rh226  1  0.39060609  0.58812702  0.00079539  1
  Rh  Rh227  1  0.39250536  0.40966580  0.79596444  1
  Rh  Rh228  1  0.40115526  0.20685280  0.79341920  1
  Rh  Rh229  1  0.20460440  0.20306746  0.19479545  1
  Rh  Rh230  1  0.39336960  0.40108498  0.40345685  1
  Rh  Rh231  1  0.79350429  -0.00058063  0.39425766  1
  Rh  Rh232  1  0.39048630  -0.01540417  0.79244161  1
  Rh  Rh233  1  0.19006113  0.78863176  -0.00480725  1
  Rh  Rh234  1  0.20369750  0.19708185  0.60063851  1
  Rh  Rh235  1  0.60556569  0.20276955  0.39454573  1
  Rh  Rh236  1  0.38556196  0.78952231  0.20593274  1
  Rh  Rh237  1  0.79958526  0.40706157  0.59966795  1
  Rh  Rh238  1  0.19637619  0.00912403  -0.00832173  1
  Rh  Rh239  1  0.59706469  -0.00645565  0.39965201  1
  Rh  Rh240  1  0.79913176  0.60420011  0.41033883  1
  Rh  Rh241  1  0.00038223  0.80835017  0.58732304  1
  Rh  Rh242  1  -0.01173024  0.20927969  0.40863974  1
  Rh  Rh243  1  0.79499691  0.80291583  0.80075706  1
  Rh  Rh244  1  0.80979214  0.60138160  0.79516712  1
  Rh  Rh245  1  0.61026198  0.79285830  0.19697937  1
  Rh  Rh246  1  -0.01085275  0.59786722  0.61108171  1
  Rh  Rh247  1  0.58845824  0.19850932  0.61207036  1
  Rh  Rh248  1  0.19889112  0.39681304  0.20788811  1
  Rh  Rh249  1  -0.00408478  0.39709382  0.00000658  1
