# generated using pymatgen
data_ZrScNbPdRh
_symmetry_space_group_name_H-M   'P 1'
_cell_length_a   16.56044763
_cell_length_b   16.55656848
_cell_length_c   16.56079764
_cell_angle_alpha   89.99275534
_cell_angle_beta   89.96565266
_cell_angle_gamma   89.99005904
_symmetry_Int_Tables_number   1
_chemical_formula_structural   ZrScNbPdRh
_chemical_formula_sum   'Zr50 Sc50 Nb50 Pd50 Rh50'
_cell_volume   4540.70788789
_cell_formula_units_Z   50
loop_
 _symmetry_equiv_pos_site_id
 _symmetry_equiv_pos_as_xyz
  1  'x, y, z'
loop_
 _atom_site_type_symbol
 _atom_site_label
 _atom_site_symmetry_multiplicity
 _atom_site_fract_x
 _atom_site_fract_y
 _atom_site_fract_z
 _atom_site_occupancy
  Zr  Zr0  1  0.09978850  0.89386677  0.89452815  1
  Zr  Zr1  1  0.50083856  0.90467041  0.29223261  1
  Zr  Zr2  1  0.09610215  0.31428662  0.89694908  1
  Zr  Zr3  1  0.29866043  0.09915075  0.09432915  1
  Zr  Zr4  1  0.69909135  0.90038265  0.29583368  1
  Zr  Zr5  1  0.29445162  0.90295979  0.90324598  1
  Zr  Zr6  1  0.10628078  0.69166860  0.10158166  1
  Zr  Zr7  1  0.50235632  0.29842176  0.31365387  1
  Zr  Zr8  1  0.90518009  0.90525117  0.70699647  1
  Zr  Zr9  1  0.10307280  0.09559056  0.50160603  1
  Zr  Zr10  1  0.48972457  0.50366318  0.70011804  1
  Zr  Zr11  1  0.70305022  0.50066162  0.49541579  1
  Zr  Zr12  1  0.49615228  0.50436399  0.10111896  1
  Zr  Zr13  1  0.30323800  0.32278385  0.70352137  1
  Zr  Zr14  1  0.50463654  0.50295780  0.50107439  1
  Zr  Zr15  1  0.70243041  0.69819882  0.29990252  1
  Zr  Zr16  1  0.50458436  0.90012444  0.91161101  1
  Zr  Zr17  1  0.89213780  0.29502504  0.10164327  1
  Zr  Zr18  1  0.89609407  0.29642280  0.49584714  1
  Zr  Zr19  1  0.50479370  0.11126334  0.50810706  1
  Zr  Zr20  1  0.70511466  0.70203929  0.89792178  1
  Zr  Zr21  1  0.90328909  0.49913028  0.09612856  1
  Zr  Zr22  1  0.29908675  0.08450295  0.69819478  1
  Zr  Zr23  1  0.29451285  0.30267473  0.10681104  1
  Zr  Zr24  1  0.50008347  0.30603472  0.50449577  1
  Zr  Zr25  1  0.69985694  0.29923339  0.70485202  1
  Zr  Zr26  1  0.30008753  0.89971835  0.09677298  1
  Zr  Zr27  1  0.90988216  0.70057854  0.50783649  1
  Zr  Zr28  1  0.30061420  0.30617824  0.90028881  1
  Zr  Zr29  1  0.10944200  0.50788748  0.69510150  1
  Zr  Zr30  1  0.08990389  0.09553912  0.69673144  1
  Zr  Zr31  1  0.90031027  0.49939156  0.49031766  1
  Zr  Zr32  1  0.70430562  0.91049022  0.50879135  1
  Zr  Zr33  1  0.90119741  0.69345276  0.09554655  1
  Zr  Zr34  1  0.50605352  0.69780298  0.69953921  1
  Zr  Zr35  1  0.49840769  0.09959621  0.90242416  1
  Zr  Zr36  1  0.89946299  0.69387558  0.30063968  1
  Zr  Zr37  1  0.10333474  0.09961523  0.30234913  1
  Zr  Zr38  1  0.11140882  0.88991992  0.09438760  1
  Zr  Zr39  1  0.30702406  0.30225333  0.50038337  1
  Zr  Zr40  1  0.70773284  0.70450512  0.09747981  1
  Zr  Zr41  1  0.70100986  0.29592350  0.29439865  1
  Zr  Zr42  1  0.10657262  0.69986789  0.49595770  1
  Zr  Zr43  1  0.49668059  0.29783364  0.89733956  1
  Zr  Zr44  1  0.49323762  0.70604878  0.89718865  1
  Zr  Zr45  1  0.09232321  0.29755034  0.49335537  1
  Zr  Zr46  1  0.30396252  0.50112391  0.29300990  1
  Zr  Zr47  1  0.29834143  0.89117495  0.70495281  1
  Zr  Zr48  1  0.90267526  0.29328072  0.69959727  1
  Zr  Zr49  1  0.69147758  0.89852044  0.09538475  1
  Sc  Sc50  1  0.10356029  0.90235752  0.70319669  1
  Sc  Sc51  1  0.89614343  0.49284228  0.29969455  1
  Sc  Sc52  1  0.10371644  0.70005748  0.90614448  1
  Sc  Sc53  1  0.50146940  0.30362064  0.69639480  1
  Sc  Sc54  1  0.89451625  0.09114626  0.89939871  1
  Sc  Sc55  1  0.69237444  0.08701459  0.68790247  1
  Sc  Sc56  1  0.50051206  0.69942434  0.08840227  1
  Sc  Sc57  1  0.09682537  0.50335948  0.29377370  1
  Sc  Sc58  1  0.29988229  0.50827139  0.50240657  1
  Sc  Sc59  1  0.70732138  0.49600316  0.29914608  1
  Sc  Sc60  1  0.89948379  0.30622138  0.89189207  1
  Sc  Sc61  1  0.49462750  0.70627252  0.30848451  1
  Sc  Sc62  1  0.09736465  0.30499553  0.10307181  1
  Sc  Sc63  1  0.29895678  0.70078552  0.89834140  1
  Sc  Sc64  1  0.49484659  0.88948025  0.49292893  1
  Sc  Sc65  1  0.69404110  0.50542547  0.71189373  1
  Sc  Sc66  1  0.10532230  0.70591494  0.69463290  1
  Sc  Sc67  1  0.50069796  0.89993479  0.70831868  1
  Sc  Sc68  1  0.10671173  0.50882537  0.50170094  1
  Sc  Sc69  1  0.69573360  0.51065618  0.09705331  1
  Sc  Sc70  1  0.29069734  0.50466418  0.88839084  1
  Sc  Sc71  1  0.89503556  0.89737812  0.89496076  1
  Sc  Sc72  1  0.89828630  0.30379570  0.29924009  1
  Sc  Sc73  1  0.09954879  0.10549791  0.11206452  1
  Sc  Sc74  1  0.90005217  0.70512398  0.90279291  1
  Sc  Sc75  1  0.68996299  0.29324915  0.90332868  1
  Sc  Sc76  1  0.89491896  0.10092789  0.10091477  1
  Sc  Sc77  1  0.90315426  0.09553648  0.29150975  1
  Sc  Sc78  1  0.68553096  0.29800288  0.49889085  1
  Sc  Sc79  1  0.09833627  0.50362863  0.09209385  1
  Sc  Sc80  1  0.29279678  0.69666014  0.30064132  1
  Sc  Sc81  1  0.49893539  0.50066190  0.29949861  1
  Sc  Sc82  1  0.90431171  0.49581670  0.90233246  1
  Sc  Sc83  1  0.90450712  0.90513919  0.30162584  1
  Sc  Sc84  1  0.30582618  0.09033467  0.50201510  1
  Sc  Sc85  1  0.49858175  0.29107114  0.09200017  1
  Sc  Sc86  1  0.10447726  0.08966696  0.89271332  1
  Sc  Sc87  1  0.09143560  0.29277177  0.29374663  1
  Sc  Sc88  1  0.49707027  0.70092087  0.50255013  1
  Sc  Sc89  1  0.49820518  0.09292669  0.09653056  1
  Sc  Sc90  1  0.89676724  0.49432790  0.71145288  1
  Sc  Sc91  1  0.89423891  0.89389452  0.09963629  1
  Sc  Sc92  1  0.09917737  0.89982902  0.50123495  1
  Sc  Sc93  1  0.09535060  0.30240429  0.70263537  1
  Sc  Sc94  1  0.29817850  0.89842928  0.49806632  1
  Sc  Sc95  1  0.69330214  0.70212864  0.50715849  1
  Sc  Sc96  1  0.30295062  0.70117017  0.49143656  1
  Sc  Sc97  1  0.89929177  0.09303554  0.51418026  1
  Sc  Sc98  1  0.10710188  0.90378897  0.30430335  1
  Sc  Sc99  1  0.50623624  0.50299366  0.90107635  1
  Nb  Nb100  1  0.50166150  0.09964242  0.30189168  1
  Nb  Nb101  1  0.70239039  0.90679877  0.89415675  1
  Nb  Nb102  1  0.30444979  0.90618345  0.29803979  1
  Nb  Nb103  1  0.70530442  0.29385720  0.10210886  1
  Nb  Nb104  1  0.89709541  0.89677040  0.50275906  1
  Nb  Nb105  1  0.70602152  0.09535616  0.90454790  1
  Nb  Nb106  1  0.30468283  0.69130373  0.71073124  1
  Nb  Nb107  1  0.89911403  0.10028250  0.70275157  1
  Nb  Nb108  1  0.69376585  0.10136440  0.29652797  1
  Nb  Nb109  1  0.29977837  0.09384562  0.29864605  1
  Nb  Nb110  1  0.49871316  0.89353844  0.09634357  1
  Nb  Nb111  1  0.90406417  0.70077545  0.70288265  1
  Nb  Nb112  1  0.29504238  0.69814867  0.10062587  1
  Nb  Nb113  1  0.71067758  0.11714266  0.09900696  1
  Nb  Nb114  1  0.70505882  0.70266261  0.70078367  1
  Nb  Nb115  1  0.70802846  0.49519353  0.90238154  1
  Nb  Nb116  1  0.29974548  0.10061163  0.90251636  1
  Nb  Nb117  1  0.70533483  0.89423036  0.70855621  1
  Nb  Nb118  1  0.69879123  0.09703386  0.49875926  1
  Nb  Nb119  1  0.10224035  0.69963077  0.29707621  1
  Nb  Nb120  1  0.09552597  0.50439903  0.89915452  1
  Nb  Nb121  1  0.30014968  0.29933741  0.29973523  1
  Nb  Nb122  1  0.30138134  0.50625563  0.10242287  1
  Nb  Nb123  1  0.29765913  0.51040224  0.70120776  1
  Nb  Nb124  1  0.49389771  0.10102514  0.70049413  1
  Nb  Nb125  1  0.60231910  0.39313524  0.19336197  1
  Nb  Nb126  1  0.80220744  0.60298116  0.60772762  1
  Nb  Nb127  1  0.80293960  0.80341317  0.40922068  1
  Nb  Nb128  1  0.20661699  0.19962588  0.79773596  1
  Nb  Nb129  1  0.20953861  0.20067437  0.39813375  1
  Nb  Nb130  1  0.20279661  0.20168179  0.60205086  1
  Nb  Nb131  1  0.60345527  0.60080905  0.40093180  1
  Nb  Nb132  1  0.00215193  0.60325172  0.79712737  1
  Nb  Nb133  1  0.80269664  0.80032487  0.60761172  1
  Nb  Nb134  1  0.79556363  0.18966084  0.79704396  1
  Nb  Nb135  1  0.00694605  0.79268423  0.20154313  1
  Nb  Nb136  1  0.39449251  0.40662964  0.00439092  1
  Nb  Nb137  1  0.79059000  0.18764677  0.40007306  1
  Nb  Nb138  1  0.80063654  0.40192649  0.60080278  1
  Nb  Nb139  1  0.39711906  0.19460340  0.21151253  1
  Nb  Nb140  1  0.39472161  0.80493820  0.19498539  1
  Nb  Nb141  1  0.79206593  0.39705261  0.00166026  1
  Nb  Nb142  1  0.19646141  0.20169210  -0.00727847  1
  Nb  Nb143  1  0.20317050  0.39408431  0.39403938  1
  Nb  Nb144  1  -0.00533539  0.40200620  0.59705291  1
  Nb  Nb145  1  0.60135205  0.00736335  0.39746571  1
  Nb  Nb146  1  0.00240581  0.19742718  -0.00321179  1
  Nb  Nb147  1  0.00299820  0.60586113  0.39825381  1
  Nb  Nb148  1  0.39539697  0.19363661  0.79682980  1
  Nb  Nb149  1  0.00354754  -0.00044401  0.00201886  1
  Pd  Pd150  1  -0.00110287  0.79949532  0.39282425  1
  Pd  Pd151  1  0.60584871  0.00841083  0.00679817  1
  Pd  Pd152  1  0.60223021  0.80705094  0.60316586  1
  Pd  Pd153  1  0.78992833  0.20093243  0.59889684  1
  Pd  Pd154  1  0.59614045  0.40368592  0.80044036  1
  Pd  Pd155  1  0.39193108  0.20373362  0.61153131  1
  Pd  Pd156  1  0.59965678  0.60166247  0.80574017  1
  Pd  Pd157  1  -0.00385421  0.00255170  0.40588425  1
  Pd  Pd158  1  0.60013872  0.18807012  0.79362175  1
  Pd  Pd159  1  0.60206745  0.00488660  0.80032812  1
  Pd  Pd160  1  0.20282371  0.40573533  0.00214964  1
  Pd  Pd161  1  0.00570336  -0.01250866  0.19039262  1
  Pd  Pd162  1  0.79949193  0.00177688  0.39644006  1
  Pd  Pd163  1  0.60353235  0.00729714  0.19185051  1
  Pd  Pd164  1  0.60804405  0.80201973  0.40315260  1
  Pd  Pd165  1  0.40811816  -0.01259054  0.59548624  1
  Pd  Pd166  1  0.80076325  0.59205427  0.19727506  1
  Pd  Pd167  1  0.60061234  0.19253365  0.00239052  1
  Pd  Pd168  1  0.60058810  0.80160116  0.80385146  1
  Pd  Pd169  1  0.19323150  0.39623761  0.59113447  1
  Pd  Pd170  1  0.00076305  0.40058068  0.19800432  1
  Pd  Pd171  1  0.58653982  -0.00888854  0.59608811  1
  Pd  Pd172  1  0.41127595  0.38955961  0.19441947  1
  Pd  Pd173  1  0.00264015  0.80941202  0.60660486  1
  Pd  Pd174  1  0.60363077  0.60547438  -0.00688313  1
  Pd  Pd175  1  0.40384573  0.61551457  0.20242402  1
  Pd  Pd176  1  0.39735102  0.79637927  0.60523588  1
  Pd  Pd177  1  -0.01073539  0.18760384  0.39824286  1
  Pd  Pd178  1  0.60661393  0.40751765  0.60924462  1
  Pd  Pd179  1  0.40837913  0.00168582  0.40641829  1
  Pd  Pd180  1  0.59569210  0.60195059  0.20724637  1
  Pd  Pd181  1  0.80433370  -0.00422253  0.00652380  1
  Pd  Pd182  1  0.19605598  -0.00199851  0.19663956  1
  Pd  Pd183  1  0.40155801  -0.00280143  0.80755527  1
  Pd  Pd184  1  0.79521444  0.00009790  0.19377336  1
  Pd  Pd185  1  0.58959929  0.20032338  0.19418027  1
  Pd  Pd186  1  0.39088967  0.59519206  -0.00843529  1
  Pd  Pd187  1  0.80980467  0.80285085  0.20815124  1
  Pd  Pd188  1  0.80865147  0.60138236  0.80347970  1
  Pd  Pd189  1  0.58912072  0.78879807  0.19587012  1
  Pd  Pd190  1  -0.00174446  0.19095143  0.81112529  1
  Pd  Pd191  1  0.39620617  0.60652059  0.59672008  1
  Pd  Pd192  1  0.20491825  0.80620024  0.39479225  1
  Pd  Pd193  1  0.40104087  0.00126565  0.19334109  1
  Pd  Pd194  1  0.39548245  0.19073869  0.39901908  1
  Pd  Pd195  1  0.20699740  0.79702134  0.60027650  1
  Pd  Pd196  1  0.19212402  0.40553576  0.20440751  1
  Pd  Pd197  1  -0.00186973  0.80284716  0.00414672  1
  Pd  Pd198  1  0.59999171  0.40006259  0.00648422  1
  Pd  Pd199  1  0.39522024  0.41018817  0.40322483  1
  Rh  Rh200  1  0.20679844  0.79147092  -0.00480529  1
  Rh  Rh201  1  0.80268365  0.59206506  -0.00710033  1
  Rh  Rh202  1  -0.00121036  0.60210695  -0.01090129  1
  Rh  Rh203  1  0.40668413  0.40689633  0.80781771  1
  Rh  Rh204  1  0.38956292  0.20734768  0.00069944  1
  Rh  Rh205  1  0.19375902  0.40529711  0.79663796  1
  Rh  Rh206  1  0.01432643  0.41429719  0.40333994  1
  Rh  Rh207  1  0.00451909  0.79212016  0.80006151  1
  Rh  Rh208  1  0.60608249  0.59874946  0.59858676  1
  Rh  Rh209  1  -0.00952198  0.58800064  0.60405151  1
  Rh  Rh210  1  0.01043477  0.41464044  0.78910272  1
  Rh  Rh211  1  0.20436596  0.80096305  0.20720628  1
  Rh  Rh212  1  0.20697367  0.19738682  0.20292742  1
  Rh  Rh213  1  0.79265493  0.00597936  0.79353086  1
  Rh  Rh214  1  0.20107770  0.79422671  0.80024950  1
  Rh  Rh215  1  0.20345110  0.00102285  0.40187648  1
  Rh  Rh216  1  0.40061944  -0.00550977  -0.00182238  1
  Rh  Rh217  1  0.20047467  0.59438109  0.19971963  1
  Rh  Rh218  1  0.20567487  0.59603805  -0.00029195  1
  Rh  Rh219  1  0.60732404  0.79744533  -0.00566690  1
  Rh  Rh220  1  0.19083054  0.60686277  0.79995557  1
  Rh  Rh221  1  0.80615237  -0.00499214  0.61035786  1
  Rh  Rh222  1  0.40311865  0.59828153  0.80489723  1
  Rh  Rh223  1  0.80234131  0.79947812  0.79943281  1
  Rh  Rh224  1  -0.00682863  0.20168657  0.19478890  1
  Rh  Rh225  1  0.60384469  0.19324998  0.40247037  1
  Rh  Rh226  1  0.39913413  0.41135427  0.59713976  1
  Rh  Rh227  1  0.80594085  0.20683737  -0.01463663  1
  Rh  Rh228  1  0.40131577  0.80259483  0.80058824  1
  Rh  Rh229  1  0.19793479  -0.00220198  0.59912745  1
  Rh  Rh230  1  0.60160621  0.19994421  0.60630797  1
  Rh  Rh231  1  0.79373479  0.80830562  -0.00691451  1
  Rh  Rh232  1  0.20058623  -0.00049828  0.79814718  1
  Rh  Rh233  1  -0.00174370  0.60269042  0.20505578  1
  Rh  Rh234  1  0.79917730  0.61475870  0.41018478  1
  Rh  Rh235  1  0.00670478  0.20262631  0.60015570  1
  Rh  Rh236  1  -0.00191771  0.00032676  0.80747802  1
  Rh  Rh237  1  -0.00857417  0.39274399  0.00500704  1
  Rh  Rh238  1  0.19594023  0.59151284  0.39366909  1
  Rh  Rh239  1  0.80491777  0.19504654  0.21179390  1
  Rh  Rh240  1  0.60360694  0.41004811  0.38905302  1
  Rh  Rh241  1  -0.00236418  -0.00552304  0.59963801  1
  Rh  Rh242  1  0.40786742  0.59930247  0.39822763  1
  Rh  Rh243  1  0.39110808  0.80271115  0.38755062  1
  Rh  Rh244  1  0.78955749  0.38193965  0.40539954  1
  Rh  Rh245  1  0.79022012  0.39005787  0.80594291  1
  Rh  Rh246  1  0.39362261  0.79868498  0.00494970  1
  Rh  Rh247  1  0.19001721  0.00954018  0.00361104  1
  Rh  Rh248  1  0.79113933  0.40752619  0.18666788  1
  Rh  Rh249  1  0.21293018  0.61349585  0.60057132  1
