# generated using pymatgen
data_ZrScNbPdRh
_symmetry_space_group_name_H-M   'P 1'
_cell_length_a   16.55842421
_cell_length_b   16.55883041
_cell_length_c   16.56007430
_cell_angle_alpha   90.06791038
_cell_angle_beta   89.95681541
_cell_angle_gamma   90.00003087
_symmetry_Int_Tables_number   1
_chemical_formula_structural   ZrScNbPdRh
_chemical_formula_sum   'Zr50 Sc50 Nb50 Pd50 Rh50'
_cell_volume   4540.57146460
_cell_formula_units_Z   50
loop_
 _symmetry_equiv_pos_site_id
 _symmetry_equiv_pos_as_xyz
  1  'x, y, z'
loop_
 _atom_site_type_symbol
 _atom_site_label
 _atom_site_symmetry_multiplicity
 _atom_site_fract_x
 _atom_site_fract_y
 _atom_site_fract_z
 _atom_site_occupancy
  Zr  Zr0  1  0.89871332  0.89938907  0.90332934  1
  Zr  Zr1  1  0.09967883  0.10338224  0.09683426  1
  Zr  Zr2  1  0.49605746  0.10039038  0.30053402  1
  Zr  Zr3  1  0.89795243  0.90802125  0.09613230  1
  Zr  Zr4  1  0.10055660  0.70701975  0.69816878  1
  Zr  Zr5  1  0.70165731  0.89909544  0.90456925  1
  Zr  Zr6  1  0.50457069  0.70340671  0.10256038  1
  Zr  Zr7  1  0.89182164  0.50420347  0.70054836  1
  Zr  Zr8  1  0.10029230  0.69152344  0.90468998  1
  Zr  Zr9  1  0.69327675  0.50054814  0.70018261  1
  Zr  Zr10  1  0.49926220  0.29779415  0.90340546  1
  Zr  Zr11  1  0.90024166  0.70005173  0.90102705  1
  Zr  Zr12  1  0.89234936  0.29658727  0.10061434  1
  Zr  Zr13  1  0.69560775  0.70753737  0.90327514  1
  Zr  Zr14  1  0.51074033  0.88795382  0.49218203  1
  Zr  Zr15  1  0.30023195  0.30043440  0.90043098  1
  Zr  Zr16  1  0.09873591  0.10873246  0.49199914  1
  Zr  Zr17  1  0.89057836  0.30476894  0.29837285  1
  Zr  Zr18  1  0.68911501  0.71424130  0.50944439  1
  Zr  Zr19  1  0.89794675  0.10431627  0.49848314  1
  Zr  Zr20  1  0.69158716  0.90914141  0.31041578  1
  Zr  Zr21  1  0.89002664  0.90889821  0.50217676  1
  Zr  Zr22  1  0.29922294  0.69241644  0.89922922  1
  Zr  Zr23  1  0.50825584  0.89372459  0.90041191  1
  Zr  Zr24  1  0.30183485  0.90463082  0.29296751  1
  Zr  Zr25  1  0.49194584  0.11084777  0.10402308  1
  Zr  Zr26  1  0.70448273  0.50168747  0.89592120  1
  Zr  Zr27  1  0.90090502  0.90578226  0.29770810  1
  Zr  Zr28  1  0.31325399  0.50183518  0.70176252  1
  Zr  Zr29  1  0.10513185  0.89841991  0.30713453  1
  Zr  Zr30  1  0.30086151  0.50162927  0.49792867  1
  Zr  Zr31  1  0.29997740  0.49929023  0.89692240  1
  Zr  Zr32  1  0.90170698  0.10088221  0.30226046  1
  Zr  Zr33  1  0.90220085  0.09801731  0.10464456  1
  Zr  Zr34  1  0.70844465  0.69150123  0.29505949  1
  Zr  Zr35  1  0.50228207  0.70415053  0.90036642  1
  Zr  Zr36  1  0.30019560  0.10521625  0.90461978  1
  Zr  Zr37  1  0.09485185  0.69990661  0.30056672  1
  Zr  Zr38  1  0.90466453  0.49821863  0.89979894  1
  Zr  Zr39  1  0.89993336  0.69955341  0.11196745  1
  Zr  Zr40  1  0.10275301  0.29792036  0.89973303  1
  Zr  Zr41  1  0.09691696  0.50135187  0.90375658  1
  Zr  Zr42  1  0.90503430  0.30401322  0.90171184  1
  Zr  Zr43  1  0.11313407  0.30130478  0.10791531  1
  Zr  Zr44  1  0.09448160  0.89277066  0.70034138  1
  Zr  Zr45  1  0.49530722  0.69953554  0.29739476  1
  Zr  Zr46  1  0.09115581  0.30361946  0.50145335  1
  Zr  Zr47  1  0.29732975  0.48635000  0.10673510  1
  Zr  Zr48  1  0.50571537  0.69480532  0.69563284  1
  Zr  Zr49  1  0.69943908  0.30343103  0.48515028  1
  Sc  Sc50  1  0.69459035  0.11174220  0.30280791  1
  Sc  Sc51  1  0.09770538  0.10530416  0.29910708  1
  Sc  Sc52  1  0.89281255  0.69489066  0.50207160  1
  Sc  Sc53  1  0.28798682  0.29235794  0.50993627  1
  Sc  Sc54  1  0.30300951  0.10449949  0.50385405  1
  Sc  Sc55  1  0.71048947  0.89817645  0.10130281  1
  Sc  Sc56  1  0.69527520  0.49679782  0.10710822  1
  Sc  Sc57  1  0.49852368  0.10491392  0.50063880  1
  Sc  Sc58  1  0.31199638  0.09755154  0.69234999  1
  Sc  Sc59  1  0.50361680  0.49293132  0.89337790  1
  Sc  Sc60  1  0.70006910  0.30129331  0.69090428  1
  Sc  Sc61  1  0.09946506  0.29115278  0.70179501  1
  Sc  Sc62  1  0.70676152  0.49422175  0.50137285  1
  Sc  Sc63  1  0.30417383  0.10065991  0.10813065  1
  Sc  Sc64  1  0.70143102  0.69652724  0.70099375  1
  Sc  Sc65  1  0.30899920  0.88842661  0.49799726  1
  Sc  Sc66  1  0.71520261  0.09964352  0.10480028  1
  Sc  Sc67  1  0.70354307  0.88925805  0.69388697  1
  Sc  Sc68  1  0.49764049  0.08578218  0.89498414  1
  Sc  Sc69  1  0.10159403  0.49538302  0.70278199  1
  Sc  Sc70  1  0.09624938  0.50218080  0.09120389  1
  Sc  Sc71  1  0.89966985  0.29178722  0.69926262  1
  Sc  Sc72  1  0.69661538  0.70127635  0.10241997  1
  Sc  Sc73  1  0.89492942  0.70580760  0.69916309  1
  Sc  Sc74  1  0.30433761  0.50447151  0.29596624  1
  Sc  Sc75  1  0.08823675  0.50768283  0.30343336  1
  Sc  Sc76  1  0.09583314  0.10633350  0.89801989  1
  Sc  Sc77  1  0.30032194  0.30303775  0.69954693  1
  Sc  Sc78  1  0.49669240  0.49762420  0.29178170  1
  Sc  Sc79  1  0.50751636  0.29800829  0.50224441  1
  Sc  Sc80  1  0.48853435  0.90098715  0.70741259  1
  Sc  Sc81  1  0.89331754  0.51286771  0.30155551  1
  Sc  Sc82  1  0.31785937  0.89583629  0.89258435  1
  Sc  Sc83  1  0.90486069  0.10243060  0.90564071  1
  Sc  Sc84  1  0.49540251  0.89896205  0.30498164  1
  Sc  Sc85  1  0.30108970  0.70344052  0.30564448  1
  Sc  Sc86  1  0.70877872  0.10103888  0.69289699  1
  Sc  Sc87  1  0.28661332  0.30557620  0.27951471  1
  Sc  Sc88  1  0.90257840  0.49954715  0.09721487  1
  Sc  Sc89  1  0.51390051  0.29662816  0.29302675  1
  Sc  Sc90  1  0.50330852  0.30508794  0.69158639  1
  Sc  Sc91  1  0.09925618  0.28943011  0.30076896  1
  Sc  Sc92  1  0.30800922  0.70251680  0.10711567  1
  Sc  Sc93  1  0.70829475  0.30434049  0.90376451  1
  Sc  Sc94  1  0.08600844  0.89699550  0.89844185  1
  Sc  Sc95  1  0.70291992  0.09753987  0.49331373  1
  Sc  Sc96  1  0.30349062  0.70618459  0.70501030  1
  Sc  Sc97  1  0.49904376  0.30568931  0.10462010  1
  Sc  Sc98  1  0.49500406  0.50188936  0.50681726  1
  Sc  Sc99  1  0.09514542  0.89870906  0.10782617  1
  Nb  Nb100  1  0.10194266  0.69349458  0.09851045  1
  Nb  Nb101  1  0.90093182  0.69971448  0.30392993  1
  Nb  Nb102  1  0.50308873  0.10003947  0.69805918  1
  Nb  Nb103  1  0.69592841  0.09430978  0.89893567  1
  Nb  Nb104  1  0.69671748  0.90235124  0.50006059  1
  Nb  Nb105  1  0.30357621  0.69437229  0.49266748  1
  Nb  Nb106  1  0.30600326  0.29193044  0.09483137  1
  Nb  Nb107  1  0.49853959  0.49678487  0.70043998  1
  Nb  Nb108  1  0.69972218  0.29703008  0.11364145  1
  Nb  Nb109  1  0.09224655  0.09254941  0.70346867  1
  Nb  Nb110  1  0.91137723  0.49301446  0.49783463  1
  Nb  Nb111  1  0.70123347  0.49077221  0.30299221  1
  Nb  Nb112  1  0.09655503  0.50282286  0.49729121  1
  Nb  Nb113  1  0.69867794  0.31362064  0.28986033  1
  Nb  Nb114  1  0.49320303  0.50423613  0.10152908  1
  Nb  Nb115  1  0.09845941  0.89626021  0.50156043  1
  Nb  Nb116  1  0.49041234  0.90212594  0.10181011  1
  Nb  Nb117  1  0.10587571  0.70197505  0.49469943  1
  Nb  Nb118  1  0.29956301  0.10267117  0.30455534  1
  Nb  Nb119  1  0.90289477  0.90477774  0.70263130  1
  Nb  Nb120  1  0.49498169  0.70064244  0.49058619  1
  Nb  Nb121  1  0.30041356  0.90212296  0.09955046  1
  Nb  Nb122  1  0.90244371  0.09446308  0.70045773  1
  Nb  Nb123  1  0.29496232  0.90261370  0.70034144  1
  Nb  Nb124  1  0.90042217  0.30827729  0.49625629  1
  Nb  Nb125  1  -0.00377837  0.79828441  0.40392925  1
  Nb  Nb126  1  0.20111146  -0.00029846  0.40616929  1
  Nb  Nb127  1  0.19811908  0.60403878  0.59157686  1
  Nb  Nb128  1  0.00623161  0.59808559  0.59209465  1
  Nb  Nb129  1  0.39292510  0.39070925  0.39806401  1
  Nb  Nb130  1  0.19504750  0.60315625  0.19668592  1
  Nb  Nb131  1  0.00162410  -0.00019768  0.60097868  1
  Nb  Nb132  1  0.80444548  0.00036463  0.79816789  1
  Nb  Nb133  1  0.20295173  0.80274692  0.00437357  1
  Nb  Nb134  1  0.60020979  0.60128701  0.39964504  1
  Nb  Nb135  1  0.80011951  0.80102435  0.39878819  1
  Nb  Nb136  1  0.59941521  0.00215392  0.00968239  1
  Nb  Nb137  1  0.19801377  0.40217537  0.40242947  1
  Nb  Nb138  1  0.79789645  0.60055694  -0.00220608  1
  Nb  Nb139  1  0.20024043  -0.00272597  0.79643442  1
  Nb  Nb140  1  0.39322601  0.20917583  0.39326098  1
  Nb  Nb141  1  0.40921925  0.19779153  0.79706633  1
  Nb  Nb142  1  0.60026211  0.19375872  0.80209158  1
  Nb  Nb143  1  0.40402171  0.59462046  0.00338316  1
  Nb  Nb144  1  0.19438648  -0.00592736  0.60018140  1
  Nb  Nb145  1  0.59418900  0.00181795  0.19272117  1
  Nb  Nb146  1  0.60455718  0.19447496  -0.00117540  1
  Nb  Nb147  1  -0.00260275  0.39729382  0.19911354  1
  Nb  Nb148  1  0.59945537  -0.00437227  0.59765764  1
  Nb  Nb149  1  0.20365617  -0.00878430  -0.00242941  1
  Pd  Pd150  1  0.80020981  0.20606973  0.59247570  1
  Pd  Pd151  1  0.19970134  0.40150707  0.79704508  1
  Pd  Pd152  1  0.60371518  0.39524156  0.00778520  1
  Pd  Pd153  1  0.19885707  0.59667083  0.78761439  1
  Pd  Pd154  1  0.59967143  0.59268737  -0.00049341  1
  Pd  Pd155  1  0.39628723  0.60864448  0.60000646  1
  Pd  Pd156  1  0.00723512  0.00239032  0.20269810  1
  Pd  Pd157  1  0.80113600  0.80397817  0.79785428  1
  Pd  Pd158  1  -0.01024829  0.79760402  0.59124275  1
  Pd  Pd159  1  0.60587693  0.19269572  0.60031602  1
  Pd  Pd160  1  0.40217622  0.40466392  0.00009830  1
  Pd  Pd161  1  0.20128631  0.79350307  0.19499107  1
  Pd  Pd162  1  0.80147005  0.39598978  0.59874516  1
  Pd  Pd163  1  0.79994476  0.39361991  0.79278121  1
  Pd  Pd164  1  0.60229461  0.38880826  0.79652542  1
  Pd  Pd165  1  0.59694298  0.60019373  0.80280742  1
  Pd  Pd166  1  0.19796646  0.18946805  0.61076288  1
  Pd  Pd167  1  0.79408578  0.40718207  0.00862500  1
  Pd  Pd168  1  0.60013704  0.59474402  0.59095197  1
  Pd  Pd169  1  0.19746748  0.00681084  0.19999164  1
  Pd  Pd170  1  -0.00122351  0.40314431  0.61020133  1
  Pd  Pd171  1  0.21063350  0.79713328  0.59356521  1
  Pd  Pd172  1  0.00255004  0.20662899  0.00487127  1
  Pd  Pd173  1  0.20022095  0.80762417  0.81447567  1
  Pd  Pd174  1  0.20934938  0.18886214  0.78873195  1
  Pd  Pd175  1  0.59931681  0.81062203  0.20212303  1
  Pd  Pd176  1  0.39551607  0.00439963  0.40927023  1
  Pd  Pd177  1  0.20150561  0.59502156  0.39354236  1
  Pd  Pd178  1  0.00131756  0.39548662  0.79205904  1
  Pd  Pd179  1  -0.00297307  0.19642750  0.60122790  1
  Pd  Pd180  1  -0.00050370  0.60328096  0.78851415  1
  Pd  Pd181  1  0.19671980  0.40704064  0.59821430  1
  Pd  Pd182  1  0.79739027  0.19388050  0.80391234  1
  Pd  Pd183  1  0.61089238  -0.00139906  0.78758543  1
  Pd  Pd184  1  0.39960487  0.00067334  0.00023859  1
  Pd  Pd185  1  0.60223044  0.59314884  0.20617504  1
  Pd  Pd186  1  0.19826451  0.39862959  -0.00125842  1
  Pd  Pd187  1  0.79825384  0.80600717  0.20701420  1
  Pd  Pd188  1  0.79798375  0.20435391  0.39577843  1
  Pd  Pd189  1  0.00226097  0.39656731  0.38730504  1
  Pd  Pd190  1  0.40491092  -0.00697866  0.59272038  1
  Pd  Pd191  1  0.58762357  0.40910981  0.40114833  1
  Pd  Pd192  1  0.40045379  0.39161033  0.59244566  1
  Pd  Pd193  1  0.79335670  0.60099563  0.41011577  1
  Pd  Pd194  1  -0.00056043  0.80109878  0.20363997  1
  Pd  Pd195  1  0.79504406  0.19585791  -0.00474567  1
  Pd  Pd196  1  0.80117616  0.59805254  0.59512410  1
  Pd  Pd197  1  0.00434524  0.79749300  0.00691152  1
  Pd  Pd198  1  0.40228620  0.79683289  0.60210482  1
  Pd  Pd199  1  0.39598181  0.79328199  0.00113819  1
  Rh  Rh200  1  -0.00314380  0.00208676  0.80132548  1
  Rh  Rh201  1  0.40397658  0.20594511  0.60036236  1
  Rh  Rh202  1  0.39634514  0.79822852  0.39522352  1
  Rh  Rh203  1  0.20154425  0.80611786  0.40419847  1
  Rh  Rh204  1  0.80388290  0.80308089  0.59664611  1
  Rh  Rh205  1  0.60097836  0.40712810  0.59747242  1
  Rh  Rh206  1  0.40276751  0.00049718  0.20206401  1
  Rh  Rh207  1  0.79783037  -0.00223779  0.60771036  1
  Rh  Rh208  1  0.41006286  0.59234022  0.39700959  1
  Rh  Rh209  1  0.20407377  0.19452549  0.00651885  1
  Rh  Rh210  1  0.20429151  0.19079364  0.19692125  1
  Rh  Rh211  1  0.00893459  -0.00466607  0.40652981  1
  Rh  Rh212  1  0.40104213  0.80431655  0.20333719  1
  Rh  Rh213  1  0.40469153  0.20084654  -0.00498876  1
  Rh  Rh214  1  0.40958774  0.60008215  0.80621606  1
  Rh  Rh215  1  0.00331113  0.59400537  0.19461151  1
  Rh  Rh216  1  0.60579750  0.19388652  0.19262289  1
  Rh  Rh217  1  0.59045809  0.80687093  0.60960343  1
  Rh  Rh218  1  -0.00511765  0.20684464  0.20030179  1
  Rh  Rh219  1  0.60757497  0.78731732  0.38744902  1
  Rh  Rh220  1  0.40468228  0.39231845  0.20374805  1
  Rh  Rh221  1  0.18239642  0.41532969  0.21056800  1
  Rh  Rh222  1  0.79121904  0.00379969  0.21118054  1
  Rh  Rh223  1  0.79902943  0.59267057  0.19271558  1
  Rh  Rh224  1  0.40387874  0.39147055  0.79599069  1
  Rh  Rh225  1  0.00617650  0.39033060  0.00748537  1
  Rh  Rh226  1  0.79781284  0.19757716  0.20858698  1
  Rh  Rh227  1  -0.01135990  0.60461800  0.00454560  1
  Rh  Rh228  1  0.80232966  0.78902175  0.00731285  1
  Rh  Rh229  1  0.39477089  0.20914814  0.20897306  1
  Rh  Rh230  1  0.80519215  0.40816595  0.19810124  1
  Rh  Rh231  1  0.59495076  0.00939458  0.40392034  1
  Rh  Rh232  1  0.59571615  0.40550872  0.19526097  1
  Rh  Rh233  1  0.39212054  0.00707803  0.79713830  1
  Rh  Rh234  1  0.79666069  0.00144109  0.39511156  1
  Rh  Rh235  1  0.80420380  0.40561851  0.39966332  1
  Rh  Rh236  1  0.79752956  0.60501456  0.80584636  1
  Rh  Rh237  1  -0.00696902  0.60953537  0.40934162  1
  Rh  Rh238  1  0.59573181  0.20301800  0.40019614  1
  Rh  Rh239  1  0.20731923  0.20275896  0.39635824  1
  Rh  Rh240  1  0.39260400  0.59996227  0.19394141  1
  Rh  Rh241  1  0.60016489  0.79984248  0.79177801  1
  Rh  Rh242  1  0.60112366  0.81279876  0.01318536  1
  Rh  Rh243  1  0.40361757  0.79409446  0.79524137  1
  Rh  Rh244  1  0.79903221  0.00515706  -0.00823683  1
  Rh  Rh245  1  0.00748605  0.00151303  0.00050072  1
  Rh  Rh246  1  -0.00922875  0.20881639  0.39837276  1
  Rh  Rh247  1  -0.00412079  0.20053168  0.80131979  1
  Rh  Rh248  1  -0.00435422  0.79244546  0.80107584  1
  Rh  Rh249  1  0.21501291  0.60579520  0.01200588  1
