# generated using pymatgen
data_ZrScNbPdRh
_symmetry_space_group_name_H-M   'P 1'
_cell_length_a   16.55395493
_cell_length_b   16.55795819
_cell_length_c   16.55647608
_cell_angle_alpha   89.99370958
_cell_angle_beta   89.98058246
_cell_angle_gamma   90.02109187
_symmetry_Int_Tables_number   1
_chemical_formula_structural   ZrScNbPdRh
_chemical_formula_sum   'Zr50 Sc50 Nb50 Pd50 Rh50'
_cell_volume   4538.12442590
_cell_formula_units_Z   50
loop_
 _symmetry_equiv_pos_site_id
 _symmetry_equiv_pos_as_xyz
  1  'x, y, z'
loop_
 _atom_site_type_symbol
 _atom_site_label
 _atom_site_symmetry_multiplicity
 _atom_site_fract_x
 _atom_site_fract_y
 _atom_site_fract_z
 _atom_site_occupancy
  Zr  Zr0  1  0.09884716  0.30102456  0.89667400  1
  Zr  Zr1  1  0.10212439  0.90231591  0.10534753  1
  Zr  Zr2  1  0.09460408  0.69800704  0.50385649  1
  Zr  Zr3  1  0.70113756  0.69602355  0.70319131  1
  Zr  Zr4  1  0.69518619  0.90339864  0.49969869  1
  Zr  Zr5  1  0.29842832  0.10453529  0.69654058  1
  Zr  Zr6  1  0.90153522  0.29830412  0.88788366  1
  Zr  Zr7  1  0.90721852  0.70440916  0.70632244  1
  Zr  Zr8  1  0.70003552  0.90045385  0.69726875  1
  Zr  Zr9  1  0.49911185  0.49898708  0.69595961  1
  Zr  Zr10  1  0.50558244  0.30015967  0.30275064  1
  Zr  Zr11  1  0.89241630  0.09900818  0.09762633  1
  Zr  Zr12  1  0.70316123  0.29794442  0.49701879  1
  Zr  Zr13  1  0.89465179  0.89855305  0.29645510  1
  Zr  Zr14  1  0.30680113  0.49751934  0.29466879  1
  Zr  Zr15  1  0.69498699  0.69812664  0.50413605  1
  Zr  Zr16  1  0.29227221  0.90899071  0.30243952  1
  Zr  Zr17  1  0.90269636  0.69716704  0.49592036  1
  Zr  Zr18  1  0.09736365  0.90624827  0.89150355  1
  Zr  Zr19  1  0.09981926  0.49335385  0.09532647  1
  Zr  Zr20  1  0.50430071  0.49687726  0.90154438  1
  Zr  Zr21  1  0.09905089  0.30473566  0.09304144  1
  Zr  Zr22  1  0.70174344  0.49150874  0.30674097  1
  Zr  Zr23  1  0.49956780  0.90318941  0.90541348  1
  Zr  Zr24  1  0.89552463  0.91347931  0.50520141  1
  Zr  Zr25  1  0.49982954  0.70413463  0.10391783  1
  Zr  Zr26  1  0.30916764  0.09815406  0.10599460  1
  Zr  Zr27  1  0.49579581  0.70129629  0.89979327  1
  Zr  Zr28  1  0.09533368  0.29873130  0.50278575  1
  Zr  Zr29  1  0.30267863  0.29710143  0.70489966  1
  Zr  Zr30  1  0.50853184  0.90288458  0.70089643  1
  Zr  Zr31  1  0.70020665  0.50038677  0.89563167  1
  Zr  Zr32  1  0.30206251  0.90216187  0.90203191  1
  Zr  Zr33  1  0.69564984  0.90356668  0.10907764  1
  Zr  Zr34  1  0.49973104  0.69555423  0.50537343  1
  Zr  Zr35  1  0.70593600  0.09385832  0.49693779  1
  Zr  Zr36  1  0.09891152  0.10031891  0.50139089  1
  Zr  Zr37  1  0.50888600  0.90284558  0.50313989  1
  Zr  Zr38  1  0.50082212  0.49661494  0.30251350  1
  Zr  Zr39  1  0.89891521  0.90343925  0.89349502  1
  Zr  Zr40  1  0.70491970  0.29430526  0.10808124  1
  Zr  Zr41  1  0.30206893  0.69984328  0.90065104  1
  Zr  Zr42  1  0.89639093  0.90086900  0.09976108  1
  Zr  Zr43  1  0.09535228  0.69276124  0.10142280  1
  Zr  Zr44  1  0.90419645  0.50460131  0.09138174  1
  Zr  Zr45  1  0.10151521  0.09756213  0.70108607  1
  Zr  Zr46  1  0.69452887  0.29841796  0.89102170  1
  Zr  Zr47  1  0.89791506  0.69633324  0.10044034  1
  Zr  Zr48  1  0.89595939  0.69750267  0.29674795  1
  Zr  Zr49  1  0.70443463  0.11039569  0.90182464  1
  Sc  Sc50  1  0.50325535  0.69613165  0.69975944  1
  Sc  Sc51  1  0.90211165  0.90305111  0.70133020  1
  Sc  Sc52  1  0.49746587  0.69720217  0.29555207  1
  Sc  Sc53  1  0.30682974  0.30423621  0.10252554  1
  Sc  Sc54  1  0.30856469  0.50345613  0.69980691  1
  Sc  Sc55  1  0.09023427  0.29105009  0.70232289  1
  Sc  Sc56  1  0.30147256  0.69841043  0.29697906  1
  Sc  Sc57  1  0.29592978  0.49967065  0.09841068  1
  Sc  Sc58  1  0.89386314  0.49850503  0.30228406  1
  Sc  Sc59  1  0.69732837  0.90193881  0.88887983  1
  Sc  Sc60  1  0.69990424  0.30172823  0.30089427  1
  Sc  Sc61  1  0.69388946  0.10236089  0.09813648  1
  Sc  Sc62  1  0.49886224  0.10080477  0.50206067  1
  Sc  Sc63  1  0.29216348  0.90527585  0.70434123  1
  Sc  Sc64  1  0.90188727  0.30317937  0.10840207  1
  Sc  Sc65  1  0.09662063  0.89758361  0.49878370  1
  Sc  Sc66  1  0.09498588  0.50364816  0.50722021  1
  Sc  Sc67  1  0.30737109  0.29882709  0.90198467  1
  Sc  Sc68  1  0.09687481  0.70782746  0.30299540  1
  Sc  Sc69  1  0.89091915  0.29575101  0.29854326  1
  Sc  Sc70  1  0.49748067  0.10169203  0.30092609  1
  Sc  Sc71  1  0.50467907  0.90307154  0.29215536  1
  Sc  Sc72  1  0.70735395  0.49774773  0.50252063  1
  Sc  Sc73  1  0.30060502  0.50661124  0.90297528  1
  Sc  Sc74  1  0.50898073  0.10708966  0.91003548  1
  Sc  Sc75  1  0.70021527  0.50222188  0.10025019  1
  Sc  Sc76  1  0.31168027  0.90169122  0.10436891  1
  Sc  Sc77  1  0.29953496  0.69230339  0.71280334  1
  Sc  Sc78  1  0.89454467  0.49684913  0.49863189  1
  Sc  Sc79  1  0.49796893  0.29382229  0.70521557  1
  Sc  Sc80  1  0.30267609  0.69306814  0.10150597  1
  Sc  Sc81  1  0.08971812  0.90092899  0.69786246  1
  Sc  Sc82  1  0.50086793  0.29741673  0.09836372  1
  Sc  Sc83  1  0.09422489  0.29257598  0.28386904  1
  Sc  Sc84  1  0.89259983  0.49532247  0.69900537  1
  Sc  Sc85  1  0.30390485  0.68698895  0.49743506  1
  Sc  Sc86  1  0.09683762  0.69015883  0.88535801  1
  Sc  Sc87  1  0.09524116  0.10016867  0.88624117  1
  Sc  Sc88  1  0.70269452  0.69713181  0.89570184  1
  Sc  Sc89  1  0.50495271  0.09537752  0.10038947  1
  Sc  Sc90  1  0.69496471  0.10714564  0.70061117  1
  Sc  Sc91  1  0.89665269  0.69308090  0.89562613  1
  Sc  Sc92  1  0.69271981  0.90505199  0.30128899  1
  Sc  Sc93  1  0.30948069  0.29130940  0.50743495  1
  Sc  Sc94  1  0.49581410  0.50185148  0.10038370  1
  Sc  Sc95  1  0.29381057  0.91195289  0.49500741  1
  Sc  Sc96  1  0.09943450  0.51330330  0.70268772  1
  Sc  Sc97  1  0.70180883  0.69619811  0.10827271  1
  Sc  Sc98  1  0.70089748  0.10448172  0.30005309  1
  Sc  Sc99  1  0.90809523  0.50485109  0.89757106  1
  Nb  Nb100  1  0.89052613  0.29713596  0.69331448  1
  Nb  Nb101  1  0.89845246  0.09925512  0.89638530  1
  Nb  Nb102  1  0.49790146  0.09706132  0.70158614  1
  Nb  Nb103  1  0.10374825  0.10150553  0.29373301  1
  Nb  Nb104  1  0.30006929  0.09944862  0.49130290  1
  Nb  Nb105  1  0.10189787  0.90750667  0.30366620  1
  Nb  Nb106  1  0.10722170  0.48946458  0.30243593  1
  Nb  Nb107  1  0.50449419  0.90676556  0.09927546  1
  Nb  Nb108  1  0.30950814  0.29624044  0.30499788  1
  Nb  Nb109  1  0.49058419  0.50201071  0.50501713  1
  Nb  Nb110  1  0.29586800  0.09796075  0.89804907  1
  Nb  Nb111  1  0.30572485  0.49563951  0.50098808  1
  Nb  Nb112  1  0.09956510  0.49142653  0.90398796  1
  Nb  Nb113  1  0.70293815  0.30649626  0.70186784  1
  Nb  Nb114  1  0.89952997  0.09925768  0.69529566  1
  Nb  Nb115  1  0.50521889  0.30630100  0.49829686  1
  Nb  Nb116  1  0.09949607  0.70207712  0.69495652  1
  Nb  Nb117  1  0.50837915  0.30379361  0.90138051  1
  Nb  Nb118  1  0.90246772  0.10335590  0.30309515  1
  Nb  Nb119  1  0.69942851  0.69934375  0.30325975  1
  Nb  Nb120  1  0.89552934  0.10487758  0.49337990  1
  Nb  Nb121  1  0.30071484  0.10268866  0.30777372  1
  Nb  Nb122  1  0.10014888  0.10755160  0.10351225  1
  Nb  Nb123  1  0.69590192  0.49428753  0.69811443  1
  Nb  Nb124  1  0.90021150  0.29678946  0.50296635  1
  Nb  Nb125  1  0.20035708  0.79193473  0.60145821  1
  Nb  Nb126  1  0.80031170  0.39814951  -0.00469442  1
  Nb  Nb127  1  0.60105033  0.39689660  0.60108003  1
  Nb  Nb128  1  0.19834593  0.40201010  0.79782301  1
  Nb  Nb129  1  0.79656831  0.79858255  0.40275977  1
  Nb  Nb130  1  -0.00019999  0.80047584  -0.00174685  1
  Nb  Nb131  1  -0.00012333  0.19466151  -0.00177012  1
  Nb  Nb132  1  0.20414120  0.19930401  0.39462088  1
  Nb  Nb133  1  0.20335219  0.39470916  0.40275104  1
  Nb  Nb134  1  0.00004239  0.00824971  0.39245142  1
  Nb  Nb135  1  0.39460522  0.80228799  0.59755823  1
  Nb  Nb136  1  0.80049093  0.79921679  0.59656835  1
  Nb  Nb137  1  0.40126676  0.80288127  0.40547345  1
  Nb  Nb138  1  0.19394155  0.80291926  -0.00125816  1
  Nb  Nb139  1  0.00414915  0.00607778  0.20454249  1
  Nb  Nb140  1  0.00458432  0.39414660  0.40076178  1
  Nb  Nb141  1  0.79992159  0.80172759  0.00171046  1
  Nb  Nb142  1  0.59855158  0.59638899  0.40321250  1
  Nb  Nb143  1  0.40278834  0.00865734  0.80093202  1
  Nb  Nb144  1  0.20336343  0.40034668  0.60057778  1
  Nb  Nb145  1  0.19970096  0.58707142  0.39891324  1
  Nb  Nb146  1  0.60107884  0.80365673  0.00435489  1
  Nb  Nb147  1  0.19854590  0.00474195  0.00125465  1
  Nb  Nb148  1  0.19810084  0.19280909  0.00049947  1
  Nb  Nb149  1  0.39953754  0.39801572  0.40458184  1
  Pd  Pd150  1  0.80452216  0.60334567  0.60534210  1
  Pd  Pd151  1  0.19685906  -0.00720055  0.59889530  1
  Pd  Pd152  1  0.00444472  0.40584394  0.78763144  1
  Pd  Pd153  1  -0.01075610  0.59398710  0.60503622  1
  Pd  Pd154  1  0.19524053  0.60085667  0.20682172  1
  Pd  Pd155  1  0.00633435  0.58981173  0.21046526  1
  Pd  Pd156  1  0.20764401  0.59827961  0.59811019  1
  Pd  Pd157  1  0.60098348  0.59752746  0.20762540  1
  Pd  Pd158  1  0.79766342  0.00787480  0.20555781  1
  Pd  Pd159  1  0.20802569  0.78975763  0.40751222  1
  Pd  Pd160  1  -0.00612315  0.19480355  0.60358142  1
  Pd  Pd161  1  0.00218082  0.40459186  0.60261089  1
  Pd  Pd162  1  0.20970187  0.20748336  0.19859176  1
  Pd  Pd163  1  0.39721423  -0.00382346  0.60470946  1
  Pd  Pd164  1  0.60002792  0.19366620  0.39932667  1
  Pd  Pd165  1  0.19378757  0.79923086  0.79758278  1
  Pd  Pd166  1  0.00453020  0.20345522  0.39400868  1
  Pd  Pd167  1  0.20142115  0.20385619  0.59561576  1
  Pd  Pd168  1  0.60222028  0.60897011  0.00223750  1
  Pd  Pd169  1  0.20605432  0.39045763  0.20257820  1
  Pd  Pd170  1  0.39994637  0.19726832  -0.00252175  1
  Pd  Pd171  1  0.39761804  0.40348623  -0.00024999  1
  Pd  Pd172  1  0.79667941  0.19686946  0.60063210  1
  Pd  Pd173  1  0.59705597  0.01113024  0.80529748  1
  Pd  Pd174  1  0.39895872  0.79973119  0.00739081  1
  Pd  Pd175  1  0.40728296  0.19880325  0.20096892  1
  Pd  Pd176  1  0.00657724  0.00404839  0.00375967  1
  Pd  Pd177  1  0.80765284  0.21069958  -0.00025675  1
  Pd  Pd178  1  0.40740068  0.19741373  0.59636811  1
  Pd  Pd179  1  0.20446591  0.79615457  0.19607615  1
  Pd  Pd180  1  0.60752304  0.39602746  0.00816882  1
  Pd  Pd181  1  0.00232108  0.80422582  0.19924562  1
  Pd  Pd182  1  0.79665276  0.59205270  0.20229375  1
  Pd  Pd183  1  0.39694699  0.40368434  0.80502193  1
  Pd  Pd184  1  0.40195983  0.80820836  0.78846646  1
  Pd  Pd185  1  0.80307787  0.40478973  0.80343309  1
  Pd  Pd186  1  0.39775735  0.80549900  0.20767050  1
  Pd  Pd187  1  0.40758983  0.19384316  0.81061862  1
  Pd  Pd188  1  -0.00719200  0.80983510  0.40126426  1
  Pd  Pd189  1  0.59554534  0.79391973  0.39175457  1
  Pd  Pd190  1  0.59694336  0.20370836  0.60156452  1
  Pd  Pd191  1  0.19498129  0.60481885  -0.00573165  1
  Pd  Pd192  1  0.78941724  -0.00608755  -0.00612070  1
  Pd  Pd193  1  0.20234464  0.00385582  0.19554632  1
  Pd  Pd194  1  0.40846296  -0.00561109  0.39629288  1
  Pd  Pd195  1  0.59888706  0.39919631  0.19175220  1
  Pd  Pd196  1  0.79812833  0.00794054  0.79363032  1
  Pd  Pd197  1  -0.00739133  0.40521694  0.20774264  1
  Pd  Pd198  1  0.59710543  0.60011698  0.79981817  1
  Pd  Pd199  1  0.00544002  0.58766770  0.39231707  1
  Rh  Rh200  1  0.40085326  0.59812181  0.39426594  1
  Rh  Rh201  1  0.00646622  0.60568602  -0.00678446  1
  Rh  Rh202  1  0.80050121  0.79934058  0.79743610  1
  Rh  Rh203  1  0.00212953  0.79953655  0.80405836  1
  Rh  Rh204  1  -0.00106735  0.80104902  0.60043474  1
  Rh  Rh205  1  0.20725822  0.39333433  -0.00974278  1
  Rh  Rh206  1  0.20392212  0.00230274  0.80025550  1
  Rh  Rh207  1  0.40254981  0.59729682  0.00223275  1
  Rh  Rh208  1  0.80163901  0.40664941  0.19148478  1
  Rh  Rh209  1  0.19893202  0.59067286  0.80394304  1
  Rh  Rh210  1  0.40072440  0.20359192  0.40543567  1
  Rh  Rh211  1  0.80361067  0.19572519  0.78946963  1
  Rh  Rh212  1  0.80390507  -0.00215506  0.39248575  1
  Rh  Rh213  1  0.60001430  0.20818413  0.00310842  1
  Rh  Rh214  1  -0.00697144  0.00625212  0.79211720  1
  Rh  Rh215  1  0.39785077  0.00731636  -0.00529612  1
  Rh  Rh216  1  0.80036071  0.59297174  0.79591345  1
  Rh  Rh217  1  0.79795221  0.00292096  0.60741110  1
  Rh  Rh218  1  0.40098559  0.59849865  0.19516500  1
  Rh  Rh219  1  0.60276841  0.01157126  0.59961109  1
  Rh  Rh220  1  0.79241403  0.60514740  0.39829304  1
  Rh  Rh221  1  0.39521027  0.61002855  0.60784267  1
  Rh  Rh222  1  0.20262494  0.20782046  0.80488669  1
  Rh  Rh223  1  0.59662786  0.00743639  0.39802748  1
  Rh  Rh224  1  0.59879788  0.00831657  0.20293029  1
  Rh  Rh225  1  0.19080718  0.00998244  0.40150753  1
  Rh  Rh226  1  0.79060490  0.79701806  0.20473152  1
  Rh  Rh227  1  0.60199831  0.58639571  0.59541215  1
  Rh  Rh228  1  -0.00218445  0.00743973  0.59464391  1
  Rh  Rh229  1  0.40232875  0.00104786  0.20704901  1
  Rh  Rh230  1  0.00008964  0.59493454  0.79694777  1
  Rh  Rh231  1  -0.01146632  0.39155584  -0.00312114  1
  Rh  Rh232  1  0.79784527  0.59902295  -0.00383608  1
  Rh  Rh233  1  0.81077219  0.39078547  0.40529971  1
  Rh  Rh234  1  0.40391437  0.39727822  0.20263788  1
  Rh  Rh235  1  0.59449922  0.41127175  0.41334957  1
  Rh  Rh236  1  0.59869326  0.19893816  0.20166529  1
  Rh  Rh237  1  0.79550379  0.39435404  0.59794904  1
  Rh  Rh238  1  0.59522433  0.20143922  0.79751642  1
  Rh  Rh239  1  0.40270069  0.39259881  0.59775568  1
  Rh  Rh240  1  0.59497716  0.39611492  0.79061391  1
  Rh  Rh241  1  -0.01075850  0.19298641  0.79709254  1
  Rh  Rh242  1  -0.01024526  0.19349281  0.19270096  1
  Rh  Rh243  1  0.60018905  0.79414026  0.80469413  1
  Rh  Rh244  1  0.79870255  0.20312169  0.39843174  1
  Rh  Rh245  1  0.60019981  0.79841266  0.61074358  1
  Rh  Rh246  1  0.79961582  0.19526195  0.20343352  1
  Rh  Rh247  1  0.60115100  0.79960715  0.19740553  1
  Rh  Rh248  1  0.40721807  0.59462997  0.80438832  1
  Rh  Rh249  1  0.60656376  -0.00496137  -0.00169990  1
