# generated using pymatgen
data_ZrScNbPdRh
_symmetry_space_group_name_H-M   'P 1'
_cell_length_a   16.55671760
_cell_length_b   16.55703061
_cell_length_c   16.55791701
_cell_angle_alpha   89.99554153
_cell_angle_beta   89.99169985
_cell_angle_gamma   89.98991456
_symmetry_Int_Tables_number   1
_chemical_formula_structural   ZrScNbPdRh
_chemical_formula_sum   'Zr50 Sc50 Nb50 Pd50 Rh50'
_cell_volume   4539.02298701
_cell_formula_units_Z   50
loop_
 _symmetry_equiv_pos_site_id
 _symmetry_equiv_pos_as_xyz
  1  'x, y, z'
loop_
 _atom_site_type_symbol
 _atom_site_label
 _atom_site_symmetry_multiplicity
 _atom_site_fract_x
 _atom_site_fract_y
 _atom_site_fract_z
 _atom_site_occupancy
  Zr  Zr0  1  0.29306895  0.90323506  0.30418007  1
  Zr  Zr1  1  0.69239822  0.90575984  0.30003003  1
  Zr  Zr2  1  0.09868437  0.70695614  0.90592359  1
  Zr  Zr3  1  0.49184326  0.69987535  0.89485275  1
  Zr  Zr4  1  0.90959772  0.50050830  0.10720314  1
  Zr  Zr5  1  0.30478834  0.70103830  0.69187171  1
  Zr  Zr6  1  0.30232696  0.29729139  0.10628607  1
  Zr  Zr7  1  0.90004313  0.29700579  0.30452637  1
  Zr  Zr8  1  0.70876278  0.88546123  0.90354143  1
  Zr  Zr9  1  0.69910214  0.69966653  0.50580589  1
  Zr  Zr10  1  0.29416926  0.49868263  0.49814661  1
  Zr  Zr11  1  0.30040858  0.89894131  0.09769210  1
  Zr  Zr12  1  0.49113354  0.29757201  0.70832072  1
  Zr  Zr13  1  0.90334712  0.09806025  0.09970156  1
  Zr  Zr14  1  0.70047942  0.08520479  0.89099420  1
  Zr  Zr15  1  0.11069432  0.09290603  0.30819552  1
  Zr  Zr16  1  0.29971694  0.08948487  0.90111383  1
  Zr  Zr17  1  0.67860714  0.49845443  0.30221575  1
  Zr  Zr18  1  0.50055726  0.09285421  0.30545392  1
  Zr  Zr19  1  0.29968935  0.10189457  0.48937419  1
  Zr  Zr20  1  0.70112425  0.09796643  0.10633545  1
  Zr  Zr21  1  0.30066341  0.50202732  0.69711619  1
  Zr  Zr22  1  0.90093919  0.49910085  0.69733531  1
  Zr  Zr23  1  0.70704325  0.09501263  0.69036942  1
  Zr  Zr24  1  0.49580368  0.30312233  0.89742597  1
  Zr  Zr25  1  0.69749878  0.29784862  0.29618737  1
  Zr  Zr26  1  0.89205146  0.70728215  0.90146050  1
  Zr  Zr27  1  0.10311117  0.69702269  0.10506925  1
  Zr  Zr28  1  0.69671379  0.71039010  0.09386308  1
  Zr  Zr29  1  0.30235887  0.10325464  0.09730283  1
  Zr  Zr30  1  0.29433655  0.29906497  0.70456043  1
  Zr  Zr31  1  0.70190887  0.29557519  0.49800691  1
  Zr  Zr32  1  0.09284805  0.29270562  0.89197866  1
  Zr  Zr33  1  0.50248027  0.69268688  0.69310965  1
  Zr  Zr34  1  0.49315774  0.89100463  0.30416428  1
  Zr  Zr35  1  0.70046474  0.90411406  0.70983514  1
  Zr  Zr36  1  0.09249580  0.89430414  0.10931860  1
  Zr  Zr37  1  0.49971335  0.70908302  0.49983776  1
  Zr  Zr38  1  0.69428783  0.50984009  0.70308165  1
  Zr  Zr39  1  0.29864353  0.30040240  0.49495915  1
  Zr  Zr40  1  0.91488020  0.30165405  0.70516607  1
  Zr  Zr41  1  0.30375853  0.90943507  0.69815956  1
  Zr  Zr42  1  0.29811588  0.70658547  0.08566607  1
  Zr  Zr43  1  0.49742040  0.09963954  0.90263030  1
  Zr  Zr44  1  0.90170115  0.70333477  0.31199232  1
  Zr  Zr45  1  0.29000326  0.29930421  0.89926975  1
  Zr  Zr46  1  0.89934249  0.09753145  0.50591383  1
  Zr  Zr47  1  0.89976203  0.90552345  0.10331733  1
  Zr  Zr48  1  0.31121775  0.49531476  0.30030486  1
  Zr  Zr49  1  0.09871856  0.48554715  0.69804400  1
  Sc  Sc50  1  0.10809016  0.30358082  0.50748392  1
  Sc  Sc51  1  0.30188033  0.89549849  0.49789105  1
  Sc  Sc52  1  0.89757405  0.89702660  0.70253914  1
  Sc  Sc53  1  0.70534476  0.10026799  0.29679904  1
  Sc  Sc54  1  0.09660917  0.50822955  0.30188273  1
  Sc  Sc55  1  0.90763447  0.50280689  0.50137870  1
  Sc  Sc56  1  0.30272047  0.50228713  0.89917748  1
  Sc  Sc57  1  0.68645290  0.30212217  0.90608916  1
  Sc  Sc58  1  0.89754433  0.70227547  0.50451077  1
  Sc  Sc59  1  0.91350495  0.30120896  0.09704427  1
  Sc  Sc60  1  0.09104116  0.90812861  0.90029800  1
  Sc  Sc61  1  0.10083684  0.09970374  0.89861298  1
  Sc  Sc62  1  0.50726170  0.88358027  0.11066647  1
  Sc  Sc63  1  0.49998922  0.89809651  0.69159506  1
  Sc  Sc64  1  0.69703818  0.89425592  0.50947109  1
  Sc  Sc65  1  0.68855796  0.50179726  0.10573594  1
  Sc  Sc66  1  0.30038820  0.10554748  0.70495226  1
  Sc  Sc67  1  0.09582628  0.71009940  0.68759243  1
  Sc  Sc68  1  0.09795640  0.70293738  0.29999865  1
  Sc  Sc69  1  0.90570224  0.70523618  0.10035063  1
  Sc  Sc70  1  0.09204423  0.90432432  0.70035585  1
  Sc  Sc71  1  0.89528474  0.30233575  0.50743753  1
  Sc  Sc72  1  0.49644763  0.29223760  0.49574811  1
  Sc  Sc73  1  0.11029943  0.48529799  0.90374455  1
  Sc  Sc74  1  0.29541538  0.70108586  0.50021329  1
  Sc  Sc75  1  0.30502877  0.29526560  0.30107033  1
  Sc  Sc76  1  0.29773919  0.10827470  0.29703872  1
  Sc  Sc77  1  0.91307419  0.50455630  0.30499777  1
  Sc  Sc78  1  0.49375398  0.09208514  0.69781880  1
  Sc  Sc79  1  0.50218949  0.90170481  0.88560789  1
  Sc  Sc80  1  0.49584031  0.90426877  0.49640973  1
  Sc  Sc81  1  0.70706386  0.29574659  0.68703529  1
  Sc  Sc82  1  0.10614969  0.10110956  0.09600645  1
  Sc  Sc83  1  0.30146481  0.50975687  0.09874624  1
  Sc  Sc84  1  0.10414410  0.30190776  0.08394833  1
  Sc  Sc85  1  0.09510085  0.90126692  0.49207232  1
  Sc  Sc86  1  0.10266616  0.49873046  0.49811925  1
  Sc  Sc87  1  0.49842643  0.31090552  0.29494146  1
  Sc  Sc88  1  0.50563911  0.29206350  0.10115035  1
  Sc  Sc89  1  0.49553475  0.69789835  0.10516706  1
  Sc  Sc90  1  0.50390171  0.50394147  0.48148515  1
  Sc  Sc91  1  0.91067194  0.09143738  0.90235569  1
  Sc  Sc92  1  0.70488661  0.70628938  0.69719816  1
  Sc  Sc93  1  0.29957839  0.70551326  0.30413975  1
  Sc  Sc94  1  0.69435116  0.69746986  0.30889060  1
  Sc  Sc95  1  0.49664979  0.09342886  0.50047054  1
  Sc  Sc96  1  0.89597396  0.09523676  0.29904339  1
  Sc  Sc97  1  0.11173450  0.30337669  0.30788203  1
  Sc  Sc98  1  0.88725894  0.51321794  0.90034147  1
  Sc  Sc99  1  0.69442321  0.50582023  0.49764688  1
  Nb  Nb100  1  0.49661137  0.50166985  0.10681432  1
  Nb  Nb101  1  0.90192854  0.89965728  0.90203881  1
  Nb  Nb102  1  0.29671615  0.70741811  0.89831702  1
  Nb  Nb103  1  0.10120710  0.50009736  0.10375735  1
  Nb  Nb104  1  0.89678233  0.29551644  0.90250275  1
  Nb  Nb105  1  0.09745392  0.09798461  0.50067805  1
  Nb  Nb106  1  0.89661828  0.89339384  0.48522639  1
  Nb  Nb107  1  0.70528363  0.10445060  0.50074509  1
  Nb  Nb108  1  0.09160544  0.89948410  0.30500325  1
  Nb  Nb109  1  0.70862552  0.69038752  0.90327387  1
  Nb  Nb110  1  0.50117073  0.51091554  0.28185916  1
  Nb  Nb111  1  0.70349761  0.29890898  0.10160858  1
  Nb  Nb112  1  0.49886540  0.49675635  0.70617981  1
  Nb  Nb113  1  0.70174811  0.89942591  0.10312394  1
  Nb  Nb114  1  0.50828503  0.49383028  0.89238953  1
  Nb  Nb115  1  0.30099779  0.89797316  0.89630325  1
  Nb  Nb116  1  0.08818773  0.10607374  0.69600924  1
  Nb  Nb117  1  0.49955775  0.70029736  0.29552176  1
  Nb  Nb118  1  0.90065049  0.69760169  0.70313064  1
  Nb  Nb119  1  0.10272818  0.29534048  0.70804988  1
  Nb  Nb120  1  0.90329507  0.09811334  0.70158709  1
  Nb  Nb121  1  0.10332406  0.70341541  0.49572378  1
  Nb  Nb122  1  0.90387842  0.89733902  0.30508199  1
  Nb  Nb123  1  0.49593231  0.09686179  0.09850608  1
  Nb  Nb124  1  0.69799034  0.50166749  0.89870670  1
  Nb  Nb125  1  0.60516879  0.19518842  0.79596133  1
  Nb  Nb126  1  0.00441244  0.60416196  0.80084570  1
  Nb  Nb127  1  0.80289343  0.20091413  0.80336192  1
  Nb  Nb128  1  0.60255651  -0.00631839  0.00694952  1
  Nb  Nb129  1  0.79911624  0.80285624  0.20540652  1
  Nb  Nb130  1  0.59724860  0.59559549  -0.00918807  1
  Nb  Nb131  1  0.60524947  0.19548236  0.40051295  1
  Nb  Nb132  1  0.58980637  0.40264937  0.60298559  1
  Nb  Nb133  1  0.79849147  0.20309387  -0.00350637  1
  Nb  Nb134  1  0.79899033  0.40368063  0.20120561  1
  Nb  Nb135  1  0.40402658  0.40363486  0.60192668  1
  Nb  Nb136  1  0.00323715  0.19493712  0.40268714  1
  Nb  Nb137  1  0.79697581  0.39631590  0.80733884  1
  Nb  Nb138  1  0.79976707  -0.00410759  0.40511447  1
  Nb  Nb139  1  0.00571135  0.59791816  -0.00117898  1
  Nb  Nb140  1  0.79901477  0.60107702  0.20384156  1
  Nb  Nb141  1  0.20617575  0.80174341  0.80225035  1
  Nb  Nb142  1  0.79508368  0.39794016  0.00275855  1
  Nb  Nb143  1  0.40083429  0.00032964  0.19591890  1
  Nb  Nb144  1  0.79671751  0.40162694  0.39359793  1
  Nb  Nb145  1  0.00782569  0.19954142  0.20756291  1
  Nb  Nb146  1  0.40841038  0.40501702  -0.00022853  1
  Nb  Nb147  1  0.19224581  0.00952005  0.59751733  1
  Nb  Nb148  1  0.20048871  0.40608261  0.19638908  1
  Nb  Nb149  1  0.19649985  0.60990459  0.79896300  1
  Pd  Pd150  1  0.39381156  0.59828450  0.80326060  1
  Pd  Pd151  1  0.41314888  -0.01555724  0.00574463  1
  Pd  Pd152  1  0.39620529  0.20804963  -0.00350532  1
  Pd  Pd153  1  0.00424926  0.00815941  0.20585855  1
  Pd  Pd154  1  0.59060016  -0.00089715  0.19471520  1
  Pd  Pd155  1  -0.00140657  0.39257045  0.40800555  1
  Pd  Pd156  1  0.79794105  0.00114759  -0.00239618  1
  Pd  Pd157  1  0.19254655  0.81474163  -0.00534360  1
  Pd  Pd158  1  -0.00757994  0.80587488  0.59225890  1
  Pd  Pd159  1  0.60422553  0.78977639  0.79905198  1
  Pd  Pd160  1  0.19256827  -0.00023982  0.79174322  1
  Pd  Pd161  1  0.79731640  0.59242409  0.01557805  1
  Pd  Pd162  1  0.59712088  0.40581797  0.00893310  1
  Pd  Pd163  1  0.80159340  0.59944956  0.59995288  1
  Pd  Pd164  1  0.40694443  0.39844104  0.40248214  1
  Pd  Pd165  1  0.19573096  0.59442173  -0.00700118  1
  Pd  Pd166  1  0.60300759  0.61114993  0.80311274  1
  Pd  Pd167  1  0.80621620  -0.01198984  0.59491752  1
  Pd  Pd168  1  0.60149394  0.80020603  0.40193930  1
  Pd  Pd169  1  0.20706420  0.59804034  0.20718299  1
  Pd  Pd170  1  0.59898155  -0.00232626  0.59607524  1
  Pd  Pd171  1  0.39870846  0.20081518  0.59854368  1
  Pd  Pd172  1  0.79983813  0.58997588  0.39627212  1
  Pd  Pd173  1  0.41066728  0.80833937  -0.00325372  1
  Pd  Pd174  1  -0.00006826  0.20720996  0.59317305  1
  Pd  Pd175  1  0.19958212  0.19515458  0.60079237  1
  Pd  Pd176  1  0.60716597  0.18906836  -0.00413217  1
  Pd  Pd177  1  0.00284896  0.79845106  0.79930957  1
  Pd  Pd178  1  0.61242415  0.38861360  0.78850524  1
  Pd  Pd179  1  -0.00208388  -0.01032738  0.59637079  1
  Pd  Pd180  1  -0.01014745  0.41230775  0.81447764  1
  Pd  Pd181  1  0.18869718  0.60023025  0.60436981  1
  Pd  Pd182  1  0.01100185  0.39031477  0.20541518  1
  Pd  Pd183  1  0.40739831  0.59414727  -0.00604124  1
  Pd  Pd184  1  0.19833086  0.81407398  0.60182400  1
  Pd  Pd185  1  0.40891069  0.59161586  0.58788772  1
  Pd  Pd186  1  0.40117588  0.60717601  0.39937672  1
  Pd  Pd187  1  0.20389726  -0.00049353  0.19626346  1
  Pd  Pd188  1  0.59306004  0.19796187  0.20638429  1
  Pd  Pd189  1  0.59197185  0.79840498  -0.00824030  1
  Pd  Pd190  1  0.38991096  0.61289791  0.19900423  1
  Pd  Pd191  1  -0.00842553  0.40892100  -0.01004897  1
  Pd  Pd192  1  0.59101961  0.20155268  0.59982969  1
  Pd  Pd193  1  0.81167327  0.20766871  0.19036991  1
  Pd  Pd194  1  0.19340695  -0.00561504  0.00217708  1
  Pd  Pd195  1  0.39795333  0.80272441  0.79093658  1
  Pd  Pd196  1  0.20127820  0.79929368  0.20570534  1
  Pd  Pd197  1  0.00690510  0.60123954  0.60031834  1
  Pd  Pd198  1  0.19826462  0.60056650  0.39427301  1
  Pd  Pd199  1  0.79143308  0.40986862  0.59709037  1
  Rh  Rh200  1  -0.00136550  0.19517609  0.00395973  1
  Rh  Rh201  1  0.59843080  0.39531849  0.19170049  1
  Rh  Rh202  1  0.60719259  0.79308321  0.20822073  1
  Rh  Rh203  1  0.59039025  0.61085442  0.39901191  1
  Rh  Rh204  1  -0.00653367  0.79737229  0.20603027  1
  Rh  Rh205  1  0.40828432  0.19069376  0.20392653  1
  Rh  Rh206  1  0.40043552  0.19201799  0.80624869  1
  Rh  Rh207  1  0.20105798  -0.00581898  0.40799365  1
  Rh  Rh208  1  -0.00342176  0.60862775  0.19685472  1
  Rh  Rh209  1  0.60093174  0.38877524  0.40760283  1
  Rh  Rh210  1  -0.00367437  0.19099457  0.80290036  1
  Rh  Rh211  1  0.40049065  0.80252615  0.59754104  1
  Rh  Rh212  1  -0.00293357  0.00203051  0.79768093  1
  Rh  Rh213  1  0.00463099  0.60799370  0.41171432  1
  Rh  Rh214  1  0.80236877  0.19657105  0.40460967  1
  Rh  Rh215  1  0.80460716  0.80156930  0.60346210  1
  Rh  Rh216  1  0.80353158  0.59928286  0.79156665  1
  Rh  Rh217  1  0.39249901  0.00007896  0.39365408  1
  Rh  Rh218  1  0.39740940  0.79526879  0.40111950  1
  Rh  Rh219  1  0.00703795  0.79488265  0.40386423  1
  Rh  Rh220  1  0.19572136  0.18988906  0.80065178  1
  Rh  Rh221  1  0.19381847  0.80179878  0.39949160  1
  Rh  Rh222  1  0.80132882  0.79805198  0.79711651  1
  Rh  Rh223  1  0.00644908  0.39427274  0.59576824  1
  Rh  Rh224  1  0.60386561  0.61116139  0.19178657  1
  Rh  Rh225  1  0.20401472  0.40461562  0.79717754  1
  Rh  Rh226  1  0.38865427  0.00255839  0.59423470  1
  Rh  Rh227  1  0.20201695  0.19715775  -0.00544994  1
  Rh  Rh228  1  0.78985392  0.80789547  0.39562683  1
  Rh  Rh229  1  0.59279816  0.00403666  0.79699701  1
  Rh  Rh230  1  -0.00783808  0.00522152  0.39862823  1
  Rh  Rh231  1  0.20467495  0.39577534  0.60298783  1
  Rh  Rh232  1  0.39746653  0.40088394  0.19136868  1
  Rh  Rh233  1  0.59869911  0.80332933  0.60359316  1
  Rh  Rh234  1  0.00464212  -0.00261814  0.00398686  1
  Rh  Rh235  1  0.59284485  0.59308299  0.59536494  1
  Rh  Rh236  1  0.19160292  0.21135612  0.19711264  1
  Rh  Rh237  1  0.80269449  -0.01031918  0.21078762  1
  Rh  Rh238  1  -0.00303091  0.80143753  0.00249720  1
  Rh  Rh239  1  0.21508590  0.40391084  0.01188625  1
  Rh  Rh240  1  0.20342334  0.40693301  0.39065678  1
  Rh  Rh241  1  0.41024225  0.20117798  0.39209849  1
  Rh  Rh242  1  0.81224370  0.19963147  0.60906286  1
  Rh  Rh243  1  0.80888856  0.80466228  0.00835482  1
  Rh  Rh244  1  0.81344693  -0.00080929  0.80149124  1
  Rh  Rh245  1  0.39074290  0.40509553  0.80258498  1
  Rh  Rh246  1  0.40181647  0.00055589  0.79828972  1
  Rh  Rh247  1  0.39026060  0.80094824  0.20131270  1
  Rh  Rh248  1  0.61248152  0.00781536  0.41136564  1
  Rh  Rh249  1  0.19457799  0.20235154  0.40448980  1
