# generated using pymatgen
data_ZrScNbPdRh
_symmetry_space_group_name_H-M   'P 1'
_cell_length_a   16.55602082
_cell_length_b   16.56094153
_cell_length_c   16.55587118
_cell_angle_alpha   89.99202407
_cell_angle_beta   89.98151101
_cell_angle_gamma   90.04398715
_symmetry_Int_Tables_number   1
_chemical_formula_structural   ZrScNbPdRh
_chemical_formula_sum   'Zr50 Sc50 Nb50 Pd50 Rh50'
_cell_volume   4539.34165608
_cell_formula_units_Z   50
loop_
 _symmetry_equiv_pos_site_id
 _symmetry_equiv_pos_as_xyz
  1  'x, y, z'
loop_
 _atom_site_type_symbol
 _atom_site_label
 _atom_site_symmetry_multiplicity
 _atom_site_fract_x
 _atom_site_fract_y
 _atom_site_fract_z
 _atom_site_occupancy
  Zr  Zr0  1  0.50260254  0.69520040  0.49355041  1
  Zr  Zr1  1  0.90902662  0.89585129  0.29712696  1
  Zr  Zr2  1  0.50735382  0.90214972  0.30243533  1
  Zr  Zr3  1  0.70684828  0.30410214  0.30170366  1
  Zr  Zr4  1  0.49746384  0.50404038  0.90858218  1
  Zr  Zr5  1  0.50051993  0.30414276  0.50613506  1
  Zr  Zr6  1  0.30188046  0.51303437  0.09694349  1
  Zr  Zr7  1  0.69956487  0.10005371  0.90022698  1
  Zr  Zr8  1  0.09828711  0.49837685  0.90855704  1
  Zr  Zr9  1  0.90347104  0.49822618  0.09865811  1
  Zr  Zr10  1  0.69123501  0.50394163  0.09743397  1
  Zr  Zr11  1  0.09408672  0.50294735  0.09966513  1
  Zr  Zr12  1  0.68886484  0.30276157  0.89952021  1
  Zr  Zr13  1  0.70555309  0.89706155  0.90469970  1
  Zr  Zr14  1  0.30073409  0.50255293  0.90282811  1
  Zr  Zr15  1  0.69992340  0.70368427  0.69899215  1
  Zr  Zr16  1  0.10260810  0.30310443  0.50063009  1
  Zr  Zr17  1  0.90203596  0.70042445  0.30426322  1
  Zr  Zr18  1  0.30102325  0.69599914  0.29728800  1
  Zr  Zr19  1  0.49930905  0.70601355  0.29534451  1
  Zr  Zr20  1  0.70101996  0.89396556  0.09617843  1
  Zr  Zr21  1  0.49309152  0.09472527  0.11183665  1
  Zr  Zr22  1  0.09871923  0.89399215  0.29724866  1
  Zr  Zr23  1  0.09729756  0.29466851  0.90872313  1
  Zr  Zr24  1  0.69619550  0.09651126  0.09772449  1
  Zr  Zr25  1  0.29484073  0.89647972  0.51295878  1
  Zr  Zr26  1  0.69450316  0.50230946  0.90121159  1
  Zr  Zr27  1  0.50761940  0.89457693  0.10568299  1
  Zr  Zr28  1  0.70638146  0.89325334  0.69502120  1
  Zr  Zr29  1  0.31013376  0.90876882  0.08856788  1
  Zr  Zr30  1  0.30274805  0.09605982  0.49462162  1
  Zr  Zr31  1  0.09989605  0.30236627  0.69595219  1
  Zr  Zr32  1  0.29463204  0.29293526  0.90016797  1
  Zr  Zr33  1  0.90201368  0.88940986  0.90702360  1
  Zr  Zr34  1  0.50291732  0.50176038  0.50292253  1
  Zr  Zr35  1  0.31552224  0.10686202  0.29959189  1
  Zr  Zr36  1  0.47882846  0.30556053  0.29614916  1
  Zr  Zr37  1  0.08439216  0.30592978  0.10388221  1
  Zr  Zr38  1  0.10789609  0.90171290  0.89743681  1
  Zr  Zr39  1  0.09333788  0.69434637  0.49426891  1
  Zr  Zr40  1  0.70177915  0.30644802  0.10800252  1
  Zr  Zr41  1  0.30170121  0.69682289  0.49707920  1
  Zr  Zr42  1  0.29535819  0.49643031  0.69970073  1
  Zr  Zr43  1  0.09833881  0.70341121  0.29850434  1
  Zr  Zr44  1  0.29092746  0.09400310  0.91367902  1
  Zr  Zr45  1  0.70266378  0.70113562  0.49822549  1
  Zr  Zr46  1  0.09066726  0.10495221  0.69026634  1
  Zr  Zr47  1  0.09610337  0.50550233  0.29718037  1
  Zr  Zr48  1  0.49696604  0.09004356  0.49968891  1
  Zr  Zr49  1  0.09918570  0.90068159  0.49528480  1
  Sc  Sc50  1  0.10155003  0.10888682  0.08672440  1
  Sc  Sc51  1  0.09104298  0.89853092  0.09940710  1
  Sc  Sc52  1  0.70152595  0.50580574  0.49992665  1
  Sc  Sc53  1  0.30056698  0.49723097  0.29937836  1
  Sc  Sc54  1  0.70739331  0.09260799  0.70233392  1
  Sc  Sc55  1  0.30119763  0.50138461  0.49076027  1
  Sc  Sc56  1  0.09624242  0.09058137  0.30482006  1
  Sc  Sc57  1  0.70143188  0.89336737  0.49885765  1
  Sc  Sc58  1  0.69994601  0.31038311  0.49996386  1
  Sc  Sc59  1  0.89887649  0.09614866  0.69450993  1
  Sc  Sc60  1  0.70881658  0.10198689  0.29872672  1
  Sc  Sc61  1  0.89702218  0.69323566  0.49830507  1
  Sc  Sc62  1  0.10238321  0.10072402  0.90070768  1
  Sc  Sc63  1  0.89274766  0.90293059  0.49867165  1
  Sc  Sc64  1  0.70788975  0.08731484  0.49489477  1
  Sc  Sc65  1  0.89462648  0.50019548  0.30216834  1
  Sc  Sc66  1  0.09952526  0.69738622  0.10308336  1
  Sc  Sc67  1  0.90507255  0.70494062  0.09203222  1
  Sc  Sc68  1  0.70401865  0.50024826  0.29827524  1
  Sc  Sc69  1  0.50514222  0.69323563  0.89769500  1
  Sc  Sc70  1  0.11871213  0.89520255  0.69487172  1
  Sc  Sc71  1  0.70293046  0.69685429  0.90427575  1
  Sc  Sc72  1  0.50597602  0.50898897  0.70066236  1
  Sc  Sc73  1  0.08862842  0.70094354  0.90167819  1
  Sc  Sc74  1  0.89678149  0.30394445  0.49275308  1
  Sc  Sc75  1  0.89679938  0.69545471  0.70481765  1
  Sc  Sc76  1  0.69150784  0.30703207  0.70350758  1
  Sc  Sc77  1  0.30060208  0.88859964  0.29888565  1
  Sc  Sc78  1  0.69835578  0.70346496  0.30459067  1
  Sc  Sc79  1  0.49935353  0.88646848  0.90802607  1
  Sc  Sc80  1  0.09284938  0.49212902  0.69025343  1
  Sc  Sc81  1  0.09696335  0.08901856  0.49864887  1
  Sc  Sc82  1  0.30811998  0.10550553  0.70381597  1
  Sc  Sc83  1  0.30458015  0.70666812  0.69832519  1
  Sc  Sc84  1  0.50611692  0.11640536  0.89379607  1
  Sc  Sc85  1  0.89290031  0.30035558  0.28508567  1
  Sc  Sc86  1  0.49996651  0.70121901  0.70356438  1
  Sc  Sc87  1  0.89879214  0.10106751  0.89348490  1
  Sc  Sc88  1  0.49387394  0.50974758  0.29339460  1
  Sc  Sc89  1  0.89155817  0.50852618  0.90198688  1
  Sc  Sc90  1  0.69615754  0.50397629  0.70076310  1
  Sc  Sc91  1  0.29505110  0.29722737  0.70173431  1
  Sc  Sc92  1  0.49999518  0.90253920  0.50092050  1
  Sc  Sc93  1  0.90832991  0.10733827  0.10300250  1
  Sc  Sc94  1  0.90594091  0.29000121  0.70086763  1
  Sc  Sc95  1  0.31491790  0.69716346  0.89658009  1
  Sc  Sc96  1  0.09785866  0.70217398  0.70133083  1
  Sc  Sc97  1  0.30452648  0.30884160  0.11125848  1
  Sc  Sc98  1  0.49776623  0.28499323  0.71083692  1
  Sc  Sc99  1  0.50190027  0.69550598  0.10320469  1
  Nb  Nb100  1  0.89923162  0.89798960  0.09948824  1
  Nb  Nb101  1  0.90868564  0.50203382  0.50463347  1
  Nb  Nb102  1  0.90500257  0.49618220  0.69458319  1
  Nb  Nb103  1  0.89992018  0.70048209  0.90121049  1
  Nb  Nb104  1  0.49993224  0.90256273  0.70259700  1
  Nb  Nb105  1  0.50111511  0.10209080  0.30354797  1
  Nb  Nb106  1  0.29296043  0.30249401  0.30980947  1
  Nb  Nb107  1  0.70640352  0.89171585  0.29775908  1
  Nb  Nb108  1  0.50220661  0.09602330  0.69976736  1
  Nb  Nb109  1  0.89542736  0.30258533  0.90253458  1
  Nb  Nb110  1  0.29964494  0.30320256  0.49255538  1
  Nb  Nb111  1  0.09067030  0.50082861  0.50425145  1
  Nb  Nb112  1  0.10270618  0.30362155  0.30130766  1
  Nb  Nb113  1  0.69813921  0.69830239  0.10023131  1
  Nb  Nb114  1  0.29936788  0.90152558  0.89640837  1
  Nb  Nb115  1  0.29930094  0.70980215  0.10611610  1
  Nb  Nb116  1  0.49744190  0.30145065  0.90457192  1
  Nb  Nb117  1  0.30700305  0.89422499  0.71264555  1
  Nb  Nb118  1  0.49819326  0.49735339  0.10167738  1
  Nb  Nb119  1  0.89424561  0.89403406  0.69989314  1
  Nb  Nb120  1  0.89833247  0.30042065  0.09706569  1
  Nb  Nb121  1  0.90339729  0.10142180  0.49757238  1
  Nb  Nb122  1  0.29885173  0.10237782  0.10159823  1
  Nb  Nb123  1  0.50101488  0.30860421  0.09987490  1
  Nb  Nb124  1  0.89846651  0.10019888  0.30227416  1
  Nb  Nb125  1  0.20505685  0.00616750  0.19420244  1
  Nb  Nb126  1  0.80756691  -0.00720269  0.19917160  1
  Nb  Nb127  1  0.80026825  0.20822168  0.00054286  1
  Nb  Nb128  1  0.19842348  0.59582471  0.79702901  1
  Nb  Nb129  1  0.00327895  0.39901975  0.39860339  1
  Nb  Nb130  1  0.59637999  0.20117717  0.39798529  1
  Nb  Nb131  1  -0.00287580  0.20186990  0.39469513  1
  Nb  Nb132  1  0.59131872  0.20327600  0.20676805  1
  Nb  Nb133  1  0.40361656  -0.00459022  0.80226354  1
  Nb  Nb134  1  0.19592742  0.59705139  0.59788578  1
  Nb  Nb135  1  0.80710770  0.40222057  0.60351487  1
  Nb  Nb136  1  0.20824729  0.80275552  -0.00187244  1
  Nb  Nb137  1  0.20348630  0.20209860  0.59006790  1
  Nb  Nb138  1  0.79661393  0.20224935  0.59513508  1
  Nb  Nb139  1  -0.00313259  0.80251291  0.60048971  1
  Nb  Nb140  1  0.60186056  0.19190182  0.59594414  1
  Nb  Nb141  1  0.20106755  0.20299963  0.20828087  1
  Nb  Nb142  1  -0.00551898  0.39845760  0.80459801  1
  Nb  Nb143  1  0.40015264  0.39803333  0.80352664  1
  Nb  Nb144  1  0.59474080  0.39670160  0.39600223  1
  Nb  Nb145  1  0.79758931  0.60604942  0.19260940  1
  Nb  Nb146  1  0.39810165  0.39756166  0.60367671  1
  Nb  Nb147  1  0.59506730  -0.00603095  0.79650789  1
  Nb  Nb148  1  0.40322477  0.20383565  0.00796135  1
  Nb  Nb149  1  0.00070463  -0.01026159  0.79445410  1
  Pd  Pd150  1  0.80320955  -0.00735667  0.39239433  1
  Pd  Pd151  1  0.40084124  0.79104720  0.00141115  1
  Pd  Pd152  1  0.19588032  0.19194519  0.79159323  1
  Pd  Pd153  1  0.59742644  0.20455398  0.01234005  1
  Pd  Pd154  1  0.80255602  0.79590139  0.19620986  1
  Pd  Pd155  1  0.39289827  -0.00434005  0.60877114  1
  Pd  Pd156  1  0.60920867  0.00100895  0.60421263  1
  Pd  Pd157  1  0.00325947  0.00660066  0.19539727  1
  Pd  Pd158  1  0.20077689  0.40164454  0.19755596  1
  Pd  Pd159  1  0.19319416  0.41241316  0.40252596  1
  Pd  Pd160  1  0.40091683  0.80437748  0.40439879  1
  Pd  Pd161  1  0.41521941  0.00973598  -0.01282802  1
  Pd  Pd162  1  0.80358636  -0.00671704  0.80108582  1
  Pd  Pd163  1  0.00093347  0.19811936  0.80549203  1
  Pd  Pd164  1  0.59218664  0.79829423  0.59521630  1
  Pd  Pd165  1  0.39878270  0.20446700  0.59697938  1
  Pd  Pd166  1  0.60857906  0.00117535  0.39430200  1
  Pd  Pd167  1  0.59419018  0.40002393  0.21027428  1
  Pd  Pd168  1  0.19172506  0.19154125  0.39907370  1
  Pd  Pd169  1  0.60261783  0.59377651  0.39156896  1
  Pd  Pd170  1  0.80025138  0.59439334  0.60211931  1
  Pd  Pd171  1  0.81226071  0.01052972  0.00744820  1
  Pd  Pd172  1  0.20130343  0.39543144  0.01139395  1
  Pd  Pd173  1  0.20007205  0.60053685  0.20084779  1
  Pd  Pd174  1  0.58651233  0.40395032  0.79783779  1
  Pd  Pd175  1  0.19349502  0.40325886  0.80401893  1
  Pd  Pd176  1  0.61180497  0.00229515  0.21063127  1
  Pd  Pd177  1  0.58894752  0.00004733  -0.01113216  1
  Pd  Pd178  1  0.80003466  0.20200193  0.40608541  1
  Pd  Pd179  1  0.39529187  0.59551846  0.60492775  1
  Pd  Pd180  1  0.00446496  0.59045631  0.79706337  1
  Pd  Pd181  1  -0.00198319  0.00349982  -0.00749782  1
  Pd  Pd182  1  0.20922826  -0.00294925  0.38824216  1
  Pd  Pd183  1  0.20077227  0.61655912  -0.00780314  1
  Pd  Pd184  1  0.79826569  0.59960473  0.79827829  1
  Pd  Pd185  1  -0.00669991  -0.01243125  0.60445944  1
  Pd  Pd186  1  0.20989696  0.00834584  0.61078875  1
  Pd  Pd187  1  0.40592312  0.20229311  0.40845102  1
  Pd  Pd188  1  0.39519841  -0.00966972  0.20882931  1
  Pd  Pd189  1  0.20114950  0.79705377  0.40265600  1
  Pd  Pd190  1  0.40808966  0.79964460  0.59968240  1
  Pd  Pd191  1  0.79415861  0.20621619  0.79691538  1
  Pd  Pd192  1  0.20480321  0.78493628  0.80941169  1
  Pd  Pd193  1  0.39556192  0.39608721  -0.00054565  1
  Pd  Pd194  1  0.20040026  0.00901596  0.79019393  1
  Pd  Pd195  1  -0.00069928  0.80524854  0.79205078  1
  Pd  Pd196  1  0.00768022  0.19598005  0.20835806  1
  Pd  Pd197  1  0.60214704  0.80156380  0.80448149  1
  Pd  Pd198  1  0.80618511  0.40023426  0.79164964  1
  Pd  Pd199  1  0.79730083  0.39962606  0.00075381  1
  Rh  Rh200  1  0.40441937  0.60745968  0.00858582  1
  Rh  Rh201  1  0.61025425  0.19042603  0.78878487  1
  Rh  Rh202  1  0.00289095  0.61178562  0.60642098  1
  Rh  Rh203  1  0.00125474  0.79392132  0.19436042  1
  Rh  Rh204  1  0.80216147  0.80028431  0.40172378  1
  Rh  Rh205  1  0.60519131  0.60256866  0.80143761  1
  Rh  Rh206  1  -0.00342711  0.60336231  -0.00100435  1
  Rh  Rh207  1  0.80353468  0.41168031  0.41137224  1
  Rh  Rh208  1  0.59869134  0.39791364  0.59871874  1
  Rh  Rh209  1  0.59563724  0.60294923  0.00257517  1
  Rh  Rh210  1  0.40050748  0.59959556  0.39390264  1
  Rh  Rh211  1  0.20866624  0.21330773  0.01850891  1
  Rh  Rh212  1  0.39593470  0.59291506  0.79517940  1
  Rh  Rh213  1  -0.00936613  0.60474555  0.19884720  1
  Rh  Rh214  1  0.19338414  0.78742857  0.59308539  1
  Rh  Rh215  1  0.80126837  0.59903805  0.39534667  1
  Rh  Rh216  1  0.00673154  0.79849560  0.00111340  1
  Rh  Rh217  1  0.21032091  0.40141992  0.58881077  1
  Rh  Rh218  1  0.40232480  0.80330413  0.19759449  1
  Rh  Rh219  1  0.60565788  0.60319542  0.20076122  1
  Rh  Rh220  1  0.19203019  -0.00805380  0.00937193  1
  Rh  Rh221  1  -0.00799835  0.00229739  0.39940610  1
  Rh  Rh222  1  0.80185059  0.60515381  0.00625119  1
  Rh  Rh223  1  -0.01232062  0.19992196  -0.00723983  1
  Rh  Rh224  1  0.39569107  -0.01125888  0.39748545  1
  Rh  Rh225  1  -0.00625736  0.40080855  0.20806252  1
  Rh  Rh226  1  -0.00821995  0.40146217  -0.00782412  1
  Rh  Rh227  1  0.60075763  0.80340467  0.40115239  1
  Rh  Rh228  1  -0.00351263  0.59130668  0.39575858  1
  Rh  Rh229  1  0.40724422  0.80315710  0.80213046  1
  Rh  Rh230  1  -0.01079980  0.38957600  0.59819048  1
  Rh  Rh231  1  0.60398745  0.79608991  0.20136918  1
  Rh  Rh232  1  0.39399956  0.41043770  0.19818076  1
  Rh  Rh233  1  0.80035046  0.79408590  0.80624606  1
  Rh  Rh234  1  -0.00558897  0.80271586  0.41091672  1
  Rh  Rh235  1  0.59858256  0.40221946  -0.00033181  1
  Rh  Rh236  1  0.80915014  0.79441315  0.59593405  1
  Rh  Rh237  1  -0.00204935  0.20164672  0.58666854  1
  Rh  Rh238  1  0.20091948  0.81204579  0.18644300  1
  Rh  Rh239  1  0.60342323  0.60965805  0.60148820  1
  Rh  Rh240  1  0.40428651  0.40746718  0.40538518  1
  Rh  Rh241  1  0.80285280  0.00376684  0.59768882  1
  Rh  Rh242  1  0.19663474  0.59738335  0.40285091  1
  Rh  Rh243  1  0.79529326  0.18892196  0.18859935  1
  Rh  Rh244  1  0.80338659  0.41268605  0.19337044  1
  Rh  Rh245  1  0.39746873  0.60216937  0.19663452  1
  Rh  Rh246  1  0.79922639  0.79135050  0.00038074  1
  Rh  Rh247  1  0.39428774  0.19782917  0.81240777  1
  Rh  Rh248  1  0.39840471  0.20514894  0.19454416  1
  Rh  Rh249  1  0.60223953  0.79169499  0.00223022  1
