# generated using pymatgen
data_ZrScNbPdRh
_symmetry_space_group_name_H-M   'P 1'
_cell_length_a   16.56260335
_cell_length_b   16.56130531
_cell_length_c   16.56049338
_cell_angle_alpha   90.03300928
_cell_angle_beta   89.98097363
_cell_angle_gamma   89.99455807
_symmetry_Int_Tables_number   1
_chemical_formula_structural   ZrScNbPdRh
_chemical_formula_sum   'Zr50 Sc50 Nb50 Pd50 Rh50'
_cell_volume   4542.51466620
_cell_formula_units_Z   50
loop_
 _symmetry_equiv_pos_site_id
 _symmetry_equiv_pos_as_xyz
  1  'x, y, z'
loop_
 _atom_site_type_symbol
 _atom_site_label
 _atom_site_symmetry_multiplicity
 _atom_site_fract_x
 _atom_site_fract_y
 _atom_site_fract_z
 _atom_site_occupancy
  Zr  Zr0  1  0.30198181  0.69507283  0.30233573  1
  Zr  Zr1  1  0.51241969  0.90305960  0.30164917  1
  Zr  Zr2  1  0.89608877  0.29472362  0.50698391  1
  Zr  Zr3  1  0.29849147  0.89578464  0.30072152  1
  Zr  Zr4  1  0.10412630  0.90329340  0.89774511  1
  Zr  Zr5  1  0.09823774  0.09704343  0.50112945  1
  Zr  Zr6  1  0.50139165  0.10539303  0.70789599  1
  Zr  Zr7  1  0.70195170  0.09693479  0.50523198  1
  Zr  Zr8  1  0.10269814  0.90477921  0.10010343  1
  Zr  Zr9  1  0.50946949  0.69012542  0.70626111  1
  Zr  Zr10  1  0.69577369  0.29974897  0.29711498  1
  Zr  Zr11  1  0.70569108  0.69207017  0.51369734  1
  Zr  Zr12  1  0.89405710  0.50020322  0.91252607  1
  Zr  Zr13  1  0.49956181  0.90056484  0.90457877  1
  Zr  Zr14  1  0.69558587  0.08906912  0.29798031  1
  Zr  Zr15  1  0.89304889  0.51165291  0.70580049  1
  Zr  Zr16  1  0.09482419  0.90325597  0.70228250  1
  Zr  Zr17  1  0.10069051  0.49357073  0.10266227  1
  Zr  Zr18  1  0.49610477  0.10157741  0.52131029  1
  Zr  Zr19  1  0.50331855  0.70108272  0.09674893  1
  Zr  Zr20  1  0.69746654  0.51187622  0.69026355  1
  Zr  Zr21  1  0.50585530  0.30092704  0.88811717  1
  Zr  Zr22  1  0.09382733  0.29006991  0.70306127  1
  Zr  Zr23  1  0.29545221  0.10622026  0.29613780  1
  Zr  Zr24  1  0.30356481  0.70123483  0.48903329  1
  Zr  Zr25  1  0.49933931  0.30046593  0.69186668  1
  Zr  Zr26  1  0.29509938  0.29612002  0.09950947  1
  Zr  Zr27  1  0.50351289  0.49355762  0.50191634  1
  Zr  Zr28  1  0.49687755  0.09856835  0.89525159  1
  Zr  Zr29  1  0.30102707  0.69826236  0.90464648  1
  Zr  Zr30  1  0.89429922  0.29417416  0.70362959  1
  Zr  Zr31  1  0.90308278  0.30055327  0.29704382  1
  Zr  Zr32  1  0.29790902  0.90805396  0.90574301  1
  Zr  Zr33  1  0.89032488  0.69962641  0.10022125  1
  Zr  Zr34  1  0.71035964  0.50538569  0.09804478  1
  Zr  Zr35  1  0.10305422  0.70237312  0.90080997  1
  Zr  Zr36  1  0.29881567  0.69287439  0.70193701  1
  Zr  Zr37  1  0.69820878  0.90576212  0.90622987  1
  Zr  Zr38  1  0.09818887  0.30337277  0.90532903  1
  Zr  Zr39  1  0.09574780  0.09209561  0.69869381  1
  Zr  Zr40  1  0.90349728  0.49661875  0.29661860  1
  Zr  Zr41  1  0.91556169  0.30217520  0.09727079  1
  Zr  Zr42  1  0.49966468  0.29604757  0.28996306  1
  Zr  Zr43  1  0.69882306  0.49227729  0.90548198  1
  Zr  Zr44  1  0.31067238  0.10108174  0.69873360  1
  Zr  Zr45  1  0.69893161  0.49731374  0.29678790  1
  Zr  Zr46  1  0.70482940  0.89955470  0.29540027  1
  Zr  Zr47  1  0.09684009  0.50293105  0.90759100  1
  Zr  Zr48  1  0.50118131  0.89512681  0.49986463  1
  Zr  Zr49  1  0.49994883  0.90978737  0.70535743  1
  Sc  Sc50  1  0.89998455  0.08786266  0.51143840  1
  Sc  Sc51  1  0.49033602  0.10778926  0.10122455  1
  Sc  Sc52  1  0.29240793  0.49803606  0.49401620  1
  Sc  Sc53  1  0.89293194  0.89139871  0.09860290  1
  Sc  Sc54  1  0.50380017  0.49231362  0.70733023  1
  Sc  Sc55  1  0.10811191  0.50287466  0.70023097  1
  Sc  Sc56  1  0.89192920  0.10632963  0.89831806  1
  Sc  Sc57  1  0.89958896  0.10670353  0.09382899  1
  Sc  Sc58  1  0.89536823  0.69377095  0.89960233  1
  Sc  Sc59  1  0.29937418  0.69048150  0.10283162  1
  Sc  Sc60  1  0.89317826  0.89704079  0.89899455  1
  Sc  Sc61  1  0.70824736  0.89429019  0.71159517  1
  Sc  Sc62  1  0.30193145  0.31131951  0.50006465  1
  Sc  Sc63  1  0.70549821  0.08874622  0.09471249  1
  Sc  Sc64  1  0.50373989  0.69377615  0.48767049  1
  Sc  Sc65  1  0.50559294  0.90159982  0.09543339  1
  Sc  Sc66  1  0.30283728  0.30394709  0.70145114  1
  Sc  Sc67  1  0.29108865  0.30490651  0.30001145  1
  Sc  Sc68  1  0.50184707  0.69436565  0.90552692  1
  Sc  Sc69  1  0.09959435  0.10068440  0.88883651  1
  Sc  Sc70  1  0.09935164  0.70461266  0.10086350  1
  Sc  Sc71  1  0.50053749  0.50564785  0.30589323  1
  Sc  Sc72  1  0.70501926  0.09599534  0.70618915  1
  Sc  Sc73  1  0.29796292  0.89794756  0.49241157  1
  Sc  Sc74  1  0.90626831  0.09921633  0.70194810  1
  Sc  Sc75  1  0.10370989  0.70268880  0.30263259  1
  Sc  Sc76  1  0.09449191  0.70383132  0.49120989  1
  Sc  Sc77  1  0.09996530  0.30380832  0.28898419  1
  Sc  Sc78  1  0.50261754  0.69780172  0.30450778  1
  Sc  Sc79  1  0.29464868  0.91250696  0.09697699  1
  Sc  Sc80  1  0.30083801  0.49460176  0.69447841  1
  Sc  Sc81  1  0.70670706  0.90128387  0.49945314  1
  Sc  Sc82  1  0.09890956  0.69569803  0.69875982  1
  Sc  Sc83  1  0.29358805  0.90769265  0.70751173  1
  Sc  Sc84  1  0.29422878  0.50053836  0.90233985  1
  Sc  Sc85  1  0.89909251  0.49854192  0.48828356  1
  Sc  Sc86  1  0.10184399  0.30305111  0.49676771  1
  Sc  Sc87  1  0.29509377  0.29240585  0.90127942  1
  Sc  Sc88  1  0.28949593  0.50341484  0.10033339  1
  Sc  Sc89  1  0.10269498  0.89855483  0.30084296  1
  Sc  Sc90  1  0.69427375  0.31062046  0.09913805  1
  Sc  Sc91  1  0.09180984  0.89953766  0.49963887  1
  Sc  Sc92  1  0.89950299  0.90047847  0.69279558  1
  Sc  Sc93  1  0.29070251  0.50392371  0.29901259  1
  Sc  Sc94  1  0.69915670  0.89553400  0.09947838  1
  Sc  Sc95  1  0.29547303  0.10357973  0.09419644  1
  Sc  Sc96  1  0.50280229  0.29513430  0.09834622  1
  Sc  Sc97  1  0.10284359  0.10155153  0.29910533  1
  Sc  Sc98  1  0.71211373  0.30183976  0.89376573  1
  Sc  Sc99  1  0.51677681  0.50150817  0.09410128  1
  Nb  Nb100  1  0.30829035  0.09818520  0.90281665  1
  Nb  Nb101  1  0.29957628  0.10611090  0.49765535  1
  Nb  Nb102  1  0.50236973  0.30027182  0.50214884  1
  Nb  Nb103  1  0.89742446  0.89772736  0.30483942  1
  Nb  Nb104  1  0.88857147  0.70239429  0.69068383  1
  Nb  Nb105  1  0.09738792  0.50435385  0.30732130  1
  Nb  Nb106  1  0.50341929  0.49092738  0.90216966  1
  Nb  Nb107  1  0.70898100  0.69706406  0.70333620  1
  Nb  Nb108  1  0.70272105  0.71054536  0.89429302  1
  Nb  Nb109  1  0.70088025  0.09980537  0.90243623  1
  Nb  Nb110  1  0.09350748  0.50411290  0.49456902  1
  Nb  Nb111  1  0.50065070  0.10437184  0.29930417  1
  Nb  Nb112  1  0.69664558  0.30570939  0.50294819  1
  Nb  Nb113  1  0.90088254  0.70606514  0.30659068  1
  Nb  Nb114  1  0.90125607  0.50277282  0.09949618  1
  Nb  Nb115  1  0.70222951  0.30886003  0.69441315  1
  Nb  Nb116  1  0.90217622  0.70874565  0.50192673  1
  Nb  Nb117  1  0.90265179  0.88468934  0.50101272  1
  Nb  Nb118  1  0.09633432  0.10104199  0.10535493  1
  Nb  Nb119  1  0.89630714  0.09940199  0.29736521  1
  Nb  Nb120  1  0.70076723  0.70232688  0.10016249  1
  Nb  Nb121  1  0.90151276  0.30240249  0.89848110  1
  Nb  Nb122  1  0.10165183  0.29736236  0.10034935  1
  Nb  Nb123  1  0.69609274  0.49980335  0.49569975  1
  Nb  Nb124  1  0.70255026  0.69921293  0.29415122  1
  Nb  Nb125  1  0.40190034  0.79394741  0.60709313  1
  Nb  Nb126  1  0.80075721  0.60636222  0.39551327  1
  Nb  Nb127  1  0.40326705  0.39971094  0.00056504  1
  Nb  Nb128  1  0.40245223  0.01064314  0.39849321  1
  Nb  Nb129  1  0.40137561  0.80373871  0.20132405  1
  Nb  Nb130  1  0.20333600  0.79763322  0.60048479  1
  Nb  Nb131  1  0.60498047  0.19612740  -0.00969276  1
  Nb  Nb132  1  -0.00525619  0.40145403  0.80111938  1
  Nb  Nb133  1  -0.00542040  0.00022907  0.19955205  1
  Nb  Nb134  1  -0.00322468  0.79489170  0.79620082  1
  Nb  Nb135  1  0.40176196  0.00038398  0.20858900  1
  Nb  Nb136  1  0.00272857  0.00066997  0.00403647  1
  Nb  Nb137  1  0.40626774  0.19997710  0.40374881  1
  Nb  Nb138  1  0.59776354  0.20122992  0.40919071  1
  Nb  Nb139  1  -0.00554069  0.59890690  0.20380212  1
  Nb  Nb140  1  0.40231365  0.60158239  0.59764740  1
  Nb  Nb141  1  -0.00489307  0.59982798  0.59319103  1
  Nb  Nb142  1  0.39940243  0.79787828  0.80022093  1
  Nb  Nb143  1  0.39991900  0.40243220  0.19362429  1
  Nb  Nb144  1  0.80216793  0.19945011  0.20420698  1
  Nb  Nb145  1  -0.00206403  0.40628393  0.60470102  1
  Nb  Nb146  1  0.59944328  0.79405439  0.60747613  1
  Nb  Nb147  1  -0.00922747  0.19557125  0.39742392  1
  Nb  Nb148  1  0.79649046  0.19810615  0.39904801  1
  Nb  Nb149  1  0.20298113  0.19475762  0.59800133  1
  Pd  Pd150  1  0.79266201  0.20889845  0.00884595  1
  Pd  Pd151  1  0.80487118  0.60328950  0.20634932  1
  Pd  Pd152  1  0.20174794  -0.00303209  0.39938041  1
  Pd  Pd153  1  0.19176638  0.39459902  0.59959139  1
  Pd  Pd154  1  0.39889638  0.39799774  0.39015251  1
  Pd  Pd155  1  0.79134499  0.79423724  0.40090006  1
  Pd  Pd156  1  0.19151676  0.19316718  -0.00162768  1
  Pd  Pd157  1  0.79648596  0.39867010  0.40201739  1
  Pd  Pd158  1  0.19780070  0.20815498  0.40435590  1
  Pd  Pd159  1  0.80599920  0.00146105  0.80153135  1
  Pd  Pd160  1  0.60911793  0.60667764  -0.00697797  1
  Pd  Pd161  1  0.61377053  0.20443974  0.79898189  1
  Pd  Pd162  1  0.00284409  0.60623983  0.01056946  1
  Pd  Pd163  1  -0.00413530  0.80469694  -0.00803239  1
  Pd  Pd164  1  0.20183333  0.59441646  0.80245283  1
  Pd  Pd165  1  0.20763185  0.79731881  0.00950178  1
  Pd  Pd166  1  0.59326359  0.00946797  0.00463966  1
  Pd  Pd167  1  0.20831018  0.79621910  0.19472859  1
  Pd  Pd168  1  0.59734611  0.79773100  0.19816344  1
  Pd  Pd169  1  0.00373334  0.39066226  0.40337259  1
  Pd  Pd170  1  0.80420624  0.40949429  0.59723124  1
  Pd  Pd171  1  0.39980854  0.59476918  0.79933443  1
  Pd  Pd172  1  0.19963944  0.79866881  0.79372471  1
  Pd  Pd173  1  0.60737357  0.59446254  0.81163092  1
  Pd  Pd174  1  0.59335703  0.00832956  0.40962783  1
  Pd  Pd175  1  -0.00102620  0.60277581  0.79508978  1
  Pd  Pd176  1  0.40165760  0.58626835  0.00358142  1
  Pd  Pd177  1  -0.00591779  -0.00003015  0.39490702  1
  Pd  Pd178  1  0.20520212  -0.00307424  0.59468273  1
  Pd  Pd179  1  0.38994434  -0.01197387  0.59390695  1
  Pd  Pd180  1  0.80363422  0.39367007  0.19170472  1
  Pd  Pd181  1  0.80813286  -0.00063669  0.19023433  1
  Pd  Pd182  1  0.59710779  0.59957177  0.20159811  1
  Pd  Pd183  1  0.59600062  0.39513526  0.39596964  1
  Pd  Pd184  1  0.61255619  -0.01084455  0.60945120  1
  Pd  Pd185  1  0.39285531  0.40117423  0.80759998  1
  Pd  Pd186  1  0.80893293  0.00038841  0.40525242  1
  Pd  Pd187  1  0.39441043  0.80227280  0.00508625  1
  Pd  Pd188  1  0.79440291  0.19508759  0.60327185  1
  Pd  Pd189  1  0.59516264  0.80278494  0.79991352  1
  Pd  Pd190  1  0.61148927  0.20190179  0.60403172  1
  Pd  Pd191  1  0.00547509  0.19083000  -0.00815758  1
  Pd  Pd192  1  0.19768353  0.60573039  0.58831950  1
  Pd  Pd193  1  0.40687310  0.59660126  0.19706662  1
  Pd  Pd194  1  0.19493430  0.40180422  0.80216716  1
  Pd  Pd195  1  0.80014508  0.40525495  0.79691512  1
  Pd  Pd196  1  0.61283427  0.79212622  0.40722618  1
  Pd  Pd197  1  0.20669558  0.19435122  0.79356021  1
  Pd  Pd198  1  -0.00315474  0.80124165  0.20517136  1
  Pd  Pd199  1  0.61214764  0.18935969  0.18764530  1
  Rh  Rh200  1  0.80757077  -0.00324303  -0.00127618  1
  Rh  Rh201  1  0.19204955  0.40342098  0.39665547  1
  Rh  Rh202  1  0.19444104  0.60395775  0.00180520  1
  Rh  Rh203  1  0.40167608  0.00393944  0.00917548  1
  Rh  Rh204  1  0.40665642  0.80831005  0.39307041  1
  Rh  Rh205  1  0.00567316  0.40664814  0.19842347  1
  Rh  Rh206  1  0.79791664  0.19949856  0.79699517  1
  Rh  Rh207  1  0.39448727  0.20449425  0.80154612  1
  Rh  Rh208  1  0.00146513  0.80511800  0.39359602  1
  Rh  Rh209  1  0.41005091  0.20913734  -0.01107037  1
  Rh  Rh210  1  0.79378725  0.79669166  -0.00116467  1
  Rh  Rh211  1  0.19327561  0.80205197  0.40686998  1
  Rh  Rh212  1  0.61000897  0.40130552  0.79250489  1
  Rh  Rh213  1  -0.00675411  0.60707287  0.39815382  1
  Rh  Rh214  1  0.81130150  0.59064794  0.58511168  1
  Rh  Rh215  1  0.20546410  0.39677552  0.00213942  1
  Rh  Rh216  1  0.59542395  0.38785762  -0.00462638  1
  Rh  Rh217  1  0.39593736  -0.00438649  0.80458675  1
  Rh  Rh218  1  0.39045594  0.20390773  0.20547556  1
  Rh  Rh219  1  0.39657848  0.58929164  0.40420928  1
  Rh  Rh220  1  0.19599691  0.20160891  0.19562211  1
  Rh  Rh221  1  0.79088510  0.60056259  0.81054960  1
  Rh  Rh222  1  0.60245913  0.40161438  0.60396039  1
  Rh  Rh223  1  0.80947027  0.79582479  0.79987465  1
  Rh  Rh224  1  0.20040705  0.40318805  0.20098496  1
  Rh  Rh225  1  -0.00062188  0.19182413  0.20573929  1
  Rh  Rh226  1  0.38966811  0.21320737  0.59496039  1
  Rh  Rh227  1  0.79918665  0.79984548  0.20239300  1
  Rh  Rh228  1  0.60664083  0.00034561  0.80207219  1
  Rh  Rh229  1  0.80264383  -0.00748994  0.60188716  1
  Rh  Rh230  1  0.61356687  0.60189741  0.39738433  1
  Rh  Rh231  1  0.79002306  0.60844606  -0.00430328  1
  Rh  Rh232  1  0.19115628  0.01183001  -0.00550106  1
  Rh  Rh233  1  0.59103652  0.60107032  0.59520383  1
  Rh  Rh234  1  -0.00061922  0.40102212  -0.00252857  1
  Rh  Rh235  1  0.00916947  0.20457172  0.58951795  1
  Rh  Rh236  1  0.40234766  0.40625773  0.59834307  1
  Rh  Rh237  1  0.59186056  0.40979167  0.20041333  1
  Rh  Rh238  1  0.79150238  0.80621678  0.60222120  1
  Rh  Rh239  1  0.00695200  0.79222261  0.60761728  1
  Rh  Rh240  1  -0.00658852  0.20368162  0.80655335  1
  Rh  Rh241  1  0.59198431  0.00380932  0.19019408  1
  Rh  Rh242  1  0.19702071  0.59953602  0.40069364  1
  Rh  Rh243  1  -0.00734042  -0.00893697  0.80885678  1
  Rh  Rh244  1  0.80577778  0.39292082  0.00788869  1
  Rh  Rh245  1  0.20680304  0.01139826  0.80394023  1
  Rh  Rh246  1  0.60700539  0.79521035  0.00017264  1
  Rh  Rh247  1  -0.00454246  -0.00828434  0.59829378  1
  Rh  Rh248  1  0.18529774  0.60040332  0.20406092  1
  Rh  Rh249  1  0.19810760  0.00570421  0.20074447  1
