# generated using pymatgen
data_ZrScNbPdRh
_symmetry_space_group_name_H-M   'P 1'
_cell_length_a   16.56362670
_cell_length_b   16.56227289
_cell_length_c   16.55823399
_cell_angle_alpha   90.00588827
_cell_angle_beta   90.00413299
_cell_angle_gamma   89.98749444
_symmetry_Int_Tables_number   1
_chemical_formula_structural   ZrScNbPdRh
_chemical_formula_sum   'Zr50 Sc50 Nb50 Pd50 Rh50'
_cell_volume   4542.44180026
_cell_formula_units_Z   50
loop_
 _symmetry_equiv_pos_site_id
 _symmetry_equiv_pos_as_xyz
  1  'x, y, z'
loop_
 _atom_site_type_symbol
 _atom_site_label
 _atom_site_symmetry_multiplicity
 _atom_site_fract_x
 _atom_site_fract_y
 _atom_site_fract_z
 _atom_site_occupancy
  Zr  Zr0  1  0.89738172  0.89615180  0.49594026  1
  Zr  Zr1  1  0.89927159  0.68762432  0.70339297  1
  Zr  Zr2  1  0.50882365  0.31901901  0.89503946  1
  Zr  Zr3  1  0.90550925  0.30424855  0.09978112  1
  Zr  Zr4  1  0.09361786  0.89990044  0.50287533  1
  Zr  Zr5  1  0.29769728  0.89791892  0.90181540  1
  Zr  Zr6  1  0.09940527  0.69541042  0.29361568  1
  Zr  Zr7  1  0.30064499  0.30188756  0.50311314  1
  Zr  Zr8  1  0.89822614  0.29594419  0.88322719  1
  Zr  Zr9  1  0.10577300  0.09477022  0.70507570  1
  Zr  Zr10  1  0.70375919  0.49586230  0.10581884  1
  Zr  Zr11  1  0.29369125  0.10868447  0.89015007  1
  Zr  Zr12  1  0.09165725  0.50836693  0.70610300  1
  Zr  Zr13  1  0.09808055  0.90585330  0.29853018  1
  Zr  Zr14  1  0.89781997  0.70084991  0.09682295  1
  Zr  Zr15  1  0.89533269  0.29533896  0.49124068  1
  Zr  Zr16  1  0.70472575  0.70270409  0.69906992  1
  Zr  Zr17  1  0.50444342  0.10279278  0.10383244  1
  Zr  Zr18  1  0.29677581  0.50022539  0.49881373  1
  Zr  Zr19  1  0.09597966  0.10032615  0.30223040  1
  Zr  Zr20  1  0.29562871  0.69792363  0.50346168  1
  Zr  Zr21  1  0.50835082  0.49736563  0.29905317  1
  Zr  Zr22  1  0.90239340  0.50645754  0.08879113  1
  Zr  Zr23  1  0.69767344  0.09749512  0.69098828  1
  Zr  Zr24  1  0.90707401  0.89149172  0.70183449  1
  Zr  Zr25  1  0.49939523  0.10047838  0.30211066  1
  Zr  Zr26  1  0.10405327  0.30458780  0.10111296  1
  Zr  Zr27  1  0.50102320  0.90549923  0.91163175  1
  Zr  Zr28  1  0.70257305  0.89917772  0.69566774  1
  Zr  Zr29  1  0.50146524  0.90473977  0.30567539  1
  Zr  Zr30  1  0.10057977  0.09679177  0.50045671  1
  Zr  Zr31  1  0.29837767  0.30562353  0.10220751  1
  Zr  Zr32  1  0.70542504  0.28851235  0.70999222  1
  Zr  Zr33  1  0.70341546  0.30544881  0.29714959  1
  Zr  Zr34  1  0.08855014  0.29193489  0.70578598  1
  Zr  Zr35  1  0.49885068  0.70309332  0.10662009  1
  Zr  Zr36  1  0.09528120  0.69645025  0.09589853  1
  Zr  Zr37  1  0.10301008  0.50361337  0.49503871  1
  Zr  Zr38  1  0.49992074  0.29658219  0.29226139  1
  Zr  Zr39  1  0.29769920  0.10100172  0.50194497  1
  Zr  Zr40  1  0.49333106  0.49660674  0.09420875  1
  Zr  Zr41  1  0.70710609  0.69966031  0.10348883  1
  Zr  Zr42  1  0.50257566  0.49659066  0.70617686  1
  Zr  Zr43  1  0.50140132  0.90336219  0.10812872  1
  Zr  Zr44  1  0.09481691  0.69613158  0.50028760  1
  Zr  Zr45  1  0.29962673  0.71712227  0.69601455  1
  Zr  Zr46  1  0.89309277  0.70440287  0.30472533  1
  Zr  Zr47  1  0.10458773  0.50514962  0.90646921  1
  Zr  Zr48  1  0.30376047  0.90166436  0.29672692  1
  Zr  Zr49  1  0.09348659  0.70486995  0.70104303  1
  Sc  Sc50  1  0.30879270  0.28734686  0.70192798  1
  Sc  Sc51  1  0.49815396  0.70480762  0.69579093  1
  Sc  Sc52  1  0.50277653  0.30856493  0.50616931  1
  Sc  Sc53  1  0.50370659  0.09186282  0.49463251  1
  Sc  Sc54  1  0.70190626  0.89708550  0.30321197  1
  Sc  Sc55  1  0.89881428  0.50553284  0.48786339  1
  Sc  Sc56  1  0.50449372  0.89102262  0.69510102  1
  Sc  Sc57  1  0.70265061  0.50430349  0.30240457  1
  Sc  Sc58  1  0.69944527  0.09030560  0.10044333  1
  Sc  Sc59  1  0.09865822  0.50080947  0.30170853  1
  Sc  Sc60  1  0.29348599  0.89751569  0.50851582  1
  Sc  Sc61  1  0.70646588  0.69708584  0.49762967  1
  Sc  Sc62  1  0.90774101  0.10573264  0.70436079  1
  Sc  Sc63  1  0.70338450  0.89855672  0.10163596  1
  Sc  Sc64  1  0.50782302  0.70132722  0.50062018  1
  Sc  Sc65  1  0.30993264  0.50699787  0.90618113  1
  Sc  Sc66  1  0.50172387  0.30548710  0.10787624  1
  Sc  Sc67  1  0.29447974  0.69899277  0.90345291  1
  Sc  Sc68  1  0.30056582  0.29732261  0.29317871  1
  Sc  Sc69  1  0.29362353  0.49927543  0.09819428  1
  Sc  Sc70  1  0.28597128  0.49850846  0.29612121  1
  Sc  Sc71  1  0.29952973  0.10177798  0.30093067  1
  Sc  Sc72  1  0.50233749  0.10841041  0.69542863  1
  Sc  Sc73  1  0.10745699  0.29467993  0.90345127  1
  Sc  Sc74  1  0.10083978  0.10046565  0.10915407  1
  Sc  Sc75  1  0.89547459  0.10011970  0.48927106  1
  Sc  Sc76  1  0.09663952  0.29296536  0.49018527  1
  Sc  Sc77  1  0.70423557  0.09166385  0.30003272  1
  Sc  Sc78  1  0.09984093  0.89994545  0.69860202  1
  Sc  Sc79  1  0.69726951  0.89618883  0.91331662  1
  Sc  Sc80  1  0.70602945  0.50558603  0.69789474  1
  Sc  Sc81  1  0.49368834  0.70336948  0.90234084  1
  Sc  Sc82  1  0.69847694  0.49907931  0.49380657  1
  Sc  Sc83  1  0.29343125  0.90144633  0.10679227  1
  Sc  Sc84  1  0.50699588  0.50037666  0.50761978  1
  Sc  Sc85  1  0.29726298  0.10453339  0.10576222  1
  Sc  Sc86  1  0.89847411  0.08293892  0.09871346  1
  Sc  Sc87  1  0.90477280  0.29828976  0.30436790  1
  Sc  Sc88  1  0.09928896  0.70168616  0.90095270  1
  Sc  Sc89  1  0.69660648  0.48981810  0.89883803  1
  Sc  Sc90  1  0.08520323  0.89648372  0.89787618  1
  Sc  Sc91  1  0.30948614  0.50707944  0.69706650  1
  Sc  Sc92  1  0.29098249  0.70137382  0.10096250  1
  Sc  Sc93  1  0.90387351  0.08480554  0.90255653  1
  Sc  Sc94  1  0.69882296  0.91242815  0.50471279  1
  Sc  Sc95  1  0.50042338  0.30710356  0.69896554  1
  Sc  Sc96  1  0.89491587  0.49999688  0.29994717  1
  Sc  Sc97  1  0.51553757  0.70865237  0.29975836  1
  Sc  Sc98  1  0.10141061  0.49917618  0.10029505  1
  Sc  Sc99  1  0.09311186  0.89148391  0.09432238  1
  Nb  Nb100  1  0.70119684  0.69692528  0.29635072  1
  Nb  Nb101  1  0.90199330  0.30437827  0.69990550  1
  Nb  Nb102  1  0.50050840  0.09670206  0.90736356  1
  Nb  Nb103  1  0.09697963  0.29518008  0.29044644  1
  Nb  Nb104  1  0.30174398  0.90279232  0.69908433  1
  Nb  Nb105  1  0.89772916  0.91301624  0.30010533  1
  Nb  Nb106  1  0.89807057  0.50700243  0.89313036  1
  Nb  Nb107  1  0.49639340  0.90454193  0.49551671  1
  Nb  Nb108  1  0.70030098  0.10288789  0.89385244  1
  Nb  Nb109  1  0.89770298  0.09355407  0.29756413  1
  Nb  Nb110  1  0.29813181  0.29880409  0.89955795  1
  Nb  Nb111  1  0.70315036  0.69507899  0.90289190  1
  Nb  Nb112  1  0.70081862  0.10602016  0.49883395  1
  Nb  Nb113  1  0.89596902  0.89976634  0.08536339  1
  Nb  Nb114  1  0.89985642  0.70413756  0.50091472  1
  Nb  Nb115  1  0.89175199  0.69327399  0.90480759  1
  Nb  Nb116  1  0.89923389  0.89645208  0.90486982  1
  Nb  Nb117  1  0.09855389  0.09731418  0.90030228  1
  Nb  Nb118  1  0.30102745  0.70138740  0.29805262  1
  Nb  Nb119  1  0.50461984  0.50542516  0.90134818  1
  Nb  Nb120  1  0.70952882  0.29274303  0.49880163  1
  Nb  Nb121  1  0.90119784  0.49431052  0.70886399  1
  Nb  Nb122  1  0.70043775  0.29633522  0.09820698  1
  Nb  Nb123  1  0.29989556  0.09374940  0.69965009  1
  Nb  Nb124  1  0.70098705  0.29380972  0.90127353  1
  Nb  Nb125  1  0.60095913  0.59828573  -0.00284913  1
  Nb  Nb126  1  0.39935434  0.40612450  0.39792905  1
  Nb  Nb127  1  0.39660434  -0.00193377  0.60567878  1
  Nb  Nb128  1  0.59893234  0.00235213  0.80376399  1
  Nb  Nb129  1  -0.00455601  0.40058162  0.60195484  1
  Nb  Nb130  1  0.39861186  0.60266544  0.20768830  1
  Nb  Nb131  1  0.40177856  0.00161371  0.79670556  1
  Nb  Nb132  1  0.60173365  0.20228998  -0.00399912  1
  Nb  Nb133  1  0.39894648  0.80544342  0.00719813  1
  Nb  Nb134  1  -0.00236334  0.19650489  -0.00069188  1
  Nb  Nb135  1  0.20436554  0.39892684  0.79853542  1
  Nb  Nb136  1  0.79907875  0.20022784  -0.00098274  1
  Nb  Nb137  1  0.39628329  0.79762577  0.39945770  1
  Nb  Nb138  1  0.60015005  0.60269670  0.80602280  1
  Nb  Nb139  1  0.19454105  0.00346259  -0.00537804  1
  Nb  Nb140  1  0.80834364  0.39479385  0.60257409  1
  Nb  Nb141  1  0.20061779  0.79682519  0.39635429  1
  Nb  Nb142  1  0.79557553  -0.00645022  0.80144882  1
  Nb  Nb143  1  0.80105887  0.39210897  -0.00510107  1
  Nb  Nb144  1  0.19181511  0.39864215  0.60845086  1
  Nb  Nb145  1  0.80140778  0.79829612  0.80818890  1
  Nb  Nb146  1  0.40045161  0.60190545  0.39402864  1
  Nb  Nb147  1  0.60878232  0.20213726  0.40204297  1
  Nb  Nb148  1  0.80202083  0.19845422  0.19451821  1
  Nb  Nb149  1  0.40476858  0.20455030  -0.00697512  1
  Pd  Pd150  1  0.60424356  0.80204317  0.40689780  1
  Pd  Pd151  1  0.40943649  0.20911918  0.40744077  1
  Pd  Pd152  1  0.59782374  0.59717978  0.19515064  1
  Pd  Pd153  1  0.58942988  0.19692452  0.80441637  1
  Pd  Pd154  1  0.61725009  0.39505774  0.60652601  1
  Pd  Pd155  1  -0.01183070  0.80777672  0.20095595  1
  Pd  Pd156  1  0.81137166  0.00534114  0.60296245  1
  Pd  Pd157  1  -0.01017868  0.59271617  0.59388241  1
  Pd  Pd158  1  0.40262283  0.80413332  0.80736426  1
  Pd  Pd159  1  -0.00362183  0.39419325  -0.01313660  1
  Pd  Pd160  1  -0.00482403  0.20041203  0.59185274  1
  Pd  Pd161  1  -0.00690104  0.00471274  0.59950382  1
  Pd  Pd162  1  0.81022991  0.19821378  0.60382054  1
  Pd  Pd163  1  -0.00619305  0.59435290  0.20322948  1
  Pd  Pd164  1  0.60118857  0.60140605  0.60621605  1
  Pd  Pd165  1  -0.00004958  -0.00753818  0.19156194  1
  Pd  Pd166  1  0.00198161  0.40027105  0.40021778  1
  Pd  Pd167  1  0.60508214  0.79976191  0.80600006  1
  Pd  Pd168  1  0.19984573  0.20460448  0.39252578  1
  Pd  Pd169  1  0.20449046  -0.00676339  0.40150824  1
  Pd  Pd170  1  0.59499560  0.20435725  0.59234192  1
  Pd  Pd171  1  0.39625831  0.00805108  0.19929213  1
  Pd  Pd172  1  0.38512931  0.00457621  0.00148719  1
  Pd  Pd173  1  0.19870600  0.19434851  0.00634747  1
  Pd  Pd174  1  0.80495522  0.80826538  0.20090887  1
  Pd  Pd175  1  0.19751032  0.20552194  0.60575567  1
  Pd  Pd176  1  0.39602081  0.39511661  -0.00274128  1
  Pd  Pd177  1  0.59992805  0.39365196  0.40185308  1
  Pd  Pd178  1  0.20016755  0.38961767  0.39678116  1
  Pd  Pd179  1  0.79250698  0.40338131  0.79852908  1
  Pd  Pd180  1  -0.00896423  0.19354269  0.19462698  1
  Pd  Pd181  1  0.00133031  0.40884189  0.20530276  1
  Pd  Pd182  1  0.60420789  0.80120683  0.58940312  1
  Pd  Pd183  1  0.40807157  0.19373981  0.59242964  1
  Pd  Pd184  1  0.19944752  0.59780552  0.61156432  1
  Pd  Pd185  1  0.19869150  -0.01016253  0.80415292  1
  Pd  Pd186  1  0.40358995  0.60968309  0.79911753  1
  Pd  Pd187  1  0.39082317  0.40260226  0.80055826  1
  Pd  Pd188  1  0.40805994  0.60252589  0.59389245  1
  Pd  Pd189  1  0.00968691  0.40163723  0.80782634  1
  Pd  Pd190  1  0.59683952  0.79203373  0.00501572  1
  Pd  Pd191  1  0.41067134  0.19782292  0.80412801  1
  Pd  Pd192  1  0.60698852  -0.00360767  0.20607003  1
  Pd  Pd193  1  0.19525590  0.80162034  0.20089927  1
  Pd  Pd194  1  0.80640858  0.39684335  0.19800668  1
  Pd  Pd195  1  0.80634468  0.59105424  0.59283822  1
  Pd  Pd196  1  0.79184402  0.80351639  0.40313461  1
  Pd  Pd197  1  0.19353101  0.80484747  0.80281214  1
  Pd  Pd198  1  0.00382976  0.79957755  0.39429303  1
  Pd  Pd199  1  0.20838916  0.59878840  0.79670856  1
  Rh  Rh200  1  0.00939262  0.00292821  0.00387147  1
  Rh  Rh201  1  0.40129952  0.79622982  0.20101482  1
  Rh  Rh202  1  0.60181306  0.40091925  0.19642407  1
  Rh  Rh203  1  0.60054298  0.60460370  0.39933569  1
  Rh  Rh204  1  0.79301233  0.59961619  0.80431895  1
  Rh  Rh205  1  0.39154245  0.40201209  0.59663661  1
  Rh  Rh206  1  -0.01009140  0.78990224  0.80736170  1
  Rh  Rh207  1  -0.00708057  0.79313272  -0.00396368  1
  Rh  Rh208  1  -0.00039809  0.19418654  0.39487280  1
  Rh  Rh209  1  0.80577803  0.79619910  0.60134039  1
  Rh  Rh210  1  0.19921534  0.60129572  0.00362274  1
  Rh  Rh211  1  0.79726368  0.60460251  0.39826857  1
  Rh  Rh212  1  0.79376765  0.00103192  -0.00719431  1
  Rh  Rh213  1  0.40449656  0.80835793  0.59008804  1
  Rh  Rh214  1  0.39683146  0.41151669  0.20898808  1
  Rh  Rh215  1  0.80124013  0.79987778  -0.00214889  1
  Rh  Rh216  1  -0.00111342  0.60487441  0.80987741  1
  Rh  Rh217  1  0.39830790  0.19828059  0.19139428  1
  Rh  Rh218  1  0.80501210  0.60226068  0.20483340  1
  Rh  Rh219  1  0.00135866  0.60347591  -0.00561295  1
  Rh  Rh220  1  0.60661528  0.40104070  0.00674277  1
  Rh  Rh221  1  0.38959884  -0.00714924  0.40919942  1
  Rh  Rh222  1  0.79923893  0.40228826  0.40528967  1
  Rh  Rh223  1  0.19131916  0.80235028  0.59909642  1
  Rh  Rh224  1  0.19463146  -0.00082034  0.19399966  1
  Rh  Rh225  1  0.79770404  -0.00174652  0.40182707  1
  Rh  Rh226  1  0.58813257  -0.00030340  0.60291808  1
  Rh  Rh227  1  0.80678866  0.18668584  0.80097904  1
  Rh  Rh228  1  0.60949104  0.00796703  -0.00164832  1
  Rh  Rh229  1  0.20180252  -0.00101194  0.60031515  1
  Rh  Rh230  1  0.80216106  -0.00312078  0.19902365  1
  Rh  Rh231  1  0.19667248  0.20473796  0.79357562  1
  Rh  Rh232  1  0.79062998  0.58582645  -0.00569153  1
  Rh  Rh233  1  0.20230893  0.59926508  0.19630249  1
  Rh  Rh234  1  0.20240790  0.80621338  -0.00098577  1
  Rh  Rh235  1  -0.00437490  -0.00145334  0.79844042  1
  Rh  Rh236  1  0.61044734  0.19864158  0.20291059  1
  Rh  Rh237  1  0.20023110  0.20080934  0.20494278  1
  Rh  Rh238  1  0.20731723  0.40490784  -0.01014884  1
  Rh  Rh239  1  0.19289894  0.39941681  0.20325723  1
  Rh  Rh240  1  0.20134508  0.60893790  0.39379493  1
  Rh  Rh241  1  0.60926654  0.80569884  0.20162836  1
  Rh  Rh242  1  0.79552950  0.19471340  0.38464076  1
  Rh  Rh243  1  -0.00535212  0.60610026  0.39482630  1
  Rh  Rh244  1  0.60672309  0.00646550  0.40208446  1
  Rh  Rh245  1  -0.00511275  0.00288528  0.40148798  1
  Rh  Rh246  1  0.40370973  0.61016720  0.01108755  1
  Rh  Rh247  1  -0.00383028  0.79572407  0.59851922  1
  Rh  Rh248  1  0.00077397  0.19074088  0.80919485  1
  Rh  Rh249  1  0.60891284  0.40619500  0.79082044  1
