# generated using pymatgen
data_ZrScNbPdRh
_symmetry_space_group_name_H-M   'P 1'
_cell_length_a   16.55129549
_cell_length_b   16.55502501
_cell_length_c   16.55103136
_cell_angle_alpha   90.03225073
_cell_angle_beta   90.03676345
_cell_angle_gamma   89.98194836
_symmetry_Int_Tables_number   1
_chemical_formula_structural   ZrScNbPdRh
_chemical_formula_sum   'Zr50 Sc50 Nb50 Pd50 Rh50'
_cell_volume   4535.09840643
_cell_formula_units_Z   50
loop_
 _symmetry_equiv_pos_site_id
 _symmetry_equiv_pos_as_xyz
  1  'x, y, z'
loop_
 _atom_site_type_symbol
 _atom_site_label
 _atom_site_symmetry_multiplicity
 _atom_site_fract_x
 _atom_site_fract_y
 _atom_site_fract_z
 _atom_site_occupancy
  Zr  Zr0  1  0.29451326  0.30391960  0.90053712  1
  Zr  Zr1  1  0.09419045  0.50432408  0.10885504  1
  Zr  Zr2  1  0.88895469  0.10370430  0.50287158  1
  Zr  Zr3  1  0.10062665  0.10705855  0.50086578  1
  Zr  Zr4  1  0.50971874  0.71000203  0.50048473  1
  Zr  Zr5  1  0.09415682  0.69203147  0.90529619  1
  Zr  Zr6  1  0.49915961  0.31101880  0.90352460  1
  Zr  Zr7  1  0.70940666  0.89431252  0.89816687  1
  Zr  Zr8  1  0.89829724  0.29275872  0.09006797  1
  Zr  Zr9  1  0.90457312  0.88876595  0.49502683  1
  Zr  Zr10  1  0.69376174  0.49919676  0.90240633  1
  Zr  Zr11  1  0.70131136  0.89881076  0.10065734  1
  Zr  Zr12  1  0.09656515  0.89661073  0.29995122  1
  Zr  Zr13  1  0.31001607  0.50402562  0.69862547  1
  Zr  Zr14  1  0.30356041  0.70867008  0.49819177  1
  Zr  Zr15  1  0.30324071  0.08727110  0.30220763  1
  Zr  Zr16  1  0.90513354  0.09955135  0.10550687  1
  Zr  Zr17  1  0.09752133  0.89769909  0.10334670  1
  Zr  Zr18  1  0.09703951  0.30562858  0.49590270  1
  Zr  Zr19  1  0.49806207  0.51078882  0.90395690  1
  Zr  Zr20  1  0.70184105  0.10001381  0.69092767  1
  Zr  Zr21  1  0.10050312  0.69707669  0.10277657  1
  Zr  Zr22  1  0.29776893  0.89963625  0.10926198  1
  Zr  Zr23  1  0.09777822  0.49266710  0.89477049  1
  Zr  Zr24  1  0.50317411  0.90345896  0.89366258  1
  Zr  Zr25  1  0.89332491  0.49570482  0.10403834  1
  Zr  Zr26  1  0.50475088  0.09969411  0.69873964  1
  Zr  Zr27  1  0.29375518  0.30088696  0.08890394  1
  Zr  Zr28  1  0.69223439  0.88765600  0.50344909  1
  Zr  Zr29  1  0.50327278  0.29676669  0.30258518  1
  Zr  Zr30  1  0.90274571  0.90329045  0.10581194  1
  Zr  Zr31  1  0.30183911  0.30727118  0.70503150  1
  Zr  Zr32  1  0.70282895  0.89699109  0.30270745  1
  Zr  Zr33  1  0.69279685  0.30011561  0.29870523  1
  Zr  Zr34  1  0.49706436  0.50738024  0.50459714  1
  Zr  Zr35  1  0.70322034  0.50277853  0.49651667  1
  Zr  Zr36  1  0.50752791  0.90112907  0.10711835  1
  Zr  Zr37  1  0.29936420  0.69318696  0.90481696  1
  Zr  Zr38  1  0.70475212  0.10242259  0.30862784  1
  Zr  Zr39  1  0.70332529  0.70081767  0.89297668  1
  Zr  Zr40  1  0.49529351  0.30723954  0.49347386  1
  Zr  Zr41  1  0.09621203  0.10823289  0.09957148  1
  Zr  Zr42  1  0.30061520  0.10393324  0.10150155  1
  Zr  Zr43  1  0.90576407  0.50104738  0.90146359  1
  Zr  Zr44  1  0.29416302  0.69350556  0.10369356  1
  Zr  Zr45  1  0.10074356  0.30438354  0.90334390  1
  Zr  Zr46  1  0.10024797  0.30499382  0.29953555  1
  Zr  Zr47  1  0.49694953  0.50073063  0.70246863  1
  Zr  Zr48  1  0.50165619  0.68800168  0.10073375  1
  Zr  Zr49  1  0.30597035  0.50381991  0.49455736  1
  Sc  Sc50  1  0.49963065  0.29475718  0.10445829  1
  Sc  Sc51  1  0.29706249  0.30066975  0.49407288  1
  Sc  Sc52  1  0.90300594  0.69337021  0.10537897  1
  Sc  Sc53  1  0.70455789  0.29679462  0.49460246  1
  Sc  Sc54  1  0.30350507  0.90537533  0.69131888  1
  Sc  Sc55  1  0.09790869  0.09418408  0.69687094  1
  Sc  Sc56  1  0.10324407  0.10723286  0.29497305  1
  Sc  Sc57  1  0.70417868  0.50841739  0.69764697  1
  Sc  Sc58  1  0.09497390  0.90624713  0.89333669  1
  Sc  Sc59  1  0.30297056  0.49833236  0.10221037  1
  Sc  Sc60  1  0.50188626  0.69677459  0.69603619  1
  Sc  Sc61  1  0.30042987  0.30107420  0.30410566  1
  Sc  Sc62  1  0.89821985  0.31093404  0.30170274  1
  Sc  Sc63  1  0.09772066  0.30966160  0.70097620  1
  Sc  Sc64  1  0.69470840  0.69824094  0.10773392  1
  Sc  Sc65  1  0.90327011  0.09591839  0.90176265  1
  Sc  Sc66  1  0.90352696  0.69992397  0.49836642  1
  Sc  Sc67  1  0.50341465  0.90238970  0.68980758  1
  Sc  Sc68  1  0.69841805  0.69541647  0.49671745  1
  Sc  Sc69  1  0.50072700  0.50005115  0.09956135  1
  Sc  Sc70  1  0.49872910  0.90514528  0.30463436  1
  Sc  Sc71  1  0.10086706  0.69492804  0.29587363  1
  Sc  Sc72  1  0.29732726  0.50007184  0.29885443  1
  Sc  Sc73  1  0.09535798  0.90258001  0.69237869  1
  Sc  Sc74  1  0.50001043  0.30444779  0.70644624  1
  Sc  Sc75  1  0.29417827  0.09807653  0.49512973  1
  Sc  Sc76  1  0.30160135  0.69337362  0.30165189  1
  Sc  Sc77  1  0.89807027  0.49976254  0.29908659  1
  Sc  Sc78  1  0.89791901  0.08987691  0.69539827  1
  Sc  Sc79  1  0.70079391  0.30339748  0.09881472  1
  Sc  Sc80  1  0.29803381  0.10743368  0.89322293  1
  Sc  Sc81  1  0.89520912  0.48877639  0.49807660  1
  Sc  Sc82  1  0.50146387  0.09968432  0.50162059  1
  Sc  Sc83  1  0.69909383  0.90417244  0.70655935  1
  Sc  Sc84  1  0.10286778  0.88784520  0.49908669  1
  Sc  Sc85  1  0.30616468  0.70086010  0.69138907  1
  Sc  Sc86  1  0.69945971  0.29967076  0.68930743  1
  Sc  Sc87  1  0.49738074  0.49863610  0.29654393  1
  Sc  Sc88  1  0.29348835  0.09927628  0.69794192  1
  Sc  Sc89  1  0.69667024  0.49839848  0.10308266  1
  Sc  Sc90  1  0.69372875  0.10176258  0.09947921  1
  Sc  Sc91  1  0.30102235  0.49289652  0.90256107  1
  Sc  Sc92  1  0.90145683  0.50168397  0.69682629  1
  Sc  Sc93  1  0.50364379  0.10746148  0.89719872  1
  Sc  Sc94  1  0.69894084  0.69405454  0.30755367  1
  Sc  Sc95  1  0.50162925  0.10561461  0.29559765  1
  Sc  Sc96  1  0.09860475  0.10115231  0.89489651  1
  Sc  Sc97  1  0.70016512  0.29969254  0.91403907  1
  Sc  Sc98  1  0.70061358  0.10168832  0.90066981  1
  Sc  Sc99  1  0.90024944  0.70011913  0.30881645  1
  Nb  Nb100  1  0.89897158  0.30115288  0.50852794  1
  Nb  Nb101  1  0.89674934  0.30405725  0.69365023  1
  Nb  Nb102  1  0.69768735  0.10048345  0.50228096  1
  Nb  Nb103  1  0.09779872  0.69831671  0.50892791  1
  Nb  Nb104  1  0.90001005  0.30304217  0.90016691  1
  Nb  Nb105  1  0.09715573  0.49281424  0.30885927  1
  Nb  Nb106  1  0.10463725  0.50139092  0.49947947  1
  Nb  Nb107  1  0.49790274  0.89842120  0.50081200  1
  Nb  Nb108  1  0.89747074  0.69843603  0.70518553  1
  Nb  Nb109  1  0.70893216  0.69973918  0.69860145  1
  Nb  Nb110  1  0.49388107  0.09408909  0.10338639  1
  Nb  Nb111  1  0.89842040  0.90508832  0.30080450  1
  Nb  Nb112  1  0.89353498  0.70176375  0.89823625  1
  Nb  Nb113  1  0.31611161  0.89814015  0.48274863  1
  Nb  Nb114  1  0.89543266  0.89452533  0.89646245  1
  Nb  Nb115  1  0.89977526  0.90076034  0.70633368  1
  Nb  Nb116  1  0.49807069  0.69869640  0.90361215  1
  Nb  Nb117  1  0.09910663  0.29129435  0.10104253  1
  Nb  Nb118  1  0.50966084  0.69968541  0.28725829  1
  Nb  Nb119  1  0.29988301  0.89690130  0.90132416  1
  Nb  Nb120  1  0.30321311  0.90122315  0.30974990  1
  Nb  Nb121  1  0.09618189  0.70103109  0.68954949  1
  Nb  Nb122  1  0.10267727  0.50642348  0.69642896  1
  Nb  Nb123  1  0.89816608  0.09375442  0.29876336  1
  Nb  Nb124  1  0.71038281  0.49473244  0.30120091  1
  Nb  Nb125  1  -0.00839290  0.79876002  -0.00692717  1
  Nb  Nb126  1  -0.00509745  0.00512351  0.39788115  1
  Nb  Nb127  1  0.80520009  0.39379776  0.80158605  1
  Nb  Nb128  1  0.39724297  0.79999503  0.80677000  1
  Nb  Nb129  1  0.80210412  0.80466962  0.20553898  1
  Nb  Nb130  1  0.80064774  0.60363476  -0.00420089  1
  Nb  Nb131  1  0.59526786  0.79648130  -0.00459536  1
  Nb  Nb132  1  0.80379729  0.79729189  0.60884873  1
  Nb  Nb133  1  0.39926696  0.20240593  0.60209413  1
  Nb  Nb134  1  0.80648817  0.20678230  0.79874175  1
  Nb  Nb135  1  0.40170964  0.79923501  0.20051493  1
  Nb  Nb136  1  0.59732293  0.40640276  0.59544258  1
  Nb  Nb137  1  0.40264749  0.80177759  0.00185922  1
  Nb  Nb138  1  0.01007297  0.59322908  0.40702612  1
  Nb  Nb139  1  -0.00849700  0.19966011  0.40136520  1
  Nb  Nb140  1  0.60418531  -0.00054833  0.40894294  1
  Nb  Nb141  1  0.39875859  -0.00195504  0.00117287  1
  Nb  Nb142  1  0.80320697  0.19705283  0.20392035  1
  Nb  Nb143  1  0.80368335  -0.00652748  0.00092904  1
  Nb  Nb144  1  -0.01038399  0.20967971  0.79699971  1
  Nb  Nb145  1  0.20494131  -0.00161222  0.00081434  1
  Nb  Nb146  1  0.19447182  0.60374986  0.79174845  1
  Nb  Nb147  1  0.19740888  0.79442609  0.79716590  1
  Nb  Nb148  1  -0.00376141  0.79452267  0.79753283  1
  Nb  Nb149  1  0.20014604  0.41061889  0.59853907  1
  Pd  Pd150  1  0.79669666  0.60681942  0.20076081  1
  Pd  Pd151  1  0.19403223  0.00247314  0.19845674  1
  Pd  Pd152  1  -0.00163343  0.20017130  0.60393766  1
  Pd  Pd153  1  0.40952854  0.60746423  0.39391004  1
  Pd  Pd154  1  0.19211573  0.80663159  -0.00660481  1
  Pd  Pd155  1  0.20373416  -0.00962432  0.58735838  1
  Pd  Pd156  1  0.60109517  -0.00132968  -0.00572138  1
  Pd  Pd157  1  0.18892622  -0.00301373  0.40495709  1
  Pd  Pd158  1  0.00434354  0.39854878  0.00999474  1
  Pd  Pd159  1  0.41141860  0.79088339  0.38749514  1
  Pd  Pd160  1  0.59844044  0.40342812  0.19795737  1
  Pd  Pd161  1  0.20758924  0.79723361  0.21338852  1
  Pd  Pd162  1  0.40440664  0.19544534  -0.00367598  1
  Pd  Pd163  1  0.59526985  0.20061296  0.00494488  1
  Pd  Pd164  1  0.61191256  0.20842493  0.80203893  1
  Pd  Pd165  1  0.19541328  0.79234514  0.39693033  1
  Pd  Pd166  1  0.79723428  -0.01378397  0.59491095  1
  Pd  Pd167  1  0.60378017  0.00679265  0.21142785  1
  Pd  Pd168  1  0.40135372  0.19950450  0.79528129  1
  Pd  Pd169  1  0.19542783  0.60491217  0.39851377  1
  Pd  Pd170  1  0.60548118  0.00427213  0.79998955  1
  Pd  Pd171  1  0.20084096  -0.00595128  0.80136448  1
  Pd  Pd172  1  0.00449368  0.40747754  0.60094074  1
  Pd  Pd173  1  0.61151254  0.39670245  0.79237241  1
  Pd  Pd174  1  0.39887404  0.19260334  0.40551483  1
  Pd  Pd175  1  0.20916504  0.20342025  0.20602912  1
  Pd  Pd176  1  0.80675265  0.60569128  0.59265454  1
  Pd  Pd177  1  0.79817957  -0.00635363  0.41136376  1
  Pd  Pd178  1  0.39639803  -0.00037010  0.80178747  1
  Pd  Pd179  1  0.20824601  0.80824494  0.60110567  1
  Pd  Pd180  1  0.60053624  0.60583815  0.79407363  1
  Pd  Pd181  1  0.39418529  0.20512838  0.20213792  1
  Pd  Pd182  1  0.20028925  0.58550849  -0.00301118  1
  Pd  Pd183  1  0.80663066  0.20983537  0.39588905  1
  Pd  Pd184  1  0.20112554  0.40141993  0.19741475  1
  Pd  Pd185  1  0.39914466  0.39487547  0.19925524  1
  Pd  Pd186  1  0.00007737  -0.00509951  0.58997130  1
  Pd  Pd187  1  -0.00346160  0.39447644  0.19523424  1
  Pd  Pd188  1  0.18743860  0.20126971  0.79239509  1
  Pd  Pd189  1  0.59260359  0.21093327  0.59248642  1
  Pd  Pd190  1  0.60084967  0.40839338  0.40235806  1
  Pd  Pd191  1  -0.00949222  0.59550629  0.59277916  1
  Pd  Pd192  1  -0.00822941  0.79297828  0.20198483  1
  Pd  Pd193  1  0.20754380  0.59961672  0.59968197  1
  Pd  Pd194  1  0.59593414  0.59498715  0.39192560  1
  Pd  Pd195  1  0.20431471  0.21124755  0.60474651  1
  Pd  Pd196  1  0.39679837  0.00813611  0.59320222  1
  Pd  Pd197  1  0.00209815  0.60285824  0.79457486  1
  Pd  Pd198  1  0.59352835  0.79435644  0.79592834  1
  Pd  Pd199  1  0.00110506  -0.00446731  -0.00473067  1
  Rh  Rh200  1  0.40376820  0.40120351  0.00377891  1
  Rh  Rh201  1  0.80312291  0.18823335  0.00086830  1
  Rh  Rh202  1  0.80376562  0.80067248  0.78900875  1
  Rh  Rh203  1  0.40365361  0.61312006  0.59237631  1
  Rh  Rh204  1  0.19732206  0.59124303  0.20545078  1
  Rh  Rh205  1  0.40146326  -0.00485777  0.20129075  1
  Rh  Rh206  1  0.80083814  0.01007013  0.80702005  1
  Rh  Rh207  1  -0.00899595  0.79943695  0.60843974  1
  Rh  Rh208  1  0.59792508  0.19151671  0.40503051  1
  Rh  Rh209  1  0.80895181  0.59535137  0.40148030  1
  Rh  Rh210  1  0.20448228  0.40237544  0.40508509  1
  Rh  Rh211  1  0.59498983  0.80437645  0.39264901  1
  Rh  Rh212  1  0.39515783  0.59770866  0.00433230  1
  Rh  Rh213  1  -0.00343856  0.00055621  0.79591815  1
  Rh  Rh214  1  0.79994399  0.58870988  0.80601334  1
  Rh  Rh215  1  -0.00542481  0.39865740  0.79155552  1
  Rh  Rh216  1  0.79015184  0.40059322  0.60289287  1
  Rh  Rh217  1  0.00871650  0.00405402  0.21083614  1
  Rh  Rh218  1  0.20213833  0.41159323  0.78992699  1
  Rh  Rh219  1  0.60130561  -0.00195981  0.59429284  1
  Rh  Rh220  1  0.60292634  0.79891847  0.20193234  1
  Rh  Rh221  1  0.60192785  0.59820834  0.60360610  1
  Rh  Rh222  1  0.80192639  0.79616836  0.01475943  1
  Rh  Rh223  1  0.40008352  0.38973572  0.59865838  1
  Rh  Rh224  1  0.59408921  0.39918434  0.00744101  1
  Rh  Rh225  1  0.00380732  0.20064592  -0.01090434  1
  Rh  Rh226  1  0.00685053  0.79413040  0.39648829  1
  Rh  Rh227  1  0.00054094  0.59565355  0.21392136  1
  Rh  Rh228  1  0.79600285  0.00266284  0.19209276  1
  Rh  Rh229  1  -0.01014940  0.20794168  0.20981619  1
  Rh  Rh230  1  0.41146019  0.00570884  0.40215637  1
  Rh  Rh231  1  -0.00360830  0.40060311  0.40495467  1
  Rh  Rh232  1  0.39930777  0.60316750  0.20193886  1
  Rh  Rh233  1  0.19488003  0.19416049  -0.00506787  1
  Rh  Rh234  1  0.39535311  0.60533140  0.80156009  1
  Rh  Rh235  1  0.40039522  0.80489732  0.60258232  1
  Rh  Rh236  1  0.60458418  0.19659062  0.19594391  1
  Rh  Rh237  1  0.19331622  0.20161625  0.39467373  1
  Rh  Rh238  1  0.39792397  0.40391340  0.39251533  1
  Rh  Rh239  1  0.19064884  0.40332688  0.01060388  1
  Rh  Rh240  1  0.79646269  0.39130452  0.19992657  1
  Rh  Rh241  1  0.40102478  0.40449566  0.80941548  1
  Rh  Rh242  1  0.79929728  0.39667375  0.40102792  1
  Rh  Rh243  1  0.60800872  0.79560522  0.61026986  1
  Rh  Rh244  1  0.61063146  0.60602955  0.00000109  1
  Rh  Rh245  1  -0.00940184  0.60317584  0.00549301  1
  Rh  Rh246  1  0.79949174  0.20147558  0.60462353  1
  Rh  Rh247  1  0.60706781  0.58823512  0.20824000  1
  Rh  Rh248  1  0.79972814  0.79581250  0.40042728  1
  Rh  Rh249  1  0.79788960  0.41059292  -0.00532660  1
