# generated using pymatgen
data_ZrScNbPdRh
_symmetry_space_group_name_H-M   'P 1'
_cell_length_a   16.56467878
_cell_length_b   16.56150995
_cell_length_c   16.56036860
_cell_angle_alpha   89.99505961
_cell_angle_beta   89.97169585
_cell_angle_gamma   90.03432330
_symmetry_Int_Tables_number   1
_chemical_formula_structural   ZrScNbPdRh
_chemical_formula_sum   'Zr50 Sc50 Nb50 Pd50 Rh50'
_cell_volume   4543.10542362
_cell_formula_units_Z   50
loop_
 _symmetry_equiv_pos_site_id
 _symmetry_equiv_pos_as_xyz
  1  'x, y, z'
loop_
 _atom_site_type_symbol
 _atom_site_label
 _atom_site_symmetry_multiplicity
 _atom_site_fract_x
 _atom_site_fract_y
 _atom_site_fract_z
 _atom_site_occupancy
  Zr  Zr0  1  0.49758320  0.69273488  0.29818358  1
  Zr  Zr1  1  0.69356559  0.49956952  0.28990857  1
  Zr  Zr2  1  0.30434289  0.30828820  0.49610096  1
  Zr  Zr3  1  0.49787752  0.29910847  0.29056691  1
  Zr  Zr4  1  0.69762156  0.29806633  0.50052599  1
  Zr  Zr5  1  0.90567362  0.50419974  0.28383252  1
  Zr  Zr6  1  0.29476152  0.10180973  0.49192229  1
  Zr  Zr7  1  0.49967316  0.10645428  0.10841157  1
  Zr  Zr8  1  0.91106824  0.10219274  0.09218410  1
  Zr  Zr9  1  0.89772201  0.70510939  0.30046954  1
  Zr  Zr10  1  0.50575783  0.10396651  0.29605276  1
  Zr  Zr11  1  0.29935581  0.89510496  0.29958426  1
  Zr  Zr12  1  0.69699021  0.10711321  0.49913282  1
  Zr  Zr13  1  0.70812648  0.89846846  0.50627276  1
  Zr  Zr14  1  0.30648417  0.70223556  0.09641241  1
  Zr  Zr15  1  0.90712621  0.29884836  0.29841357  1
  Zr  Zr16  1  0.49257814  0.30412903  0.89979129  1
  Zr  Zr17  1  0.29741405  0.10377918  0.70288105  1
  Zr  Zr18  1  0.70213822  0.50355553  0.90219468  1
  Zr  Zr19  1  0.49464944  0.51086467  0.69821587  1
  Zr  Zr20  1  0.10558328  0.89027517  0.89299369  1
  Zr  Zr21  1  0.10460506  0.49287513  0.29858305  1
  Zr  Zr22  1  0.70699255  0.30649865  0.10139241  1
  Zr  Zr23  1  0.09907327  0.11042918  0.89904788  1
  Zr  Zr24  1  0.70225153  0.48976491  0.50231899  1
  Zr  Zr25  1  0.89464576  0.90085762  0.68664550  1
  Zr  Zr26  1  0.09851897  0.70525571  0.69589524  1
  Zr  Zr27  1  0.31159294  0.30432008  0.09837675  1
  Zr  Zr28  1  0.10921965  0.10949470  0.30706791  1
  Zr  Zr29  1  0.69810274  0.09698643  0.89579714  1
  Zr  Zr30  1  0.29033387  0.50142925  0.50431379  1
  Zr  Zr31  1  0.09909375  0.90513280  0.09968740  1
  Zr  Zr32  1  0.48916089  0.69870333  0.90081144  1
  Zr  Zr33  1  0.90183147  0.50346781  0.89494566  1
  Zr  Zr34  1  0.09910712  0.09737507  0.69675752  1
  Zr  Zr35  1  0.49737241  0.90287695  0.89652116  1
  Zr  Zr36  1  0.11243720  0.89988165  0.51336476  1
  Zr  Zr37  1  0.50236152  0.89784836  0.29710341  1
  Zr  Zr38  1  0.89984353  0.89901848  0.10152111  1
  Zr  Zr39  1  0.69980019  0.69414195  0.29599318  1
  Zr  Zr40  1  0.29645271  0.89783025  0.09892884  1
  Zr  Zr41  1  0.30795618  0.49641916  0.30892794  1
  Zr  Zr42  1  0.09979701  0.09886696  0.50182575  1
  Zr  Zr43  1  0.28928332  0.89532045  0.69401978  1
  Zr  Zr44  1  0.49803196  0.10097429  0.70707396  1
  Zr  Zr45  1  0.48501620  0.50342724  0.49460321  1
  Zr  Zr46  1  0.10050191  0.69459305  0.88765148  1
  Zr  Zr47  1  0.09860026  0.29596408  0.70610933  1
  Zr  Zr48  1  0.09913806  0.49280006  0.10648861  1
  Zr  Zr49  1  0.49620261  0.70002973  0.69361126  1
  Sc  Sc50  1  0.30180816  0.10176899  0.10210015  1
  Sc  Sc51  1  0.30109951  0.10764849  0.89535523  1
  Sc  Sc52  1  0.30727235  0.49329825  0.09624037  1
  Sc  Sc53  1  0.10107714  0.10021053  0.10543203  1
  Sc  Sc54  1  0.50223186  0.91431698  0.09439852  1
  Sc  Sc55  1  0.70304387  0.90066627  0.69986909  1
  Sc  Sc56  1  0.29856637  0.10438146  0.29994188  1
  Sc  Sc57  1  0.91470912  0.09795273  0.31324134  1
  Sc  Sc58  1  0.89113110  0.29925082  0.50305470  1
  Sc  Sc59  1  0.49901243  0.29553193  0.49927610  1
  Sc  Sc60  1  0.89325440  0.49841072  0.50965203  1
  Sc  Sc61  1  0.49716885  0.11339734  0.49817752  1
  Sc  Sc62  1  0.49870389  0.09569431  0.89755058  1
  Sc  Sc63  1  0.10434598  0.70772698  0.10059008  1
  Sc  Sc64  1  0.49767041  0.49674451  0.10549566  1
  Sc  Sc65  1  0.69466463  0.69975598  0.90744964  1
  Sc  Sc66  1  0.90321214  0.28968660  0.70170873  1
  Sc  Sc67  1  0.29916573  0.69380495  0.70124363  1
  Sc  Sc68  1  0.10730549  0.29927818  0.10396980  1
  Sc  Sc69  1  0.10856393  0.30445445  0.50073983  1
  Sc  Sc70  1  0.69919110  0.29410112  0.30354914  1
  Sc  Sc71  1  0.89052748  0.69911834  0.89439572  1
  Sc  Sc72  1  0.88791303  0.90140619  0.90213671  1
  Sc  Sc73  1  0.69839576  0.29913653  0.69383616  1
  Sc  Sc74  1  0.10552434  0.51022716  0.70795399  1
  Sc  Sc75  1  0.29428472  0.30304829  0.90292558  1
  Sc  Sc76  1  0.10424890  0.70173608  0.30309453  1
  Sc  Sc77  1  0.71082460  0.89141177  0.31216639  1
  Sc  Sc78  1  0.68712328  0.08991182  0.10476137  1
  Sc  Sc79  1  0.69592723  0.70005934  0.69685422  1
  Sc  Sc80  1  0.49609632  0.70426293  0.50252712  1
  Sc  Sc81  1  0.71204456  0.29504262  0.89725634  1
  Sc  Sc82  1  0.90153157  0.69588132  0.70260629  1
  Sc  Sc83  1  0.30299448  0.30568318  0.70419776  1
  Sc  Sc84  1  0.30295254  0.88856684  0.90049581  1
  Sc  Sc85  1  0.69843079  0.89992487  0.90884677  1
  Sc  Sc86  1  0.89732291  0.10294569  0.89821916  1
  Sc  Sc87  1  0.49764697  0.50551739  0.29485932  1
  Sc  Sc88  1  0.90118986  0.28903057  0.90307789  1
  Sc  Sc89  1  0.70491413  0.10313168  0.70078161  1
  Sc  Sc90  1  0.10134061  0.91020356  0.29639744  1
  Sc  Sc91  1  0.50199765  0.30008592  0.70159897  1
  Sc  Sc92  1  0.50097856  0.50483370  0.89476926  1
  Sc  Sc93  1  0.69546731  0.70435143  0.49958118  1
  Sc  Sc94  1  0.69045660  0.49870222  0.69811402  1
  Sc  Sc95  1  0.29881903  0.49503949  0.89710957  1
  Sc  Sc96  1  0.90439195  0.09576811  0.50953578  1
  Sc  Sc97  1  0.49599111  0.69093636  0.09471513  1
  Sc  Sc98  1  0.89313277  0.69670781  0.10842073  1
  Sc  Sc99  1  0.89825231  0.69811103  0.51485109  1
  Nb  Nb100  1  0.91107741  0.09922446  0.69830075  1
  Nb  Nb101  1  0.10087950  0.89949602  0.70143206  1
  Nb  Nb102  1  0.50106493  0.89527308  0.50417894  1
  Nb  Nb103  1  0.89437619  0.90011341  0.49256785  1
  Nb  Nb104  1  0.69783888  0.70004947  0.09904617  1
  Nb  Nb105  1  0.89936541  0.89708186  0.30806002  1
  Nb  Nb106  1  0.10582745  0.30549092  0.29878721  1
  Nb  Nb107  1  0.89636366  0.49015788  0.09680160  1
  Nb  Nb108  1  0.29581259  0.70001243  0.90947964  1
  Nb  Nb109  1  0.09992639  0.30657965  0.90121208  1
  Nb  Nb110  1  0.09906833  0.69359902  0.50175953  1
  Nb  Nb111  1  0.30264169  0.89789169  0.49874772  1
  Nb  Nb112  1  0.28918002  0.70546198  0.49233310  1
  Nb  Nb113  1  0.89838017  0.30180866  0.09497373  1
  Nb  Nb114  1  0.09919986  0.49747003  0.90294679  1
  Nb  Nb115  1  0.29473639  0.30289132  0.30229927  1
  Nb  Nb116  1  0.69437265  0.09837357  0.29705573  1
  Nb  Nb117  1  0.50246524  0.30207513  0.09990201  1
  Nb  Nb118  1  0.69920277  0.89669473  0.09785183  1
  Nb  Nb119  1  0.29720297  0.50426392  0.68941354  1
  Nb  Nb120  1  0.70635829  0.50162868  0.09912662  1
  Nb  Nb121  1  0.90076214  0.49942532  0.69914858  1
  Nb  Nb122  1  0.30490282  0.69869432  0.29695446  1
  Nb  Nb123  1  0.10000338  0.50210759  0.50590153  1
  Nb  Nb124  1  0.49336113  0.89466824  0.69290373  1
  Nb  Nb125  1  0.59080303  -0.00255727  0.59688004  1
  Nb  Nb126  1  0.00016613  0.59853710  0.40739407  1
  Nb  Nb127  1  0.80413057  0.18989969  0.20009419  1
  Nb  Nb128  1  0.40481207  -0.00562186  0.40525140  1
  Nb  Nb129  1  0.60542827  0.79752392  0.19265493  1
  Nb  Nb130  1  0.00198916  0.59664233  0.00132976  1
  Nb  Nb131  1  -0.00101054  0.80160356  0.40746534  1
  Nb  Nb132  1  0.80344396  0.59705828  0.39716328  1
  Nb  Nb133  1  0.00187929  -0.00380694  0.79219946  1
  Nb  Nb134  1  0.19784767  -0.00203300  -0.00308685  1
  Nb  Nb135  1  0.80413757  0.00020701  0.20620272  1
  Nb  Nb136  1  -0.00154384  0.79585137  -0.00221004  1
  Nb  Nb137  1  -0.00210222  0.40082551  0.00035433  1
  Nb  Nb138  1  0.19614384  0.59715220  0.00018266  1
  Nb  Nb139  1  0.80576876  0.40374387  0.79660097  1
  Nb  Nb140  1  0.20871796  0.60021802  0.20007147  1
  Nb  Nb141  1  0.59712351  -0.00143473  0.40523473  1
  Nb  Nb142  1  0.00265642  0.40546942  0.60189174  1
  Nb  Nb143  1  0.59779397  0.40150674  0.39897411  1
  Nb  Nb144  1  0.00253249  0.40696044  0.40358684  1
  Nb  Nb145  1  0.59714076  0.20643558  0.00310749  1
  Nb  Nb146  1  0.59004304  0.80217667  0.79839230  1
  Nb  Nb147  1  0.60403230  0.39796948  0.00317840  1
  Nb  Nb148  1  0.40075422  -0.00514942  0.59476039  1
  Nb  Nb149  1  0.20152472  0.20113590  0.60137676  1
  Pd  Pd150  1  0.20686051  0.20362250  0.19662044  1
  Pd  Pd151  1  0.80737013  0.00365475  0.79464759  1
  Pd  Pd152  1  0.58709946  0.40051574  0.59420534  1
  Pd  Pd153  1  0.38963909  -0.00559917  0.79483189  1
  Pd  Pd154  1  -0.00413572  0.00399821  0.20768176  1
  Pd  Pd155  1  0.60158985  0.20658640  0.80544675  1
  Pd  Pd156  1  0.39469838  0.19891341  0.60191007  1
  Pd  Pd157  1  0.39096240  0.00540350  -0.00349978  1
  Pd  Pd158  1  0.78872488  0.18674595  0.01053209  1
  Pd  Pd159  1  0.20005922  -0.00002243  0.80822693  1
  Pd  Pd160  1  0.40455480  0.19557458  -0.00401995  1
  Pd  Pd161  1  0.79449861  0.80620115  0.19659711  1
  Pd  Pd162  1  0.00049707  0.20272320  0.19743587  1
  Pd  Pd163  1  0.01055984  0.60978999  0.19782438  1
  Pd  Pd164  1  0.80486459  0.19145857  0.39452813  1
  Pd  Pd165  1  0.19730726  0.79624622  0.20351078  1
  Pd  Pd166  1  0.79497880  0.00628414  0.00927859  1
  Pd  Pd167  1  0.78837565  0.79779846  0.80029104  1
  Pd  Pd168  1  0.39037859  0.59752653  0.80292567  1
  Pd  Pd169  1  0.39549671  0.79726842  0.79660877  1
  Pd  Pd170  1  0.79199621  0.60065293  0.60028421  1
  Pd  Pd171  1  -0.00199337  0.80355406  0.59452126  1
  Pd  Pd172  1  0.80370877  0.19678843  0.60481403  1
  Pd  Pd173  1  0.40146477  0.79716034  0.40228043  1
  Pd  Pd174  1  0.80313551  0.40687435  0.39113437  1
  Pd  Pd175  1  0.39280736  0.00258114  0.20666766  1
  Pd  Pd176  1  0.60434380  0.59364987  0.40849597  1
  Pd  Pd177  1  0.80020381  0.39257358  0.20845645  1
  Pd  Pd178  1  0.59953944  0.80098589  0.39582405  1
  Pd  Pd179  1  0.60081521  0.59791140  0.59146660  1
  Pd  Pd180  1  0.59236350  0.80179373  0.00045405  1
  Pd  Pd181  1  0.41301989  0.80099213  0.18953199  1
  Pd  Pd182  1  0.20288282  0.40465146  0.79492064  1
  Pd  Pd183  1  0.80639570  0.60423018  0.00513349  1
  Pd  Pd184  1  -0.00553678  0.39689948  0.79949564  1
  Pd  Pd185  1  0.19095571  0.80457419  0.39733637  1
  Pd  Pd186  1  0.79582654  0.01126631  0.39759556  1
  Pd  Pd187  1  0.00390511  0.21259903  0.41138541  1
  Pd  Pd188  1  0.00355930  0.79930083  0.20239020  1
  Pd  Pd189  1  0.39715333  0.40614445  0.79598288  1
  Pd  Pd190  1  0.60987954  0.39561979  0.80742806  1
  Pd  Pd191  1  0.19951277  0.19795927  0.00462508  1
  Pd  Pd192  1  0.59563058  0.59042707  0.00517075  1
  Pd  Pd193  1  0.79081633  0.59730694  0.79043309  1
  Pd  Pd194  1  0.19730617  0.59896557  0.39440049  1
  Pd  Pd195  1  -0.01286409  0.80682337  0.80312610  1
  Pd  Pd196  1  0.00616971  -0.00789874  -0.01621082  1
  Pd  Pd197  1  0.00855534  -0.00868095  0.40764294  1
  Pd  Pd198  1  0.40545105  0.39927666  0.60635749  1
  Pd  Pd199  1  0.60135563  -0.00884465  0.79190986  1
  Rh  Rh200  1  0.39843952  0.39955788  0.20425212  1
  Rh  Rh201  1  0.80631230  0.79445375  0.00356439  1
  Rh  Rh202  1  0.80372337  0.20067482  0.79354174  1
  Rh  Rh203  1  0.20165584  0.21031746  0.40442203  1
  Rh  Rh204  1  0.20369274  0.00507419  0.19562746  1
  Rh  Rh205  1  0.38784285  0.79617364  0.59519006  1
  Rh  Rh206  1  0.39303725  0.59704639  0.19965935  1
  Rh  Rh207  1  0.40679933  0.80445190  0.00442948  1
  Rh  Rh208  1  0.41038308  0.39191700  0.39465145  1
  Rh  Rh209  1  0.59993423  0.00689147  -0.00499247  1
  Rh  Rh210  1  0.00728339  0.21038187  0.59387044  1
  Rh  Rh211  1  0.20768377  0.59730335  0.80591028  1
  Rh  Rh212  1  0.80245808  0.40292193  -0.01135235  1
  Rh  Rh213  1  0.20497817  -0.00583231  0.39583957  1
  Rh  Rh214  1  -0.00136875  0.38741433  0.19522771  1
  Rh  Rh215  1  0.59539469  0.19321035  0.60714383  1
  Rh  Rh216  1  0.61131978  0.20898628  0.19235145  1
  Rh  Rh217  1  0.20873134  0.00806437  0.59997484  1
  Rh  Rh218  1  0.19378479  0.40257076  0.00141311  1
  Rh  Rh219  1  0.61588610  -0.01985004  0.21321608  1
  Rh  Rh220  1  0.38772299  0.60982064  0.58937002  1
  Rh  Rh221  1  0.60095197  0.39851151  0.19898460  1
  Rh  Rh222  1  0.20277942  0.79002292  0.60054971  1
  Rh  Rh223  1  0.39198371  0.59180130  -0.00479893  1
  Rh  Rh224  1  0.21334382  0.40169222  0.19876081  1
  Rh  Rh225  1  0.79961264  0.79472402  0.60071760  1
  Rh  Rh226  1  0.80845266  0.39360802  0.61499255  1
  Rh  Rh227  1  0.00336155  0.59265238  0.60328803  1
  Rh  Rh228  1  0.20179805  0.20838156  0.79848676  1
  Rh  Rh229  1  0.59942676  0.61371281  0.80034468  1
  Rh  Rh230  1  0.80907689  0.78592154  0.41083353  1
  Rh  Rh231  1  0.79702735  0.00774436  0.59995485  1
  Rh  Rh232  1  0.79683815  0.59679905  0.19677203  1
  Rh  Rh233  1  0.59760979  0.20376580  0.39650831  1
  Rh  Rh234  1  0.20717111  0.79198931  0.79447112  1
  Rh  Rh235  1  -0.00035593  0.60112081  0.79867996  1
  Rh  Rh236  1  -0.00074258  -0.00938501  0.59966201  1
  Rh  Rh237  1  0.19295190  0.79846594  -0.00152882  1
  Rh  Rh238  1  0.19347653  0.39745209  0.61071074  1
  Rh  Rh239  1  0.59932902  0.60529075  0.18841525  1
  Rh  Rh240  1  0.00948609  0.21245173  0.00306298  1
  Rh  Rh241  1  0.39837109  0.20018215  0.39085018  1
  Rh  Rh242  1  0.60467897  0.80595995  0.60865174  1
  Rh  Rh243  1  0.20091566  0.60646756  0.60063679  1
  Rh  Rh244  1  0.39330417  0.61007422  0.40514714  1
  Rh  Rh245  1  0.39287264  0.20401910  0.20300564  1
  Rh  Rh246  1  0.41036665  0.40603774  -0.00392463  1
  Rh  Rh247  1  0.39875184  0.20645794  0.80356168  1
  Rh  Rh248  1  0.19560586  0.39966155  0.40119666  1
  Rh  Rh249  1  -0.00280136  0.19387014  0.80526614  1
