# generated using pymatgen
data_ZrScNbPdRh
_symmetry_space_group_name_H-M   'P 1'
_cell_length_a   16.56134491
_cell_length_b   16.56011130
_cell_length_c   16.56367762
_cell_angle_alpha   90.03386554
_cell_angle_beta   89.98440252
_cell_angle_gamma   89.99978371
_symmetry_Int_Tables_number   1
_chemical_formula_structural   ZrScNbPdRh
_chemical_formula_sum   'Zr50 Sc50 Nb50 Pd50 Rh50'
_cell_volume   4542.71541575
_cell_formula_units_Z   50
loop_
 _symmetry_equiv_pos_site_id
 _symmetry_equiv_pos_as_xyz
  1  'x, y, z'
loop_
 _atom_site_type_symbol
 _atom_site_label
 _atom_site_symmetry_multiplicity
 _atom_site_fract_x
 _atom_site_fract_y
 _atom_site_fract_z
 _atom_site_occupancy
  Zr  Zr0  1  0.10925064  0.09984684  0.70178252  1
  Zr  Zr1  1  0.11015044  0.50151644  0.50666879  1
  Zr  Zr2  1  0.89743674  0.89887485  0.70463495  1
  Zr  Zr3  1  0.89515743  0.30277494  0.70249566  1
  Zr  Zr4  1  0.89334765  0.49035702  0.29164709  1
  Zr  Zr5  1  0.29779075  0.10512273  0.51417406  1
  Zr  Zr6  1  0.49801758  0.88432216  0.10377734  1
  Zr  Zr7  1  0.09565622  0.69913381  0.69391806  1
  Zr  Zr8  1  0.50754930  0.09559823  0.49718701  1
  Zr  Zr9  1  0.89446194  0.10302275  0.70385217  1
  Zr  Zr10  1  0.29934784  0.50546418  0.89023885  1
  Zr  Zr11  1  0.29190831  0.09115185  0.28692212  1
  Zr  Zr12  1  0.69571034  0.10235449  0.50980782  1
  Zr  Zr13  1  0.69508915  0.49193043  0.49233091  1
  Zr  Zr14  1  0.50264035  0.29496742  0.29503333  1
  Zr  Zr15  1  0.90408897  0.09378377  0.49793926  1
  Zr  Zr16  1  0.50156861  0.10647697  0.69727476  1
  Zr  Zr17  1  0.09641536  0.09845176  0.30357976  1
  Zr  Zr18  1  0.09925331  0.50089829  0.09812824  1
  Zr  Zr19  1  0.89973456  0.70162289  0.09841150  1
  Zr  Zr20  1  0.09495187  0.29501085  0.29342405  1
  Zr  Zr21  1  0.10579292  0.30275317  0.50438207  1
  Zr  Zr22  1  0.69626212  0.70742887  0.50128007  1
  Zr  Zr23  1  0.11872108  0.90024956  0.30548078  1
  Zr  Zr24  1  0.90067353  0.90486813  0.09571954  1
  Zr  Zr25  1  0.70689716  0.50537579  0.70090121  1
  Zr  Zr26  1  0.09888336  0.90730057  0.90107751  1
  Zr  Zr27  1  0.90664910  0.29824147  0.89202158  1
  Zr  Zr28  1  0.10490561  0.50050849  0.69936917  1
  Zr  Zr29  1  0.49492412  0.70254934  0.90238734  1
  Zr  Zr30  1  0.09926028  0.70032613  0.30237535  1
  Zr  Zr31  1  0.49335639  0.90077746  0.89727868  1
  Zr  Zr32  1  0.51156233  0.89470711  0.49649692  1
  Zr  Zr33  1  0.70229801  0.28694326  0.69808366  1
  Zr  Zr34  1  0.10165523  0.48577543  0.89554735  1
  Zr  Zr35  1  0.90622187  0.09254700  0.89999473  1
  Zr  Zr36  1  0.30351650  0.90114201  0.69906255  1
  Zr  Zr37  1  0.90011066  0.70082014  0.50567027  1
  Zr  Zr38  1  0.10167092  0.70850634  0.89400503  1
  Zr  Zr39  1  0.30032136  0.70322386  0.69677342  1
  Zr  Zr40  1  0.29647271  0.51026741  0.69245659  1
  Zr  Zr41  1  0.49734458  0.29599835  0.09129766  1
  Zr  Zr42  1  0.30004928  0.30548770  0.50163628  1
  Zr  Zr43  1  0.10319705  0.90505062  0.50481038  1
  Zr  Zr44  1  0.89873260  0.70265065  0.30698680  1
  Zr  Zr45  1  0.69883678  0.69687517  0.70412784  1
  Zr  Zr46  1  0.69952064  0.70281803  0.89357470  1
  Zr  Zr47  1  0.50632531  0.50124801  0.30329747  1
  Zr  Zr48  1  0.90035193  0.10888498  0.30021299  1
  Zr  Zr49  1  0.30106352  0.88636315  0.49779436  1
  Sc  Sc50  1  0.90041260  0.49149150  0.10140212  1
  Sc  Sc51  1  0.11045722  0.09907345  0.10111165  1
  Sc  Sc52  1  0.70966187  0.49767445  0.10672267  1
  Sc  Sc53  1  0.30188845  0.90372289  0.10178769  1
  Sc  Sc54  1  0.30049588  0.50104782  0.10473525  1
  Sc  Sc55  1  0.70240633  0.09931777  0.89601691  1
  Sc  Sc56  1  0.70853062  0.30457798  0.31001901  1
  Sc  Sc57  1  0.89308064  0.48551727  0.89651280  1
  Sc  Sc58  1  0.89773014  0.71428556  0.89115149  1
  Sc  Sc59  1  0.70196420  0.09884409  0.30326958  1
  Sc  Sc60  1  0.49236409  0.10223501  0.89738816  1
  Sc  Sc61  1  0.30274645  0.29704894  0.09852965  1
  Sc  Sc62  1  0.10790256  0.30516227  0.09984866  1
  Sc  Sc63  1  0.30590648  0.50605328  0.31033829  1
  Sc  Sc64  1  0.10362571  0.90132230  0.09248789  1
  Sc  Sc65  1  0.10422799  0.50054927  0.29229066  1
  Sc  Sc66  1  0.69981742  0.89703637  0.10063054  1
  Sc  Sc67  1  0.48977791  0.50444692  0.89831048  1
  Sc  Sc68  1  0.69623602  0.09486778  0.70377610  1
  Sc  Sc69  1  0.09925656  0.70783569  0.50299753  1
  Sc  Sc70  1  0.29860439  0.10074311  0.09237364  1
  Sc  Sc71  1  0.49742885  0.11151399  0.09871616  1
  Sc  Sc72  1  0.89432797  0.09803660  0.09947426  1
  Sc  Sc73  1  0.10403589  0.29793915  0.71203571  1
  Sc  Sc74  1  0.49694422  0.50629549  0.49278188  1
  Sc  Sc75  1  0.49184219  0.50637129  0.10495715  1
  Sc  Sc76  1  0.10237237  0.89631050  0.69604211  1
  Sc  Sc77  1  0.69411933  0.89490041  0.31136480  1
  Sc  Sc78  1  0.89275796  0.89536677  0.50363696  1
  Sc  Sc79  1  0.70177602  0.10767915  0.09685936  1
  Sc  Sc80  1  0.30227796  0.28738941  0.69765457  1
  Sc  Sc81  1  0.88703640  0.49911637  0.51165982  1
  Sc  Sc82  1  0.49712436  0.51227434  0.70598928  1
  Sc  Sc83  1  0.49861794  0.70229316  0.69800135  1
  Sc  Sc84  1  0.29927961  0.30598108  0.29652844  1
  Sc  Sc85  1  0.50533172  0.70266343  0.29310172  1
  Sc  Sc86  1  0.31051668  0.70323232  0.10276956  1
  Sc  Sc87  1  0.89271451  0.30131531  0.10316460  1
  Sc  Sc88  1  0.10359951  0.70214705  0.10277009  1
  Sc  Sc89  1  0.71107943  0.29969464  0.90124186  1
  Sc  Sc90  1  0.50452979  0.29270323  0.49748357  1
  Sc  Sc91  1  0.88918061  0.90478568  0.31139004  1
  Sc  Sc92  1  0.88485066  0.29843601  0.49946010  1
  Sc  Sc93  1  0.29779462  0.70652037  0.30698604  1
  Sc  Sc94  1  0.50158357  0.90092379  0.70297393  1
  Sc  Sc95  1  0.89879641  0.90182229  0.89989189  1
  Sc  Sc96  1  0.29919590  0.09821294  0.70665261  1
  Sc  Sc97  1  0.89631084  0.69918904  0.69603230  1
  Sc  Sc98  1  0.70311362  0.50235806  0.89251365  1
  Sc  Sc99  1  0.49878979  0.70347868  0.50368456  1
  Nb  Nb100  1  0.49846487  0.29807464  0.70341729  1
  Nb  Nb101  1  0.30280621  0.90598289  0.89501545  1
  Nb  Nb102  1  0.90527888  0.30032478  0.30087078  1
  Nb  Nb103  1  0.89929134  0.50322844  0.70094285  1
  Nb  Nb104  1  0.69693498  0.49955227  0.29962162  1
  Nb  Nb105  1  0.49872149  0.90351957  0.29868727  1
  Nb  Nb106  1  0.29289632  0.08821100  0.89871006  1
  Nb  Nb107  1  0.10076629  0.10010637  0.50294077  1
  Nb  Nb108  1  0.51070564  0.70045833  0.10183993  1
  Nb  Nb109  1  0.30831694  0.69157874  0.50297165  1
  Nb  Nb110  1  0.29779519  0.70300289  0.89301604  1
  Nb  Nb111  1  0.49197922  0.30528114  0.89760392  1
  Nb  Nb112  1  0.30767600  0.89924411  0.29825705  1
  Nb  Nb113  1  0.50111701  0.09636093  0.30044510  1
  Nb  Nb114  1  0.69566001  0.90272884  0.70402970  1
  Nb  Nb115  1  0.30380483  0.29713202  0.90174702  1
  Nb  Nb116  1  0.69415765  0.90248807  0.88848634  1
  Nb  Nb117  1  0.30289819  0.50163430  0.50390904  1
  Nb  Nb118  1  0.10234232  0.29659469  0.89767760  1
  Nb  Nb119  1  0.69330072  0.30362960  0.09479106  1
  Nb  Nb120  1  0.69814303  0.69364488  0.29276591  1
  Nb  Nb121  1  0.69221810  0.90066236  0.50554165  1
  Nb  Nb122  1  0.10430040  0.10252400  0.89811658  1
  Nb  Nb123  1  0.69371923  0.69932686  0.10553877  1
  Nb  Nb124  1  0.69925777  0.30515669  0.50756066  1
  Nb  Nb125  1  -0.00003792  0.59551620  0.80233688  1
  Nb  Nb126  1  0.59652770  -0.00450221  0.00071001  1
  Nb  Nb127  1  -0.00061032  0.59860463  -0.00855156  1
  Nb  Nb128  1  0.60270942  0.39743541  0.19667394  1
  Nb  Nb129  1  0.39586826  0.19032965  0.39517162  1
  Nb  Nb130  1  0.00061765  -0.00367545  0.20506619  1
  Nb  Nb131  1  -0.00368563  0.40172412  0.40277261  1
  Nb  Nb132  1  0.60353510  0.60196610  0.00554713  1
  Nb  Nb133  1  0.19997993  0.19611648  0.40111915  1
  Nb  Nb134  1  0.59534903  0.39663716  0.60742870  1
  Nb  Nb135  1  0.59339716  0.39377970  0.79989882  1
  Nb  Nb136  1  0.40370435  -0.00197016  0.59275228  1
  Nb  Nb137  1  0.40461981  0.40050004  0.60184864  1
  Nb  Nb138  1  0.80005658  0.60542159  0.00048290  1
  Nb  Nb139  1  0.00873230  0.20030953  -0.00849714  1
  Nb  Nb140  1  -0.00571175  0.59087354  0.40300536  1
  Nb  Nb141  1  -0.00194555  0.39789707  0.60099901  1
  Nb  Nb142  1  -0.00437071  0.80845381  0.20488787  1
  Nb  Nb143  1  0.40008994  -0.00124780  0.39590303  1
  Nb  Nb144  1  0.59341710  -0.00024118  0.19979143  1
  Nb  Nb145  1  0.19901473  0.60255963  -0.00804807  1
  Nb  Nb146  1  0.79831522  0.79489579  0.20162379  1
  Nb  Nb147  1  0.59712951  0.40142064  -0.00194156  1
  Nb  Nb148  1  0.79583222  0.59881681  0.39439382  1
  Nb  Nb149  1  0.00133194  0.20061499  0.59987927  1
  Pd  Pd150  1  0.00003581  -0.00941903  0.39669836  1
  Pd  Pd151  1  0.79559299  0.19862670  0.40486649  1
  Pd  Pd152  1  0.20086343  0.80773691  0.79675179  1
  Pd  Pd153  1  0.40634409  0.00292804  0.00630440  1
  Pd  Pd154  1  0.39646347  0.40181571  0.78953768  1
  Pd  Pd155  1  0.80259691  0.60230757  0.19821463  1
  Pd  Pd156  1  0.60162854  0.20381720  0.81098892  1
  Pd  Pd157  1  0.20833919  0.60452037  0.19533747  1
  Pd  Pd158  1  0.21125684  0.40367888  -0.00022616  1
  Pd  Pd159  1  0.78713713  -0.00391226  -0.00503558  1
  Pd  Pd160  1  0.21084286  0.00472049  0.40914374  1
  Pd  Pd161  1  0.00006118  0.19458762  0.18320631  1
  Pd  Pd162  1  0.79381884  -0.00606474  0.20342467  1
  Pd  Pd163  1  0.59682620  0.59399016  0.59711132  1
  Pd  Pd164  1  0.19663910  0.60472251  0.40523337  1
  Pd  Pd165  1  0.79368443  0.20695336  0.20088672  1
  Pd  Pd166  1  0.59334127  0.79818676  0.79472433  1
  Pd  Pd167  1  0.20526679  0.40352485  0.20262458  1
  Pd  Pd168  1  0.61019508  0.19937953  0.20323105  1
  Pd  Pd169  1  -0.00066975  0.00210240  0.60652551  1
  Pd  Pd170  1  0.79541834  -0.00174167  0.60113057  1
  Pd  Pd171  1  0.20123384  0.80146986  0.19526769  1
  Pd  Pd172  1  -0.00079862  0.60376060  0.19972608  1
  Pd  Pd173  1  0.39297648  0.19817111  0.20275631  1
  Pd  Pd174  1  0.40758865  0.39408547  0.40567936  1
  Pd  Pd175  1  0.59879468  0.19924979  -0.01241988  1
  Pd  Pd176  1  0.00274865  0.79696070  0.00350773  1
  Pd  Pd177  1  0.79411307  0.80211885  0.60731002  1
  Pd  Pd178  1  0.39084711  0.79957931  -0.00158048  1
  Pd  Pd179  1  -0.00287993  0.39334679  0.00529739  1
  Pd  Pd180  1  0.20139873  0.20170596  -0.00332519  1
  Pd  Pd181  1  0.79125226  0.80080894  0.00130397  1
  Pd  Pd182  1  0.39823250  0.40607946  0.00168793  1
  Pd  Pd183  1  0.80916424  0.20191298  -0.00337108  1
  Pd  Pd184  1  0.39307287  0.19449979  0.80555099  1
  Pd  Pd185  1  0.60083274  0.60944304  0.40141293  1
  Pd  Pd186  1  0.60446339  0.20312696  0.39694525  1
  Pd  Pd187  1  0.40743084  0.79663716  0.39514290  1
  Pd  Pd188  1  0.60776745  0.80183438  -0.00348110  1
  Pd  Pd189  1  0.40641684  0.00212726  0.19358169  1
  Pd  Pd190  1  0.39847560  0.60753413  0.20913850  1
  Pd  Pd191  1  0.00297284  0.80603460  0.40054852  1
  Pd  Pd192  1  0.40419480  0.40070539  0.19973589  1
  Pd  Pd193  1  0.79119825  0.00176695  0.40760349  1
  Pd  Pd194  1  0.39764352  0.60290438  0.00144423  1
  Pd  Pd195  1  0.00188492  0.20888078  0.41087614  1
  Pd  Pd196  1  0.00532421  -0.00154161  0.79370431  1
  Pd  Pd197  1  0.19433694  0.39774431  0.39050810  1
  Pd  Pd198  1  0.21449049  0.39132786  0.79349407  1
  Pd  Pd199  1  0.20979705  0.79926486  0.00068802  1
  Rh  Rh200  1  0.79249272  0.60262320  0.59339908  1
  Rh  Rh201  1  0.59494041  0.00328724  0.80551485  1
  Rh  Rh202  1  -0.00079421  0.79861966  0.79355930  1
  Rh  Rh203  1  0.00678061  0.01373292  0.00962372  1
  Rh  Rh204  1  0.59928096  0.79456535  0.39418850  1
  Rh  Rh205  1  0.79143041  0.38909367  0.20059278  1
  Rh  Rh206  1  0.40362879  0.80417008  0.60114034  1
  Rh  Rh207  1  0.20079409  0.61111009  0.59274209  1
  Rh  Rh208  1  0.60219429  0.80285796  0.60852529  1
  Rh  Rh209  1  0.60164977  0.00043841  0.39306091  1
  Rh  Rh210  1  0.19225836  0.60381206  0.80422490  1
  Rh  Rh211  1  0.39934002  0.79853854  0.79975046  1
  Rh  Rh212  1  0.39176660  0.19528499  -0.00974232  1
  Rh  Rh213  1  0.81542452  0.60228398  0.80865787  1
  Rh  Rh214  1  0.20881775  0.39535382  0.61078711  1
  Rh  Rh215  1  0.40000962  0.79563745  0.20402970  1
  Rh  Rh216  1  0.59898122  0.58780383  0.19295758  1
  Rh  Rh217  1  0.40046158  0.00389219  0.79265280  1
  Rh  Rh218  1  0.20329415  0.79501540  0.59712598  1
  Rh  Rh219  1  0.40170822  0.60631108  0.39881877  1
  Rh  Rh220  1  0.00082519  0.39493098  0.20092464  1
  Rh  Rh221  1  0.79381324  0.40479453  0.00168719  1
  Rh  Rh222  1  0.39972144  0.61146042  0.79703075  1
  Rh  Rh223  1  -0.00051273  0.40463329  0.78922447  1
  Rh  Rh224  1  0.59649626  0.39345291  0.39858290  1
  Rh  Rh225  1  0.80442410  0.40314475  0.39899983  1
  Rh  Rh226  1  0.60529482  0.80725459  0.20638978  1
  Rh  Rh227  1  0.19764373  -0.00600326  0.80037511  1
  Rh  Rh228  1  0.40511184  0.59645236  0.59720713  1
  Rh  Rh229  1  0.19124213  0.20243022  0.60056673  1
  Rh  Rh230  1  -0.00355254  0.80806399  0.60029737  1
  Rh  Rh231  1  0.20664246  -0.00429275  0.60020329  1
  Rh  Rh232  1  0.79850693  -0.00254213  0.80266873  1
  Rh  Rh233  1  0.59249710  0.59643376  0.81071706  1
  Rh  Rh234  1  0.80423140  0.19243113  0.59555086  1
  Rh  Rh235  1  -0.00120021  0.59137580  0.60074799  1
  Rh  Rh236  1  0.20236587  0.79269601  0.40639529  1
  Rh  Rh237  1  0.59698164  -0.00565903  0.60848601  1
  Rh  Rh238  1  0.00291290  0.19450681  0.79923696  1
  Rh  Rh239  1  0.79502237  0.40073472  0.60782280  1
  Rh  Rh240  1  0.79947082  0.19395883  0.80528538  1
  Rh  Rh241  1  0.20876067  0.20062280  0.81110533  1
  Rh  Rh242  1  0.20303673  0.20342529  0.20396113  1
  Rh  Rh243  1  0.40929478  0.19998645  0.59414866  1
  Rh  Rh244  1  0.19611690  -0.00769327  0.19207660  1
  Rh  Rh245  1  0.78751809  0.79324531  0.39873811  1
  Rh  Rh246  1  0.79635131  0.80611152  0.79499313  1
  Rh  Rh247  1  0.79015338  0.39760090  0.79406600  1
  Rh  Rh248  1  0.20211488  -0.00394702  -0.00302676  1
  Rh  Rh249  1  0.59765222  0.20509713  0.59990596  1
