# generated using pymatgen
data_ZrScNbPdRh
_symmetry_space_group_name_H-M   'P 1'
_cell_length_a   16.56872044
_cell_length_b   16.57023064
_cell_length_c   16.56186746
_cell_angle_alpha   90.00665020
_cell_angle_beta   89.97629630
_cell_angle_gamma   90.04566769
_symmetry_Int_Tables_number   1
_chemical_formula_structural   ZrScNbPdRh
_chemical_formula_sum   'Zr50 Sc50 Nb50 Pd50 Rh50'
_cell_volume   4547.01775946
_cell_formula_units_Z   50
loop_
 _symmetry_equiv_pos_site_id
 _symmetry_equiv_pos_as_xyz
  1  'x, y, z'
loop_
 _atom_site_type_symbol
 _atom_site_label
 _atom_site_symmetry_multiplicity
 _atom_site_fract_x
 _atom_site_fract_y
 _atom_site_fract_z
 _atom_site_occupancy
  Zr  Zr0  1  0.30117520  0.51050606  0.49881490  1
  Zr  Zr1  1  0.69676425  0.49491243  0.50412967  1
  Zr  Zr2  1  0.30839439  0.09940744  0.88876476  1
  Zr  Zr3  1  0.09685040  0.70102197  0.89344687  1
  Zr  Zr4  1  0.30680426  0.09482870  0.69730039  1
  Zr  Zr5  1  0.10804474  0.30035708  0.09332961  1
  Zr  Zr6  1  0.89710648  0.10345205  0.29439235  1
  Zr  Zr7  1  0.50065139  0.49384805  0.10199089  1
  Zr  Zr8  1  0.29471705  0.50129019  0.70859906  1
  Zr  Zr9  1  0.48947994  0.70852452  0.30586433  1
  Zr  Zr10  1  0.50651895  0.10600496  0.09793905  1
  Zr  Zr11  1  0.69687763  0.29342310  0.29920905  1
  Zr  Zr12  1  0.69657780  0.90500277  0.29955945  1
  Zr  Zr13  1  0.89836522  0.89812402  0.89654753  1
  Zr  Zr14  1  0.90174612  0.71055939  0.90426894  1
  Zr  Zr15  1  0.69969777  0.49570226  0.89965702  1
  Zr  Zr16  1  0.69899424  0.70763031  0.91140303  1
  Zr  Zr17  1  0.09973809  0.69647900  0.49596760  1
  Zr  Zr18  1  0.70112207  0.09578392  0.29220108  1
  Zr  Zr19  1  0.88609892  0.71116379  0.09789248  1
  Zr  Zr20  1  0.90296230  0.50229234  0.29981360  1
  Zr  Zr21  1  0.90524477  0.49308623  0.70257098  1
  Zr  Zr22  1  0.30985747  0.90122690  0.89410431  1
  Zr  Zr23  1  0.70453551  0.89841675  0.49918696  1
  Zr  Zr24  1  0.49808488  0.71381459  0.90270991  1
  Zr  Zr25  1  0.09605510  0.50275573  0.50470324  1
  Zr  Zr26  1  0.89191910  0.90186220  0.29774065  1
  Zr  Zr27  1  0.10130642  0.51732624  0.29982264  1
  Zr  Zr28  1  0.09702365  0.90814660  0.10297765  1
  Zr  Zr29  1  0.09323778  0.30729223  0.28478801  1
  Zr  Zr30  1  0.90259068  0.09253943  0.70100658  1
  Zr  Zr31  1  0.89397193  0.30194023  0.50269197  1
  Zr  Zr32  1  0.50552460  0.90772739  0.89784488  1
  Zr  Zr33  1  0.09737999  0.08684930  0.29434079  1
  Zr  Zr34  1  0.10577361  0.49671600  0.89388759  1
  Zr  Zr35  1  0.29714813  0.10279388  0.09561615  1
  Zr  Zr36  1  0.30772532  0.70470234  0.69505953  1
  Zr  Zr37  1  0.29916900  0.09912870  0.50118969  1
  Zr  Zr38  1  0.30523927  0.29967072  0.10888147  1
  Zr  Zr39  1  0.49240460  0.69766087  0.51360467  1
  Zr  Zr40  1  0.49333218  0.09739732  0.50568692  1
  Zr  Zr41  1  0.29464362  0.30234732  0.89898671  1
  Zr  Zr42  1  0.89505332  0.29565995  0.30180764  1
  Zr  Zr43  1  0.30395682  0.29425683  0.50100166  1
  Zr  Zr44  1  0.50246235  0.30344274  0.70370597  1
  Zr  Zr45  1  0.30461439  0.50849746  0.09201169  1
  Zr  Zr46  1  0.49872329  0.50088546  0.50285759  1
  Zr  Zr47  1  0.70196290  0.70404749  0.49870025  1
  Zr  Zr48  1  0.09937109  0.09359349  0.09910344  1
  Zr  Zr49  1  0.90942100  0.70611969  0.71026180  1
  Sc  Sc50  1  0.51115745  0.49973788  0.70434585  1
  Sc  Sc51  1  0.50150404  0.49304755  0.29836737  1
  Sc  Sc52  1  0.90426581  0.49528551  0.89843689  1
  Sc  Sc53  1  0.69442984  0.49106366  0.70461067  1
  Sc  Sc54  1  0.29957031  0.09960611  0.29340740  1
  Sc  Sc55  1  0.90691364  0.90348459  0.50299620  1
  Sc  Sc56  1  0.30297187  0.50670653  0.29733624  1
  Sc  Sc57  1  0.70340565  0.30005110  0.70275396  1
  Sc  Sc58  1  0.09222942  0.90198130  0.90291844  1
  Sc  Sc59  1  0.70969088  0.09360148  0.69806760  1
  Sc  Sc60  1  0.68887545  0.51260612  0.10152518  1
  Sc  Sc61  1  0.49542051  0.29983840  0.49450063  1
  Sc  Sc62  1  0.50763437  0.89288834  0.50195833  1
  Sc  Sc63  1  0.88602776  0.09574838  0.89958040  1
  Sc  Sc64  1  0.70604766  0.90534768  0.10115384  1
  Sc  Sc65  1  0.30482690  0.70775065  0.09444630  1
  Sc  Sc66  1  0.11055125  0.08958132  0.89795890  1
  Sc  Sc67  1  0.10958276  0.70201190  0.10195670  1
  Sc  Sc68  1  0.89073845  0.29746555  0.70381887  1
  Sc  Sc69  1  0.49186119  0.30279827  0.29226836  1
  Sc  Sc70  1  0.29571971  0.70217864  0.29935976  1
  Sc  Sc71  1  0.68249841  0.28489665  0.09857583  1
  Sc  Sc72  1  0.10288566  0.08331318  0.49988132  1
  Sc  Sc73  1  0.91486196  0.29682866  0.10822789  1
  Sc  Sc74  1  0.29819383  0.70170282  0.90636928  1
  Sc  Sc75  1  0.70105533  0.09695354  0.09460015  1
  Sc  Sc76  1  0.89559546  0.69607578  0.30458947  1
  Sc  Sc77  1  0.30316813  0.69975533  0.50019183  1
  Sc  Sc78  1  0.70364036  0.28871311  0.89904053  1
  Sc  Sc79  1  0.10357653  0.31021375  0.70335606  1
  Sc  Sc80  1  0.68779585  0.69704254  0.70701391  1
  Sc  Sc81  1  0.71036624  0.70628758  0.30053045  1
  Sc  Sc82  1  0.70291131  0.09099464  0.50215775  1
  Sc  Sc83  1  0.70365930  0.29629610  0.50091449  1
  Sc  Sc84  1  0.29892131  0.29093790  0.70389133  1
  Sc  Sc85  1  0.09825395  0.69849896  0.69924341  1
  Sc  Sc86  1  0.29981315  0.89935333  0.10367763  1
  Sc  Sc87  1  0.90158978  0.50736801  0.10236062  1
  Sc  Sc88  1  0.10524946  0.08910311  0.70296549  1
  Sc  Sc89  1  0.89272202  0.10042908  0.49690022  1
  Sc  Sc90  1  0.10328706  0.30459353  0.51291507  1
  Sc  Sc91  1  0.69339314  0.49854607  0.29822671  1
  Sc  Sc92  1  0.49872045  0.29734595  0.90467617  1
  Sc  Sc93  1  0.90088420  0.90396319  0.09065981  1
  Sc  Sc94  1  0.09832564  0.50177813  0.70574667  1
  Sc  Sc95  1  0.49747139  0.89551914  0.69790843  1
  Sc  Sc96  1  0.89359955  0.30185539  0.89545232  1
  Sc  Sc97  1  0.49360213  0.90417742  0.09949480  1
  Sc  Sc98  1  0.10067815  0.49783016  0.10547232  1
  Sc  Sc99  1  0.49915832  0.49223054  0.90514126  1
  Nb  Nb100  1  0.30134187  0.50869463  0.89739872  1
  Nb  Nb101  1  0.69275692  0.09308560  0.90144690  1
  Nb  Nb102  1  0.10755197  0.90065617  0.49629373  1
  Nb  Nb103  1  0.09846014  0.70131725  0.29962880  1
  Nb  Nb104  1  0.90611569  0.90101831  0.70597142  1
  Nb  Nb105  1  0.29577686  0.89954644  0.69590311  1
  Nb  Nb106  1  0.09465853  0.90446533  0.69037922  1
  Nb  Nb107  1  0.09385637  0.30214720  0.90114987  1
  Nb  Nb108  1  0.49586819  0.09930990  0.69821544  1
  Nb  Nb109  1  0.70802035  0.90282582  0.69799018  1
  Nb  Nb110  1  0.90169159  0.50322757  0.50085212  1
  Nb  Nb111  1  0.90714316  0.09600535  0.09882707  1
  Nb  Nb112  1  0.49723789  0.30174739  0.10357964  1
  Nb  Nb113  1  0.89851722  0.69740613  0.49995296  1
  Nb  Nb114  1  0.29554887  0.30102888  0.30286310  1
  Nb  Nb115  1  0.70120748  0.91307750  0.89829217  1
  Nb  Nb116  1  0.30444131  0.89708976  0.30075038  1
  Nb  Nb117  1  0.69345860  0.70618021  0.10194248  1
  Nb  Nb118  1  0.50665528  0.08676570  0.29822723  1
  Nb  Nb119  1  0.10624968  0.89984335  0.30465909  1
  Nb  Nb120  1  0.50332122  0.69988399  0.09716211  1
  Nb  Nb121  1  0.49620700  0.90132364  0.29604273  1
  Nb  Nb122  1  0.49363983  0.70029150  0.70330688  1
  Nb  Nb123  1  0.28576135  0.90441793  0.49975100  1
  Nb  Nb124  1  0.50252662  0.09393104  0.89484064  1
  Nb  Nb125  1  0.80533104  0.60290588  0.60360542  1
  Nb  Nb126  1  0.39867428  -0.00867719  0.39580327  1
  Nb  Nb127  1  0.00057470  0.60569399  -0.00298862  1
  Nb  Nb128  1  0.59646144  0.60530974  0.40494216  1
  Nb  Nb129  1  0.00169180  0.40109522  0.40337712  1
  Nb  Nb130  1  0.19476740  0.20563809  0.39490900  1
  Nb  Nb131  1  0.79707216  0.39729975  0.01172604  1
  Nb  Nb132  1  -0.00052998  0.19689017  0.60244530  1
  Nb  Nb133  1  0.80588913  0.79707113  0.60726281  1
  Nb  Nb134  1  0.00239326  0.19821333  0.80271533  1
  Nb  Nb135  1  0.59487487  0.19048121  0.39886825  1
  Nb  Nb136  1  0.00765137  0.80170920  0.39789614  1
  Nb  Nb137  1  0.00781676  0.20419598  0.40331684  1
  Nb  Nb138  1  0.79523539  0.39721246  0.19343274  1
  Nb  Nb139  1  0.00396415  0.19759939  -0.00703154  1
  Nb  Nb140  1  0.59579724  0.19324214  0.60225590  1
  Nb  Nb141  1  0.40832314  0.60572801  0.19246623  1
  Nb  Nb142  1  0.20115443  0.80796450  0.79271065  1
  Nb  Nb143  1  0.00459767  0.80196997  0.20890322  1
  Nb  Nb144  1  0.39766158  0.40334094  0.60177248  1
  Nb  Nb145  1  0.80149243  0.60265966  0.80006460  1
  Nb  Nb146  1  0.59633862  0.79867957  0.19842697  1
  Nb  Nb147  1  0.40257138  0.60330764  0.80367348  1
  Nb  Nb148  1  0.59695177  0.18661401  0.79878366  1
  Nb  Nb149  1  0.19743176  0.39713421  0.39725749  1
  Pd  Pd150  1  0.20721874  0.41077785  0.20296688  1
  Pd  Pd151  1  0.60396125  0.80736196  0.79657480  1
  Pd  Pd152  1  0.39732722  0.00435304  0.19913092  1
  Pd  Pd153  1  0.60578873  0.60198033  0.59979765  1
  Pd  Pd154  1  0.19704542  0.79814185  0.60200837  1
  Pd  Pd155  1  0.60645198  0.80143022  0.61008631  1
  Pd  Pd156  1  0.40046045  0.40534098  0.79812171  1
  Pd  Pd157  1  -0.00385058  0.60106010  0.60491856  1
  Pd  Pd158  1  0.39386748  0.80772978  0.41195427  1
  Pd  Pd159  1  0.60049145  0.79621790  0.39301659  1
  Pd  Pd160  1  0.80080619  0.40594156  0.39280670  1
  Pd  Pd161  1  0.81004631  0.20396598  0.00683400  1
  Pd  Pd162  1  0.39220459  0.40535744  0.40027106  1
  Pd  Pd163  1  0.19745145  0.80933805  -0.00757234  1
  Pd  Pd164  1  0.39537958  0.39576396  -0.00082908  1
  Pd  Pd165  1  0.19022709  0.19065935  0.59863062  1
  Pd  Pd166  1  0.20909497  0.40443454  0.59849740  1
  Pd  Pd167  1  0.39908991  0.00251051  0.00269332  1
  Pd  Pd168  1  0.40011857  -0.01456815  0.59287318  1
  Pd  Pd169  1  -0.00716875  0.40140002  0.00320127  1
  Pd  Pd170  1  0.19110142  0.20059455  0.79885867  1
  Pd  Pd171  1  0.59334199  0.59971076  -0.00727257  1
  Pd  Pd172  1  0.80825856  -0.00836781  0.59890647  1
  Pd  Pd173  1  0.79837723  0.40494300  0.60516851  1
  Pd  Pd174  1  0.19814236  0.60293918  0.60500301  1
  Pd  Pd175  1  0.79882436  0.20345661  0.18441899  1
  Pd  Pd176  1  0.19145751  0.59906425  0.00113124  1
  Pd  Pd177  1  0.60197189  0.81559590  0.00827039  1
  Pd  Pd178  1  0.40495696  0.19413195  0.20550838  1
  Pd  Pd179  1  -0.00554555  0.00034877  0.40179915  1
  Pd  Pd180  1  0.20630014  0.40497111  -0.00138783  1
  Pd  Pd181  1  0.60077776  0.00021260  0.78531729  1
  Pd  Pd182  1  0.59529691  0.00021068  0.40741741  1
  Pd  Pd183  1  0.59647265  0.60117943  0.81109848  1
  Pd  Pd184  1  0.79178547  0.59180180  0.40433454  1
  Pd  Pd185  1  0.19735380  0.19612331  -0.00785655  1
  Pd  Pd186  1  0.40286940  0.20015698  -0.00431185  1
  Pd  Pd187  1  0.79440242  0.59633478  0.19906539  1
  Pd  Pd188  1  -0.00348255  0.61425120  0.18945940  1
  Pd  Pd189  1  0.59459384  0.61246547  0.21351035  1
  Pd  Pd190  1  0.19917604  0.80256181  0.20050638  1
  Pd  Pd191  1  -0.00081705  0.80163209  0.59240268  1
  Pd  Pd192  1  0.40146251  0.18939032  0.38757515  1
  Pd  Pd193  1  0.20807653  -0.00588575  -0.00426145  1
  Pd  Pd194  1  0.80442443  0.59283502  -0.00503051  1
  Pd  Pd195  1  0.60715258  0.39350306  0.00115871  1
  Pd  Pd196  1  0.78883709  0.79739346  0.79648550  1
  Pd  Pd197  1  0.19477076  0.19624369  0.20382901  1
  Pd  Pd198  1  0.59944216  0.39286309  0.40127853  1
  Pd  Pd199  1  0.20107031  0.79522124  0.39986396  1
  Rh  Rh200  1  -0.00610760  0.59594636  0.80837957  1
  Rh  Rh201  1  0.00772102  0.79379167  0.01607768  1
  Rh  Rh202  1  0.40679299  0.21100112  0.60874930  1
  Rh  Rh203  1  0.40240925  0.80660225  0.00175564  1
  Rh  Rh204  1  0.21121667  0.00434025  0.39189236  1
  Rh  Rh205  1  -0.00693300  0.40908965  0.20231826  1
  Rh  Rh206  1  -0.00587313  0.39279411  0.59917959  1
  Rh  Rh207  1  0.20104624  -0.01080896  0.79517201  1
  Rh  Rh208  1  0.20941570  -0.00573746  0.20231418  1
  Rh  Rh209  1  0.21034652  0.61413109  0.79827071  1
  Rh  Rh210  1  0.00663456  0.19180880  0.19492635  1
  Rh  Rh211  1  0.40452351  0.79551772  0.19391808  1
  Rh  Rh212  1  0.00015816  0.00159511  0.80376677  1
  Rh  Rh213  1  0.40696981  0.19905262  0.80250275  1
  Rh  Rh214  1  0.79718150  0.40607204  0.80785316  1
  Rh  Rh215  1  -0.00221443  0.60261011  0.40150705  1
  Rh  Rh216  1  0.21246755  0.60484527  0.19538897  1
  Rh  Rh217  1  0.40397190  -0.00489046  0.79201049  1
  Rh  Rh218  1  0.80034323  -0.00044403  -0.00052607  1
  Rh  Rh219  1  -0.00608370  0.01035326  -0.00984151  1
  Rh  Rh220  1  0.79925029  0.19840270  0.60073257  1
  Rh  Rh221  1  0.40870173  0.60263687  -0.00295894  1
  Rh  Rh222  1  0.39553669  0.80796324  0.59433498  1
  Rh  Rh223  1  0.40666119  0.59671409  0.38879896  1
  Rh  Rh224  1  0.20200033  0.39692877  0.80405928  1
  Rh  Rh225  1  0.78934793  0.81248492  -0.00171433  1
  Rh  Rh226  1  0.59252191  0.19483201  -0.01008562  1
  Rh  Rh227  1  0.58937706  0.19848113  0.20985578  1
  Rh  Rh228  1  0.39460931  0.40634436  0.19859179  1
  Rh  Rh229  1  0.60109127  0.00088487  0.60357171  1
  Rh  Rh230  1  0.60422658  0.38506051  0.80946532  1
  Rh  Rh231  1  -0.00077205  0.39029258  0.79686720  1
  Rh  Rh232  1  0.60106494  -0.00035563  0.00460090  1
  Rh  Rh233  1  0.01384035  0.81271538  0.79539240  1
  Rh  Rh234  1  0.39581777  0.79792899  0.79895780  1
  Rh  Rh235  1  0.81179116  0.80632776  0.40954244  1
  Rh  Rh236  1  0.40361615  0.58904633  0.61707798  1
  Rh  Rh237  1  0.80432649  0.00426065  0.19237218  1
  Rh  Rh238  1  0.20121533  0.00151832  0.60444899  1
  Rh  Rh239  1  0.59359587  0.38627327  0.59532483  1
  Rh  Rh240  1  0.20233006  0.60151180  0.39927556  1
  Rh  Rh241  1  0.79097644  0.19079233  0.40286213  1
  Rh  Rh242  1  0.80193329  0.00005630  0.39858050  1
  Rh  Rh243  1  0.60415631  0.39253297  0.19493727  1
  Rh  Rh244  1  0.79898424  -0.00154153  0.80102594  1
  Rh  Rh245  1  0.59876492  -0.00817827  0.19096671  1
  Rh  Rh246  1  -0.00007062  0.00256921  0.59708724  1
  Rh  Rh247  1  -0.00711481  -0.00863554  0.20248150  1
  Rh  Rh248  1  0.79785173  0.80419143  0.19888583  1
  Rh  Rh249  1  0.79559266  0.19104128  0.79890267  1
