# generated using pymatgen
data_ZrScNbPdRh
_symmetry_space_group_name_H-M   'P 1'
_cell_length_a   16.55092268
_cell_length_b   16.55646743
_cell_length_c   16.55567197
_cell_angle_alpha   89.99158074
_cell_angle_beta   89.99597425
_cell_angle_gamma   90.00842960
_symmetry_Int_Tables_number   1
_chemical_formula_structural   ZrScNbPdRh
_chemical_formula_sum   'Zr50 Sc50 Nb50 Pd50 Rh50'
_cell_volume   4536.66479185
_cell_formula_units_Z   50
loop_
 _symmetry_equiv_pos_site_id
 _symmetry_equiv_pos_as_xyz
  1  'x, y, z'
loop_
 _atom_site_type_symbol
 _atom_site_label
 _atom_site_symmetry_multiplicity
 _atom_site_fract_x
 _atom_site_fract_y
 _atom_site_fract_z
 _atom_site_occupancy
  Zr  Zr0  1  0.69676178  0.70223736  0.09965635  1
  Zr  Zr1  1  0.10390501  0.30071508  0.49524537  1
  Zr  Zr2  1  0.90090094  0.30548343  0.29458324  1
  Zr  Zr3  1  0.69794297  0.29794097  0.70924748  1
  Zr  Zr4  1  0.29516277  0.49924479  0.28329304  1
  Zr  Zr5  1  0.90822362  0.30132427  0.49046819  1
  Zr  Zr6  1  0.49728106  0.30685576  0.49263041  1
  Zr  Zr7  1  0.29566937  0.89921066  0.30095896  1
  Zr  Zr8  1  0.90683848  0.10084488  0.29949065  1
  Zr  Zr9  1  0.09724256  0.29704967  0.10612563  1
  Zr  Zr10  1  0.90918459  0.70085775  0.90433895  1
  Zr  Zr11  1  0.69836435  0.49627699  0.10131639  1
  Zr  Zr12  1  0.71294734  0.30080517  0.90447730  1
  Zr  Zr13  1  0.70426163  0.70012777  0.69646027  1
  Zr  Zr14  1  0.10850118  0.50781916  0.10535889  1
  Zr  Zr15  1  0.30424469  0.48801161  0.48628589  1
  Zr  Zr16  1  0.29244615  0.89839855  0.70169667  1
  Zr  Zr17  1  0.29681431  0.10327936  0.49634611  1
  Zr  Zr18  1  0.08972504  0.70266718  0.09037740  1
  Zr  Zr19  1  0.50382610  0.10467008  0.71446605  1
  Zr  Zr20  1  0.29740095  0.29711228  0.49952743  1
  Zr  Zr21  1  0.89654657  0.29098699  0.10003366  1
  Zr  Zr22  1  0.49549683  0.10004782  0.49509220  1
  Zr  Zr23  1  0.49848311  0.30142709  0.70089000  1
  Zr  Zr24  1  0.29569914  0.29967105  0.89626369  1
  Zr  Zr25  1  0.90787209  0.90658593  0.69692079  1
  Zr  Zr26  1  0.69120678  0.70043947  0.50785009  1
  Zr  Zr27  1  0.69885306  0.09548201  0.89877986  1
  Zr  Zr28  1  0.70458978  0.09363572  0.49677350  1
  Zr  Zr29  1  0.09539002  0.70214827  0.30468676  1
  Zr  Zr30  1  0.69855813  0.30894140  0.49228215  1
  Zr  Zr31  1  0.69881728  0.70930330  0.89924478  1
  Zr  Zr32  1  0.71065954  0.89733523  0.70171905  1
  Zr  Zr33  1  0.10065719  0.50282231  0.70986688  1
  Zr  Zr34  1  0.09901567  0.70034542  0.50261561  1
  Zr  Zr35  1  0.49978504  0.89807628  0.30592876  1
  Zr  Zr36  1  0.49459468  0.90576380  0.70935356  1
  Zr  Zr37  1  0.30197738  0.29204023  0.09852806  1
  Zr  Zr38  1  0.10033428  0.89896200  0.69964493  1
  Zr  Zr39  1  0.50027781  0.10117608  0.30334521  1
  Zr  Zr40  1  0.90459311  0.50177837  0.10807475  1
  Zr  Zr41  1  0.29714187  0.90039062  0.09759063  1
  Zr  Zr42  1  0.50201232  0.49467791  0.10149603  1
  Zr  Zr43  1  0.30246598  0.69424883  0.50664727  1
  Zr  Zr44  1  0.69575850  0.30355307  0.11178424  1
  Zr  Zr45  1  0.69373299  0.90160625  0.89895760  1
  Zr  Zr46  1  0.09412741  0.89805855  0.30278209  1
  Zr  Zr47  1  0.90346848  0.71080646  0.29266218  1
  Zr  Zr48  1  0.09846078  0.09901462  0.09773141  1
  Zr  Zr49  1  0.29782603  0.09369486  0.30755612  1
  Sc  Sc50  1  0.29132411  0.90451926  0.49752775  1
  Sc  Sc51  1  0.29807640  0.49801726  0.69979841  1
  Sc  Sc52  1  0.10208764  0.10023606  0.49961650  1
  Sc  Sc53  1  0.89985520  0.50253710  0.49436345  1
  Sc  Sc54  1  0.09310754  0.29882697  0.30140453  1
  Sc  Sc55  1  0.30110050  0.29980692  0.70089275  1
  Sc  Sc56  1  0.90538468  0.09267159  0.49963956  1
  Sc  Sc57  1  0.50189330  0.50206705  0.49847076  1
  Sc  Sc58  1  0.70646544  0.49150432  0.30338828  1
  Sc  Sc59  1  0.10616132  0.69877862  0.90270368  1
  Sc  Sc60  1  0.90282244  0.90517201  0.89395433  1
  Sc  Sc61  1  0.50104846  0.49496202  0.69887731  1
  Sc  Sc62  1  0.29063189  0.50085412  0.89113450  1
  Sc  Sc63  1  0.90472372  0.50178453  0.30338613  1
  Sc  Sc64  1  0.70009852  0.50591087  0.49880890  1
  Sc  Sc65  1  0.90180705  0.49896489  0.89328183  1
  Sc  Sc66  1  0.30268599  0.10154436  0.91288603  1
  Sc  Sc67  1  0.10961454  0.29788507  0.70768578  1
  Sc  Sc68  1  0.70115968  0.50550784  0.69660035  1
  Sc  Sc69  1  0.48693675  0.10731281  0.09852507  1
  Sc  Sc70  1  0.90346063  0.69398630  0.49811210  1
  Sc  Sc71  1  0.09922798  0.90469954  0.09233682  1
  Sc  Sc72  1  0.70098750  0.90380179  0.09033859  1
  Sc  Sc73  1  0.49571224  0.29380097  0.88741990  1
  Sc  Sc74  1  0.29358487  0.69568273  0.09785516  1
  Sc  Sc75  1  0.29899037  0.89687338  0.90039616  1
  Sc  Sc76  1  0.50821126  0.89877385  0.49798248  1
  Sc  Sc77  1  0.49488022  0.89578295  0.09110904  1
  Sc  Sc78  1  0.09883927  0.09634313  0.90257977  1
  Sc  Sc79  1  0.69869594  0.49994376  0.90483890  1
  Sc  Sc80  1  0.29445241  0.30519322  0.30300661  1
  Sc  Sc81  1  0.49253355  0.70589379  0.09984568  1
  Sc  Sc82  1  0.10084157  0.28958773  0.89698899  1
  Sc  Sc83  1  0.70411447  0.70386682  0.31035268  1
  Sc  Sc84  1  0.09973056  0.08711290  0.70127234  1
  Sc  Sc85  1  0.89636387  0.50743538  0.70582551  1
  Sc  Sc86  1  0.89727728  0.30292964  0.72613259  1
  Sc  Sc87  1  0.09467771  0.50002185  0.49836730  1
  Sc  Sc88  1  0.10393168  0.89697897  0.89599666  1
  Sc  Sc89  1  0.50056677  0.49202006  0.89744778  1
  Sc  Sc90  1  0.29393028  0.70425758  0.69694006  1
  Sc  Sc91  1  0.30848765  0.69350035  0.28644041  1
  Sc  Sc92  1  0.49601327  0.70687369  0.68222201  1
  Sc  Sc93  1  0.10292273  0.09943526  0.29732437  1
  Sc  Sc94  1  0.69555289  0.10614555  0.29868695  1
  Sc  Sc95  1  0.49030471  0.49818411  0.30222359  1
  Sc  Sc96  1  0.70698396  0.10002126  0.09486077  1
  Sc  Sc97  1  0.29299755  0.09818933  0.09962667  1
  Sc  Sc98  1  0.09519260  0.89793979  0.50246723  1
  Sc  Sc99  1  0.89767598  0.70383540  0.70077801  1
  Nb  Nb100  1  0.50056483  0.90585748  0.90112554  1
  Nb  Nb101  1  0.30081890  0.09362068  0.68970575  1
  Nb  Nb102  1  0.50122158  0.70921739  0.90285388  1
  Nb  Nb103  1  0.30119562  0.49882095  0.09957331  1
  Nb  Nb104  1  0.29976429  0.69978707  0.90014359  1
  Nb  Nb105  1  0.50158119  0.70098221  0.29769953  1
  Nb  Nb106  1  0.69848905  0.30107513  0.29868855  1
  Nb  Nb107  1  0.90122482  0.09822799  0.70200933  1
  Nb  Nb108  1  0.90084888  0.09246165  0.09249218  1
  Nb  Nb109  1  0.70095996  0.09987874  0.69989478  1
  Nb  Nb110  1  0.90262832  0.89514281  0.10391558  1
  Nb  Nb111  1  0.70390504  0.90128563  0.49308781  1
  Nb  Nb112  1  0.10205707  0.70483571  0.69097935  1
  Nb  Nb113  1  0.50300954  0.69809992  0.49119279  1
  Nb  Nb114  1  0.50223405  0.09252767  0.90145795  1
  Nb  Nb115  1  0.90061209  0.70485165  0.10104554  1
  Nb  Nb116  1  0.89902255  0.11010193  0.91155401  1
  Nb  Nb117  1  0.50294622  0.29691047  0.10352971  1
  Nb  Nb118  1  0.09979974  0.50234387  0.90804614  1
  Nb  Nb119  1  0.10319238  0.49708616  0.29808197  1
  Nb  Nb120  1  0.89077404  0.90734000  0.48868270  1
  Nb  Nb121  1  0.70249777  0.90214171  0.31040037  1
  Nb  Nb122  1  0.52016950  0.29622479  0.28956819  1
  Nb  Nb123  1  0.90257367  0.29676281  0.90919648  1
  Nb  Nb124  1  0.89656230  0.89907790  0.30259094  1
  Nb  Nb125  1  0.40383029  0.79093074  0.40184843  1
  Nb  Nb126  1  0.59991712  -0.00493799  0.20226154  1
  Nb  Nb127  1  0.80321487  -0.00714477  0.20262472  1
  Nb  Nb128  1  0.40139364  -0.00218603  0.20366013  1
  Nb  Nb129  1  0.39773826  0.59737297  -0.00680691  1
  Nb  Nb130  1  -0.00748606  0.20383392  0.60808417  1
  Nb  Nb131  1  0.00369695  0.39931838  -0.00121985  1
  Nb  Nb132  1  0.60441194  0.19742317  0.60095495  1
  Nb  Nb133  1  0.59788851  0.60524718  0.20356602  1
  Nb  Nb134  1  0.40449080  0.60947095  0.80590985  1
  Nb  Nb135  1  0.80748709  0.79920352  0.00249930  1
  Nb  Nb136  1  0.80671579  0.39158751  0.60101419  1
  Nb  Nb137  1  0.19822070  0.40273039  0.00280718  1
  Nb  Nb138  1  0.40245485  0.00415266  0.60294298  1
  Nb  Nb139  1  0.20086589  0.59683202  0.39547437  1
  Nb  Nb140  1  0.59665460  0.20127756  -0.00220366  1
  Nb  Nb141  1  0.59204604  0.61071458  0.80262280  1
  Nb  Nb142  1  0.80238541  0.20172852  0.60156080  1
  Nb  Nb143  1  0.60350973  0.00267764  0.60377144  1
  Nb  Nb144  1  -0.00421189  0.39406166  0.60732424  1
  Nb  Nb145  1  0.39459388  0.39922631  0.00317353  1
  Nb  Nb146  1  0.80076040  0.20370213  0.40000870  1
  Nb  Nb147  1  0.19437908  0.80007632  0.19882692  1
  Nb  Nb148  1  0.80468219  0.60646084  0.00633266  1
  Nb  Nb149  1  0.60156957  0.80370424  0.20529456  1
  Pd  Pd150  1  -0.00387676  0.59300823  0.60488570  1
  Pd  Pd151  1  0.20078783  0.19989094  0.20658728  1
  Pd  Pd152  1  0.80327333  0.79131441  0.40912647  1
  Pd  Pd153  1  0.40597986  0.19751190  0.60197673  1
  Pd  Pd154  1  0.80304140  0.19164171  0.80228909  1
  Pd  Pd155  1  0.39406651  0.60201433  0.39693881  1
  Pd  Pd156  1  0.21079479  0.78704586  0.39550846  1
  Pd  Pd157  1  0.60234798  0.59326570  0.39238372  1
  Pd  Pd158  1  0.39971461  0.21171603  0.38834958  1
  Pd  Pd159  1  0.79414238  0.59927862  0.20246454  1
  Pd  Pd160  1  0.00644085  0.00051685  0.40395951  1
  Pd  Pd161  1  -0.00865832  0.80456407  0.59248849  1
  Pd  Pd162  1  0.60624474  0.40708674  0.80325098  1
  Pd  Pd163  1  0.19037803  0.19594654  0.60645134  1
  Pd  Pd164  1  0.40379940  0.59181200  0.60521450  1
  Pd  Pd165  1  0.80084011  0.00266074  0.60098948  1
  Pd  Pd166  1  0.79235098  0.60054246  0.80912042  1
  Pd  Pd167  1  0.60454410  0.20058786  0.40570904  1
  Pd  Pd168  1  0.59062936  0.38625341  -0.00848262  1
  Pd  Pd169  1  0.59380976  0.79833148  0.79119655  1
  Pd  Pd170  1  0.80018070  0.19092497  0.20337865  1
  Pd  Pd171  1  0.00209677  0.19253186  0.79958749  1
  Pd  Pd172  1  0.80633347  0.00378972  0.80555435  1
  Pd  Pd173  1  0.00648749  0.60962487  0.79816164  1
  Pd  Pd174  1  0.20630495  0.18551526  0.79608138  1
  Pd  Pd175  1  0.80092412  0.60478423  0.39936931  1
  Pd  Pd176  1  0.38852360  0.19153618  0.80228453  1
  Pd  Pd177  1  0.60693025  0.40017384  0.60012462  1
  Pd  Pd178  1  0.81121926  0.40912920  0.00154031  1
  Pd  Pd179  1  0.20030784  0.58890216  0.59308478  1
  Pd  Pd180  1  -0.00284475  -0.00290614  0.19861439  1
  Pd  Pd181  1  0.78994727  0.80875597  0.19617673  1
  Pd  Pd182  1  0.39901405  0.79575084  0.80103845  1
  Pd  Pd183  1  0.20128963  0.60768544  0.79787031  1
  Pd  Pd184  1  0.20587424  0.00423288  0.80824822  1
  Pd  Pd185  1  0.38837031  0.00524199  0.80439743  1
  Pd  Pd186  1  0.00621615  0.79531008  0.79893002  1
  Pd  Pd187  1  0.59595961  0.60277949  -0.00070096  1
  Pd  Pd188  1  0.40275593  0.39040132  0.20053018  1
  Pd  Pd189  1  0.39795193  0.81211048  0.58855192  1
  Pd  Pd190  1  0.00681603  0.39819743  0.80534909  1
  Pd  Pd191  1  0.39356974  0.79741798  -0.00387401  1
  Pd  Pd192  1  0.00335423  0.60111236  0.20433992  1
  Pd  Pd193  1  0.39539323  0.19656870  0.20854957  1
  Pd  Pd194  1  0.81013785  0.79975889  0.59107587  1
  Pd  Pd195  1  0.39772635  0.40335517  0.60170370  1
  Pd  Pd196  1  0.59098354  0.00815335  0.01205694  1
  Pd  Pd197  1  0.19385075  0.40426368  0.60157654  1
  Pd  Pd198  1  -0.00070002  -0.00550640  -0.00704670  1
  Pd  Pd199  1  0.60002913  0.81053894  0.60204780  1
  Rh  Rh200  1  0.20886687  0.59569088  -0.00257478  1
  Rh  Rh201  1  0.20037155  0.79891028  0.00376250  1
  Rh  Rh202  1  0.79521302  0.40865603  0.79829294  1
  Rh  Rh203  1  0.19033486  0.00103070  0.40276330  1
  Rh  Rh204  1  0.00614292  0.59799148  0.39491791  1
  Rh  Rh205  1  0.20005376  -0.00070552  -0.00410776  1
  Rh  Rh206  1  0.00686646  0.80649087  0.19739368  1
  Rh  Rh207  1  0.40578852  0.39183181  0.38822369  1
  Rh  Rh208  1  0.59917967  0.79831968  0.39955679  1
  Rh  Rh209  1  0.39725897  0.80825225  0.20636010  1
  Rh  Rh210  1  0.19654402  0.20111756  0.39581099  1
  Rh  Rh211  1  0.19092802  0.61236968  0.20511423  1
  Rh  Rh212  1  0.60427432  -0.00431775  0.79541717  1
  Rh  Rh213  1  0.39402206  0.40704195  0.80193419  1
  Rh  Rh214  1  0.80669922  0.80309980  0.80564549  1
  Rh  Rh215  1  0.19347302  0.20176762  0.00067194  1
  Rh  Rh216  1  0.80270970  0.39755521  0.40046053  1
  Rh  Rh217  1  0.19806362  0.80326508  0.59919500  1
  Rh  Rh218  1  0.41060168  0.20760369  -0.00651402  1
  Rh  Rh219  1  0.59915973  0.41148891  0.20905294  1
  Rh  Rh220  1  0.20199410  -0.00162768  0.59674626  1
  Rh  Rh221  1  0.39796252  -0.01189717  0.40446453  1
  Rh  Rh222  1  0.40088109  -0.00265564  0.00306710  1
  Rh  Rh223  1  0.79376713  0.19917055  0.00357144  1
  Rh  Rh224  1  0.59543088  0.40653846  0.39322677  1
  Rh  Rh225  1  0.60109800  0.80560322  0.00398008  1
  Rh  Rh226  1  0.80271486  0.59354786  0.59684033  1
  Rh  Rh227  1  0.00464179  0.40649669  0.39926121  1
  Rh  Rh228  1  0.20282936  -0.00697024  0.19880807  1
  Rh  Rh229  1  0.41027738  0.59945096  0.18757659  1
  Rh  Rh230  1  0.19550021  0.40031293  0.80593463  1
  Rh  Rh231  1  0.79975540  0.00820717  0.38893740  1
  Rh  Rh232  1  0.19567749  0.79321254  0.79861856  1
  Rh  Rh233  1  -0.00364943  0.00833025  0.80522263  1
  Rh  Rh234  1  0.19682974  0.39344958  0.19524887  1
  Rh  Rh235  1  0.60215007  0.18813927  0.18800165  1
  Rh  Rh236  1  0.81070259  -0.00814621  0.00166351  1
  Rh  Rh237  1  -0.00320792  0.80896304  -0.00288315  1
  Rh  Rh238  1  0.60421361  0.00017561  0.40100370  1
  Rh  Rh239  1  -0.00184679  0.00091292  0.59611914  1
  Rh  Rh240  1  -0.00141090  0.19305555  0.19547450  1
  Rh  Rh241  1  -0.01118660  0.80348279  0.40743262  1
  Rh  Rh242  1  0.00292245  0.20205349  0.00179691  1
  Rh  Rh243  1  0.59465693  0.60069731  0.60462466  1
  Rh  Rh244  1  0.60504269  0.19962858  0.80762155  1
  Rh  Rh245  1  -0.00905063  0.59077105  -0.00049532  1
  Rh  Rh246  1  0.19489519  0.40443398  0.39511818  1
  Rh  Rh247  1  0.00251810  0.40210511  0.19728411  1
  Rh  Rh248  1  -0.00002971  0.19427499  0.40266918  1
  Rh  Rh249  1  0.80167696  0.40164399  0.20265438  1
