# generated using pymatgen
data_ZrScNbPdRh
_symmetry_space_group_name_H-M   'P 1'
_cell_length_a   16.55899304
_cell_length_b   16.56316057
_cell_length_c   16.55811502
_cell_angle_alpha   90.01300548
_cell_angle_beta   90.02750007
_cell_angle_gamma   89.99111185
_symmetry_Int_Tables_number   1
_chemical_formula_structural   ZrScNbPdRh
_chemical_formula_sum   'Zr50 Sc50 Nb50 Pd50 Rh50'
_cell_volume   4541.38126826
_cell_formula_units_Z   50
loop_
 _symmetry_equiv_pos_site_id
 _symmetry_equiv_pos_as_xyz
  1  'x, y, z'
loop_
 _atom_site_type_symbol
 _atom_site_label
 _atom_site_symmetry_multiplicity
 _atom_site_fract_x
 _atom_site_fract_y
 _atom_site_fract_z
 _atom_site_occupancy
  Zr  Zr0  1  0.30070510  0.30681719  0.70327933  1
  Zr  Zr1  1  0.30349142  0.10243522  0.49549476  1
  Zr  Zr2  1  0.50259897  0.49514661  0.10116594  1
  Zr  Zr3  1  0.69789021  0.69929210  0.09517591  1
  Zr  Zr4  1  0.90812231  0.90067239  0.89692340  1
  Zr  Zr5  1  0.09198507  0.49494562  0.29978503  1
  Zr  Zr6  1  0.29366282  0.90921259  0.70125344  1
  Zr  Zr7  1  0.49555345  0.90422864  0.50041309  1
  Zr  Zr8  1  0.49623199  0.29914139  0.29740441  1
  Zr  Zr9  1  0.09577641  0.70543882  0.69423070  1
  Zr  Zr10  1  0.69842247  0.10319889  0.49988204  1
  Zr  Zr11  1  0.29535012  0.30032251  0.09895039  1
  Zr  Zr12  1  0.30214279  0.49925111  0.50322001  1
  Zr  Zr13  1  0.49666952  0.29434062  0.89580428  1
  Zr  Zr14  1  0.29466237  0.70508172  0.10222399  1
  Zr  Zr15  1  0.29518608  0.69581641  0.70444195  1
  Zr  Zr16  1  0.70346859  0.50187077  0.29761657  1
  Zr  Zr17  1  0.49686414  0.50224432  0.50264536  1
  Zr  Zr18  1  0.70264582  0.08863638  0.69961773  1
  Zr  Zr19  1  0.50054095  0.90205129  0.29594696  1
  Zr  Zr20  1  0.49557107  0.10282184  0.30129745  1
  Zr  Zr21  1  0.89181720  0.90185322  0.30192669  1
  Zr  Zr22  1  0.70225986  0.09331827  0.30247446  1
  Zr  Zr23  1  0.90316668  0.90805412  0.09668425  1
  Zr  Zr24  1  0.29101677  0.90818378  0.91308236  1
  Zr  Zr25  1  0.29095734  0.70839724  0.49856826  1
  Zr  Zr26  1  0.90063239  0.50442029  0.50174765  1
  Zr  Zr27  1  0.50066302  0.10110824  0.49748426  1
  Zr  Zr28  1  0.09282873  0.09967484  0.69968672  1
  Zr  Zr29  1  0.50017849  0.90654547  0.90923492  1
  Zr  Zr30  1  0.10313474  0.88567193  0.50042456  1
  Zr  Zr31  1  0.10918154  0.90511568  0.09353060  1
  Zr  Zr32  1  0.89939045  0.10184541  0.90449071  1
  Zr  Zr33  1  0.71309531  0.51081867  0.70298493  1
  Zr  Zr34  1  0.70248922  0.89299369  0.69136581  1
  Zr  Zr35  1  0.49538909  0.30163586  0.69786118  1
  Zr  Zr36  1  0.10014334  0.49683618  0.49459462  1
  Zr  Zr37  1  0.10169198  0.69797771  0.30112296  1
  Zr  Zr38  1  0.90321234  0.10334525  0.28358055  1
  Zr  Zr39  1  0.89588181  0.70468449  0.10262611  1
  Zr  Zr40  1  0.10225131  0.12195540  0.49681504  1
  Zr  Zr41  1  0.50203651  0.89441602  0.09883892  1
  Zr  Zr42  1  0.10720106  0.69729344  0.10028420  1
  Zr  Zr43  1  0.90309069  0.31071772  0.29552134  1
  Zr  Zr44  1  0.10588125  0.50043558  0.70062014  1
  Zr  Zr45  1  0.09112612  0.90381584  0.70753194  1
  Zr  Zr46  1  0.30548509  0.69745344  0.29971829  1
  Zr  Zr47  1  0.10811805  0.29580397  0.70094368  1
  Zr  Zr48  1  0.49383931  0.29647578  0.10174295  1
  Zr  Zr49  1  0.30251856  0.90418877  0.49855138  1
  Sc  Sc50  1  0.70892852  0.50968831  0.49876563  1
  Sc  Sc51  1  0.51343572  0.90698356  0.69966031  1
  Sc  Sc52  1  0.09232746  0.69543258  0.49618525  1
  Sc  Sc53  1  0.89539433  0.89565832  0.49720040  1
  Sc  Sc54  1  0.70312903  0.30229106  0.09997657  1
  Sc  Sc55  1  0.50075210  0.69982260  0.10305997  1
  Sc  Sc56  1  0.70114840  0.70596823  0.51026847  1
  Sc  Sc57  1  0.70257052  0.29536927  0.49758173  1
  Sc  Sc58  1  0.49392155  0.51068364  0.30288199  1
  Sc  Sc59  1  0.10009148  0.09859366  0.90486291  1
  Sc  Sc60  1  0.69582932  0.10080141  0.90269076  1
  Sc  Sc61  1  0.51110090  0.69740077  0.70196066  1
  Sc  Sc62  1  0.30190203  0.69288036  0.90311193  1
  Sc  Sc63  1  0.48790367  0.50712897  0.89593102  1
  Sc  Sc64  1  0.69797182  0.69535251  0.89567180  1
  Sc  Sc65  1  0.29990134  0.50073676  0.09902461  1
  Sc  Sc66  1  0.70024849  0.50283662  0.10641075  1
  Sc  Sc67  1  0.30773138  0.49793462  0.70053459  1
  Sc  Sc68  1  0.90261285  0.90804399  0.69572946  1
  Sc  Sc69  1  0.11270349  0.49364889  0.10149732  1
  Sc  Sc70  1  0.69750797  0.89891112  0.10405967  1
  Sc  Sc71  1  0.70288744  0.49864319  0.90019116  1
  Sc  Sc72  1  0.10929351  0.69515664  0.89888295  1
  Sc  Sc73  1  0.90291249  0.30105375  0.71478707  1
  Sc  Sc74  1  0.89491518  0.50402076  0.30544576  1
  Sc  Sc75  1  0.70741037  0.69312788  0.29644714  1
  Sc  Sc76  1  0.50379292  0.70035682  0.90322416  1
  Sc  Sc77  1  0.09499446  0.89184912  0.29511918  1
  Sc  Sc78  1  0.29799026  0.50372586  0.89541127  1
  Sc  Sc79  1  0.50123782  0.69500523  0.50140771  1
  Sc  Sc80  1  0.30723585  0.88968649  0.30613069  1
  Sc  Sc81  1  0.29022925  0.30141670  0.49787935  1
  Sc  Sc82  1  0.29908426  0.10884606  0.29571588  1
  Sc  Sc83  1  0.51421917  0.10057385  0.69978260  1
  Sc  Sc84  1  0.09825654  0.29837329  0.30672630  1
  Sc  Sc85  1  0.90232247  0.09656227  0.49889381  1
  Sc  Sc86  1  0.89081901  0.48797511  0.88477837  1
  Sc  Sc87  1  0.28138875  0.09915497  0.10252414  1
  Sc  Sc88  1  0.70612500  0.29471853  0.90506148  1
  Sc  Sc89  1  0.70728848  0.29258819  0.30164303  1
  Sc  Sc90  1  0.70731494  0.90342422  0.50196779  1
  Sc  Sc91  1  0.50441127  0.09267042  0.09097668  1
  Sc  Sc92  1  0.50126856  0.29433310  0.49759403  1
  Sc  Sc93  1  0.69562465  0.29030630  0.69643446  1
  Sc  Sc94  1  0.89930899  0.28979800  0.10498788  1
  Sc  Sc95  1  0.90120177  0.70390361  0.30520854  1
  Sc  Sc96  1  0.29720356  0.49869756  0.30187903  1
  Sc  Sc97  1  0.69970202  0.89772220  0.90132334  1
  Sc  Sc98  1  0.28643914  0.11010871  0.70761738  1
  Sc  Sc99  1  0.89687772  0.48385688  0.11359113  1
  Nb  Nb100  1  0.49113278  0.70958940  0.30313988  1
  Nb  Nb101  1  0.90583314  0.69859496  0.89851222  1
  Nb  Nb102  1  0.09548551  0.30472532  0.50279898  1
  Nb  Nb103  1  0.09737000  0.50224618  0.90060981  1
  Nb  Nb104  1  0.08278153  0.09957731  0.11082650  1
  Nb  Nb105  1  0.09976695  0.09683471  0.29595907  1
  Nb  Nb106  1  0.69688611  0.90411698  0.30356363  1
  Nb  Nb107  1  0.89861783  0.09788454  0.70069107  1
  Nb  Nb108  1  0.09842040  0.89986979  0.89738733  1
  Nb  Nb109  1  0.09963137  0.30345970  0.90195981  1
  Nb  Nb110  1  0.09734749  0.29664421  0.09340393  1
  Nb  Nb111  1  0.29555913  0.28899235  0.89502040  1
  Nb  Nb112  1  0.90384862  0.30318370  0.50135409  1
  Nb  Nb113  1  0.70707153  0.70540745  0.70193879  1
  Nb  Nb114  1  0.70250316  0.10674931  0.10433818  1
  Nb  Nb115  1  0.31099705  0.29045888  0.29313413  1
  Nb  Nb116  1  0.29898482  0.09865928  0.89989125  1
  Nb  Nb117  1  0.49646683  0.49325235  0.69840831  1
  Nb  Nb118  1  0.49950207  0.09878432  0.90298238  1
  Nb  Nb119  1  0.30319423  0.90326201  0.09573558  1
  Nb  Nb120  1  0.90254324  0.69509728  0.50302114  1
  Nb  Nb121  1  0.90964617  0.09945016  0.09915616  1
  Nb  Nb122  1  0.89883496  0.69208062  0.69869517  1
  Nb  Nb123  1  0.90081329  0.50381930  0.69433306  1
  Nb  Nb124  1  0.90728130  0.29808759  0.90582925  1
  Nb  Nb125  1  0.60021918  0.40688321  0.60117545  1
  Nb  Nb126  1  0.81166969  0.59929949  -0.00120814  1
  Nb  Nb127  1  0.39844216  0.80318118  0.60826194  1
  Nb  Nb128  1  0.00163847  0.59977773  0.19393301  1
  Nb  Nb129  1  0.59967622  0.80198359  0.39346580  1
  Nb  Nb130  1  0.59350731  0.39848973  -0.00439469  1
  Nb  Nb131  1  0.39840101  0.19991311  0.60208132  1
  Nb  Nb132  1  0.80904535  0.19626269  0.60360587  1
  Nb  Nb133  1  0.39234720  0.19502246  -0.00698103  1
  Nb  Nb134  1  -0.00136449  0.39921945  0.60120371  1
  Nb  Nb135  1  -0.00381519  0.59285973  -0.00175881  1
  Nb  Nb136  1  0.19332969  0.00430680  0.59260786  1
  Nb  Nb137  1  0.40104649  0.00431125  0.80917739  1
  Nb  Nb138  1  0.00143821  0.39724191  -0.00572603  1
  Nb  Nb139  1  -0.00295592  0.59703984  0.79961911  1
  Nb  Nb140  1  0.20062207  0.80597249  0.80281190  1
  Nb  Nb141  1  0.39787717  -0.00437757  0.19268815  1
  Nb  Nb142  1  0.59661355  0.40256404  0.79632514  1
  Nb  Nb143  1  0.60099968  0.19365886  0.19800298  1
  Nb  Nb144  1  0.39702475  0.80928010  0.79977169  1
  Nb  Nb145  1  0.00777298  0.00296193  0.39528179  1
  Nb  Nb146  1  0.59980762  0.40453052  0.40170634  1
  Nb  Nb147  1  0.19273842  0.00362366  0.39838710  1
  Nb  Nb148  1  0.80800465  0.79235256  0.79512508  1
  Nb  Nb149  1  0.00390532  0.79624792  -0.00360685  1
  Pd  Pd150  1  0.79754979  0.20079913  0.79814936  1
  Pd  Pd151  1  0.39643405  0.00958326  0.61559997  1
  Pd  Pd152  1  0.79996283  -0.00895779  0.80270447  1
  Pd  Pd153  1  0.60141021  0.60482702  0.39634514  1
  Pd  Pd154  1  -0.00958618  0.20884410  0.60617017  1
  Pd  Pd155  1  0.79435478  0.39998152  0.40237537  1
  Pd  Pd156  1  0.20438924  0.40262347  0.80614320  1
  Pd  Pd157  1  0.60560682  0.39187327  0.20371942  1
  Pd  Pd158  1  0.20778834  -0.00911466  0.21012593  1
  Pd  Pd159  1  0.00339505  0.19605939  0.80634556  1
  Pd  Pd160  1  0.59803785  0.59346976  0.79911362  1
  Pd  Pd161  1  0.60615118  0.79262861  0.20726916  1
  Pd  Pd162  1  0.39988383  0.60921855  0.60343669  1
  Pd  Pd163  1  0.79116417  0.79375726  0.40238100  1
  Pd  Pd164  1  0.39876631  0.60373489  0.00692649  1
  Pd  Pd165  1  0.20111545  0.59825340  0.39830869  1
  Pd  Pd166  1  0.79434809  0.00461832  0.00393771  1
  Pd  Pd167  1  0.20070736  0.40202861  -0.00858653  1
  Pd  Pd168  1  0.80003076  0.38967789  0.60530711  1
  Pd  Pd169  1  0.60516060  0.59107551  -0.00285005  1
  Pd  Pd170  1  0.60572033  0.59635466  0.60511811  1
  Pd  Pd171  1  0.80127196  0.79569574  -0.00992122  1
  Pd  Pd172  1  0.19590670  0.19363272  -0.00093103  1
  Pd  Pd173  1  0.20544878  0.80744992  0.20506227  1
  Pd  Pd174  1  0.00017290  0.80062149  0.19330338  1
  Pd  Pd175  1  0.39945024  0.79219906  -0.00374716  1
  Pd  Pd176  1  0.39382177  0.40799817  0.20304289  1
  Pd  Pd177  1  0.40282879  0.39591573  0.40220692  1
  Pd  Pd178  1  0.00456250  -0.00032856  0.58611044  1
  Pd  Pd179  1  0.60061274  -0.00512467  0.40494523  1
  Pd  Pd180  1  0.78945242  0.38865029  0.79450426  1
  Pd  Pd181  1  0.39725896  0.39492657  -0.00835433  1
  Pd  Pd182  1  0.19873384  0.59779436  0.59683597  1
  Pd  Pd183  1  0.00335422  0.40370813  0.79814280  1
  Pd  Pd184  1  0.19956069  0.39109344  0.20725992  1
  Pd  Pd185  1  0.19028133  0.20865846  0.20294630  1
  Pd  Pd186  1  0.60571413  0.20093878  0.80210532  1
  Pd  Pd187  1  0.79598661  -0.00066382  0.19205504  1
  Pd  Pd188  1  0.60037145  0.80366667  0.80391038  1
  Pd  Pd189  1  -0.00744335  0.19874419  0.39214466  1
  Pd  Pd190  1  0.59379186  0.60647219  0.20571732  1
  Pd  Pd191  1  0.39954891  0.59802891  0.19552778  1
  Pd  Pd192  1  -0.00996158  0.80164238  0.59753158  1
  Pd  Pd193  1  0.80312755  0.19788196  0.00521747  1
  Pd  Pd194  1  0.61245396  -0.00015173  0.00362978  1
  Pd  Pd195  1  0.40221607  0.18932957  0.79553959  1
  Pd  Pd196  1  0.80179640  0.40346152  0.00285688  1
  Pd  Pd197  1  0.79324377  0.80350607  0.20338899  1
  Pd  Pd198  1  0.81274052  0.19692488  0.40375692  1
  Pd  Pd199  1  0.20529773  0.39208586  0.39187196  1
  Rh  Rh200  1  0.39006582  0.00499476  0.38431842  1
  Rh  Rh201  1  -0.00009751  -0.00958641  0.20460771  1
  Rh  Rh202  1  0.20627550  0.20266058  0.60013526  1
  Rh  Rh203  1  0.80993424  0.79609612  0.60537090  1
  Rh  Rh204  1  0.39509395  0.20754130  0.40824758  1
  Rh  Rh205  1  -0.00382753  0.01064687  0.80662217  1
  Rh  Rh206  1  0.00528212  0.21064144  0.20127759  1
  Rh  Rh207  1  0.60226255  0.79764966  -0.00124513  1
  Rh  Rh208  1  0.80761251  0.00451708  0.39900510  1
  Rh  Rh209  1  0.80367801  0.00661004  0.59628979  1
  Rh  Rh210  1  0.19076611  0.19871248  0.80683577  1
  Rh  Rh211  1  0.19455710  0.60283968  0.79871190  1
  Rh  Rh212  1  0.19683335  0.80067821  0.39225252  1
  Rh  Rh213  1  0.39422868  0.60442295  0.40399747  1
  Rh  Rh214  1  0.00192911  0.20383590  0.00038102  1
  Rh  Rh215  1  -0.00511205  0.80239933  0.40245625  1
  Rh  Rh216  1  0.59685519  0.00656074  0.19734864  1
  Rh  Rh217  1  -0.00510706  0.39989474  0.40770058  1
  Rh  Rh218  1  -0.00424709  0.60222430  0.39230518  1
  Rh  Rh219  1  0.40260990  0.39134227  0.59097274  1
  Rh  Rh220  1  0.19105143  0.01006957  0.00367691  1
  Rh  Rh221  1  0.40563936  0.60825987  0.79472895  1
  Rh  Rh222  1  0.39750037  0.40235612  0.80745867  1
  Rh  Rh223  1  0.59917524  0.20717321  0.38889905  1
  Rh  Rh224  1  0.40456533  0.18520901  0.18356526  1
  Rh  Rh225  1  0.59889692  -0.00200726  0.80730104  1
  Rh  Rh226  1  0.79704453  0.19960229  0.19664878  1
  Rh  Rh227  1  0.59200119  0.80253971  0.58961392  1
  Rh  Rh228  1  0.81020737  0.59844611  0.19256178  1
  Rh  Rh229  1  0.20465901  0.80661251  0.60976102  1
  Rh  Rh230  1  0.80607381  0.60590137  0.80656676  1
  Rh  Rh231  1  0.19608359  0.59455775  0.20447500  1
  Rh  Rh232  1  0.80208853  0.60821631  0.40584484  1
  Rh  Rh233  1  0.00279612  0.59404110  0.60275304  1
  Rh  Rh234  1  0.79307004  0.39582256  0.20425672  1
  Rh  Rh235  1  0.00563729  -0.00180545  -0.00275969  1
  Rh  Rh236  1  0.20331661  0.20370212  0.39074244  1
  Rh  Rh237  1  0.79973053  0.60883403  0.59621785  1
  Rh  Rh238  1  0.39618391  0.80430032  0.19230140  1
  Rh  Rh239  1  0.19754955  0.00095734  0.79951471  1
  Rh  Rh240  1  0.60617190  -0.00185624  0.59270212  1
  Rh  Rh241  1  0.19490960  0.40049407  0.59893701  1
  Rh  Rh242  1  0.00321676  0.78934143  0.80426948  1
  Rh  Rh243  1  0.01033029  0.39900864  0.18950121  1
  Rh  Rh244  1  0.59492433  0.20564134  0.00667637  1
  Rh  Rh245  1  0.39282783  0.01025747  0.00432322  1
  Rh  Rh246  1  0.19611008  0.79781363  -0.00665868  1
  Rh  Rh247  1  0.40825313  0.79392663  0.41351576  1
  Rh  Rh248  1  0.60115845  0.20207304  0.59586830  1
  Rh  Rh249  1  0.20164197  0.59447481  0.00068784  1
