# generated using pymatgen
data_ZrScNbPdRh
_symmetry_space_group_name_H-M   'P 1'
_cell_length_a   16.56110161
_cell_length_b   16.55890648
_cell_length_c   16.55787256
_cell_angle_alpha   90.01793581
_cell_angle_beta   89.99034533
_cell_angle_gamma   89.98558266
_symmetry_Int_Tables_number   1
_chemical_formula_structural   ZrScNbPdRh
_chemical_formula_sum   'Zr50 Sc50 Nb50 Pd50 Rh50'
_cell_volume   4540.72676537
_cell_formula_units_Z   50
loop_
 _symmetry_equiv_pos_site_id
 _symmetry_equiv_pos_as_xyz
  1  'x, y, z'
loop_
 _atom_site_type_symbol
 _atom_site_label
 _atom_site_symmetry_multiplicity
 _atom_site_fract_x
 _atom_site_fract_y
 _atom_site_fract_z
 _atom_site_occupancy
  Zr  Zr0  1  0.70172109  0.49179118  0.29355371  1
  Zr  Zr1  1  0.29170811  0.10492178  0.90843427  1
  Zr  Zr2  1  0.29360575  0.49983870  0.29500551  1
  Zr  Zr3  1  0.69479622  0.50504508  0.49899814  1
  Zr  Zr4  1  0.50256191  0.70390789  0.70577715  1
  Zr  Zr5  1  0.50636243  0.90353505  0.29790745  1
  Zr  Zr6  1  0.49565297  0.90460716  0.50774113  1
  Zr  Zr7  1  0.70077442  0.89054102  0.29862792  1
  Zr  Zr8  1  0.49610669  0.70394292  0.09648309  1
  Zr  Zr9  1  0.70256519  0.09726151  0.50130258  1
  Zr  Zr10  1  0.70537347  0.69842612  0.49458764  1
  Zr  Zr11  1  0.50269385  0.90279009  0.10025489  1
  Zr  Zr12  1  0.90357171  0.30199047  0.89902244  1
  Zr  Zr13  1  0.50115738  0.89518099  0.90305382  1
  Zr  Zr14  1  0.31189381  0.90436572  0.69390014  1
  Zr  Zr15  1  0.09884802  0.29248626  0.89470668  1
  Zr  Zr16  1  0.29659336  0.30151201  0.89925316  1
  Zr  Zr17  1  0.89302162  0.29877223  0.30270874  1
  Zr  Zr18  1  0.51007747  0.69213712  0.49305310  1
  Zr  Zr19  1  0.69286770  0.89605080  0.90827020  1
  Zr  Zr20  1  0.90383901  0.89316423  0.29059861  1
  Zr  Zr21  1  0.30092338  0.31072269  0.70053213  1
  Zr  Zr22  1  0.09803291  0.89837001  0.49247973  1
  Zr  Zr23  1  0.90331932  0.50961124  0.50335858  1
  Zr  Zr24  1  0.10614550  0.90092146  0.90243162  1
  Zr  Zr25  1  0.90272958  0.10548953  0.91049556  1
  Zr  Zr26  1  0.29308243  0.29304540  0.09679312  1
  Zr  Zr27  1  0.69409300  0.29824065  0.10994191  1
  Zr  Zr28  1  0.70485159  0.50401395  0.89690235  1
  Zr  Zr29  1  0.09506002  0.90072776  0.29696754  1
  Zr  Zr30  1  0.29983610  0.91264996  0.89569149  1
  Zr  Zr31  1  0.49847934  0.50017014  0.09517659  1
  Zr  Zr32  1  0.28777489  0.69664769  0.90063330  1
  Zr  Zr33  1  0.30095310  0.89897567  0.09277113  1
  Zr  Zr34  1  0.49578843  0.50172602  0.90017276  1
  Zr  Zr35  1  0.09640654  0.89951709  0.70800299  1
  Zr  Zr36  1  0.10557424  0.69370397  0.70600587  1
  Zr  Zr37  1  0.69771998  0.90475795  0.49031503  1
  Zr  Zr38  1  0.49910074  0.29959097  0.70244192  1
  Zr  Zr39  1  0.90374078  0.30140153  0.49834829  1
  Zr  Zr40  1  0.49043326  0.49712628  0.30398989  1
  Zr  Zr41  1  0.69755141  0.28870104  0.90361564  1
  Zr  Zr42  1  0.69884870  0.69991303  0.30403024  1
  Zr  Zr43  1  0.69931164  0.10468252  0.69924144  1
  Zr  Zr44  1  0.70330699  0.49887836  0.10243463  1
  Zr  Zr45  1  0.70283484  0.90359442  0.10362088  1
  Zr  Zr46  1  0.30036778  0.10342093  0.49217838  1
  Zr  Zr47  1  0.89052554  0.10835134  0.49778798  1
  Zr  Zr48  1  0.30738001  0.30150270  0.29775433  1
  Zr  Zr49  1  0.70273718  0.10124821  0.90436607  1
  Sc  Sc50  1  0.48725420  0.29948090  0.50755424  1
  Sc  Sc51  1  0.90288199  0.90221766  0.69955433  1
  Sc  Sc52  1  0.90090053  0.89710761  0.48852169  1
  Sc  Sc53  1  0.09043992  0.69929169  0.29074513  1
  Sc  Sc54  1  0.50089382  0.29578293  0.10425761  1
  Sc  Sc55  1  0.90456262  0.67812451  0.89924550  1
  Sc  Sc56  1  0.09825087  0.50352056  0.11714846  1
  Sc  Sc57  1  0.29514489  0.90115267  0.28492557  1
  Sc  Sc58  1  0.10380524  0.30557059  0.70425119  1
  Sc  Sc59  1  0.49887004  0.29852466  0.91310041  1
  Sc  Sc60  1  0.90421065  0.10265724  0.29748385  1
  Sc  Sc61  1  0.70394562  0.49842436  0.69608443  1
  Sc  Sc62  1  0.71667347  0.29592643  0.49825305  1
  Sc  Sc63  1  0.50170064  0.10226752  0.50096048  1
  Sc  Sc64  1  0.29515719  0.49952390  0.70610333  1
  Sc  Sc65  1  0.50032745  0.70062252  0.30120833  1
  Sc  Sc66  1  0.91033884  0.91349449  0.89887259  1
  Sc  Sc67  1  0.10069735  0.09829252  0.29344583  1
  Sc  Sc68  1  0.30278774  0.09209572  0.70762192  1
  Sc  Sc69  1  0.89991486  0.28888056  0.10542046  1
  Sc  Sc70  1  0.69838797  0.09469614  0.29952244  1
  Sc  Sc71  1  0.90234120  0.30660521  0.70134783  1
  Sc  Sc72  1  0.30224906  0.50063425  0.89755210  1
  Sc  Sc73  1  0.90956717  0.69798820  0.69796344  1
  Sc  Sc74  1  0.10784608  0.30450895  0.50561403  1
  Sc  Sc75  1  0.30027932  0.69172278  0.50711409  1
  Sc  Sc76  1  0.70141449  0.69552044  0.70682661  1
  Sc  Sc77  1  0.50279232  0.69708422  0.90333134  1
  Sc  Sc78  1  0.69151747  0.70018726  0.89787235  1
  Sc  Sc79  1  0.10129016  0.50377742  0.50975170  1
  Sc  Sc80  1  0.90392132  0.50976241  0.28596950  1
  Sc  Sc81  1  0.29314122  0.70119419  0.10387703  1
  Sc  Sc82  1  0.30067322  0.10829258  0.29267376  1
  Sc  Sc83  1  0.10579986  0.10503253  0.48612055  1
  Sc  Sc84  1  0.90284114  0.50007935  0.71050496  1
  Sc  Sc85  1  0.08649111  0.69330917  0.50593588  1
  Sc  Sc86  1  0.10009570  0.10230769  0.09666345  1
  Sc  Sc87  1  0.70328154  0.70382010  0.10521089  1
  Sc  Sc88  1  0.29638893  0.29825296  0.50063854  1
  Sc  Sc89  1  0.89085971  0.09165782  0.70409633  1
  Sc  Sc90  1  0.09743422  0.30124483  0.10793890  1
  Sc  Sc91  1  0.70526660  0.90632820  0.69965477  1
  Sc  Sc92  1  0.10032242  0.30366989  0.29107954  1
  Sc  Sc93  1  0.10437360  0.90175267  0.10551287  1
  Sc  Sc94  1  0.29807938  0.50663929  0.10301787  1
  Sc  Sc95  1  0.70142431  0.29369052  0.69987441  1
  Sc  Sc96  1  0.30226311  0.10113187  0.09920416  1
  Sc  Sc97  1  0.49927521  0.10011461  0.69744629  1
  Sc  Sc98  1  0.50505652  0.10463446  0.90954564  1
  Sc  Sc99  1  0.29842172  0.49312333  0.50237364  1
  Nb  Nb100  1  0.10279248  0.50188072  0.70141247  1
  Nb  Nb101  1  0.50380101  0.49810001  0.50556508  1
  Nb  Nb102  1  0.89868926  0.70149097  0.30228239  1
  Nb  Nb103  1  0.30028745  0.69762948  0.69848451  1
  Nb  Nb104  1  0.49380105  0.10530698  0.29577770  1
  Nb  Nb105  1  0.49705023  0.48973331  0.69625088  1
  Nb  Nb106  1  0.90063770  0.69888420  0.49156088  1
  Nb  Nb107  1  0.09441659  0.50514476  0.89283058  1
  Nb  Nb108  1  0.89917190  0.50727566  0.09461240  1
  Nb  Nb109  1  0.90098881  0.49627195  0.90318632  1
  Nb  Nb110  1  0.49715445  0.90304893  0.70402095  1
  Nb  Nb111  1  0.69391893  0.30314995  0.29773503  1
  Nb  Nb112  1  0.50262731  0.29525594  0.29699292  1
  Nb  Nb113  1  0.09755883  0.49949885  0.30147355  1
  Nb  Nb114  1  0.70400840  0.09884047  0.09168532  1
  Nb  Nb115  1  0.50255936  0.10076904  0.11008656  1
  Nb  Nb116  1  0.90183211  0.69373293  0.10833477  1
  Nb  Nb117  1  0.09959188  0.09623109  0.89281324  1
  Nb  Nb118  1  0.10130086  0.69974432  0.90212722  1
  Nb  Nb119  1  0.29527308  0.69879121  0.30307842  1
  Nb  Nb120  1  0.29993837  0.90001258  0.49905801  1
  Nb  Nb121  1  0.89178091  0.08710316  0.09574873  1
  Nb  Nb122  1  0.10506237  0.70226375  0.09334581  1
  Nb  Nb123  1  0.09872660  0.09675214  0.69872921  1
  Nb  Nb124  1  0.89821126  0.89788879  0.09883984  1
  Nb  Nb125  1  0.59673648  0.39898769  0.80061540  1
  Nb  Nb126  1  0.59666247  0.39428502  0.40029523  1
  Nb  Nb127  1  0.39245863  0.80281788  0.40224156  1
  Nb  Nb128  1  0.39921250  -0.00285739  0.39554749  1
  Nb  Nb129  1  0.59844923  -0.00024348  0.80161247  1
  Nb  Nb130  1  0.18859707  0.40273899  -0.00321359  1
  Nb  Nb131  1  0.20257877  0.80217538  0.59844574  1
  Nb  Nb132  1  0.80370480  0.79919818  0.80508232  1
  Nb  Nb133  1  0.00527414  0.00662246  0.59518524  1
  Nb  Nb134  1  0.59819958  0.20770676  0.39238970  1
  Nb  Nb135  1  0.59772210  0.59563413  0.20049756  1
  Nb  Nb136  1  0.19709653  -0.00369405  0.59630878  1
  Nb  Nb137  1  0.80558191  0.40182670  0.00089571  1
  Nb  Nb138  1  0.00003741  0.79159524  0.00277894  1
  Nb  Nb139  1  0.00008576  0.40661234  0.39695235  1
  Nb  Nb140  1  0.00325595  0.19339796  0.60156005  1
  Nb  Nb141  1  0.19643965  0.60209172  0.39529209  1
  Nb  Nb142  1  0.60282325  0.80252202  0.60065599  1
  Nb  Nb143  1  0.39786702  0.20257006  0.80585176  1
  Nb  Nb144  1  0.20239092  0.79458581  0.40109268  1
  Nb  Nb145  1  0.81356258  0.79870436  -0.00038740  1
  Nb  Nb146  1  -0.00236742  0.40768654  0.00039965  1
  Nb  Nb147  1  0.79903518  0.79723084  0.59673940  1
  Nb  Nb148  1  0.39687345  0.80032229  0.79711934  1
  Nb  Nb149  1  0.40799276  0.59360394  0.60448745  1
  Pd  Pd150  1  0.40253080  0.60675620  0.19895646  1
  Pd  Pd151  1  0.38860910  0.40200196  0.00491893  1
  Pd  Pd152  1  -0.00088824  0.19273771  0.19608990  1
  Pd  Pd153  1  0.60288794  0.20844376  0.58845018  1
  Pd  Pd154  1  0.39906434  0.60434118  0.79587381  1
  Pd  Pd155  1  0.20201158  0.00578525  0.19445920  1
  Pd  Pd156  1  0.60713542  0.39904440  -0.00572847  1
  Pd  Pd157  1  0.79483383  -0.00623565  0.81002135  1
  Pd  Pd158  1  0.20580985  0.19505806  0.79089851  1
  Pd  Pd159  1  0.39184325  0.60148628  0.40740825  1
  Pd  Pd160  1  0.20838292  0.80382685  0.79359516  1
  Pd  Pd161  1  0.39042606  0.19505991  0.60944474  1
  Pd  Pd162  1  0.19514070  0.58891420  0.00230130  1
  Pd  Pd163  1  0.01009447  0.21099989  0.40147682  1
  Pd  Pd164  1  0.19964888  0.19339338  0.60692269  1
  Pd  Pd165  1  0.00332021  0.79688827  0.19050761  1
  Pd  Pd166  1  -0.00307416  0.80513067  0.59644948  1
  Pd  Pd167  1  0.80041737  0.40197696  0.60099993  1
  Pd  Pd168  1  0.39856041  0.39577777  0.19065759  1
  Pd  Pd169  1  0.79433720  0.19088994  0.20192519  1
  Pd  Pd170  1  0.40321239  0.78859207  0.59762327  1
  Pd  Pd171  1  0.19650394  0.20928275  0.38954971  1
  Pd  Pd172  1  0.00375642  0.39804461  0.59877322  1
  Pd  Pd173  1  0.00788026  -0.00453555  0.00737572  1
  Pd  Pd174  1  0.59840955  0.58794436  0.79364671  1
  Pd  Pd175  1  0.80197292  0.00271251  0.20622365  1
  Pd  Pd176  1  0.60780946  0.38901225  0.59715673  1
  Pd  Pd177  1  -0.00734437  0.19342420  0.78839591  1
  Pd  Pd178  1  0.39193307  0.79372897  -0.00984275  1
  Pd  Pd179  1  0.79499496  0.60542336  -0.00126165  1
  Pd  Pd180  1  0.80593083  0.60591221  0.60805884  1
  Pd  Pd181  1  0.60448830  0.00560601  0.20024416  1
  Pd  Pd182  1  0.40569736  0.00744363  0.00183477  1
  Pd  Pd183  1  0.01029022  0.59777642  0.00662413  1
  Pd  Pd184  1  0.79159156  0.39594131  0.80337229  1
  Pd  Pd185  1  0.40224471  0.39634386  0.40702980  1
  Pd  Pd186  1  0.20812563  -0.00507808  0.39387778  1
  Pd  Pd187  1  0.59864249  0.60412674  0.61007384  1
  Pd  Pd188  1  0.80400808  0.40935680  0.40058217  1
  Pd  Pd189  1  0.39814287  0.79797492  0.20650393  1
  Pd  Pd190  1  -0.00525854  0.00622070  0.40014960  1
  Pd  Pd191  1  0.80802910  0.20153984  0.79701281  1
  Pd  Pd192  1  0.19220310  0.40476623  0.40077028  1
  Pd  Pd193  1  0.60142453  -0.00284252  0.60785598  1
  Pd  Pd194  1  0.00351606  0.20303024  0.00689717  1
  Pd  Pd195  1  0.80435225  0.59286760  0.39101208  1
  Pd  Pd196  1  0.81251784  0.39800359  0.19162762  1
  Pd  Pd197  1  0.80773037  -0.00080994  0.39024899  1
  Pd  Pd198  1  0.60546569  0.60545842  0.00726006  1
  Pd  Pd199  1  -0.00878090  0.79300920  0.81378540  1
  Rh  Rh200  1  0.39924943  0.00187620  0.20198585  1
  Rh  Rh201  1  0.80295721  0.79396111  0.19723414  1
  Rh  Rh202  1  0.39328833  0.40542742  0.59713536  1
  Rh  Rh203  1  0.58930037  0.19962713  0.80021360  1
  Rh  Rh204  1  -0.00695256  0.40158030  0.20164681  1
  Rh  Rh205  1  0.19644026  0.79735548  0.20235731  1
  Rh  Rh206  1  0.59104769  0.80680542  0.40610850  1
  Rh  Rh207  1  0.40474376  0.19636071  0.39886287  1
  Rh  Rh208  1  0.79467483  0.60586150  0.20285459  1
  Rh  Rh209  1  0.60118767  0.58520632  0.38784430  1
  Rh  Rh210  1  0.60419035  0.19052823  0.20150737  1
  Rh  Rh211  1  0.19900681  0.59465422  0.80095306  1
  Rh  Rh212  1  0.58668673  0.40791806  0.20517473  1
  Rh  Rh213  1  0.00370373  0.59684356  0.39698225  1
  Rh  Rh214  1  0.59781505  0.79377371  0.19699262  1
  Rh  Rh215  1  0.40346654  0.19600415  0.00226699  1
  Rh  Rh216  1  0.81126638  0.20329949  0.60914160  1
  Rh  Rh217  1  0.41313689  0.00475251  0.81185750  1
  Rh  Rh218  1  0.78940313  0.19770218  0.38883166  1
  Rh  Rh219  1  0.00208458  0.60453554  0.19708562  1
  Rh  Rh220  1  0.80016364  0.20639608  0.00809476  1
  Rh  Rh221  1  0.00281166  0.59799098  0.79639718  1
  Rh  Rh222  1  0.00227511  0.79207171  0.39633348  1
  Rh  Rh223  1  0.60678882  0.79576859  0.01126933  1
  Rh  Rh224  1  0.20398910  0.60246669  0.59954240  1
  Rh  Rh225  1  0.00597418  0.40438026  0.80135231  1
  Rh  Rh226  1  0.60259713  0.81161493  0.79014524  1
  Rh  Rh227  1  0.39817835  0.20252320  0.19294999  1
  Rh  Rh228  1  0.81078210  -0.01068682  0.59097500  1
  Rh  Rh229  1  0.18883394  0.20329762  0.00075472  1
  Rh  Rh230  1  -0.00178097  0.59716809  0.60790091  1
  Rh  Rh231  1  0.20374245  0.39926941  0.19456889  1
  Rh  Rh232  1  -0.00358978  0.00390237  0.19335798  1
  Rh  Rh233  1  0.19977405  0.19975954  0.20082649  1
  Rh  Rh234  1  0.20050814  0.40396841  0.60479198  1
  Rh  Rh235  1  0.39157706  0.60527345  -0.00073457  1
  Rh  Rh236  1  0.58856998  0.01230368  0.39451623  1
  Rh  Rh237  1  0.80524153  0.79965016  0.40009704  1
  Rh  Rh238  1  0.19518554  0.60645875  0.20594556  1
  Rh  Rh239  1  0.19328716  0.40738569  0.80644706  1
  Rh  Rh240  1  0.19774418  0.80363812  0.00061521  1
  Rh  Rh241  1  0.80088568  -0.00752423  -0.00384473  1
  Rh  Rh242  1  0.00050367  0.00812087  0.79752728  1
  Rh  Rh243  1  0.39430554  0.01252067  0.58967945  1
  Rh  Rh244  1  0.19618945  0.00244893  0.79541344  1
  Rh  Rh245  1  0.40892419  0.39254744  0.80690120  1
  Rh  Rh246  1  0.59740070  0.00502879  0.00176282  1
  Rh  Rh247  1  0.19489855  0.00342515  0.00327502  1
  Rh  Rh248  1  0.80222854  0.60442008  0.79871245  1
  Rh  Rh249  1  0.59872373  0.19516872  0.01410455  1
