# generated using pymatgen
data_ZrScNbPdRh
_symmetry_space_group_name_H-M   'P 1'
_cell_length_a   16.55769068
_cell_length_b   16.55912011
_cell_length_c   16.55806056
_cell_angle_alpha   90.00453205
_cell_angle_beta   90.04868550
_cell_angle_gamma   90.00179806
_symmetry_Int_Tables_number   1
_chemical_formula_structural   ZrScNbPdRh
_chemical_formula_sum   'Zr50 Sc50 Nb50 Pd50 Rh50'
_cell_volume   4539.90044609
_cell_formula_units_Z   50
loop_
 _symmetry_equiv_pos_site_id
 _symmetry_equiv_pos_as_xyz
  1  'x, y, z'
loop_
 _atom_site_type_symbol
 _atom_site_label
 _atom_site_symmetry_multiplicity
 _atom_site_fract_x
 _atom_site_fract_y
 _atom_site_fract_z
 _atom_site_occupancy
  Zr  Zr0  1  0.91087565  0.29917994  0.50982206  1
  Zr  Zr1  1  0.49468284  0.50822920  0.50602970  1
  Zr  Zr2  1  0.30530194  0.09166293  0.49985251  1
  Zr  Zr3  1  0.49917458  0.28681774  0.50467340  1
  Zr  Zr4  1  0.10175285  0.50449168  0.89868855  1
  Zr  Zr5  1  0.70284357  0.09573027  0.30072449  1
  Zr  Zr6  1  0.50444535  0.09532664  0.69550136  1
  Zr  Zr7  1  0.89487354  0.90239698  0.90116935  1
  Zr  Zr8  1  0.90134724  0.09760422  0.70443051  1
  Zr  Zr9  1  0.90324708  0.70340012  0.69819227  1
  Zr  Zr10  1  0.90461668  0.49939997  0.49443713  1
  Zr  Zr11  1  0.29811305  0.70447432  0.89781541  1
  Zr  Zr12  1  0.69809039  0.68945665  0.09439500  1
  Zr  Zr13  1  0.49478879  0.90641109  0.09426404  1
  Zr  Zr14  1  0.30168378  0.30553958  0.88941204  1
  Zr  Zr15  1  0.50276308  0.09844212  0.89893169  1
  Zr  Zr16  1  0.70791383  0.30214161  0.90767103  1
  Zr  Zr17  1  0.90096951  0.09967281  0.90095211  1
  Zr  Zr18  1  0.51136988  0.49552078  0.10315775  1
  Zr  Zr19  1  0.50196680  0.08813980  0.30210695  1
  Zr  Zr20  1  0.51191499  0.29904503  0.09459416  1
  Zr  Zr21  1  0.09609006  0.69849093  0.09638001  1
  Zr  Zr22  1  0.90941089  0.50376864  0.10245778  1
  Zr  Zr23  1  0.70147375  0.90245389  0.10033481  1
  Zr  Zr24  1  0.49712955  0.09912482  0.49933074  1
  Zr  Zr25  1  0.89830668  0.90483730  0.10186171  1
  Zr  Zr26  1  0.30235057  0.50051285  0.10543720  1
  Zr  Zr27  1  0.49412911  0.70411329  0.50332631  1
  Zr  Zr28  1  0.70162559  0.49936817  0.90625303  1
  Zr  Zr29  1  0.10169388  0.89695968  0.69537250  1
  Zr  Zr30  1  0.90110728  0.30064961  0.70811321  1
  Zr  Zr31  1  0.29725274  0.29760356  0.30553498  1
  Zr  Zr32  1  0.90388085  0.10403958  0.09872509  1
  Zr  Zr33  1  0.28756869  0.90787415  0.30033068  1
  Zr  Zr34  1  0.70239800  0.11105466  0.10318892  1
  Zr  Zr35  1  0.10168290  0.70294407  0.50328105  1
  Zr  Zr36  1  0.50666065  0.89748007  0.70501809  1
  Zr  Zr37  1  0.89838941  0.90070670  0.70069443  1
  Zr  Zr38  1  0.29799979  0.70823979  0.50165882  1
  Zr  Zr39  1  0.69801492  0.09936185  0.49729252  1
  Zr  Zr40  1  0.49622907  0.90246136  0.89775406  1
  Zr  Zr41  1  0.49554433  0.70047290  0.30592708  1
  Zr  Zr42  1  0.69965901  0.70386247  0.30789305  1
  Zr  Zr43  1  0.69406737  0.90032076  0.89773626  1
  Zr  Zr44  1  0.69793956  0.49543925  0.29667020  1
  Zr  Zr45  1  0.89973630  0.70296431  0.09872666  1
  Zr  Zr46  1  0.49683712  0.69145087  0.10719130  1
  Zr  Zr47  1  0.50124339  0.70381318  0.69376751  1
  Zr  Zr48  1  0.11176277  0.29780192  0.90892172  1
  Zr  Zr49  1  0.50080189  0.10079361  0.09904698  1
  Sc  Sc50  1  0.10173057  0.89544600  0.49355267  1
  Sc  Sc51  1  0.08984461  0.71298842  0.30292890  1
  Sc  Sc52  1  0.29687571  0.50541743  0.70911806  1
  Sc  Sc53  1  0.49804868  0.49919304  0.88803610  1
  Sc  Sc54  1  0.30003153  0.69565214  0.30730125  1
  Sc  Sc55  1  0.49190075  0.50404222  0.28470894  1
  Sc  Sc56  1  0.28565509  0.29454906  0.08919942  1
  Sc  Sc57  1  0.29521139  0.49949673  0.89343453  1
  Sc  Sc58  1  0.29982153  0.10551844  0.89416541  1
  Sc  Sc59  1  0.08706138  0.30298167  0.70130790  1
  Sc  Sc60  1  0.89898399  0.70403022  0.49067513  1
  Sc  Sc61  1  0.70353581  0.70730356  0.50508376  1
  Sc  Sc62  1  0.11020107  0.89106184  0.11063794  1
  Sc  Sc63  1  0.49734154  0.50826533  0.70472232  1
  Sc  Sc64  1  0.30011340  0.28778937  0.49271118  1
  Sc  Sc65  1  0.50118916  0.29878883  0.89948731  1
  Sc  Sc66  1  0.29569985  0.90203820  0.70346635  1
  Sc  Sc67  1  0.29965689  0.09205831  0.70257518  1
  Sc  Sc68  1  0.10657225  0.08820330  0.71294704  1
  Sc  Sc69  1  0.90067583  0.49357815  0.69986849  1
  Sc  Sc70  1  0.10440017  0.69976033  0.89661125  1
  Sc  Sc71  1  0.49753421  0.29673878  0.70323372  1
  Sc  Sc72  1  0.90335036  0.89351916  0.50175438  1
  Sc  Sc73  1  0.29763459  0.50022984  0.30358147  1
  Sc  Sc74  1  0.29067051  0.51493435  0.49562207  1
  Sc  Sc75  1  0.29499454  0.09719331  0.30593888  1
  Sc  Sc76  1  0.90320903  0.09801547  0.49488745  1
  Sc  Sc77  1  0.09975663  0.90481485  0.88959638  1
  Sc  Sc78  1  0.89551619  0.69734923  0.89782869  1
  Sc  Sc79  1  0.49789841  0.30199560  0.29307250  1
  Sc  Sc80  1  0.71155958  0.49995966  0.50284606  1
  Sc  Sc81  1  0.10595157  0.70411046  0.70325433  1
  Sc  Sc82  1  0.70477174  0.29245694  0.29972458  1
  Sc  Sc83  1  0.70368259  0.70124279  0.90233810  1
  Sc  Sc84  1  0.49167367  0.89597582  0.50001903  1
  Sc  Sc85  1  0.70394618  0.89821921  0.69660264  1
  Sc  Sc86  1  0.29515294  0.70192863  0.69912400  1
  Sc  Sc87  1  0.09757931  0.09429686  0.49612264  1
  Sc  Sc88  1  0.70182260  0.50267664  0.70397216  1
  Sc  Sc89  1  0.29141203  0.71176471  0.09095968  1
  Sc  Sc90  1  0.70206393  0.08603094  0.69456934  1
  Sc  Sc91  1  0.70226297  0.29189341  0.49764297  1
  Sc  Sc92  1  0.89819273  0.10048724  0.30227463  1
  Sc  Sc93  1  0.90703899  0.29970500  0.30364214  1
  Sc  Sc94  1  0.70070497  0.90860384  0.30662307  1
  Sc  Sc95  1  0.89886628  0.50371368  0.89156898  1
  Sc  Sc96  1  0.10038610  0.50090068  0.48782298  1
  Sc  Sc97  1  0.70291552  0.30320287  0.70414752  1
  Sc  Sc98  1  0.49998507  0.70790838  0.89322919  1
  Sc  Sc99  1  0.90438764  0.89892629  0.30507127  1
  Nb  Nb100  1  0.30249302  0.89409115  0.91164378  1
  Nb  Nb101  1  0.09778333  0.90745294  0.30081588  1
  Nb  Nb102  1  0.70259109  0.31012045  0.09567626  1
  Nb  Nb103  1  0.69875537  0.49507386  0.10102688  1
  Nb  Nb104  1  0.90350823  0.50215451  0.30029278  1
  Nb  Nb105  1  0.10605642  0.10939551  0.09778882  1
  Nb  Nb106  1  0.10169007  0.09399478  0.90663381  1
  Nb  Nb107  1  0.89964597  0.30004550  0.90060677  1
  Nb  Nb108  1  0.29226401  0.90259185  0.50338539  1
  Nb  Nb109  1  0.71207175  0.89919391  0.50660766  1
  Nb  Nb110  1  0.10144721  0.09353677  0.29612123  1
  Nb  Nb111  1  0.29964604  0.90067883  0.09554065  1
  Nb  Nb112  1  0.29509992  0.30359074  0.69850149  1
  Nb  Nb113  1  0.50040225  0.89919922  0.29425265  1
  Nb  Nb114  1  0.89716101  0.70160221  0.29995797  1
  Nb  Nb115  1  0.08652171  0.49112824  0.29366549  1
  Nb  Nb116  1  0.09670134  0.50608730  0.69465221  1
  Nb  Nb117  1  0.09458669  0.29782797  0.10336650  1
  Nb  Nb118  1  0.10468280  0.30089233  0.50089330  1
  Nb  Nb119  1  0.90056720  0.29863789  0.09527705  1
  Nb  Nb120  1  0.29696412  0.09616192  0.10272445  1
  Nb  Nb121  1  0.70168880  0.10131468  0.89737445  1
  Nb  Nb122  1  0.69528616  0.70659573  0.69538065  1
  Nb  Nb123  1  0.09740882  0.49687409  0.10000804  1
  Nb  Nb124  1  0.10511603  0.30042371  0.30428863  1
  Nb  Nb125  1  0.80618428  0.19739729  0.60221521  1
  Nb  Nb126  1  0.80544777  0.40181928  0.19318326  1
  Nb  Nb127  1  0.40032801  0.59704048  -0.00015238  1
  Nb  Nb128  1  0.80334679  0.59733235  0.20379381  1
  Nb  Nb129  1  0.60632714  0.19350104  0.80262745  1
  Nb  Nb130  1  0.79622770  0.79538882  0.20265524  1
  Nb  Nb131  1  0.59823042  0.59721977  0.40214344  1
  Nb  Nb132  1  0.39284008  0.39792887  0.59803419  1
  Nb  Nb133  1  0.39942441  0.40329254  0.00135381  1
  Nb  Nb134  1  0.00136615  0.60051926  0.59794430  1
  Nb  Nb135  1  -0.00079982  0.80342876  0.00095018  1
  Nb  Nb136  1  0.59705923  0.80298014  0.20199461  1
  Nb  Nb137  1  0.39909918  0.80932438  0.19983329  1
  Nb  Nb138  1  0.20191529  0.00195733  0.00509943  1
  Nb  Nb139  1  0.00178917  0.39421305  0.00349694  1
  Nb  Nb140  1  0.00108824  -0.00433070  0.60402718  1
  Nb  Nb141  1  0.19993417  0.39554114  0.59634244  1
  Nb  Nb142  1  0.18725311  0.59431778  0.19881498  1
  Nb  Nb143  1  0.59315857  0.40413875  0.40514041  1
  Nb  Nb144  1  0.00972157  0.00547505  0.19954267  1
  Nb  Nb145  1  0.18625732  0.39865586  0.20059498  1
  Nb  Nb146  1  0.40344322  0.40013218  0.40877508  1
  Nb  Nb147  1  0.59315204  0.39930993  0.59458263  1
  Nb  Nb148  1  0.19695092  0.20392837  0.60141371  1
  Nb  Nb149  1  0.39586274  0.19365021  0.19357237  1
  Pd  Pd150  1  0.00047755  0.20447169  -0.00718772  1
  Pd  Pd151  1  0.39473727  0.80180864  0.79335489  1
  Pd  Pd152  1  0.00518364  0.19862897  0.39640513  1
  Pd  Pd153  1  -0.00377360  0.60171390  -0.01034520  1
  Pd  Pd154  1  0.60480343  0.60907544  0.80240686  1
  Pd  Pd155  1  0.38919300  0.81115586  0.39454883  1
  Pd  Pd156  1  0.59805132  -0.01202768  0.41079403  1
  Pd  Pd157  1  0.59412555  0.79667187  0.00386573  1
  Pd  Pd158  1  0.38839760  0.19968806  0.60963815  1
  Pd  Pd159  1  0.79617115  0.60187461  0.79428634  1
  Pd  Pd160  1  0.38692578  0.59792471  0.60711166  1
  Pd  Pd161  1  0.79486634  0.39189398  0.60036432  1
  Pd  Pd162  1  0.00601649  0.18667357  0.60422167  1
  Pd  Pd163  1  0.20720310  0.59611379  0.00300562  1
  Pd  Pd164  1  0.59505130  0.20417673  0.39011729  1
  Pd  Pd165  1  0.39990648  -0.00934379  0.60468779  1
  Pd  Pd166  1  0.39334667  0.00119717  0.20418573  1
  Pd  Pd167  1  0.60674727  0.00599674  0.00266776  1
  Pd  Pd168  1  0.79387167  0.19693421  0.79448764  1
  Pd  Pd169  1  0.00134802  0.39481913  0.40270299  1
  Pd  Pd170  1  0.79428999  0.79802426  0.79835408  1
  Pd  Pd171  1  0.18934469  0.40259117  0.78890450  1
  Pd  Pd172  1  0.38838662  0.38461745  0.19404315  1
  Pd  Pd173  1  0.59889210  0.39365196  0.79526676  1
  Pd  Pd174  1  0.00162943  0.60783421  0.20889351  1
  Pd  Pd175  1  0.39398019  0.20566169  0.00284896  1
  Pd  Pd176  1  0.79899574  0.39175091  0.39557693  1
  Pd  Pd177  1  0.58988673  0.59639292  -0.01210649  1
  Pd  Pd178  1  0.80834396  -0.00410696  0.40332371  1
  Pd  Pd179  1  0.00120462  0.79674879  0.80813165  1
  Pd  Pd180  1  0.18451693  0.60256475  0.38585390  1
  Pd  Pd181  1  0.59933068  -0.01089532  0.59087752  1
  Pd  Pd182  1  0.80761234  0.60462177  0.60301247  1
  Pd  Pd183  1  0.40563014  0.19682800  0.79291313  1
  Pd  Pd184  1  0.19395033  0.20020467  0.79343859  1
  Pd  Pd185  1  0.79705208  0.59957951  0.39834879  1
  Pd  Pd186  1  0.80572777  0.20842143  0.20047277  1
  Pd  Pd187  1  0.39098344  0.00878750  -0.00817565  1
  Pd  Pd188  1  0.60230602  0.80438944  0.40486405  1
  Pd  Pd189  1  0.00033962  0.19737861  0.20678042  1
  Pd  Pd190  1  0.01540690  -0.00920539  0.01059016  1
  Pd  Pd191  1  0.79346022  0.00675649  -0.00047210  1
  Pd  Pd192  1  0.00469165  0.40131104  0.80981974  1
  Pd  Pd193  1  0.59737558  0.20218701  0.20560429  1
  Pd  Pd194  1  0.81288526  0.40790102  0.00166197  1
  Pd  Pd195  1  0.60953309  0.59649679  0.59556281  1
  Pd  Pd196  1  0.00944504  0.19672520  0.80839373  1
  Pd  Pd197  1  0.19386560  0.19055697  0.40592206  1
  Pd  Pd198  1  0.20564175  0.79053000  0.20913864  1
  Pd  Pd199  1  0.20300303  0.20248957  0.20302265  1
  Rh  Rh200  1  0.40804361  0.19872888  0.38486507  1
  Rh  Rh201  1  0.39659614  -0.00429069  0.80319261  1
  Rh  Rh202  1  0.37910342  0.61584543  0.19229947  1
  Rh  Rh203  1  0.59380916  0.40467144  -0.00939612  1
  Rh  Rh204  1  0.60615299  -0.00253846  0.19663892  1
  Rh  Rh205  1  0.60934609  0.20028105  -0.00701715  1
  Rh  Rh206  1  0.60202373  0.80515312  0.59552051  1
  Rh  Rh207  1  0.61590057  0.20411356  0.61545434  1
  Rh  Rh208  1  0.40088863  0.40035549  0.79727584  1
  Rh  Rh209  1  0.19808980  0.60279619  0.79776802  1
  Rh  Rh210  1  0.18665449  0.81167905  -0.00937571  1
  Rh  Rh211  1  0.00168099  -0.00225228  0.39897385  1
  Rh  Rh212  1  0.00152043  0.60436290  0.39938004  1
  Rh  Rh213  1  0.80161526  0.40387294  0.80290407  1
  Rh  Rh214  1  0.20379636  0.80491341  0.80285504  1
  Rh  Rh215  1  0.21165917  -0.00619502  0.81624160  1
  Rh  Rh216  1  0.61074640  0.60700818  0.20988604  1
  Rh  Rh217  1  0.80095210  0.80760842  0.39742961  1
  Rh  Rh218  1  0.80487195  0.80132104  0.00238684  1
  Rh  Rh219  1  0.79621936  -0.00267186  0.80492192  1
  Rh  Rh220  1  -0.00225982  0.38865165  0.19694734  1
  Rh  Rh221  1  0.61051449  0.38901644  0.20804709  1
  Rh  Rh222  1  0.80178812  0.59347449  0.00249342  1
  Rh  Rh223  1  0.60487347  0.00333401  0.79934785  1
  Rh  Rh224  1  0.19683612  0.00081164  0.40739297  1
  Rh  Rh225  1  0.19336730  0.59620979  0.60141893  1
  Rh  Rh226  1  0.80200964  0.79621079  0.60118859  1
  Rh  Rh227  1  0.20364113  0.80379000  0.60017340  1
  Rh  Rh228  1  -0.00102381  0.80166599  0.40041052  1
  Rh  Rh229  1  0.39396175  0.80539740  0.60539827  1
  Rh  Rh230  1  -0.00888409  0.80977104  0.19794544  1
  Rh  Rh231  1  0.80725964  0.20211665  0.40984516  1
  Rh  Rh232  1  0.19971014  0.80173824  0.39712375  1
  Rh  Rh233  1  0.80993112  0.00410152  0.59227806  1
  Rh  Rh234  1  -0.00183173  -0.00018104  0.79725837  1
  Rh  Rh235  1  0.19779363  0.40551796  0.00595506  1
  Rh  Rh236  1  0.20365067  0.40209304  0.39715919  1
  Rh  Rh237  1  0.40630185  0.59111995  0.39671431  1
  Rh  Rh238  1  0.60602508  0.79674766  0.79760738  1
  Rh  Rh239  1  0.39927711  -0.00662274  0.39950942  1
  Rh  Rh240  1  0.19330942  0.00444485  0.59460155  1
  Rh  Rh241  1  0.80754177  -0.00223640  0.20494412  1
  Rh  Rh242  1  0.00115553  0.79780442  0.59783391  1
  Rh  Rh243  1  0.20479570  0.19115060  -0.00556855  1
  Rh  Rh244  1  0.39687037  0.60803852  0.80570561  1
  Rh  Rh245  1  0.00221738  0.60226267  0.79031352  1
  Rh  Rh246  1  0.40732318  0.79171948  0.00762702  1
  Rh  Rh247  1  0.80029474  0.19829754  0.00072174  1
  Rh  Rh248  1  0.19476340  0.00437012  0.19275007  1
  Rh  Rh249  1  0.00981376  0.41234487  0.59334529  1
