# generated using pymatgen
data_ZrScNbPdRh
_symmetry_space_group_name_H-M   'P 1'
_cell_length_a   16.55562896
_cell_length_b   16.55310004
_cell_length_c   16.55479864
_cell_angle_alpha   89.99069284
_cell_angle_beta   90.02203395
_cell_angle_gamma   89.95904678
_symmetry_Int_Tables_number   1
_chemical_formula_structural   ZrScNbPdRh
_chemical_formula_sum   'Zr50 Sc50 Nb50 Pd50 Rh50'
_cell_volume   4536.79105726
_cell_formula_units_Z   50
loop_
 _symmetry_equiv_pos_site_id
 _symmetry_equiv_pos_as_xyz
  1  'x, y, z'
loop_
 _atom_site_type_symbol
 _atom_site_label
 _atom_site_symmetry_multiplicity
 _atom_site_fract_x
 _atom_site_fract_y
 _atom_site_fract_z
 _atom_site_occupancy
  Zr  Zr0  1  0.89329519  0.30000462  0.09942586  1
  Zr  Zr1  1  0.49987512  0.89940694  0.90998990  1
  Zr  Zr2  1  0.90129713  0.70647438  0.90459771  1
  Zr  Zr3  1  0.30468068  0.29900174  0.89894008  1
  Zr  Zr4  1  0.30581911  0.29552555  0.70378745  1
  Zr  Zr5  1  0.89957764  0.29599888  0.91051469  1
  Zr  Zr6  1  0.10824709  0.90745824  0.49866611  1
  Zr  Zr7  1  0.69447858  0.10603342  0.49699994  1
  Zr  Zr8  1  0.50265976  0.70039156  0.10236673  1
  Zr  Zr9  1  0.30182426  0.69816888  0.10448993  1
  Zr  Zr10  1  0.29695741  0.89822616  0.30043889  1
  Zr  Zr11  1  0.10518509  0.89318465  0.90162874  1
  Zr  Zr12  1  0.91255702  0.70299213  0.49464400  1
  Zr  Zr13  1  0.10368611  0.10026276  0.30289151  1
  Zr  Zr14  1  0.69636598  0.70286434  0.70198617  1
  Zr  Zr15  1  0.09894904  0.90016088  0.09712042  1
  Zr  Zr16  1  0.69782387  0.30019762  0.90948623  1
  Zr  Zr17  1  0.90704791  0.88603977  0.30062681  1
  Zr  Zr18  1  0.10037096  0.90754701  0.29411663  1
  Zr  Zr19  1  0.70607314  0.49636803  0.49988391  1
  Zr  Zr20  1  0.10688982  0.50904060  0.90428800  1
  Zr  Zr21  1  0.49595255  0.69583934  0.69825616  1
  Zr  Zr22  1  0.90683848  0.49610180  0.90479603  1
  Zr  Zr23  1  0.70317318  0.89994004  0.10212925  1
  Zr  Zr24  1  0.70122922  0.90098772  0.70375855  1
  Zr  Zr25  1  0.49861028  0.10235529  0.09549468  1
  Zr  Zr26  1  0.49667920  0.10184411  0.70331939  1
  Zr  Zr27  1  0.69566611  0.30967230  0.50111924  1
  Zr  Zr28  1  0.89494308  0.90298273  0.90343685  1
  Zr  Zr29  1  0.90302402  0.70427870  0.69647535  1
  Zr  Zr30  1  0.10691248  0.89678973  0.69578518  1
  Zr  Zr31  1  0.09323264  0.71164305  0.30266566  1
  Zr  Zr32  1  0.90145050  0.29519016  0.50595000  1
  Zr  Zr33  1  0.49782834  0.50177270  0.71020109  1
  Zr  Zr34  1  0.69636713  0.50186392  0.30537164  1
  Zr  Zr35  1  0.90059883  0.49661127  0.09947883  1
  Zr  Zr36  1  0.69803711  0.49934001  0.69132836  1
  Zr  Zr37  1  0.70838581  0.89009638  0.29751149  1
  Zr  Zr38  1  0.10637979  0.70203964  0.51202574  1
  Zr  Zr39  1  0.10846675  0.28839892  0.69671444  1
  Zr  Zr40  1  0.89726351  0.50151221  0.69096571  1
  Zr  Zr41  1  0.90371408  0.10362384  0.70102535  1
  Zr  Zr42  1  0.50088594  0.10482698  0.30398245  1
  Zr  Zr43  1  0.51058003  0.49743094  0.49508993  1
  Zr  Zr44  1  0.49782143  0.09454709  0.49719715  1
  Zr  Zr45  1  0.70136086  0.30054384  0.29858448  1
  Zr  Zr46  1  0.49634670  0.89375680  0.10197644  1
  Zr  Zr47  1  0.30275533  0.70281461  0.29901126  1
  Zr  Zr48  1  0.09970415  0.49000202  0.29995555  1
  Zr  Zr49  1  0.30096686  0.09844414  0.90363156  1
  Sc  Sc50  1  0.29644051  0.49133857  0.10247869  1
  Sc  Sc51  1  0.89743642  0.70080615  0.09580310  1
  Sc  Sc52  1  0.90756831  0.30019258  0.70069291  1
  Sc  Sc53  1  0.49420317  0.29860038  0.09279511  1
  Sc  Sc54  1  0.89524637  0.89520797  0.10063755  1
  Sc  Sc55  1  0.29283022  0.10634745  0.29916131  1
  Sc  Sc56  1  0.50822922  0.70044902  0.90105513  1
  Sc  Sc57  1  0.48977917  0.30126610  0.30264354  1
  Sc  Sc58  1  0.09828378  0.10385617  0.89341016  1
  Sc  Sc59  1  0.69437935  0.10031724  0.29302611  1
  Sc  Sc60  1  0.69070521  0.50031707  0.90967620  1
  Sc  Sc61  1  0.29325393  0.90099991  0.08912841  1
  Sc  Sc62  1  0.49935433  0.70565488  0.49939245  1
  Sc  Sc63  1  0.90265934  0.30059025  0.28515168  1
  Sc  Sc64  1  0.70062568  0.50580737  0.09915629  1
  Sc  Sc65  1  0.09580499  0.30032935  0.10972426  1
  Sc  Sc66  1  0.10312769  0.29718921  0.30122701  1
  Sc  Sc67  1  0.29471912  0.49934311  0.50965384  1
  Sc  Sc68  1  0.29899585  0.10852452  0.69312214  1
  Sc  Sc69  1  0.69960307  0.70564721  0.90529894  1
  Sc  Sc70  1  0.10457324  0.50160556  0.09852717  1
  Sc  Sc71  1  0.10517828  0.09447427  0.11006190  1
  Sc  Sc72  1  0.69514577  0.30745233  0.69878286  1
  Sc  Sc73  1  0.70324933  0.89765461  0.90255904  1
  Sc  Sc74  1  0.28648238  0.69671988  0.89863552  1
  Sc  Sc75  1  0.49768200  0.89567931  0.30387975  1
  Sc  Sc76  1  0.29907605  0.49115648  0.29149968  1
  Sc  Sc77  1  0.50055851  0.30141487  0.89880198  1
  Sc  Sc78  1  0.30056582  0.89694283  0.50421779  1
  Sc  Sc79  1  0.50300468  0.89914079  0.68804494  1
  Sc  Sc80  1  0.69954748  0.10254181  0.10145076  1
  Sc  Sc81  1  0.29052724  0.29680302  0.49879879  1
  Sc  Sc82  1  0.49995678  0.30012836  0.49176992  1
  Sc  Sc83  1  0.10975617  0.50437518  0.69502646  1
  Sc  Sc84  1  0.09578788  0.30063627  0.89742312  1
  Sc  Sc85  1  0.30158613  0.50061730  0.90104443  1
  Sc  Sc86  1  0.68681036  0.89677187  0.49856909  1
  Sc  Sc87  1  0.68955620  0.69984528  0.49461424  1
  Sc  Sc88  1  0.89252576  0.10843645  0.09722495  1
  Sc  Sc89  1  0.90433841  0.90467764  0.71273122  1
  Sc  Sc90  1  0.70247557  0.29741408  0.09877995  1
  Sc  Sc91  1  0.49470896  0.89718579  0.49607948  1
  Sc  Sc92  1  0.89865164  0.49130758  0.29709445  1
  Sc  Sc93  1  0.09959092  0.69969943  0.08832599  1
  Sc  Sc94  1  0.90881530  0.10057408  0.29505594  1
  Sc  Sc95  1  0.29506655  0.09321075  0.50032250  1
  Sc  Sc96  1  0.29619694  0.30157833  0.29719584  1
  Sc  Sc97  1  0.50412492  0.70097665  0.29933367  1
  Sc  Sc98  1  0.29692412  0.68784000  0.69009805  1
  Sc  Sc99  1  0.69314253  0.09444987  0.90444556  1
  Nb  Nb100  1  0.89857878  0.90430694  0.50156889  1
  Nb  Nb101  1  0.30363614  0.69294113  0.49713301  1
  Nb  Nb102  1  0.10280757  0.70041374  0.70525110  1
  Nb  Nb103  1  0.49585179  0.30063531  0.70358617  1
  Nb  Nb104  1  0.30574234  0.50004131  0.70313695  1
  Nb  Nb105  1  0.10057351  0.09725634  0.69912801  1
  Nb  Nb106  1  0.29966598  0.29304372  0.10137187  1
  Nb  Nb107  1  0.89982544  0.09795512  0.89934519  1
  Nb  Nb108  1  0.30195151  0.90778731  0.69727667  1
  Nb  Nb109  1  0.10024348  0.49626110  0.49183688  1
  Nb  Nb110  1  0.69866192  0.70148279  0.10699830  1
  Nb  Nb111  1  0.50069738  0.49989880  0.91052756  1
  Nb  Nb112  1  0.09930284  0.69696680  0.89796605  1
  Nb  Nb113  1  0.49917035  0.10082341  0.90204381  1
  Nb  Nb114  1  0.29724345  0.90183008  0.89735597  1
  Nb  Nb115  1  0.10280866  0.30199885  0.49652784  1
  Nb  Nb116  1  0.50241767  0.50047824  0.10002916  1
  Nb  Nb117  1  0.70793049  0.69787594  0.30027327  1
  Nb  Nb118  1  0.69728142  0.10116567  0.69934774  1
  Nb  Nb119  1  0.90248371  0.50067083  0.50071805  1
  Nb  Nb120  1  0.90099084  0.10336223  0.50189409  1
  Nb  Nb121  1  0.90160186  0.70354045  0.30138578  1
  Nb  Nb122  1  0.09787047  0.10862753  0.49823735  1
  Nb  Nb123  1  0.49613404  0.49696509  0.29912995  1
  Nb  Nb124  1  0.29900136  0.10176109  0.09952024  1
  Nb  Nb125  1  0.59439288  0.20030281  0.60557579  1
  Nb  Nb126  1  0.00839315  0.40178665  0.58999311  1
  Nb  Nb127  1  0.19981794  0.60009341  0.40028087  1
  Nb  Nb128  1  0.59190482  0.40595876  0.19986152  1
  Nb  Nb129  1  0.39690767  0.59675201  0.39961884  1
  Nb  Nb130  1  0.20591901  0.40084271  0.79633983  1
  Nb  Nb131  1  0.79785434  0.19969512  0.80225821  1
  Nb  Nb132  1  0.80163643  0.40156015  0.80379470  1
  Nb  Nb133  1  0.40593793  0.59598231  0.00377799  1
  Nb  Nb134  1  0.80285597  0.19625428  0.40255088  1
  Nb  Nb135  1  0.20521580  0.19984136  0.00558361  1
  Nb  Nb136  1  0.80721993  0.60361864  0.39894096  1
  Nb  Nb137  1  0.20504732  -0.00200968  0.79702678  1
  Nb  Nb138  1  0.39798979  -0.00352260  0.80243970  1
  Nb  Nb139  1  0.39303568  0.80678855  0.79900059  1
  Nb  Nb140  1  -0.00216131  0.60408952  0.20491494  1
  Nb  Nb141  1  0.80243162  0.80733486  0.59787325  1
  Nb  Nb142  1  0.80183106  0.00286921  0.59666019  1
  Nb  Nb143  1  0.39662297  0.00451892  0.19617989  1
  Nb  Nb144  1  0.40194033  0.39988646  0.60803299  1
  Nb  Nb145  1  0.00225789  0.60499692  0.79913483  1
  Nb  Nb146  1  -0.00386831  0.00176012  -0.00576519  1
  Nb  Nb147  1  0.80505778  0.00143008  0.40563408  1
  Nb  Nb148  1  0.80391471  0.59626763  0.80024895  1
  Nb  Nb149  1  -0.00065554  0.00844821  0.59603728  1
  Pd  Pd150  1  -0.00625429  0.38992899  0.40061996  1
  Pd  Pd151  1  0.59156270  -0.00355319  0.20332126  1
  Pd  Pd152  1  0.39494209  0.79855098  0.60339649  1
  Pd  Pd153  1  0.59274127  -0.00556414  0.80183307  1
  Pd  Pd154  1  0.39784350  0.60894228  0.81369081  1
  Pd  Pd155  1  0.59963648  0.59655771  0.20390121  1
  Pd  Pd156  1  0.60376533  -0.00179361  0.00509560  1
  Pd  Pd157  1  0.60420139  0.20284654  0.79940889  1
  Pd  Pd158  1  0.01077719  0.19064001  0.00878553  1
  Pd  Pd159  1  0.19619646  0.38991145  -0.00384561  1
  Pd  Pd160  1  0.40372949  0.20528103  0.58804275  1
  Pd  Pd161  1  0.80745894  0.60086298  0.20597318  1
  Pd  Pd162  1  -0.00241816  -0.00114028  0.40357505  1
  Pd  Pd163  1  0.60329761  0.40257116  0.80391171  1
  Pd  Pd164  1  -0.01004135  0.00215915  0.18798952  1
  Pd  Pd165  1  0.38947320  0.19928640  0.40326447  1
  Pd  Pd166  1  0.59609008  0.60246601  0.59612787  1
  Pd  Pd167  1  0.18946229  0.60061822  0.20538440  1
  Pd  Pd168  1  0.79636009  0.79865424  0.41081592  1
  Pd  Pd169  1  0.00936707  0.59427367  0.60300264  1
  Pd  Pd170  1  0.40091799  0.59463180  0.20073687  1
  Pd  Pd171  1  0.60641593  -0.00705208  0.39033079  1
  Pd  Pd172  1  -0.00188840  0.81217857  0.59962099  1
  Pd  Pd173  1  0.79483492  0.00858040  0.79927721  1
  Pd  Pd174  1  0.39923279  0.00014491  0.00292762  1
  Pd  Pd175  1  0.59439604  0.21193018  0.19665036  1
  Pd  Pd176  1  0.39171834  0.00001014  0.39395936  1
  Pd  Pd177  1  0.80990424  0.39697209  0.39861802  1
  Pd  Pd178  1  0.39989934  0.19790398  0.20248386  1
  Pd  Pd179  1  0.60095437  0.79949346  0.20469531  1
  Pd  Pd180  1  0.20901975  0.79865758  0.79193368  1
  Pd  Pd181  1  0.00213112  0.59618538  0.39256925  1
  Pd  Pd182  1  0.60700902  0.59723381  0.80625808  1
  Pd  Pd183  1  0.80690257  0.00223017  0.20721145  1
  Pd  Pd184  1  0.60059903  0.00304247  0.59845162  1
  Pd  Pd185  1  -0.00407209  0.20688992  0.39296848  1
  Pd  Pd186  1  0.01114763  0.39791462  0.00646603  1
  Pd  Pd187  1  0.00145783  0.79924960  0.80289727  1
  Pd  Pd188  1  -0.00301869  0.20166485  0.80251290  1
  Pd  Pd189  1  0.79730032  0.60107278  -0.00508614  1
  Pd  Pd190  1  0.19801899  0.80089859  0.19214122  1
  Pd  Pd191  1  0.78959112  0.20262111  0.60440697  1
  Pd  Pd192  1  0.20100033  0.79723583  0.40527103  1
  Pd  Pd193  1  0.00772959  0.40789714  0.78823673  1
  Pd  Pd194  1  0.59031779  0.80657036  0.80023895  1
  Pd  Pd195  1  0.20223232  0.39951008  0.60446095  1
  Pd  Pd196  1  0.38919586  0.40582041  0.40920780  1
  Pd  Pd197  1  0.39185344  0.78687164  -0.00910052  1
  Pd  Pd198  1  0.39941491  0.40329868  0.00389076  1
  Pd  Pd199  1  0.79678893  0.61460099  0.59202961  1
  Rh  Rh200  1  0.20112673  0.19950849  0.80750112  1
  Rh  Rh201  1  0.60233376  0.79891549  0.60034808  1
  Rh  Rh202  1  0.59850833  0.39739945  0.01040749  1
  Rh  Rh203  1  0.59854858  0.60267667  0.39534505  1
  Rh  Rh204  1  0.00931236  0.80970274  0.40815886  1
  Rh  Rh205  1  0.79526315  0.40529479  -0.00096295  1
  Rh  Rh206  1  0.20196207  0.79376772  0.00061406  1
  Rh  Rh207  1  0.40474710  0.19263604  0.80764960  1
  Rh  Rh208  1  0.59702078  0.39503218  0.38759592  1
  Rh  Rh209  1  0.21040315  0.79524141  0.60356810  1
  Rh  Rh210  1  0.19914096  0.19988284  0.40139213  1
  Rh  Rh211  1  0.79264182  0.79853780  0.00644991  1
  Rh  Rh212  1  0.59668665  0.19886710  -0.00028299  1
  Rh  Rh213  1  0.20976739  -0.00215163  0.20140178  1
  Rh  Rh214  1  0.60739837  0.79921687  0.00690900  1
  Rh  Rh215  1  0.19799408  0.59742081  0.59663972  1
  Rh  Rh216  1  0.00060453  0.80608933  -0.00027516  1
  Rh  Rh217  1  0.01155164  -0.00063690  0.80116575  1
  Rh  Rh218  1  0.00177294  0.19720786  0.19743960  1
  Rh  Rh219  1  0.19691768  0.59509751  0.79618634  1
  Rh  Rh220  1  0.79858835  0.19717764  0.20712711  1
  Rh  Rh221  1  0.79813587  0.79304016  0.79470299  1
  Rh  Rh222  1  0.18790596  0.00966615  -0.00725307  1
  Rh  Rh223  1  -0.00034809  0.60117739  0.00101981  1
  Rh  Rh224  1  0.40422480  0.39533676  0.19297147  1
  Rh  Rh225  1  0.19826837  0.20255667  0.19631180  1
  Rh  Rh226  1  0.78836752  0.40169962  0.19339655  1
  Rh  Rh227  1  0.19894533  0.19495323  0.59295746  1
  Rh  Rh228  1  0.80332803  0.00242055  0.00257532  1
  Rh  Rh229  1  0.59872394  0.79866865  0.39349810  1
  Rh  Rh230  1  0.60397112  0.20783407  0.40175126  1
  Rh  Rh231  1  0.59672967  0.60629046  0.00303236  1
  Rh  Rh232  1  0.39847658  0.20003036  -0.00414257  1
  Rh  Rh233  1  0.19984773  0.39230555  0.19784711  1
  Rh  Rh234  1  0.79331825  0.19123917  -0.00747652  1
  Rh  Rh235  1  0.40703831  0.58891747  0.58949023  1
  Rh  Rh236  1  0.39830507  0.40392778  0.80077370  1
  Rh  Rh237  1  0.40175655  0.00084877  0.60204237  1
  Rh  Rh238  1  0.39693991  0.80984394  0.20165425  1
  Rh  Rh239  1  0.80359478  0.79181171  0.19499983  1
  Rh  Rh240  1  0.01053765  0.20118697  0.59786080  1
  Rh  Rh241  1  0.20416794  0.40381063  0.39812593  1
  Rh  Rh242  1  0.81064884  0.39221176  0.60530645  1
  Rh  Rh243  1  0.19541731  0.00938413  0.60257453  1
  Rh  Rh244  1  -0.00163295  0.79204841  0.18913261  1
  Rh  Rh245  1  0.20190922  0.00372337  0.39946866  1
  Rh  Rh246  1  0.39976554  0.79270527  0.40134470  1
  Rh  Rh247  1  0.21059936  0.60207156  0.00636967  1
  Rh  Rh248  1  0.58568242  0.39275580  0.60395857  1
  Rh  Rh249  1  0.00222790  0.40656047  0.19542403  1
