# generated using pymatgen
data_ZrScNbPdRh
_symmetry_space_group_name_H-M   'P 1'
_cell_length_a   16.55934555
_cell_length_b   16.55902400
_cell_length_c   16.56279598
_cell_angle_alpha   90.01810690
_cell_angle_beta   90.03488598
_cell_angle_gamma   89.95226272
_symmetry_Int_Tables_number   1
_chemical_formula_structural   ZrScNbPdRh
_chemical_formula_sum   'Zr50 Sc50 Nb50 Pd50 Rh50'
_cell_volume   4541.62533281
_cell_formula_units_Z   50
loop_
 _symmetry_equiv_pos_site_id
 _symmetry_equiv_pos_as_xyz
  1  'x, y, z'
loop_
 _atom_site_type_symbol
 _atom_site_label
 _atom_site_symmetry_multiplicity
 _atom_site_fract_x
 _atom_site_fract_y
 _atom_site_fract_z
 _atom_site_occupancy
  Zr  Zr0  1  0.49710760  0.09711815  0.49359538  1
  Zr  Zr1  1  0.68878107  0.30143570  0.68841107  1
  Zr  Zr2  1  0.29392499  0.50023167  0.90296603  1
  Zr  Zr3  1  0.70288120  0.50141880  0.10319901  1
  Zr  Zr4  1  0.49952105  0.29360756  0.90357976  1
  Zr  Zr5  1  0.09331121  0.30271460  0.49165285  1
  Zr  Zr6  1  0.49829251  0.89636017  0.49182691  1
  Zr  Zr7  1  0.49159892  0.49181027  0.90351718  1
  Zr  Zr8  1  0.90137746  0.89670128  0.30527492  1
  Zr  Zr9  1  0.09473356  0.90487866  0.10269403  1
  Zr  Zr10  1  0.30233656  0.49824565  0.70293985  1
  Zr  Zr11  1  0.69812799  0.50530496  0.90230557  1
  Zr  Zr12  1  0.50043707  0.10129955  0.90081763  1
  Zr  Zr13  1  0.49833138  0.89852756  0.29657953  1
  Zr  Zr14  1  0.49454067  0.30867393  0.29986506  1
  Zr  Zr15  1  0.29113165  0.89868415  0.09281027  1
  Zr  Zr16  1  0.69616800  0.10244822  0.49588611  1
  Zr  Zr17  1  0.49986276  0.30040348  0.50354339  1
  Zr  Zr18  1  0.11306445  0.29683474  0.09524232  1
  Zr  Zr19  1  0.29919699  0.88606288  0.29568616  1
  Zr  Zr20  1  0.90259977  0.50020971  0.70077462  1
  Zr  Zr21  1  0.90983907  0.70129922  0.71396906  1
  Zr  Zr22  1  0.09636427  0.10182755  0.30886262  1
  Zr  Zr23  1  0.09464030  0.29865765  0.89674584  1
  Zr  Zr24  1  0.29142236  0.70007619  0.10606529  1
  Zr  Zr25  1  0.69461449  0.49995827  0.50241270  1
  Zr  Zr26  1  0.29412436  0.69233411  0.90479682  1
  Zr  Zr27  1  0.89768612  0.30537528  0.89953160  1
  Zr  Zr28  1  0.09492800  0.69663228  0.11044090  1
  Zr  Zr29  1  0.30281089  0.89435404  0.49991478  1
  Zr  Zr30  1  0.10276457  0.49960432  0.10094308  1
  Zr  Zr31  1  0.50085947  0.70705691  0.10339516  1
  Zr  Zr32  1  0.90267558  0.09726901  0.49324401  1
  Zr  Zr33  1  0.49741060  0.48972004  0.10121755  1
  Zr  Zr34  1  0.89498114  0.29262536  0.30162050  1
  Zr  Zr35  1  0.89888611  0.10753335  0.91024197  1
  Zr  Zr36  1  0.89082054  0.29618702  0.09352560  1
  Zr  Zr37  1  0.10704415  0.29612862  0.70127761  1
  Zr  Zr38  1  0.09788190  0.50283579  0.30702623  1
  Zr  Zr39  1  0.09419313  0.89626437  0.49426229  1
  Zr  Zr40  1  0.69591775  0.49934398  0.30566689  1
  Zr  Zr41  1  0.50264193  0.09473544  0.30331757  1
  Zr  Zr42  1  0.90196538  0.90894626  0.10173482  1
  Zr  Zr43  1  0.10906077  0.91038006  0.91028016  1
  Zr  Zr44  1  0.29599432  0.69405729  0.68913727  1
  Zr  Zr45  1  0.29742522  0.10986230  0.29891781  1
  Zr  Zr46  1  0.29599964  0.49781579  0.09345810  1
  Zr  Zr47  1  0.29935242  0.10928223  0.69532596  1
  Zr  Zr48  1  0.50607996  0.50306603  0.69148894  1
  Zr  Zr49  1  0.69804027  0.09470671  0.70325765  1
  Sc  Sc50  1  0.70468313  0.30819865  0.10154846  1
  Sc  Sc51  1  0.30431324  0.30682018  0.89633448  1
  Sc  Sc52  1  0.50192869  0.10608512  0.70782277  1
  Sc  Sc53  1  0.89826378  0.70183962  0.90555037  1
  Sc  Sc54  1  0.49782035  0.70996443  0.30546382  1
  Sc  Sc55  1  0.71236211  0.09790623  0.10374701  1
  Sc  Sc56  1  0.69974576  0.29500680  0.90930668  1
  Sc  Sc57  1  0.69857340  0.89917450  0.89420342  1
  Sc  Sc58  1  0.91096046  0.30852488  0.69779658  1
  Sc  Sc59  1  0.90104992  0.89622765  0.50610854  1
  Sc  Sc60  1  0.49853659  0.69609870  0.50075589  1
  Sc  Sc61  1  0.29838174  0.69902023  0.49908233  1
  Sc  Sc62  1  0.89512509  0.89497149  0.90737863  1
  Sc  Sc63  1  0.50431655  0.70061050  0.69499140  1
  Sc  Sc64  1  0.70819300  0.69352176  0.30958799  1
  Sc  Sc65  1  0.30071226  0.08741658  0.90162358  1
  Sc  Sc66  1  0.70450145  0.70849595  0.90028918  1
  Sc  Sc67  1  0.50578974  0.90155396  0.10262580  1
  Sc  Sc68  1  0.10592535  0.10445124  0.70671240  1
  Sc  Sc69  1  0.10394587  0.50110434  0.70845132  1
  Sc  Sc70  1  0.30569831  0.10487283  0.49660784  1
  Sc  Sc71  1  0.70233783  0.10259500  0.29846072  1
  Sc  Sc72  1  0.49885892  0.89713512  0.70007691  1
  Sc  Sc73  1  0.09110359  0.89340025  0.69566821  1
  Sc  Sc74  1  0.89912841  0.30601213  0.49287430  1
  Sc  Sc75  1  0.49566294  0.49385820  0.30817594  1
  Sc  Sc76  1  0.09155865  0.68959118  0.89666721  1
  Sc  Sc77  1  0.69022278  0.09898728  0.89740774  1
  Sc  Sc78  1  0.50390039  0.50575711  0.49619482  1
  Sc  Sc79  1  0.89459374  0.09709304  0.29440425  1
  Sc  Sc80  1  0.89331180  0.89662550  0.70189857  1
  Sc  Sc81  1  0.69999409  0.70131120  0.71163383  1
  Sc  Sc82  1  0.89635626  0.50651873  0.10114503  1
  Sc  Sc83  1  0.89552795  0.08907497  0.69672458  1
  Sc  Sc84  1  0.09790266  0.69489979  0.30445032  1
  Sc  Sc85  1  0.30271481  0.50988527  0.49772267  1
  Sc  Sc86  1  0.90717371  0.49671565  0.49256012  1
  Sc  Sc87  1  0.70084015  0.69933979  0.09096189  1
  Sc  Sc88  1  0.29864158  0.49742779  0.30318926  1
  Sc  Sc89  1  0.89647261  0.70599573  0.48486823  1
  Sc  Sc90  1  0.89715822  0.51120919  0.29873634  1
  Sc  Sc91  1  0.51401777  0.70379290  0.89795632  1
  Sc  Sc92  1  0.50285924  0.91145437  0.89959200  1
  Sc  Sc93  1  0.09788970  0.90003563  0.30456359  1
  Sc  Sc94  1  0.69020063  0.90506823  0.29707722  1
  Sc  Sc95  1  0.49176590  0.10353174  0.08815618  1
  Sc  Sc96  1  0.90921712  0.50199330  0.89979742  1
  Sc  Sc97  1  0.10788436  0.29990441  0.30248102  1
  Sc  Sc98  1  0.30366790  0.30187771  0.30090762  1
  Sc  Sc99  1  0.30316892  0.90271392  0.69365547  1
  Nb  Nb100  1  0.90379590  0.09782968  0.10555455  1
  Nb  Nb101  1  0.49128693  0.30343534  0.70330344  1
  Nb  Nb102  1  0.10723059  0.49439473  0.90376488  1
  Nb  Nb103  1  0.29615932  0.10647533  0.10167331  1
  Nb  Nb104  1  0.70815216  0.89794380  0.10375401  1
  Nb  Nb105  1  0.09792443  0.09994363  0.90166068  1
  Nb  Nb106  1  0.10228934  0.50386361  0.49439815  1
  Nb  Nb107  1  0.10344429  0.69210041  0.50566366  1
  Nb  Nb108  1  0.89905499  0.69636933  0.29639514  1
  Nb  Nb109  1  0.30744152  0.29795802  0.51044150  1
  Nb  Nb110  1  0.70111918  0.29844401  0.30279856  1
  Nb  Nb111  1  0.49204452  0.29950087  0.09999123  1
  Nb  Nb112  1  0.30642121  0.29107104  0.10467126  1
  Nb  Nb113  1  0.70083767  0.30036115  0.49238027  1
  Nb  Nb114  1  0.89921209  0.70407302  0.10954319  1
  Nb  Nb115  1  0.29820458  0.69982383  0.29187385  1
  Nb  Nb116  1  0.09660792  0.09656848  0.49654660  1
  Nb  Nb117  1  0.10061851  0.09896570  0.09432198  1
  Nb  Nb118  1  0.30893238  0.29967727  0.68997415  1
  Nb  Nb119  1  0.70393239  0.69823343  0.49950548  1
  Nb  Nb120  1  0.29855209  0.89603623  0.89903669  1
  Nb  Nb121  1  0.10291156  0.69701839  0.69847520  1
  Nb  Nb122  1  0.70292472  0.90247913  0.69782782  1
  Nb  Nb123  1  0.69963214  0.50044619  0.69588733  1
  Nb  Nb124  1  0.70951799  0.89468739  0.50244314  1
  Nb  Nb125  1  0.39039542  0.00226394  0.19622782  1
  Nb  Nb126  1  0.79068738  0.40069410  0.79527357  1
  Nb  Nb127  1  0.00038311  0.19586967  0.59457183  1
  Nb  Nb128  1  0.20044104  0.00677972  0.19744208  1
  Nb  Nb129  1  0.00284150  0.00336976  0.80974848  1
  Nb  Nb130  1  0.00165969  0.19951597  0.19268591  1
  Nb  Nb131  1  0.59986385  0.39930586  0.79530218  1
  Nb  Nb132  1  0.59763840  0.20932164  0.20014488  1
  Nb  Nb133  1  0.80086402  0.20391012  0.59822041  1
  Nb  Nb134  1  0.79655352  -0.00479936  0.40367577  1
  Nb  Nb135  1  0.00312388  0.60326777  0.59825452  1
  Nb  Nb136  1  0.79809418  0.20644435  0.79218509  1
  Nb  Nb137  1  -0.00005015  0.39398564  0.19831208  1
  Nb  Nb138  1  0.60457879  -0.00739947  0.59651362  1
  Nb  Nb139  1  0.80271955  0.60014705  0.60173396  1
  Nb  Nb140  1  0.39987092  0.60190346  0.80134404  1
  Nb  Nb141  1  0.20472569  0.39580750  0.59675625  1
  Nb  Nb142  1  0.20116314  0.79766531  0.79949197  1
  Nb  Nb143  1  0.59519240  0.59757904  0.20197706  1
  Nb  Nb144  1  0.39585223  0.80238968  -0.00557602  1
  Nb  Nb145  1  0.80316878  0.79900788  0.19854459  1
  Nb  Nb146  1  0.61099065  0.80418172  0.59625540  1
  Nb  Nb147  1  0.39210260  0.79532796  0.80532045  1
  Nb  Nb148  1  0.40106010  0.60143775  0.19881153  1
  Nb  Nb149  1  0.19478284  0.00347555  0.59179217  1
  Pd  Pd150  1  0.59588730  0.59621189  0.80140465  1
  Pd  Pd151  1  0.59514364  0.01326146  0.18864371  1
  Pd  Pd152  1  -0.00193864  0.59985883  0.00361214  1
  Pd  Pd153  1  0.19165546  0.78933267  -0.00429255  1
  Pd  Pd154  1  0.20888235  0.19897587  -0.01238017  1
  Pd  Pd155  1  0.80117783  0.78630122  0.60832748  1
  Pd  Pd156  1  0.00225230  0.79811017  -0.00184319  1
  Pd  Pd157  1  0.20026087  0.40037680  0.20247420  1
  Pd  Pd158  1  0.19867681  0.80846885  0.60336506  1
  Pd  Pd159  1  0.39255127  0.19758901  0.80564574  1
  Pd  Pd160  1  -0.00660958  0.78853309  0.59411077  1
  Pd  Pd161  1  0.59606942  0.20666132  0.39169913  1
  Pd  Pd162  1  0.80156334  0.40004696  0.59963095  1
  Pd  Pd163  1  0.40959399  0.60954200  0.00046042  1
  Pd  Pd164  1  0.80760014  0.40260091  0.20643355  1
  Pd  Pd165  1  0.00142323  0.20176226  0.00627411  1
  Pd  Pd166  1  0.40953688  0.19480288  0.20337002  1
  Pd  Pd167  1  0.20637257  0.20659675  0.40864942  1
  Pd  Pd168  1  0.60277607  0.39624819  -0.00288100  1
  Pd  Pd169  1  0.40137030  -0.00455325  0.79433353  1
  Pd  Pd170  1  0.59782645  0.81104015  -0.00342671  1
  Pd  Pd171  1  0.59578867  0.19326438  0.59975099  1
  Pd  Pd172  1  0.01258035  0.40457133  0.59945513  1
  Pd  Pd173  1  0.60800590  -0.00116163  0.00811092  1
  Pd  Pd174  1  0.19675565  0.78902961  0.39888546  1
  Pd  Pd175  1  0.20247818  0.39475106  0.79567782  1
  Pd  Pd176  1  0.40323224  0.00432831  0.60435489  1
  Pd  Pd177  1  0.00661505  0.00478459  0.60886759  1
  Pd  Pd178  1  0.38891020  -0.00340918  0.38995862  1
  Pd  Pd179  1  -0.01063776  0.19140997  0.78921261  1
  Pd  Pd180  1  0.40044457  0.41166484  0.59223075  1
  Pd  Pd181  1  0.61471700  0.78827128  0.20529164  1
  Pd  Pd182  1  0.19293655  0.19848089  0.58917303  1
  Pd  Pd183  1  0.59499983  0.59942982  0.00426012  1
  Pd  Pd184  1  0.80546806  0.60236570  -0.00082219  1
  Pd  Pd185  1  0.60672534  0.79604851  0.40312320  1
  Pd  Pd186  1  0.60175467  0.39936697  0.20301995  1
  Pd  Pd187  1  -0.00076210  0.80026994  0.20836564  1
  Pd  Pd188  1  0.00729836  0.81032972  0.81210166  1
  Pd  Pd189  1  0.21013011  0.39860340  0.40939217  1
  Pd  Pd190  1  0.80095002  0.59741206  0.80013778  1
  Pd  Pd191  1  0.80225478  0.40629846  0.39661486  1
  Pd  Pd192  1  0.20800987  -0.00213592  0.40019050  1
  Pd  Pd193  1  -0.00013667  0.40249007  0.00674844  1
  Pd  Pd194  1  0.19519554  -0.00824105  0.78782597  1
  Pd  Pd195  1  0.21071522  0.20163578  0.80981298  1
  Pd  Pd196  1  0.39940449  0.60570449  0.39036265  1
  Pd  Pd197  1  0.60745969  0.19881144  0.01479711  1
  Pd  Pd198  1  0.80678432  0.00341637  0.81049739  1
  Pd  Pd199  1  0.79454356  0.00198805  -0.00529613  1
  Rh  Rh200  1  0.00608920  0.59305533  0.79922335  1
  Rh  Rh201  1  0.40858751  0.79454013  0.60115615  1
  Rh  Rh202  1  -0.00441399  0.20138240  0.39699896  1
  Rh  Rh203  1  0.80024087  0.80220577  0.00869832  1
  Rh  Rh204  1  -0.00389673  0.00308725  -0.00498656  1
  Rh  Rh205  1  0.79986989  0.41066141  -0.00886249  1
  Rh  Rh206  1  0.59750277  0.60347828  0.39530127  1
  Rh  Rh207  1  0.39624080  0.39841509  0.40968520  1
  Rh  Rh208  1  -0.00103551  0.60512788  0.40632534  1
  Rh  Rh209  1  0.00858051  0.01021812  0.20390922  1
  Rh  Rh210  1  0.19136608  0.19563051  0.20070104  1
  Rh  Rh211  1  0.39062517  0.40551130  0.19520888  1
  Rh  Rh212  1  0.59728308  0.80649949  0.79397247  1
  Rh  Rh213  1  0.59554280  -0.00596327  0.79221124  1
  Rh  Rh214  1  0.20484381  0.59487724  0.20725921  1
  Rh  Rh215  1  0.39467962  0.79255502  0.40354805  1
  Rh  Rh216  1  0.79723898  0.20268716  0.19614380  1
  Rh  Rh217  1  0.61137210  0.61301535  0.59759753  1
  Rh  Rh218  1  0.40210000  0.60008353  0.60282885  1
  Rh  Rh219  1  0.80067812  -0.01014635  0.20866251  1
  Rh  Rh220  1  0.39254316  0.20112273  -0.00598507  1
  Rh  Rh221  1  0.79414889  0.19350294  -0.00025054  1
  Rh  Rh222  1  0.80118603  0.80176793  0.80069518  1
  Rh  Rh223  1  0.20011451  0.60242533  0.80106972  1
  Rh  Rh224  1  0.59434029  0.39857915  0.59577499  1
  Rh  Rh225  1  0.40538375  0.40524310  0.79563815  1
  Rh  Rh226  1  0.79530121  0.80628958  0.38927324  1
  Rh  Rh227  1  0.20474442  0.01019555  0.00589831  1
  Rh  Rh228  1  0.39170610  0.39003980  0.00675395  1
  Rh  Rh229  1  0.20477961  0.39053864  -0.00158972  1
  Rh  Rh230  1  0.60863865  -0.00768684  0.40815046  1
  Rh  Rh231  1  0.18606911  0.80466003  0.20534824  1
  Rh  Rh232  1  0.79088215  0.60915217  0.19628511  1
  Rh  Rh233  1  0.19330069  0.58781811  0.59802640  1
  Rh  Rh234  1  0.60240464  0.21137857  0.80019290  1
  Rh  Rh235  1  0.20372524  0.60452312  0.39660855  1
  Rh  Rh236  1  0.79327184  0.00741321  0.59072869  1
  Rh  Rh237  1  0.59918635  0.39602611  0.40517865  1
  Rh  Rh238  1  0.00388186  0.79215132  0.40090953  1
  Rh  Rh239  1  -0.00868997  -0.00411236  0.39838678  1
  Rh  Rh240  1  0.39991006  0.20709715  0.39969616  1
  Rh  Rh241  1  0.39772697  0.80155281  0.19018310  1
  Rh  Rh242  1  -0.00113620  0.59246770  0.20046968  1
  Rh  Rh243  1  -0.00338746  0.40076540  0.38594892  1
  Rh  Rh244  1  0.79924855  0.19405912  0.40475121  1
  Rh  Rh245  1  0.18533821  0.60261295  0.00159986  1
  Rh  Rh246  1  0.39559642  -0.00532427  0.00698401  1
  Rh  Rh247  1  0.80252894  0.59439512  0.41052073  1
  Rh  Rh248  1  0.41055140  0.19275339  0.60106154  1
  Rh  Rh249  1  0.00285291  0.40439288  0.80425772  1
