# generated using pymatgen
data_ZrScNbPdRh
_symmetry_space_group_name_H-M   'P 1'
_cell_length_a   16.56414589
_cell_length_b   16.56291166
_cell_length_c   16.56049866
_cell_angle_alpha   89.99651862
_cell_angle_beta   90.02916272
_cell_angle_gamma   90.00208929
_symmetry_Int_Tables_number   1
_chemical_formula_structural   ZrScNbPdRh
_chemical_formula_sum   'Zr50 Sc50 Nb50 Pd50 Rh50'
_cell_volume   4543.38023759
_cell_formula_units_Z   50
loop_
 _symmetry_equiv_pos_site_id
 _symmetry_equiv_pos_as_xyz
  1  'x, y, z'
loop_
 _atom_site_type_symbol
 _atom_site_label
 _atom_site_symmetry_multiplicity
 _atom_site_fract_x
 _atom_site_fract_y
 _atom_site_fract_z
 _atom_site_occupancy
  Zr  Zr0  1  0.70249707  0.50194270  0.70155420  1
  Zr  Zr1  1  0.10473557  0.11573577  0.49790985  1
  Zr  Zr2  1  0.70511518  0.11266962  0.49580703  1
  Zr  Zr3  1  0.30157761  0.10427213  0.90216422  1
  Zr  Zr4  1  0.70157814  0.29461602  0.30874763  1
  Zr  Zr5  1  0.09297763  0.89547091  0.89517026  1
  Zr  Zr6  1  0.89589247  0.69264667  0.69999625  1
  Zr  Zr7  1  0.49768642  0.69976726  0.29996661  1
  Zr  Zr8  1  0.69540362  0.90923584  0.09653509  1
  Zr  Zr9  1  0.30916121  0.50097350  0.10116227  1
  Zr  Zr10  1  0.30507335  0.70174094  0.10268670  1
  Zr  Zr11  1  0.29596468  0.49680097  0.29639780  1
  Zr  Zr12  1  0.09114840  0.89544563  0.10042211  1
  Zr  Zr13  1  0.89792123  0.11233287  0.50830710  1
  Zr  Zr14  1  0.89499634  0.49806563  0.70310062  1
  Zr  Zr15  1  0.09562717  0.70062274  0.89791092  1
  Zr  Zr16  1  0.50197556  0.69299029  0.69079143  1
  Zr  Zr17  1  0.89917861  0.90406800  0.10545230  1
  Zr  Zr18  1  0.89788803  0.48903459  0.10169023  1
  Zr  Zr19  1  0.50280511  0.69627094  0.49977708  1
  Zr  Zr20  1  0.89254398  0.89879050  0.70178136  1
  Zr  Zr21  1  0.09382300  0.68932593  0.50542892  1
  Zr  Zr22  1  0.69806249  0.69957205  0.90033978  1
  Zr  Zr23  1  0.70657279  0.69428123  0.30221290  1
  Zr  Zr24  1  0.90447993  0.69980690  0.30488003  1
  Zr  Zr25  1  0.10191057  0.50223796  0.90014243  1
  Zr  Zr26  1  0.70019884  0.68698131  0.50361474  1
  Zr  Zr27  1  0.90051972  0.70133498  0.89669014  1
  Zr  Zr28  1  0.49787184  0.11463364  0.69818963  1
  Zr  Zr29  1  0.09023018  0.89023825  0.29547938  1
  Zr  Zr30  1  0.09953685  0.89376173  0.50388217  1
  Zr  Zr31  1  0.70300951  0.49336764  0.09257631  1
  Zr  Zr32  1  0.89710927  0.30015290  0.10616813  1
  Zr  Zr33  1  0.89698846  0.10423111  0.09401006  1
  Zr  Zr34  1  0.70324040  0.10243279  0.11063278  1
  Zr  Zr35  1  0.29966115  0.49378758  0.69475434  1
  Zr  Zr36  1  0.30697292  0.89790818  0.29372139  1
  Zr  Zr37  1  0.49724296  0.31060320  0.70469408  1
  Zr  Zr38  1  0.30818965  0.69774066  0.50025588  1
  Zr  Zr39  1  0.70056403  0.70272777  0.69981204  1
  Zr  Zr40  1  0.70090309  0.69644499  0.09265279  1
  Zr  Zr41  1  0.10162701  0.29938165  0.90421395  1
  Zr  Zr42  1  0.50875569  0.30143447  0.29998642  1
  Zr  Zr43  1  0.29907507  0.69362534  0.90469539  1
  Zr  Zr44  1  0.10084449  0.89004579  0.70262601  1
  Zr  Zr45  1  0.30824045  0.30219236  0.90701817  1
  Zr  Zr46  1  0.09250339  0.10291968  0.09802080  1
  Zr  Zr47  1  0.70809419  0.10088656  0.70193488  1
  Zr  Zr48  1  0.28572493  0.29817822  0.49872172  1
  Zr  Zr49  1  0.29971902  0.69883514  0.69994534  1
  Sc  Sc50  1  0.30647449  0.30430266  0.69227577  1
  Sc  Sc51  1  0.71202231  0.89283587  0.51078944  1
  Sc  Sc52  1  0.70218468  0.89776064  0.89750037  1
  Sc  Sc53  1  0.49299326  0.90569383  0.10268042  1
  Sc  Sc54  1  0.49494703  0.90988816  0.29526777  1
  Sc  Sc55  1  0.49019226  0.89842257  0.49083434  1
  Sc  Sc56  1  0.09931054  0.10137608  0.70122990  1
  Sc  Sc57  1  0.89653745  0.29056803  0.70577908  1
  Sc  Sc58  1  0.69795583  0.30515594  0.71516813  1
  Sc  Sc59  1  0.90104790  0.50122409  0.29697696  1
  Sc  Sc60  1  0.70548255  0.49278397  0.90173870  1
  Sc  Sc61  1  0.29511272  0.11037392  0.69078055  1
  Sc  Sc62  1  0.30320190  0.30342692  0.10006722  1
  Sc  Sc63  1  0.30755964  0.09829289  0.29824806  1
  Sc  Sc64  1  0.29184558  0.50152809  0.50287336  1
  Sc  Sc65  1  0.09418568  0.29785482  0.10482030  1
  Sc  Sc66  1  0.28969038  0.89630436  0.69705679  1
  Sc  Sc67  1  0.50470727  0.88619954  0.70253784  1
  Sc  Sc68  1  0.50299528  0.49440423  0.29719825  1
  Sc  Sc69  1  0.70373702  0.89359677  0.70456357  1
  Sc  Sc70  1  0.50026325  0.11257887  0.90708817  1
  Sc  Sc71  1  0.29752618  0.89597990  0.88947962  1
  Sc  Sc72  1  0.49521124  0.69871908  0.08935995  1
  Sc  Sc73  1  0.31199129  0.10773257  0.09636612  1
  Sc  Sc74  1  0.69755522  0.10117418  0.90966203  1
  Sc  Sc75  1  0.29854647  0.10551271  0.50075438  1
  Sc  Sc76  1  0.90272271  0.51019477  0.49516559  1
  Sc  Sc77  1  0.71087522  0.90261630  0.28879469  1
  Sc  Sc78  1  0.50694104  0.10183417  0.29329626  1
  Sc  Sc79  1  0.10151849  0.11272000  0.29833529  1
  Sc  Sc80  1  0.50439828  0.30644216  0.50518885  1
  Sc  Sc81  1  0.08936847  0.49765361  0.10435560  1
  Sc  Sc82  1  0.89712993  0.10205111  0.70850723  1
  Sc  Sc83  1  0.50414883  0.90128249  0.90283979  1
  Sc  Sc84  1  0.89300770  0.10745255  0.28701895  1
  Sc  Sc85  1  0.49663610  0.10394615  0.49217042  1
  Sc  Sc86  1  0.50467418  0.50147908  0.50900691  1
  Sc  Sc87  1  0.50728669  0.09640990  0.10093618  1
  Sc  Sc88  1  0.89861296  0.70142386  0.49897188  1
  Sc  Sc89  1  0.89926559  0.29382192  0.90010427  1
  Sc  Sc90  1  0.09070512  0.10166475  0.89845322  1
  Sc  Sc91  1  0.49986338  0.70455651  0.90245821  1
  Sc  Sc92  1  0.29741379  0.49558031  0.90963730  1
  Sc  Sc93  1  0.29078294  0.30336962  0.28969618  1
  Sc  Sc94  1  0.09688131  0.50174189  0.30332714  1
  Sc  Sc95  1  0.50393268  0.30325148  0.10312343  1
  Sc  Sc96  1  0.70480261  0.48971053  0.30886688  1
  Sc  Sc97  1  0.29961132  0.69265174  0.29533185  1
  Sc  Sc98  1  0.89723510  0.69420997  0.10045490  1
  Sc  Sc99  1  0.09013508  0.69877207  0.10637210  1
  Nb  Nb100  1  0.90322144  0.90061956  0.89707465  1
  Nb  Nb101  1  0.50484542  0.50521682  0.09644823  1
  Nb  Nb102  1  0.29773119  0.90545977  0.49274509  1
  Nb  Nb103  1  0.10323066  0.50090402  0.69207858  1
  Nb  Nb104  1  0.49952338  0.49793027  0.89967466  1
  Nb  Nb105  1  0.10045165  0.49652817  0.50724061  1
  Nb  Nb106  1  0.10170390  0.30474765  0.70125938  1
  Nb  Nb107  1  0.09498327  0.70048370  0.30192839  1
  Nb  Nb108  1  0.10077706  0.30533137  0.31691163  1
  Nb  Nb109  1  0.89884394  0.29925707  0.49840127  1
  Nb  Nb110  1  0.90485409  0.90121662  0.49793674  1
  Nb  Nb111  1  0.50806145  0.30279800  0.88924141  1
  Nb  Nb112  1  0.90171469  0.89806238  0.30697403  1
  Nb  Nb113  1  0.70688781  0.30156921  0.49384608  1
  Nb  Nb114  1  0.49826746  0.49414195  0.70373569  1
  Nb  Nb115  1  0.70248030  0.49268996  0.49925550  1
  Nb  Nb116  1  0.69237608  0.30266769  0.90550866  1
  Nb  Nb117  1  0.90056947  0.49609071  0.89503168  1
  Nb  Nb118  1  0.29636383  0.90165194  0.10185755  1
  Nb  Nb119  1  0.70738975  0.30259895  0.09764957  1
  Nb  Nb120  1  0.69811583  0.10063613  0.30195725  1
  Nb  Nb121  1  0.09481087  0.30291121  0.49453874  1
  Nb  Nb122  1  0.09929673  0.69348584  0.70152760  1
  Nb  Nb123  1  0.89853697  0.31004544  0.30428564  1
  Nb  Nb124  1  0.90029149  0.09365690  0.89501375  1
  Nb  Nb125  1  0.60685970  0.20287091  0.60035583  1
  Nb  Nb126  1  0.40496400  0.59203807  0.79977789  1
  Nb  Nb127  1  0.60316907  0.59927347  0.19345218  1
  Nb  Nb128  1  -0.00131085  -0.00143749  0.59452011  1
  Nb  Nb129  1  0.59415114  0.59396001  0.80051287  1
  Nb  Nb130  1  0.19948172  0.79879580  0.40000274  1
  Nb  Nb131  1  0.60164689  0.79431261  0.20127953  1
  Nb  Nb132  1  0.19557680  -0.00648951  0.39513039  1
  Nb  Nb133  1  0.59531686  0.00726069  0.79341961  1
  Nb  Nb134  1  0.19936187  -0.00212294  0.19536274  1
  Nb  Nb135  1  0.00125786  0.39640951  0.59838694  1
  Nb  Nb136  1  0.00587739  0.40213064  0.79505660  1
  Nb  Nb137  1  0.80599376  0.00061007  0.39999078  1
  Nb  Nb138  1  0.19854786  0.20909689  0.80144889  1
  Nb  Nb139  1  0.59734702  0.00419591  0.59923783  1
  Nb  Nb140  1  0.60452139  0.80279299  0.39434706  1
  Nb  Nb141  1  0.19933204  -0.00508628  0.00416886  1
  Nb  Nb142  1  0.61318072  -0.00203346  0.40245021  1
  Nb  Nb143  1  0.80344542  0.39541597  0.59219270  1
  Nb  Nb144  1  0.19787341  0.80332809  0.00405662  1
  Nb  Nb145  1  0.39996466  0.21154374  0.39640692  1
  Nb  Nb146  1  -0.00331202  0.00156080  0.40304935  1
  Nb  Nb147  1  0.40233224  -0.00066772  0.60254178  1
  Nb  Nb148  1  0.40378839  0.00429512  0.79131555  1
  Nb  Nb149  1  0.39609926  0.39626022  0.39937971  1
  Pd  Pd150  1  0.80679632  0.80647697  -0.00028762  1
  Pd  Pd151  1  -0.00898200  0.19671670  0.39043811  1
  Pd  Pd152  1  -0.00114656  0.00091992  0.79010545  1
  Pd  Pd153  1  0.80177390  0.00128917  0.59668493  1
  Pd  Pd154  1  0.00275651  0.20274379  0.60952230  1
  Pd  Pd155  1  0.59437543  0.39837220  -0.00169723  1
  Pd  Pd156  1  0.00116872  0.00663751  0.20934887  1
  Pd  Pd157  1  0.79472159  0.80313161  0.40280157  1
  Pd  Pd158  1  0.59841572  0.20378910  0.00837059  1
  Pd  Pd159  1  0.40935902  0.59641352  0.20023591  1
  Pd  Pd160  1  -0.00555138  0.59812296  0.00342798  1
  Pd  Pd161  1  0.79194256  0.20064405  0.81323787  1
  Pd  Pd162  1  0.19326167  0.60431868  0.01281069  1
  Pd  Pd163  1  0.20376445  0.79123191  0.59376850  1
  Pd  Pd164  1  0.80026151  0.79927814  0.19572641  1
  Pd  Pd165  1  -0.00736267  0.79838796  0.60570748  1
  Pd  Pd166  1  0.61030662  0.39473061  0.60035283  1
  Pd  Pd167  1  0.39361509  0.80976386  -0.00245710  1
  Pd  Pd168  1  0.20049035  0.79839982  0.20062740  1
  Pd  Pd169  1  0.19524979  0.60287207  0.39994981  1
  Pd  Pd170  1  0.59802781  0.80809569  0.58843790  1
  Pd  Pd171  1  0.40257278  0.58601510  0.40066935  1
  Pd  Pd172  1  0.20218990  0.19582542  0.19796170  1
  Pd  Pd173  1  0.39895218  0.79809355  0.39474174  1
  Pd  Pd174  1  0.20582770  0.59794403  0.79731432  1
  Pd  Pd175  1  0.20275397  0.39668105  0.80025852  1
  Pd  Pd176  1  0.40234943  0.79808028  0.79975337  1
  Pd  Pd177  1  0.39737178  0.81005320  0.59948032  1
  Pd  Pd178  1  0.80708392  0.59319112  -0.00677845  1
  Pd  Pd179  1  0.20525219  0.01010063  0.80345091  1
  Pd  Pd180  1  -0.00394294  0.40911912  0.40377892  1
  Pd  Pd181  1  -0.00465492  0.39676091  -0.00686269  1
  Pd  Pd182  1  0.59931691  0.59385153  0.39346558  1
  Pd  Pd183  1  0.19571186  0.40180877  0.01407576  1
  Pd  Pd184  1  0.60853274  0.40316375  0.19954362  1
  Pd  Pd185  1  0.19903731  0.19539096  0.00138560  1
  Pd  Pd186  1  0.00207653  0.59355257  0.79600255  1
  Pd  Pd187  1  0.40391295  0.20153226  0.20201953  1
  Pd  Pd188  1  -0.00023412  0.20980791  0.20846230  1
  Pd  Pd189  1  0.41183648  0.39706527  0.00252869  1
  Pd  Pd190  1  0.39674453  -0.00356552  -0.00837901  1
  Pd  Pd191  1  0.59641319  0.80562337  0.00573954  1
  Pd  Pd192  1  0.79991165  -0.00107127  -0.00641707  1
  Pd  Pd193  1  0.79576305  0.59057371  0.20051953  1
  Pd  Pd194  1  0.19974036  0.00456960  0.59459734  1
  Pd  Pd195  1  0.80078200  0.20200949  -0.00542986  1
  Pd  Pd196  1  0.00000218  0.00088210  -0.00398473  1
  Pd  Pd197  1  0.19024650  0.40055729  0.19512121  1
  Pd  Pd198  1  0.39216218  0.20172927  0.79960851  1
  Pd  Pd199  1  0.19256940  0.59857360  0.19500731  1
  Rh  Rh200  1  0.79459597  -0.00035024  0.80890987  1
  Rh  Rh201  1  -0.00259209  0.59953842  0.20378596  1
  Rh  Rh202  1  0.80857703  0.40381409  0.40556516  1
  Rh  Rh203  1  0.80595525  0.39494397  0.80430779  1
  Rh  Rh204  1  0.79168290  0.60144096  0.80771336  1
  Rh  Rh205  1  0.60398642  0.40681749  0.80596288  1
  Rh  Rh206  1  0.39537556  0.00764178  0.19400503  1
  Rh  Rh207  1  0.19293475  0.39434823  0.59604058  1
  Rh  Rh208  1  -0.00243546  0.59444832  0.60406744  1
  Rh  Rh209  1  0.79500451  0.21005981  0.20422954  1
  Rh  Rh210  1  0.60860965  0.20510565  0.19525517  1
  Rh  Rh211  1  0.40688863  0.79793249  0.19677537  1
  Rh  Rh212  1  0.19819730  0.78956969  0.80436389  1
  Rh  Rh213  1  0.59405349  0.40144865  0.40600619  1
  Rh  Rh214  1  0.19155089  0.20796763  0.60791265  1
  Rh  Rh215  1  0.40236577  0.40382060  0.20168947  1
  Rh  Rh216  1  0.00447817  0.79631710  0.40334584  1
  Rh  Rh217  1  0.80598677  0.79303137  0.59924121  1
  Rh  Rh218  1  0.20224269  0.60461296  0.60106873  1
  Rh  Rh219  1  0.79163207  0.21490926  0.60788088  1
  Rh  Rh220  1  0.81054878  0.19817842  0.39091475  1
  Rh  Rh221  1  0.80183145  0.59536333  0.40115155  1
  Rh  Rh222  1  0.41212269  0.21047787  0.00333802  1
  Rh  Rh223  1  -0.01372628  0.79218290  0.19752248  1
  Rh  Rh224  1  0.00607817  0.20444084  0.80284856  1
  Rh  Rh225  1  0.39396617  0.40475122  0.80728338  1
  Rh  Rh226  1  0.00425063  0.59925894  0.39908935  1
  Rh  Rh227  1  0.21060795  0.19513850  0.38857281  1
  Rh  Rh228  1  0.39627979  0.40263715  0.58778188  1
  Rh  Rh229  1  0.60379985  0.59144687  0.60571833  1
  Rh  Rh230  1  -0.00871449  0.19930392  -0.00276269  1
  Rh  Rh231  1  0.40288515  0.59545912  -0.00697905  1
  Rh  Rh232  1  0.59834290  0.59615318  -0.00333268  1
  Rh  Rh233  1  0.79567772  0.39651462  0.20463047  1
  Rh  Rh234  1  0.40761407  0.20239087  0.58757225  1
  Rh  Rh235  1  0.20183827  0.40484490  0.40087153  1
  Rh  Rh236  1  0.80524474  0.39253829  -0.00724120  1
  Rh  Rh237  1  0.39800627  0.59216164  0.60311478  1
  Rh  Rh238  1  0.60202003  -0.00660959  0.20622028  1
  Rh  Rh239  1  0.39554261  0.01241043  0.40447906  1
  Rh  Rh240  1  0.59997112  0.79518386  0.80372741  1
  Rh  Rh241  1  0.80426190  0.00108280  0.20346450  1
  Rh  Rh242  1  0.59278837  0.19855942  0.40470857  1
  Rh  Rh243  1  0.80270683  0.79917058  0.80316439  1
  Rh  Rh244  1  0.60561462  0.19834029  0.79927732  1
  Rh  Rh245  1  0.00405343  0.39299897  0.21210496  1
  Rh  Rh246  1  0.59845786  0.00062234  -0.00645938  1
  Rh  Rh247  1  0.80005849  0.59332447  0.59483796  1
  Rh  Rh248  1  -0.00598567  0.79635027  0.79245887  1
  Rh  Rh249  1  -0.00420147  0.79754341  0.00093948  1
