# generated using pymatgen
data_ZrScNbPdRh
_symmetry_space_group_name_H-M   'P 1'
_cell_length_a   16.55525885
_cell_length_b   16.55595196
_cell_length_c   16.55408191
_cell_angle_alpha   90.02225822
_cell_angle_beta   89.99309056
_cell_angle_gamma   90.03518879
_symmetry_Int_Tables_number   1
_chemical_formula_structural   ZrScNbPdRh
_chemical_formula_sum   'Zr50 Sc50 Nb50 Pd50 Rh50'
_cell_volume   4537.27513211
_cell_formula_units_Z   50
loop_
 _symmetry_equiv_pos_site_id
 _symmetry_equiv_pos_as_xyz
  1  'x, y, z'
loop_
 _atom_site_type_symbol
 _atom_site_label
 _atom_site_symmetry_multiplicity
 _atom_site_fract_x
 _atom_site_fract_y
 _atom_site_fract_z
 _atom_site_occupancy
  Zr  Zr0  1  0.09891406  0.50528046  0.10210464  1
  Zr  Zr1  1  0.89993979  0.69097530  0.90378433  1
  Zr  Zr2  1  0.49717872  0.69867803  0.50469190  1
  Zr  Zr3  1  0.29497556  0.29881108  0.49224271  1
  Zr  Zr4  1  0.30308067  0.69931033  0.49177478  1
  Zr  Zr5  1  0.30462425  0.70789309  0.70903625  1
  Zr  Zr6  1  0.49805444  0.70456626  0.70621953  1
  Zr  Zr7  1  0.29980271  0.49294676  0.49716716  1
  Zr  Zr8  1  0.09800117  0.09818691  0.70725801  1
  Zr  Zr9  1  0.89900550  0.31154180  0.90160008  1
  Zr  Zr10  1  0.90435119  0.10168223  0.69536233  1
  Zr  Zr11  1  0.89804660  0.29796402  0.50247555  1
  Zr  Zr12  1  0.89887736  0.09953546  0.29108334  1
  Zr  Zr13  1  0.70014300  0.50209480  0.10268479  1
  Zr  Zr14  1  0.09936272  0.30192680  0.10275607  1
  Zr  Zr15  1  0.09968391  0.49429031  0.49949632  1
  Zr  Zr16  1  0.09809543  0.30425067  0.49127618  1
  Zr  Zr17  1  0.70128528  0.29824363  0.30121219  1
  Zr  Zr18  1  0.90518219  0.10445606  0.89768767  1
  Zr  Zr19  1  0.50023423  0.49890680  0.50292099  1
  Zr  Zr20  1  0.09252655  0.09939682  0.10712838  1
  Zr  Zr21  1  0.09476461  0.69737156  0.69971217  1
  Zr  Zr22  1  0.10139768  0.70078679  0.90591974  1
  Zr  Zr23  1  0.31207492  0.90282066  0.50458648  1
  Zr  Zr24  1  0.08183517  0.70017455  0.50209582  1
  Zr  Zr25  1  0.10188686  0.29485143  0.89471771  1
  Zr  Zr26  1  0.30509154  0.70516545  0.90018264  1
  Zr  Zr27  1  0.08902159  0.90042200  0.30127651  1
  Zr  Zr28  1  0.49718323  0.28858861  0.89640737  1
  Zr  Zr29  1  0.30054693  0.49910516  0.29985595  1
  Zr  Zr30  1  0.10377629  0.90179397  0.70044881  1
  Zr  Zr31  1  0.50829010  0.09911475  0.09083528  1
  Zr  Zr32  1  0.49856595  0.09508148  0.48441926  1
  Zr  Zr33  1  0.29708872  0.10449498  0.10783981  1
  Zr  Zr34  1  0.70025072  0.49990257  0.29126538  1
  Zr  Zr35  1  0.70169648  0.89737486  0.10098061  1
  Zr  Zr36  1  0.90755976  0.69780086  0.69346552  1
  Zr  Zr37  1  0.50013994  0.10277789  0.70774152  1
  Zr  Zr38  1  0.70250853  0.30683781  0.89416977  1
  Zr  Zr39  1  0.49306906  0.90431439  0.69988249  1
  Zr  Zr40  1  0.70195757  0.30078569  0.10149592  1
  Zr  Zr41  1  0.50897957  0.29813387  0.70042423  1
  Zr  Zr42  1  0.49666078  0.50017006  0.90277601  1
  Zr  Zr43  1  0.29314557  0.70228169  0.09801597  1
  Zr  Zr44  1  0.30358004  0.09732779  0.49092372  1
  Zr  Zr45  1  0.70699084  0.70024507  0.09792594  1
  Zr  Zr46  1  0.09465398  0.70037049  0.29627534  1
  Zr  Zr47  1  0.50397309  0.30217901  0.49760964  1
  Zr  Zr48  1  0.90260432  0.29696887  0.30763518  1
  Zr  Zr49  1  0.30552844  0.89852212  0.09893257  1
  Sc  Sc50  1  0.30238731  0.11062539  0.89406542  1
  Sc  Sc51  1  0.90557805  0.70385994  0.09684660  1
  Sc  Sc52  1  0.10027970  0.09480241  0.29866862  1
  Sc  Sc53  1  0.10437963  0.90178249  0.89941532  1
  Sc  Sc54  1  0.90527045  0.49963791  0.70626234  1
  Sc  Sc55  1  0.89103447  0.09750441  0.50138990  1
  Sc  Sc56  1  0.69200376  0.69744028  0.70230420  1
  Sc  Sc57  1  0.30334286  0.90397817  0.70665862  1
  Sc  Sc58  1  0.50020470  0.49898253  0.11021300  1
  Sc  Sc59  1  0.69689691  0.49326426  0.50754209  1
  Sc  Sc60  1  0.50008921  0.90016642  0.09632133  1
  Sc  Sc61  1  0.71250534  0.91057763  0.48467017  1
  Sc  Sc62  1  0.09897921  0.90507801  0.49537082  1
  Sc  Sc63  1  0.09426624  0.29740971  0.69658560  1
  Sc  Sc64  1  0.70621656  0.29613842  0.50284436  1
  Sc  Sc65  1  0.28971946  0.90063923  0.30605532  1
  Sc  Sc66  1  0.29210149  0.29687147  0.70101597  1
  Sc  Sc67  1  0.90193397  0.70133496  0.30575380  1
  Sc  Sc68  1  0.90356484  0.49694967  0.09563620  1
  Sc  Sc69  1  0.50884006  0.90503806  0.30078085  1
  Sc  Sc70  1  0.09142884  0.89586753  0.10539520  1
  Sc  Sc71  1  0.68432570  0.10113568  0.90506491  1
  Sc  Sc72  1  0.70053553  0.49057034  0.69985256  1
  Sc  Sc73  1  0.49551989  0.70471443  0.10283030  1
  Sc  Sc74  1  0.71449799  0.70350196  0.29747048  1
  Sc  Sc75  1  0.49830599  0.29917963  0.10246122  1
  Sc  Sc76  1  0.89885448  0.50011379  0.29603186  1
  Sc  Sc77  1  0.30206222  0.89901651  0.89899421  1
  Sc  Sc78  1  0.09742053  0.49860145  0.29749814  1
  Sc  Sc79  1  0.90120408  0.49318005  0.49819015  1
  Sc  Sc80  1  0.90488678  0.90291079  0.49362563  1
  Sc  Sc81  1  0.70673988  0.69620981  0.90411236  1
  Sc  Sc82  1  0.50406215  0.91157550  0.89703508  1
  Sc  Sc83  1  0.29712534  0.70120433  0.30008759  1
  Sc  Sc84  1  0.10203213  0.10051230  0.89377171  1
  Sc  Sc85  1  0.89987656  0.89728691  0.10718128  1
  Sc  Sc86  1  0.29926370  0.09440983  0.70130264  1
  Sc  Sc87  1  0.50103432  0.49709929  0.29878618  1
  Sc  Sc88  1  0.48976527  0.69615549  0.30071676  1
  Sc  Sc89  1  0.90311838  0.89343858  0.91586390  1
  Sc  Sc90  1  0.71233916  0.50269459  0.90154596  1
  Sc  Sc91  1  0.10421496  0.09918312  0.50307050  1
  Sc  Sc92  1  0.68778023  0.90295721  0.70954795  1
  Sc  Sc93  1  0.08702136  0.49444179  0.89933939  1
  Sc  Sc94  1  0.70819229  0.90308155  0.29239638  1
  Sc  Sc95  1  0.90764221  0.90721526  0.68937826  1
  Sc  Sc96  1  0.50477712  0.49791652  0.69314818  1
  Sc  Sc97  1  0.30215651  0.29720276  0.10574376  1
  Sc  Sc98  1  0.89432511  0.30217860  0.10408949  1
  Sc  Sc99  1  0.50524620  0.29620154  0.30045143  1
  Nb  Nb100  1  0.70323074  0.29548068  0.69793760  1
  Nb  Nb101  1  0.69920251  0.90016716  0.89953713  1
  Nb  Nb102  1  0.09531835  0.69712337  0.10033295  1
  Nb  Nb103  1  0.50123101  0.90118754  0.50275505  1
  Nb  Nb104  1  0.10168588  0.50689460  0.69768473  1
  Nb  Nb105  1  0.29877122  0.30360932  0.89835996  1
  Nb  Nb106  1  0.89685448  0.89801246  0.30042933  1
  Nb  Nb107  1  0.70212399  0.69925340  0.49954237  1
  Nb  Nb108  1  0.30041502  0.49840492  0.09591542  1
  Nb  Nb109  1  0.70128563  0.10354984  0.69402782  1
  Nb  Nb110  1  0.69416695  0.09599700  0.30571639  1
  Nb  Nb111  1  0.09708174  0.29976667  0.29983669  1
  Nb  Nb112  1  0.29957684  0.50229234  0.70303933  1
  Nb  Nb113  1  0.29465273  0.29212432  0.30406439  1
  Nb  Nb114  1  0.89788491  0.10221903  0.09809248  1
  Nb  Nb115  1  0.88989403  0.29551855  0.69657030  1
  Nb  Nb116  1  0.89352486  0.70419275  0.50127467  1
  Nb  Nb117  1  0.31002413  0.10145569  0.30489432  1
  Nb  Nb118  1  0.70681844  0.09700464  0.10484356  1
  Nb  Nb119  1  0.30154631  0.50008198  0.89751847  1
  Nb  Nb120  1  0.49847022  0.10216110  0.89576330  1
  Nb  Nb121  1  0.70065725  0.09957923  0.49391517  1
  Nb  Nb122  1  0.49916914  0.70093918  0.89885492  1
  Nb  Nb123  1  0.50131743  0.10015763  0.30295207  1
  Nb  Nb124  1  0.89865698  0.49868359  0.90207950  1
  Nb  Nb125  1  0.39140797  0.59883230  0.60418197  1
  Nb  Nb126  1  0.60244045  0.79840727  -0.00553168  1
  Nb  Nb127  1  0.79703561  0.19730734  0.79455030  1
  Nb  Nb128  1  -0.00236574  0.20132392  0.00303102  1
  Nb  Nb129  1  0.39370146  0.59903482  -0.00078063  1
  Nb  Nb130  1  0.20186769  0.59436074  0.79926569  1
  Nb  Nb131  1  0.20175968  0.60011573  0.60341497  1
  Nb  Nb132  1  0.79513796  0.79895722  0.59922615  1
  Nb  Nb133  1  0.80098055  0.60572395  0.59659439  1
  Nb  Nb134  1  0.79791688  0.00130769  0.80516766  1
  Nb  Nb135  1  0.60163077  0.00305197  0.59324494  1
  Nb  Nb136  1  -0.00372701  0.79680328  0.80020120  1
  Nb  Nb137  1  0.60259087  0.80670742  0.59087979  1
  Nb  Nb138  1  0.59538680  0.60019056  0.80565848  1
  Nb  Nb139  1  0.39393506  0.40032973  0.80220969  1
  Nb  Nb140  1  0.20200530  0.79457775  0.59819219  1
  Nb  Nb141  1  0.79626803  0.00565859  0.00183367  1
  Nb  Nb142  1  0.60390053  0.79694819  0.40527319  1
  Nb  Nb143  1  0.40164311  0.19974429  0.59425627  1
  Nb  Nb144  1  0.80424106  0.80380735  0.79708129  1
  Nb  Nb145  1  0.40096335  0.00891017  0.20479520  1
  Nb  Nb146  1  0.60476575  0.60497361  0.40344080  1
  Nb  Nb147  1  0.20781289  0.40246004  -0.00347424  1
  Nb  Nb148  1  0.20152296  0.00532106  0.00699860  1
  Nb  Nb149  1  0.60059793  0.40020383  -0.00118539  1
  Pd  Pd150  1  -0.00621615  0.39855425  0.20271364  1
  Pd  Pd151  1  0.19344906  0.59960629  0.40198762  1
  Pd  Pd152  1  0.19513018  0.19973943  0.21069975  1
  Pd  Pd153  1  0.40195787  0.39970985  -0.00006624  1
  Pd  Pd154  1  -0.00747229  -0.01298773  0.80634779  1
  Pd  Pd155  1  0.79789233  0.20019281  0.20468273  1
  Pd  Pd156  1  0.19833863  0.40309318  0.80130106  1
  Pd  Pd157  1  0.59736164  0.19360595  0.59031593  1
  Pd  Pd158  1  0.79455559  0.60198435  0.79078297  1
  Pd  Pd159  1  0.19634376  0.20017314  0.00026702  1
  Pd  Pd160  1  0.59855674  0.61142091  0.20951340  1
  Pd  Pd161  1  -0.00538513  0.00842822  0.40260264  1
  Pd  Pd162  1  0.60013636  0.79296506  0.20368030  1
  Pd  Pd163  1  0.19295957  0.80078892  0.40703552  1
  Pd  Pd164  1  0.81216169  0.60332442  0.19459002  1
  Pd  Pd165  1  -0.00648251  0.59397493  0.39924103  1
  Pd  Pd166  1  0.19423469  0.81157709  0.00509547  1
  Pd  Pd167  1  -0.00484426  0.40034134  0.60688435  1
  Pd  Pd168  1  0.00062169  0.00332053  0.00169980  1
  Pd  Pd169  1  0.79627882  0.59089930  0.40616995  1
  Pd  Pd170  1  0.20408924  -0.00430451  0.20017286  1
  Pd  Pd171  1  0.00169858  0.19066597  0.40387388  1
  Pd  Pd172  1  0.20390680  0.19730528  0.60251308  1
  Pd  Pd173  1  0.20210683  -0.00598744  0.59790229  1
  Pd  Pd174  1  0.19195587  0.19265296  0.39326481  1
  Pd  Pd175  1  0.00194672  0.19779591  0.59314203  1
  Pd  Pd176  1  0.60651691  0.40491744  0.39998212  1
  Pd  Pd177  1  0.20045929  0.59232759  -0.00693404  1
  Pd  Pd178  1  0.39578577  0.39483073  0.60963848  1
  Pd  Pd179  1  0.79729839  0.40366402  0.39972895  1
  Pd  Pd180  1  0.20201398  0.60104702  0.20321721  1
  Pd  Pd181  1  0.20412928  0.39898343  0.19830105  1
  Pd  Pd182  1  0.19507308  0.80191740  0.19910231  1
  Pd  Pd183  1  0.59631960  0.00261861  0.19801816  1
  Pd  Pd184  1  0.39670373  0.19785974  0.00187744  1
  Pd  Pd185  1  0.40747057  0.80727830  0.39132080  1
  Pd  Pd186  1  0.60062271  0.19640590  0.20071217  1
  Pd  Pd187  1  -0.00202021  0.39638287  0.79223921  1
  Pd  Pd188  1  0.40834764  0.19788736  0.20365336  1
  Pd  Pd189  1  0.39348520  0.00771302  -0.00041908  1
  Pd  Pd190  1  0.79086935  -0.00931548  0.60695638  1
  Pd  Pd191  1  0.59328522  0.60059989  -0.00099479  1
  Pd  Pd192  1  0.59670211  0.40742782  0.80409817  1
  Pd  Pd193  1  0.39634383  0.39365537  0.20714334  1
  Pd  Pd194  1  0.19798587  0.40015903  0.60508892  1
  Pd  Pd195  1  0.39533438  0.60122589  0.19342333  1
  Pd  Pd196  1  0.40056322  0.81105267  0.20976619  1
  Pd  Pd197  1  0.60377067  0.20693777  0.00131795  1
  Pd  Pd198  1  0.80098689  0.19640867  -0.00731796  1
  Pd  Pd199  1  0.40237095  0.39507675  0.39035108  1
  Rh  Rh200  1  0.40259073  0.20980800  0.39989192  1
  Rh  Rh201  1  0.60923395  0.19590319  0.80075875  1
  Rh  Rh202  1  -0.00188767  0.59610974  0.00134775  1
  Rh  Rh203  1  0.60430983  -0.00570979  0.39998594  1
  Rh  Rh204  1  0.39795167  0.79629305  0.60134232  1
  Rh  Rh205  1  0.19138124  0.79680899  0.79445849  1
  Rh  Rh206  1  0.40009598  -0.01050691  0.38853982  1
  Rh  Rh207  1  0.40749867  0.81416787  0.80983071  1
  Rh  Rh208  1  0.40729617  0.01330785  0.60127962  1
  Rh  Rh209  1  0.80304558  0.00108680  0.19762236  1
  Rh  Rh210  1  -0.00880383  -0.00384975  0.20112289  1
  Rh  Rh211  1  0.80788035  0.59505494  0.00610878  1
  Rh  Rh212  1  -0.00045403  0.40138722  0.39325651  1
  Rh  Rh213  1  0.00613084  0.39450999  0.00243613  1
  Rh  Rh214  1  -0.00868470  0.21066406  0.80298660  1
  Rh  Rh215  1  0.39719598  0.00325066  0.80754819  1
  Rh  Rh216  1  0.80074310  0.80464407  0.40131017  1
  Rh  Rh217  1  0.20098163  0.19816411  0.79353864  1
  Rh  Rh218  1  0.80822023  0.79784229  0.20223512  1
  Rh  Rh219  1  0.60656896  -0.00592248  0.00368356  1
  Rh  Rh220  1  0.40402439  0.59159865  0.79948526  1
  Rh  Rh221  1  0.80555808  0.00550009  0.38777700  1
  Rh  Rh222  1  -0.00173850  0.20496935  0.19650045  1
  Rh  Rh223  1  0.40659803  0.59160743  0.40314506  1
  Rh  Rh224  1  0.80539845  0.39770817  0.79206612  1
  Rh  Rh225  1  0.80258381  0.40467176  0.60412439  1
  Rh  Rh226  1  0.00522322  0.60127065  0.80994429  1
  Rh  Rh227  1  0.80438347  0.39859462  0.20341915  1
  Rh  Rh228  1  0.60678044  0.20052576  0.39907934  1
  Rh  Rh229  1  0.79434790  0.40691672  0.00621476  1
  Rh  Rh230  1  0.00070136  0.81187770  0.59821912  1
  Rh  Rh231  1  0.60754922  0.39183805  0.59945712  1
  Rh  Rh232  1  -0.00161417  0.60322387  0.19787814  1
  Rh  Rh233  1  0.59945089  0.39498190  0.19409122  1
  Rh  Rh234  1  0.79298181  0.80561627  -0.00344911  1
  Rh  Rh235  1  -0.00289492  0.79554870  0.20231267  1
  Rh  Rh236  1  0.60458736  0.79133418  0.80745965  1
  Rh  Rh237  1  0.39480742  0.20593806  0.79152278  1
  Rh  Rh238  1  -0.00475936  0.58768801  0.59012978  1
  Rh  Rh239  1  0.41118978  0.79657240  -0.00410035  1
  Rh  Rh240  1  0.00580272  0.79817242  -0.00068846  1
  Rh  Rh241  1  0.79927549  0.19802698  0.59871306  1
  Rh  Rh242  1  0.59919856  0.60448249  0.60341576  1
  Rh  Rh243  1  -0.00502460  0.80230971  0.39801845  1
  Rh  Rh244  1  0.60373967  0.00982754  0.79611926  1
  Rh  Rh245  1  0.79642927  0.19442895  0.39747834  1
  Rh  Rh246  1  0.00583467  0.00488541  0.59334199  1
  Rh  Rh247  1  0.19653121  0.39785778  0.38629143  1
  Rh  Rh248  1  0.20547184  0.00239260  0.81076970  1
  Rh  Rh249  1  0.20206967  0.00126126  0.39966692  1
