# generated using pymatgen
data_ZrScNbPdRh
_symmetry_space_group_name_H-M   'P 1'
_cell_length_a   16.55306313
_cell_length_b   16.55338359
_cell_length_c   16.55391093
_cell_angle_alpha   90.00387786
_cell_angle_beta   89.97280386
_cell_angle_gamma   90.02061009
_symmetry_Int_Tables_number   1
_chemical_formula_structural   ZrScNbPdRh
_chemical_formula_sum   'Zr50 Sc50 Nb50 Pd50 Rh50'
_cell_volume   4535.92313515
_cell_formula_units_Z   50
loop_
 _symmetry_equiv_pos_site_id
 _symmetry_equiv_pos_as_xyz
  1  'x, y, z'
loop_
 _atom_site_type_symbol
 _atom_site_label
 _atom_site_symmetry_multiplicity
 _atom_site_fract_x
 _atom_site_fract_y
 _atom_site_fract_z
 _atom_site_occupancy
  Zr  Zr0  1  0.30731892  0.09405133  0.89790252  1
  Zr  Zr1  1  0.50368486  0.49831956  0.30432555  1
  Zr  Zr2  1  0.30253173  0.69972902  0.69074382  1
  Zr  Zr3  1  0.89927062  0.31155040  0.90116479  1
  Zr  Zr4  1  0.70008960  0.69916338  0.09171745  1
  Zr  Zr5  1  0.90209220  0.49817485  0.71254525  1
  Zr  Zr6  1  0.69877469  0.70259131  0.49695052  1
  Zr  Zr7  1  0.10114908  0.89796506  0.50541448  1
  Zr  Zr8  1  0.30040450  0.90203496  0.70664141  1
  Zr  Zr9  1  0.29790470  0.89528342  0.30002338  1
  Zr  Zr10  1  0.48234355  0.49806681  0.90141644  1
  Zr  Zr11  1  0.70338351  0.70586416  0.90144400  1
  Zr  Zr12  1  0.90229964  0.89584370  0.09659042  1
  Zr  Zr13  1  0.30078986  0.50808283  0.30270384  1
  Zr  Zr14  1  0.50188923  0.10220653  0.10056294  1
  Zr  Zr15  1  0.50202435  0.30219554  0.50655485  1
  Zr  Zr16  1  0.28837612  0.10092469  0.70202251  1
  Zr  Zr17  1  0.89504232  0.89565506  0.50137936  1
  Zr  Zr18  1  0.90473764  0.50029134  0.51437721  1
  Zr  Zr19  1  0.29248288  0.11095401  0.10814402  1
  Zr  Zr20  1  0.70165090  0.89875882  0.30161623  1
  Zr  Zr21  1  0.50047897  0.50243861  0.69522932  1
  Zr  Zr22  1  0.50183736  0.89990418  0.30060942  1
  Zr  Zr23  1  0.50497564  0.50467042  0.09640406  1
  Zr  Zr24  1  0.29920069  0.29910678  0.29809480  1
  Zr  Zr25  1  0.29775629  0.90023124  0.89523107  1
  Zr  Zr26  1  0.28964723  0.69210700  0.90302828  1
  Zr  Zr27  1  0.30296511  0.50073592  0.08255949  1
  Zr  Zr28  1  0.69727782  0.90405219  0.88851753  1
  Zr  Zr29  1  0.10005143  0.10131736  0.50377786  1
  Zr  Zr30  1  0.29548243  0.30421833  0.50869942  1
  Zr  Zr31  1  0.10353984  0.90081819  0.30072674  1
  Zr  Zr32  1  0.69713525  0.49627745  0.30292793  1
  Zr  Zr33  1  0.50338239  0.09303784  0.30522384  1
  Zr  Zr34  1  0.09532530  0.30071188  0.30466486  1
  Zr  Zr35  1  0.29332745  0.30152019  0.70513121  1
  Zr  Zr36  1  0.49577561  0.70050804  0.68747822  1
  Zr  Zr37  1  0.70296159  0.09267632  0.70159788  1
  Zr  Zr38  1  0.10682437  0.29114271  0.09088819  1
  Zr  Zr39  1  0.30071945  0.70293705  0.10367778  1
  Zr  Zr40  1  0.90120728  0.69208517  0.70137660  1
  Zr  Zr41  1  0.69781259  0.09671501  0.09387898  1
  Zr  Zr42  1  0.90445308  0.10598671  0.30512899  1
  Zr  Zr43  1  0.50511981  0.69716767  0.90628664  1
  Zr  Zr44  1  0.50199194  0.09969183  0.50058969  1
  Zr  Zr45  1  0.89984278  0.70156584  0.09915447  1
  Zr  Zr46  1  0.11013532  0.69983461  0.50349866  1
  Zr  Zr47  1  0.70839563  0.49835461  0.90234357  1
  Zr  Zr48  1  0.69202258  0.70148790  0.69507748  1
  Zr  Zr49  1  0.89885470  0.29990442  0.29730741  1
  Sc  Sc50  1  0.70389371  0.70253480  0.29604708  1
  Sc  Sc51  1  0.09975656  0.50613501  0.89461180  1
  Sc  Sc52  1  0.69381999  0.29984803  0.69390183  1
  Sc  Sc53  1  0.09182373  0.90101276  0.10066454  1
  Sc  Sc54  1  0.69626151  0.29987482  0.49950962  1
  Sc  Sc55  1  0.50849388  0.09882284  0.90183320  1
  Sc  Sc56  1  0.50101826  0.50332674  0.49567671  1
  Sc  Sc57  1  0.09498982  0.11081087  0.89745429  1
  Sc  Sc58  1  0.90224264  0.31189921  0.10118897  1
  Sc  Sc59  1  0.70748230  0.49406371  0.69594311  1
  Sc  Sc60  1  0.90017543  0.70287552  0.50942906  1
  Sc  Sc61  1  0.89327725  0.91462645  0.70007341  1
  Sc  Sc62  1  0.29778289  0.49971216  0.49846202  1
  Sc  Sc63  1  0.10446504  0.69590068  0.70124668  1
  Sc  Sc64  1  0.49677509  0.69128363  0.29591667  1
  Sc  Sc65  1  0.70435668  0.50243400  0.10363011  1
  Sc  Sc66  1  0.69827795  0.09915180  0.29134678  1
  Sc  Sc67  1  0.49644647  0.10692983  0.69556819  1
  Sc  Sc68  1  0.29738923  0.90036634  0.50450818  1
  Sc  Sc69  1  0.10607901  0.09543259  0.29558815  1
  Sc  Sc70  1  0.68886745  0.49896484  0.50159697  1
  Sc  Sc71  1  0.50539295  0.89827166  0.10398033  1
  Sc  Sc72  1  0.09752487  0.69858798  0.90036041  1
  Sc  Sc73  1  0.29974579  0.50133422  0.70755783  1
  Sc  Sc74  1  0.89882581  0.50410577  0.08892248  1
  Sc  Sc75  1  0.69666327  0.90297971  0.50825340  1
  Sc  Sc76  1  0.69492528  0.10028232  0.50999187  1
  Sc  Sc77  1  0.70268658  0.89592681  0.10951962  1
  Sc  Sc78  1  0.89820835  0.31032921  0.70308923  1
  Sc  Sc79  1  0.08934037  0.50699947  0.10153763  1
  Sc  Sc80  1  0.89597981  0.89665456  0.28674029  1
  Sc  Sc81  1  0.90464476  0.09839103  0.89398603  1
  Sc  Sc82  1  0.49167987  0.29782481  0.69826054  1
  Sc  Sc83  1  0.29557643  0.09597141  0.30005443  1
  Sc  Sc84  1  0.89772665  0.69752007  0.90441852  1
  Sc  Sc85  1  0.09720325  0.49467138  0.70124696  1
  Sc  Sc86  1  0.69332968  0.90152369  0.69831748  1
  Sc  Sc87  1  0.90410086  0.08854526  0.10171032  1
  Sc  Sc88  1  0.10016314  0.70174569  0.08739020  1
  Sc  Sc89  1  0.11557754  0.69670133  0.29421236  1
  Sc  Sc90  1  0.49755441  0.91172037  0.50266700  1
  Sc  Sc91  1  0.29902831  0.89856107  0.10069265  1
  Sc  Sc92  1  0.70409146  0.29795927  0.29431424  1
  Sc  Sc93  1  0.90796287  0.49587061  0.27508693  1
  Sc  Sc94  1  0.90252802  0.28716416  0.49454526  1
  Sc  Sc95  1  0.30343168  0.09292411  0.50945817  1
  Sc  Sc96  1  0.10103194  0.89693548  0.90505965  1
  Sc  Sc97  1  0.50526840  0.70169343  0.10270477  1
  Sc  Sc98  1  0.51147866  0.29784102  0.29853552  1
  Sc  Sc99  1  0.70144588  0.28945058  0.09988465  1
  Nb  Nb100  1  0.29758403  0.49629538  0.89650619  1
  Nb  Nb101  1  0.09769294  0.10074302  0.70362731  1
  Nb  Nb102  1  0.10207632  0.09838659  0.10063956  1
  Nb  Nb103  1  0.10390801  0.30381827  0.50447820  1
  Nb  Nb104  1  0.89583964  0.89536618  0.90042217  1
  Nb  Nb105  1  0.70096535  0.10468671  0.90149382  1
  Nb  Nb106  1  0.30520772  0.70436915  0.30083028  1
  Nb  Nb107  1  0.89976547  0.70257326  0.30729836  1
  Nb  Nb108  1  0.89934320  0.09872722  0.50319611  1
  Nb  Nb109  1  0.29829282  0.30212284  0.10046786  1
  Nb  Nb110  1  0.30091554  0.32009454  0.90523115  1
  Nb  Nb111  1  0.10340334  0.30500091  0.89193545  1
  Nb  Nb112  1  0.10343347  0.49722815  0.30124915  1
  Nb  Nb113  1  0.69705640  0.29128286  0.90220669  1
  Nb  Nb114  1  0.49851295  0.89122466  0.70270413  1
  Nb  Nb115  1  0.10176202  0.90922482  0.70439801  1
  Nb  Nb116  1  0.49238680  0.89871220  0.89680473  1
  Nb  Nb117  1  0.30654953  0.70006939  0.49911779  1
  Nb  Nb118  1  0.49883246  0.29911697  0.89954353  1
  Nb  Nb119  1  0.90177863  0.49915963  0.89209237  1
  Nb  Nb120  1  0.10419739  0.49236016  0.49530102  1
  Nb  Nb121  1  0.49744436  0.29923132  0.09858599  1
  Nb  Nb122  1  0.90032120  0.10341745  0.69865435  1
  Nb  Nb123  1  0.10586460  0.29357921  0.70012684  1
  Nb  Nb124  1  0.49920739  0.69710472  0.50164039  1
  Nb  Nb125  1  0.79758737  -0.00340350  -0.00931707  1
  Nb  Nb126  1  0.00211517  0.59694326  0.39837741  1
  Nb  Nb127  1  0.39798012  0.39804021  0.19395733  1
  Nb  Nb128  1  0.59668159  0.39190339  -0.00516490  1
  Nb  Nb129  1  0.39679200  0.21199983  -0.00059888  1
  Nb  Nb130  1  0.79571532  0.19924704  0.80331094  1
  Nb  Nb131  1  0.40102281  0.80335618  -0.00611307  1
  Nb  Nb132  1  0.40001361  0.00052905  0.20124188  1
  Nb  Nb133  1  0.20186361  0.20440550  0.40624598  1
  Nb  Nb134  1  0.00506886  0.19833868  0.19622512  1
  Nb  Nb135  1  0.20268322  0.40208720  0.19702665  1
  Nb  Nb136  1  0.59692779  0.39911053  0.80781457  1
  Nb  Nb137  1  0.40024357  0.79384353  0.40278928  1
  Nb  Nb138  1  0.80549972  0.00375809  0.40352363  1
  Nb  Nb139  1  0.00413541  0.19698285  0.60766444  1
  Nb  Nb140  1  0.80914764  0.40757270  0.39852102  1
  Nb  Nb141  1  0.00159902  0.79628029  0.39856257  1
  Nb  Nb142  1  0.81144676  0.59468332  0.39815510  1
  Nb  Nb143  1  -0.00325622  0.80627768  0.79653474  1
  Nb  Nb144  1  -0.00448573  -0.00417256  0.40317313  1
  Nb  Nb145  1  0.39743549  0.20048669  0.40313954  1
  Nb  Nb146  1  0.59278282  0.79756246  0.40364338  1
  Nb  Nb147  1  0.59973480  0.59573664  0.80119221  1
  Nb  Nb148  1  0.00088678  0.40714840  0.40313276  1
  Nb  Nb149  1  0.19814408  0.00809055  0.00279095  1
  Pd  Pd150  1  0.20556222  0.20251842  0.81173728  1
  Pd  Pd151  1  0.80088960  0.60218504  0.20341573  1
  Pd  Pd152  1  0.20324873  0.80528600  0.60598748  1
  Pd  Pd153  1  0.79178100  0.59732789  0.59467262  1
  Pd  Pd154  1  0.59502535  0.79455102  0.79847168  1
  Pd  Pd155  1  0.59013609  0.00361884  0.79493447  1
  Pd  Pd156  1  0.40039936  0.60710656  0.79838112  1
  Pd  Pd157  1  0.60491338  -0.00948270  -0.00042836  1
  Pd  Pd158  1  -0.00933475  0.19989099  0.00545020  1
  Pd  Pd159  1  0.39532401  0.40649912  0.60391460  1
  Pd  Pd160  1  0.00177637  0.00066367  -0.00822206  1
  Pd  Pd161  1  0.00275975  -0.00509261  0.80668811  1
  Pd  Pd162  1  0.80400929  0.20551930  0.60653107  1
  Pd  Pd163  1  0.39953822  0.59437517  0.19505643  1
  Pd  Pd164  1  0.39567279  -0.00087980  0.01018306  1
  Pd  Pd165  1  0.00140468  0.38991031  0.60003733  1
  Pd  Pd166  1  0.19994737  0.00608447  0.40552434  1
  Pd  Pd167  1  0.81349660  0.19259375  -0.00132845  1
  Pd  Pd168  1  0.60235866  0.20271296  0.79304758  1
  Pd  Pd169  1  0.19309255  0.80185998  0.19154446  1
  Pd  Pd170  1  0.00706910  0.79051904  0.20594912  1
  Pd  Pd171  1  0.60241326  0.20030292  0.40009712  1
  Pd  Pd172  1  0.18609985  0.40880523  0.00155808  1
  Pd  Pd173  1  0.79294639  0.60284058  0.79957351  1
  Pd  Pd174  1  -0.00903912  0.21001119  0.79456159  1
  Pd  Pd175  1  0.41115018  0.00527797  0.79147871  1
  Pd  Pd176  1  0.80034372  0.39187776  0.59115570  1
  Pd  Pd177  1  0.00092942  0.80109733  0.60805652  1
  Pd  Pd178  1  0.39564015  0.20359112  0.80649750  1
  Pd  Pd179  1  0.60066089  0.39503517  0.19126591  1
  Pd  Pd180  1  0.80912131  0.19524842  0.18958786  1
  Pd  Pd181  1  0.40125276  -0.00163737  0.60953633  1
  Pd  Pd182  1  0.78755561  0.19699824  0.40239223  1
  Pd  Pd183  1  0.00440677  0.61051232  0.20339834  1
  Pd  Pd184  1  0.79782027  0.80329276  0.60945632  1
  Pd  Pd185  1  0.80619103  0.80080500  0.79024556  1
  Pd  Pd186  1  0.40658119  0.19993794  0.20469307  1
  Pd  Pd187  1  0.20167214  0.59519010  0.19088862  1
  Pd  Pd188  1  0.59803908  0.81149953  -0.00082546  1
  Pd  Pd189  1  0.60480074  0.60532659  0.20400169  1
  Pd  Pd190  1  0.20206630  0.58909626  0.60264164  1
  Pd  Pd191  1  0.19030558  0.79714999  0.79821611  1
  Pd  Pd192  1  0.79191684  0.39831251  0.00660372  1
  Pd  Pd193  1  0.39912324  0.78852237  0.80534378  1
  Pd  Pd194  1  0.00850076  0.40595810  -0.00399061  1
  Pd  Pd195  1  0.01202515  0.59922238  0.59976153  1
  Pd  Pd196  1  0.20041260  0.60402219  0.40228155  1
  Pd  Pd197  1  0.40481807  0.39441192  0.39502991  1
  Pd  Pd198  1  0.20810851  0.19744093  -0.01446060  1
  Pd  Pd199  1  -0.00180880  0.00365197  0.59944703  1
  Rh  Rh200  1  0.19720719  0.39616879  0.39468606  1
  Rh  Rh201  1  0.39074852  -0.00198550  0.39343760  1
  Rh  Rh202  1  0.00806063  0.39654314  0.80149279  1
  Rh  Rh203  1  0.19547575  0.19743935  0.59829276  1
  Rh  Rh204  1  0.59168349  0.20280981  0.00193623  1
  Rh  Rh205  1  0.60542296  0.58942802  -0.00666661  1
  Rh  Rh206  1  0.00071342  0.00632370  0.20849669  1
  Rh  Rh207  1  0.18921060  0.00493243  0.80947183  1
  Rh  Rh208  1  0.59559214  0.39957992  0.60534668  1
  Rh  Rh209  1  0.78970756  0.38935757  0.80235859  1
  Rh  Rh210  1  0.01094657  0.19691931  0.40446813  1
  Rh  Rh211  1  0.80401301  0.59935959  -0.00266261  1
  Rh  Rh212  1  -0.00254996  0.79745991  -0.00934333  1
  Rh  Rh213  1  0.19867973  -0.00270583  0.60677255  1
  Rh  Rh214  1  0.60519748  0.60857952  0.39752820  1
  Rh  Rh215  1  0.39513593  0.19920794  0.59483461  1
  Rh  Rh216  1  0.59991467  0.79380837  0.20835604  1
  Rh  Rh217  1  0.80054752  0.79304503  0.19574195  1
  Rh  Rh218  1  0.60032845  0.19856213  0.19794896  1
  Rh  Rh219  1  0.01268357  0.39198968  0.19607826  1
  Rh  Rh220  1  0.59094726  -0.00206642  0.61025759  1
  Rh  Rh221  1  0.40320771  0.80482485  0.20025793  1
  Rh  Rh222  1  0.19573174  0.40227978  0.79855568  1
  Rh  Rh223  1  0.19520233  0.59519820  -0.00048759  1
  Rh  Rh224  1  0.79863295  0.00256039  0.59634137  1
  Rh  Rh225  1  0.18994985  0.20761272  0.20898128  1
  Rh  Rh226  1  0.79436217  0.40127862  0.19913779  1
  Rh  Rh227  1  0.20421059  0.79341269  0.40278120  1
  Rh  Rh228  1  0.20545076  0.80876432  0.00191611  1
  Rh  Rh229  1  0.40595238  0.39471503  0.00548439  1
  Rh  Rh230  1  0.19967265  0.59857016  0.79770230  1
  Rh  Rh231  1  0.40203288  0.80711425  0.59258041  1
  Rh  Rh232  1  0.20331279  -0.00747196  0.19059013  1
  Rh  Rh233  1  0.80081659  0.00180427  0.19956995  1
  Rh  Rh234  1  0.59806463  0.19960563  0.60271220  1
  Rh  Rh235  1  -0.00527531  0.59910851  -0.00806923  1
  Rh  Rh236  1  0.19984165  0.40547605  0.60909918  1
  Rh  Rh237  1  0.39490030  0.59312727  0.59288639  1
  Rh  Rh238  1  0.60236157  0.59638404  0.60270346  1
  Rh  Rh239  1  0.60654129  0.39491367  0.40062937  1
  Rh  Rh240  1  0.40159689  0.39603067  0.79426474  1
  Rh  Rh241  1  0.59710597  0.00099018  0.19727455  1
  Rh  Rh242  1  0.39734794  0.61362332  0.00236458  1
  Rh  Rh243  1  0.79694923  0.80777462  0.00275245  1
  Rh  Rh244  1  0.61533225  -0.00519293  0.40344120  1
  Rh  Rh245  1  0.80137694  0.00822295  0.80498705  1
  Rh  Rh246  1  0.00060137  0.60668136  0.80229215  1
  Rh  Rh247  1  0.40002473  0.60442576  0.40396733  1
  Rh  Rh248  1  0.79816192  0.80087340  0.40026639  1
  Rh  Rh249  1  0.59010269  0.80685795  0.59171554  1
