# generated using pymatgen
data_ZrScNbPdRh
_symmetry_space_group_name_H-M   'P 1'
_cell_length_a   16.55835877
_cell_length_b   16.55696446
_cell_length_c   16.55580132
_cell_angle_alpha   90.01156225
_cell_angle_beta   90.01273262
_cell_angle_gamma   90.00425172
_symmetry_Int_Tables_number   1
_chemical_formula_structural   ZrScNbPdRh
_chemical_formula_sum   'Zr50 Sc50 Nb50 Pd50 Rh50'
_cell_volume   4538.87466149
_cell_formula_units_Z   50
loop_
 _symmetry_equiv_pos_site_id
 _symmetry_equiv_pos_as_xyz
  1  'x, y, z'
loop_
 _atom_site_type_symbol
 _atom_site_label
 _atom_site_symmetry_multiplicity
 _atom_site_fract_x
 _atom_site_fract_y
 _atom_site_fract_z
 _atom_site_occupancy
  Zr  Zr0  1  0.49564204  0.09103687  0.70743673  1
  Zr  Zr1  1  0.30612968  0.69784433  0.30457028  1
  Zr  Zr2  1  0.10918041  0.70336520  0.90439340  1
  Zr  Zr3  1  0.89779109  0.10475822  0.09808218  1
  Zr  Zr4  1  0.90020322  0.49569554  0.89444776  1
  Zr  Zr5  1  0.89641544  0.89582096  0.09737390  1
  Zr  Zr6  1  0.09781409  0.09908750  0.50220947  1
  Zr  Zr7  1  0.70148183  0.09630773  0.50096123  1
  Zr  Zr8  1  0.10253760  0.29461252  0.70117281  1
  Zr  Zr9  1  0.89763385  0.29711962  0.90002261  1
  Zr  Zr10  1  0.89709005  0.88795983  0.29895874  1
  Zr  Zr11  1  0.70139875  0.29311368  0.89810351  1
  Zr  Zr12  1  0.30075796  0.70294749  0.49925154  1
  Zr  Zr13  1  0.10451725  0.89283028  0.09914545  1
  Zr  Zr14  1  0.10024549  0.70815358  0.50298823  1
  Zr  Zr15  1  0.90331383  0.10194467  0.49908342  1
  Zr  Zr16  1  0.88901603  0.90084488  0.89808107  1
  Zr  Zr17  1  0.30269942  0.30493486  0.29430974  1
  Zr  Zr18  1  0.50051147  0.08949313  0.29280532  1
  Zr  Zr19  1  0.69127399  0.70419649  0.89861091  1
  Zr  Zr20  1  0.09179303  0.48863119  0.49847656  1
  Zr  Zr21  1  0.70546108  0.90362570  0.70553437  1
  Zr  Zr22  1  0.10070202  0.10265497  0.10045370  1
  Zr  Zr23  1  0.11074972  0.09323464  0.89547235  1
  Zr  Zr24  1  0.49561105  0.30520025  0.30444714  1
  Zr  Zr25  1  0.90122398  0.70205575  0.10969828  1
  Zr  Zr26  1  0.91589514  0.29762643  0.50433853  1
  Zr  Zr27  1  0.30728632  0.10819629  0.29242123  1
  Zr  Zr28  1  0.69508800  0.09523236  0.90219454  1
  Zr  Zr29  1  0.70660484  0.89964344  0.50215697  1
  Zr  Zr30  1  0.10964817  0.49994278  0.29649512  1
  Zr  Zr31  1  0.69697157  0.10358896  0.29725074  1
  Zr  Zr32  1  0.70255670  0.70684644  0.30730038  1
  Zr  Zr33  1  0.50106409  0.29305811  0.69723024  1
  Zr  Zr34  1  0.68615946  0.31000408  0.49992137  1
  Zr  Zr35  1  0.69974957  0.51090877  0.89820783  1
  Zr  Zr36  1  0.29347908  0.70467521  0.09944700  1
  Zr  Zr37  1  0.50299879  0.90663278  0.10144868  1
  Zr  Zr38  1  0.29562274  0.89431608  0.50702946  1
  Zr  Zr39  1  0.09771191  0.89287362  0.30465124  1
  Zr  Zr40  1  0.89860945  0.29633997  0.70320274  1
  Zr  Zr41  1  0.49767088  0.10341356  0.50205222  1
  Zr  Zr42  1  0.30401545  0.29559049  0.10215939  1
  Zr  Zr43  1  0.89936427  0.70444424  0.69211887  1
  Zr  Zr44  1  0.09493990  0.29739680  0.89980005  1
  Zr  Zr45  1  0.30571241  0.89551038  0.29697734  1
  Zr  Zr46  1  0.30679524  0.50349864  0.29865214  1
  Zr  Zr47  1  0.89494431  0.49836313  0.69735179  1
  Zr  Zr48  1  0.29697730  0.49721906  0.49912163  1
  Zr  Zr49  1  0.30189278  0.70073146  0.89777907  1
  Sc  Sc50  1  0.50036155  0.50699205  0.70480034  1
  Sc  Sc51  1  0.89833912  0.69904584  0.89676650  1
  Sc  Sc52  1  0.10378351  0.89698571  0.89373086  1
  Sc  Sc53  1  0.68837274  0.89798978  0.30108670  1
  Sc  Sc54  1  0.31129217  0.09052144  0.50638895  1
  Sc  Sc55  1  0.50551833  0.70060202  0.89551467  1
  Sc  Sc56  1  0.70303612  0.09879228  0.69897209  1
  Sc  Sc57  1  0.50515923  0.48686821  0.49899587  1
  Sc  Sc58  1  0.30680944  0.29524804  0.89526450  1
  Sc  Sc59  1  0.70416193  0.49590382  0.30239248  1
  Sc  Sc60  1  0.09563755  0.70849930  0.70414826  1
  Sc  Sc61  1  0.10119288  0.70093477  0.29963611  1
  Sc  Sc62  1  0.69752074  0.69229753  0.70116627  1
  Sc  Sc63  1  0.10305478  0.08570529  0.69811489  1
  Sc  Sc64  1  0.50070386  0.71145912  0.09916085  1
  Sc  Sc65  1  0.69970181  0.70110986  0.09044081  1
  Sc  Sc66  1  0.69686098  0.51111631  0.09091953  1
  Sc  Sc67  1  0.50456027  0.90556541  0.89746225  1
  Sc  Sc68  1  0.89820844  0.69726687  0.49817964  1
  Sc  Sc69  1  0.30308029  0.30583242  0.70454133  1
  Sc  Sc70  1  0.30464963  0.71397429  0.70003016  1
  Sc  Sc71  1  0.70700327  0.29709190  0.69937877  1
  Sc  Sc72  1  0.89146057  0.50649397  0.10357482  1
  Sc  Sc73  1  0.68859624  0.10578966  0.09591080  1
  Sc  Sc74  1  0.90128893  0.51330927  0.30362977  1
  Sc  Sc75  1  0.70632116  0.69901700  0.50719150  1
  Sc  Sc76  1  0.90267784  0.89169634  0.50256098  1
  Sc  Sc77  1  0.49862922  0.70100333  0.70856007  1
  Sc  Sc78  1  0.89079979  0.10391483  0.90347481  1
  Sc  Sc79  1  0.09994958  0.89751191  0.50294592  1
  Sc  Sc80  1  0.09569654  0.49516460  0.89668721  1
  Sc  Sc81  1  0.89664661  0.29482771  0.09715718  1
  Sc  Sc82  1  0.49533468  0.70114954  0.50024447  1
  Sc  Sc83  1  0.50042640  0.50295287  0.90215434  1
  Sc  Sc84  1  0.49550671  0.29928728  0.08868118  1
  Sc  Sc85  1  0.30660707  0.49349735  0.89788210  1
  Sc  Sc86  1  0.09261118  0.29533665  0.10307688  1
  Sc  Sc87  1  0.70149775  0.30061061  0.29603186  1
  Sc  Sc88  1  0.30721907  0.09343943  0.89679403  1
  Sc  Sc89  1  0.10702331  0.70022139  0.10417340  1
  Sc  Sc90  1  0.09549511  0.10671857  0.30077917  1
  Sc  Sc91  1  0.29757936  0.49766513  0.11197532  1
  Sc  Sc92  1  0.30717519  0.89996964  0.09654792  1
  Sc  Sc93  1  0.09396130  0.49058655  0.70119274  1
  Sc  Sc94  1  0.29945160  0.90276386  0.90391301  1
  Sc  Sc95  1  0.49604562  0.10160507  0.09809985  1
  Sc  Sc96  1  0.10462034  0.30232907  0.30055935  1
  Sc  Sc97  1  0.49452038  0.90860306  0.50053998  1
  Sc  Sc98  1  0.30404714  0.90147850  0.69687782  1
  Sc  Sc99  1  0.49588160  0.29689571  0.90279723  1
  Nb  Nb100  1  0.10591985  0.29765203  0.50564046  1
  Nb  Nb101  1  0.09922807  0.89640957  0.69712705  1
  Nb  Nb102  1  0.49604480  0.50171245  0.09895327  1
  Nb  Nb103  1  0.89866853  0.49887838  0.50227577  1
  Nb  Nb104  1  0.50052464  0.89300417  0.29009989  1
  Nb  Nb105  1  0.89217030  0.30100643  0.29929202  1
  Nb  Nb106  1  0.10170589  0.49986522  0.10244697  1
  Nb  Nb107  1  0.89725292  0.70471827  0.29947814  1
  Nb  Nb108  1  0.69839178  0.90803884  0.08562556  1
  Nb  Nb109  1  0.89349873  0.10335311  0.30010534  1
  Nb  Nb110  1  0.69472084  0.30720698  0.09584359  1
  Nb  Nb111  1  0.49443980  0.29509208  0.49892872  1
  Nb  Nb112  1  0.70134350  0.50048819  0.50568715  1
  Nb  Nb113  1  0.30126153  0.50542121  0.70180593  1
  Nb  Nb114  1  0.29635660  0.10150676  0.70505349  1
  Nb  Nb115  1  0.90121928  0.09915271  0.69324018  1
  Nb  Nb116  1  0.90181298  0.90342373  0.69888468  1
  Nb  Nb117  1  0.30017850  0.09834292  0.09793181  1
  Nb  Nb118  1  0.70037014  0.49839214  0.69469547  1
  Nb  Nb119  1  0.49754580  0.50390280  0.29662961  1
  Nb  Nb120  1  0.50166330  0.70045020  0.30241645  1
  Nb  Nb121  1  0.30895371  0.29685516  0.49979599  1
  Nb  Nb122  1  0.69821702  0.90301739  0.90611203  1
  Nb  Nb123  1  0.49769508  0.10159620  0.90068416  1
  Nb  Nb124  1  0.50272729  0.89730527  0.70135653  1
  Nb  Nb125  1  0.60625025  0.40170343  0.79838438  1
  Nb  Nb126  1  -0.00076189  0.19138861  0.79596755  1
  Nb  Nb127  1  0.59283389  0.20190516  0.40244865  1
  Nb  Nb128  1  0.19863927  0.00146394  0.20265008  1
  Nb  Nb129  1  0.20432036  0.59898101  0.79377773  1
  Nb  Nb130  1  0.19734586  0.39446329  0.00355347  1
  Nb  Nb131  1  0.20820387  0.20090959  0.40959158  1
  Nb  Nb132  1  0.80665714  0.40127992  0.40796505  1
  Nb  Nb133  1  0.59772314  0.59694998  0.39721905  1
  Nb  Nb134  1  0.79446619  0.39936534  -0.00301975  1
  Nb  Nb135  1  -0.00505057  -0.00083045  0.20015839  1
  Nb  Nb136  1  0.79903320  0.00100633  0.20050582  1
  Nb  Nb137  1  0.00371978  0.59884162  0.00340784  1
  Nb  Nb138  1  0.39799116  0.60116290  0.00385080  1
  Nb  Nb139  1  0.20528260  0.20072121  0.59643413  1
  Nb  Nb140  1  0.59862402  0.80527558  0.60595703  1
  Nb  Nb141  1  0.20255666  0.00375208  0.39648544  1
  Nb  Nb142  1  -0.00074347  -0.00265174  0.00211422  1
  Nb  Nb143  1  0.80520848  0.00252281  0.39257553  1
  Nb  Nb144  1  0.20312751  0.19892736  -0.00045256  1
  Nb  Nb145  1  0.59468541  0.40780453  0.19483967  1
  Nb  Nb146  1  -0.00529366  0.40295057  0.20320711  1
  Nb  Nb147  1  0.20146723  0.59794642  0.60485403  1
  Nb  Nb148  1  0.39306355  0.59782250  0.60033328  1
  Nb  Nb149  1  0.59365910  0.60048075  0.20636912  1
  Pd  Pd150  1  0.19285398  0.60179475  0.40677915  1
  Pd  Pd151  1  0.41167792  0.40049531  0.79848867  1
  Pd  Pd152  1  0.40799249  0.80665543  0.40214066  1
  Pd  Pd153  1  0.59489113  0.79738973  0.41241884  1
  Pd  Pd154  1  0.60073175  0.00055534  0.39872560  1
  Pd  Pd155  1  0.40519590  0.40563307  0.60492825  1
  Pd  Pd156  1  -0.00709885  0.00222210  0.80581020  1
  Pd  Pd157  1  -0.00581673  0.39690366  0.38927962  1
  Pd  Pd158  1  -0.00167032  -0.00289797  0.39468619  1
  Pd  Pd159  1  0.59171202  0.21280035  0.20068504  1
  Pd  Pd160  1  0.59842730  -0.00370827  0.60420995  1
  Pd  Pd161  1  0.60248244  0.40390457  -0.00427722  1
  Pd  Pd162  1  0.79327993  0.19957372  0.19119434  1
  Pd  Pd163  1  0.40572528  0.79838876  -0.00570962  1
  Pd  Pd164  1  0.59137709  0.60582463  0.59474219  1
  Pd  Pd165  1  0.20188172  0.58479150  -0.00638658  1
  Pd  Pd166  1  0.20457057  0.39247257  0.40073276  1
  Pd  Pd167  1  0.00598701  0.20718851  0.39286026  1
  Pd  Pd168  1  0.00055106  0.79747500  -0.00356011  1
  Pd  Pd169  1  0.79564544  0.79501225  0.79601703  1
  Pd  Pd170  1  0.79700212  0.20442571  0.59320094  1
  Pd  Pd171  1  0.78747464  0.60220047  0.20321707  1
  Pd  Pd172  1  0.00407880  0.59824635  0.19808319  1
  Pd  Pd173  1  0.80190031  0.00662419  0.79933847  1
  Pd  Pd174  1  0.00909745  0.60364148  0.80333201  1
  Pd  Pd175  1  0.79984527  0.60473045  0.79643592  1
  Pd  Pd176  1  0.40229555  0.80842229  0.80637526  1
  Pd  Pd177  1  0.59285758  0.40192594  0.61106276  1
  Pd  Pd178  1  0.00639695  0.59899040  0.60037976  1
  Pd  Pd179  1  0.20367887  0.39797405  0.60336388  1
  Pd  Pd180  1  0.59890647  0.20192040  0.79999084  1
  Pd  Pd181  1  -0.00385760  0.20525792  0.20896643  1
  Pd  Pd182  1  -0.00152352  -0.00806815  0.59764628  1
  Pd  Pd183  1  0.00334635  0.60498037  0.40018623  1
  Pd  Pd184  1  0.79870033  0.40376344  0.19675183  1
  Pd  Pd185  1  0.39706533  -0.00427365  0.39604963  1
  Pd  Pd186  1  0.20133595  0.40341743  0.80665232  1
  Pd  Pd187  1  0.40369976  0.61072773  0.19149117  1
  Pd  Pd188  1  0.60679486  0.79746941  0.19266252  1
  Pd  Pd189  1  0.39898353  0.40517657  0.40225392  1
  Pd  Pd190  1  0.20770693  -0.01113183  0.79395207  1
  Pd  Pd191  1  0.79249757  0.20644751  0.40739404  1
  Pd  Pd192  1  0.39263379  0.19710517  0.60882557  1
  Pd  Pd193  1  0.80282547  0.39391716  0.59487561  1
  Pd  Pd194  1  -0.00565934  0.40860104  0.01306613  1
  Pd  Pd195  1  0.60243418  0.19650195  0.59865337  1
  Pd  Pd196  1  -0.00162539  0.80346163  0.80235107  1
  Pd  Pd197  1  0.79410975  0.59638912  0.40361686  1
  Pd  Pd198  1  0.79916026  0.79110963  -0.00269543  1
  Pd  Pd199  1  0.78400145  0.80670581  0.19460651  1
  Rh  Rh200  1  0.79553409  0.80002048  0.60631749  1
  Rh  Rh201  1  0.81052809  -0.00191410  0.59499277  1
  Rh  Rh202  1  0.59868188  0.80551516  -0.00336965  1
  Rh  Rh203  1  0.01034122  0.18522785  -0.01479225  1
  Rh  Rh204  1  0.19950767  0.19687410  0.79806679  1
  Rh  Rh205  1  0.20265446  0.19792282  0.19920976  1
  Rh  Rh206  1  0.01022544  0.19402996  0.61017450  1
  Rh  Rh207  1  0.60059554  -0.00076204  0.80253437  1
  Rh  Rh208  1  0.38944670  0.40965485  0.00607259  1
  Rh  Rh209  1  0.40876279  0.39531641  0.19436768  1
  Rh  Rh210  1  0.39589234  -0.00309490  0.19496590  1
  Rh  Rh211  1  0.20314270  0.00111061  0.59825278  1
  Rh  Rh212  1  0.58520044  0.60794952  0.00675788  1
  Rh  Rh213  1  0.39910557  -0.00320597  0.79983591  1
  Rh  Rh214  1  0.80585503  0.18872308  0.79415137  1
  Rh  Rh215  1  0.40831980  0.20231414  0.19526878  1
  Rh  Rh216  1  0.40071052  0.79712187  0.19961313  1
  Rh  Rh217  1  -0.00240349  0.80430030  0.60227543  1
  Rh  Rh218  1  0.60687410  -0.00553988  0.19463507  1
  Rh  Rh219  1  0.40471075  0.00297873  -0.00174824  1
  Rh  Rh220  1  0.59181678  0.00512526  -0.00310128  1
  Rh  Rh221  1  0.20300496  0.60380674  0.20433780  1
  Rh  Rh222  1  0.20523398  0.80192441  0.20457199  1
  Rh  Rh223  1  0.80258539  0.59830415  0.59966306  1
  Rh  Rh224  1  0.41091847  0.59265624  0.41038484  1
  Rh  Rh225  1  -0.00192753  0.40051605  0.60516581  1
  Rh  Rh226  1  0.20225684  0.80378149  0.39857869  1
  Rh  Rh227  1  0.40202643  0.19768563  0.39769483  1
  Rh  Rh228  1  -0.00184762  0.39026614  0.79307276  1
  Rh  Rh229  1  -0.00421311  0.79004515  0.40186083  1
  Rh  Rh230  1  0.80133719  0.00490118  0.00479313  1
  Rh  Rh231  1  0.79060554  0.40499042  0.80476713  1
  Rh  Rh232  1  0.59520894  0.19857510  -0.00325889  1
  Rh  Rh233  1  0.60652175  0.40180865  0.39062171  1
  Rh  Rh234  1  0.39389731  0.60261656  0.80279194  1
  Rh  Rh235  1  0.80168597  0.80341087  0.40379581  1
  Rh  Rh236  1  0.19044564  0.39423020  0.19240692  1
  Rh  Rh237  1  0.39983847  0.19629945  0.79815351  1
  Rh  Rh238  1  0.00369550  0.79689444  0.20300085  1
  Rh  Rh239  1  0.20406017  0.80748943  -0.00236719  1
  Rh  Rh240  1  0.41313816  0.79716642  0.60295443  1
  Rh  Rh241  1  0.39947028  -0.00157027  0.60831182  1
  Rh  Rh242  1  0.60176655  0.59331035  0.79620988  1
  Rh  Rh243  1  0.19733831  0.00258117  0.00839889  1
  Rh  Rh244  1  0.39408832  0.19096871  -0.00393392  1
  Rh  Rh245  1  0.19535450  0.79760981  0.60769877  1
  Rh  Rh246  1  0.81235436  0.59977861  -0.00538190  1
  Rh  Rh247  1  0.60492771  0.80738076  0.79614560  1
  Rh  Rh248  1  0.78775477  0.20541165  0.00668404  1
  Rh  Rh249  1  0.20245793  0.80025822  0.79675199  1
