# generated using pymatgen
data_ZrScNbPdRh
_symmetry_space_group_name_H-M   'P 1'
_cell_length_a   16.55610872
_cell_length_b   16.55976825
_cell_length_c   16.56085463
_cell_angle_alpha   89.98298314
_cell_angle_beta   90.02242579
_cell_angle_gamma   90.01285020
_symmetry_Int_Tables_number   1
_chemical_formula_structural   ZrScNbPdRh
_chemical_formula_sum   'Zr50 Sc50 Nb50 Pd50 Rh50'
_cell_volume   4540.41140451
_cell_formula_units_Z   50
loop_
 _symmetry_equiv_pos_site_id
 _symmetry_equiv_pos_as_xyz
  1  'x, y, z'
loop_
 _atom_site_type_symbol
 _atom_site_label
 _atom_site_symmetry_multiplicity
 _atom_site_fract_x
 _atom_site_fract_y
 _atom_site_fract_z
 _atom_site_occupancy
  Zr  Zr0  1  0.49870760  0.50108840  0.50313126  1
  Zr  Zr1  1  0.29279403  0.29508170  0.09391700  1
  Zr  Zr2  1  0.49686491  0.90073396  0.50539719  1
  Zr  Zr3  1  0.90286946  0.30211928  0.70824897  1
  Zr  Zr4  1  0.29986701  0.50375108  0.90256748  1
  Zr  Zr5  1  0.49064688  0.09940821  0.09578962  1
  Zr  Zr6  1  0.69730040  0.50392900  0.89788261  1
  Zr  Zr7  1  0.29453502  0.30883641  0.29226872  1
  Zr  Zr8  1  0.30014998  0.49309792  0.69797067  1
  Zr  Zr9  1  0.50343874  0.10341101  0.29936788  1
  Zr  Zr10  1  0.10229316  0.10704179  0.10689416  1
  Zr  Zr11  1  0.70812690  0.90151106  0.08849899  1
  Zr  Zr12  1  0.68863011  0.70748644  0.89654304  1
  Zr  Zr13  1  0.89801301  0.50500626  0.49385538  1
  Zr  Zr14  1  0.10419438  0.69547898  0.29403482  1
  Zr  Zr15  1  0.49634031  0.50688725  0.90494818  1
  Zr  Zr16  1  0.29885279  0.70260899  0.10416170  1
  Zr  Zr17  1  0.10060861  0.49269698  0.29941427  1
  Zr  Zr18  1  0.30319020  0.89898677  0.49473198  1
  Zr  Zr19  1  0.69538566  0.50360034  0.29947736  1
  Zr  Zr20  1  0.30274695  0.90605360  0.10588246  1
  Zr  Zr21  1  0.29893107  0.70101689  0.48672326  1
  Zr  Zr22  1  0.70059482  0.90597479  0.31129795  1
  Zr  Zr23  1  0.69872348  0.09250481  0.89110145  1
  Zr  Zr24  1  0.90472817  0.49739282  0.29634445  1
  Zr  Zr25  1  0.10029732  0.90914994  0.50696611  1
  Zr  Zr26  1  0.50081572  0.49724023  0.11118076  1
  Zr  Zr27  1  0.10512814  0.69711619  0.89570530  1
  Zr  Zr28  1  0.49542846  0.29627764  0.50421740  1
  Zr  Zr29  1  0.90207488  0.89911414  0.69836573  1
  Zr  Zr30  1  0.49694214  0.29422333  0.10269614  1
  Zr  Zr31  1  0.09207995  0.89815612  0.09255683  1
  Zr  Zr32  1  0.90829471  0.70791247  0.09940478  1
  Zr  Zr33  1  0.30543737  0.29582570  0.69399216  1
  Zr  Zr34  1  0.09909272  0.89980676  0.89150524  1
  Zr  Zr35  1  0.90014712  0.70057605  0.51070352  1
  Zr  Zr36  1  0.49980117  0.90758850  0.31282679  1
  Zr  Zr37  1  0.50711329  0.10085906  0.89768300  1
  Zr  Zr38  1  0.09247445  0.10071852  0.89973901  1
  Zr  Zr39  1  0.90157375  0.90968075  0.90337756  1
  Zr  Zr40  1  0.49774362  0.29311646  0.89801421  1
  Zr  Zr41  1  0.50064898  0.69627683  0.89761549  1
  Zr  Zr42  1  0.50140446  0.10125644  0.70546906  1
  Zr  Zr43  1  0.50611475  0.89891468  0.89226538  1
  Zr  Zr44  1  0.70447436  0.69820682  0.50897878  1
  Zr  Zr45  1  0.69778727  0.50010794  0.50770932  1
  Zr  Zr46  1  0.10219873  0.50116466  0.89898743  1
  Zr  Zr47  1  0.09531891  0.70068549  0.50674328  1
  Zr  Zr48  1  0.30376658  0.89286343  0.30369417  1
  Zr  Zr49  1  0.89611670  0.29388791  0.29015543  1
  Sc  Sc50  1  0.69935242  0.69836573  0.31309031  1
  Sc  Sc51  1  0.70924287  0.29603239  0.90208830  1
  Sc  Sc52  1  0.90302302  0.90223325  0.09163256  1
  Sc  Sc53  1  0.90598190  0.71228553  0.88927438  1
  Sc  Sc54  1  0.49393945  0.29489853  0.70203773  1
  Sc  Sc55  1  0.50168494  0.29634041  0.28815164  1
  Sc  Sc56  1  0.29624782  0.10063186  0.50949788  1
  Sc  Sc57  1  0.29828508  0.89602897  0.89516041  1
  Sc  Sc58  1  0.50334538  0.70604539  0.70427110  1
  Sc  Sc59  1  0.90558456  0.10224445  0.09774288  1
  Sc  Sc60  1  0.10102036  0.09237002  0.69687068  1
  Sc  Sc61  1  0.70182769  0.10255269  0.08730082  1
  Sc  Sc62  1  0.09923982  0.49086282  0.49878394  1
  Sc  Sc63  1  0.30090449  0.90690548  0.70549342  1
  Sc  Sc64  1  0.69355163  0.90218363  0.50053531  1
  Sc  Sc65  1  0.10000591  0.50091701  0.10204524  1
  Sc  Sc66  1  0.29154803  0.08457490  0.28772349  1
  Sc  Sc67  1  0.90341381  0.49303771  0.69796588  1
  Sc  Sc68  1  0.70205419  0.90253534  0.70183395  1
  Sc  Sc69  1  0.70403231  0.49477810  0.10158946  1
  Sc  Sc70  1  0.08754834  0.69740531  0.70954564  1
  Sc  Sc71  1  0.49521651  0.69008856  0.29652472  1
  Sc  Sc72  1  0.70275869  0.90166526  0.89933816  1
  Sc  Sc73  1  0.50179661  0.70937137  0.50523817  1
  Sc  Sc74  1  0.29891333  0.49560520  0.09469834  1
  Sc  Sc75  1  0.09992194  0.29882430  0.49740216  1
  Sc  Sc76  1  0.11055010  0.90902434  0.29700202  1
  Sc  Sc77  1  0.89900156  0.10498629  0.50689106  1
  Sc  Sc78  1  0.49250125  0.90134294  0.09693274  1
  Sc  Sc79  1  0.09452310  0.29940028  0.29209550  1
  Sc  Sc80  1  0.50461584  0.09611834  0.50214690  1
  Sc  Sc81  1  0.29184416  0.30625803  0.50994212  1
  Sc  Sc82  1  0.89443864  0.90115857  0.50814533  1
  Sc  Sc83  1  0.10148381  0.69920442  0.09930115  1
  Sc  Sc84  1  0.49657514  0.69986914  0.09549086  1
  Sc  Sc85  1  0.09628034  0.29150902  0.90296361  1
  Sc  Sc86  1  0.89842944  0.90190530  0.30793701  1
  Sc  Sc87  1  0.89919167  0.49112648  0.10742915  1
  Sc  Sc88  1  0.70152140  0.30005490  0.69081827  1
  Sc  Sc89  1  0.30884662  0.09231023  0.89628978  1
  Sc  Sc90  1  0.69768628  0.70821533  0.08646158  1
  Sc  Sc91  1  0.70166123  0.11077222  0.31848180  1
  Sc  Sc92  1  0.90115730  0.29455150  0.50493637  1
  Sc  Sc93  1  0.09875413  0.29980242  0.69167938  1
  Sc  Sc94  1  0.89960249  0.48502775  0.88146486  1
  Sc  Sc95  1  0.50017218  0.50314566  0.70283510  1
  Sc  Sc96  1  0.10120994  0.10362691  0.50453393  1
  Sc  Sc97  1  0.90524888  0.69463800  0.30751826  1
  Sc  Sc98  1  0.30137612  0.69432614  0.90552890  1
  Sc  Sc99  1  0.29700733  0.70008084  0.71553914  1
  Nb  Nb100  1  0.10113255  0.50018081  0.70998455  1
  Nb  Nb101  1  0.71315890  0.30291665  0.10581338  1
  Nb  Nb102  1  0.70277000  0.11843623  0.50630226  1
  Nb  Nb103  1  0.90671131  0.10555537  0.89406634  1
  Nb  Nb104  1  0.50516950  0.89883552  0.69105488  1
  Nb  Nb105  1  0.10009003  0.29797124  0.09592488  1
  Nb  Nb106  1  0.10377810  0.89683888  0.69838822  1
  Nb  Nb107  1  0.30005211  0.10815338  0.70375872  1
  Nb  Nb108  1  0.89526511  0.70456938  0.69690000  1
  Nb  Nb109  1  0.90938879  0.10329690  0.30063814  1
  Nb  Nb110  1  0.49724299  0.49288344  0.29876011  1
  Nb  Nb111  1  0.29785502  0.30573516  0.89706435  1
  Nb  Nb112  1  0.70165486  0.29758818  0.30453274  1
  Nb  Nb113  1  0.29726214  0.49764281  0.50021429  1
  Nb  Nb114  1  0.29701715  0.69634405  0.30064190  1
  Nb  Nb115  1  0.30047266  0.50599882  0.30994822  1
  Nb  Nb116  1  0.69876754  0.29213327  0.49175148  1
  Nb  Nb117  1  0.09545023  0.10495262  0.29955734  1
  Nb  Nb118  1  0.89280570  0.30127810  0.09813078  1
  Nb  Nb119  1  0.70426641  0.10257134  0.70084829  1
  Nb  Nb120  1  0.70102612  0.69934315  0.70051267  1
  Nb  Nb121  1  0.70099453  0.49815472  0.70424045  1
  Nb  Nb122  1  0.90563469  0.29332593  0.89775779  1
  Nb  Nb123  1  0.29866532  0.09312593  0.09780598  1
  Nb  Nb124  1  0.89403310  0.09866545  0.70136899  1
  Nb  Nb125  1  0.40000403  0.40291375  0.39587811  1
  Nb  Nb126  1  0.39079262  0.20420637  0.39718129  1
  Nb  Nb127  1  0.59896955  0.39578775  0.39807953  1
  Nb  Nb128  1  0.20213747  0.19782767  0.39244594  1
  Nb  Nb129  1  0.20202212  0.39431437  0.80211523  1
  Nb  Nb130  1  0.00544697  0.80561298  0.40494943  1
  Nb  Nb131  1  0.79689184  0.60582878  0.79531004  1
  Nb  Nb132  1  0.19915298  0.00285667  0.00196278  1
  Nb  Nb133  1  -0.00379326  0.39313002  0.00007561  1
  Nb  Nb134  1  0.60720854  -0.00125082  0.20131785  1
  Nb  Nb135  1  -0.00799339  0.59307056  -0.00665831  1
  Nb  Nb136  1  0.80845988  0.60108481  -0.00619391  1
  Nb  Nb137  1  0.79624382  0.80282062  0.20250938  1
  Nb  Nb138  1  0.20144590  0.59944533  0.60149978  1
  Nb  Nb139  1  0.79785520  0.00131668  0.20488140  1
  Nb  Nb140  1  0.38953273  0.60124094  0.59735877  1
  Nb  Nb141  1  0.60102680  0.39353896  0.00204793  1
  Nb  Nb142  1  0.00145996  0.00551533  0.39948275  1
  Nb  Nb143  1  0.79235288  0.39444520  0.39929469  1
  Nb  Nb144  1  0.80615502  0.19496160  0.79839579  1
  Nb  Nb145  1  0.19847368  0.79732250  0.60344604  1
  Nb  Nb146  1  0.60548163  0.80892151  0.20241032  1
  Nb  Nb147  1  0.60252381  0.40051762  0.80463273  1
  Nb  Nb148  1  0.20562681  0.20098316  0.79842659  1
  Nb  Nb149  1  0.80078038  0.60833853  0.19464043  1
  Pd  Pd150  1  0.40940620  0.80017568  0.20702336  1
  Pd  Pd151  1  0.20590510  0.59232898  0.19638868  1
  Pd  Pd152  1  0.39121276  0.19758738  -0.00693494  1
  Pd  Pd153  1  0.80178507  0.39509877  0.59446909  1
  Pd  Pd154  1  0.60646475  0.20714478  0.00272509  1
  Pd  Pd155  1  0.80663415  0.01383183  0.40481271  1
  Pd  Pd156  1  0.59665700  0.20088278  0.60626411  1
  Pd  Pd157  1  0.80446658  0.19340493  -0.00749249  1
  Pd  Pd158  1  0.00102177  -0.00107470  0.79032231  1
  Pd  Pd159  1  0.59570470  0.39431324  0.60442857  1
  Pd  Pd160  1  0.00458169  0.59141194  0.60883311  1
  Pd  Pd161  1  0.80874861  0.79573989  0.40230929  1
  Pd  Pd162  1  0.39178092  0.59477355  0.19742956  1
  Pd  Pd163  1  0.59434407  0.79385265  0.39871221  1
  Pd  Pd164  1  0.80364082  0.40508738  -0.00649010  1
  Pd  Pd165  1  0.39613944  0.00476934  0.60592368  1
  Pd  Pd166  1  -0.00496846  0.80664258  0.21309598  1
  Pd  Pd167  1  0.60890648  0.61387664  0.19274233  1
  Pd  Pd168  1  0.79307825  0.00122074  0.59543743  1
  Pd  Pd169  1  0.20747476  -0.00282928  0.60551060  1
  Pd  Pd170  1  0.61349074  0.19220827  0.19358834  1
  Pd  Pd171  1  0.59163921  0.60538831  0.60804140  1
  Pd  Pd172  1  0.79686590  0.80170184  0.80057079  1
  Pd  Pd173  1  0.79360314  0.18627544  0.20075217  1
  Pd  Pd174  1  0.60659138  0.39257410  0.19930622  1
  Pd  Pd175  1  0.60765757  0.00485875  0.60063732  1
  Pd  Pd176  1  0.38843368  0.79281977  0.60835036  1
  Pd  Pd177  1  -0.00654072  -0.00610693  0.20486209  1
  Pd  Pd178  1  0.39289763  0.01428059  0.40289485  1
  Pd  Pd179  1  0.00126102  0.40312852  0.59756623  1
  Pd  Pd180  1  0.18922419  0.59439039  0.40497625  1
  Pd  Pd181  1  0.60436015  0.59371135  0.01150414  1
  Pd  Pd182  1  0.80395177  0.59485543  0.61014283  1
  Pd  Pd183  1  0.39888461  0.80215127  -0.00534489  1
  Pd  Pd184  1  -0.00844696  0.38750507  0.39986804  1
  Pd  Pd185  1  0.20756602  0.19058887  -0.01099848  1
  Pd  Pd186  1  0.40693409  0.59975598  0.40409645  1
  Pd  Pd187  1  0.20153050  0.80519867  -0.00178403  1
  Pd  Pd188  1  0.19980590  0.40647374  0.19452083  1
  Pd  Pd189  1  0.00769930  0.60277059  0.39994299  1
  Pd  Pd190  1  0.59329538  0.59971843  0.40378035  1
  Pd  Pd191  1  0.00234126  0.19506547  0.60505182  1
  Pd  Pd192  1  0.40490644  -0.00258138  0.79700334  1
  Pd  Pd193  1  0.19052712  0.80280013  0.40231559  1
  Pd  Pd194  1  0.59521064  -0.00396678  0.00404823  1
  Pd  Pd195  1  0.40362159  0.40166005  0.79945177  1
  Pd  Pd196  1  0.40143694  0.80128602  0.79853239  1
  Pd  Pd197  1  0.38760175  0.19282133  0.20466667  1
  Pd  Pd198  1  0.40599188  0.39866309  0.00453372  1
  Pd  Pd199  1  0.19787334  0.80414615  0.19980813  1
  Rh  Rh200  1  0.79050120  0.39346481  0.79739423  1
  Rh  Rh201  1  0.81306580  0.20259696  0.40237834  1
  Rh  Rh202  1  0.40197274  0.19152069  0.59302311  1
  Rh  Rh203  1  0.80459225  0.00404199  0.80075202  1
  Rh  Rh204  1  0.19260742  -0.00269113  0.19094880  1
  Rh  Rh205  1  0.19698699  0.19902359  0.60187470  1
  Rh  Rh206  1  0.00479009  0.19655029  0.40149637  1
  Rh  Rh207  1  0.79538032  0.40548229  0.20961135  1
  Rh  Rh208  1  0.60103998  0.80729729  0.79241594  1
  Rh  Rh209  1  0.19759957  0.00781197  0.80427308  1
  Rh  Rh210  1  0.00377131  0.00760508  0.00103587  1
  Rh  Rh211  1  -0.00434696  0.00199582  0.60006476  1
  Rh  Rh212  1  -0.01495392  0.59933150  0.80035557  1
  Rh  Rh213  1  0.01517898  0.39205715  0.80509995  1
  Rh  Rh214  1  0.19039225  0.39705380  -0.00497899  1
  Rh  Rh215  1  0.00264627  0.39118470  0.18869122  1
  Rh  Rh216  1  0.40204408  0.60232594  0.79526150  1
  Rh  Rh217  1  0.20340691  0.39296584  0.39964494  1
  Rh  Rh218  1  0.60634958  0.80145080  0.60404730  1
  Rh  Rh219  1  0.79300804  0.80480038  0.60116403  1
  Rh  Rh220  1  -0.00518784  0.59837898  0.19265544  1
  Rh  Rh221  1  0.00021501  0.80551278  0.79592018  1
  Rh  Rh222  1  0.00248222  0.19800713  0.78891443  1
  Rh  Rh223  1  0.40927084  0.00080258  0.20302083  1
  Rh  Rh224  1  0.59821743  -0.00520124  0.79034174  1
  Rh  Rh225  1  0.60345667  0.59727267  0.79112277  1
  Rh  Rh226  1  0.80901248  0.00891999  -0.00159020  1
  Rh  Rh227  1  0.40664060  0.79170023  0.39203793  1
  Rh  Rh228  1  0.39705566  0.60215277  0.00860610  1
  Rh  Rh229  1  0.00481779  0.79104148  -0.00968953  1
  Rh  Rh230  1  0.20243929  0.19937890  0.20272701  1
  Rh  Rh231  1  0.80054930  0.59261731  0.39408186  1
  Rh  Rh232  1  0.58701483  0.20520012  0.40177855  1
  Rh  Rh233  1  0.80685304  0.79508101  -0.00366246  1
  Rh  Rh234  1  0.60471690  0.01151209  0.40811673  1
  Rh  Rh235  1  0.19457921  0.01167998  0.40172929  1
  Rh  Rh236  1  0.80257720  0.20382092  0.60699403  1
  Rh  Rh237  1  0.39237083  0.40619968  0.20194450  1
  Rh  Rh238  1  0.61398992  0.20776272  0.79528216  1
  Rh  Rh239  1  0.20498504  0.59304779  0.79605173  1
  Rh  Rh240  1  -0.00125832  0.20681589  0.19281259  1
  Rh  Rh241  1  0.40512829  0.40595167  0.59594168  1
  Rh  Rh242  1  0.58990959  0.80688335  0.00286588  1
  Rh  Rh243  1  -0.00670371  0.20609787  0.00958850  1
  Rh  Rh244  1  0.39495885  -0.00567853  -0.00553808  1
  Rh  Rh245  1  0.19690752  0.80009718  0.79458162  1
  Rh  Rh246  1  0.39381418  0.19813984  0.80511609  1
  Rh  Rh247  1  0.00375533  0.80438783  0.60177478  1
  Rh  Rh248  1  0.18930935  0.40702362  0.60730851  1
  Rh  Rh249  1  0.19503724  0.60222374  0.00575270  1
