# generated using pymatgen
data_ZrScNbPdRh
_symmetry_space_group_name_H-M   'P 1'
_cell_length_a   16.55946513
_cell_length_b   16.55748052
_cell_length_c   16.55848082
_cell_angle_alpha   89.99074950
_cell_angle_beta   89.99694740
_cell_angle_gamma   89.99548366
_symmetry_Int_Tables_number   1
_chemical_formula_structural   ZrScNbPdRh
_chemical_formula_sum   'Zr50 Sc50 Nb50 Pd50 Rh50'
_cell_volume   4540.05421884
_cell_formula_units_Z   50
loop_
 _symmetry_equiv_pos_site_id
 _symmetry_equiv_pos_as_xyz
  1  'x, y, z'
loop_
 _atom_site_type_symbol
 _atom_site_label
 _atom_site_symmetry_multiplicity
 _atom_site_fract_x
 _atom_site_fract_y
 _atom_site_fract_z
 _atom_site_occupancy
  Zr  Zr0  1  0.09439661  0.29901958  0.50152485  1
  Zr  Zr1  1  0.50308072  0.10071871  0.89307965  1
  Zr  Zr2  1  0.70902974  0.08730242  0.11098348  1
  Zr  Zr3  1  0.89555761  0.50760426  0.50287639  1
  Zr  Zr4  1  0.10386564  0.31317672  0.10198968  1
  Zr  Zr5  1  0.69884517  0.31272448  0.09919975  1
  Zr  Zr6  1  0.29612614  0.90774076  0.89409840  1
  Zr  Zr7  1  0.29303741  0.70501606  0.29919009  1
  Zr  Zr8  1  0.70821752  0.50071022  0.90856469  1
  Zr  Zr9  1  0.09619937  0.10393425  0.69607726  1
  Zr  Zr10  1  0.50029949  0.69402065  0.70559395  1
  Zr  Zr11  1  0.29687057  0.29985909  0.28854320  1
  Zr  Zr12  1  0.90792295  0.70312145  0.69510327  1
  Zr  Zr13  1  0.10192283  0.88883287  0.70650569  1
  Zr  Zr14  1  0.49606807  0.90195718  0.49669439  1
  Zr  Zr15  1  0.90061854  0.50801072  0.29642791  1
  Zr  Zr16  1  0.30129799  0.09495370  0.90623898  1
  Zr  Zr17  1  0.89829533  0.09779213  0.89771404  1
  Zr  Zr18  1  0.09391653  0.69969293  0.29709671  1
  Zr  Zr19  1  0.09514596  0.50098188  0.29092623  1
  Zr  Zr20  1  0.70133063  0.70461177  0.28650140  1
  Zr  Zr21  1  0.69728218  0.70734651  0.91000760  1
  Zr  Zr22  1  0.09938015  0.09424340  0.49812827  1
  Zr  Zr23  1  0.69972493  0.10542629  0.71230140  1
  Zr  Zr24  1  0.09922579  0.69631957  0.51077085  1
  Zr  Zr25  1  0.50325367  0.90821227  0.69884020  1
  Zr  Zr26  1  0.70560712  0.88232278  0.10050149  1
  Zr  Zr27  1  0.70002372  0.70519905  0.49521545  1
  Zr  Zr28  1  0.10053337  0.29988244  0.70534321  1
  Zr  Zr29  1  0.68825853  0.49333459  0.49746143  1
  Zr  Zr30  1  0.90786329  0.09837424  0.50875699  1
  Zr  Zr31  1  0.49736577  0.29575779  0.09636307  1
  Zr  Zr32  1  0.10116553  0.31087476  0.30066268  1
  Zr  Zr33  1  0.90532326  0.90247432  0.90004015  1
  Zr  Zr34  1  0.09540245  0.49707149  0.49923220  1
  Zr  Zr35  1  0.50667420  0.30423764  0.50112430  1
  Zr  Zr36  1  0.69957998  0.50693550  0.28569268  1
  Zr  Zr37  1  0.30368129  0.91106049  0.09170616  1
  Zr  Zr38  1  0.50179381  0.09382088  0.30025316  1
  Zr  Zr39  1  0.69098334  0.90102838  0.50167142  1
  Zr  Zr40  1  0.49489416  0.50851731  0.49889946  1
  Zr  Zr41  1  0.89964167  0.69803928  0.49706155  1
  Zr  Zr42  1  0.30507980  0.90045905  0.30301107  1
  Zr  Zr43  1  0.69662836  0.09599075  0.30557706  1
  Zr  Zr44  1  0.89925675  0.30411299  0.29843499  1
  Zr  Zr45  1  0.29915685  0.70092521  0.09902325  1
  Zr  Zr46  1  0.89027883  0.29027580  0.49929953  1
  Zr  Zr47  1  0.90039054  0.49861974  0.70410455  1
  Zr  Zr48  1  0.49648070  0.50096100  0.69392443  1
  Zr  Zr49  1  0.11042541  0.90029106  0.30882262  1
  Sc  Sc50  1  0.30369679  0.68614551  0.90479360  1
  Sc  Sc51  1  0.90800759  0.49888057  0.90324919  1
  Sc  Sc52  1  0.30037037  0.69812175  0.49715234  1
  Sc  Sc53  1  0.70033852  0.29117720  0.89684577  1
  Sc  Sc54  1  0.09457463  0.50071208  0.09732217  1
  Sc  Sc55  1  0.52003944  0.49712317  0.09923494  1
  Sc  Sc56  1  0.69291442  0.50391929  0.69649646  1
  Sc  Sc57  1  0.48894837  0.50564724  0.89263810  1
  Sc  Sc58  1  0.49999837  0.90102704  0.10282753  1
  Sc  Sc59  1  0.10566136  0.68987229  0.10496745  1
  Sc  Sc60  1  0.69055073  0.70593143  0.70161262  1
  Sc  Sc61  1  0.50065975  0.09427228  0.50385539  1
  Sc  Sc62  1  0.30286994  0.30174494  0.50658486  1
  Sc  Sc63  1  0.09418693  0.91325032  0.10222718  1
  Sc  Sc64  1  0.90273372  0.10500834  0.70377180  1
  Sc  Sc65  1  0.90900253  0.88399732  0.29998557  1
  Sc  Sc66  1  0.28637802  0.50265975  0.08628360  1
  Sc  Sc67  1  0.50304892  0.89821145  0.30224977  1
  Sc  Sc68  1  0.68875968  0.90158977  0.70255432  1
  Sc  Sc69  1  0.89377806  0.70300633  0.10165689  1
  Sc  Sc70  1  0.10268311  0.09239966  0.89641176  1
  Sc  Sc71  1  0.28650700  0.68796167  0.69626509  1
  Sc  Sc72  1  0.29881689  0.30438963  0.89833863  1
  Sc  Sc73  1  0.48286623  0.29768813  0.69689420  1
  Sc  Sc74  1  0.10179501  0.30067861  0.89617987  1
  Sc  Sc75  1  0.90502216  0.30576125  0.89503684  1
  Sc  Sc76  1  0.70463954  0.29710608  0.31316109  1
  Sc  Sc77  1  0.09804801  0.69258109  0.88731218  1
  Sc  Sc78  1  0.31366558  0.09912731  0.70548423  1
  Sc  Sc79  1  0.29532277  0.89902198  0.49501552  1
  Sc  Sc80  1  0.90024367  0.90496434  0.10105879  1
  Sc  Sc81  1  0.49761094  0.29745530  0.90844945  1
  Sc  Sc82  1  0.50480855  0.51132792  0.30148290  1
  Sc  Sc83  1  0.69023617  0.89828512  0.29406560  1
  Sc  Sc84  1  0.90073961  0.29316388  0.70563127  1
  Sc  Sc85  1  0.90598885  0.89001262  0.50486477  1
  Sc  Sc86  1  0.49094144  0.10049137  0.09459633  1
  Sc  Sc87  1  0.10119763  0.50113840  0.69807816  1
  Sc  Sc88  1  0.49915781  0.70523952  0.30475427  1
  Sc  Sc89  1  0.10324240  0.90587837  0.50537534  1
  Sc  Sc90  1  0.90582621  0.69679562  0.90078228  1
  Sc  Sc91  1  0.70024085  0.10875118  0.49962481  1
  Sc  Sc92  1  0.30642843  0.08903270  0.50486272  1
  Sc  Sc93  1  0.09795955  0.49748869  0.90610031  1
  Sc  Sc94  1  0.30181436  0.50924850  0.50666048  1
  Sc  Sc95  1  0.50651090  0.29462101  0.29748058  1
  Sc  Sc96  1  0.89605421  0.10275580  0.30251026  1
  Sc  Sc97  1  0.29148390  0.50045427  0.30021289  1
  Sc  Sc98  1  0.50028108  0.90077100  0.89844377  1
  Sc  Sc99  1  0.50418741  0.70408280  0.09075063  1
  Nb  Nb100  1  0.71022850  0.51607137  0.09755785  1
  Nb  Nb101  1  0.70095698  0.69085320  0.09705060  1
  Nb  Nb102  1  0.30443297  0.89502760  0.70048546  1
  Nb  Nb103  1  0.10400210  0.89806426  0.90049500  1
  Nb  Nb104  1  0.48908274  0.69765677  0.49653572  1
  Nb  Nb105  1  0.09732410  0.10030726  0.10241378  1
  Nb  Nb106  1  0.89358076  0.49450768  0.09727288  1
  Nb  Nb107  1  0.90328306  0.69549133  0.30244542  1
  Nb  Nb108  1  0.50174345  0.09697620  0.69599616  1
  Nb  Nb109  1  0.90694029  0.09866592  0.10131901  1
  Nb  Nb110  1  0.70274230  0.29951076  0.69930902  1
  Nb  Nb111  1  0.30429965  0.29597164  0.09861316  1
  Nb  Nb112  1  0.29702316  0.50070989  0.89782999  1
  Nb  Nb113  1  0.09477004  0.69718341  0.69913705  1
  Nb  Nb114  1  0.49615673  0.70304684  0.89170892  1
  Nb  Nb115  1  0.90321688  0.29767219  0.10053215  1
  Nb  Nb116  1  0.90275373  0.89734863  0.70056561  1
  Nb  Nb117  1  0.29195043  0.29572194  0.70066218  1
  Nb  Nb118  1  0.10439275  0.10101431  0.30198041  1
  Nb  Nb119  1  0.70497091  0.90231099  0.90007699  1
  Nb  Nb120  1  0.69677482  0.29848230  0.50402710  1
  Nb  Nb121  1  0.30369163  0.10463204  0.29746129  1
  Nb  Nb122  1  0.70301522  0.09665983  0.90036469  1
  Nb  Nb123  1  0.30519113  0.49369633  0.70702748  1
  Nb  Nb124  1  0.30133071  0.10668407  0.10342597  1
  Nb  Nb125  1  0.79233641  0.39518232  0.59915976  1
  Nb  Nb126  1  0.39721793  0.79640993  0.79585594  1
  Nb  Nb127  1  0.39807785  0.59770792  0.19555132  1
  Nb  Nb128  1  0.80586882  0.19509132  0.00761478  1
  Nb  Nb129  1  0.20358173  0.19681247  0.40032108  1
  Nb  Nb130  1  0.39923391  0.79863155  0.60507564  1
  Nb  Nb131  1  0.80156309  -0.00537286  0.40737903  1
  Nb  Nb132  1  0.80141188  0.80208566  0.80224093  1
  Nb  Nb133  1  0.00995036  0.80331974  -0.00368832  1
  Nb  Nb134  1  0.19962587  0.19650998  0.01031641  1
  Nb  Nb135  1  0.39633279  0.20134284  0.39782814  1
  Nb  Nb136  1  0.61190823  0.00008810  -0.00408989  1
  Nb  Nb137  1  0.60537707  0.19665149  0.19620791  1
  Nb  Nb138  1  0.00124240  0.19653570  0.00742994  1
  Nb  Nb139  1  0.00288662  0.19963251  0.19663922  1
  Nb  Nb140  1  0.80149111  -0.00123869  0.60125530  1
  Nb  Nb141  1  0.59964808  0.20441935  0.60663818  1
  Nb  Nb142  1  0.20399302  0.01228047  0.20179064  1
  Nb  Nb143  1  0.79889810  0.60608556  0.80127431  1
  Nb  Nb144  1  0.40082148  0.39904994  0.39449167  1
  Nb  Nb145  1  0.20328575  0.20007945  0.60120697  1
  Nb  Nb146  1  0.19498865  0.80394282  -0.00486713  1
  Nb  Nb147  1  0.59897911  0.39756672  0.79538102  1
  Nb  Nb148  1  0.39914036  0.40348087  0.19635498  1
  Nb  Nb149  1  0.19124560  0.60097175  0.39840455  1
  Pd  Pd150  1  0.59442221  0.80747119  -0.00223727  1
  Pd  Pd151  1  0.19693300  0.40650165  0.80382175  1
  Pd  Pd152  1  0.79977285  0.40613854  0.40414004  1
  Pd  Pd153  1  0.19565802  0.81469031  0.18668739  1
  Pd  Pd154  1  0.79158892  0.59904159  0.60654780  1
  Pd  Pd155  1  0.00052858  0.00392616  0.21381842  1
  Pd  Pd156  1  0.80968946  -0.01341804  0.21529149  1
  Pd  Pd157  1  0.59832599  0.39515220  0.20661922  1
  Pd  Pd158  1  0.20542555  0.79953993  0.59762412  1
  Pd  Pd159  1  0.79017880  0.60004111  0.39595055  1
  Pd  Pd160  1  0.60690571  0.59217557  0.80971972  1
  Pd  Pd161  1  0.00872351  0.79897913  0.40818134  1
  Pd  Pd162  1  0.59520101  0.40177918  0.38845519  1
  Pd  Pd163  1  0.59121148  0.59845542  -0.00871418  1
  Pd  Pd164  1  0.39391387  0.80310354  -0.01078270  1
  Pd  Pd165  1  0.40257861  0.39557717  0.80236591  1
  Pd  Pd166  1  0.39772899  0.20282712  0.80499783  1
  Pd  Pd167  1  -0.00065874  0.60668313  0.00674614  1
  Pd  Pd168  1  0.39346232  0.40200984  0.59642382  1
  Pd  Pd169  1  0.40810302  0.59180178  0.00874770  1
  Pd  Pd170  1  0.61344137  0.18871194  0.00972000  1
  Pd  Pd171  1  0.20636915  0.00406235  0.60988968  1
  Pd  Pd172  1  0.20016456  0.00582866  0.78918230  1
  Pd  Pd173  1  0.79944726  0.40089789  0.19998146  1
  Pd  Pd174  1  0.40614674  0.79411179  0.19914404  1
  Pd  Pd175  1  0.79293194  0.40534831  0.79576356  1
  Pd  Pd176  1  0.20939288  0.40209406  0.40910756  1
  Pd  Pd177  1  -0.01154422  0.40399823  0.40273517  1
  Pd  Pd178  1  0.79997200  -0.00716189  0.78990430  1
  Pd  Pd179  1  0.80068570  -0.00088294  0.00310283  1
  Pd  Pd180  1  0.59955795  0.40395708  -0.01302473  1
  Pd  Pd181  1  0.20506747  0.40019154  0.59962124  1
  Pd  Pd182  1  0.60094686  0.60920270  0.59400768  1
  Pd  Pd183  1  0.80572197  0.39182535  -0.00376057  1
  Pd  Pd184  1  0.39759770  0.40929576  0.00572236  1
  Pd  Pd185  1  0.20911749  0.78832738  0.80703115  1
  Pd  Pd186  1  0.79536322  0.80658347  0.60972056  1
  Pd  Pd187  1  0.79889096  0.20367720  0.19823927  1
  Pd  Pd188  1  0.00342167  0.19981443  0.39220509  1
  Pd  Pd189  1  0.39988556  -0.00050180  0.20115548  1
  Pd  Pd190  1  0.60463297  0.60838192  0.39673344  1
  Pd  Pd191  1  0.19153659  0.19961675  0.19954255  1
  Pd  Pd192  1  0.00429462  0.79729536  0.18782289  1
  Pd  Pd193  1  -0.01258727  0.39382297  0.60323470  1
  Pd  Pd194  1  0.00493796  -0.00017598  0.79531336  1
  Pd  Pd195  1  0.79626785  0.80720618  0.39253795  1
  Pd  Pd196  1  -0.00770575  -0.00458447  0.39464554  1
  Pd  Pd197  1  0.59121782  0.21035125  0.79347243  1
  Pd  Pd198  1  0.19794769  0.59283526  0.80071364  1
  Pd  Pd199  1  0.58799842  0.79301639  0.59511144  1
  Rh  Rh200  1  0.59570251  0.79440810  0.19339292  1
  Rh  Rh201  1  0.19419720  0.00366846  0.00851722  1
  Rh  Rh202  1  0.20424520  0.19505840  0.79849895  1
  Rh  Rh203  1  0.80078146  0.19183100  0.40212770  1
  Rh  Rh204  1  0.59893161  0.80476596  0.80840572  1
  Rh  Rh205  1  0.60210022  0.39246161  0.61137829  1
  Rh  Rh206  1  0.19401746  0.79094665  0.40896133  1
  Rh  Rh207  1  0.80502437  0.79786406  0.20221959  1
  Rh  Rh208  1  0.39684498  -0.00917275  0.60165483  1
  Rh  Rh209  1  0.39043342  0.19947886  -0.00762182  1
  Rh  Rh210  1  0.61087275  0.01636767  0.60083661  1
  Rh  Rh211  1  0.59351425  0.60890487  0.19409136  1
  Rh  Rh212  1  0.00461556  0.60036543  0.40131620  1
  Rh  Rh213  1  0.20761673  0.00767641  0.39334517  1
  Rh  Rh214  1  0.38814431  0.59736391  0.38740835  1
  Rh  Rh215  1  0.60405299  -0.00040451  0.40456533  1
  Rh  Rh216  1  0.59718556  0.79667666  0.40066934  1
  Rh  Rh217  1  -0.00308175  0.59599549  0.79482697  1
  Rh  Rh218  1  0.39571520  0.60617548  0.60747728  1
  Rh  Rh219  1  0.60031915  -0.00125285  0.80719999  1
  Rh  Rh220  1  0.20255889  0.39321535  -0.00514971  1
  Rh  Rh221  1  0.19230037  0.60546332  -0.00818314  1
  Rh  Rh222  1  0.59276183  0.19694894  0.40444696  1
  Rh  Rh223  1  0.80962413  0.60336308  -0.00432533  1
  Rh  Rh224  1  0.00730864  0.80349147  0.59903063  1
  Rh  Rh225  1  0.00450890  -0.00066841  -0.00549290  1
  Rh  Rh226  1  0.00503460  0.20656527  0.60336705  1
  Rh  Rh227  1  0.00093531  0.59709910  0.60380295  1
  Rh  Rh228  1  0.20493050  0.59508202  0.20436650  1
  Rh  Rh229  1  0.40021978  0.19577456  0.59521146  1
  Rh  Rh230  1  0.20867883  0.40870761  0.18925580  1
  Rh  Rh231  1  0.80823740  0.60600450  0.19664877  1
  Rh  Rh232  1  -0.00825859  0.40182507  0.19495765  1
  Rh  Rh233  1  0.40419011  -0.00350309  0.79948333  1
  Rh  Rh234  1  0.39106528  0.60277105  0.79451763  1
  Rh  Rh235  1  0.80524329  0.20357812  0.81004157  1
  Rh  Rh236  1  0.00653250  0.40233400  0.79933435  1
  Rh  Rh237  1  -0.00976161  0.59926543  0.19112224  1
  Rh  Rh238  1  0.41200577  0.00201612  -0.00459733  1
  Rh  Rh239  1  0.81065239  0.79898549  -0.00594117  1
  Rh  Rh240  1  0.59302341  0.00312672  0.18972752  1
  Rh  Rh241  1  0.19749793  0.59167631  0.59943626  1
  Rh  Rh242  1  -0.00282433  0.39527004  0.00181630  1
  Rh  Rh243  1  -0.00331264  0.79965788  0.80408012  1
  Rh  Rh244  1  0.00305817  0.19867895  0.81057714  1
  Rh  Rh245  1  0.39885184  0.00238632  0.39857475  1
  Rh  Rh246  1  -0.00343387  -0.00833657  0.60805759  1
  Rh  Rh247  1  0.79398226  0.19764111  0.60395318  1
  Rh  Rh248  1  0.41129688  0.20493983  0.20427943  1
  Rh  Rh249  1  0.39984661  0.80143583  0.40592634  1
