# generated using pymatgen
data_ZrScNbPdRh
_symmetry_space_group_name_H-M   'P 1'
_cell_length_a   16.55829820
_cell_length_b   16.56108093
_cell_length_c   16.55693034
_cell_angle_alpha   89.97869511
_cell_angle_beta   89.98818840
_cell_angle_gamma   90.01915496
_symmetry_Int_Tables_number   1
_chemical_formula_structural   ZrScNbPdRh
_chemical_formula_sum   'Zr50 Sc50 Nb50 Pd50 Rh50'
_cell_volume   4540.29568647
_cell_formula_units_Z   50
loop_
 _symmetry_equiv_pos_site_id
 _symmetry_equiv_pos_as_xyz
  1  'x, y, z'
loop_
 _atom_site_type_symbol
 _atom_site_label
 _atom_site_symmetry_multiplicity
 _atom_site_fract_x
 _atom_site_fract_y
 _atom_site_fract_z
 _atom_site_occupancy
  Zr  Zr0  1  0.09921129  0.90391451  0.09586939  1
  Zr  Zr1  1  0.50103234  0.29878078  0.90105398  1
  Zr  Zr2  1  0.30581494  0.50504258  0.50334877  1
  Zr  Zr3  1  0.89396456  0.10088683  0.30090387  1
  Zr  Zr4  1  0.09505805  0.09604184  0.89941640  1
  Zr  Zr5  1  0.88878234  0.69765187  0.69268455  1
  Zr  Zr6  1  0.90104809  0.89803941  0.70107677  1
  Zr  Zr7  1  0.89438405  0.29422712  0.50233783  1
  Zr  Zr8  1  0.09798891  0.30408156  0.10701762  1
  Zr  Zr9  1  0.29698625  0.49963284  0.10824517  1
  Zr  Zr10  1  0.10389329  0.10492410  0.70006724  1
  Zr  Zr11  1  0.29586446  0.29595609  0.09849770  1
  Zr  Zr12  1  0.10153645  0.70119652  0.89387164  1
  Zr  Zr13  1  0.89970123  0.89284016  0.49803294  1
  Zr  Zr14  1  0.29359229  0.09942871  0.30440775  1
  Zr  Zr15  1  0.50760805  0.50088132  0.30407139  1
  Zr  Zr16  1  0.49911532  0.49440100  0.50597609  1
  Zr  Zr17  1  0.70439836  0.70446152  0.50473450  1
  Zr  Zr18  1  0.69993407  0.69637507  0.09897729  1
  Zr  Zr19  1  0.89277588  0.30743288  0.90875438  1
  Zr  Zr20  1  0.30737825  0.90750070  0.09170631  1
  Zr  Zr21  1  0.50592551  0.50415441  0.09991889  1
  Zr  Zr22  1  0.69208175  0.50317761  0.10574147  1
  Zr  Zr23  1  0.10230376  0.69625976  0.30750833  1
  Zr  Zr24  1  0.29334963  0.09946616  0.09719012  1
  Zr  Zr25  1  0.49425535  0.11039648  0.50044818  1
  Zr  Zr26  1  0.70571404  0.30450730  0.69265318  1
  Zr  Zr27  1  0.89944325  0.09900392  0.90322885  1
  Zr  Zr28  1  0.70354202  0.90127032  0.49704825  1
  Zr  Zr29  1  0.10044382  0.30571760  0.88936365  1
  Zr  Zr30  1  0.49886691  0.91373250  0.29996104  1
  Zr  Zr31  1  0.69124068  0.10415678  0.70598091  1
  Zr  Zr32  1  0.50122314  0.69272441  0.10093039  1
  Zr  Zr33  1  0.70099236  0.09529797  0.29930046  1
  Zr  Zr34  1  0.30626199  0.70178520  0.89222633  1
  Zr  Zr35  1  0.10633267  0.90135242  0.69909015  1
  Zr  Zr36  1  0.30695493  0.50244831  0.88829695  1
  Zr  Zr37  1  0.29921277  0.69682874  0.50263221  1
  Zr  Zr38  1  0.10672637  0.10032266  0.10235516  1
  Zr  Zr39  1  0.90083583  0.70291986  0.49550936  1
  Zr  Zr40  1  0.10015224  0.09813776  0.49589415  1
  Zr  Zr41  1  0.70369910  0.89829807  0.90055442  1
  Zr  Zr42  1  0.09907905  0.50527839  0.50258592  1
  Zr  Zr43  1  0.89542151  0.89424332  0.30311035  1
  Zr  Zr44  1  0.70268336  0.91034119  0.30222243  1
  Zr  Zr45  1  0.90389199  0.10722008  0.50134579  1
  Zr  Zr46  1  0.89733778  0.49671190  0.70172903  1
  Zr  Zr47  1  0.29399547  0.70248071  0.70171928  1
  Zr  Zr48  1  0.50716352  0.29951202  0.09879167  1
  Zr  Zr49  1  0.50455051  0.10063474  0.88525434  1
  Sc  Sc50  1  0.49744176  0.29986257  0.31547106  1
  Sc  Sc51  1  0.10242232  0.90170800  0.30827642  1
  Sc  Sc52  1  0.30262582  0.29532430  0.89135508  1
  Sc  Sc53  1  0.70543892  0.49914753  0.71125379  1
  Sc  Sc54  1  0.29981988  0.90085067  0.69620519  1
  Sc  Sc55  1  0.70066422  0.69890478  0.88929710  1
  Sc  Sc56  1  0.10279198  0.89295777  0.50008541  1
  Sc  Sc57  1  0.89934514  0.49743820  0.49769043  1
  Sc  Sc58  1  0.10075864  0.70196865  0.50238850  1
  Sc  Sc59  1  0.49307904  0.09179958  0.09074008  1
  Sc  Sc60  1  0.30313023  0.68993189  0.30391624  1
  Sc  Sc61  1  0.71372798  0.90020948  0.10027173  1
  Sc  Sc62  1  0.30134466  0.89548717  0.89219813  1
  Sc  Sc63  1  0.50454310  0.30220559  0.69592293  1
  Sc  Sc64  1  0.70955518  0.68689249  0.29630367  1
  Sc  Sc65  1  0.69966361  0.29979081  0.50527269  1
  Sc  Sc66  1  0.08978909  0.29754899  0.50292734  1
  Sc  Sc67  1  0.50146258  0.71249089  0.70487201  1
  Sc  Sc68  1  0.09654816  0.29844344  0.29747820  1
  Sc  Sc69  1  0.29622707  0.90137280  0.50044754  1
  Sc  Sc70  1  0.89723030  0.49887150  0.89503608  1
  Sc  Sc71  1  0.48885823  0.89918479  0.89318127  1
  Sc  Sc72  1  0.10320142  0.69691893  0.69185713  1
  Sc  Sc73  1  0.30129370  0.49743874  0.69417183  1
  Sc  Sc74  1  0.30938325  0.69229841  0.10154089  1
  Sc  Sc75  1  0.31119116  0.29989114  0.50173936  1
  Sc  Sc76  1  0.70135882  0.10896276  0.49777988  1
  Sc  Sc77  1  0.90478851  0.29626931  0.30076991  1
  Sc  Sc78  1  0.70327315  0.29685169  0.09358876  1
  Sc  Sc79  1  0.70503375  0.29537058  0.30293478  1
  Sc  Sc80  1  0.09458795  0.90558390  0.89840385  1
  Sc  Sc81  1  0.30119778  0.90827455  0.30773134  1
  Sc  Sc82  1  0.48970100  0.69639699  0.49599952  1
  Sc  Sc83  1  0.70099086  0.49602955  0.49230297  1
  Sc  Sc84  1  0.90064337  0.30167589  0.69962022  1
  Sc  Sc85  1  0.29551389  0.29812829  0.30309275  1
  Sc  Sc86  1  0.29703872  0.10140528  0.50372630  1
  Sc  Sc87  1  0.09774631  0.49652567  0.10842641  1
  Sc  Sc88  1  0.69511751  0.88158216  0.70107184  1
  Sc  Sc89  1  0.70154833  0.29480714  0.90488227  1
  Sc  Sc90  1  0.90417055  0.89919154  0.91109658  1
  Sc  Sc91  1  0.08646202  0.50310157  0.89212935  1
  Sc  Sc92  1  0.70921464  0.10259356  0.09898679  1
  Sc  Sc93  1  0.08401474  0.70329052  0.09570775  1
  Sc  Sc94  1  0.90575800  0.49366723  0.09147336  1
  Sc  Sc95  1  0.90349872  0.11079965  0.70305370  1
  Sc  Sc96  1  0.49297690  0.69694703  0.30548492  1
  Sc  Sc97  1  0.90530338  0.69517534  0.90437365  1
  Sc  Sc98  1  0.48796348  0.89759258  0.49838227  1
  Sc  Sc99  1  0.50392478  0.30541595  0.50745218  1
  Nb  Nb100  1  0.49499585  0.69850772  0.90611974  1
  Nb  Nb101  1  0.89850784  0.69574186  0.29652777  1
  Nb  Nb102  1  0.10623468  0.30676906  0.70223344  1
  Nb  Nb103  1  0.50161934  0.91192749  0.70201743  1
  Nb  Nb104  1  0.90703313  0.89267852  0.10091191  1
  Nb  Nb105  1  0.28342119  0.30263774  0.70105344  1
  Nb  Nb106  1  0.10170621  0.09786916  0.29949131  1
  Nb  Nb107  1  0.50637936  0.49302546  0.70102380  1
  Nb  Nb108  1  0.10120188  0.49927467  0.29815395  1
  Nb  Nb109  1  0.30698137  0.10200865  0.90191961  1
  Nb  Nb110  1  0.50640039  0.50314951  0.89639574  1
  Nb  Nb111  1  0.49999892  0.89788502  0.09503044  1
  Nb  Nb112  1  0.49975798  0.09401300  0.69845265  1
  Nb  Nb113  1  0.69947799  0.69599140  0.69694254  1
  Nb  Nb114  1  0.89800009  0.29898779  0.10357593  1
  Nb  Nb115  1  0.70857680  0.50176538  0.29615169  1
  Nb  Nb116  1  0.89604842  0.70541856  0.10208657  1
  Nb  Nb117  1  0.30110100  0.10591128  0.69926229  1
  Nb  Nb118  1  0.10090636  0.48332495  0.69723643  1
  Nb  Nb119  1  0.29015681  0.50234493  0.29603477  1
  Nb  Nb120  1  0.69792040  0.09868379  0.90208359  1
  Nb  Nb121  1  0.89482844  0.50469684  0.30073012  1
  Nb  Nb122  1  0.70263036  0.50207052  0.90410091  1
  Nb  Nb123  1  0.90029034  0.10295397  0.10402367  1
  Nb  Nb124  1  0.49842669  0.10059858  0.30020663  1
  Nb  Nb125  1  -0.00278209  0.20318980  0.00595016  1
  Nb  Nb126  1  0.40364434  0.19864701  0.20247937  1
  Nb  Nb127  1  0.59701638  0.00013871  0.60479543  1
  Nb  Nb128  1  0.59589011  0.80449958  0.20047338  1
  Nb  Nb129  1  0.19843886  0.59905343  -0.00360457  1
  Nb  Nb130  1  -0.00335466  -0.00060192  0.19931426  1
  Nb  Nb131  1  0.59433747  0.80078908  0.00169777  1
  Nb  Nb132  1  0.60117487  0.60053755  0.60808887  1
  Nb  Nb133  1  0.19690725  0.40874285  0.39791201  1
  Nb  Nb134  1  0.20271746  0.79454050  0.00195245  1
  Nb  Nb135  1  0.79616108  0.00143580  0.79932465  1
  Nb  Nb136  1  -0.00143292  0.00076404  0.60077057  1
  Nb  Nb137  1  0.20391108  0.40658154  -0.00520436  1
  Nb  Nb138  1  0.40141628  0.39834036  0.19901746  1
  Nb  Nb139  1  0.00100165  0.79819877  0.79475872  1
  Nb  Nb140  1  0.20581745  0.80188966  0.19435803  1
  Nb  Nb141  1  0.80230790  0.40411160  0.20081096  1
  Nb  Nb142  1  0.79834987  0.00080308  0.60581909  1
  Nb  Nb143  1  0.60135965  -0.00460948  -0.00659856  1
  Nb  Nb144  1  0.60178774  0.80238000  0.39283040  1
  Nb  Nb145  1  0.59305960  0.19287915  0.20325005  1
  Nb  Nb146  1  0.79719394  0.59864479  0.00280013  1
  Nb  Nb147  1  0.40231762  0.80696387  0.19804958  1
  Nb  Nb148  1  -0.00763457  0.60037403  0.20640650  1
  Nb  Nb149  1  0.40180455  0.40431472  -0.00069227  1
  Pd  Pd150  1  0.18790562  0.61297087  0.18917172  1
  Pd  Pd151  1  0.59658044  0.60223593  0.79754539  1
  Pd  Pd152  1  0.00158072  0.19392710  0.20088854  1
  Pd  Pd153  1  0.39978932  0.80267926  0.60450703  1
  Pd  Pd154  1  -0.00116970  0.60400527  0.78692808  1
  Pd  Pd155  1  0.60351494  0.38791597  0.21042832  1
  Pd  Pd156  1  0.59095865  0.79927763  0.59036052  1
  Pd  Pd157  1  -0.00087429  -0.00207583  0.40049668  1
  Pd  Pd158  1  0.19328167  0.58993112  0.79550303  1
  Pd  Pd159  1  0.39589148  0.00429751  0.19971835  1
  Pd  Pd160  1  0.19187868  0.20783818  -0.01041806  1
  Pd  Pd161  1  0.41213133  0.60259810  0.61332928  1
  Pd  Pd162  1  0.39911293  0.20657519  0.78761992  1
  Pd  Pd163  1  0.39922684  0.00070465  0.59684137  1
  Pd  Pd164  1  0.60887560  0.39540364  0.80574323  1
  Pd  Pd165  1  0.41257445  0.60297159  0.78942773  1
  Pd  Pd166  1  0.80143288  0.39483270  0.39550517  1
  Pd  Pd167  1  0.39068731  0.40464062  0.39315257  1
  Pd  Pd168  1  0.00282912  0.39985699  0.39646053  1
  Pd  Pd169  1  0.20301890  0.39526717  0.58661379  1
  Pd  Pd170  1  0.19845557  0.20582655  0.59274611  1
  Pd  Pd171  1  0.00881011  0.80095878  0.20946734  1
  Pd  Pd172  1  -0.00400481  0.20870931  0.80405525  1
  Pd  Pd173  1  0.40365680  0.20058961  0.00167544  1
  Pd  Pd174  1  0.19662327  0.21090842  0.40534876  1
  Pd  Pd175  1  -0.00505100  0.39615191  0.59964386  1
  Pd  Pd176  1  0.60257246  0.00340567  0.18470603  1
  Pd  Pd177  1  0.80143835  0.00061406  0.00096352  1
  Pd  Pd178  1  0.79873116  0.19981161  0.80253190  1
  Pd  Pd179  1  0.59232391  0.80089348  0.80878596  1
  Pd  Pd180  1  0.60127016  0.21199482  0.79676213  1
  Pd  Pd181  1  -0.00337953  0.59968490  0.39850521  1
  Pd  Pd182  1  0.38880148  0.00183233  0.79794859  1
  Pd  Pd183  1  0.60202132  0.20317346  0.39836143  1
  Pd  Pd184  1  0.20575468  -0.00572972  -0.01463755  1
  Pd  Pd185  1  0.20917145  0.79760005  0.39505482  1
  Pd  Pd186  1  0.59279399  0.00012140  0.41458346  1
  Pd  Pd187  1  0.40114882  0.39360182  0.79572492  1
  Pd  Pd188  1  0.20838839  0.00415408  0.80203654  1
  Pd  Pd189  1  0.00796100  0.39764642  -0.00184466  1
  Pd  Pd190  1  0.60150662  0.40110171  -0.00705067  1
  Pd  Pd191  1  0.80950547  0.79836704  0.80650598  1
  Pd  Pd192  1  0.79287976  0.80096001  0.20455131  1
  Pd  Pd193  1  0.00018092  0.59867734  0.60444746  1
  Pd  Pd194  1  0.79141593  0.58818608  0.59493641  1
  Pd  Pd195  1  0.60845724  0.39528197  0.39962044  1
  Pd  Pd196  1  0.20336146  0.19262732  0.80582951  1
  Pd  Pd197  1  0.39588512  0.59255386  -0.00176252  1
  Pd  Pd198  1  0.39870129  0.20702472  0.60982970  1
  Pd  Pd199  1  0.60482695  0.60674625  0.40564977  1
  Rh  Rh200  1  0.80063776  0.40380839  0.59793452  1
  Rh  Rh201  1  0.19620482  0.00477112  0.60064078  1
  Rh  Rh202  1  0.39671251  0.39449079  0.61055970  1
  Rh  Rh203  1  0.79799229  0.19638625  0.60217923  1
  Rh  Rh204  1  0.39750797  0.00752593  0.40855033  1
  Rh  Rh205  1  0.60613137  0.60709192  -0.01502851  1
  Rh  Rh206  1  0.79310541  0.20817071  0.19808737  1
  Rh  Rh207  1  0.19216936  -0.00755317  0.20683143  1
  Rh  Rh208  1  0.79176221  0.40966592  0.00784222  1
  Rh  Rh209  1  0.20446265  0.79762059  0.59601928  1
  Rh  Rh210  1  -0.01119527  0.40744708  0.20888317  1
  Rh  Rh211  1  0.79252234  0.79018136  0.39096106  1
  Rh  Rh212  1  0.20388890  0.20076075  0.20696902  1
  Rh  Rh213  1  0.39949179  0.79517486  0.00303590  1
  Rh  Rh214  1  0.60717406  -0.00771015  0.80011799  1
  Rh  Rh215  1  0.39734848  0.19575137  0.39578307  1
  Rh  Rh216  1  0.40286373  0.80168971  0.79316431  1
  Rh  Rh217  1  0.80183515  0.60201155  0.40652959  1
  Rh  Rh218  1  0.00015102  0.79510488  0.39646192  1
  Rh  Rh219  1  -0.00643133  0.39747346  0.79424692  1
  Rh  Rh220  1  0.00777991  0.20085122  0.60722947  1
  Rh  Rh221  1  0.79899143  0.80437848  0.60062519  1
  Rh  Rh222  1  -0.00458350  0.60043076  0.00924391  1
  Rh  Rh223  1  0.81191973  -0.00498793  0.19269727  1
  Rh  Rh224  1  0.60789095  0.41215592  0.60156125  1
  Rh  Rh225  1  0.59494926  0.60790696  0.21435603  1
  Rh  Rh226  1  0.20163816  0.40793237  0.80295188  1
  Rh  Rh227  1  0.40652867  0.59281299  0.20941886  1
  Rh  Rh228  1  0.40489712  0.00325430  -0.01362330  1
  Rh  Rh229  1  0.79922884  0.20115648  0.39994537  1
  Rh  Rh230  1  0.19688517  0.59624138  0.60337367  1
  Rh  Rh231  1  -0.00519026  0.00813201  0.01239915  1
  Rh  Rh232  1  0.00330171  0.79681280  -0.00975355  1
  Rh  Rh233  1  0.81192858  0.58980945  0.18752335  1
  Rh  Rh234  1  0.80656456  0.19645077  0.00206592  1
  Rh  Rh235  1  -0.00670679  -0.00693748  0.79291976  1
  Rh  Rh236  1  0.19326281  0.80494116  0.80236373  1
  Rh  Rh237  1  0.80511691  0.00840903  0.41186324  1
  Rh  Rh238  1  0.00377150  0.80461193  0.60528698  1
  Rh  Rh239  1  0.79955720  0.78939503  -0.00122927  1
  Rh  Rh240  1  0.20167251  0.59496542  0.40649570  1
  Rh  Rh241  1  0.80198375  0.60119052  0.80664552  1
  Rh  Rh242  1  0.79756020  0.39635592  0.80422460  1
  Rh  Rh243  1  0.00214331  0.19904652  0.39369324  1
  Rh  Rh244  1  0.20421584  0.39226103  0.20518639  1
  Rh  Rh245  1  0.40247850  0.80499904  0.39012321  1
  Rh  Rh246  1  0.19893569  0.00059474  0.40505723  1
  Rh  Rh247  1  0.39776875  0.59036332  0.39709831  1
  Rh  Rh248  1  0.59897838  0.18470628  0.00533344  1
  Rh  Rh249  1  0.59763348  0.19506714  0.60181372  1
