# generated using pymatgen
data_ZrScNbPdRh
_symmetry_space_group_name_H-M   'P 1'
_cell_length_a   16.55705270
_cell_length_b   16.55095428
_cell_length_c   16.55569029
_cell_angle_alpha   89.97861636
_cell_angle_beta   90.00978197
_cell_angle_gamma   89.96923443
_symmetry_Int_Tables_number   1
_chemical_formula_structural   ZrScNbPdRh
_chemical_formula_sum   'Zr50 Sc50 Nb50 Pd50 Rh50'
_cell_volume   4536.83791908
_cell_formula_units_Z   50
loop_
 _symmetry_equiv_pos_site_id
 _symmetry_equiv_pos_as_xyz
  1  'x, y, z'
loop_
 _atom_site_type_symbol
 _atom_site_label
 _atom_site_symmetry_multiplicity
 _atom_site_fract_x
 _atom_site_fract_y
 _atom_site_fract_z
 _atom_site_occupancy
  Zr  Zr0  1  0.50370485  0.90836930  0.29674117  1
  Zr  Zr1  1  0.71159001  0.70230673  0.50345954  1
  Zr  Zr2  1  0.89610224  0.49989315  0.09671136  1
  Zr  Zr3  1  0.48074628  0.48758981  0.90547975  1
  Zr  Zr4  1  0.89364417  0.09608075  0.09456345  1
  Zr  Zr5  1  0.89854713  0.50478613  0.50097130  1
  Zr  Zr6  1  0.30244406  0.49834478  0.70382124  1
  Zr  Zr7  1  0.29521100  0.10006527  0.10043555  1
  Zr  Zr8  1  0.49830986  0.70091628  0.50443975  1
  Zr  Zr9  1  0.09426957  0.71325218  0.09726876  1
  Zr  Zr10  1  0.90818529  0.90043207  0.09847036  1
  Zr  Zr11  1  0.09747572  0.50027713  0.69999301  1
  Zr  Zr12  1  0.10729477  0.09292241  0.29829551  1
  Zr  Zr13  1  0.69980616  0.09669242  0.29358495  1
  Zr  Zr14  1  0.50199934  0.09340764  0.10604465  1
  Zr  Zr15  1  0.70473093  0.30247150  0.70867715  1
  Zr  Zr16  1  0.50630761  0.50494052  0.29854328  1
  Zr  Zr17  1  0.69793343  0.09863856  0.69457089  1
  Zr  Zr18  1  0.90417775  0.29810578  0.70487865  1
  Zr  Zr19  1  0.09966730  0.29237321  0.09199982  1
  Zr  Zr20  1  0.69490707  0.50821440  0.70172165  1
  Zr  Zr21  1  0.90692329  0.50001869  0.70671535  1
  Zr  Zr22  1  0.89799142  0.30192156  0.09733792  1
  Zr  Zr23  1  0.09572452  0.89942669  0.70425880  1
  Zr  Zr24  1  0.50011237  0.30299560  0.70542982  1
  Zr  Zr25  1  0.09908023  0.49666163  0.49771019  1
  Zr  Zr26  1  0.29092177  0.50037886  0.30575639  1
  Zr  Zr27  1  0.89638161  0.49322208  0.29247784  1
  Zr  Zr28  1  0.70717744  0.69844118  0.08821666  1
  Zr  Zr29  1  0.29926667  0.70320447  0.90150813  1
  Zr  Zr30  1  0.09958843  0.29940739  0.29545901  1
  Zr  Zr31  1  0.09962395  0.09723110  0.09346348  1
  Zr  Zr32  1  0.30092644  0.49747417  0.50452980  1
  Zr  Zr33  1  0.09344798  0.69839747  0.70528635  1
  Zr  Zr34  1  0.50103995  0.69397850  0.10032216  1
  Zr  Zr35  1  0.10295222  0.70804653  0.89638290  1
  Zr  Zr36  1  0.50628385  0.69268211  0.70375262  1
  Zr  Zr37  1  0.50395817  0.90873551  0.89357674  1
  Zr  Zr38  1  0.89942328  0.69909069  0.10336217  1
  Zr  Zr39  1  0.89214042  0.69966569  0.90348878  1
  Zr  Zr40  1  0.50149272  0.09692855  0.70871928  1
  Zr  Zr41  1  0.29277896  0.50093856  0.89969778  1
  Zr  Zr42  1  0.30037197  0.90537268  0.70314580  1
  Zr  Zr43  1  0.09331205  0.30169401  0.69543580  1
  Zr  Zr44  1  0.29675114  0.10221126  0.30053254  1
  Zr  Zr45  1  0.69608718  0.49835056  0.50190804  1
  Zr  Zr46  1  0.69448138  0.70414011  0.30518899  1
  Zr  Zr47  1  0.89675055  0.09590878  0.70423563  1
  Zr  Zr48  1  0.50556636  0.10718116  0.51096507  1
  Zr  Zr49  1  0.30088692  0.09500091  0.68776081  1
  Sc  Sc50  1  0.09688566  0.49419378  0.30672803  1
  Sc  Sc51  1  0.90133445  0.90389914  0.69601050  1
  Sc  Sc52  1  0.50635301  0.90242691  0.50258425  1
  Sc  Sc53  1  0.50702478  0.70303702  0.89688408  1
  Sc  Sc54  1  0.89642737  0.70286021  0.69644992  1
  Sc  Sc55  1  0.29604521  0.91167629  0.29466926  1
  Sc  Sc56  1  0.09643381  0.10148720  0.90165142  1
  Sc  Sc57  1  0.69633676  0.29423254  0.49565542  1
  Sc  Sc58  1  0.89854919  0.29535453  0.50443603  1
  Sc  Sc59  1  0.69773458  0.89569263  0.49819990  1
  Sc  Sc60  1  0.09857353  0.89901375  0.90758985  1
  Sc  Sc61  1  0.69692133  0.90353391  0.30628444  1
  Sc  Sc62  1  0.90139689  0.69561944  0.30161024  1
  Sc  Sc63  1  0.70733856  0.29792651  0.90064553  1
  Sc  Sc64  1  0.09058530  0.69575606  0.30672608  1
  Sc  Sc65  1  0.70592423  0.29766317  0.30534522  1
  Sc  Sc66  1  0.29818629  0.90924808  0.09810455  1
  Sc  Sc67  1  0.90818123  0.90389980  0.29614096  1
  Sc  Sc68  1  0.29700624  0.29383719  0.29918249  1
  Sc  Sc69  1  0.30011205  0.29128422  0.50558463  1
  Sc  Sc70  1  0.89890079  0.09940173  0.28815437  1
  Sc  Sc71  1  0.09942789  0.48755752  0.09698724  1
  Sc  Sc72  1  0.29737392  0.29848139  0.70035046  1
  Sc  Sc73  1  0.30375219  0.90767818  0.51281583  1
  Sc  Sc74  1  0.90127011  0.49368964  0.89898778  1
  Sc  Sc75  1  0.50160042  0.90612202  0.69981651  1
  Sc  Sc76  1  0.30351970  0.70279166  0.70739977  1
  Sc  Sc77  1  0.71482134  0.49807898  0.10639209  1
  Sc  Sc78  1  0.70103278  0.90309090  0.70515564  1
  Sc  Sc79  1  0.30897040  0.70298117  0.10154424  1
  Sc  Sc80  1  0.71221512  0.49655739  0.89594728  1
  Sc  Sc81  1  0.29493022  0.09461716  0.89478611  1
  Sc  Sc82  1  0.50177684  0.10833305  0.29207782  1
  Sc  Sc83  1  0.31065785  0.49854223  0.08736184  1
  Sc  Sc84  1  0.09584416  0.09925066  0.70049073  1
  Sc  Sc85  1  0.29150595  0.89993632  0.89904169  1
  Sc  Sc86  1  0.89885259  0.90817752  0.89840270  1
  Sc  Sc87  1  0.70823556  0.49734331  0.30291185  1
  Sc  Sc88  1  0.70833323  0.10214090  0.89458448  1
  Sc  Sc89  1  0.29193015  0.30149860  0.09229887  1
  Sc  Sc90  1  0.70041755  0.69824237  0.89019579  1
  Sc  Sc91  1  0.50660587  0.28358149  0.10335265  1
  Sc  Sc92  1  0.70210567  0.89353564  0.89651224  1
  Sc  Sc93  1  0.09890864  0.29524080  0.90311671  1
  Sc  Sc94  1  0.29986817  0.30836129  0.89931723  1
  Sc  Sc95  1  0.49540652  0.70332400  0.29261005  1
  Sc  Sc96  1  0.70809765  0.90967823  0.09514940  1
  Sc  Sc97  1  0.90040150  0.29843739  0.90156056  1
  Sc  Sc98  1  0.08050566  0.90437456  0.49517078  1
  Sc  Sc99  1  0.09586339  0.49880350  0.89077529  1
  Nb  Nb100  1  0.49771442  0.49731593  0.68870264  1
  Nb  Nb101  1  0.09291028  0.29676974  0.50129617  1
  Nb  Nb102  1  0.69745368  0.10733291  0.10064742  1
  Nb  Nb103  1  0.29515606  0.70008550  0.30256568  1
  Nb  Nb104  1  0.09711591  0.89838121  0.10136698  1
  Nb  Nb105  1  0.90643240  0.71667738  0.50139986  1
  Nb  Nb106  1  0.29469266  0.70109352  0.49610456  1
  Nb  Nb107  1  0.09768678  0.70186572  0.49966079  1
  Nb  Nb108  1  0.70527465  0.09939055  0.50101561  1
  Nb  Nb109  1  0.50334147  0.30386673  0.30246766  1
  Nb  Nb110  1  0.90422356  0.29693125  0.29842417  1
  Nb  Nb111  1  0.90512977  0.10253913  0.89658091  1
  Nb  Nb112  1  0.50015551  0.10175973  0.89787827  1
  Nb  Nb113  1  0.90208945  0.09138447  0.50727510  1
  Nb  Nb114  1  0.89784795  0.89561921  0.50396663  1
  Nb  Nb115  1  0.50047251  0.90196166  0.09993903  1
  Nb  Nb116  1  0.49680277  0.29690903  0.89978943  1
  Nb  Nb117  1  0.69729965  0.69855946  0.70229583  1
  Nb  Nb118  1  0.09937313  0.89942657  0.29456233  1
  Nb  Nb119  1  0.70147066  0.29585159  0.09613893  1
  Nb  Nb120  1  0.50003267  0.49768221  0.50796225  1
  Nb  Nb121  1  0.50225396  0.30961323  0.49464677  1
  Nb  Nb122  1  0.30013839  0.09877442  0.49848557  1
  Nb  Nb123  1  0.09926470  0.10265616  0.49617203  1
  Nb  Nb124  1  0.50069587  0.49859931  0.10049612  1
  Nb  Nb125  1  0.80525288  0.00561306  0.40900934  1
  Nb  Nb126  1  0.39919710  0.00791679  0.40485922  1
  Nb  Nb127  1  0.19474577  0.60539191  0.00294548  1
  Nb  Nb128  1  0.19474474  0.79573588  0.59487554  1
  Nb  Nb129  1  0.40852100  0.39842148  0.20334213  1
  Nb  Nb130  1  0.60027833  0.39632743  0.19600684  1
  Nb  Nb131  1  0.19895948  0.60460697  0.19722580  1
  Nb  Nb132  1  0.19783213  0.60559781  0.59586193  1
  Nb  Nb133  1  0.40564699  0.19421694  -0.00712131  1
  Nb  Nb134  1  0.59801326  0.58577367  0.00172184  1
  Nb  Nb135  1  0.40882866  0.80760700  0.00235941  1
  Nb  Nb136  1  0.60474442  0.79188167  0.60516996  1
  Nb  Nb137  1  0.39160288  0.80236207  0.39895833  1
  Nb  Nb138  1  0.79960735  0.40333310  0.60425829  1
  Nb  Nb139  1  0.59895724  0.39762448  0.00573734  1
  Nb  Nb140  1  0.00127187  0.19515516  0.40221246  1
  Nb  Nb141  1  0.00284384  0.60355135  0.00013863  1
  Nb  Nb142  1  0.40701651  0.40147498  0.40107271  1
  Nb  Nb143  1  0.19670775  0.79905211  0.20573583  1
  Nb  Nb144  1  0.59794923  0.00773210  0.00043290  1
  Nb  Nb145  1  0.60278683  0.80295965  0.19127185  1
  Nb  Nb146  1  0.19862677  0.80160142  0.40143965  1
  Nb  Nb147  1  0.59463988  0.59921202  0.40785975  1
  Nb  Nb148  1  0.39877872  0.60081730  0.40350820  1
  Nb  Nb149  1  0.79705274  0.80043694  0.19860812  1
  Pd  Pd150  1  -0.00084539  0.19244155  0.59860769  1
  Pd  Pd151  1  0.79916321  0.20613554  0.60040818  1
  Pd  Pd152  1  0.59875445  0.19532335  0.39692177  1
  Pd  Pd153  1  0.39649095  0.80988540  0.20064574  1
  Pd  Pd154  1  0.40107822  0.00062284  -0.00633754  1
  Pd  Pd155  1  0.40538107  0.20076958  0.40231555  1
  Pd  Pd156  1  0.20518189  0.38567955  0.40648699  1
  Pd  Pd157  1  0.60690662  0.39177957  0.60282415  1
  Pd  Pd158  1  0.79461949  0.00302295  -0.00846357  1
  Pd  Pd159  1  0.19181462  0.00217589  0.80346371  1
  Pd  Pd160  1  0.60163852  0.20938050  0.60334278  1
  Pd  Pd161  1  0.19485693  0.20560936  0.40382251  1
  Pd  Pd162  1  0.19937652  0.19886622  0.79812304  1
  Pd  Pd163  1  0.60574548  0.19963937  0.80496141  1
  Pd  Pd164  1  0.19923276  0.40046922  0.59962871  1
  Pd  Pd165  1  0.19336363  0.39384263  0.80029372  1
  Pd  Pd166  1  -0.00582086  0.59995790  0.40202927  1
  Pd  Pd167  1  0.20404829  -0.01021269  0.41015891  1
  Pd  Pd168  1  0.00070439  0.60460417  0.59719422  1
  Pd  Pd169  1  0.40374504  0.80551969  0.80560637  1
  Pd  Pd170  1  0.00993491  0.59183746  0.19482591  1
  Pd  Pd171  1  -0.01029746  0.80456359  0.80409522  1
  Pd  Pd172  1  0.79459150  -0.00928586  0.59728629  1
  Pd  Pd173  1  0.39227446  0.20717076  0.19296049  1
  Pd  Pd174  1  0.59729043  0.40582961  0.81064066  1
  Pd  Pd175  1  0.38900961  0.59147732  0.20392432  1
  Pd  Pd176  1  0.18685105  -0.00644742  0.59178481  1
  Pd  Pd177  1  0.80009622  0.60246811  0.39750032  1
  Pd  Pd178  1  0.00093979  0.39936467  0.19595614  1
  Pd  Pd179  1  -0.00821996  0.39135479  0.40295070  1
  Pd  Pd180  1  0.38985994  0.19905753  0.80417895  1
  Pd  Pd181  1  0.20825747  0.40541061  0.19266892  1
  Pd  Pd182  1  0.79843004  0.20405803  0.19872603  1
  Pd  Pd183  1  0.40513987  0.59827123  0.80364249  1
  Pd  Pd184  1  0.80519643  0.59949870  0.60473214  1
  Pd  Pd185  1  0.60025637  0.19767591  -0.00773869  1
  Pd  Pd186  1  0.39057883  0.60496489  0.60081293  1
  Pd  Pd187  1  0.61296207  0.59891336  0.19707240  1
  Pd  Pd188  1  0.59911321  0.01039986  0.40596457  1
  Pd  Pd189  1  0.80529732  0.39391530  0.40695212  1
  Pd  Pd190  1  -0.00819079  0.00643466  0.39515563  1
  Pd  Pd191  1  0.59200352  0.58448567  0.81328547  1
  Pd  Pd192  1  0.19545086  0.19699262  0.60125352  1
  Pd  Pd193  1  0.80959865  0.81075726  0.39042710  1
  Pd  Pd194  1  0.40472996  0.20570779  0.60252183  1
  Pd  Pd195  1  0.60031166  0.80480847  0.00167312  1
  Pd  Pd196  1  0.40063265  0.80213199  0.59924706  1
  Pd  Pd197  1  0.00167717  0.19485114  0.20059228  1
  Pd  Pd198  1  0.80365896  0.80324356  0.79428608  1
  Pd  Pd199  1  0.81111064  0.19213159  0.40116916  1
  Rh  Rh200  1  0.19731590  0.60403073  0.40025289  1
  Rh  Rh201  1  0.79567331  -0.00828814  0.20715363  1
  Rh  Rh202  1  0.00572779  0.00455366  0.19564594  1
  Rh  Rh203  1  0.79615219  0.39614400  0.00085703  1
  Rh  Rh204  1  0.40156335  0.39094886  0.59986457  1
  Rh  Rh205  1  0.19485293  -0.00511887  0.19251358  1
  Rh  Rh206  1  0.19871368  0.20111851  0.19642385  1
  Rh  Rh207  1  0.79660025  0.38834600  0.20176007  1
  Rh  Rh208  1  0.61041316  0.20856376  0.20773737  1
  Rh  Rh209  1  0.00044065  0.00147239  0.80253931  1
  Rh  Rh210  1  0.60810510  0.00375924  0.80613523  1
  Rh  Rh211  1  0.80408238  0.19709051  -0.00139115  1
  Rh  Rh212  1  0.20095222  0.60256502  0.79875752  1
  Rh  Rh213  1  0.40273977  0.61199485  -0.00756599  1
  Rh  Rh214  1  0.19464860  -0.00155487  -0.00092256  1
  Rh  Rh215  1  0.21023379  0.19730109  -0.00676908  1
  Rh  Rh216  1  -0.00924644  0.80071618  -0.00848849  1
  Rh  Rh217  1  0.80436257  0.80652889  0.00378117  1
  Rh  Rh218  1  0.39864776  0.39778816  0.79189307  1
  Rh  Rh219  1  -0.00686382  0.60568842  0.80975292  1
  Rh  Rh220  1  -0.00004357  0.40253886  -0.00291454  1
  Rh  Rh221  1  0.39847599  0.00183577  0.20837597  1
  Rh  Rh222  1  -0.00089285  0.80118405  0.39576567  1
  Rh  Rh223  1  -0.00155148  0.80059179  0.20878217  1
  Rh  Rh224  1  0.00208731  0.80309645  0.60228512  1
  Rh  Rh225  1  0.41091327  0.37892202  0.01447007  1
  Rh  Rh226  1  0.00396354  0.39149166  0.80566180  1
  Rh  Rh227  1  0.60216308  0.60537447  0.59613267  1
  Rh  Rh228  1  0.80494747  0.19644523  0.80123515  1
  Rh  Rh229  1  0.20067498  0.80331460  0.78996814  1
  Rh  Rh230  1  0.79650479  0.60874756  0.20813352  1
  Rh  Rh231  1  0.58662462  0.79174305  0.39878661  1
  Rh  Rh232  1  0.39560674  0.00251911  0.80003485  1
  Rh  Rh233  1  0.80522638  0.40028838  0.79473611  1
  Rh  Rh234  1  0.19318989  0.40644180  -0.00537025  1
  Rh  Rh235  1  0.00097980  0.00114713  -0.00203621  1
  Rh  Rh236  1  0.80053653  0.00142106  0.80079248  1
  Rh  Rh237  1  0.40830962  0.00383959  0.59630284  1
  Rh  Rh238  1  0.60917026  -0.00633575  0.19037875  1
  Rh  Rh239  1  -0.00797559  0.40066223  0.59421556  1
  Rh  Rh240  1  0.00253239  0.00145922  0.60210871  1
  Rh  Rh241  1  0.21278287  0.80001274  0.01237877  1
  Rh  Rh242  1  -0.00717023  0.19701320  -0.00131910  1
  Rh  Rh243  1  0.00101101  0.19845668  0.80252602  1
  Rh  Rh244  1  0.60524011  -0.00703435  0.59865827  1
  Rh  Rh245  1  0.60102105  0.80307506  0.79008637  1
  Rh  Rh246  1  0.59842847  0.40578800  0.39543605  1
  Rh  Rh247  1  0.79488304  0.80323879  0.60560301  1
  Rh  Rh248  1  0.80073845  0.59406237  -0.00672665  1
  Rh  Rh249  1  0.80391038  0.60072661  0.79662118  1
