# generated using pymatgen
data_ZrScNbPdRh
_symmetry_space_group_name_H-M   'P 1'
_cell_length_a   16.56189623
_cell_length_b   16.55857706
_cell_length_c   16.56247479
_cell_angle_alpha   90.00614296
_cell_angle_beta   89.96510119
_cell_angle_gamma   89.99764124
_symmetry_Int_Tables_number   1
_chemical_formula_structural   ZrScNbPdRh
_chemical_formula_sum   'Zr50 Sc50 Nb50 Pd50 Rh50'
_cell_volume   4542.11598322
_cell_formula_units_Z   50
loop_
 _symmetry_equiv_pos_site_id
 _symmetry_equiv_pos_as_xyz
  1  'x, y, z'
loop_
 _atom_site_type_symbol
 _atom_site_label
 _atom_site_symmetry_multiplicity
 _atom_site_fract_x
 _atom_site_fract_y
 _atom_site_fract_z
 _atom_site_occupancy
  Zr  Zr0  1  0.08732282  0.89923206  0.69534660  1
  Zr  Zr1  1  0.89976797  0.30235315  0.89956623  1
  Zr  Zr2  1  0.50029891  0.10117271  0.29808687  1
  Zr  Zr3  1  0.10036390  0.30016645  0.50059427  1
  Zr  Zr4  1  0.10120340  0.90230916  0.91478615  1
  Zr  Zr5  1  0.30230075  0.11227750  0.70066621  1
  Zr  Zr6  1  0.30959559  0.89840600  0.70174910  1
  Zr  Zr7  1  0.10110947  0.70359024  0.50258664  1
  Zr  Zr8  1  0.70589668  0.09512665  0.90657866  1
  Zr  Zr9  1  0.49962343  0.70036928  0.70051556  1
  Zr  Zr10  1  0.89729564  0.29777257  0.69848817  1
  Zr  Zr11  1  0.29587140  0.30131263  0.10313297  1
  Zr  Zr12  1  0.90105416  0.90321102  0.30107751  1
  Zr  Zr13  1  0.69297184  0.70974385  0.10200049  1
  Zr  Zr14  1  0.30159710  0.90232346  0.29135059  1
  Zr  Zr15  1  0.50672686  0.70650225  0.90019971  1
  Zr  Zr16  1  0.90044589  0.09899679  0.70756484  1
  Zr  Zr17  1  0.89445656  0.10551151  0.50442437  1
  Zr  Zr18  1  0.50309304  0.30184705  0.89641485  1
  Zr  Zr19  1  0.30054827  0.69641577  0.49514869  1
  Zr  Zr20  1  0.89938279  0.30095830  0.50411679  1
  Zr  Zr21  1  0.10407046  0.10097342  0.50251345  1
  Zr  Zr22  1  0.70456831  0.50067430  0.69364156  1
  Zr  Zr23  1  0.50388258  0.10418017  0.10602016  1
  Zr  Zr24  1  0.89374629  0.30274799  0.09748795  1
  Zr  Zr25  1  0.09723876  0.50451244  0.71363702  1
  Zr  Zr26  1  0.89577250  0.50026855  0.29857983  1
  Zr  Zr27  1  0.29680244  0.10674408  0.49684917  1
  Zr  Zr28  1  0.10173065  0.09851580  0.29728866  1
  Zr  Zr29  1  0.29619296  0.70586586  0.10219830  1
  Zr  Zr30  1  0.30002796  0.09705064  0.29211142  1
  Zr  Zr31  1  0.30003661  0.49665977  0.09867346  1
  Zr  Zr32  1  0.50163407  0.70262648  0.10548773  1
  Zr  Zr33  1  0.50137374  0.89393488  0.30142061  1
  Zr  Zr34  1  0.70500241  0.49097769  0.89416394  1
  Zr  Zr35  1  0.89436314  0.70081421  0.71266896  1
  Zr  Zr36  1  0.30172050  0.49991612  0.70791950  1
  Zr  Zr37  1  0.49765291  0.90218280  0.89216184  1
  Zr  Zr38  1  0.09394335  0.50138285  0.09949161  1
  Zr  Zr39  1  0.29667379  0.49026514  0.29587976  1
  Zr  Zr40  1  0.70205404  0.70398767  0.89048817  1
  Zr  Zr41  1  0.49546147  0.30467998  0.50073687  1
  Zr  Zr42  1  0.29777054  0.90586849  0.90219691  1
  Zr  Zr43  1  0.29458496  0.50051403  0.89144363  1
  Zr  Zr44  1  0.90424100  0.90193618  0.89875738  1
  Zr  Zr45  1  0.30019140  0.29813227  0.88974044  1
  Zr  Zr46  1  0.90086189  0.90024385  0.69248984  1
  Zr  Zr47  1  0.09797812  0.10637444  0.69833856  1
  Zr  Zr48  1  0.50569241  0.69756441  0.29470758  1
  Zr  Zr49  1  0.28763806  0.90349384  0.10142467  1
  Sc  Sc50  1  0.90375790  0.49432736  0.70635896  1
  Sc  Sc51  1  0.89930872  0.10369580  0.90678958  1
  Sc  Sc52  1  0.89307592  0.69270428  0.50266301  1
  Sc  Sc53  1  0.70576152  0.90522766  0.70044056  1
  Sc  Sc54  1  0.08946069  0.49775888  0.49028863  1
  Sc  Sc55  1  0.29627725  0.10498992  0.89822667  1
  Sc  Sc56  1  0.30251447  0.29682085  0.49996320  1
  Sc  Sc57  1  0.10503434  0.90510335  0.29082706  1
  Sc  Sc58  1  0.49972166  0.49096094  0.10938431  1
  Sc  Sc59  1  0.51456506  0.90260152  0.49632659  1
  Sc  Sc60  1  0.70424518  0.29662288  0.51103508  1
  Sc  Sc61  1  0.69711229  0.10330021  0.69687802  1
  Sc  Sc62  1  0.69235966  0.49998361  0.30041035  1
  Sc  Sc63  1  0.08889547  0.70039392  0.69723143  1
  Sc  Sc64  1  0.09453095  0.69336695  0.90613302  1
  Sc  Sc65  1  0.89884779  0.09940811  0.09897861  1
  Sc  Sc66  1  0.50885148  0.49468318  0.49753110  1
  Sc  Sc67  1  0.30313424  0.71132341  0.30069578  1
  Sc  Sc68  1  0.50430942  0.90168160  0.70190631  1
  Sc  Sc69  1  0.49395335  0.49368215  0.89408340  1
  Sc  Sc70  1  0.29814333  0.88490944  0.49289001  1
  Sc  Sc71  1  0.29768268  0.30087391  0.30330650  1
  Sc  Sc72  1  0.29208564  0.69321202  0.89589885  1
  Sc  Sc73  1  0.89057198  0.10052472  0.29462949  1
  Sc  Sc74  1  0.69884383  0.09792104  0.50293071  1
  Sc  Sc75  1  0.30463454  0.48653013  0.49240656  1
  Sc  Sc76  1  0.09746720  0.10176239  0.09558366  1
  Sc  Sc77  1  0.09064338  0.29680299  0.70787490  1
  Sc  Sc78  1  0.89427533  0.69943411  0.29855451  1
  Sc  Sc79  1  0.50750822  0.89490022  0.10517169  1
  Sc  Sc80  1  0.50369676  0.10246342  0.69739961  1
  Sc  Sc81  1  0.50255539  0.10030664  0.89154000  1
  Sc  Sc82  1  0.70093709  0.69520480  0.30429449  1
  Sc  Sc83  1  0.50105372  0.69779863  0.49476658  1
  Sc  Sc84  1  0.70649797  0.48644282  0.10052621  1
  Sc  Sc85  1  0.10097207  0.69615693  0.30538044  1
  Sc  Sc86  1  0.90083171  0.49730085  0.10413394  1
  Sc  Sc87  1  0.09641833  0.49075086  0.30166555  1
  Sc  Sc88  1  0.50891886  0.10415887  0.50553810  1
  Sc  Sc89  1  0.69850961  0.30203279  0.70387480  1
  Sc  Sc90  1  0.70709016  0.89971290  0.31037367  1
  Sc  Sc91  1  0.30502981  0.69437678  0.69762348  1
  Sc  Sc92  1  0.69168390  0.90311667  0.90031494  1
  Sc  Sc93  1  0.09965508  0.89945990  0.09995399  1
  Sc  Sc94  1  0.90882418  0.70161158  0.10570296  1
  Sc  Sc95  1  0.09783462  0.10939739  0.90368421  1
  Sc  Sc96  1  0.89389894  0.29621359  0.29170177  1
  Sc  Sc97  1  0.91051191  0.90208451  0.10369681  1
  Sc  Sc98  1  0.49302687  0.49489928  0.69499867  1
  Sc  Sc99  1  0.70300033  0.30049803  0.90768781  1
  Nb  Nb100  1  0.30845688  0.09768652  0.10259215  1
  Nb  Nb101  1  0.08948318  0.89906440  0.50895673  1
  Nb  Nb102  1  0.89854147  0.90227337  0.50365658  1
  Nb  Nb103  1  0.70436539  0.29784008  0.29596058  1
  Nb  Nb104  1  0.70751540  0.50816036  0.49872907  1
  Nb  Nb105  1  0.50777483  0.29687425  0.10087756  1
  Nb  Nb106  1  0.09642301  0.29744935  0.90697736  1
  Nb  Nb107  1  0.69627158  0.29527252  0.10639806  1
  Nb  Nb108  1  0.70919498  0.89399539  0.50609452  1
  Nb  Nb109  1  0.70359503  0.68798280  0.50601741  1
  Nb  Nb110  1  0.09637711  0.49767138  0.89820325  1
  Nb  Nb111  1  0.70402088  0.69782150  0.69626707  1
  Nb  Nb112  1  0.90077057  0.50520622  0.89757560  1
  Nb  Nb113  1  0.49060861  0.29310274  0.69408840  1
  Nb  Nb114  1  0.10423276  0.70368470  0.09861969  1
  Nb  Nb115  1  0.69842096  0.90379299  0.09827012  1
  Nb  Nb116  1  0.50191806  0.49569817  0.30453248  1
  Nb  Nb117  1  0.70446055  0.11043427  0.29844328  1
  Nb  Nb118  1  0.09333026  0.30239791  0.10100017  1
  Nb  Nb119  1  0.51331566  0.30703956  0.29682268  1
  Nb  Nb120  1  0.89309736  0.70141196  0.90329320  1
  Nb  Nb121  1  0.30503719  0.30007122  0.69591846  1
  Nb  Nb122  1  0.70116274  0.10200288  0.10089916  1
  Nb  Nb123  1  0.09961738  0.30112840  0.29044171  1
  Nb  Nb124  1  0.89380903  0.49343456  0.49566452  1
  Nb  Nb125  1  0.19670577  -0.00216778  0.79354626  1
  Nb  Nb126  1  0.19866076  0.59109138  0.59698813  1
  Nb  Nb127  1  -0.00140549  -0.00011466  0.40615932  1
  Nb  Nb128  1  0.39740497  0.80233844  0.00034297  1
  Nb  Nb129  1  0.40384204  0.20129300  0.00640352  1
  Nb  Nb130  1  0.60441601  0.59987577  0.79719766  1
  Nb  Nb131  1  0.19915466  0.40236500  0.60720677  1
  Nb  Nb132  1  0.61170661  0.00551728  0.20137549  1
  Nb  Nb133  1  0.60218276  0.59726439  -0.00424094  1
  Nb  Nb134  1  -0.00301211  0.80931787  0.40744944  1
  Nb  Nb135  1  0.61487900  0.79348581  0.59694358  1
  Nb  Nb136  1  0.79842995  0.60463335  -0.00390510  1
  Nb  Nb137  1  0.18952013  0.39734068  -0.00543358  1
  Nb  Nb138  1  0.20287465  -0.00666486  0.60183203  1
  Nb  Nb139  1  0.80023220  0.80000048  0.00084421  1
  Nb  Nb140  1  0.40447550  0.59322225  0.38983495  1
  Nb  Nb141  1  0.19837919  0.59996376  0.19615564  1
  Nb  Nb142  1  0.40461772  0.60307190  0.00170537  1
  Nb  Nb143  1  0.60545548  0.20720051  0.39210194  1
  Nb  Nb144  1  0.79674986  0.40128642  0.40324118  1
  Nb  Nb145  1  0.00072025  0.19789619  0.39596296  1
  Nb  Nb146  1  0.39986952  0.00254995  0.00555123  1
  Nb  Nb147  1  0.39479482  0.00111551  0.59287992  1
  Nb  Nb148  1  0.39899954  0.00153638  0.40151898  1
  Nb  Nb149  1  0.19555168  0.80684514  0.79867626  1
  Pd  Pd150  1  0.39106965  0.79083115  0.80700162  1
  Pd  Pd151  1  0.59395023  0.60047426  0.60191102  1
  Pd  Pd152  1  0.40468497  0.39075322  0.20366611  1
  Pd  Pd153  1  0.80414699  0.79277046  0.40630126  1
  Pd  Pd154  1  0.20145512  0.79489289  0.60947499  1
  Pd  Pd155  1  0.20707160  0.59113673  0.39812829  1
  Pd  Pd156  1  0.60547777  0.20086480  0.80040401  1
  Pd  Pd157  1  0.59097982  0.00030504  0.00495396  1
  Pd  Pd158  1  0.40119486  0.21258884  0.20158745  1
  Pd  Pd159  1  -0.00532139  0.19759450  0.20047853  1
  Pd  Pd160  1  0.39653395  0.58990024  0.58608790  1
  Pd  Pd161  1  -0.00835016  0.60234248  -0.00030639  1
  Pd  Pd162  1  0.00563683  0.40611639  0.60438431  1
  Pd  Pd163  1  0.60358915  0.00862872  0.39676326  1
  Pd  Pd164  1  0.80048597  0.00530625  0.40329007  1
  Pd  Pd165  1  0.79583123  0.00567584  0.60295843  1
  Pd  Pd166  1  -0.00238586  0.59531168  0.59743888  1
  Pd  Pd167  1  0.00546755  0.00714232  0.80912768  1
  Pd  Pd168  1  0.00683429  0.60237995  0.20584473  1
  Pd  Pd169  1  0.79348093  0.59878433  0.19114662  1
  Pd  Pd170  1  0.60695864  0.58956835  0.19252815  1
  Pd  Pd171  1  0.60300444  0.39739333  0.60121065  1
  Pd  Pd172  1  0.20000226  -0.01139023  0.40780466  1
  Pd  Pd173  1  -0.00911273  0.38839218  0.38996456  1
  Pd  Pd174  1  0.80633149  -0.00767025  0.00421758  1
  Pd  Pd175  1  0.59939385  0.19918438  -0.00418229  1
  Pd  Pd176  1  0.00659463  0.79670461  0.20897857  1
  Pd  Pd177  1  0.19806672  0.19777457  0.19522410  1
  Pd  Pd178  1  0.19163009  0.38909923  0.79828953  1
  Pd  Pd179  1  0.59434769  0.40218967  0.78925472  1
  Pd  Pd180  1  0.19484320  0.20833416  0.39254754  1
  Pd  Pd181  1  0.59922383  0.40469161  0.00426023  1
  Pd  Pd182  1  -0.00282919  0.40194869  -0.00281622  1
  Pd  Pd183  1  0.60966690  0.79036619  0.40547698  1
  Pd  Pd184  1  0.79620374  0.81404332  0.80300210  1
  Pd  Pd185  1  0.41504859  0.80722275  0.58888852  1
  Pd  Pd186  1  0.00602804  0.79594460  0.81011913  1
  Pd  Pd187  1  0.60450866  0.00441845  0.79272725  1
  Pd  Pd188  1  0.39597573  0.39789452  -0.00180624  1
  Pd  Pd189  1  0.81494625  0.59428829  0.60729751  1
  Pd  Pd190  1  0.18849319  0.80808543  0.39396699  1
  Pd  Pd191  1  0.79429477  0.20053976  0.80340854  1
  Pd  Pd192  1  0.20194043  0.59478215  0.00285841  1
  Pd  Pd193  1  0.79641842  -0.00241029  0.19658552  1
  Pd  Pd194  1  0.39333404  0.59864344  0.20236421  1
  Pd  Pd195  1  0.79887767  0.80440547  0.19509284  1
  Pd  Pd196  1  0.61258439  0.39434859  0.40577727  1
  Pd  Pd197  1  0.20486197  0.20193261  0.00441572  1
  Pd  Pd198  1  -0.00743545  0.60822631  0.39935925  1
  Pd  Pd199  1  0.40857664  0.20058916  0.39680952  1
  Rh  Rh200  1  0.60044635  0.80240353  -0.00065564  1
  Rh  Rh201  1  -0.00145996  0.01136302  0.59546647  1
  Rh  Rh202  1  0.39783667  0.80726368  0.19205101  1
  Rh  Rh203  1  0.19467597  0.20232534  0.79687427  1
  Rh  Rh204  1  -0.00342911  0.60426247  0.80812176  1
  Rh  Rh205  1  0.80509761  0.40441463  -0.00133012  1
  Rh  Rh206  1  -0.00564733  0.20270120  0.00316290  1
  Rh  Rh207  1  0.80017059  0.20019234  0.18913934  1
  Rh  Rh208  1  0.60569595  0.19887583  0.20415558  1
  Rh  Rh209  1  -0.00558979  0.79665077  0.00198083  1
  Rh  Rh210  1  -0.00230482  0.39723553  0.80763748  1
  Rh  Rh211  1  0.61386520  0.81200557  0.21212220  1
  Rh  Rh212  1  0.59935860  -0.01012069  0.60186075  1
  Rh  Rh213  1  0.79805188  0.59342248  0.80093380  1
  Rh  Rh214  1  0.40674406  0.20163970  0.80415469  1
  Rh  Rh215  1  0.59813177  0.20715754  0.59622594  1
  Rh  Rh216  1  0.39376012  0.40102487  0.60107283  1
  Rh  Rh217  1  0.40564877  0.39339014  0.79356737  1
  Rh  Rh218  1  0.79932963  0.20899786  0.40219470  1
  Rh  Rh219  1  0.79617289  0.40052698  0.20746396  1
  Rh  Rh220  1  0.79779571  0.20160765  0.00424837  1
  Rh  Rh221  1  0.59600018  0.60057568  0.40079920  1
  Rh  Rh222  1  0.79965348  0.59447494  0.39567610  1
  Rh  Rh223  1  0.40416161  0.19491197  0.59587272  1
  Rh  Rh224  1  0.80489019  0.39661737  0.79822820  1
  Rh  Rh225  1  0.41140500  -0.00832872  0.19962453  1
  Rh  Rh226  1  0.18987155  0.40310872  0.19308186  1
  Rh  Rh227  1  0.79979552  0.00180968  0.80238047  1
  Rh  Rh228  1  0.79906639  0.40371003  0.59782067  1
  Rh  Rh229  1  0.80107084  0.79616794  0.59948881  1
  Rh  Rh230  1  -0.00266120  0.39723845  0.20134360  1
  Rh  Rh231  1  0.41198666  0.60439682  0.80806894  1
  Rh  Rh232  1  0.40690321  0.79824245  0.40137480  1
  Rh  Rh233  1  0.20248611  0.01342314  -0.00202654  1
  Rh  Rh234  1  0.60735230  0.79865046  0.78408470  1
  Rh  Rh235  1  -0.00034683  0.00469986  0.00221100  1
  Rh  Rh236  1  0.39520804  0.01246904  0.79601651  1
  Rh  Rh237  1  -0.01608646  0.78779247  0.59402458  1
  Rh  Rh238  1  -0.00400283  0.20108511  0.80727395  1
  Rh  Rh239  1  0.19159404  0.79145511  0.20547406  1
  Rh  Rh240  1  0.20114590  0.79317911  -0.00786733  1
  Rh  Rh241  1  0.18971409  0.61499663  0.79016443  1
  Rh  Rh242  1  0.40376781  0.39954476  0.39325870  1
  Rh  Rh243  1  0.19775837  0.21213165  0.60732940  1
  Rh  Rh244  1  0.00132082  0.00405682  0.20392730  1
  Rh  Rh245  1  0.19580454  0.39343524  0.40471167  1
  Rh  Rh246  1  0.60412407  0.40013791  0.19795076  1
  Rh  Rh247  1  0.79754079  0.19753875  0.60842759  1
  Rh  Rh248  1  0.19404948  0.00923884  0.18964598  1
  Rh  Rh249  1  -0.00189782  0.19861494  0.59710797  1
