# generated using pymatgen
data_ZrScNbPdRh
_symmetry_space_group_name_H-M   'P 1'
_cell_length_a   16.55293819
_cell_length_b   16.55410306
_cell_length_c   16.55469525
_cell_angle_alpha   89.99503829
_cell_angle_beta   90.02579319
_cell_angle_gamma   89.98888555
_symmetry_Int_Tables_number   1
_chemical_formula_structural   ZrScNbPdRh
_chemical_formula_sum   'Zr50 Sc50 Nb50 Pd50 Rh50'
_cell_volume   4536.30121639
_cell_formula_units_Z   50
loop_
 _symmetry_equiv_pos_site_id
 _symmetry_equiv_pos_as_xyz
  1  'x, y, z'
loop_
 _atom_site_type_symbol
 _atom_site_label
 _atom_site_symmetry_multiplicity
 _atom_site_fract_x
 _atom_site_fract_y
 _atom_site_fract_z
 _atom_site_occupancy
  Zr  Zr0  1  0.89639614  0.90488162  0.90049545  1
  Zr  Zr1  1  0.10598145  0.30281883  0.50592139  1
  Zr  Zr2  1  0.30176275  0.10135791  0.49457287  1
  Zr  Zr3  1  0.10399132  0.90582748  0.89510150  1
  Zr  Zr4  1  0.69730310  0.29995432  0.30168870  1
  Zr  Zr5  1  0.10812308  0.49714756  0.10176566  1
  Zr  Zr6  1  0.70149708  0.90539548  0.49273659  1
  Zr  Zr7  1  0.50481254  0.89546773  0.69728877  1
  Zr  Zr8  1  0.89692640  0.69505030  0.10490823  1
  Zr  Zr9  1  0.50068871  0.28737595  0.69836477  1
  Zr  Zr10  1  0.50238872  0.29634767  0.50321867  1
  Zr  Zr11  1  0.10261595  0.50009274  0.90676287  1
  Zr  Zr12  1  0.09476792  0.89660842  0.10242501  1
  Zr  Zr13  1  0.89965276  0.50124034  0.90543012  1
  Zr  Zr14  1  0.89872924  0.89486676  0.29560921  1
  Zr  Zr15  1  0.31127232  0.69749315  0.90285553  1
  Zr  Zr16  1  0.89702180  0.70339961  0.70300727  1
  Zr  Zr17  1  0.89421402  0.90253294  0.10181029  1
  Zr  Zr18  1  0.69865898  0.49597943  0.90985376  1
  Zr  Zr19  1  0.30355201  0.09315523  0.90036030  1
  Zr  Zr20  1  0.70057446  0.90195716  0.28980922  1
  Zr  Zr21  1  0.30181996  0.50030138  0.50440838  1
  Zr  Zr22  1  0.09467530  0.90634589  0.29864598  1
  Zr  Zr23  1  0.09264782  0.09520038  0.70509535  1
  Zr  Zr24  1  0.90835534  0.90255975  0.69263954  1
  Zr  Zr25  1  0.29861816  0.89717485  0.90137561  1
  Zr  Zr26  1  0.50114327  0.09792812  0.89909345  1
  Zr  Zr27  1  0.69416576  0.49419907  0.49772264  1
  Zr  Zr28  1  0.49574538  0.50712847  0.90745174  1
  Zr  Zr29  1  0.90137576  0.30270079  0.29833527  1
  Zr  Zr30  1  0.49988696  0.70485425  0.29592184  1
  Zr  Zr31  1  0.50231901  0.50088230  0.30154435  1
  Zr  Zr32  1  0.09601680  0.70345929  0.69587018  1
  Zr  Zr33  1  0.30336761  0.90579548  0.50108820  1
  Zr  Zr34  1  0.69738213  0.70307275  0.90275826  1
  Zr  Zr35  1  0.09710860  0.69119255  0.90702321  1
  Zr  Zr36  1  0.69674867  0.10167852  0.30634764  1
  Zr  Zr37  1  0.29564104  0.10252667  0.29714440  1
  Zr  Zr38  1  0.50066019  0.50230217  0.49638074  1
  Zr  Zr39  1  0.30843618  0.49990251  0.69971856  1
  Zr  Zr40  1  0.30768294  0.49676754  0.29390864  1
  Zr  Zr41  1  0.69715902  0.90242649  0.70768826  1
  Zr  Zr42  1  0.70077191  0.49784392  0.30051247  1
  Zr  Zr43  1  0.30181425  0.70728283  0.69965848  1
  Zr  Zr44  1  0.29811793  0.29522785  0.50750568  1
  Zr  Zr45  1  0.69954767  0.49898925  0.10007804  1
  Zr  Zr46  1  0.30350120  0.69887920  0.50622875  1
  Zr  Zr47  1  0.08814791  0.09882384  0.90103205  1
  Zr  Zr48  1  0.09819497  0.29445695  0.28814216  1
  Zr  Zr49  1  0.30286000  0.29687401  0.69313892  1
  Sc  Sc50  1  0.89482847  0.69338608  0.90356553  1
  Sc  Sc51  1  0.90106507  0.10059985  0.08572332  1
  Sc  Sc52  1  0.10504423  0.69689227  0.10765569  1
  Sc  Sc53  1  0.50573501  0.30127267  0.10355486  1
  Sc  Sc54  1  0.90866647  0.70083797  0.50499223  1
  Sc  Sc55  1  0.89677151  0.29353666  0.90310721  1
  Sc  Sc56  1  0.09843850  0.29992958  0.90560375  1
  Sc  Sc57  1  0.09478068  0.49397421  0.69350181  1
  Sc  Sc58  1  0.70051725  0.29816266  0.49781265  1
  Sc  Sc59  1  0.50034853  0.10992358  0.29828759  1
  Sc  Sc60  1  0.29600410  0.50449299  0.10212329  1
  Sc  Sc61  1  0.89955830  0.49682756  0.50476049  1
  Sc  Sc62  1  0.90379855  0.30102078  0.10381544  1
  Sc  Sc63  1  0.30776815  0.29343190  0.89795712  1
  Sc  Sc64  1  0.30703263  0.70245649  0.29587261  1
  Sc  Sc65  1  0.70021640  0.70637925  0.09816604  1
  Sc  Sc66  1  0.89676509  0.29383431  0.49905774  1
  Sc  Sc67  1  0.69703257  0.09419166  0.10298178  1
  Sc  Sc68  1  0.49320277  0.70876279  0.70029756  1
  Sc  Sc69  1  0.10676169  0.90292667  0.69438505  1
  Sc  Sc70  1  0.49757874  0.48566755  0.69863016  1
  Sc  Sc71  1  0.68981174  0.71755972  0.70537628  1
  Sc  Sc72  1  0.49643130  0.90157139  0.29570325  1
  Sc  Sc73  1  0.89161096  0.50026037  0.10790215  1
  Sc  Sc74  1  0.30115510  0.09745874  0.69017626  1
  Sc  Sc75  1  0.29027261  0.30782338  0.10847811  1
  Sc  Sc76  1  0.30403268  0.70414547  0.09964771  1
  Sc  Sc77  1  0.49961714  0.29094788  0.90034937  1
  Sc  Sc78  1  0.49908568  0.49799880  0.10163303  1
  Sc  Sc79  1  0.69984972  0.30685590  0.10152603  1
  Sc  Sc80  1  0.09105428  0.10523041  0.10230072  1
  Sc  Sc81  1  0.69721122  0.47632517  0.70037112  1
  Sc  Sc82  1  0.10117207  0.68567448  0.50249432  1
  Sc  Sc83  1  0.09902472  0.29996146  0.10356872  1
  Sc  Sc84  1  0.70121203  0.30517248  0.90516877  1
  Sc  Sc85  1  0.69395802  0.90028907  0.90251202  1
  Sc  Sc86  1  0.50572183  0.89968363  0.09996967  1
  Sc  Sc87  1  0.30136719  0.29665908  0.29536680  1
  Sc  Sc88  1  0.69188615  0.70092622  0.49432093  1
  Sc  Sc89  1  0.30711157  0.90019030  0.30240913  1
  Sc  Sc90  1  0.89815857  0.48857713  0.70250073  1
  Sc  Sc91  1  0.49660602  0.70159320  0.50205121  1
  Sc  Sc92  1  0.49951164  0.10192679  0.09612260  1
  Sc  Sc93  1  0.69578440  0.10208422  0.90416234  1
  Sc  Sc94  1  0.50183467  0.30291664  0.29494357  1
  Sc  Sc95  1  0.70620448  0.70749662  0.29485013  1
  Sc  Sc96  1  0.89472019  0.29286906  0.69721495  1
  Sc  Sc97  1  0.90366238  0.90762194  0.49629649  1
  Sc  Sc98  1  0.09916113  0.29775180  0.69233149  1
  Sc  Sc99  1  0.10293319  0.09384904  0.48927937  1
  Nb  Nb100  1  0.91257405  0.10710192  0.31103525  1
  Nb  Nb101  1  0.89088324  0.10041811  0.49944293  1
  Nb  Nb102  1  0.09426022  0.70002913  0.30332345  1
  Nb  Nb103  1  0.69942536  0.10064806  0.49627439  1
  Nb  Nb104  1  0.30395442  0.89769258  0.70559435  1
  Nb  Nb105  1  0.90403480  0.69386566  0.29912911  1
  Nb  Nb106  1  0.50355561  0.90149158  0.89494299  1
  Nb  Nb107  1  0.70269432  0.90299097  0.10761310  1
  Nb  Nb108  1  0.09787300  0.50852075  0.30435191  1
  Nb  Nb109  1  0.29694325  0.49929244  0.90325654  1
  Nb  Nb110  1  0.49968690  0.70052287  0.91321261  1
  Nb  Nb111  1  0.90100885  0.50378882  0.29783031  1
  Nb  Nb112  1  0.90319659  0.10174542  0.89211802  1
  Nb  Nb113  1  0.50335230  0.10058849  0.50237582  1
  Nb  Nb114  1  0.50150003  0.69483522  0.09629137  1
  Nb  Nb115  1  0.29929867  0.09529918  0.09707642  1
  Nb  Nb116  1  0.69293284  0.29479425  0.69390075  1
  Nb  Nb117  1  0.10226226  0.49881893  0.49283230  1
  Nb  Nb118  1  0.09831188  0.09925691  0.29775238  1
  Nb  Nb119  1  0.50963981  0.09933564  0.70173977  1
  Nb  Nb120  1  0.89699071  0.09985385  0.69968985  1
  Nb  Nb121  1  0.29381485  0.91003800  0.09892781  1
  Nb  Nb122  1  0.69857329  0.10364707  0.69647734  1
  Nb  Nb123  1  0.50008412  0.89911449  0.50011631  1
  Nb  Nb124  1  0.10070361  0.89637755  0.49239462  1
  Nb  Nb125  1  0.80468843  0.60003861  0.40002257  1
  Nb  Nb126  1  0.20350338  0.19424260  -0.00101694  1
  Nb  Nb127  1  0.40537511  -0.00537239  0.79593523  1
  Nb  Nb128  1  0.20055017  0.19813672  0.80170115  1
  Nb  Nb129  1  0.00118840  0.40621004  0.00249468  1
  Nb  Nb130  1  0.00166184  0.80067913  0.80589228  1
  Nb  Nb131  1  0.80308897  0.19690044  0.20800298  1
  Nb  Nb132  1  0.79784081  0.80152609  0.59844532  1
  Nb  Nb133  1  0.60160823  0.00635033  0.59530285  1
  Nb  Nb134  1  0.59940737  0.59928062  0.80090254  1
  Nb  Nb135  1  0.59840269  0.60452980  0.19872795  1
  Nb  Nb136  1  0.20502259  0.40003534  0.80202897  1
  Nb  Nb137  1  0.20322169  0.59579825  0.80120082  1
  Nb  Nb138  1  0.19423749  0.79831924  0.40022074  1
  Nb  Nb139  1  0.60472949  0.59806250  0.60963531  1
  Nb  Nb140  1  0.00600661  0.40694039  0.39442999  1
  Nb  Nb141  1  0.00520317  0.79599445  0.39633315  1
  Nb  Nb142  1  0.20027386  0.00202475  0.19831720  1
  Nb  Nb143  1  0.78755765  0.59650412  0.79457014  1
  Nb  Nb144  1  0.78963668  0.60242327  0.60424114  1
  Nb  Nb145  1  0.59665704  0.80697126  0.39777168  1
  Nb  Nb146  1  0.80313708  0.01154045  0.79475482  1
  Nb  Nb147  1  0.19514769  0.40525938  0.39854325  1
  Nb  Nb148  1  -0.00092103  0.80019535  -0.00035545  1
  Nb  Nb149  1  0.39367322  0.40233035  -0.00185403  1
  Pd  Pd150  1  0.59124166  0.00666182  0.19868302  1
  Pd  Pd151  1  0.80663690  0.00426398  0.39128210  1
  Pd  Pd152  1  0.79253391  0.00436201  -0.00765903  1
  Pd  Pd153  1  0.00467407  0.39163079  0.80529449  1
  Pd  Pd154  1  0.39918898  0.20345330  0.19220335  1
  Pd  Pd155  1  0.40478846  0.60320265  0.79543246  1
  Pd  Pd156  1  0.59041520  -0.00229440  0.39802730  1
  Pd  Pd157  1  0.59250816  0.39795077  0.80765691  1
  Pd  Pd158  1  0.19787005  0.00050372  0.59888155  1
  Pd  Pd159  1  0.79431095  -0.00294226  0.60339634  1
  Pd  Pd160  1  0.39880532  0.80602469  0.18854101  1
  Pd  Pd161  1  0.39274562  0.20996151  0.01266774  1
  Pd  Pd162  1  -0.00660913  0.39732334  0.59307761  1
  Pd  Pd163  1  0.60042108  0.80766916  0.00367558  1
  Pd  Pd164  1  0.40031693  0.39442730  0.80730560  1
  Pd  Pd165  1  0.81112898  0.01517332  0.20574400  1
  Pd  Pd166  1  0.80179875  0.80051248  0.00346535  1
  Pd  Pd167  1  0.19429547  0.79177958  0.80239044  1
  Pd  Pd168  1  -0.00486400  0.00958123  0.19722053  1
  Pd  Pd169  1  0.80006563  0.39554032  0.80073159  1
  Pd  Pd170  1  0.40335406  0.20305124  0.39833063  1
  Pd  Pd171  1  0.19880199  0.80403423  0.59227486  1
  Pd  Pd172  1  0.60540924  0.20243824  0.00510673  1
  Pd  Pd173  1  0.00360893  0.59604065  0.19383075  1
  Pd  Pd174  1  0.40318011  0.80990054  0.00650380  1
  Pd  Pd175  1  0.18784704  0.00762626  0.00655461  1
  Pd  Pd176  1  0.39428495  0.39063027  0.40264789  1
  Pd  Pd177  1  0.20559324  0.80563551  0.20759322  1
  Pd  Pd178  1  0.79509836  0.20264818  0.59695070  1
  Pd  Pd179  1  0.19782422  0.59350757  0.60977982  1
  Pd  Pd180  1  0.39736347  0.60593085  0.39868373  1
  Pd  Pd181  1  0.20487500  0.60385770  0.20674468  1
  Pd  Pd182  1  0.60915876  0.20306789  0.80594281  1
  Pd  Pd183  1  0.39958827  0.00209423  0.19902290  1
  Pd  Pd184  1  0.19570409  0.20719926  0.39735003  1
  Pd  Pd185  1  -0.00225529  0.59986234  0.79346380  1
  Pd  Pd186  1  0.19595888  0.79496668  0.00222415  1
  Pd  Pd187  1  0.00594239  0.20628679  0.40864741  1
  Pd  Pd188  1  0.40832025  0.00169059  0.60543515  1
  Pd  Pd189  1  -0.00806932  0.59157458  0.60343095  1
  Pd  Pd190  1  0.00285242  0.21037445  0.79746453  1
  Pd  Pd191  1  0.79179651  0.19896525  0.80072062  1
  Pd  Pd192  1  0.00142935  0.19055813  0.59127496  1
  Pd  Pd193  1  0.40963075  -0.00792020  -0.00188835  1
  Pd  Pd194  1  0.79610407  0.20127952  0.00887806  1
  Pd  Pd195  1  0.00456007  0.00805091  0.58904969  1
  Pd  Pd196  1  0.20943500  0.60292554  0.39349119  1
  Pd  Pd197  1  0.40660338  0.00569922  0.39517098  1
  Pd  Pd198  1  0.80871996  0.40457148  0.40320150  1
  Pd  Pd199  1  0.80504979  0.79106887  0.40698516  1
  Rh  Rh200  1  0.60640094  0.19508963  0.59370973  1
  Rh  Rh201  1  0.39539946  0.59390339  0.00961394  1
  Rh  Rh202  1  0.79846044  0.39354447  0.60001759  1
  Rh  Rh203  1  -0.00422039  -0.00152863  0.40168298  1
  Rh  Rh204  1  0.59515235  0.39064218  0.39991718  1
  Rh  Rh205  1  0.79937425  0.39313769  0.20104617  1
  Rh  Rh206  1  0.81201253  0.39641225  0.00433305  1
  Rh  Rh207  1  0.60486573  0.80433781  0.58598087  1
  Rh  Rh208  1  0.60347941  0.60177600  0.00474738  1
  Rh  Rh209  1  -0.00059572  -0.00547451  -0.00015089  1
  Rh  Rh210  1  0.58686293  0.79018472  0.81273078  1
  Rh  Rh211  1  0.00208475  0.80264763  0.59533221  1
  Rh  Rh212  1  0.80038333  0.19521414  0.39712932  1
  Rh  Rh213  1  0.40579308  0.80513661  0.80737019  1
  Rh  Rh214  1  0.59709623  0.39827188  0.59697085  1
  Rh  Rh215  1  0.39648955  0.18627353  0.78989322  1
  Rh  Rh216  1  0.60021846  0.79697863  0.20002422  1
  Rh  Rh217  1  0.80259985  0.79743743  0.19603693  1
  Rh  Rh218  1  0.59909433  0.40765550  0.20165400  1
  Rh  Rh219  1  0.40449419  0.19114589  0.59982851  1
  Rh  Rh220  1  0.59672031  0.20230060  0.40351901  1
  Rh  Rh221  1  0.79106707  0.60143594  0.20728457  1
  Rh  Rh222  1  0.60182854  -0.00428037  0.00335120  1
  Rh  Rh223  1  -0.00367731  0.59762316  0.01348636  1
  Rh  Rh224  1  0.40734118  0.60120331  0.19538188  1
  Rh  Rh225  1  0.20120928  0.18839585  0.19101332  1
  Rh  Rh226  1  0.20256763  0.40753132  0.60171266  1
  Rh  Rh227  1  0.79523887  0.60033635  -0.00235129  1
  Rh  Rh228  1  0.19042242  0.18609784  0.60455258  1
  Rh  Rh229  1  -0.00798189  -0.00633795  0.79871990  1
  Rh  Rh230  1  0.41460220  0.59828935  0.60553831  1
  Rh  Rh231  1  0.40438015  0.39681682  0.59461110  1
  Rh  Rh232  1  0.21162838  0.00627776  0.79128849  1
  Rh  Rh233  1  0.60511185  0.61277354  0.39080250  1
  Rh  Rh234  1  0.58724415  0.39596892  -0.00293704  1
  Rh  Rh235  1  -0.00968217  0.19332897  0.19607796  1
  Rh  Rh236  1  0.00268773  0.20908941  0.00066746  1
  Rh  Rh237  1  0.40095748  0.79983992  0.40715612  1
  Rh  Rh238  1  -0.00911465  0.59949577  0.40364843  1
  Rh  Rh239  1  -0.00539941  0.79354843  0.19877356  1
  Rh  Rh240  1  0.20225443  0.38666797  -0.00639559  1
  Rh  Rh241  1  0.00365911  0.40992196  0.19907598  1
  Rh  Rh242  1  0.39617739  0.80598947  0.59628651  1
  Rh  Rh243  1  0.19647652  0.40597944  0.21276697  1
  Rh  Rh244  1  0.60139850  0.00533910  0.79791565  1
  Rh  Rh245  1  0.81034297  0.80898979  0.79393371  1
  Rh  Rh246  1  0.40096715  0.39953434  0.19128614  1
  Rh  Rh247  1  0.20934127  0.60867959  -0.00075308  1
  Rh  Rh248  1  0.20279916  -0.00563558  0.38992532  1
  Rh  Rh249  1  0.60856951  0.19896615  0.19763593  1
