# generated using pymatgen
data_ZrScNbPdRh
_symmetry_space_group_name_H-M   'P 1'
_cell_length_a   16.55925976
_cell_length_b   16.55780033
_cell_length_c   16.55824966
_cell_angle_alpha   90.03718867
_cell_angle_beta   89.99100562
_cell_angle_gamma   90.01495332
_symmetry_Int_Tables_number   1
_chemical_formula_structural   ZrScNbPdRh
_chemical_formula_sum   'Zr50 Sc50 Nb50 Pd50 Rh50'
_cell_volume   4540.02113575
_cell_formula_units_Z   50
loop_
 _symmetry_equiv_pos_site_id
 _symmetry_equiv_pos_as_xyz
  1  'x, y, z'
loop_
 _atom_site_type_symbol
 _atom_site_label
 _atom_site_symmetry_multiplicity
 _atom_site_fract_x
 _atom_site_fract_y
 _atom_site_fract_z
 _atom_site_occupancy
  Zr  Zr0  1  0.70049186  0.49598800  0.09250312  1
  Zr  Zr1  1  0.90048891  0.30250033  0.90254746  1
  Zr  Zr2  1  0.89951912  0.91064548  0.50782159  1
  Zr  Zr3  1  0.50215145  0.30348207  0.49904075  1
  Zr  Zr4  1  0.49772245  0.69708595  0.88831275  1
  Zr  Zr5  1  0.90472800  0.50653823  0.08134190  1
  Zr  Zr6  1  0.10874268  0.10872608  0.29252641  1
  Zr  Zr7  1  0.29846887  0.09993824  0.10459136  1
  Zr  Zr8  1  0.71084688  0.09658391  0.10635950  1
  Zr  Zr9  1  0.30183002  0.09377684  0.29597962  1
  Zr  Zr10  1  0.70101183  0.10941000  0.69700659  1
  Zr  Zr11  1  0.69619818  0.69699045  0.29575025  1
  Zr  Zr12  1  0.29996926  0.70768218  0.69439424  1
  Zr  Zr13  1  0.89596199  0.69712446  0.70849804  1
  Zr  Zr14  1  0.69708051  0.91437341  0.29548526  1
  Zr  Zr15  1  0.30441260  0.70380214  0.50384176  1
  Zr  Zr16  1  0.49963957  0.29106321  0.90196195  1
  Zr  Zr17  1  0.30386470  0.89721202  0.69851536  1
  Zr  Zr18  1  0.29295482  0.30319831  0.50196833  1
  Zr  Zr19  1  0.49722324  0.69888113  0.29387451  1
  Zr  Zr20  1  0.90013503  0.09922214  0.68422160  1
  Zr  Zr21  1  0.08946591  0.28749302  0.10266803  1
  Zr  Zr22  1  0.29679019  0.48691763  0.90405476  1
  Zr  Zr23  1  0.89218728  0.10402540  0.90546519  1
  Zr  Zr24  1  0.30435593  0.90347057  0.10588171  1
  Zr  Zr25  1  0.49689150  0.69248426  0.69490535  1
  Zr  Zr26  1  0.50256758  0.10363932  0.70056071  1
  Zr  Zr27  1  0.90066216  0.70377632  0.49932230  1
  Zr  Zr28  1  0.09562612  0.49012587  0.50939892  1
  Zr  Zr29  1  0.10044953  0.69176881  0.70313611  1
  Zr  Zr30  1  0.50006317  0.69978722  0.10380776  1
  Zr  Zr31  1  0.69642140  0.29804397  0.09192444  1
  Zr  Zr32  1  0.70089400  0.69836050  0.09481615  1
  Zr  Zr33  1  0.90348621  0.69759010  0.30129877  1
  Zr  Zr34  1  0.10148136  0.10572821  0.69936030  1
  Zr  Zr35  1  0.91747809  0.50203862  0.70246676  1
  Zr  Zr36  1  0.08832035  0.30120402  0.29896379  1
  Zr  Zr37  1  0.68777985  0.49154333  0.69874137  1
  Zr  Zr38  1  0.69362301  0.69178251  0.50159795  1
  Zr  Zr39  1  0.29754716  0.89411476  0.49993744  1
  Zr  Zr40  1  0.29273318  0.49674900  0.49500082  1
  Zr  Zr41  1  0.10238172  0.30062282  0.89832895  1
  Zr  Zr42  1  0.70163961  0.28819764  0.29844644  1
  Zr  Zr43  1  0.30182930  0.90220813  0.89860400  1
  Zr  Zr44  1  0.50836894  0.29693790  0.30233349  1
  Zr  Zr45  1  0.10209769  0.70259744  0.30307726  1
  Zr  Zr46  1  0.89940210  0.68832797  0.91069119  1
  Zr  Zr47  1  0.49276599  0.90648848  0.30097201  1
  Zr  Zr48  1  0.51050143  0.10329450  0.30237226  1
  Zr  Zr49  1  0.88253421  0.10566850  0.29910946  1
  Sc  Sc50  1  0.49706292  0.90202287  0.09582367  1
  Sc  Sc51  1  0.30110194  0.71176277  0.88836269  1
  Sc  Sc52  1  0.29608194  0.28875285  0.70177119  1
  Sc  Sc53  1  0.09403695  0.49405625  0.89489590  1
  Sc  Sc54  1  0.90620637  0.90540914  0.31159890  1
  Sc  Sc55  1  0.88862547  0.89311731  0.91139499  1
  Sc  Sc56  1  0.69901803  0.90427877  0.09310739  1
  Sc  Sc57  1  0.11033007  0.50090802  0.29882228  1
  Sc  Sc58  1  0.29440433  0.10220649  0.50471126  1
  Sc  Sc59  1  0.49916234  0.49233677  0.10413598  1
  Sc  Sc60  1  0.29512110  0.70211014  0.30006448  1
  Sc  Sc61  1  0.30433002  0.11084706  0.89558007  1
  Sc  Sc62  1  0.69868370  0.90170329  0.51209613  1
  Sc  Sc63  1  0.30033433  0.70965605  0.10854342  1
  Sc  Sc64  1  0.28340108  0.29864097  0.30758434  1
  Sc  Sc65  1  0.10677225  0.10257128  0.89650486  1
  Sc  Sc66  1  0.69555224  0.70402512  0.70149146  1
  Sc  Sc67  1  0.09956323  0.69705145  0.09958700  1
  Sc  Sc68  1  0.70273389  0.49433457  0.30938657  1
  Sc  Sc69  1  0.30010339  0.29819767  0.09038384  1
  Sc  Sc70  1  0.10910785  0.88991656  0.09879546  1
  Sc  Sc71  1  0.29324508  0.10006377  0.70029802  1
  Sc  Sc72  1  0.10248111  0.70662814  0.90502749  1
  Sc  Sc73  1  0.50526595  0.49680296  0.30398851  1
  Sc  Sc74  1  0.09910298  0.49795352  0.09930739  1
  Sc  Sc75  1  0.10646780  0.90217644  0.30367293  1
  Sc  Sc76  1  0.89471394  0.29718294  0.69641973  1
  Sc  Sc77  1  0.49981954  0.09900003  0.90800489  1
  Sc  Sc78  1  0.90444166  0.49215500  0.30619719  1
  Sc  Sc79  1  0.09738955  0.30459750  0.69167489  1
  Sc  Sc80  1  0.70483437  0.69798081  0.89593049  1
  Sc  Sc81  1  0.49251331  0.90111037  0.50585741  1
  Sc  Sc82  1  0.11328581  0.90487846  0.70431241  1
  Sc  Sc83  1  0.50652065  0.10262859  0.50424245  1
  Sc  Sc84  1  0.51742526  0.49946251  0.50639683  1
  Sc  Sc85  1  0.69845199  0.10400752  0.90790123  1
  Sc  Sc86  1  0.51205616  0.29367202  0.70181369  1
  Sc  Sc87  1  0.49545396  0.10174418  0.09731456  1
  Sc  Sc88  1  0.70285458  0.48831973  0.89347448  1
  Sc  Sc89  1  0.69300378  0.90189894  0.90305196  1
  Sc  Sc90  1  0.50112740  0.90054616  0.90550174  1
  Sc  Sc91  1  0.09216386  0.10526643  0.50266257  1
  Sc  Sc92  1  0.10897790  0.70811696  0.49609031  1
  Sc  Sc93  1  0.09982580  0.29674156  0.49725456  1
  Sc  Sc94  1  0.28770591  0.50830128  0.69677005  1
  Sc  Sc95  1  0.09705286  0.89906925  0.49116293  1
  Sc  Sc96  1  0.70333923  0.31299907  0.50350866  1
  Sc  Sc97  1  0.10977208  0.89688024  0.89840083  1
  Sc  Sc98  1  0.29913405  0.49411323  0.10526586  1
  Sc  Sc99  1  0.50275612  0.29360611  0.10126104  1
  Nb  Nb100  1  0.89830383  0.70193925  0.09661478  1
  Nb  Nb101  1  0.89183859  0.90110892  0.69789584  1
  Nb  Nb102  1  0.69692728  0.10368952  0.30446739  1
  Nb  Nb103  1  0.69961705  0.30060054  0.71691369  1
  Nb  Nb104  1  0.51028905  0.90544713  0.70261606  1
  Nb  Nb105  1  0.29830976  0.90481958  0.29603979  1
  Nb  Nb106  1  0.49848196  0.50240868  0.89081003  1
  Nb  Nb107  1  0.90388068  0.29134401  0.10032451  1
  Nb  Nb108  1  0.09730400  0.09971598  0.10092715  1
  Nb  Nb109  1  0.70675611  0.49879505  0.50327151  1
  Nb  Nb110  1  0.70933961  0.10417405  0.48965253  1
  Nb  Nb111  1  0.49835115  0.69982102  0.49864566  1
  Nb  Nb112  1  0.70021142  0.90576747  0.70229184  1
  Nb  Nb113  1  0.90802790  0.50068587  0.89761896  1
  Nb  Nb114  1  0.89531532  0.49327086  0.49929889  1
  Nb  Nb115  1  0.49948814  0.49898018  0.70729187  1
  Nb  Nb116  1  0.89545270  0.90315897  0.10076488  1
  Nb  Nb117  1  0.90869246  0.31015346  0.49182185  1
  Nb  Nb118  1  0.70297016  0.29327730  0.89025941  1
  Nb  Nb119  1  0.89486450  0.10535565  0.50347009  1
  Nb  Nb120  1  0.30366198  0.29849263  0.89513578  1
  Nb  Nb121  1  0.90289746  0.10079196  0.09773800  1
  Nb  Nb122  1  0.30023938  0.49854554  0.30568613  1
  Nb  Nb123  1  0.89981114  0.30330582  0.29607745  1
  Nb  Nb124  1  0.09572979  0.49810168  0.70158940  1
  Nb  Nb125  1  -0.00811268  0.80551167  0.79687324  1
  Nb  Nb126  1  0.80757697  0.39627408  0.19433657  1
  Nb  Nb127  1  0.20029432  0.00423748  0.00493045  1
  Nb  Nb128  1  0.80546678  0.59746772  0.19497899  1
  Nb  Nb129  1  0.79200534  0.80038027  0.39819707  1
  Nb  Nb130  1  0.39980859  0.59865706  0.40284139  1
  Nb  Nb131  1  0.79953086  -0.00121192  0.79330769  1
  Nb  Nb132  1  0.00162419  0.59630793  0.40640090  1
  Nb  Nb133  1  -0.00377158  0.80342272  0.60939765  1
  Nb  Nb134  1  0.59820114  0.79904858  0.39990472  1
  Nb  Nb135  1  0.80098932  0.59064379  0.59731531  1
  Nb  Nb136  1  -0.00945018  -0.00266279  0.80199030  1
  Nb  Nb137  1  -0.00813128  0.80372380  0.19619864  1
  Nb  Nb138  1  0.40278538  0.40280902  0.60892200  1
  Nb  Nb139  1  0.00278310  0.00092143  0.00313825  1
  Nb  Nb140  1  0.40523476  -0.00154664  0.79417795  1
  Nb  Nb141  1  0.80462615  0.79971042  0.20052811  1
  Nb  Nb142  1  -0.00200611  0.00163409  0.19287567  1
  Nb  Nb143  1  0.59137823  0.59582412  -0.00735996  1
  Nb  Nb144  1  0.40071217  0.39870688  0.79757531  1
  Nb  Nb145  1  -0.00426285  0.19501450  0.79874758  1
  Nb  Nb146  1  0.40013120  0.59794568  -0.00298701  1
  Nb  Nb147  1  0.40032356  0.20223250  0.39909528  1
  Nb  Nb148  1  0.39586677  0.39605633  0.21222564  1
  Nb  Nb149  1  0.21004609  0.59903175  -0.00219649  1
  Pd  Pd150  1  0.80315580  0.21319092  0.40950323  1
  Pd  Pd151  1  0.40194586  0.58854320  0.59181675  1
  Pd  Pd152  1  0.59452097  0.80008586  0.59767818  1
  Pd  Pd153  1  0.79870149  0.79361717  0.59763604  1
  Pd  Pd154  1  0.60356289  0.40098723  0.20479252  1
  Pd  Pd155  1  0.79815912  0.80668208  0.80625519  1
  Pd  Pd156  1  0.19481031  -0.00225253  0.59237791  1
  Pd  Pd157  1  0.39869071  0.00219721  0.60354656  1
  Pd  Pd158  1  0.79783263  -0.00564869  0.40446797  1
  Pd  Pd159  1  0.39423059  0.20922584  0.20803950  1
  Pd  Pd160  1  0.60037236  -0.00589631  0.41213562  1
  Pd  Pd161  1  0.59921771  0.79333998  -0.00532104  1
  Pd  Pd162  1  0.81053638  0.40569408  0.79428546  1
  Pd  Pd163  1  0.00226400  0.01513682  0.39185224  1
  Pd  Pd164  1  0.39402742  0.59033999  0.20187505  1
  Pd  Pd165  1  0.38349072  0.59325633  0.80191110  1
  Pd  Pd166  1  0.80560792  0.59951575  0.39923813  1
  Pd  Pd167  1  -0.00077959  0.60678142  0.59162439  1
  Pd  Pd168  1  0.20327150  0.39558490  0.78951292  1
  Pd  Pd169  1  0.39814563  0.01078091  0.40809720  1
  Pd  Pd170  1  0.60524707  0.58788955  0.19415568  1
  Pd  Pd171  1  0.39842565  0.79286687  0.00002410  1
  Pd  Pd172  1  0.20451252  0.60140946  0.19365280  1
  Pd  Pd173  1  -0.00193162  0.59844183  0.20384298  1
  Pd  Pd174  1  0.01193377  -0.00859842  0.60602859  1
  Pd  Pd175  1  0.59303270  0.59955112  0.39913212  1
  Pd  Pd176  1  0.40023505  0.79566357  0.39385451  1
  Pd  Pd177  1  0.19840562  0.00511734  0.40517746  1
  Pd  Pd178  1  0.60234881  0.00815763  0.80760866  1
  Pd  Pd179  1  0.40274213  0.40094051  0.40163147  1
  Pd  Pd180  1  0.59351951  0.40064916  -0.01103966  1
  Pd  Pd181  1  -0.00515470  0.40874543  0.19455829  1
  Pd  Pd182  1  0.40769641  0.39944872  0.00176719  1
  Pd  Pd183  1  0.20284601  0.39226291  0.19659990  1
  Pd  Pd184  1  0.19439879  0.60223710  0.59324669  1
  Pd  Pd185  1  0.59369565  0.00453876  0.19028942  1
  Pd  Pd186  1  0.79319985  0.58755429  0.79402513  1
  Pd  Pd187  1  0.61267619  0.20722658  0.59381803  1
  Pd  Pd188  1  0.79707386  0.21268234  0.59167103  1
  Pd  Pd189  1  0.80356973  0.39487375  -0.00145444  1
  Pd  Pd190  1  0.80428535  0.40181566  0.61005555  1
  Pd  Pd191  1  -0.00600315  0.19432691  0.39762450  1
  Pd  Pd192  1  0.19119828  0.39866560  0.00656797  1
  Pd  Pd193  1  0.39837461  0.20661460  0.59706478  1
  Pd  Pd194  1  0.60587973  0.00651770  0.59418952  1
  Pd  Pd195  1  0.20194617  0.19642423  -0.00047222  1
  Pd  Pd196  1  0.19922411  0.60049183  0.81060212  1
  Pd  Pd197  1  0.59942134  0.79990946  0.80003143  1
  Pd  Pd198  1  0.60241663  0.81083277  0.20151002  1
  Pd  Pd199  1  0.00150941  0.80626529  -0.00051405  1
  Rh  Rh200  1  0.20265435  0.20754132  0.19567161  1
  Rh  Rh201  1  0.60758475  0.60087116  0.80153267  1
  Rh  Rh202  1  0.79977838  -0.00056121  -0.00562866  1
  Rh  Rh203  1  0.80091474  0.20615587  0.19307724  1
  Rh  Rh204  1  0.00460380  0.40513368  0.39859736  1
  Rh  Rh205  1  -0.00465269  0.79628858  0.40159147  1
  Rh  Rh206  1  0.20398661  0.39885046  0.60650466  1
  Rh  Rh207  1  0.00867938  0.60632221  0.81185185  1
  Rh  Rh208  1  0.18780676  0.39917425  0.39872078  1
  Rh  Rh209  1  0.59172626  0.39258910  0.80628365  1
  Rh  Rh210  1  0.60919273  0.39881380  0.40035668  1
  Rh  Rh211  1  0.39699457  0.19985231  0.00077451  1
  Rh  Rh212  1  0.41338999  0.81126101  0.79096166  1
  Rh  Rh213  1  0.79873541  0.39411029  0.39281590  1
  Rh  Rh214  1  0.79770399  0.20512963  0.00481187  1
  Rh  Rh215  1  -0.00452838  0.20859473  0.59725431  1
  Rh  Rh216  1  0.20258876  0.19481927  0.40320884  1
  Rh  Rh217  1  0.60332272  0.59884437  0.60521055  1
  Rh  Rh218  1  0.19083858  0.80422935  0.60197229  1
  Rh  Rh219  1  0.19258955  0.20591449  0.79775027  1
  Rh  Rh220  1  0.60455382  0.19126474  0.19223283  1
  Rh  Rh221  1  0.59995795  0.19442698  0.80753718  1
  Rh  Rh222  1  0.59696109  0.39425030  0.60548672  1
  Rh  Rh223  1  0.39274451  0.00392078  -0.00792184  1
  Rh  Rh224  1  0.19087674  0.79604192  0.79457186  1
  Rh  Rh225  1  0.80355356  0.19415868  0.79893750  1
  Rh  Rh226  1  0.79047832  0.59487340  -0.00443959  1
  Rh  Rh227  1  0.79356077  0.80032104  0.00335891  1
  Rh  Rh228  1  -0.00941779  0.19038782  0.20785006  1
  Rh  Rh229  1  0.01570753  0.60003750  -0.00491279  1
  Rh  Rh230  1  -0.00376936  0.39391802  0.60134157  1
  Rh  Rh231  1  0.00247117  0.19615120  -0.00950279  1
  Rh  Rh232  1  0.40510725  0.19798107  0.79758209  1
  Rh  Rh233  1  0.60129791  0.20127922  0.41021001  1
  Rh  Rh234  1  0.20964557  0.80489602  0.39537265  1
  Rh  Rh235  1  0.80514850  -0.00368610  0.20203880  1
  Rh  Rh236  1  0.40715148  0.00214107  0.19940277  1
  Rh  Rh237  1  0.19341641  0.80238179  0.20522402  1
  Rh  Rh238  1  0.41095626  0.80429812  0.60677142  1
  Rh  Rh239  1  0.19954023  0.59925249  0.40355224  1
  Rh  Rh240  1  0.21008076  0.00578630  0.80978644  1
  Rh  Rh241  1  0.78847491  0.00599605  0.60118017  1
  Rh  Rh242  1  0.19196231  -0.00632035  0.19393535  1
  Rh  Rh243  1  0.00201762  0.39652303  0.00095998  1
  Rh  Rh244  1  0.19451906  0.20139184  0.59813934  1
  Rh  Rh245  1  0.39990231  0.80698585  0.20615776  1
  Rh  Rh246  1  0.60083978  0.00350351  0.00462658  1
  Rh  Rh247  1  0.60437232  0.19718956  0.00159067  1
  Rh  Rh248  1  -0.00201118  0.38929284  0.79721391  1
  Rh  Rh249  1  0.21038534  0.79782381  0.00199050  1
