# generated using pymatgen
data_ZrScNbPdRh
_symmetry_space_group_name_H-M   'P 1'
_cell_length_a   16.56808975
_cell_length_b   16.56712265
_cell_length_c   16.56611354
_cell_angle_alpha   90.00022635
_cell_angle_beta   90.01041639
_cell_angle_gamma   89.99621797
_symmetry_Int_Tables_number   1
_chemical_formula_structural   ZrScNbPdRh
_chemical_formula_sum   'Zr50 Sc50 Nb50 Pd50 Rh50'
_cell_volume   4547.15911590
_cell_formula_units_Z   50
loop_
 _symmetry_equiv_pos_site_id
 _symmetry_equiv_pos_as_xyz
  1  'x, y, z'
loop_
 _atom_site_type_symbol
 _atom_site_label
 _atom_site_symmetry_multiplicity
 _atom_site_fract_x
 _atom_site_fract_y
 _atom_site_fract_z
 _atom_site_occupancy
  Zr  Zr0  1  0.09221869  0.70126244  0.70506902  1
  Zr  Zr1  1  0.70956366  0.49537608  0.89391301  1
  Zr  Zr2  1  0.29276180  0.69938736  0.30621206  1
  Zr  Zr3  1  0.09819074  0.10575490  0.30321111  1
  Zr  Zr4  1  0.90020883  0.49888845  0.29858922  1
  Zr  Zr5  1  0.89987888  0.29678503  0.30616743  1
  Zr  Zr6  1  0.31003698  0.70622334  0.69377748  1
  Zr  Zr7  1  0.89928929  0.10513990  0.69705180  1
  Zr  Zr8  1  0.69789142  0.10164068  0.29488800  1
  Zr  Zr9  1  0.08665198  0.50355588  0.69577046  1
  Zr  Zr10  1  0.90001688  0.30907202  0.89673946  1
  Zr  Zr11  1  0.90185413  0.69551260  0.69906253  1
  Zr  Zr12  1  0.30671049  0.50392518  0.50256903  1
  Zr  Zr13  1  0.30436738  0.49951401  0.70227225  1
  Zr  Zr14  1  0.89982357  0.49511700  0.10030862  1
  Zr  Zr15  1  0.30114735  0.09827977  0.29964882  1
  Zr  Zr16  1  0.48704244  0.90227154  0.89746737  1
  Zr  Zr17  1  0.50547015  0.70107027  0.49918594  1
  Zr  Zr18  1  0.50482095  0.70213402  0.68954680  1
  Zr  Zr19  1  0.09222131  0.90617678  0.31239323  1
  Zr  Zr20  1  0.09416000  0.09643851  0.89376018  1
  Zr  Zr21  1  0.09650292  0.70165211  0.90582794  1
  Zr  Zr22  1  0.69723104  0.70311064  0.49748712  1
  Zr  Zr23  1  0.90469395  0.90488265  0.89918179  1
  Zr  Zr24  1  0.29385811  0.89822253  0.09301480  1
  Zr  Zr25  1  0.51860720  0.90520088  0.49937664  1
  Zr  Zr26  1  0.10014986  0.70302593  0.10078442  1
  Zr  Zr27  1  0.29179929  0.89378627  0.50293890  1
  Zr  Zr28  1  0.30246082  0.09501094  0.10313357  1
  Zr  Zr29  1  0.50221813  0.09690522  0.30228773  1
  Zr  Zr30  1  0.10422339  0.68622993  0.29561078  1
  Zr  Zr31  1  0.69866410  0.10428934  0.88937885  1
  Zr  Zr32  1  0.89928218  0.10045178  0.09993698  1
  Zr  Zr33  1  0.89825491  0.90316914  0.31097878  1
  Zr  Zr34  1  0.49344141  0.30438921  0.10425394  1
  Zr  Zr35  1  0.70241481  0.90878793  0.90163481  1
  Zr  Zr36  1  0.90476644  0.09512542  0.29917587  1
  Zr  Zr37  1  0.10976214  0.29730605  0.09684399  1
  Zr  Zr38  1  0.29052473  0.30461426  0.28899829  1
  Zr  Zr39  1  0.11282172  0.70644158  0.49266635  1
  Zr  Zr40  1  0.50121033  0.10359239  0.70165714  1
  Zr  Zr41  1  0.69835804  0.89990336  0.30778430  1
  Zr  Zr42  1  0.49526196  0.09701427  0.89568217  1
  Zr  Zr43  1  0.89579914  0.29933830  0.69765045  1
  Zr  Zr44  1  0.28524737  0.69905648  0.09826487  1
  Zr  Zr45  1  0.70298549  0.09973061  0.09806250  1
  Zr  Zr46  1  0.70530677  0.30727421  0.31299161  1
  Zr  Zr47  1  0.29151428  0.31202247  0.90591840  1
  Zr  Zr48  1  0.70270414  0.69396323  0.90518453  1
  Zr  Zr49  1  0.30329611  0.29529485  0.50181105  1
  Sc  Sc50  1  0.09777250  0.09384734  0.09906757  1
  Sc  Sc51  1  0.49750800  0.89731120  0.09758458  1
  Sc  Sc52  1  0.89764893  0.09655146  0.90270426  1
  Sc  Sc53  1  0.49125946  0.49763981  0.09287457  1
  Sc  Sc54  1  0.71265729  0.50405439  0.09811783  1
  Sc  Sc55  1  0.49842918  0.50201964  0.69496225  1
  Sc  Sc56  1  0.49715908  0.89675747  0.69871940  1
  Sc  Sc57  1  0.49956248  0.30180941  0.70042874  1
  Sc  Sc58  1  0.30466822  0.29823832  0.70037018  1
  Sc  Sc59  1  0.30060718  0.90610916  0.30246063  1
  Sc  Sc60  1  0.09401590  0.90203272  0.89959036  1
  Sc  Sc61  1  0.90420078  0.91233107  0.09967663  1
  Sc  Sc62  1  0.30112330  0.10400621  0.69522254  1
  Sc  Sc63  1  0.70921682  0.49852765  0.30686414  1
  Sc  Sc64  1  0.09190598  0.30261090  0.90331285  1
  Sc  Sc65  1  0.69317034  0.89833166  0.10545417  1
  Sc  Sc66  1  0.49284549  0.70164983  0.90191197  1
  Sc  Sc67  1  0.30365252  0.48771433  0.09535834  1
  Sc  Sc68  1  0.51051283  0.70310239  0.09483019  1
  Sc  Sc69  1  0.09613255  0.51028080  0.10169260  1
  Sc  Sc70  1  0.09236933  0.09498673  0.69585430  1
  Sc  Sc71  1  0.29840755  0.10855021  0.49662559  1
  Sc  Sc72  1  0.89102105  0.70128448  0.50244787  1
  Sc  Sc73  1  0.30369907  0.89961374  0.69654192  1
  Sc  Sc74  1  0.90293165  0.68408136  0.10187665  1
  Sc  Sc75  1  0.09211844  0.49374793  0.90023965  1
  Sc  Sc76  1  0.28950951  0.49619940  0.29288401  1
  Sc  Sc77  1  0.08832252  0.30078980  0.70910748  1
  Sc  Sc78  1  0.89688701  0.10031602  0.50645814  1
  Sc  Sc79  1  0.90724219  0.69434408  0.89463590  1
  Sc  Sc80  1  0.69925249  0.90956887  0.68605710  1
  Sc  Sc81  1  0.10123605  0.09727973  0.50341948  1
  Sc  Sc82  1  0.50682640  0.89824455  0.30354190  1
  Sc  Sc83  1  0.90200556  0.29822368  0.09701415  1
  Sc  Sc84  1  0.70910954  0.69745904  0.68757308  1
  Sc  Sc85  1  0.90254651  0.90440998  0.69705159  1
  Sc  Sc86  1  0.51169999  0.49729042  0.50703902  1
  Sc  Sc87  1  0.50894156  0.29038737  0.30147363  1
  Sc  Sc88  1  0.89034171  0.29784678  0.50080919  1
  Sc  Sc89  1  0.69993688  0.69590809  0.10056122  1
  Sc  Sc90  1  0.49431802  0.50136656  0.89926272  1
  Sc  Sc91  1  0.10405213  0.29572515  0.48924433  1
  Sc  Sc92  1  0.90356316  0.50231125  0.50598741  1
  Sc  Sc93  1  0.89198674  0.69001000  0.30678573  1
  Sc  Sc94  1  0.49838908  0.29900666  0.88896354  1
  Sc  Sc95  1  0.70746939  0.29514807  0.10984238  1
  Sc  Sc96  1  0.30129899  0.08027043  0.89979306  1
  Sc  Sc97  1  0.09698871  0.50347071  0.49214621  1
  Sc  Sc98  1  0.30364316  0.70546998  0.49913673  1
  Sc  Sc99  1  0.89586595  0.50350167  0.70596786  1
  Nb  Nb100  1  0.69410433  0.48601005  0.50546439  1
  Nb  Nb101  1  0.10187492  0.30640091  0.29940165  1
  Nb  Nb102  1  0.10090483  0.49411994  0.29924601  1
  Nb  Nb103  1  0.50267045  0.10765875  0.10268977  1
  Nb  Nb104  1  0.30244945  0.29898619  0.09646379  1
  Nb  Nb105  1  0.69556705  0.70207590  0.29889555  1
  Nb  Nb106  1  0.09521560  0.90029198  0.50581221  1
  Nb  Nb107  1  0.69888934  0.30277037  0.70519722  1
  Nb  Nb108  1  0.71248875  0.90062202  0.50142717  1
  Nb  Nb109  1  0.10018110  0.89922928  0.69587833  1
  Nb  Nb110  1  0.69302721  0.30370622  0.88748060  1
  Nb  Nb111  1  0.29499015  0.70275239  0.89857228  1
  Nb  Nb112  1  0.89741989  0.49987539  0.90576063  1
  Nb  Nb113  1  0.50655161  0.29737973  0.49670317  1
  Nb  Nb114  1  0.69364671  0.30814185  0.50528243  1
  Nb  Nb115  1  0.30196551  0.50728580  0.89729032  1
  Nb  Nb116  1  0.69526950  0.09000068  0.51433243  1
  Nb  Nb117  1  0.09547750  0.89460716  0.10325743  1
  Nb  Nb118  1  0.70291472  0.10851643  0.69325775  1
  Nb  Nb119  1  0.50593324  0.69986628  0.30226828  1
  Nb  Nb120  1  0.49797480  0.49477764  0.29688931  1
  Nb  Nb121  1  0.89863490  0.89883762  0.49792201  1
  Nb  Nb122  1  0.50072075  0.10601270  0.49761470  1
  Nb  Nb123  1  0.30365885  0.89114530  0.89592498  1
  Nb  Nb124  1  0.69421970  0.49389988  0.70106405  1
  Nb  Nb125  1  0.59513327  0.00981192  -0.00094431  1
  Nb  Nb126  1  0.59541693  0.59531283  0.20707843  1
  Nb  Nb127  1  0.00234628  0.80572845  0.59385253  1
  Nb  Nb128  1  0.60444919  0.39257024  -0.00093020  1
  Nb  Nb129  1  -0.00264896  0.79986931  0.20468258  1
  Nb  Nb130  1  0.00655847  0.39645859  0.20698373  1
  Nb  Nb131  1  0.80317790  0.80088583  0.00038717  1
  Nb  Nb132  1  0.19989952  0.59936675  0.60676429  1
  Nb  Nb133  1  0.39972524  0.79047466  0.20384834  1
  Nb  Nb134  1  0.39873391  0.19988471  0.00407291  1
  Nb  Nb135  1  0.60452080  0.20333592  0.59800383  1
  Nb  Nb136  1  0.40556212  0.39856517  0.39846743  1
  Nb  Nb137  1  0.59705284  0.20249089  -0.00160826  1
  Nb  Nb138  1  0.40784549  0.59551660  0.39234848  1
  Nb  Nb139  1  0.60550295  0.60256984  0.79662806  1
  Nb  Nb140  1  0.19696515  0.19825548  0.80534608  1
  Nb  Nb141  1  0.19842125  0.40436137  0.60211922  1
  Nb  Nb142  1  0.40650584  0.00555233  0.59072800  1
  Nb  Nb143  1  0.60755915  0.79655120  0.79983772  1
  Nb  Nb144  1  0.80383340  0.79852055  0.20095091  1
  Nb  Nb145  1  0.60083827  0.40484253  0.19885887  1
  Nb  Nb146  1  0.20485491  0.60108764  0.80168770  1
  Nb  Nb147  1  0.40312502  0.60535594  0.20421441  1
  Nb  Nb148  1  0.79763707  0.80055534  0.80199280  1
  Nb  Nb149  1  0.20137874  0.79848508  0.80140115  1
  Pd  Pd150  1  0.39588382  0.20772700  0.39086682  1
  Pd  Pd151  1  0.60007151  -0.00721312  0.79514332  1
  Pd  Pd152  1  0.00253304  0.20582545  0.19755060  1
  Pd  Pd153  1  0.60194825  0.58919699  0.39784079  1
  Pd  Pd154  1  0.19521929  0.40077672  0.79437029  1
  Pd  Pd155  1  0.20733985  0.40345736  0.40861476  1
  Pd  Pd156  1  0.79313676  0.58861802  0.59399091  1
  Pd  Pd157  1  0.00542295  0.38988455  0.58998532  1
  Pd  Pd158  1  0.59966395  0.58565154  -0.00020770  1
  Pd  Pd159  1  -0.00322539  0.78855110  0.40041597  1
  Pd  Pd160  1  0.40312340  0.39474984  0.59483380  1
  Pd  Pd161  1  0.59327739  -0.00330155  0.19488986  1
  Pd  Pd162  1  0.39890922  0.20217615  0.20289987  1
  Pd  Pd163  1  0.00555256  0.20669567  0.59368743  1
  Pd  Pd164  1  0.19795347  0.59016435  -0.00481432  1
  Pd  Pd165  1  0.39678036  0.60778361  0.00757007  1
  Pd  Pd166  1  -0.00032698  0.19662605  0.40780627  1
  Pd  Pd167  1  0.20249934  -0.00323137  0.79199790  1
  Pd  Pd168  1  0.79894723  -0.00841933  0.19812715  1
  Pd  Pd169  1  0.79298613  0.59410222  0.40955160  1
  Pd  Pd170  1  0.79593658  0.01045906  0.40577325  1
  Pd  Pd171  1  -0.00489034  0.39877417  0.40204671  1
  Pd  Pd172  1  0.79363408  0.20800260  -0.00992390  1
  Pd  Pd173  1  -0.00216087  0.19895687  -0.00238584  1
  Pd  Pd174  1  0.20770935  0.00337964  0.60071878  1
  Pd  Pd175  1  -0.00073564  0.60393732  0.40226435  1
  Pd  Pd176  1  0.61260118  0.19377596  0.40735360  1
  Pd  Pd177  1  0.19215294  -0.00462900  0.20207387  1
  Pd  Pd178  1  0.40324099  0.40040883  0.80248695  1
  Pd  Pd179  1  0.19299486  0.41106629  0.00247612  1
  Pd  Pd180  1  0.39693860  0.79181671  0.00888648  1
  Pd  Pd181  1  0.40739768  -0.01169243  0.19847133  1
  Pd  Pd182  1  0.40534584  0.60598315  0.79930464  1
  Pd  Pd183  1  0.19354779  -0.00646528  -0.00308425  1
  Pd  Pd184  1  0.19716886  0.19516588  0.19899307  1
  Pd  Pd185  1  0.40104254  -0.00408232  0.40796825  1
  Pd  Pd186  1  0.80219561  0.40493565  0.60363755  1
  Pd  Pd187  1  0.60536569  0.80902142  -0.00735556  1
  Pd  Pd188  1  0.19699396  0.81037911  0.21013891  1
  Pd  Pd189  1  0.38396030  0.19949869  0.81075056  1
  Pd  Pd190  1  0.18967374  0.20983573  0.61238886  1
  Pd  Pd191  1  0.79320590  0.39012230  0.00211997  1
  Pd  Pd192  1  0.20807617  0.18992360  -0.00877036  1
  Pd  Pd193  1  0.79123053  0.19182672  0.41038257  1
  Pd  Pd194  1  0.19901687  0.00384072  0.40718843  1
  Pd  Pd195  1  0.40369618  0.80093504  0.39920233  1
  Pd  Pd196  1  0.80304826  0.20276359  0.20537225  1
  Pd  Pd197  1  0.80143347  -0.00239894  0.78951422  1
  Pd  Pd198  1  0.80632244  0.20212961  0.80421979  1
  Pd  Pd199  1  -0.01142301  0.79844456  0.01102689  1
  Rh  Rh200  1  -0.00331639  0.00148896  0.79428487  1
  Rh  Rh201  1  -0.00192879  0.80937986  0.79019444  1
  Rh  Rh202  1  0.60788087  0.80244638  0.60210138  1
  Rh  Rh203  1  0.00799082  0.61719205  0.58634684  1
  Rh  Rh204  1  0.60587717  0.20760401  0.19896404  1
  Rh  Rh205  1  0.59292599  0.00764139  0.60504880  1
  Rh  Rh206  1  0.80789419  -0.00053280  0.60068744  1
  Rh  Rh207  1  0.79055349  0.60591408  0.20417245  1
  Rh  Rh208  1  -0.00053042  0.19751483  0.80316534  1
  Rh  Rh209  1  0.20527454  0.59042656  0.19469717  1
  Rh  Rh210  1  0.79387144  -0.00426181  0.00724802  1
  Rh  Rh211  1  0.41050718  0.19687648  0.59833395  1
  Rh  Rh212  1  0.80737897  0.80736527  0.60407373  1
  Rh  Rh213  1  0.79690868  0.79690309  0.39551365  1
  Rh  Rh214  1  0.80438082  0.40034680  0.79436764  1
  Rh  Rh215  1  0.60821758  0.59683970  0.60470566  1
  Rh  Rh216  1  0.79658195  0.60225648  0.79998706  1
  Rh  Rh217  1  0.78947909  0.20662373  0.59568997  1
  Rh  Rh218  1  0.19772073  0.80934383  0.39298811  1
  Rh  Rh219  1  0.40111908  0.60536279  0.59018487  1
  Rh  Rh220  1  0.19144273  0.79391208  0.61070484  1
  Rh  Rh221  1  0.60706801  0.80307784  0.40335470  1
  Rh  Rh222  1  0.20096201  0.19863715  0.39326245  1
  Rh  Rh223  1  -0.00003831  0.59735414  0.20618641  1
  Rh  Rh224  1  0.40132869  0.39950986  0.20710483  1
  Rh  Rh225  1  -0.00931593  0.40511915  0.79987364  1
  Rh  Rh226  1  0.59771491  0.39246238  0.60947065  1
  Rh  Rh227  1  0.20675232  0.59073105  0.40558523  1
  Rh  Rh228  1  0.60836928  0.00606976  0.40079803  1
  Rh  Rh229  1  0.00086134  0.59087136  0.80966860  1
  Rh  Rh230  1  0.00400439  0.00329558  0.00186640  1
  Rh  Rh231  1  0.40548592  0.39253061  -0.01069101  1
  Rh  Rh232  1  -0.00455122  -0.00534451  0.59651304  1
  Rh  Rh233  1  0.19222655  0.40420827  0.18747382  1
  Rh  Rh234  1  0.40608358  0.00423846  0.01027429  1
  Rh  Rh235  1  0.59596020  0.40314244  0.39364297  1
  Rh  Rh236  1  0.40156388  0.79671259  0.80002882  1
  Rh  Rh237  1  -0.00143416  0.00996837  0.41156249  1
  Rh  Rh238  1  0.00453046  -0.00428844  0.20065061  1
  Rh  Rh239  1  0.59424138  0.41052711  0.80140880  1
  Rh  Rh240  1  0.19573214  0.80976640  -0.01085114  1
  Rh  Rh241  1  0.00187815  0.40065938  0.01127813  1
  Rh  Rh242  1  0.80480585  0.39703327  0.20318546  1
  Rh  Rh243  1  0.60206323  0.20176514  0.79350277  1
  Rh  Rh244  1  0.60047577  0.79288437  0.20073285  1
  Rh  Rh245  1  0.80885751  0.60506432  -0.00385258  1
  Rh  Rh246  1  0.39406494  -0.00319079  0.78482947  1
  Rh  Rh247  1  0.40946220  0.81283002  0.58619901  1
  Rh  Rh248  1  0.80485556  0.40547540  0.41254265  1
  Rh  Rh249  1  -0.00151750  0.59587316  -0.00395864  1
