# generated using pymatgen
data_ZrScNbPdRh
_symmetry_space_group_name_H-M   'P 1'
_cell_length_a   16.55353597
_cell_length_b   16.55369118
_cell_length_c   16.55321568
_cell_angle_alpha   90.00778235
_cell_angle_beta   89.96807943
_cell_angle_gamma   89.98356899
_symmetry_Int_Tables_number   1
_chemical_formula_structural   ZrScNbPdRh
_chemical_formula_sum   'Zr50 Sc50 Nb50 Pd50 Rh50'
_cell_volume   4535.94636247
_cell_formula_units_Z   50
loop_
 _symmetry_equiv_pos_site_id
 _symmetry_equiv_pos_as_xyz
  1  'x, y, z'
loop_
 _atom_site_type_symbol
 _atom_site_label
 _atom_site_symmetry_multiplicity
 _atom_site_fract_x
 _atom_site_fract_y
 _atom_site_fract_z
 _atom_site_occupancy
  Zr  Zr0  1  0.90518078  0.30385944  0.30045107  1
  Zr  Zr1  1  0.10166126  0.90320300  0.09767144  1
  Zr  Zr2  1  0.50192450  0.50458906  0.30028672  1
  Zr  Zr3  1  0.29605645  0.10474906  0.70330132  1
  Zr  Zr4  1  0.49246005  0.90553547  0.50169113  1
  Zr  Zr5  1  0.89637880  0.29704194  0.09895933  1
  Zr  Zr6  1  0.09522058  0.49992791  0.30321130  1
  Zr  Zr7  1  0.71062376  0.09546247  0.70317250  1
  Zr  Zr8  1  0.71503589  0.29334805  0.69503793  1
  Zr  Zr9  1  0.48899684  0.50444765  0.10065366  1
  Zr  Zr10  1  0.49703387  0.50427498  0.49564948  1
  Zr  Zr11  1  0.69294876  0.69356023  0.69812320  1
  Zr  Zr12  1  0.29801309  0.11067449  0.30127610  1
  Zr  Zr13  1  0.30120291  0.89736369  0.69872734  1
  Zr  Zr14  1  0.89559191  0.10156546  0.29513791  1
  Zr  Zr15  1  0.70169277  0.49907850  0.69399893  1
  Zr  Zr16  1  0.29488306  0.31224869  0.10951158  1
  Zr  Zr17  1  0.49889631  0.09746899  0.10097155  1
  Zr  Zr18  1  0.49365411  0.89574439  0.30135965  1
  Zr  Zr19  1  0.89680312  0.30412146  0.50224816  1
  Zr  Zr20  1  0.09672274  0.30508172  0.69741916  1
  Zr  Zr21  1  0.49283670  0.10199784  0.30183051  1
  Zr  Zr22  1  0.09829495  0.10009677  0.30236083  1
  Zr  Zr23  1  0.29990288  0.69757642  0.89110019  1
  Zr  Zr24  1  0.30733780  0.49330491  0.29979840  1
  Zr  Zr25  1  0.70055966  0.50113171  0.30560668  1
  Zr  Zr26  1  0.49266408  0.29025320  0.50800956  1
  Zr  Zr27  1  0.10472795  0.09890480  0.50229720  1
  Zr  Zr28  1  0.50523720  0.90018834  0.69660213  1
  Zr  Zr29  1  0.10368353  0.30752566  0.50441147  1
  Zr  Zr30  1  0.69659203  0.49931175  0.49658041  1
  Zr  Zr31  1  0.90512476  0.89117180  0.49831789  1
  Zr  Zr32  1  0.69819890  0.70111034  0.09695053  1
  Zr  Zr33  1  0.50461238  0.30226813  0.08977943  1
  Zr  Zr34  1  0.90302012  0.69385335  0.10955462  1
  Zr  Zr35  1  0.30532607  0.29724403  0.89009044  1
  Zr  Zr36  1  0.10365932  0.89357177  0.50474393  1
  Zr  Zr37  1  0.10372291  0.50477377  0.49983564  1
  Zr  Zr38  1  0.50231096  0.48968908  0.89773274  1
  Zr  Zr39  1  0.09214843  0.69446685  0.30006429  1
  Zr  Zr40  1  0.49420274  0.10093537  0.89688363  1
  Zr  Zr41  1  0.90396888  0.51013734  0.29818630  1
  Zr  Zr42  1  0.50329800  0.69515165  0.50345169  1
  Zr  Zr43  1  0.90007310  0.48463960  0.70146171  1
  Zr  Zr44  1  0.50274162  0.30049995  0.89740799  1
  Zr  Zr45  1  0.69824810  0.30252608  0.90546985  1
  Zr  Zr46  1  0.09330442  0.90038256  0.90894220  1
  Zr  Zr47  1  0.09717599  0.10024221  0.70493620  1
  Zr  Zr48  1  0.69960288  0.30248740  0.29860853  1
  Zr  Zr49  1  0.29114651  0.09773967  0.09774895  1
  Sc  Sc50  1  0.10204649  0.49758146  0.69596882  1
  Sc  Sc51  1  0.90795978  0.90098154  0.09287730  1
  Sc  Sc52  1  0.90137641  0.91019785  0.70420214  1
  Sc  Sc53  1  0.69789296  0.49296311  0.89350987  1
  Sc  Sc54  1  0.89565748  0.09938762  0.09962024  1
  Sc  Sc55  1  0.09933840  0.70907922  0.09849104  1
  Sc  Sc56  1  0.69807335  0.30489278  0.50521406  1
  Sc  Sc57  1  0.11063239  0.69977058  0.90514005  1
  Sc  Sc58  1  0.50078509  0.69627378  0.10208983  1
  Sc  Sc59  1  0.30049224  0.90932616  0.89701452  1
  Sc  Sc60  1  0.30408835  0.70657667  0.30259691  1
  Sc  Sc61  1  0.29636123  0.50808523  0.91247977  1
  Sc  Sc62  1  0.10093908  0.70492387  0.49654383  1
  Sc  Sc63  1  0.09813326  0.30020170  0.09287134  1
  Sc  Sc64  1  0.50351039  0.89173890  0.10645489  1
  Sc  Sc65  1  0.89857789  0.90540966  0.90334624  1
  Sc  Sc66  1  0.09819876  0.09869113  0.09880468  1
  Sc  Sc67  1  0.30475328  0.69287092  0.09447339  1
  Sc  Sc68  1  0.49475934  0.09581335  0.69260761  1
  Sc  Sc69  1  0.49157249  0.30088988  0.70539070  1
  Sc  Sc70  1  0.49140753  0.69869279  0.29896374  1
  Sc  Sc71  1  0.70333513  0.29634027  0.08994418  1
  Sc  Sc72  1  0.29529875  0.89751034  0.10166203  1
  Sc  Sc73  1  0.89909040  0.30753108  0.89575712  1
  Sc  Sc74  1  0.48972174  0.30598933  0.29649079  1
  Sc  Sc75  1  0.90016166  0.49833833  0.10300031  1
  Sc  Sc76  1  0.49735518  0.90705974  0.89413590  1
  Sc  Sc77  1  0.90074133  0.70429804  0.30785108  1
  Sc  Sc78  1  0.70525137  0.90575311  0.89660382  1
  Sc  Sc79  1  0.70476441  0.90168867  0.29880968  1
  Sc  Sc80  1  0.10956918  0.48947553  0.09154947  1
  Sc  Sc81  1  0.69798307  0.90038483  0.10589526  1
  Sc  Sc82  1  0.70308845  0.90476798  0.50278674  1
  Sc  Sc83  1  0.10259363  0.89996803  0.69496416  1
  Sc  Sc84  1  0.89597633  0.49935139  0.49567006  1
  Sc  Sc85  1  0.71090023  0.70111985  0.30045550  1
  Sc  Sc86  1  0.88492755  0.69330400  0.70424442  1
  Sc  Sc87  1  0.10629661  0.89133306  0.29751521  1
  Sc  Sc88  1  0.90200369  0.09803431  0.89166862  1
  Sc  Sc89  1  0.70055684  0.69387430  0.50179879  1
  Sc  Sc90  1  0.29579358  0.51866670  0.70057164  1
  Sc  Sc91  1  0.50652007  0.68954588  0.89987939  1
  Sc  Sc92  1  0.70353023  0.10103325  0.50788539  1
  Sc  Sc93  1  0.10135043  0.30055546  0.30366210  1
  Sc  Sc94  1  0.71040883  0.10023025  0.90429481  1
  Sc  Sc95  1  0.11817694  0.70051846  0.69768182  1
  Sc  Sc96  1  0.89550435  0.90028353  0.31043645  1
  Sc  Sc97  1  0.69516307  0.49938880  0.10157049  1
  Sc  Sc98  1  0.29521533  0.69458190  0.49856738  1
  Sc  Sc99  1  0.90203535  0.08794134  0.49238163  1
  Nb  Nb100  1  0.29684293  0.50279674  0.10405237  1
  Nb  Nb101  1  0.48898076  0.10104924  0.49746968  1
  Nb  Nb102  1  0.90081970  0.29639002  0.69806113  1
  Nb  Nb103  1  0.30720890  0.70228147  0.70062952  1
  Nb  Nb104  1  0.49768266  0.69432200  0.69653678  1
  Nb  Nb105  1  0.70394328  0.70033880  0.89516327  1
  Nb  Nb106  1  0.31242255  0.10202151  0.50319339  1
  Nb  Nb107  1  0.90191817  0.70476732  0.50515012  1
  Nb  Nb108  1  0.30677258  0.89486667  0.30827568  1
  Nb  Nb109  1  0.89590197  0.11425549  0.70298668  1
  Nb  Nb110  1  0.29565228  0.29859186  0.50911983  1
  Nb  Nb111  1  0.69977353  0.09640446  0.29289883  1
  Nb  Nb112  1  0.50059747  0.51009843  0.69735139  1
  Nb  Nb113  1  0.29989527  0.10071883  0.90013841  1
  Nb  Nb114  1  0.70005917  0.09933869  0.10338564  1
  Nb  Nb115  1  0.10079530  0.49820160  0.89820220  1
  Nb  Nb116  1  0.30342549  0.89611789  0.49542129  1
  Nb  Nb117  1  0.29954539  0.30042504  0.30273314  1
  Nb  Nb118  1  0.89844471  0.69915134  0.89883095  1
  Nb  Nb119  1  0.29863815  0.49803392  0.50197676  1
  Nb  Nb120  1  0.10171036  0.30787521  0.90066142  1
  Nb  Nb121  1  0.90140444  0.49906681  0.89839092  1
  Nb  Nb122  1  0.29431397  0.30304110  0.69354335  1
  Nb  Nb123  1  0.69727722  0.89834019  0.69721246  1
  Nb  Nb124  1  0.11305918  0.10715708  0.90179272  1
  Nb  Nb125  1  0.80108679  0.39943638  0.20329167  1
  Nb  Nb126  1  0.60401762  0.19814647  0.79926702  1
  Nb  Nb127  1  0.79933461  0.79089410  -0.00328083  1
  Nb  Nb128  1  0.39293862  0.19807161  -0.00166809  1
  Nb  Nb129  1  0.19926352  0.39965001  0.80189617  1
  Nb  Nb130  1  0.80285920  0.60140473  -0.00734065  1
  Nb  Nb131  1  0.60341082  0.19530668  0.20025654  1
  Nb  Nb132  1  0.40274607  0.79769475  -0.00622803  1
  Nb  Nb133  1  -0.00235630  0.59718306  -0.00821879  1
  Nb  Nb134  1  -0.00380722  0.60266220  0.60407571  1
  Nb  Nb135  1  0.39233506  0.40617297  0.60140546  1
  Nb  Nb136  1  -0.00369167  0.20007169  0.60395735  1
  Nb  Nb137  1  0.59625290  0.00517673  0.39899886  1
  Nb  Nb138  1  0.60431271  0.79627989  0.79494083  1
  Nb  Nb139  1  0.21135325  -0.00247018  0.40321543  1
  Nb  Nb140  1  0.39396637  -0.00177284  0.20636391  1
  Nb  Nb141  1  0.59874671  0.19409110  0.39728780  1
  Nb  Nb142  1  0.59710011  0.80530616  0.40415434  1
  Nb  Nb143  1  0.79642788  0.80156405  0.60534658  1
  Nb  Nb144  1  0.20240402  0.59433497  0.19976378  1
  Nb  Nb145  1  0.40012745  0.79450019  0.60314895  1
  Nb  Nb146  1  -0.00186071  0.79095307  0.80435646  1
  Nb  Nb147  1  0.60178981  0.00509440  0.00452049  1
  Nb  Nb148  1  0.00046427  0.59953803  0.80208405  1
  Nb  Nb149  1  0.79473139  0.19726128  0.39354374  1
  Pd  Pd150  1  0.80883422  0.19578786  -0.00560833  1
  Pd  Pd151  1  0.80668854  0.80655905  0.19301807  1
  Pd  Pd152  1  0.21173192  0.80145187  -0.00305570  1
  Pd  Pd153  1  0.59956302  0.00805052  0.59343881  1
  Pd  Pd154  1  0.79956269  0.58922575  0.80318625  1
  Pd  Pd155  1  0.01222059  -0.01119853  0.39487579  1
  Pd  Pd156  1  0.00134700  0.20643522  0.80390598  1
  Pd  Pd157  1  0.59892856  0.19297679  0.60413221  1
  Pd  Pd158  1  0.19283185  0.80680541  0.80373254  1
  Pd  Pd159  1  0.19605946  0.20741981  0.79815027  1
  Pd  Pd160  1  0.18946097  0.20660092  0.19725717  1
  Pd  Pd161  1  0.20763598  0.00097698  0.59515604  1
  Pd  Pd162  1  0.20435935  0.20817356  0.00215712  1
  Pd  Pd163  1  0.20256846  0.39812399  0.39728049  1
  Pd  Pd164  1  0.80447074  0.60584594  0.40467338  1
  Pd  Pd165  1  0.60504321  0.59233315  -0.00523873  1
  Pd  Pd166  1  0.40106100  0.20234432  0.19079088  1
  Pd  Pd167  1  0.39871114  0.39380366  0.40876216  1
  Pd  Pd168  1  0.00639648  0.19990519  0.19598843  1
  Pd  Pd169  1  0.80794918  -0.00871964  0.19433333  1
  Pd  Pd170  1  0.59995254  0.81065452  -0.01234906  1
  Pd  Pd171  1  0.80097458  0.80852355  0.79814815  1
  Pd  Pd172  1  0.58992545  0.38867519  0.40420658  1
  Pd  Pd173  1  0.41181592  0.79865359  0.80132436  1
  Pd  Pd174  1  0.20489332  -0.00398160  0.21091317  1
  Pd  Pd175  1  0.80919896  -0.00365692  0.60081807  1
  Pd  Pd176  1  -0.00261869  -0.00519983  0.20468587  1
  Pd  Pd177  1  0.00298720  -0.00311808  0.80280577  1
  Pd  Pd178  1  -0.00583878  0.00692988  0.60500826  1
  Pd  Pd179  1  0.40300282  0.59312691  0.80618123  1
  Pd  Pd180  1  0.39217582  0.39752851  0.00050219  1
  Pd  Pd181  1  -0.00613041  0.80879843  0.20496580  1
  Pd  Pd182  1  0.20349376  0.19992908  0.40815606  1
  Pd  Pd183  1  0.19535255  -0.00512875  0.80361895  1
  Pd  Pd184  1  -0.00511758  0.40363496  0.00128818  1
  Pd  Pd185  1  0.60481863  0.00381490  0.80644983  1
  Pd  Pd186  1  0.00151456  0.40119904  0.19412074  1
  Pd  Pd187  1  0.60194249  0.79247168  0.21289356  1
  Pd  Pd188  1  0.40297662  -0.00679796  0.00860672  1
  Pd  Pd189  1  0.60285790  0.39420301  0.19275860  1
  Pd  Pd190  1  0.38713782  0.41425086  0.79000674  1
  Pd  Pd191  1  -0.00805960  0.78932455  0.61856221  1
  Pd  Pd192  1  0.60587863  0.39224759  0.78513972  1
  Pd  Pd193  1  0.58879860  0.40078991  0.60536325  1
  Pd  Pd194  1  -0.00287878  0.19639825  -0.00856871  1
  Pd  Pd195  1  -0.00638794  0.20111173  0.40848802  1
  Pd  Pd196  1  0.20595976  0.60203242  0.39121948  1
  Pd  Pd197  1  0.20698816  0.79048436  0.20032025  1
  Pd  Pd198  1  0.60405555  0.60877139  0.20656967  1
  Pd  Pd199  1  0.00084505  0.01452240  -0.00312388  1
  Rh  Rh200  1  0.40263001  0.40091875  0.19826117  1
  Rh  Rh201  1  0.59435163  0.18900369  -0.00152318  1
  Rh  Rh202  1  0.60075331  0.61090145  0.39267743  1
  Rh  Rh203  1  0.19220154  0.60246114  0.00854874  1
  Rh  Rh204  1  0.39474460  0.20394317  0.60883470  1
  Rh  Rh205  1  0.39530430  0.00413640  0.39623358  1
  Rh  Rh206  1  0.19717336  0.60412785  0.59757718  1
  Rh  Rh207  1  0.79357876  0.59070805  0.19431671  1
  Rh  Rh208  1  0.00372705  0.79951287  0.39665828  1
  Rh  Rh209  1  0.19429020  0.59558716  0.80120653  1
  Rh  Rh210  1  -0.00518065  0.60398945  0.41436120  1
  Rh  Rh211  1  0.00682106  0.40122453  0.80215992  1
  Rh  Rh212  1  0.00031525  0.40390401  0.40433369  1
  Rh  Rh213  1  0.39202672  0.60080190  0.20347096  1
  Rh  Rh214  1  0.20867646  0.41107456  0.60753803  1
  Rh  Rh215  1  0.80277630  -0.00160414  0.79707564  1
  Rh  Rh216  1  0.39520936  0.60158053  0.40031622  1
  Rh  Rh217  1  0.40357445  0.60432322  -0.00338731  1
  Rh  Rh218  1  0.39421080  0.80240086  0.18749101  1
  Rh  Rh219  1  0.79695419  0.39615540  0.80021516  1
  Rh  Rh220  1  0.80126352  0.40791143  0.00678286  1
  Rh  Rh221  1  0.80649373  0.60115175  0.59394790  1
  Rh  Rh222  1  0.19561390  0.19561598  0.59861661  1
  Rh  Rh223  1  0.19756240  0.80212783  0.40023163  1
  Rh  Rh224  1  0.19620185  0.00002750  -0.00572957  1
  Rh  Rh225  1  0.19516733  0.40291000  0.20882513  1
  Rh  Rh226  1  0.80235945  0.39570600  0.39410583  1
  Rh  Rh227  1  0.81127745  0.19362964  0.58639999  1
  Rh  Rh228  1  0.01947157  0.59199689  0.18377992  1
  Rh  Rh229  1  0.39477645  0.00476431  0.79193831  1
  Rh  Rh230  1  0.80010111  0.40414335  0.59654575  1
  Rh  Rh231  1  0.39538859  0.60045648  0.59578730  1
  Rh  Rh232  1  0.79217248  0.79896519  0.41402875  1
  Rh  Rh233  1  0.59248876  0.00383272  0.19997183  1
  Rh  Rh234  1  0.21201367  0.79672084  0.59699610  1
  Rh  Rh235  1  0.59812452  0.59895898  0.79962159  1
  Rh  Rh236  1  0.79733126  0.20597249  0.80890902  1
  Rh  Rh237  1  0.79052005  0.00559502  0.39772916  1
  Rh  Rh238  1  0.60055303  0.79783937  0.59991163  1
  Rh  Rh239  1  0.79270457  -0.00879533  0.00677820  1
  Rh  Rh240  1  0.60164439  0.40942087  0.00494734  1
  Rh  Rh241  1  0.39599288  0.21185911  0.40134224  1
  Rh  Rh242  1  0.40349108  0.19435924  0.79664309  1
  Rh  Rh243  1  -0.00299152  0.40250837  0.59307937  1
  Rh  Rh244  1  0.40531869  0.79019088  0.41333025  1
  Rh  Rh245  1  0.79550118  0.20702929  0.20186713  1
  Rh  Rh246  1  0.20684767  0.39569362  -0.00910975  1
  Rh  Rh247  1  0.39306687  -0.00451127  0.60448255  1
  Rh  Rh248  1  0.60083072  0.59138294  0.59856347  1
  Rh  Rh249  1  -0.00697861  0.79234216  -0.00504053  1
