# generated using pymatgen
data_ZrScNbPdRh
_symmetry_space_group_name_H-M   'P 1'
_cell_length_a   16.56294271
_cell_length_b   16.56223359
_cell_length_c   16.55870038
_cell_angle_alpha   89.99782692
_cell_angle_beta   90.00129236
_cell_angle_gamma   90.01931245
_symmetry_Int_Tables_number   1
_chemical_formula_structural   ZrScNbPdRh
_chemical_formula_sum   'Zr50 Sc50 Nb50 Pd50 Rh50'
_cell_volume   4542.37126919
_cell_formula_units_Z   50
loop_
 _symmetry_equiv_pos_site_id
 _symmetry_equiv_pos_as_xyz
  1  'x, y, z'
loop_
 _atom_site_type_symbol
 _atom_site_label
 _atom_site_symmetry_multiplicity
 _atom_site_fract_x
 _atom_site_fract_y
 _atom_site_fract_z
 _atom_site_occupancy
  Zr  Zr0  1  0.50482810  0.30139104  0.69193727  1
  Zr  Zr1  1  0.29644172  0.09242410  0.50666952  1
  Zr  Zr2  1  0.69153666  0.29952036  0.30235509  1
  Zr  Zr3  1  0.08977819  0.50044410  0.10457019  1
  Zr  Zr4  1  0.49890173  0.10672691  0.50456958  1
  Zr  Zr5  1  0.50282369  0.10037900  0.89484185  1
  Zr  Zr6  1  0.50203451  0.89937199  0.89839347  1
  Zr  Zr7  1  0.90238134  0.09888978  0.09660302  1
  Zr  Zr8  1  0.69958650  0.89928635  0.48499697  1
  Zr  Zr9  1  0.11359826  0.49464036  0.69795167  1
  Zr  Zr10  1  0.69966904  0.10363842  0.49090044  1
  Zr  Zr11  1  0.10062604  0.30013404  0.89676642  1
  Zr  Zr12  1  0.70319446  0.49764003  0.50461933  1
  Zr  Zr13  1  0.09174588  0.89737393  0.30317798  1
  Zr  Zr14  1  0.30211844  0.69708779  0.89195647  1
  Zr  Zr15  1  0.49531715  0.50001085  0.50258480  1
  Zr  Zr16  1  0.89861197  0.29752328  0.69271496  1
  Zr  Zr17  1  0.30539778  0.09904796  0.89760388  1
  Zr  Zr18  1  0.90813190  0.88900492  0.49254383  1
  Zr  Zr19  1  0.89069075  0.50375171  0.89923986  1
  Zr  Zr20  1  0.10103078  0.89958046  0.10608111  1
  Zr  Zr21  1  0.90905647  0.50727684  0.30113360  1
  Zr  Zr22  1  0.69686826  0.69523152  0.70351256  1
  Zr  Zr23  1  0.09243189  0.29862387  0.70161372  1
  Zr  Zr24  1  0.49855941  0.89404815  0.09432388  1
  Zr  Zr25  1  0.49729986  0.29471245  0.29788652  1
  Zr  Zr26  1  0.89985941  0.49207977  0.10679139  1
  Zr  Zr27  1  0.29238054  0.88906259  0.29947034  1
  Zr  Zr28  1  0.89785270  0.68869242  0.09753892  1
  Zr  Zr29  1  0.28479830  0.31228899  0.70016544  1
  Zr  Zr30  1  0.29807981  0.50506720  0.30459218  1
  Zr  Zr31  1  0.29287268  0.69360275  0.30122125  1
  Zr  Zr32  1  0.51378961  0.30336254  0.49545207  1
  Zr  Zr33  1  0.70364283  0.30839310  0.70123318  1
  Zr  Zr34  1  0.89107109  0.08294052  0.90448925  1
  Zr  Zr35  1  0.89810209  0.68886013  0.49302241  1
  Zr  Zr36  1  0.70721299  0.49405114  0.29820871  1
  Zr  Zr37  1  0.90256334  0.69199392  0.89809241  1
  Zr  Zr38  1  0.50429553  0.50701346  0.90478381  1
  Zr  Zr39  1  0.70301928  0.29794729  0.10467409  1
  Zr  Zr40  1  0.69657152  0.70528461  0.10211971  1
  Zr  Zr41  1  0.49585917  0.70305413  0.70256893  1
  Zr  Zr42  1  0.29866074  0.50107217  0.50339337  1
  Zr  Zr43  1  0.49911056  0.90286564  0.50096482  1
  Zr  Zr44  1  0.09860427  0.10112809  0.09939179  1
  Zr  Zr45  1  0.08835011  0.70487849  0.51132357  1
  Zr  Zr46  1  0.90343771  0.90132432  0.70237318  1
  Zr  Zr47  1  0.30511770  0.30388659  0.10529711  1
  Zr  Zr48  1  0.69914582  0.29728677  0.90010491  1
  Zr  Zr49  1  0.30260283  0.70662663  0.10379940  1
  Sc  Sc50  1  0.48811765  0.70097418  0.30267885  1
  Sc  Sc51  1  0.29589993  0.12005266  0.30331889  1
  Sc  Sc52  1  0.29369002  0.30621651  0.49362586  1
  Sc  Sc53  1  0.50567517  0.10924057  0.10700471  1
  Sc  Sc54  1  0.70104626  0.90841370  0.89852903  1
  Sc  Sc55  1  0.08840652  0.30345098  0.50098421  1
  Sc  Sc56  1  0.51049171  0.30839432  0.90247169  1
  Sc  Sc57  1  0.29428973  0.29814149  0.89521937  1
  Sc  Sc58  1  0.09810444  0.70647861  0.09966981  1
  Sc  Sc59  1  0.49468063  0.48961626  0.30455034  1
  Sc  Sc60  1  0.49345337  0.70401683  0.50156200  1
  Sc  Sc61  1  0.09451963  0.10353244  0.90341363  1
  Sc  Sc62  1  0.89843986  0.11244494  0.49528068  1
  Sc  Sc63  1  0.11093652  0.29902486  0.31186281  1
  Sc  Sc64  1  0.51345649  0.89971270  0.29913836  1
  Sc  Sc65  1  0.89816894  0.10340410  0.70570350  1
  Sc  Sc66  1  0.49873577  0.70361783  0.90397692  1
  Sc  Sc67  1  0.30546303  0.30739501  0.30255102  1
  Sc  Sc68  1  0.29431930  0.90028255  0.50968946  1
  Sc  Sc69  1  0.50634003  0.30378225  0.10361305  1
  Sc  Sc70  1  0.09689264  0.50114231  0.49179467  1
  Sc  Sc71  1  0.89704018  0.30427466  0.29569807  1
  Sc  Sc72  1  0.30317158  0.69464671  0.49976153  1
  Sc  Sc73  1  0.89656710  0.70169495  0.30066810  1
  Sc  Sc74  1  0.49775622  0.89796149  0.70257118  1
  Sc  Sc75  1  0.10589428  0.90119177  0.49634530  1
  Sc  Sc76  1  0.69559626  0.49692506  0.89343796  1
  Sc  Sc77  1  0.69732695  0.10647421  0.70899099  1
  Sc  Sc78  1  0.69466341  0.89728781  0.10411840  1
  Sc  Sc79  1  0.69845718  0.09193392  0.29920556  1
  Sc  Sc80  1  0.31495937  0.89410565  0.90414963  1
  Sc  Sc81  1  0.30221307  0.10918168  0.10381472  1
  Sc  Sc82  1  0.70584510  0.89483111  0.29772964  1
  Sc  Sc83  1  0.49320366  0.49802686  0.09417855  1
  Sc  Sc84  1  0.10823272  0.88960431  0.68656911  1
  Sc  Sc85  1  0.89881311  0.09240726  0.29905693  1
  Sc  Sc86  1  0.49712039  0.10257970  0.69746672  1
  Sc  Sc87  1  0.90846502  0.69066404  0.68964168  1
  Sc  Sc88  1  0.09384515  0.50052748  0.89068423  1
  Sc  Sc89  1  0.68985588  0.89758972  0.70378628  1
  Sc  Sc90  1  0.30702499  0.10051665  0.69592957  1
  Sc  Sc91  1  0.70030884  0.50192216  0.09505749  1
  Sc  Sc92  1  0.09528236  0.89683977  0.90876036  1
  Sc  Sc93  1  0.90882936  0.90754640  0.09923752  1
  Sc  Sc94  1  0.50345136  0.50033278  0.69538720  1
  Sc  Sc95  1  0.09431747  0.09868034  0.69928162  1
  Sc  Sc96  1  0.90404777  0.29381036  0.89418813  1
  Sc  Sc97  1  0.70665794  0.10510776  0.10082626  1
  Sc  Sc98  1  0.69511078  0.68422779  0.90504992  1
  Sc  Sc99  1  0.50355677  0.70180200  0.09494452  1
  Nb  Nb100  1  0.49630712  0.10181205  0.30289748  1
  Nb  Nb101  1  0.90801948  0.29930836  0.10053475  1
  Nb  Nb102  1  0.89465585  0.30376063  0.50421863  1
  Nb  Nb103  1  0.29076428  0.69931902  0.70170581  1
  Nb  Nb104  1  0.70199673  0.49887810  0.70589101  1
  Nb  Nb105  1  0.29436523  0.90015683  0.69810766  1
  Nb  Nb106  1  0.10068318  0.10112543  0.30384988  1
  Nb  Nb107  1  0.90228649  0.90082731  0.30131078  1
  Nb  Nb108  1  0.70516258  0.70036642  0.49320006  1
  Nb  Nb109  1  0.30568802  0.50298093  0.90491812  1
  Nb  Nb110  1  0.10175292  0.10272377  0.49705498  1
  Nb  Nb111  1  0.29811814  0.90168070  0.10354730  1
  Nb  Nb112  1  0.10123435  0.69345763  0.30369896  1
  Nb  Nb113  1  0.29916146  0.50219941  0.09723184  1
  Nb  Nb114  1  0.09608579  0.30118307  0.09331993  1
  Nb  Nb115  1  0.10316756  0.69513268  0.89236920  1
  Nb  Nb116  1  0.70066491  0.29774143  0.50084380  1
  Nb  Nb117  1  0.30098460  0.50727515  0.70099181  1
  Nb  Nb118  1  0.70190756  0.69959571  0.30214385  1
  Nb  Nb119  1  0.69838324  0.10173535  0.90569045  1
  Nb  Nb120  1  0.89768782  0.89743935  0.89838245  1
  Nb  Nb121  1  0.88181438  0.49262271  0.69789760  1
  Nb  Nb122  1  0.10962201  0.69687564  0.70852062  1
  Nb  Nb123  1  0.89940949  0.49786958  0.50051494  1
  Nb  Nb124  1  0.10500947  0.50707165  0.29965762  1
  Nb  Nb125  1  0.19919730  0.40574047  0.00443782  1
  Nb  Nb126  1  0.80624771  0.79620362  0.80108395  1
  Nb  Nb127  1  0.19305331  0.19985686  0.59713365  1
  Nb  Nb128  1  0.39903304  0.00247590  0.39313501  1
  Nb  Nb129  1  0.19679379  0.40650995  0.19488973  1
  Nb  Nb130  1  0.20696252  -0.00172701  0.00351132  1
  Nb  Nb131  1  0.00343702  0.79269316  0.80020119  1
  Nb  Nb132  1  0.79793994  0.80020375  0.59851754  1
  Nb  Nb133  1  0.00608027  0.20264286  0.19752372  1
  Nb  Nb134  1  0.80531341  0.39425787  0.00361512  1
  Nb  Nb135  1  -0.00380710  0.00103490  0.59409463  1
  Nb  Nb136  1  0.60545416  0.60175979  0.40005951  1
  Nb  Nb137  1  0.39571503  0.40803585  0.79907067  1
  Nb  Nb138  1  0.20252668  0.59747560  -0.00303503  1
  Nb  Nb139  1  0.59948676  0.00655008  -0.00259123  1
  Nb  Nb140  1  0.60566735  0.60324485  0.59513341  1
  Nb  Nb141  1  0.39583024  0.00065013  0.20604364  1
  Nb  Nb142  1  0.20186337  0.00150674  0.20208106  1
  Nb  Nb143  1  0.20438923  -0.00500424  0.80252831  1
  Nb  Nb144  1  0.60138380  0.60246283  0.20876888  1
  Nb  Nb145  1  0.60517398  0.00186609  0.59431054  1
  Nb  Nb146  1  0.80356775  0.39871754  0.40979567  1
  Nb  Nb147  1  0.79899532  -0.00469659  0.59482367  1
  Nb  Nb148  1  0.80471873  0.80055157  -0.00612982  1
  Nb  Nb149  1  0.40365932  0.20207611  -0.00309139  1
  Pd  Pd150  1  0.39113219  0.79944530  0.60375769  1
  Pd  Pd151  1  0.39737976  -0.00553858  0.79062764  1
  Pd  Pd152  1  0.80677115  0.19798928  0.20728578  1
  Pd  Pd153  1  0.39845805  0.80770267  0.40113971  1
  Pd  Pd154  1  -0.00369393  0.20376945  0.39286890  1
  Pd  Pd155  1  0.19774724  0.81112629  0.80708991  1
  Pd  Pd156  1  -0.00983734  0.40573722  0.79335699  1
  Pd  Pd157  1  0.79494436  0.59993813  0.19971335  1
  Pd  Pd158  1  0.38795992  0.21369526  0.59632857  1
  Pd  Pd159  1  0.00064895  0.40837576  0.60251038  1
  Pd  Pd160  1  0.80206497  0.20634509  0.39034018  1
  Pd  Pd161  1  0.01408541  -0.01090035  0.79571811  1
  Pd  Pd162  1  0.39620528  0.20106088  0.40924767  1
  Pd  Pd163  1  -0.00381291  0.39697381  0.39446647  1
  Pd  Pd164  1  0.79637181  0.60435575  0.60257796  1
  Pd  Pd165  1  -0.00195036  0.59467838  0.78683116  1
  Pd  Pd166  1  0.39655616  0.39124349  -0.00771414  1
  Pd  Pd167  1  0.80692700  0.20509827  -0.00373621  1
  Pd  Pd168  1  -0.00554297  0.79319052  0.20267871  1
  Pd  Pd169  1  -0.00262595  0.40095485  -0.00945885  1
  Pd  Pd170  1  -0.00430080  0.00537242  0.40636811  1
  Pd  Pd171  1  0.39570656  0.39617614  0.60293336  1
  Pd  Pd172  1  0.19620605  0.79108212  0.40987203  1
  Pd  Pd173  1  0.19354402  0.20729242  0.20108563  1
  Pd  Pd174  1  0.59651758  0.00321911  0.19471265  1
  Pd  Pd175  1  0.59847189  0.20356481  0.79743946  1
  Pd  Pd176  1  0.40342088  0.01011372  0.01299599  1
  Pd  Pd177  1  0.59514702  0.79111892  0.39573851  1
  Pd  Pd178  1  0.00803274  0.59865787  -0.00199110  1
  Pd  Pd179  1  0.60785001  0.79459920  0.81205735  1
  Pd  Pd180  1  0.40557529  0.59646348  0.79640357  1
  Pd  Pd181  1  0.01170074  0.38975713  0.21426957  1
  Pd  Pd182  1  0.59557487  0.41011236  0.19443087  1
  Pd  Pd183  1  0.19702467  0.60386198  0.59368685  1
  Pd  Pd184  1  0.60594190  0.80034541  0.59518526  1
  Pd  Pd185  1  0.20778831  0.00361079  0.39117367  1
  Pd  Pd186  1  0.79504109  0.19175855  0.60353116  1
  Pd  Pd187  1  0.19821462  0.18688610  0.79062034  1
  Pd  Pd188  1  0.20655177  0.20129770  0.00015151  1
  Pd  Pd189  1  -0.00480112  0.79654091  -0.00373248  1
  Pd  Pd190  1  0.79076589  -0.00303245  0.79192073  1
  Pd  Pd191  1  0.80920666  0.80718075  0.19304829  1
  Pd  Pd192  1  0.40532451  0.21557583  0.80258504  1
  Pd  Pd193  1  0.19541516  0.60091571  0.19009311  1
  Pd  Pd194  1  0.20478241  0.79910196  -0.00541864  1
  Pd  Pd195  1  0.80038532  -0.00691174  0.19541611  1
  Pd  Pd196  1  -0.00582971  0.19182228  0.80519681  1
  Pd  Pd197  1  0.40670185  0.80490395  0.20264603  1
  Pd  Pd198  1  0.40904943  0.59599794  0.19816828  1
  Pd  Pd199  1  0.00334958  0.58555573  0.60702478  1
  Rh  Rh200  1  0.39400351  0.40596210  0.20296038  1
  Rh  Rh201  1  0.19226183  0.79868086  0.20330911  1
  Rh  Rh202  1  -0.00348235  0.80232613  0.60761042  1
  Rh  Rh203  1  0.80569708  0.80080287  0.39742664  1
  Rh  Rh204  1  0.19919388  0.20116009  0.41093360  1
  Rh  Rh205  1  0.78992468  -0.00866928  0.00683158  1
  Rh  Rh206  1  0.80877567  -0.00555411  0.40032756  1
  Rh  Rh207  1  0.80042729  0.39614549  0.19796722  1
  Rh  Rh208  1  0.00115095  0.79055609  0.39161396  1
  Rh  Rh209  1  0.00649579  0.00798832  0.20776876  1
  Rh  Rh210  1  0.60661587  0.40526026  0.40168340  1
  Rh  Rh211  1  0.00411236  0.60249690  0.39913324  1
  Rh  Rh212  1  0.00333712  0.60932498  0.20406331  1
  Rh  Rh213  1  0.79559403  0.59584514  0.00294161  1
  Rh  Rh214  1  0.19796847  0.40814610  0.39613273  1
  Rh  Rh215  1  0.59222860  0.59784208  0.79308328  1
  Rh  Rh216  1  0.40443784  0.59748037  0.40186878  1
  Rh  Rh217  1  0.80038144  0.60267980  0.79381957  1
  Rh  Rh218  1  0.39787581  0.79486801  0.00179567  1
  Rh  Rh219  1  0.59772962  0.59661702  0.00963953  1
  Rh  Rh220  1  0.40405617  0.20067782  0.19544601  1
  Rh  Rh221  1  0.59656422  0.78961570  0.20687167  1
  Rh  Rh222  1  0.79826253  0.59134346  0.39571322  1
  Rh  Rh223  1  0.60890108  0.19584171  0.60256341  1
  Rh  Rh224  1  0.20823228  0.41090741  0.81271209  1
  Rh  Rh225  1  0.80224946  0.19887265  0.80452745  1
  Rh  Rh226  1  0.58935817  0.00792725  0.40353608  1
  Rh  Rh227  1  0.39609825  0.61008083  0.00459684  1
  Rh  Rh228  1  0.00547566  -0.00045456  -0.00386991  1
  Rh  Rh229  1  0.20445058  0.78998633  0.59581615  1
  Rh  Rh230  1  0.59568272  0.19544072  0.00124460  1
  Rh  Rh231  1  0.79671105  0.39784916  0.59615538  1
  Rh  Rh232  1  0.19260287  0.39553264  0.58942971  1
  Rh  Rh233  1  0.40834526  -0.00554231  0.60042521  1
  Rh  Rh234  1  0.39375065  0.80023078  0.79232855  1
  Rh  Rh235  1  0.40008049  0.39890220  0.40326604  1
  Rh  Rh236  1  0.20407517  0.59230329  0.80531307  1
  Rh  Rh237  1  -0.00562080  0.19688719  -0.00055491  1
  Rh  Rh238  1  0.19341086  0.60554313  0.40930640  1
  Rh  Rh239  1  0.18954190  0.00897833  0.60892866  1
  Rh  Rh240  1  0.60935912  0.81021554  -0.00696709  1
  Rh  Rh241  1  0.59243393  0.40419737  0.79452737  1
  Rh  Rh242  1  0.80264833  0.39537083  0.80800587  1
  Rh  Rh243  1  0.00241996  0.19391602  0.59513762  1
  Rh  Rh244  1  0.60092505  0.19574320  0.39436978  1
  Rh  Rh245  1  0.60049621  0.00431051  0.79964796  1
  Rh  Rh246  1  0.60737629  0.40469249  0.60330310  1
  Rh  Rh247  1  0.40235277  0.60539400  0.60592952  1
  Rh  Rh248  1  0.60311835  0.19595349  0.20522367  1
  Rh  Rh249  1  0.61174508  0.40036058  0.00470590  1
