# generated using pymatgen
data_ZrScNbPdRh
_symmetry_space_group_name_H-M   'P 1'
_cell_length_a   16.55849849
_cell_length_b   16.55513007
_cell_length_c   16.55517074
_cell_angle_alpha   90.02393232
_cell_angle_beta   90.02161934
_cell_angle_gamma   89.99137444
_symmetry_Int_Tables_number   1
_chemical_formula_structural   ZrScNbPdRh
_chemical_formula_sum   'Zr50 Sc50 Nb50 Pd50 Rh50'
_cell_volume   4538.23666618
_cell_formula_units_Z   50
loop_
 _symmetry_equiv_pos_site_id
 _symmetry_equiv_pos_as_xyz
  1  'x, y, z'
loop_
 _atom_site_type_symbol
 _atom_site_label
 _atom_site_symmetry_multiplicity
 _atom_site_fract_x
 _atom_site_fract_y
 _atom_site_fract_z
 _atom_site_occupancy
  Zr  Zr0  1  0.49493716  0.69920884  0.50872952  1
  Zr  Zr1  1  0.69720740  0.50279795  0.70372293  1
  Zr  Zr2  1  0.30142105  0.49373948  0.10432603  1
  Zr  Zr3  1  0.69830903  0.89923425  0.90049368  1
  Zr  Zr4  1  0.69345339  0.29859291  0.50329471  1
  Zr  Zr5  1  0.69505218  0.90099099  0.29610600  1
  Zr  Zr6  1  0.30006689  0.29316256  0.69741142  1
  Zr  Zr7  1  0.11012530  0.30230907  0.09188677  1
  Zr  Zr8  1  0.49840347  0.69014498  0.30065726  1
  Zr  Zr9  1  0.10326209  0.09272550  0.70351334  1
  Zr  Zr10  1  0.89796870  0.89230894  0.89881201  1
  Zr  Zr11  1  0.49931413  0.29647179  0.90761501  1
  Zr  Zr12  1  0.49354938  0.70112474  0.10325729  1
  Zr  Zr13  1  0.49832908  0.50488175  0.70058600  1
  Zr  Zr14  1  0.10130141  0.29457499  0.70250012  1
  Zr  Zr15  1  0.49707931  0.90865961  0.29396769  1
  Zr  Zr16  1  0.29779035  0.49901809  0.29991386  1
  Zr  Zr17  1  0.50314012  0.10491240  0.49764036  1
  Zr  Zr18  1  0.49537932  0.90054862  0.49913512  1
  Zr  Zr19  1  0.68955134  0.11390429  0.89818579  1
  Zr  Zr20  1  0.10373724  0.69622395  0.70385576  1
  Zr  Zr21  1  0.49448244  0.10068088  0.71285723  1
  Zr  Zr22  1  0.10049469  0.09180418  0.27975953  1
  Zr  Zr23  1  0.90217064  0.10199069  0.09797495  1
  Zr  Zr24  1  0.90221722  0.09918847  0.70417628  1
  Zr  Zr25  1  0.29531577  0.89767037  0.89830276  1
  Zr  Zr26  1  0.10179241  0.68900055  0.30316258  1
  Zr  Zr27  1  0.10577995  0.48932849  0.89902873  1
  Zr  Zr28  1  0.10004869  0.29928899  0.89634019  1
  Zr  Zr29  1  0.50262177  0.49383872  0.29800659  1
  Zr  Zr30  1  0.50661888  0.90654851  0.89469124  1
  Zr  Zr31  1  0.29257372  0.10232206  0.10005251  1
  Zr  Zr32  1  0.50259040  0.69718284  0.69995884  1
  Zr  Zr33  1  0.10134843  0.89960565  0.89213402  1
  Zr  Zr34  1  0.89588009  0.90149978  0.70840497  1
  Zr  Zr35  1  0.69959303  0.09874971  0.49910378  1
  Zr  Zr36  1  0.69701796  0.70069781  0.29877305  1
  Zr  Zr37  1  0.50072924  0.10605299  0.90075404  1
  Zr  Zr38  1  0.89820877  0.29967751  0.29781115  1
  Zr  Zr39  1  0.29541503  0.70172711  0.90377847  1
  Zr  Zr40  1  0.69966601  0.48937442  0.49997668  1
  Zr  Zr41  1  0.89740404  0.10217872  0.29419671  1
  Zr  Zr42  1  0.89907618  0.49587650  0.29663722  1
  Zr  Zr43  1  0.69477152  0.50436305  0.29770609  1
  Zr  Zr44  1  0.70020276  0.70453622  0.10822381  1
  Zr  Zr45  1  0.09899027  0.90458127  0.50557957  1
  Zr  Zr46  1  0.30523821  0.69457346  0.29204010  1
  Zr  Zr47  1  0.30547556  0.69253413  0.69601103  1
  Zr  Zr48  1  0.70084489  0.69787648  0.89393002  1
  Zr  Zr49  1  0.69664618  0.10113332  0.30352504  1
  Sc  Sc50  1  0.30314721  0.69575737  0.09752689  1
  Sc  Sc51  1  0.09432271  0.70510762  0.90517130  1
  Sc  Sc52  1  0.49635147  0.30286270  0.69347392  1
  Sc  Sc53  1  0.70813675  0.30570792  0.09134992  1
  Sc  Sc54  1  0.30389815  0.10110554  0.89114618  1
  Sc  Sc55  1  0.09928055  0.49624838  0.09920642  1
  Sc  Sc56  1  0.70231816  0.31239088  0.30560572  1
  Sc  Sc57  1  0.70467577  0.90211654  0.49692928  1
  Sc  Sc58  1  0.50004298  0.09869440  0.30469866  1
  Sc  Sc59  1  0.30420611  0.29787739  0.49773608  1
  Sc  Sc60  1  0.69559753  0.70296605  0.70402631  1
  Sc  Sc61  1  0.89314547  0.69828874  0.29176319  1
  Sc  Sc62  1  0.88847338  0.90260167  0.50298948  1
  Sc  Sc63  1  0.50251346  0.49916863  0.09480765  1
  Sc  Sc64  1  0.30358963  0.30947400  0.29745816  1
  Sc  Sc65  1  0.70532646  0.29961797  0.70274011  1
  Sc  Sc66  1  0.49333196  0.30609653  0.09846285  1
  Sc  Sc67  1  0.09823401  0.68958733  0.09236447  1
  Sc  Sc68  1  0.10090196  0.49513945  0.70254134  1
  Sc  Sc69  1  0.30658644  0.49732634  0.69972324  1
  Sc  Sc70  1  0.90101599  0.49568281  0.89350220  1
  Sc  Sc71  1  0.09561880  0.10421271  0.51213765  1
  Sc  Sc72  1  0.90336049  0.49068542  0.70524190  1
  Sc  Sc73  1  0.30008632  0.30481408  0.89929145  1
  Sc  Sc74  1  0.69729008  0.70433468  0.50663297  1
  Sc  Sc75  1  0.30618839  0.89360144  0.10187198  1
  Sc  Sc76  1  0.70244082  0.11091872  0.09314104  1
  Sc  Sc77  1  0.89818218  0.29970646  0.89545881  1
  Sc  Sc78  1  0.09816578  0.29578380  0.50292837  1
  Sc  Sc79  1  0.90028603  0.30285422  0.50673362  1
  Sc  Sc80  1  0.31129444  0.49756658  0.90016574  1
  Sc  Sc81  1  0.30553131  0.90173269  0.50618880  1
  Sc  Sc82  1  0.29969413  0.10177041  0.51157781  1
  Sc  Sc83  1  0.11266039  0.50697504  0.49053645  1
  Sc  Sc84  1  0.89910930  0.09949042  0.89809985  1
  Sc  Sc85  1  0.89552445  0.89685784  0.09004324  1
  Sc  Sc86  1  0.49840833  0.89751294  0.70131384  1
  Sc  Sc87  1  0.89184409  0.89925975  0.29631718  1
  Sc  Sc88  1  0.49917352  0.29957191  0.49937781  1
  Sc  Sc89  1  0.49618074  0.11056803  0.09897435  1
  Sc  Sc90  1  0.30211549  0.49692291  0.49994092  1
  Sc  Sc91  1  0.70233151  0.10775075  0.70589100  1
  Sc  Sc92  1  0.30169166  0.69163507  0.50093498  1
  Sc  Sc93  1  0.29338525  0.91194951  0.70408438  1
  Sc  Sc94  1  0.09713089  0.92043322  0.09967553  1
  Sc  Sc95  1  0.30475317  0.09813956  0.28844342  1
  Sc  Sc96  1  0.90231349  0.29903058  0.70705637  1
  Sc  Sc97  1  0.30706581  0.90385817  0.29486418  1
  Sc  Sc98  1  0.49854033  0.69123501  0.90138989  1
  Sc  Sc99  1  0.11201073  0.49792289  0.29516202  1
  Nb  Nb100  1  0.69703868  0.30499622  0.89851878  1
  Nb  Nb101  1  0.89583750  0.09712872  0.49509826  1
  Nb  Nb102  1  0.90266438  0.69960704  0.50023419  1
  Nb  Nb103  1  0.50846061  0.49502972  0.50967402  1
  Nb  Nb104  1  0.90008488  0.69658645  0.70456230  1
  Nb  Nb105  1  0.90419221  0.69866083  0.09150757  1
  Nb  Nb106  1  0.09994752  0.89894847  0.70196151  1
  Nb  Nb107  1  0.50297066  0.90152439  0.09776164  1
  Nb  Nb108  1  0.90162120  0.49972904  0.49814633  1
  Nb  Nb109  1  0.89926066  0.70276363  0.90513962  1
  Nb  Nb110  1  0.30508874  0.30118014  0.09531684  1
  Nb  Nb111  1  0.50425427  0.29973819  0.30084904  1
  Nb  Nb112  1  0.70279352  0.50349575  0.09154456  1
  Nb  Nb113  1  0.89747433  0.49786219  0.10172436  1
  Nb  Nb114  1  0.09585555  0.09942870  0.90733855  1
  Nb  Nb115  1  0.50524805  0.50015660  0.90164974  1
  Nb  Nb116  1  0.69569656  0.89886585  0.70664924  1
  Nb  Nb117  1  0.10214019  0.30021211  0.30397176  1
  Nb  Nb118  1  0.09591776  0.89976295  0.29857043  1
  Nb  Nb119  1  0.90139721  0.30254558  0.10861305  1
  Nb  Nb120  1  0.09810973  0.10567378  0.09455434  1
  Nb  Nb121  1  0.69117195  0.89898146  0.10241044  1
  Nb  Nb122  1  0.10132053  0.69993199  0.50103660  1
  Nb  Nb123  1  0.29887157  0.10335199  0.69972760  1
  Nb  Nb124  1  0.69683368  0.49714997  0.90628270  1
  Nb  Nb125  1  0.19593631  0.80262142  0.39971435  1
  Nb  Nb126  1  0.20275366  0.60020235  0.80294125  1
  Nb  Nb127  1  0.59995740  0.40373176  0.80931072  1
  Nb  Nb128  1  0.00615501  0.20580225  0.19203826  1
  Nb  Nb129  1  -0.00096285  0.79512971  0.60210628  1
  Nb  Nb130  1  0.19392341  0.79931285  0.60023334  1
  Nb  Nb131  1  0.19024636  0.80004453  0.20465350  1
  Nb  Nb132  1  0.80325193  0.59700922  0.40805859  1
  Nb  Nb133  1  0.00122872  0.40082190  0.39720924  1
  Nb  Nb134  1  -0.00008336  0.00003093  0.39844475  1
  Nb  Nb135  1  0.39721598  0.79800056  0.80062207  1
  Nb  Nb136  1  0.19459991  0.19394449  0.39273071  1
  Nb  Nb137  1  0.80185470  0.19878088  0.40349867  1
  Nb  Nb138  1  0.40409593  -0.00137461  -0.00116610  1
  Nb  Nb139  1  0.80905762  0.60018079  0.59879175  1
  Nb  Nb140  1  0.00260314  0.79842813  0.19826167  1
  Nb  Nb141  1  0.19348277  0.00135001  0.39718841  1
  Nb  Nb142  1  0.00148750  0.79984069  0.40103294  1
  Nb  Nb143  1  0.79070454  -0.00234870  0.19198369  1
  Nb  Nb144  1  0.60169825  0.00111841  0.60469737  1
  Nb  Nb145  1  0.59282527  0.79989229  0.39732537  1
  Nb  Nb146  1  0.60042164  0.20964705  0.20472961  1
  Nb  Nb147  1  -0.00348381  0.60339586  0.59594974  1
  Nb  Nb148  1  0.80323376  0.59808065  0.00220036  1
  Nb  Nb149  1  0.20142274  0.39519597  0.60192707  1
  Pd  Pd150  1  0.60500844  0.39599269  0.18925606  1
  Pd  Pd151  1  0.39018039  0.19655434  0.39441996  1
  Pd  Pd152  1  0.40622600  0.00341087  0.60679584  1
  Pd  Pd153  1  0.60110165  0.01650567  0.18868575  1
  Pd  Pd154  1  0.59684364  0.79256692  -0.00434088  1
  Pd  Pd155  1  0.79092074  0.40178630  0.19743795  1
  Pd  Pd156  1  0.19983131  0.21007614  0.20275928  1
  Pd  Pd157  1  -0.00323332  -0.00298661  -0.00750612  1
  Pd  Pd158  1  0.00026897  0.60199907  0.19734483  1
  Pd  Pd159  1  0.39687852  0.79991699  0.39547399  1
  Pd  Pd160  1  0.80699618  0.20035518  0.59764746  1
  Pd  Pd161  1  0.80077384  0.59788605  0.19719129  1
  Pd  Pd162  1  0.00094550  0.19785096  0.39490702  1
  Pd  Pd163  1  0.80580023  0.20682244  -0.00576945  1
  Pd  Pd164  1  0.40532871  0.20536684  0.20319032  1
  Pd  Pd165  1  0.40157459  0.58883546  0.40597233  1
  Pd  Pd166  1  0.59596553  0.19576455  0.61008053  1
  Pd  Pd167  1  0.59737718  0.00842075  0.00711652  1
  Pd  Pd168  1  -0.00727473  0.39779434  -0.00031964  1
  Pd  Pd169  1  0.20748892  0.19831357  -0.01090304  1
  Pd  Pd170  1  -0.00162501  0.79601499  0.79837550  1
  Pd  Pd171  1  0.60290265  0.81018136  0.59589086  1
  Pd  Pd172  1  0.38853232  0.00869855  0.40264567  1
  Pd  Pd173  1  0.60489379  0.60392347  0.41209096  1
  Pd  Pd174  1  0.79224887  0.00164545  0.60860294  1
  Pd  Pd175  1  0.01181671  0.40881339  0.59141540  1
  Pd  Pd176  1  -0.00568445  0.58956291  -0.00675377  1
  Pd  Pd177  1  0.79212366  0.00594284  0.80753272  1
  Pd  Pd178  1  0.79418277  0.79512848  0.00307630  1
  Pd  Pd179  1  0.80130897  0.79569534  0.60889265  1
  Pd  Pd180  1  0.80187873  0.40166194  0.60653159  1
  Pd  Pd181  1  0.58877422  0.79890483  0.20553803  1
  Pd  Pd182  1  0.79198646  0.00161507  0.00011778  1
  Pd  Pd183  1  0.01053845  0.39703790  0.20259606  1
  Pd  Pd184  1  0.19938188  0.19472448  0.80614437  1
  Pd  Pd185  1  0.20275134  0.59114251  -0.00418075  1
  Pd  Pd186  1  0.80984644  0.40328194  -0.00483355  1
  Pd  Pd187  1  -0.00642787  0.19804411  0.60483619  1
  Pd  Pd188  1  0.20709827  -0.00006930  -0.00126152  1
  Pd  Pd189  1  0.00520895  0.59773291  0.80323260  1
  Pd  Pd190  1  0.80330996  0.59736953  0.80217839  1
  Pd  Pd191  1  0.79864889  0.79295368  0.39923903  1
  Pd  Pd192  1  0.40733324  0.80560824  -0.00710875  1
  Pd  Pd193  1  0.18860464  0.80729988  0.01559180  1
  Pd  Pd194  1  -0.00414452  0.59645650  0.39870000  1
  Pd  Pd195  1  -0.00649399  0.20817567  0.00072590  1
  Pd  Pd196  1  0.60360871  0.60742682  0.00442662  1
  Pd  Pd197  1  0.40688889  0.40328380  0.40451125  1
  Pd  Pd198  1  0.40723645  0.39476631  0.80035635  1
  Pd  Pd199  1  -0.00838289  -0.00395662  0.59810931  1
  Rh  Rh200  1  0.39168522  0.19572195  0.00015612  1
  Rh  Rh201  1  0.20902106  0.40142433  0.00003957  1
  Rh  Rh202  1  0.40048886  0.80153725  0.20171168  1
  Rh  Rh203  1  0.59923117  0.39834584  0.61005328  1
  Rh  Rh204  1  0.40078479  0.59511841  0.00162826  1
  Rh  Rh205  1  0.20247547  -0.00147187  0.59886491  1
  Rh  Rh206  1  0.39913420  0.20653946  0.79946051  1
  Rh  Rh207  1  0.20280523  0.20402485  0.59367261  1
  Rh  Rh208  1  0.60671539  0.20990767  0.39243500  1
  Rh  Rh209  1  0.79791445  0.79715654  0.79720703  1
  Rh  Rh210  1  0.21150625  0.60473412  0.39749983  1
  Rh  Rh211  1  0.39974379  0.40304819  0.00037576  1
  Rh  Rh212  1  0.19622322  0.59341743  0.60767167  1
  Rh  Rh213  1  0.59234303  0.39781592  0.40261526  1
  Rh  Rh214  1  0.39601785  0.60532941  0.80740115  1
  Rh  Rh215  1  0.38810721  0.80450733  0.61101909  1
  Rh  Rh216  1  0.00581567  0.80587087  0.00526377  1
  Rh  Rh217  1  0.60727916  0.00288502  0.79243441  1
  Rh  Rh218  1  -0.01596815  -0.00273951  0.19780825  1
  Rh  Rh219  1  0.19386968  0.38821696  0.41006003  1
  Rh  Rh220  1  0.59852416  0.39755172  -0.00104013  1
  Rh  Rh221  1  0.39688685  0.40077865  0.59504070  1
  Rh  Rh222  1  0.40279215  0.19587441  0.60072857  1
  Rh  Rh223  1  0.40351194  0.00154747  0.18562028  1
  Rh  Rh224  1  0.20126583  0.60353473  0.19224619  1
  Rh  Rh225  1  0.19588773  0.00811984  0.80475179  1
  Rh  Rh226  1  0.00359024  0.19349052  0.80301069  1
  Rh  Rh227  1  0.40134908  0.39923205  0.19972016  1
  Rh  Rh228  1  0.80539520  0.00504414  0.38995499  1
  Rh  Rh229  1  0.80795806  0.80672898  0.18978461  1
  Rh  Rh230  1  0.79211841  0.39930586  0.80173562  1
  Rh  Rh231  1  0.00144119  0.39419586  0.80136824  1
  Rh  Rh232  1  0.80096890  0.20120073  0.80414722  1
  Rh  Rh233  1  0.59918267  0.59465023  0.80294120  1
  Rh  Rh234  1  0.59323547  0.79690824  0.80381422  1
  Rh  Rh235  1  0.20574869  0.40698482  0.79264194  1
  Rh  Rh236  1  0.60736089  0.59751498  0.59734185  1
  Rh  Rh237  1  0.00286386  0.00139977  0.80566878  1
  Rh  Rh238  1  0.80862028  0.39812015  0.40356936  1
  Rh  Rh239  1  0.20937565  -0.01080365  0.19782990  1
  Rh  Rh240  1  0.20852979  0.79162039  0.78936397  1
  Rh  Rh241  1  0.39487454  -0.00572494  0.80481025  1
  Rh  Rh242  1  0.40424722  0.59023813  0.19609877  1
  Rh  Rh243  1  0.59751750  0.21541991  0.79570831  1
  Rh  Rh244  1  0.79604321  0.19854383  0.20410615  1
  Rh  Rh245  1  0.40359689  0.59059665  0.59281683  1
  Rh  Rh246  1  0.60054905  0.21088633  0.01115996  1
  Rh  Rh247  1  0.59721376  -0.00959418  0.41036865  1
  Rh  Rh248  1  0.20199465  0.39521530  0.19701105  1
  Rh  Rh249  1  0.59686818  0.59524659  0.19110789  1
