# generated using pymatgen
data_ZrScNbPdRh
_symmetry_space_group_name_H-M   'P 1'
_cell_length_a   16.55235814
_cell_length_b   16.55373242
_cell_length_c   16.55262831
_cell_angle_alpha   90.00525296
_cell_angle_beta   90.01154575
_cell_angle_gamma   89.98056513
_symmetry_Int_Tables_number   1
_chemical_formula_structural   ZrScNbPdRh
_chemical_formula_sum   'Zr50 Sc50 Nb50 Pd50 Rh50'
_cell_volume   4535.47453239
_cell_formula_units_Z   50
loop_
 _symmetry_equiv_pos_site_id
 _symmetry_equiv_pos_as_xyz
  1  'x, y, z'
loop_
 _atom_site_type_symbol
 _atom_site_label
 _atom_site_symmetry_multiplicity
 _atom_site_fract_x
 _atom_site_fract_y
 _atom_site_fract_z
 _atom_site_occupancy
  Zr  Zr0  1  0.09615598  0.89653467  0.30232643  1
  Zr  Zr1  1  0.51087128  0.30098985  0.68588669  1
  Zr  Zr2  1  0.09495129  0.49232857  0.89735453  1
  Zr  Zr3  1  0.10060734  0.11014942  0.09342582  1
  Zr  Zr4  1  0.10594473  0.70367540  0.09454106  1
  Zr  Zr5  1  0.51712535  0.10326689  0.90735776  1
  Zr  Zr6  1  0.69527830  0.89521985  0.69117328  1
  Zr  Zr7  1  0.69521771  0.10057290  0.29764566  1
  Zr  Zr8  1  0.10008133  0.29958284  0.29380249  1
  Zr  Zr9  1  0.90217014  0.90432027  0.28704555  1
  Zr  Zr10  1  0.90348796  0.10335681  0.69375239  1
  Zr  Zr11  1  0.50251598  0.30065706  0.10654003  1
  Zr  Zr12  1  0.70672465  0.69105291  0.30525211  1
  Zr  Zr13  1  0.89389039  0.29786515  0.69506747  1
  Zr  Zr14  1  0.90141433  0.49839353  0.90316776  1
  Zr  Zr15  1  0.29467827  0.30363831  0.70497461  1
  Zr  Zr16  1  0.09825652  0.89527159  0.49240639  1
  Zr  Zr17  1  0.30042299  0.09305735  0.69041800  1
  Zr  Zr18  1  0.10056061  0.49277394  0.10468534  1
  Zr  Zr19  1  0.09805432  0.69644851  0.69346067  1
  Zr  Zr20  1  0.30632016  0.69652842  0.68849604  1
  Zr  Zr21  1  0.10004042  0.69477587  0.89741090  1
  Zr  Zr22  1  0.89969230  0.09595879  0.10416114  1
  Zr  Zr23  1  0.69981746  0.90903225  0.90442225  1
  Zr  Zr24  1  0.90233926  0.10025950  0.90634098  1
  Zr  Zr25  1  0.69895947  0.49681873  0.70523522  1
  Zr  Zr26  1  0.89057938  0.69367812  0.49651881  1
  Zr  Zr27  1  0.49240855  0.11481508  0.50383997  1
  Zr  Zr28  1  0.69806218  0.70759624  0.50298405  1
  Zr  Zr29  1  0.68807127  0.69121049  0.10081386  1
  Zr  Zr30  1  0.89925650  0.29822388  0.30098572  1
  Zr  Zr31  1  0.30476311  0.49791739  0.10885073  1
  Zr  Zr32  1  0.29413988  0.90013679  0.09700910  1
  Zr  Zr33  1  0.69649877  0.29960856  0.29128586  1
  Zr  Zr34  1  0.90640459  0.69962040  0.29590905  1
  Zr  Zr35  1  0.90442846  0.70317604  0.69943761  1
  Zr  Zr36  1  0.49818286  0.09772138  0.70302091  1
  Zr  Zr37  1  0.89454250  0.10445223  0.50065494  1
  Zr  Zr38  1  0.69178073  0.10297229  0.09706787  1
  Zr  Zr39  1  0.10254482  0.10537032  0.70717525  1
  Zr  Zr40  1  0.30249605  0.50415737  0.49809716  1
  Zr  Zr41  1  0.49780403  0.30329807  0.90381232  1
  Zr  Zr42  1  0.89402314  0.90192413  0.09466120  1
  Zr  Zr43  1  0.49830423  0.48938321  0.50196015  1
  Zr  Zr44  1  0.29560226  0.69736648  0.49674223  1
  Zr  Zr45  1  0.10132853  0.49438481  0.70102428  1
  Zr  Zr46  1  0.90591026  0.50596667  0.29521819  1
  Zr  Zr47  1  0.70197663  0.50962789  0.48940592  1
  Zr  Zr48  1  0.90869987  0.30023364  0.10216082  1
  Zr  Zr49  1  0.69898962  0.09267182  0.49196953  1
  Sc  Sc50  1  0.30324003  0.30504960  0.30025713  1
  Sc  Sc51  1  0.48935786  0.90198831  0.70179322  1
  Sc  Sc52  1  0.50222670  0.90595288  0.29292581  1
  Sc  Sc53  1  0.50262993  0.50538053  0.11097864  1
  Sc  Sc54  1  0.09106161  0.89265990  0.68969002  1
  Sc  Sc55  1  0.29701783  0.69277134  0.30039044  1
  Sc  Sc56  1  0.90570052  0.69264020  0.89901696  1
  Sc  Sc57  1  0.89701315  0.70116925  0.10368103  1
  Sc  Sc58  1  0.49556158  0.70472058  0.28593447  1
  Sc  Sc59  1  0.69398722  0.10605521  0.69546014  1
  Sc  Sc60  1  0.49908880  0.70073183  0.70007774  1
  Sc  Sc61  1  0.70675404  0.69657610  0.69687463  1
  Sc  Sc62  1  0.29495873  0.90645581  0.50772261  1
  Sc  Sc63  1  0.89901735  0.90321106  0.50437022  1
  Sc  Sc64  1  0.89702191  0.49236954  0.09721831  1
  Sc  Sc65  1  0.29831480  0.90329664  0.90124217  1
  Sc  Sc66  1  0.09309145  0.90560051  0.10399262  1
  Sc  Sc67  1  0.51057809  0.50655537  0.89184304  1
  Sc  Sc68  1  0.49929735  0.90959505  0.89829346  1
  Sc  Sc69  1  0.10351611  0.70280443  0.49277688  1
  Sc  Sc70  1  0.70594162  0.50489936  0.90246951  1
  Sc  Sc71  1  0.29206439  0.90749993  0.29629480  1
  Sc  Sc72  1  0.09995087  0.29170759  0.89868719  1
  Sc  Sc73  1  0.89948177  0.29889029  0.50037233  1
  Sc  Sc74  1  0.69952736  0.89563184  0.49470169  1
  Sc  Sc75  1  0.70190027  0.89571781  0.10172439  1
  Sc  Sc76  1  0.10553841  0.89323978  0.91223947  1
  Sc  Sc77  1  0.50253782  0.49183535  0.30640473  1
  Sc  Sc78  1  0.49787900  0.70257013  0.50059949  1
  Sc  Sc79  1  0.69884610  0.69051121  0.90429751  1
  Sc  Sc80  1  0.89704194  0.49445550  0.70775961  1
  Sc  Sc81  1  0.29970195  0.50498499  0.30217112  1
  Sc  Sc82  1  0.70007046  0.90716139  0.30582908  1
  Sc  Sc83  1  0.69234504  0.30023135  0.90414762  1
  Sc  Sc84  1  0.30205105  0.70537962  0.90052698  1
  Sc  Sc85  1  0.88994774  0.10105174  0.30259068  1
  Sc  Sc86  1  0.69331770  0.30383575  0.51200950  1
  Sc  Sc87  1  0.90679847  0.30641435  0.90359506  1
  Sc  Sc88  1  0.28432583  0.09386140  0.90213626  1
  Sc  Sc89  1  0.10012247  0.09487552  0.50543156  1
  Sc  Sc90  1  0.49587892  0.50247040  0.70066196  1
  Sc  Sc91  1  0.09494078  0.29901988  0.70813004  1
  Sc  Sc92  1  0.31275402  0.48762690  0.88770253  1
  Sc  Sc93  1  0.10386276  0.09313801  0.29372176  1
  Sc  Sc94  1  0.09286642  0.30770394  0.49002013  1
  Sc  Sc95  1  0.30538297  0.69633638  0.11290490  1
  Sc  Sc96  1  0.28796288  0.09524900  0.10325049  1
  Sc  Sc97  1  0.10161145  0.50203421  0.30425490  1
  Sc  Sc98  1  0.70755185  0.30463125  0.10749600  1
  Sc  Sc99  1  0.50653420  0.89878515  0.49730245  1
  Nb  Nb100  1  0.30296990  0.10734306  0.50400573  1
  Nb  Nb101  1  0.31269814  0.29644436  0.50296934  1
  Nb  Nb102  1  0.69843627  0.10023408  0.90066168  1
  Nb  Nb103  1  0.70456656  0.49602648  0.29191758  1
  Nb  Nb104  1  0.50067885  0.70422791  0.09907498  1
  Nb  Nb105  1  0.30491437  0.29958839  0.90404308  1
  Nb  Nb106  1  0.50257919  0.10497234  0.30142418  1
  Nb  Nb107  1  0.10909389  0.29533717  0.09980274  1
  Nb  Nb108  1  0.70071726  0.49485524  0.10685783  1
  Nb  Nb109  1  0.89413487  0.90403486  0.90019724  1
  Nb  Nb110  1  0.09971603  0.70323935  0.29772189  1
  Nb  Nb111  1  0.50859549  0.69843948  0.90466846  1
  Nb  Nb112  1  0.90793891  0.49772498  0.49055185  1
  Nb  Nb113  1  0.50163102  0.29150180  0.30845962  1
  Nb  Nb114  1  0.30234309  0.89976890  0.70579449  1
  Nb  Nb115  1  0.09398470  0.10113574  0.89805176  1
  Nb  Nb116  1  0.70463001  0.30149403  0.69763690  1
  Nb  Nb117  1  0.09890505  0.50066106  0.49666547  1
  Nb  Nb118  1  0.30129760  0.29458818  0.09791531  1
  Nb  Nb119  1  0.30010402  0.10257181  0.30115576  1
  Nb  Nb120  1  0.49091701  0.89334891  0.10587901  1
  Nb  Nb121  1  0.89838467  0.89899712  0.70351563  1
  Nb  Nb122  1  0.49636118  0.09781894  0.10406511  1
  Nb  Nb123  1  0.48891971  0.30326808  0.49773028  1
  Nb  Nb124  1  0.29827124  0.50296872  0.69300213  1
  Nb  Nb125  1  0.39963349  0.20022697  0.80581088  1
  Nb  Nb126  1  0.19465845  0.79912603  0.20280004  1
  Nb  Nb127  1  0.59459996  0.00374693  0.59797216  1
  Nb  Nb128  1  0.79958053  0.40625381  0.39549604  1
  Nb  Nb129  1  0.60113480  0.40574749  0.00905136  1
  Nb  Nb130  1  0.39394168  0.80755410  0.39539519  1
  Nb  Nb131  1  0.40190048  0.19511368  0.20080508  1
  Nb  Nb132  1  0.20411713  0.59906751  0.79825371  1
  Nb  Nb133  1  0.60281274  0.79967578  0.80420470  1
  Nb  Nb134  1  0.79884933  0.19769810  -0.00209749  1
  Nb  Nb135  1  0.40541864  0.60447538  -0.00003029  1
  Nb  Nb136  1  0.20888223  0.59024316  -0.00382726  1
  Nb  Nb137  1  0.20766622  0.39383671  0.00167986  1
  Nb  Nb138  1  0.60277273  0.59755547  0.59572466  1
  Nb  Nb139  1  0.20278737  0.40281113  0.59465992  1
  Nb  Nb140  1  0.39813614  0.19760429  0.00337251  1
  Nb  Nb141  1  0.80120895  0.80694027  0.80333747  1
  Nb  Nb142  1  0.39814621  0.00998239  0.40029689  1
  Nb  Nb143  1  0.80131660  0.00186930  0.79889225  1
  Nb  Nb144  1  0.79629091  0.19746335  0.80361708  1
  Nb  Nb145  1  0.40859068  0.79697557  0.00488008  1
  Nb  Nb146  1  -0.00355769  -0.00326772  0.80337690  1
  Nb  Nb147  1  0.20433558  0.79700849  0.79065355  1
  Nb  Nb148  1  0.20941645  0.19733201  0.40438139  1
  Nb  Nb149  1  -0.00051951  0.59189258  0.59242660  1
  Pd  Pd150  1  0.00281364  0.40032764  0.60056411  1
  Pd  Pd151  1  0.80040830  0.78905758  -0.00620778  1
  Pd  Pd152  1  0.39935432  0.00307428  -0.00299433  1
  Pd  Pd153  1  0.60148956  0.39909121  0.80414343  1
  Pd  Pd154  1  0.80174757  0.60058522  0.00706643  1
  Pd  Pd155  1  0.40889078  0.60738735  0.39509302  1
  Pd  Pd156  1  0.20239611  0.80522648  0.60247567  1
  Pd  Pd157  1  0.00594552  -0.00236632  -0.00276633  1
  Pd  Pd158  1  -0.00625643  0.00671497  0.39793283  1
  Pd  Pd159  1  0.40833588  0.39408886  0.78974703  1
  Pd  Pd160  1  0.60573483  0.20759414  0.40831957  1
  Pd  Pd161  1  0.19366115  -0.00555178  0.60369334  1
  Pd  Pd162  1  0.20474410  0.00604490  0.40462561  1
  Pd  Pd163  1  0.60213362  0.20703043  0.79633911  1
  Pd  Pd164  1  0.40452927  0.39523503  0.20915751  1
  Pd  Pd165  1  0.80391356  0.58941706  0.60385047  1
  Pd  Pd166  1  0.60664755  0.39225122  0.39993866  1
  Pd  Pd167  1  0.00963203  0.20652398  0.59362559  1
  Pd  Pd168  1  0.40256423  0.79750870  0.80837062  1
  Pd  Pd169  1  0.00348190  0.59678330  0.00903015  1
  Pd  Pd170  1  0.20646116  0.39484896  0.40482459  1
  Pd  Pd171  1  0.39688247  0.01123263  0.81218757  1
  Pd  Pd172  1  0.39666632  0.00342166  0.20487916  1
  Pd  Pd173  1  0.79143845  0.79775229  0.20221395  1
  Pd  Pd174  1  0.59546480  -0.01027984  0.01352389  1
  Pd  Pd175  1  0.01033245  0.19045967  0.39768470  1
  Pd  Pd176  1  0.79708538  0.39045578  0.81013305  1
  Pd  Pd177  1  0.20684647  0.20021907  0.80550344  1
  Pd  Pd178  1  0.80653176  0.80763318  0.39438115  1
  Pd  Pd179  1  0.40557378  0.40700217  0.00402604  1
  Pd  Pd180  1  0.00339241  0.80798295  0.80830815  1
  Pd  Pd181  1  0.78958415  0.21278162  0.40634475  1
  Pd  Pd182  1  0.00364124  0.00001788  0.60280633  1
  Pd  Pd183  1  0.79232822  0.00017767  0.60236892  1
  Pd  Pd184  1  0.18692053  -0.01398442  0.79671573  1
  Pd  Pd185  1  0.00436452  0.60033611  0.19206180  1
  Pd  Pd186  1  0.60888110  0.80239519  0.20757353  1
  Pd  Pd187  1  0.39678986  0.60605483  0.80511932  1
  Pd  Pd188  1  -0.01003390  0.79835035  0.40347119  1
  Pd  Pd189  1  0.40181829  0.80721578  0.59098363  1
  Pd  Pd190  1  0.59041312  0.79715537  0.38898459  1
  Pd  Pd191  1  -0.00789125  0.79971650  0.00002520  1
  Pd  Pd192  1  0.80054443  0.40845531  0.58961803  1
  Pd  Pd193  1  0.59646755  0.59712719  0.20897592  1
  Pd  Pd194  1  0.20359652  0.39657735  0.20052958  1
  Pd  Pd195  1  0.58994539  0.60712143  0.39899743  1
  Pd  Pd196  1  0.59620894  0.80859234  -0.00453289  1
  Pd  Pd197  1  0.19161215  0.21339650  0.59107935  1
  Pd  Pd198  1  0.60125870  -0.00379029  0.19542308  1
  Pd  Pd199  1  -0.00028540  0.19232297  0.20735051  1
  Rh  Rh200  1  0.60507102  0.60972876  0.78887080  1
  Rh  Rh201  1  0.20302403  0.20287142  -0.00701725  1
  Rh  Rh202  1  0.79445057  0.00798190  0.00300224  1
  Rh  Rh203  1  0.59379374  0.79798627  0.60727369  1
  Rh  Rh204  1  0.21316310  0.79093850  0.00377673  1
  Rh  Rh205  1  0.19050504  0.59126917  0.59969051  1
  Rh  Rh206  1  0.59526456  0.40096785  0.20189934  1
  Rh  Rh207  1  -0.00881219  0.19682423  0.80140452  1
  Rh  Rh208  1  -0.00734930  0.79126944  0.58724618  1
  Rh  Rh209  1  0.39487990  0.20059000  0.39153178  1
  Rh  Rh210  1  0.60190386  0.20910647  0.00955278  1
  Rh  Rh211  1  0.00215393  0.39838155  0.20118885  1
  Rh  Rh212  1  -0.00496525  0.40075187  0.39174347  1
  Rh  Rh213  1  0.38814856  0.80528215  0.20192937  1
  Rh  Rh214  1  0.19034496  0.00304458  0.00121272  1
  Rh  Rh215  1  0.60495105  0.40978868  0.60032230  1
  Rh  Rh216  1  0.58779317  0.00449018  0.40622493  1
  Rh  Rh217  1  0.40579899  0.59787285  0.20170685  1
  Rh  Rh218  1  -0.00495484  0.39375843  0.79891422  1
  Rh  Rh219  1  0.00632959  0.60604658  0.40322517  1
  Rh  Rh220  1  0.20684546  0.20289528  0.20923197  1
  Rh  Rh221  1  0.81026710  0.40265958  0.20535931  1
  Rh  Rh222  1  0.00118835  0.59241989  0.79002826  1
  Rh  Rh223  1  0.00013811  0.00575074  0.19991167  1
  Rh  Rh224  1  0.39706344  0.20764898  0.61487184  1
  Rh  Rh225  1  0.19344231  0.60550258  0.19973846  1
  Rh  Rh226  1  0.79350015  0.19943773  0.60054728  1
  Rh  Rh227  1  0.39330582  0.39950388  0.60420279  1
  Rh  Rh228  1  -0.00229104  0.20533157  0.00010995  1
  Rh  Rh229  1  0.19447185  -0.00291257  0.19709908  1
  Rh  Rh230  1  0.80543769  0.59438820  0.39208690  1
  Rh  Rh231  1  0.80693093  0.80266988  0.60185470  1
  Rh  Rh232  1  0.79042112  0.39420809  -0.00080676  1
  Rh  Rh233  1  0.39661092  0.39857856  0.39666599  1
  Rh  Rh234  1  0.79892262  0.59969924  0.19392543  1
  Rh  Rh235  1  0.59465926  0.19903393  0.19797120  1
  Rh  Rh236  1  0.01325434  0.39274199  0.00434154  1
  Rh  Rh237  1  0.80011875  0.19566945  0.19181193  1
  Rh  Rh238  1  0.60244658  0.19600568  0.59458987  1
  Rh  Rh239  1  0.80635464  -0.00469485  0.39807984  1
  Rh  Rh240  1  0.19344215  0.60135116  0.39706254  1
  Rh  Rh241  1  0.59546936  0.58888262  0.00616111  1
  Rh  Rh242  1  0.80405745  0.60650660  0.80136373  1
  Rh  Rh243  1  0.40527058  -0.00573138  0.59154518  1
  Rh  Rh244  1  0.20931906  0.79850313  0.39096180  1
  Rh  Rh245  1  0.00498125  0.79840797  0.19249702  1
  Rh  Rh246  1  0.60764320  -0.00767089  0.78846718  1
  Rh  Rh247  1  0.20155576  0.40476948  0.80210446  1
  Rh  Rh248  1  0.79190645  0.00231056  0.19941462  1
  Rh  Rh249  1  0.41130731  0.59750890  0.59570481  1
