# generated using pymatgen
data_ZrScNbPdRh
_symmetry_space_group_name_H-M   'P 1'
_cell_length_a   16.55724488
_cell_length_b   16.55808945
_cell_length_c   16.56151623
_cell_angle_alpha   89.98963771
_cell_angle_beta   90.05870215
_cell_angle_gamma   90.00673073
_symmetry_Int_Tables_number   1
_chemical_formula_structural   ZrScNbPdRh
_chemical_formula_sum   'Zr50 Sc50 Nb50 Pd50 Rh50'
_cell_volume   4540.44221262
_cell_formula_units_Z   50
loop_
 _symmetry_equiv_pos_site_id
 _symmetry_equiv_pos_as_xyz
  1  'x, y, z'
loop_
 _atom_site_type_symbol
 _atom_site_label
 _atom_site_symmetry_multiplicity
 _atom_site_fract_x
 _atom_site_fract_y
 _atom_site_fract_z
 _atom_site_occupancy
  Zr  Zr0  1  0.09195043  0.71349948  0.89291444  1
  Zr  Zr1  1  0.50028397  0.69960529  0.69308672  1
  Zr  Zr2  1  0.48946547  0.90668205  0.10507060  1
  Zr  Zr3  1  0.10109181  0.70562690  0.69753267  1
  Zr  Zr4  1  0.91051718  0.89538242  0.90826187  1
  Zr  Zr5  1  0.29248085  0.09960704  0.90201534  1
  Zr  Zr6  1  0.30275771  0.90660255  0.70490193  1
  Zr  Zr7  1  0.09893133  0.90421514  0.10277617  1
  Zr  Zr8  1  0.90014286  0.49831978  0.70076610  1
  Zr  Zr9  1  0.91348262  0.29602519  0.90663528  1
  Zr  Zr10  1  0.70611268  0.70053814  0.29850718  1
  Zr  Zr11  1  0.69878579  0.29403309  0.30735020  1
  Zr  Zr12  1  0.50599496  0.51391933  0.50051083  1
  Zr  Zr13  1  0.89945606  0.29732094  0.49810069  1
  Zr  Zr14  1  0.89822998  0.30158962  0.69606591  1
  Zr  Zr15  1  0.69392760  0.89705788  0.30216916  1
  Zr  Zr16  1  0.89423627  0.09717977  0.69926997  1
  Zr  Zr17  1  0.70457957  0.10574301  0.49919811  1
  Zr  Zr18  1  0.30319095  0.29653370  0.89155317  1
  Zr  Zr19  1  0.30274696  0.90706179  0.89917068  1
  Zr  Zr20  1  0.89564343  0.29123089  0.29071112  1
  Zr  Zr21  1  0.69974624  0.50608365  0.30044201  1
  Zr  Zr22  1  0.10195622  0.29093451  0.29923889  1
  Zr  Zr23  1  0.10318376  0.09737893  0.49322854  1
  Zr  Zr24  1  0.90065211  0.90759737  0.29346955  1
  Zr  Zr25  1  0.70817431  0.48995048  0.70514642  1
  Zr  Zr26  1  0.49416050  0.89581091  0.30622954  1
  Zr  Zr27  1  0.68923292  0.69295795  0.49654863  1
  Zr  Zr28  1  0.89898535  0.49307679  0.49841140  1
  Zr  Zr29  1  0.50080823  0.30683446  0.10072332  1
  Zr  Zr30  1  0.69386830  0.69038149  0.10978214  1
  Zr  Zr31  1  0.50059937  0.69938738  0.09516063  1
  Zr  Zr32  1  0.30550810  0.09817265  0.49782841  1
  Zr  Zr33  1  0.69940163  0.10028614  0.89981906  1
  Zr  Zr34  1  0.29942155  0.50156492  0.10148142  1
  Zr  Zr35  1  0.10062353  0.50030379  0.90527510  1
  Zr  Zr36  1  0.49507908  0.90282785  0.50119253  1
  Zr  Zr37  1  0.09895460  0.49557940  0.09978003  1
  Zr  Zr38  1  0.49475385  0.70440985  0.49693346  1
  Zr  Zr39  1  0.50042737  0.89222833  0.89929959  1
  Zr  Zr40  1  0.50254442  0.69872076  0.90118660  1
  Zr  Zr41  1  0.29794059  0.90323629  0.28793346  1
  Zr  Zr42  1  0.10069179  0.29795300  0.49333378  1
  Zr  Zr43  1  0.09892284  0.50720146  0.69842576  1
  Zr  Zr44  1  0.30298128  0.69778434  0.29779980  1
  Zr  Zr45  1  0.49286241  0.29299691  0.48419123  1
  Zr  Zr46  1  0.70822354  0.90712178  0.69645316  1
  Zr  Zr47  1  0.69607505  0.50168920  0.09675125  1
  Zr  Zr48  1  0.10662707  0.30186169  0.70680028  1
  Zr  Zr49  1  0.90929538  0.69518843  0.70866041  1
  Sc  Sc50  1  0.50159728  0.69808165  0.30098088  1
  Sc  Sc51  1  0.10743970  0.11158415  0.10175119  1
  Sc  Sc52  1  0.09730889  0.50260396  0.31188567  1
  Sc  Sc53  1  0.49844676  0.09378708  0.31129240  1
  Sc  Sc54  1  0.09991573  0.09293044  0.30347662  1
  Sc  Sc55  1  0.70184859  0.89563170  0.50201822  1
  Sc  Sc56  1  0.90014683  0.70329299  0.49729025  1
  Sc  Sc57  1  0.30255682  0.49101713  0.90841327  1
  Sc  Sc58  1  0.70230953  0.69470584  0.91492221  1
  Sc  Sc59  1  0.10892890  0.69804238  0.09860973  1
  Sc  Sc60  1  0.09619583  0.10733289  0.89667384  1
  Sc  Sc61  1  0.88731022  0.71064401  0.09303840  1
  Sc  Sc62  1  0.29349769  0.71403110  0.69130905  1
  Sc  Sc63  1  0.30615677  0.70145336  0.10529824  1
  Sc  Sc64  1  0.30631103  0.70835530  0.90637926  1
  Sc  Sc65  1  0.49632799  0.09448850  0.49917564  1
  Sc  Sc66  1  0.89721555  0.48426185  0.10134660  1
  Sc  Sc67  1  0.69376294  0.09827253  0.10265419  1
  Sc  Sc68  1  0.30529299  0.89732630  0.50059654  1
  Sc  Sc69  1  0.69518853  0.70404671  0.69452343  1
  Sc  Sc70  1  0.48711458  0.29770173  0.70627282  1
  Sc  Sc71  1  0.10018536  0.49982369  0.49913803  1
  Sc  Sc72  1  0.49530519  0.49634189  0.69463878  1
  Sc  Sc73  1  0.70871305  0.30092151  0.49216024  1
  Sc  Sc74  1  0.30375803  0.70406939  0.50250864  1
  Sc  Sc75  1  0.70209057  0.30821263  0.09627585  1
  Sc  Sc76  1  0.29030031  0.09550780  0.30142481  1
  Sc  Sc77  1  0.49454354  0.49127461  0.29901665  1
  Sc  Sc78  1  0.10249906  0.69089940  0.30301909  1
  Sc  Sc79  1  0.30906665  0.10249597  0.71204923  1
  Sc  Sc80  1  0.89405632  0.50318509  0.30328902  1
  Sc  Sc81  1  0.09271255  0.90629287  0.50271047  1
  Sc  Sc82  1  0.10152068  0.90683078  0.89364198  1
  Sc  Sc83  1  0.10522224  0.29267021  0.90932729  1
  Sc  Sc84  1  0.90232476  0.90570167  0.50431945  1
  Sc  Sc85  1  0.90345720  0.90473578  0.69343898  1
  Sc  Sc86  1  0.09581918  0.10036185  0.70605846  1
  Sc  Sc87  1  0.29127688  0.29803205  0.09675975  1
  Sc  Sc88  1  0.50112819  0.49949782  0.09550728  1
  Sc  Sc89  1  0.29947699  0.49065947  0.49583628  1
  Sc  Sc90  1  0.10062350  0.69873139  0.50545038  1
  Sc  Sc91  1  0.50357007  0.10645563  0.89814235  1
  Sc  Sc92  1  0.49714135  0.09649563  0.69890875  1
  Sc  Sc93  1  0.69036829  0.89840498  0.10115139  1
  Sc  Sc94  1  0.88798757  0.50691380  0.89279472  1
  Sc  Sc95  1  0.70539894  0.30008614  0.70176962  1
  Sc  Sc96  1  0.50332595  0.30540711  0.90001215  1
  Sc  Sc97  1  0.29747429  0.48328521  0.69342656  1
  Sc  Sc98  1  0.90739325  0.10076357  0.50410578  1
  Sc  Sc99  1  0.10425989  0.89259340  0.69930415  1
  Nb  Nb100  1  0.91084894  0.29142688  0.10290755  1
  Nb  Nb101  1  0.30671085  0.30633620  0.31427347  1
  Nb  Nb102  1  0.49512970  0.29456908  0.29866414  1
  Nb  Nb103  1  0.08473343  0.30306664  0.10135069  1
  Nb  Nb104  1  0.49755876  0.10454902  0.10481377  1
  Nb  Nb105  1  0.90585389  0.90668882  0.09734635  1
  Nb  Nb106  1  0.10087858  0.90306032  0.30290890  1
  Nb  Nb107  1  0.50164430  0.90094145  0.70325911  1
  Nb  Nb108  1  0.29410653  0.49335665  0.29965080  1
  Nb  Nb109  1  0.69848758  0.49985436  0.49845249  1
  Nb  Nb110  1  0.89672144  0.10363427  0.10481740  1
  Nb  Nb111  1  0.90093120  0.09849693  0.89858486  1
  Nb  Nb112  1  0.29822647  0.29839081  0.69583683  1
  Nb  Nb113  1  0.70482466  0.10545296  0.29942704  1
  Nb  Nb114  1  0.89856067  0.70122101  0.29459121  1
  Nb  Nb115  1  0.69373832  0.48906942  0.89840372  1
  Nb  Nb116  1  0.70438907  0.09918139  0.69942426  1
  Nb  Nb117  1  0.30014610  0.90843203  0.09973256  1
  Nb  Nb118  1  0.29824213  0.29749835  0.49802618  1
  Nb  Nb119  1  0.30609612  0.09233810  0.10172174  1
  Nb  Nb120  1  0.70507306  0.90427923  0.89658714  1
  Nb  Nb121  1  0.90308908  0.70391693  0.90030504  1
  Nb  Nb122  1  0.49850300  0.49778353  0.89709912  1
  Nb  Nb123  1  0.70196079  0.30246160  0.89759027  1
  Nb  Nb124  1  0.88777230  0.10186012  0.28697138  1
  Nb  Nb125  1  -0.00516998  0.60490472  0.00060305  1
  Nb  Nb126  1  0.80024479  0.00663515  0.39104992  1
  Nb  Nb127  1  0.00176996  0.40197271  0.80116237  1
  Nb  Nb128  1  0.19923236  0.39656614  0.20739315  1
  Nb  Nb129  1  0.59408055  0.20097836  0.20588383  1
  Nb  Nb130  1  0.60555861  -0.00526824  0.79646392  1
  Nb  Nb131  1  0.80816085  0.00110896  0.00178627  1
  Nb  Nb132  1  0.39799337  0.59797689  0.79921028  1
  Nb  Nb133  1  0.20721097  0.20146220  0.60018700  1
  Nb  Nb134  1  0.80083081  0.19712536  0.80723698  1
  Nb  Nb135  1  0.20541410  0.60334560  0.80031110  1
  Nb  Nb136  1  0.59711122  0.59318040  0.80467319  1
  Nb  Nb137  1  0.80578645  0.19680523  0.00000489  1
  Nb  Nb138  1  -0.00110885  0.79981201  0.20165943  1
  Nb  Nb139  1  0.19510220  0.80493728  0.39400203  1
  Nb  Nb140  1  0.39969220  0.20010553  0.20153191  1
  Nb  Nb141  1  0.20418823  0.81105162  0.00402695  1
  Nb  Nb142  1  0.20416498  0.00736256  0.60131380  1
  Nb  Nb143  1  0.79790060  0.59492311  0.59899651  1
  Nb  Nb144  1  0.39998436  0.19570038  0.00814883  1
  Nb  Nb145  1  0.80302298  0.80213638  0.80749946  1
  Nb  Nb146  1  0.60092445  0.20396785  0.59900958  1
  Nb  Nb147  1  -0.00716374  0.60556782  0.19559962  1
  Nb  Nb148  1  0.00136067  0.80237750  0.38887521  1
  Nb  Nb149  1  0.59983775  0.39431334  0.59352300  1
  Pd  Pd150  1  0.19016142  0.00241396  0.00148013  1
  Pd  Pd151  1  0.80662939  0.39398217  -0.00460605  1
  Pd  Pd152  1  0.00403528  0.40722380  0.21143597  1
  Pd  Pd153  1  0.39659424  0.79276382  0.79389057  1
  Pd  Pd154  1  0.19895487  0.40573242  0.80446136  1
  Pd  Pd155  1  0.00859967  0.39796442  0.60209216  1
  Pd  Pd156  1  0.60426038  0.80269616  0.00233959  1
  Pd  Pd157  1  0.19477496  0.79957786  0.19949496  1
  Pd  Pd158  1  0.59946912  0.00633204  0.60206667  1
  Pd  Pd159  1  0.38726620  0.59829997  0.60747430  1
  Pd  Pd160  1  0.19316307  0.59152894  0.20384700  1
  Pd  Pd161  1  -0.00450962  0.39779275  0.39143505  1
  Pd  Pd162  1  0.80491106  0.59457140  0.00487127  1
  Pd  Pd163  1  0.79208106  0.80836841  0.00161977  1
  Pd  Pd164  1  0.39513910  0.59504245  0.39630774  1
  Pd  Pd165  1  0.59795718  -0.00230231  -0.00512031  1
  Pd  Pd166  1  0.60491277  0.39738227  0.20542470  1
  Pd  Pd167  1  0.40937673  0.00728561  -0.00728119  1
  Pd  Pd168  1  0.00647720  0.00740415  0.19776707  1
  Pd  Pd169  1  0.78626960  0.61169138  0.79719128  1
  Pd  Pd170  1  0.80119463  0.80860792  0.19271336  1
  Pd  Pd171  1  0.80691531  0.80822229  0.40213477  1
  Pd  Pd172  1  0.59544682  0.40239386  0.40231960  1
  Pd  Pd173  1  -0.00757508  0.19050531  0.39071348  1
  Pd  Pd174  1  0.19911677  0.61318362  -0.00935698  1
  Pd  Pd175  1  0.78993189  -0.00602909  0.19393778  1
  Pd  Pd176  1  0.59114938  0.79760891  0.20081165  1
  Pd  Pd177  1  0.19821549  0.39107745  0.00555973  1
  Pd  Pd178  1  0.39807650  0.59697569  -0.00452946  1
  Pd  Pd179  1  0.40585483  0.59588708  0.20322039  1
  Pd  Pd180  1  0.00925650  0.19860203  0.60427920  1
  Pd  Pd181  1  0.60213403  0.20635373  0.00763242  1
  Pd  Pd182  1  0.00109019  -0.00462929  0.79546597  1
  Pd  Pd183  1  -0.00643308  0.60181803  0.59013309  1
  Pd  Pd184  1  0.20613711  0.60552960  0.40793796  1
  Pd  Pd185  1  0.59299471  0.39901675  0.79040038  1
  Pd  Pd186  1  0.00415224  0.01241525  0.00265792  1
  Pd  Pd187  1  0.80361813  0.60217616  0.40716010  1
  Pd  Pd188  1  0.38972216  0.39476150  0.19729023  1
  Pd  Pd189  1  0.60764043  0.00172126  0.40412130  1
  Pd  Pd190  1  0.59579578  0.00672677  0.20759573  1
  Pd  Pd191  1  0.61219820  0.79772152  0.80182722  1
  Pd  Pd192  1  0.60387582  0.19741910  0.78960283  1
  Pd  Pd193  1  0.79611789  0.39692001  0.20334199  1
  Pd  Pd194  1  0.80860311  0.79119530  0.60713335  1
  Pd  Pd195  1  0.20921158  0.59665292  0.60274716  1
  Pd  Pd196  1  0.40198086  0.19921809  0.60052147  1
  Pd  Pd197  1  0.59710572  0.80711647  0.59615445  1
  Pd  Pd198  1  0.20775392  0.20417170  0.20206848  1
  Pd  Pd199  1  0.40832279  0.39547755  0.59028357  1
  Rh  Rh200  1  0.20610530  0.19982963  0.40212037  1
  Rh  Rh201  1  0.59879937  0.19510259  0.39995333  1
  Rh  Rh202  1  0.20440719  -0.01032616  0.40932024  1
  Rh  Rh203  1  0.20250806  0.19708734  0.79507772  1
  Rh  Rh204  1  0.19637836  0.81380726  0.58677722  1
  Rh  Rh205  1  0.39377187  0.80627151  0.00969240  1
  Rh  Rh206  1  0.41397634  0.00167932  0.80658960  1
  Rh  Rh207  1  0.40579153  0.80625319  0.60488373  1
  Rh  Rh208  1  0.00964882  0.79199846  0.01407511  1
  Rh  Rh209  1  0.81184077  0.19245331  0.40281324  1
  Rh  Rh210  1  0.40137144  0.39337531  -0.00044684  1
  Rh  Rh211  1  0.59790688  0.79698884  0.40257063  1
  Rh  Rh212  1  0.80067580  -0.00083568  0.80742691  1
  Rh  Rh213  1  0.78721177  0.20595371  0.18710562  1
  Rh  Rh214  1  -0.00013876  0.79942772  0.59451195  1
  Rh  Rh215  1  0.79234296  0.40263713  0.58931307  1
  Rh  Rh216  1  -0.00855693  0.81074782  0.79175134  1
  Rh  Rh217  1  0.00971792  0.59392927  0.81100794  1
  Rh  Rh218  1  0.39286059  -0.00357183  0.39491731  1
  Rh  Rh219  1  0.19752817  0.39833932  0.39807659  1
  Rh  Rh220  1  0.40334864  0.79877947  0.19646714  1
  Rh  Rh221  1  0.39626201  -0.00271043  0.60498349  1
  Rh  Rh222  1  0.00933267  0.00440416  0.60556743  1
  Rh  Rh223  1  -0.00014888  0.19096253  0.00802788  1
  Rh  Rh224  1  0.39238933  0.19117239  0.39141248  1
  Rh  Rh225  1  0.40202094  0.00804723  0.20744862  1
  Rh  Rh226  1  0.81129711  0.38630789  0.81227018  1
  Rh  Rh227  1  0.40185143  0.19887703  0.80782188  1
  Rh  Rh228  1  0.59243715  0.59530539  0.20402693  1
  Rh  Rh229  1  0.20828479  0.79799889  0.81082568  1
  Rh  Rh230  1  0.59785504  0.60052238  0.39042033  1
  Rh  Rh231  1  -0.00465068  0.40868169  -0.00748227  1
  Rh  Rh232  1  0.00395202  0.19198572  0.20296696  1
  Rh  Rh233  1  0.80756315  0.59639687  0.19124398  1
  Rh  Rh234  1  -0.00541403  0.20728674  0.79444948  1
  Rh  Rh235  1  0.40366435  0.40740021  0.40509352  1
  Rh  Rh236  1  0.61208764  0.58490989  0.61318909  1
  Rh  Rh237  1  0.80173863  0.39878000  0.39437569  1
  Rh  Rh238  1  0.59932656  0.59039757  -0.00652396  1
  Rh  Rh239  1  0.80110229  0.00423192  0.58675706  1
  Rh  Rh240  1  0.19549368  0.39192754  0.59124020  1
  Rh  Rh241  1  0.39161633  0.79835393  0.39517460  1
  Rh  Rh242  1  0.19536928  0.00473108  0.19630448  1
  Rh  Rh243  1  0.59750030  0.40130124  -0.00384468  1
  Rh  Rh244  1  -0.00632224  0.60872590  0.39580513  1
  Rh  Rh245  1  -0.01181979  0.00064191  0.39566090  1
  Rh  Rh246  1  0.19548523  0.00450547  0.79256306  1
  Rh  Rh247  1  0.20514409  0.19962890  0.00320616  1
  Rh  Rh248  1  0.39581995  0.40416657  0.80050702  1
  Rh  Rh249  1  0.79519751  0.20011005  0.60534549  1
