# generated using pymatgen
data_ZrScNbPdRh
_symmetry_space_group_name_H-M   'P 1'
_cell_length_a   16.56042827
_cell_length_b   16.56122310
_cell_length_c   16.56112303
_cell_angle_alpha   90.01701635
_cell_angle_beta   89.98761108
_cell_angle_gamma   90.01652926
_symmetry_Int_Tables_number   1
_chemical_formula_structural   ZrScNbPdRh
_chemical_formula_sum   'Zr50 Sc50 Nb50 Pd50 Rh50'
_cell_volume   4542.06879293
_cell_formula_units_Z   50
loop_
 _symmetry_equiv_pos_site_id
 _symmetry_equiv_pos_as_xyz
  1  'x, y, z'
loop_
 _atom_site_type_symbol
 _atom_site_label
 _atom_site_symmetry_multiplicity
 _atom_site_fract_x
 _atom_site_fract_y
 _atom_site_fract_z
 _atom_site_occupancy
  Zr  Zr0  1  0.50052933  0.49964160  0.08020679  1
  Zr  Zr1  1  0.70231092  0.70055642  0.09420818  1
  Zr  Zr2  1  0.90761554  0.50090833  0.29352953  1
  Zr  Zr3  1  0.30253541  0.90127514  0.90251050  1
  Zr  Zr4  1  0.90530176  0.70110255  0.49889995  1
  Zr  Zr5  1  0.09291268  0.09736330  0.28712598  1
  Zr  Zr6  1  0.08875308  0.50826949  0.10057247  1
  Zr  Zr7  1  0.50119187  0.30147348  0.49994096  1
  Zr  Zr8  1  0.69605206  0.30573891  0.10165697  1
  Zr  Zr9  1  0.90878530  0.70218048  0.70132772  1
  Zr  Zr10  1  0.49550657  0.49330257  0.30971584  1
  Zr  Zr11  1  0.49103761  0.69500797  0.50001819  1
  Zr  Zr12  1  0.90394223  0.10979932  0.69964742  1
  Zr  Zr13  1  0.09967277  0.89516993  0.70027220  1
  Zr  Zr14  1  0.50253205  0.30354269  0.70312985  1
  Zr  Zr15  1  0.69344280  0.89728270  0.70161059  1
  Zr  Zr16  1  0.88959202  0.49840470  0.09901399  1
  Zr  Zr17  1  0.70067409  0.69963951  0.71700792  1
  Zr  Zr18  1  0.70069613  0.90516766  0.49812474  1
  Zr  Zr19  1  0.28736552  0.70099657  0.88968448  1
  Zr  Zr20  1  0.29731677  0.09863499  0.49380886  1
  Zr  Zr21  1  0.69768414  0.09851429  0.90629321  1
  Zr  Zr22  1  0.90071183  0.09466845  0.49845111  1
  Zr  Zr23  1  0.30088361  0.29572031  0.29097199  1
  Zr  Zr24  1  0.29875675  0.89447308  0.70417283  1
  Zr  Zr25  1  0.90683180  0.30637105  0.29574973  1
  Zr  Zr26  1  0.91466703  0.10117339  0.10427158  1
  Zr  Zr27  1  0.29962150  0.49388292  0.09913114  1
  Zr  Zr28  1  0.89369944  0.30138218  0.09372218  1
  Zr  Zr29  1  0.68618249  0.30094134  0.29792119  1
  Zr  Zr30  1  0.69933127  0.29531563  0.90502711  1
  Zr  Zr31  1  0.49828222  0.70439267  0.10026075  1
  Zr  Zr32  1  0.69852017  0.10289311  0.70015623  1
  Zr  Zr33  1  0.89658686  0.49900943  0.90356144  1
  Zr  Zr34  1  0.09017922  0.70232858  0.90265249  1
  Zr  Zr35  1  0.70154801  0.89711670  0.90563442  1
  Zr  Zr36  1  0.90102890  0.30028887  0.69183418  1
  Zr  Zr37  1  0.30291241  0.89836272  0.29756394  1
  Zr  Zr38  1  0.29861900  0.69661315  0.69561767  1
  Zr  Zr39  1  0.30813757  0.49772688  0.89868242  1
  Zr  Zr40  1  0.10873128  0.30016713  0.29902721  1
  Zr  Zr41  1  0.70258462  0.49647003  0.49680809  1
  Zr  Zr42  1  0.49622508  0.09554140  0.49206910  1
  Zr  Zr43  1  0.69942008  0.29437242  0.70237463  1
  Zr  Zr44  1  0.09846292  0.90422355  0.10150869  1
  Zr  Zr45  1  0.70430137  0.49763944  0.29458376  1
  Zr  Zr46  1  0.49499429  0.49782187  0.50307119  1
  Zr  Zr47  1  0.88900670  0.69767262  0.90097602  1
  Zr  Zr48  1  0.70001357  0.71030124  0.29331090  1
  Zr  Zr49  1  0.90773392  0.90976564  0.31377403  1
  Sc  Sc50  1  0.49874138  0.70367388  0.69910865  1
  Sc  Sc51  1  0.30001660  0.50161939  0.69795711  1
  Sc  Sc52  1  0.30388410  0.70177738  0.50138250  1
  Sc  Sc53  1  0.08627574  0.50061722  0.89834931  1
  Sc  Sc54  1  0.30504908  0.29630313  0.69806294  1
  Sc  Sc55  1  0.70256101  0.70443951  0.48984883  1
  Sc  Sc56  1  0.49309538  0.49461061  0.70197789  1
  Sc  Sc57  1  0.29934704  0.48710627  0.30065700  1
  Sc  Sc58  1  0.89945509  0.10602025  0.91311110  1
  Sc  Sc59  1  0.50198430  0.89416074  0.49568033  1
  Sc  Sc60  1  0.50010582  0.10596952  0.69614234  1
  Sc  Sc61  1  0.89840060  0.70422272  0.29779469  1
  Sc  Sc62  1  0.10451086  0.90120465  0.49436031  1
  Sc  Sc63  1  0.69997631  0.90170289  0.10013478  1
  Sc  Sc64  1  0.30387520  0.29508830  0.10521189  1
  Sc  Sc65  1  0.69673060  0.30154744  0.50872390  1
  Sc  Sc66  1  0.10121329  0.29931361  0.50326889  1
  Sc  Sc67  1  0.29401275  0.29198465  0.49883724  1
  Sc  Sc68  1  0.09989780  0.48811792  0.29610398  1
  Sc  Sc69  1  0.30217364  0.71596624  0.09462414  1
  Sc  Sc70  1  0.31130695  0.29621685  0.89944670  1
  Sc  Sc71  1  0.10970069  0.10242788  0.49705919  1
  Sc  Sc72  1  0.70576630  0.49554252  0.70181784  1
  Sc  Sc73  1  0.09628712  0.70875142  0.29345581  1
  Sc  Sc74  1  0.10542885  0.69538876  0.70533436  1
  Sc  Sc75  1  0.49771182  0.88931643  0.70084856  1
  Sc  Sc76  1  0.69671835  0.10268750  0.09472506  1
  Sc  Sc77  1  0.10433943  0.90377682  0.30033153  1
  Sc  Sc78  1  0.49373049  0.71337667  0.30129577  1
  Sc  Sc79  1  0.90916170  0.49583197  0.69995127  1
  Sc  Sc80  1  0.90339845  0.89721529  0.70181947  1
  Sc  Sc81  1  0.90186496  0.70085933  0.09961105  1
  Sc  Sc82  1  0.49835197  0.09369662  0.10015760  1
  Sc  Sc83  1  0.69410859  0.51086106  0.90577231  1
  Sc  Sc84  1  0.10235580  0.70066571  0.51310389  1
  Sc  Sc85  1  0.09357680  0.70937577  0.09768476  1
  Sc  Sc86  1  0.90136936  0.89622930  0.90799953  1
  Sc  Sc87  1  0.10390813  0.49250063  0.50896889  1
  Sc  Sc88  1  0.29631175  0.10106272  0.70085977  1
  Sc  Sc89  1  0.10485300  0.11036611  0.70148196  1
  Sc  Sc90  1  0.10264385  0.89304396  0.90181315  1
  Sc  Sc91  1  0.30425139  0.09730120  0.30385612  1
  Sc  Sc92  1  0.30519356  0.50430508  0.50726810  1
  Sc  Sc93  1  0.50496923  0.68470409  0.89536017  1
  Sc  Sc94  1  0.30566425  0.10565826  0.10972423  1
  Sc  Sc95  1  0.50374848  0.09927257  0.29659934  1
  Sc  Sc96  1  0.30670695  0.09933057  0.89342690  1
  Sc  Sc97  1  0.90664582  0.30014229  0.90088869  1
  Sc  Sc98  1  0.69207988  0.09540892  0.50339904  1
  Sc  Sc99  1  0.08996108  0.29709037  0.69798982  1
  Nb  Nb100  1  0.50122731  0.29620998  0.10423073  1
  Nb  Nb101  1  0.50170819  0.29926307  0.29689224  1
  Nb  Nb102  1  0.09926029  0.11083659  0.90461578  1
  Nb  Nb103  1  0.29896319  0.90941302  0.49484051  1
  Nb  Nb104  1  0.10622453  0.49723005  0.70392935  1
  Nb  Nb105  1  0.90149518  0.10242094  0.30085603  1
  Nb  Nb106  1  0.69447848  0.90661550  0.30032515  1
  Nb  Nb107  1  0.10775989  0.28438026  0.09923668  1
  Nb  Nb108  1  0.50090227  0.30986307  0.90511187  1
  Nb  Nb109  1  0.29982704  0.69513148  0.30033644  1
  Nb  Nb110  1  0.90061106  0.49498536  0.49923124  1
  Nb  Nb111  1  0.10213225  0.29737160  0.90026957  1
  Nb  Nb112  1  0.49611307  0.91203185  0.90873488  1
  Nb  Nb113  1  0.69898333  0.49996384  0.09948080  1
  Nb  Nb114  1  0.69832924  0.70401383  0.89949022  1
  Nb  Nb115  1  0.89657874  0.90716261  0.09573920  1
  Nb  Nb116  1  0.48345225  0.89981998  0.09659273  1
  Nb  Nb117  1  0.90355621  0.30295428  0.50152821  1
  Nb  Nb118  1  0.30594893  0.90386470  0.09402903  1
  Nb  Nb119  1  0.50126196  0.09288382  0.90548999  1
  Nb  Nb120  1  0.69919144  0.09920980  0.29898770  1
  Nb  Nb121  1  0.90415659  0.90092407  0.50408773  1
  Nb  Nb122  1  0.49394714  0.48443272  0.90021399  1
  Nb  Nb123  1  0.50400965  0.90572271  0.29037877  1
  Nb  Nb124  1  0.10204493  0.10441816  0.09512915  1
  Nb  Nb125  1  0.00169825  0.00012144  0.60262420  1
  Nb  Nb126  1  0.39884388  0.60054369  0.20036676  1
  Nb  Nb127  1  0.19481092  0.39857559  0.80491597  1
  Nb  Nb128  1  0.19877227  0.59714554  0.00087086  1
  Nb  Nb129  1  0.19828526  0.00784104  0.00404149  1
  Nb  Nb130  1  0.19441429  0.39630483  -0.00290017  1
  Nb  Nb131  1  0.80203825  0.79861932  0.59866902  1
  Nb  Nb132  1  0.80096752  0.39582766  0.80209446  1
  Nb  Nb133  1  0.80070783  0.00386642  0.20732586  1
  Nb  Nb134  1  0.60573933  0.60071611  0.59612773  1
  Nb  Nb135  1  0.80160467  0.60377249  0.59899844  1
  Nb  Nb136  1  0.79995920  0.00326393  0.80177716  1
  Nb  Nb137  1  0.79941796  0.19516162  0.20761202  1
  Nb  Nb138  1  0.80596688  0.39468453  0.40144734  1
  Nb  Nb139  1  0.19845149  0.60113217  0.39407099  1
  Nb  Nb140  1  0.59845573  -0.00055143  0.80734477  1
  Nb  Nb141  1  0.59880920  0.60001031  0.39592837  1
  Nb  Nb142  1  -0.00551536  0.20161960  0.39676566  1
  Nb  Nb143  1  0.00397406  0.59498293  0.40174468  1
  Nb  Nb144  1  0.59346235  0.80309923  -0.00355099  1
  Nb  Nb145  1  0.80177696  0.20195561  0.39593886  1
  Nb  Nb146  1  0.20554240  0.60256559  0.19917359  1
  Nb  Nb147  1  0.59494840  0.59852759  0.20033693  1
  Nb  Nb148  1  0.00018269  0.00673168  0.80130159  1
  Nb  Nb149  1  0.39278517  -0.00494653  0.59475795  1
  Pd  Pd150  1  0.40612611  0.79605715  0.80843367  1
  Pd  Pd151  1  0.58956226  0.19505983  0.80637093  1
  Pd  Pd152  1  0.40525362  0.79029000  -0.01610760  1
  Pd  Pd153  1  0.80776390  0.20148330  0.80807471  1
  Pd  Pd154  1  0.58523956  -0.00273510  0.60624894  1
  Pd  Pd155  1  0.00845457  -0.00211257  -0.00965066  1
  Pd  Pd156  1  0.21308765  0.19856366  -0.00396004  1
  Pd  Pd157  1  0.19867591  0.79208979  0.40260639  1
  Pd  Pd158  1  0.80848893  0.81427194  0.20016727  1
  Pd  Pd159  1  0.40908555  0.19892286  0.80156662  1
  Pd  Pd160  1  0.60290253  0.00094056  0.19124942  1
  Pd  Pd161  1  0.20463732  0.80066931  0.59554332  1
  Pd  Pd162  1  0.20740124  0.00267127  0.19527467  1
  Pd  Pd163  1  0.79700606  0.60387302  0.19681467  1
  Pd  Pd164  1  0.60361508  0.19799312  0.40407019  1
  Pd  Pd165  1  0.40524891  0.19731675  0.00192571  1
  Pd  Pd166  1  0.00700713  0.39314986  0.00521488  1
  Pd  Pd167  1  0.80646114  -0.00675131  0.60993373  1
  Pd  Pd168  1  0.38909370  0.38941257  0.40668173  1
  Pd  Pd169  1  0.79562540  0.19859141  0.58880542  1
  Pd  Pd170  1  0.39035477  0.60927951  0.00033297  1
  Pd  Pd171  1  0.20565035  0.40505006  0.40770535  1
  Pd  Pd172  1  0.00780432  0.39039977  0.18539736  1
  Pd  Pd173  1  0.00950718  0.79499555  0.40391596  1
  Pd  Pd174  1  -0.00864755  0.80977402  0.19947839  1
  Pd  Pd175  1  0.40109125  0.20429695  0.39314829  1
  Pd  Pd176  1  0.20398849  0.79869781  0.19509635  1
  Pd  Pd177  1  0.20279080  0.20902839  0.79844425  1
  Pd  Pd178  1  0.00192593  0.59144241  0.59734845  1
  Pd  Pd179  1  0.80664256  0.80865901  0.79823801  1
  Pd  Pd180  1  0.60860251  0.40605187  0.80544798  1
  Pd  Pd181  1  0.19043713  0.00230817  0.81018245  1
  Pd  Pd182  1  0.80446161  0.59546999  0.40083952  1
  Pd  Pd183  1  0.80227099  0.80719391  0.40168672  1
  Pd  Pd184  1  0.39845538  0.19395142  0.59726989  1
  Pd  Pd185  1  0.40803528  0.00225626  0.78719879  1
  Pd  Pd186  1  0.58835290  0.40956023  0.19347163  1
  Pd  Pd187  1  0.59447445  0.58827908  0.79348497  1
  Pd  Pd188  1  0.40918134  0.40291799  0.19425845  1
  Pd  Pd189  1  0.59688074  0.79987392  0.39959565  1
  Pd  Pd190  1  0.59732361  0.80435621  0.19177239  1
  Pd  Pd191  1  0.59956547  0.40626136  0.60513316  1
  Pd  Pd192  1  0.20404114  0.39462444  0.60918045  1
  Pd  Pd193  1  0.19883027  0.00107951  0.60266276  1
  Pd  Pd194  1  0.40442334  0.59891405  0.79566133  1
  Pd  Pd195  1  0.59031192  0.20118379  0.00338832  1
  Pd  Pd196  1  0.60747447  0.78946202  0.59603131  1
  Pd  Pd197  1  0.79483612  0.00448759  0.39804594  1
  Pd  Pd198  1  0.39771699  0.80658886  0.39947064  1
  Pd  Pd199  1  -0.00157137  0.59907186  0.79958717  1
  Rh  Rh200  1  0.39603339  0.39367395  0.59918415  1
  Rh  Rh201  1  0.19992872  0.20308392  0.60318421  1
  Rh  Rh202  1  0.79762722  0.79952466  0.00335149  1
  Rh  Rh203  1  0.39978662  -0.00187889  0.20314092  1
  Rh  Rh204  1  0.00014600  0.20758572  0.20010049  1
  Rh  Rh205  1  0.20080612  0.59839872  0.59532024  1
  Rh  Rh206  1  0.00525932  0.60667371  0.20854300  1
  Rh  Rh207  1  0.41077428  0.19848779  0.20452599  1
  Rh  Rh208  1  0.39552747  0.38571979  0.00591159  1
  Rh  Rh209  1  0.80485103  0.40456846  0.60261942  1
  Rh  Rh210  1  0.19816359  0.80424627  0.00289296  1
  Rh  Rh211  1  0.39343194  0.39516645  0.79664313  1
  Rh  Rh212  1  -0.00620472  -0.00856066  0.19870076  1
  Rh  Rh213  1  0.00050459  0.20728743  0.00047636  1
  Rh  Rh214  1  -0.00117543  0.19719985  0.80728593  1
  Rh  Rh215  1  0.38772583  0.01084416  0.00444868  1
  Rh  Rh216  1  0.59785072  -0.00797283  0.00457854  1
  Rh  Rh217  1  -0.00440897  0.60508454  0.00049817  1
  Rh  Rh218  1  0.58808543  0.80892020  0.81560624  1
  Rh  Rh219  1  0.19546215  0.80067263  0.79867401  1
  Rh  Rh220  1  0.39667599  0.59915861  0.39236143  1
  Rh  Rh221  1  0.59622611  -0.00379135  0.39580779  1
  Rh  Rh222  1  0.79713098  0.39387122  0.20380984  1
  Rh  Rh223  1  0.39504370  0.80237166  0.20285497  1
  Rh  Rh224  1  0.19694261  0.00302242  0.38972184  1
  Rh  Rh225  1  0.00397210  0.40177330  0.60113746  1
  Rh  Rh226  1  0.40522291  0.60211120  0.60827900  1
  Rh  Rh227  1  0.80338831  0.00466319  0.00515505  1
  Rh  Rh228  1  0.19465542  0.58792212  0.80861922  1
  Rh  Rh229  1  0.60361632  0.40090044  0.40219742  1
  Rh  Rh230  1  0.59836651  0.19642552  0.19591795  1
  Rh  Rh231  1  0.01002557  0.00727119  0.40936956  1
  Rh  Rh232  1  0.40666630  -0.00765947  0.39812355  1
  Rh  Rh233  1  0.20210531  0.19251715  0.20389225  1
  Rh  Rh234  1  0.19221433  0.40210660  0.18618396  1
  Rh  Rh235  1  0.60215757  0.60586021  0.00246212  1
  Rh  Rh236  1  -0.00065724  0.80931663  0.59943068  1
  Rh  Rh237  1  0.59638557  0.19894702  0.59369778  1
  Rh  Rh238  1  0.00057162  0.39456940  0.79639557  1
  Rh  Rh239  1  0.80049749  0.19772288  0.00958462  1
  Rh  Rh240  1  -0.00035834  0.39981443  0.40833909  1
  Rh  Rh241  1  0.79755999  0.60041161  0.00169363  1
  Rh  Rh242  1  -0.00717398  0.80277118  0.00423235  1
  Rh  Rh243  1  0.00510540  0.19191888  0.58563390  1
  Rh  Rh244  1  0.39156954  0.80882899  0.59410540  1
  Rh  Rh245  1  0.60365392  0.39765341  -0.00188360  1
  Rh  Rh246  1  0.78983418  0.40442177  -0.00925699  1
  Rh  Rh247  1  0.80397401  0.58976189  0.79560297  1
  Rh  Rh248  1  -0.00005916  0.80357203  0.80431265  1
  Rh  Rh249  1  0.19345374  0.19661094  0.39167081  1
