# generated using pymatgen
data_ZrScNbPdRh
_symmetry_space_group_name_H-M   'P 1'
_cell_length_a   16.55598858
_cell_length_b   16.56078623
_cell_length_c   16.55847524
_cell_angle_alpha   90.00570359
_cell_angle_beta   89.96730464
_cell_angle_gamma   89.99898138
_symmetry_Int_Tables_number   1
_chemical_formula_structural   ZrScNbPdRh
_chemical_formula_sum   'Zr50 Sc50 Nb50 Pd50 Rh50'
_cell_volume   4540.00508659
_cell_formula_units_Z   50
loop_
 _symmetry_equiv_pos_site_id
 _symmetry_equiv_pos_as_xyz
  1  'x, y, z'
loop_
 _atom_site_type_symbol
 _atom_site_label
 _atom_site_symmetry_multiplicity
 _atom_site_fract_x
 _atom_site_fract_y
 _atom_site_fract_z
 _atom_site_occupancy
  Zr  Zr0  1  0.29541701  0.29359714  0.90958945  1
  Zr  Zr1  1  0.89931019  0.50090391  0.69462686  1
  Zr  Zr2  1  0.30342550  0.29375248  0.30669965  1
  Zr  Zr3  1  0.71157253  0.10217273  0.50066547  1
  Zr  Zr4  1  0.50299575  0.09629301  0.29825815  1
  Zr  Zr5  1  0.30761515  0.50179726  0.49777768  1
  Zr  Zr6  1  0.30189038  0.09359174  0.70566433  1
  Zr  Zr7  1  0.08466947  0.50947600  0.48976604  1
  Zr  Zr8  1  0.49339553  0.30819070  0.50340100  1
  Zr  Zr9  1  0.90565468  0.10016576  0.50065059  1
  Zr  Zr10  1  0.30371137  0.71147524  0.70117645  1
  Zr  Zr11  1  0.70483429  0.49136981  0.69652335  1
  Zr  Zr12  1  0.50403770  0.30774956  0.70146713  1
  Zr  Zr13  1  0.30385848  0.69875573  0.30503202  1
  Zr  Zr14  1  0.50001266  0.09765800  0.71883251  1
  Zr  Zr15  1  0.10240451  0.30027341  0.10438893  1
  Zr  Zr16  1  0.70392978  0.29888311  0.50301703  1
  Zr  Zr17  1  0.29603787  0.50749244  0.30093270  1
  Zr  Zr18  1  0.71266231  0.89877932  0.09972258  1
  Zr  Zr19  1  0.69841753  0.09946215  0.29930236  1
  Zr  Zr20  1  0.70137543  0.30439121  0.89749172  1
  Zr  Zr21  1  0.50103503  0.29351576  0.29874177  1
  Zr  Zr22  1  0.69562605  0.29530871  0.30046939  1
  Zr  Zr23  1  0.90656898  0.49595080  0.31454342  1
  Zr  Zr24  1  0.48908505  0.89558155  0.10228039  1
  Zr  Zr25  1  0.09944542  0.50725042  0.90131833  1
  Zr  Zr26  1  0.29676486  0.09523607  0.30662960  1
  Zr  Zr27  1  0.29506467  0.10509744  0.49733673  1
  Zr  Zr28  1  0.90336860  0.69635460  0.49954306  1
  Zr  Zr29  1  0.90541641  0.50379870  0.11001784  1
  Zr  Zr30  1  0.89414097  0.30026895  0.09921847  1
  Zr  Zr31  1  0.68855628  0.09263318  0.89323092  1
  Zr  Zr32  1  0.29720839  0.10533323  0.10004850  1
  Zr  Zr33  1  0.49701192  0.29560023  0.10461218  1
  Zr  Zr34  1  0.49884008  0.50343968  0.89606323  1
  Zr  Zr35  1  0.50170128  0.50115278  0.49983831  1
  Zr  Zr36  1  0.69755674  0.70489269  0.10037215  1
  Zr  Zr37  1  0.29446945  0.29524436  0.69679467  1
  Zr  Zr38  1  0.69976614  0.89402357  0.30160341  1
  Zr  Zr39  1  0.50647936  0.90560347  0.89988150  1
  Zr  Zr40  1  0.10802745  0.70188970  0.90099618  1
  Zr  Zr41  1  0.30319145  0.10249682  0.89862081  1
  Zr  Zr42  1  0.50110541  0.69633048  0.10091826  1
  Zr  Zr43  1  0.29988417  0.51184466  0.90415147  1
  Zr  Zr44  1  0.09908748  0.89916472  0.30518667  1
  Zr  Zr45  1  0.90158296  0.09670583  0.69021078  1
  Zr  Zr46  1  0.09757691  0.50661955  0.29277764  1
  Zr  Zr47  1  0.30308319  0.29676288  0.10417828  1
  Zr  Zr48  1  0.29697164  0.89136688  0.89768403  1
  Zr  Zr49  1  0.70179652  0.89674220  0.90850347  1
  Sc  Sc50  1  0.49530763  0.29434679  0.89411450  1
  Sc  Sc51  1  0.29759652  0.51347847  0.69072514  1
  Sc  Sc52  1  0.50248167  0.49720930  0.69396176  1
  Sc  Sc53  1  0.49469462  0.50011760  0.09789358  1
  Sc  Sc54  1  0.49194736  0.89441957  0.69598606  1
  Sc  Sc55  1  0.29442722  0.70213072  0.50487909  1
  Sc  Sc56  1  0.09852834  0.10201218  0.11491715  1
  Sc  Sc57  1  0.90156221  0.29898897  0.49632407  1
  Sc  Sc58  1  0.89969985  0.89573206  0.49796992  1
  Sc  Sc59  1  0.09016933  0.89258583  0.10512692  1
  Sc  Sc60  1  0.69861872  0.30066493  0.09662858  1
  Sc  Sc61  1  0.70137746  0.69894668  0.69645231  1
  Sc  Sc62  1  0.68871544  0.49450330  0.09663848  1
  Sc  Sc63  1  0.49438051  0.09271536  0.49164876  1
  Sc  Sc64  1  0.50834649  0.70670295  0.69848262  1
  Sc  Sc65  1  0.08930979  0.09914333  0.70789293  1
  Sc  Sc66  1  0.50215759  0.70268349  0.49320122  1
  Sc  Sc67  1  0.09707036  0.29630940  0.89516403  1
  Sc  Sc68  1  0.89397839  0.69035867  0.69601199  1
  Sc  Sc69  1  0.50104593  0.51756752  0.29855596  1
  Sc  Sc70  1  0.30636351  0.89976098  0.49835624  1
  Sc  Sc71  1  0.90427167  0.29196813  0.30249704  1
  Sc  Sc72  1  0.89732687  0.49650832  0.89010074  1
  Sc  Sc73  1  0.70329327  0.09877072  0.10158422  1
  Sc  Sc74  1  0.70447781  0.71059941  0.49243167  1
  Sc  Sc75  1  0.49773881  0.69938046  0.89888429  1
  Sc  Sc76  1  0.68993904  0.70387210  0.90053208  1
  Sc  Sc77  1  0.91062469  0.69398415  0.90269210  1
  Sc  Sc78  1  0.11743744  0.69952131  0.69768117  1
  Sc  Sc79  1  0.09702299  0.29978875  0.69919103  1
  Sc  Sc80  1  0.09937047  0.89834759  0.89720346  1
  Sc  Sc81  1  0.90392450  0.10170303  0.88903725  1
  Sc  Sc82  1  0.09299832  0.30262570  0.29945965  1
  Sc  Sc83  1  0.69432934  0.88627370  0.69138145  1
  Sc  Sc84  1  0.50032598  0.89554247  0.49717470  1
  Sc  Sc85  1  0.90321691  0.71402123  0.10551389  1
  Sc  Sc86  1  0.49482500  0.09637843  0.10043479  1
  Sc  Sc87  1  0.70236052  0.49323912  0.89602370  1
  Sc  Sc88  1  0.10689565  0.89786998  0.49408784  1
  Sc  Sc89  1  0.89572163  0.09625673  0.11352663  1
  Sc  Sc90  1  0.09696931  0.09649212  0.30822294  1
  Sc  Sc91  1  0.09192400  0.69645441  0.10260216  1
  Sc  Sc92  1  0.29895013  0.29892438  0.49978272  1
  Sc  Sc93  1  0.10758836  0.29392270  0.50394547  1
  Sc  Sc94  1  0.89905326  0.71574100  0.30251921  1
  Sc  Sc95  1  0.09423817  0.49794026  0.69676804  1
  Sc  Sc96  1  0.90729205  0.30218177  0.70249624  1
  Sc  Sc97  1  0.89572921  0.30497277  0.89671785  1
  Sc  Sc98  1  0.30553388  0.70420287  0.08976445  1
  Sc  Sc99  1  0.29559960  0.49510673  0.09900629  1
  Nb  Nb100  1  0.10045536  0.70972718  0.48866948  1
  Nb  Nb101  1  0.29427349  0.89760685  0.69742136  1
  Nb  Nb102  1  0.90073706  0.90311872  0.28654835  1
  Nb  Nb103  1  0.89566032  0.50487511  0.50122490  1
  Nb  Nb104  1  0.90147377  0.09413101  0.30219951  1
  Nb  Nb105  1  0.70171071  0.10035938  0.69567960  1
  Nb  Nb106  1  0.30352418  0.89874225  0.29424111  1
  Nb  Nb107  1  0.91142960  0.90680065  0.69979836  1
  Nb  Nb108  1  0.68885154  0.69687834  0.29973607  1
  Nb  Nb109  1  0.90091792  0.89880624  0.10283319  1
  Nb  Nb110  1  0.10730829  0.09489285  0.50290060  1
  Nb  Nb111  1  0.09528769  0.49450745  0.10709657  1
  Nb  Nb112  1  0.29797599  0.89964848  0.10317742  1
  Nb  Nb113  1  0.69432626  0.29896743  0.70091077  1
  Nb  Nb114  1  0.71021894  0.50110939  0.49460365  1
  Nb  Nb115  1  0.90266307  0.90131475  0.90236399  1
  Nb  Nb116  1  0.09919782  0.10048011  0.90787916  1
  Nb  Nb117  1  0.09961793  0.90277095  0.69859742  1
  Nb  Nb118  1  0.50351965  0.70393819  0.29783782  1
  Nb  Nb119  1  0.70008638  0.50609949  0.30443799  1
  Nb  Nb120  1  0.69956365  0.89810017  0.49767018  1
  Nb  Nb121  1  0.49268596  0.89591612  0.30083905  1
  Nb  Nb122  1  0.10714261  0.70331438  0.31253837  1
  Nb  Nb123  1  0.49738343  0.09942172  0.89897001  1
  Nb  Nb124  1  0.29280700  0.69546908  0.89267527  1
  Nb  Nb125  1  0.19710481  -0.00069508  0.00358460  1
  Nb  Nb126  1  0.60595867  0.40659852  0.39881628  1
  Nb  Nb127  1  -0.00107549  0.00172023  0.00135180  1
  Nb  Nb128  1  0.20533107  0.80068500  0.20477008  1
  Nb  Nb129  1  0.80038423  0.59912207  0.00823744  1
  Nb  Nb130  1  -0.00112143  0.80401564  0.79220660  1
  Nb  Nb131  1  0.79237865  0.19517661  0.79078171  1
  Nb  Nb132  1  0.00595949  0.80167303  0.60435021  1
  Nb  Nb133  1  0.79428373  0.59952307  0.20489222  1
  Nb  Nb134  1  0.19789934  0.40718019  0.39921105  1
  Nb  Nb135  1  0.00339057  0.40116023  0.00582832  1
  Nb  Nb136  1  0.40541943  0.19657703  0.60502803  1
  Nb  Nb137  1  0.59446395  0.80086260  0.20419403  1
  Nb  Nb138  1  0.59896514  0.19478506  0.60502245  1
  Nb  Nb139  1  0.60411966  0.00418816  0.59902500  1
  Nb  Nb140  1  0.61021780  0.59454324  0.59059114  1
  Nb  Nb141  1  0.80272482  -0.00227577  0.39471898  1
  Nb  Nb142  1  0.59657577  0.19420946  -0.00706904  1
  Nb  Nb143  1  0.80036086  -0.00555455  0.79237792  1
  Nb  Nb144  1  0.20516372  0.40499214  0.80265947  1
  Nb  Nb145  1  0.79699467  0.40781636  0.20823210  1
  Nb  Nb146  1  0.38911067  0.40227973  0.79970066  1
  Nb  Nb147  1  0.19917898  -0.00252611  0.60535332  1
  Nb  Nb148  1  0.81061588  0.80739781  0.80118259  1
  Nb  Nb149  1  -0.00060322  0.19790125  0.00269004  1
  Pd  Pd150  1  0.40466548  0.80126578  0.80440361  1
  Pd  Pd151  1  0.79848496  0.39310932  0.39523348  1
  Pd  Pd152  1  0.80250050  0.61182183  0.39435113  1
  Pd  Pd153  1  0.39746149  0.79750963  0.40425776  1
  Pd  Pd154  1  0.79925911  0.20459298  0.20468974  1
  Pd  Pd155  1  0.79454572  0.60954911  0.81087363  1
  Pd  Pd156  1  0.80790052  0.39330860  0.60091626  1
  Pd  Pd157  1  0.60330603  -0.00466603  0.40632438  1
  Pd  Pd158  1  0.19874408  0.40757900  0.59704589  1
  Pd  Pd159  1  0.20383360  0.39671586  0.20955079  1
  Pd  Pd160  1  -0.00097238  0.39635092  0.59173587  1
  Pd  Pd161  1  0.59784962  0.00221097  0.01179677  1
  Pd  Pd162  1  0.00652328  0.60887652  0.78970366  1
  Pd  Pd163  1  0.19680074  0.20098676  0.21103956  1
  Pd  Pd164  1  0.58930250  0.39046993  -0.00581228  1
  Pd  Pd165  1  0.19209171  0.59818958  0.59058854  1
  Pd  Pd166  1  0.19858679  0.60243973  0.01380462  1
  Pd  Pd167  1  0.60045737  0.40534929  0.20727010  1
  Pd  Pd168  1  0.20321810  0.61117724  0.19054844  1
  Pd  Pd169  1  0.40358190  0.39898246  -0.00582196  1
  Pd  Pd170  1  0.59381333  0.20305124  0.41213294  1
  Pd  Pd171  1  0.19176612  0.40104693  -0.00408027  1
  Pd  Pd172  1  0.40153814  0.79574255  -0.00979787  1
  Pd  Pd173  1  -0.00527237  -0.00654807  0.40437651  1
  Pd  Pd174  1  0.39710426  0.00530372  0.20252250  1
  Pd  Pd175  1  0.00467829  0.20195383  0.59843664  1
  Pd  Pd176  1  0.00880546  0.61179026  0.60456703  1
  Pd  Pd177  1  0.19336573  -0.00719931  0.19644976  1
  Pd  Pd178  1  0.40186726  0.00158592  0.60037027  1
  Pd  Pd179  1  0.40268609  0.59939378  0.78989269  1
  Pd  Pd180  1  0.79562836  -0.01321073  0.59867208  1
  Pd  Pd181  1  0.60025987  -0.00868983  0.19326567  1
  Pd  Pd182  1  -0.00711764  0.61409897  0.21154238  1
  Pd  Pd183  1  0.00689411  0.19911985  0.40320037  1
  Pd  Pd184  1  -0.00494543  0.59521692  0.00290190  1
  Pd  Pd185  1  0.60656322  -0.01565918  0.78785681  1
  Pd  Pd186  1  0.39315119  0.60052843  0.19283203  1
  Pd  Pd187  1  0.41226915  0.61187458  0.60092887  1
  Pd  Pd188  1  0.40190495  0.40636474  0.20724950  1
  Pd  Pd189  1  0.39166185  -0.00128890  -0.00310724  1
  Pd  Pd190  1  0.19332208  0.80316343  0.00982463  1
  Pd  Pd191  1  0.60408042  0.59603707  -0.00378648  1
  Pd  Pd192  1  0.19235034  0.20158356  0.79735420  1
  Pd  Pd193  1  0.81062337  0.78870063  -0.00809950  1
  Pd  Pd194  1  0.81090309  0.01087853  -0.00599069  1
  Pd  Pd195  1  0.80014597  0.18969508  -0.01168927  1
  Pd  Pd196  1  0.80858143  0.80249292  0.60419592  1
  Pd  Pd197  1  0.19494546  -0.00112465  0.80337542  1
  Pd  Pd198  1  0.40300170  0.40620011  0.38847597  1
  Pd  Pd199  1  0.60487216  0.59741202  0.78927114  1
  Rh  Rh200  1  0.60421102  0.80213892  0.80211251  1
  Rh  Rh201  1  0.60222157  0.60266485  0.19638519  1
  Rh  Rh202  1  0.81062119  0.41485489  0.01170989  1
  Rh  Rh203  1  0.39693392  -0.01230791  0.80663424  1
  Rh  Rh204  1  0.59634123  0.80372681  0.39516101  1
  Rh  Rh205  1  0.39766419  0.79593116  0.20140660  1
  Rh  Rh206  1  0.19087666  0.19317913  0.00532430  1
  Rh  Rh207  1  0.80094061  0.21133305  0.60806412  1
  Rh  Rh208  1  0.01239959  -0.00630471  0.58817917  1
  Rh  Rh209  1  0.40536638  0.19716906  0.40459378  1
  Rh  Rh210  1  0.00110051  -0.00113420  0.19673595  1
  Rh  Rh211  1  0.00857079  0.40286979  0.80742230  1
  Rh  Rh212  1  0.80255818  0.80601844  0.39548796  1
  Rh  Rh213  1  0.79187704  0.79473153  0.20517890  1
  Rh  Rh214  1  -0.00398583  0.80525128  0.40205250  1
  Rh  Rh215  1  0.38823311  0.39498998  0.60995135  1
  Rh  Rh216  1  0.20139390  0.59536163  0.40852784  1
  Rh  Rh217  1  0.80166996  0.39143819  0.78905841  1
  Rh  Rh218  1  0.40135936  0.60753762  0.40247488  1
  Rh  Rh219  1  -0.00056530  -0.00339980  0.80897841  1
  Rh  Rh220  1  0.59416473  0.40426125  0.80563158  1
  Rh  Rh221  1  0.39750196  -0.00331241  0.39498300  1
  Rh  Rh222  1  0.20695673  -0.00542723  0.40677570  1
  Rh  Rh223  1  0.59811286  0.79806695  0.59088180  1
  Rh  Rh224  1  0.19961830  0.18522472  0.60774024  1
  Rh  Rh225  1  -0.00534795  0.61068635  0.39326303  1
  Rh  Rh226  1  0.01048863  0.79864502  0.20900757  1
  Rh  Rh227  1  0.60534432  0.20378631  0.80243333  1
  Rh  Rh228  1  0.00066251  0.80592080  -0.00669073  1
  Rh  Rh229  1  0.19186289  0.20705609  0.39534780  1
  Rh  Rh230  1  0.19711329  0.80856682  0.59684945  1
  Rh  Rh231  1  0.60997714  0.40362828  0.58876069  1
  Rh  Rh232  1  0.39880825  0.19110405  0.20494491  1
  Rh  Rh233  1  0.79314747  0.60139200  0.59297745  1
  Rh  Rh234  1  0.39628236  0.20774475  0.79737309  1
  Rh  Rh235  1  -0.00593186  0.20264017  0.80505471  1
  Rh  Rh236  1  -0.00865492  0.39207140  0.19801882  1
  Rh  Rh237  1  0.80707172  0.19180462  0.39416100  1
  Rh  Rh238  1  0.00613781  0.39395007  0.40715409  1
  Rh  Rh239  1  0.20048481  0.59561022  0.79591404  1
  Rh  Rh240  1  0.39907272  0.79865408  0.59766215  1
  Rh  Rh241  1  0.19530454  0.80180878  0.79748518  1
  Rh  Rh242  1  0.39825241  0.60415305  0.00011533  1
  Rh  Rh243  1  0.59127193  0.80366898  0.00725304  1
  Rh  Rh244  1  0.79911074  -0.00066797  0.20576686  1
  Rh  Rh245  1  0.40838844  0.19781311  0.00099976  1
  Rh  Rh246  1  0.21050732  0.80564344  0.39471074  1
  Rh  Rh247  1  -0.00336348  0.19653239  0.19964862  1
  Rh  Rh248  1  0.60188104  0.59801256  0.40799981  1
  Rh  Rh249  1  0.60137689  0.19581642  0.18515469  1
