# generated using pymatgen
data_ZrScNbPdRh
_symmetry_space_group_name_H-M   'P 1'
_cell_length_a   16.55265363
_cell_length_b   16.55398391
_cell_length_c   16.55285570
_cell_angle_alpha   90.00732191
_cell_angle_beta   90.02835894
_cell_angle_gamma   89.97993937
_symmetry_Int_Tables_number   1
_chemical_formula_structural   ZrScNbPdRh
_chemical_formula_sum   'Zr50 Sc50 Nb50 Pd50 Rh50'
_cell_volume   4535.68621683
_cell_formula_units_Z   50
loop_
 _symmetry_equiv_pos_site_id
 _symmetry_equiv_pos_as_xyz
  1  'x, y, z'
loop_
 _atom_site_type_symbol
 _atom_site_label
 _atom_site_symmetry_multiplicity
 _atom_site_fract_x
 _atom_site_fract_y
 _atom_site_fract_z
 _atom_site_occupancy
  Zr  Zr0  1  0.89988387  0.29778851  0.89860608  1
  Zr  Zr1  1  0.49872810  0.90220235  0.70231756  1
  Zr  Zr2  1  0.70444084  0.09807744  0.69888559  1
  Zr  Zr3  1  0.50076720  0.69665826  0.89607685  1
  Zr  Zr4  1  0.70269623  0.30421007  0.70582388  1
  Zr  Zr5  1  0.89079103  0.50103135  0.10580590  1
  Zr  Zr6  1  0.69437130  0.69730043  0.89510554  1
  Zr  Zr7  1  0.70022382  0.49521907  0.09723674  1
  Zr  Zr8  1  0.90453712  0.50237080  0.50133070  1
  Zr  Zr9  1  0.49171913  0.09843783  0.70197483  1
  Zr  Zr10  1  0.49751592  0.50424556  0.50274080  1
  Zr  Zr11  1  0.10635501  0.09699196  0.49967020  1
  Zr  Zr12  1  0.89698767  0.30105385  0.49506514  1
  Zr  Zr13  1  0.69854680  0.89629119  0.69277999  1
  Zr  Zr14  1  0.50701258  0.69441024  0.69663347  1
  Zr  Zr15  1  0.69732264  0.89345326  0.29886101  1
  Zr  Zr16  1  0.10737780  0.89917309  0.30430984  1
  Zr  Zr17  1  0.90514184  0.91191056  0.89894585  1
  Zr  Zr18  1  0.10230770  0.30087308  0.69708739  1
  Zr  Zr19  1  0.89933053  0.69708036  0.10899954  1
  Zr  Zr20  1  0.69218305  0.90911782  0.09495708  1
  Zr  Zr21  1  0.69976293  0.50522680  0.29290068  1
  Zr  Zr22  1  0.10381158  0.50741164  0.49301162  1
  Zr  Zr23  1  0.49410424  0.89991116  0.29794907  1
  Zr  Zr24  1  0.30455192  0.29916969  0.89846975  1
  Zr  Zr25  1  0.49955443  0.50488185  0.90237566  1
  Zr  Zr26  1  0.90809159  0.69968565  0.50258084  1
  Zr  Zr27  1  0.10007361  0.09305599  0.29183849  1
  Zr  Zr28  1  0.89255800  0.89373982  0.09983319  1
  Zr  Zr29  1  0.29855919  0.68413071  0.89729823  1
  Zr  Zr30  1  0.69614146  0.50182023  0.90583297  1
  Zr  Zr31  1  0.89632832  0.29979348  0.29904293  1
  Zr  Zr32  1  0.49363400  0.29953178  0.29716892  1
  Zr  Zr33  1  0.49478848  0.30397078  0.49100837  1
  Zr  Zr34  1  0.09867523  0.70516914  0.69631005  1
  Zr  Zr35  1  0.90584098  0.09706234  0.29324067  1
  Zr  Zr36  1  0.89546250  0.09294680  0.49692012  1
  Zr  Zr37  1  0.50282722  0.89860808  0.49366796  1
  Zr  Zr38  1  0.50114760  0.09580995  0.10034381  1
  Zr  Zr39  1  0.30202983  0.09876029  0.70128793  1
  Zr  Zr40  1  0.89897687  0.30337423  0.70074064  1
  Zr  Zr41  1  0.09029377  0.09491199  0.91488634  1
  Zr  Zr42  1  0.30091555  0.09553706  0.09194879  1
  Zr  Zr43  1  0.89780855  0.89350477  0.30603177  1
  Zr  Zr44  1  0.29242653  0.49643095  0.30297286  1
  Zr  Zr45  1  0.69705965  0.50515019  0.49839304  1
  Zr  Zr46  1  0.29957963  0.90694144  0.69568194  1
  Zr  Zr47  1  0.70159647  0.29947909  0.49506140  1
  Zr  Zr48  1  0.30281183  0.30258288  0.30971399  1
  Zr  Zr49  1  0.09715991  0.69744338  0.10352417  1
  Sc  Sc50  1  0.90188928  0.09348026  0.70266385  1
  Sc  Sc51  1  0.89815974  0.29966108  0.09558245  1
  Sc  Sc52  1  0.49163267  0.30653333  0.71054211  1
  Sc  Sc53  1  0.70649181  0.70390032  0.10173086  1
  Sc  Sc54  1  0.49963229  0.09079536  0.49303328  1
  Sc  Sc55  1  0.69468216  0.70305809  0.29915204  1
  Sc  Sc56  1  0.11306161  0.31063164  0.89540928  1
  Sc  Sc57  1  0.10783625  0.89575019  0.50171428  1
  Sc  Sc58  1  0.30062363  0.89925134  0.30161380  1
  Sc  Sc59  1  0.30175175  0.70714754  0.29991593  1
  Sc  Sc60  1  0.10039232  0.09883892  0.68990533  1
  Sc  Sc61  1  0.89796858  0.50545707  0.69684900  1
  Sc  Sc62  1  0.30258013  0.50928307  0.10715538  1
  Sc  Sc63  1  0.10996036  0.50868760  0.10350034  1
  Sc  Sc64  1  0.29712065  0.29500291  0.10364229  1
  Sc  Sc65  1  0.29465262  0.69451412  0.69484627  1
  Sc  Sc66  1  0.30266275  0.89937796  0.10889515  1
  Sc  Sc67  1  0.49764894  0.90733245  0.10042409  1
  Sc  Sc68  1  0.29287296  0.30296366  0.70362386  1
  Sc  Sc69  1  0.49649613  0.09558264  0.29570073  1
  Sc  Sc70  1  0.50264227  0.30809065  0.89750566  1
  Sc  Sc71  1  0.90189879  0.49927373  0.30164687  1
  Sc  Sc72  1  0.69901342  0.89780716  0.90688016  1
  Sc  Sc73  1  0.10474818  0.90865826  0.10527206  1
  Sc  Sc74  1  0.89537619  0.50078262  0.90374240  1
  Sc  Sc75  1  0.50629147  0.69405480  0.49832236  1
  Sc  Sc76  1  0.69271939  0.10483181  0.30340811  1
  Sc  Sc77  1  0.71962516  0.09624015  0.90441939  1
  Sc  Sc78  1  0.50256287  0.70322548  0.30097645  1
  Sc  Sc79  1  0.29870948  0.09296760  0.30294430  1
  Sc  Sc80  1  0.30218351  0.69753634  0.10821050  1
  Sc  Sc81  1  0.29033392  0.69576965  0.50164287  1
  Sc  Sc82  1  0.70752351  0.50531444  0.70045888  1
  Sc  Sc83  1  0.10567798  0.49440060  0.69859649  1
  Sc  Sc84  1  0.50753417  0.90137316  0.90701885  1
  Sc  Sc85  1  0.11014112  0.29506104  0.50134108  1
  Sc  Sc86  1  0.30282094  0.49952862  0.69003152  1
  Sc  Sc87  1  0.09837919  0.90196809  0.89024375  1
  Sc  Sc88  1  0.69963242  0.30026313  0.30272119  1
  Sc  Sc89  1  0.10964787  0.29466878  0.29676262  1
  Sc  Sc90  1  0.69549127  0.70820203  0.50269820  1
  Sc  Sc91  1  0.10176123  0.89865524  0.69961263  1
  Sc  Sc92  1  0.90674347  0.89893067  0.69561049  1
  Sc  Sc93  1  0.89548265  0.69304947  0.90673613  1
  Sc  Sc94  1  0.48472347  0.10279950  0.90568132  1
  Sc  Sc95  1  0.48982095  0.69108139  0.10510023  1
  Sc  Sc96  1  0.10200827  0.69814711  0.50087499  1
  Sc  Sc97  1  0.70459154  0.31265147  0.90201615  1
  Sc  Sc98  1  0.29881772  0.10287120  0.89865589  1
  Sc  Sc99  1  0.29716478  0.91131990  0.89464655  1
  Nb  Nb100  1  0.70255306  0.70226213  0.70573927  1
  Nb  Nb101  1  0.89964232  0.70538788  0.30248871  1
  Nb  Nb102  1  0.11061758  0.50660741  0.90512381  1
  Nb  Nb103  1  0.90967060  0.10279899  0.08763196  1
  Nb  Nb104  1  0.90624018  0.10259143  0.90351499  1
  Nb  Nb105  1  0.30003066  0.90122107  0.49801930  1
  Nb  Nb106  1  0.10371572  0.69555886  0.90213753  1
  Nb  Nb107  1  0.49760410  0.29718389  0.09852278  1
  Nb  Nb108  1  0.29728568  0.49639099  0.49864943  1
  Nb  Nb109  1  0.88210083  0.89785165  0.49509598  1
  Nb  Nb110  1  0.50156952  0.49954880  0.69331543  1
  Nb  Nb111  1  0.70920537  0.90733321  0.49897089  1
  Nb  Nb112  1  0.70134559  0.10026712  0.50432849  1
  Nb  Nb113  1  0.08984786  0.10951601  0.10450721  1
  Nb  Nb114  1  0.29779675  0.09542626  0.50521164  1
  Nb  Nb115  1  0.09470743  0.29216816  0.10138450  1
  Nb  Nb116  1  0.90211138  0.69511716  0.70291064  1
  Nb  Nb117  1  0.09464531  0.69738064  0.30758824  1
  Nb  Nb118  1  0.69913085  0.09958932  0.09987855  1
  Nb  Nb119  1  0.10133595  0.50011723  0.30535580  1
  Nb  Nb120  1  0.69689951  0.30421216  0.09974018  1
  Nb  Nb121  1  0.29945141  0.30039088  0.50020330  1
  Nb  Nb122  1  0.29156004  0.49674390  0.90715556  1
  Nb  Nb123  1  0.49732138  0.50146417  0.29980314  1
  Nb  Nb124  1  0.49730671  0.49756026  0.10138513  1
  Nb  Nb125  1  0.00773380  0.60189990  0.80497573  1
  Nb  Nb126  1  0.40074013  0.40449238  0.00408834  1
  Nb  Nb127  1  0.40085039  0.79695145  0.79925832  1
  Nb  Nb128  1  0.80121014  0.79415875  0.79520576  1
  Nb  Nb129  1  0.79807253  0.19353169  0.18913360  1
  Nb  Nb130  1  0.39318315  0.79540882  -0.00757833  1
  Nb  Nb131  1  0.00884884  0.40350502  0.00456277  1
  Nb  Nb132  1  0.80427653  0.60705442  0.39912292  1
  Nb  Nb133  1  0.19902018  0.79549762  -0.00408533  1
  Nb  Nb134  1  -0.00064680  0.19955077  0.80411085  1
  Nb  Nb135  1  0.60140140  0.00701696  0.80072641  1
  Nb  Nb136  1  0.00775271  0.39931272  0.19687453  1
  Nb  Nb137  1  0.00064498  0.19444889  0.39821155  1
  Nb  Nb138  1  0.00011420  0.39972258  0.59516257  1
  Nb  Nb139  1  0.59748250  0.20287709  0.60135422  1
  Nb  Nb140  1  0.60359983  0.20198244  0.00277745  1
  Nb  Nb141  1  0.39983096  0.80204511  0.60101571  1
  Nb  Nb142  1  0.59203379  0.39995586  0.19492785  1
  Nb  Nb143  1  0.00638444  0.79565634  -0.00083674  1
  Nb  Nb144  1  0.39799879  0.20063910  0.59463423  1
  Nb  Nb145  1  0.79584762  0.19830488  0.59690659  1
  Nb  Nb146  1  0.39749639  0.59187851  0.40044366  1
  Nb  Nb147  1  0.79914568  0.00599537  0.19336223  1
  Nb  Nb148  1  0.60369618  0.19537433  0.80341502  1
  Nb  Nb149  1  0.59763213  0.39910953  0.60137415  1
  Pd  Pd150  1  0.18990316  0.19217132  0.80240096  1
  Pd  Pd151  1  -0.00588163  -0.01019034  0.19334809  1
  Pd  Pd152  1  0.39775535  0.18798134  0.40414278  1
  Pd  Pd153  1  0.80470720  0.79819631  -0.00954074  1
  Pd  Pd154  1  0.00517641  0.80576015  0.19778067  1
  Pd  Pd155  1  0.59380497  0.19549626  0.40299042  1
  Pd  Pd156  1  0.19641915  0.39859132  0.19555006  1
  Pd  Pd157  1  0.79140100  0.00557079  0.38727561  1
  Pd  Pd158  1  0.59549904  0.80124658  0.59558107  1
  Pd  Pd159  1  0.19645381  0.20214059  -0.00184696  1
  Pd  Pd160  1  0.59728659  0.59935772  0.19502409  1
  Pd  Pd161  1  0.79434809  0.20450700  0.00264671  1
  Pd  Pd162  1  0.59912624  0.40420703  0.39523240  1
  Pd  Pd163  1  -0.00159053  0.59579740  -0.00282597  1
  Pd  Pd164  1  0.20890531  0.79911049  0.80317290  1
  Pd  Pd165  1  -0.00083015  -0.01008264  0.59257742  1
  Pd  Pd166  1  0.39795840  0.40103856  0.19507810  1
  Pd  Pd167  1  0.79707073  0.41194031  0.39591070  1
  Pd  Pd168  1  0.19786239  0.79679358  0.19985207  1
  Pd  Pd169  1  0.19864216  0.19464328  0.39750933  1
  Pd  Pd170  1  0.79571445  0.60952228  0.59365905  1
  Pd  Pd171  1  0.18984876  0.00918283  0.79727262  1
  Pd  Pd172  1  0.60198104  0.58942072  0.79271520  1
  Pd  Pd173  1  -0.00180003  0.80698769  0.59302306  1
  Pd  Pd174  1  -0.00812594  0.20436837  0.59811071  1
  Pd  Pd175  1  0.39198076  0.19390098  0.19908389  1
  Pd  Pd176  1  -0.00875216  0.79108530  0.80995039  1
  Pd  Pd177  1  0.60114751  0.60807018  0.01118294  1
  Pd  Pd178  1  0.01202002  0.38958855  0.39788946  1
  Pd  Pd179  1  0.60300101  0.20522325  0.19706042  1
  Pd  Pd180  1  0.58787919  0.79125914  0.00995970  1
  Pd  Pd181  1  0.00385597  -0.00412960  0.40803337  1
  Pd  Pd182  1  0.20342602  0.39982315  0.01273436  1
  Pd  Pd183  1  0.20003319  0.60877425  0.21060694  1
  Pd  Pd184  1  0.79732356  -0.01042475  0.79793413  1
  Pd  Pd185  1  0.19900247  -0.00679468  0.00297423  1
  Pd  Pd186  1  0.19648541  0.59387506  0.78971520  1
  Pd  Pd187  1  0.20844613  0.19411351  0.20081645  1
  Pd  Pd188  1  0.59239727  0.79970893  0.19096894  1
  Pd  Pd189  1  0.40045131  0.39265136  0.59991153  1
  Pd  Pd190  1  0.80432549  0.79384703  0.60409611  1
  Pd  Pd191  1  0.39765527  0.59567986  0.79071719  1
  Pd  Pd192  1  0.00401640  0.40668686  0.80296449  1
  Pd  Pd193  1  0.39331679  0.41202349  0.80474209  1
  Pd  Pd194  1  0.00033244  0.59180219  0.20948029  1
  Pd  Pd195  1  0.39643842  0.78916394  0.41025808  1
  Pd  Pd196  1  0.59743688  0.00396428  0.60095258  1
  Pd  Pd197  1  0.00534746  0.80334743  0.40819360  1
  Pd  Pd198  1  0.60467333  -0.00156002  0.39533554  1
  Pd  Pd199  1  0.80165590  0.41233027  0.80264621  1
  Rh  Rh200  1  0.19730282  0.39599191  0.40496148  1
  Rh  Rh201  1  0.80118147  0.61061600  0.21082230  1
  Rh  Rh202  1  0.19818939  -0.00330635  0.59932689  1
  Rh  Rh203  1  0.60377498  0.81072452  0.80037951  1
  Rh  Rh204  1  0.60469184  -0.00092465  0.20683968  1
  Rh  Rh205  1  0.00861722  0.59320426  0.61323573  1
  Rh  Rh206  1  0.80804402  0.40068147  0.00124307  1
  Rh  Rh207  1  0.39478596  -0.00121508  0.39961963  1
  Rh  Rh208  1  0.79530248  0.79149460  0.40302307  1
  Rh  Rh209  1  0.39659826  0.00097305  0.20117643  1
  Rh  Rh210  1  0.40325494  0.21010643  -0.00161500  1
  Rh  Rh211  1  0.39802659  0.60661100  0.59123750  1
  Rh  Rh212  1  0.39675098  0.40802840  0.40066897  1
  Rh  Rh213  1  0.79781344  0.38984684  0.20048301  1
  Rh  Rh214  1  0.80608543  -0.00006416  0.60147354  1
  Rh  Rh215  1  0.40824567  -0.00773976  0.81154898  1
  Rh  Rh216  1  0.19573108  0.59593161  0.59971978  1
  Rh  Rh217  1  0.20259141  0.00679274  0.19512321  1
  Rh  Rh218  1  -0.00732769  0.20887631  0.20331361  1
  Rh  Rh219  1  0.58990581  0.39429269  0.00598738  1
  Rh  Rh220  1  0.80591595  0.19043240  0.39636586  1
  Rh  Rh221  1  0.00713679  0.21416410  -0.00938508  1
  Rh  Rh222  1  0.19625669  0.40087417  0.59300776  1
  Rh  Rh223  1  0.60463871  0.80393466  0.40391640  1
  Rh  Rh224  1  -0.00556289  0.60492195  0.39245630  1
  Rh  Rh225  1  0.60770475  0.59521244  0.60603427  1
  Rh  Rh226  1  0.39438640  -0.00896180  -0.00044478  1
  Rh  Rh227  1  0.79971113  0.39401994  0.59850387  1
  Rh  Rh228  1  0.39582899  0.59662865  0.00223373  1
  Rh  Rh229  1  0.79576116  0.80325769  0.20276218  1
  Rh  Rh230  1  0.00582745  0.01116764  0.79526894  1
  Rh  Rh231  1  0.59918197  0.01754953  -0.01244236  1
  Rh  Rh232  1  0.20669840  0.60584418  0.00931914  1
  Rh  Rh233  1  0.39911935  -0.00201121  0.58749851  1
  Rh  Rh234  1  0.40489679  0.80262150  0.19355332  1
  Rh  Rh235  1  0.20720142  0.40730060  0.79779900  1
  Rh  Rh236  1  0.40025927  0.59856127  0.21422375  1
  Rh  Rh237  1  0.80697964  0.00107101  0.00594586  1
  Rh  Rh238  1  0.40178438  0.20299722  0.79703891  1
  Rh  Rh239  1  0.21280055  0.19991573  0.60111882  1
  Rh  Rh240  1  0.80633740  0.60384428  0.80260822  1
  Rh  Rh241  1  0.20518406  0.60569780  0.39380985  1
  Rh  Rh242  1  0.59980056  0.60163127  0.39618630  1
  Rh  Rh243  1  0.20734424  0.80311371  0.59900821  1
  Rh  Rh244  1  0.80613918  0.19771140  0.79591582  1
  Rh  Rh245  1  0.19819736  0.79708751  0.39897052  1
  Rh  Rh246  1  0.00184281  -0.01025620  0.00845321  1
  Rh  Rh247  1  0.60047888  0.40379849  0.79177012  1
  Rh  Rh248  1  0.79330188  0.60045619  0.00271775  1
  Rh  Rh249  1  0.20470660  -0.00304990  0.40163315  1
