# generated using pymatgen
data_ZrScNbPdRh
_symmetry_space_group_name_H-M   'P 1'
_cell_length_a   16.56245475
_cell_length_b   16.56206075
_cell_length_c   16.56162053
_cell_angle_alpha   89.99888742
_cell_angle_beta   89.99846026
_cell_angle_gamma   89.96053870
_symmetry_Int_Tables_number   1
_chemical_formula_structural   ZrScNbPdRh
_chemical_formula_sum   'Zr50 Sc50 Nb50 Pd50 Rh50'
_cell_volume   4542.99024516
_cell_formula_units_Z   50
loop_
 _symmetry_equiv_pos_site_id
 _symmetry_equiv_pos_as_xyz
  1  'x, y, z'
loop_
 _atom_site_type_symbol
 _atom_site_label
 _atom_site_symmetry_multiplicity
 _atom_site_fract_x
 _atom_site_fract_y
 _atom_site_fract_z
 _atom_site_occupancy
  Zr  Zr0  1  0.49778057  0.70063110  0.51414267  1
  Zr  Zr1  1  0.30272768  0.30174070  0.89536551  1
  Zr  Zr2  1  0.91434760  0.89311530  0.69946374  1
  Zr  Zr3  1  0.69950691  0.70392322  0.49947815  1
  Zr  Zr4  1  0.10166028  0.50447556  0.09589957  1
  Zr  Zr5  1  0.89730639  0.50785121  0.50160533  1
  Zr  Zr6  1  0.70561523  0.69623944  0.29635887  1
  Zr  Zr7  1  0.30765102  0.09482562  0.70033250  1
  Zr  Zr8  1  0.50438077  0.50485015  0.69810230  1
  Zr  Zr9  1  0.49903199  0.29412409  0.29214994  1
  Zr  Zr10  1  0.29230134  0.30442306  0.49826057  1
  Zr  Zr11  1  0.49520342  0.09839894  0.89647810  1
  Zr  Zr12  1  0.29227688  0.68802477  0.69308477  1
  Zr  Zr13  1  0.48477982  0.89588883  0.10437507  1
  Zr  Zr14  1  0.89883410  0.30045448  0.10843248  1
  Zr  Zr15  1  0.30489409  0.90448174  0.29473714  1
  Zr  Zr16  1  0.71010362  0.49923652  0.50131261  1
  Zr  Zr17  1  0.89707055  0.31090054  0.49773403  1
  Zr  Zr18  1  0.70374846  0.28658831  0.50142056  1
  Zr  Zr19  1  0.70623055  0.69761722  0.90125581  1
  Zr  Zr20  1  0.90290017  0.09520157  0.89821020  1
  Zr  Zr21  1  0.69153717  0.70253152  0.70244027  1
  Zr  Zr22  1  0.69916848  0.50307744  0.89038424  1
  Zr  Zr23  1  0.30093735  0.49944698  0.30296853  1
  Zr  Zr24  1  0.70323473  0.30684423  0.69900465  1
  Zr  Zr25  1  0.10445156  0.09621111  0.09357965  1
  Zr  Zr26  1  0.49696126  0.70703225  0.30188342  1
  Zr  Zr27  1  0.50440486  0.10619265  0.50219834  1
  Zr  Zr28  1  0.29608343  0.10103102  0.89786872  1
  Zr  Zr29  1  0.50599379  0.29988083  0.10365747  1
  Zr  Zr30  1  0.30271813  0.89533411  0.90199744  1
  Zr  Zr31  1  0.69557792  0.89608953  0.30659720  1
  Zr  Zr32  1  0.10136190  0.30401740  0.50391726  1
  Zr  Zr33  1  0.89582966  0.50350625  0.89992062  1
  Zr  Zr34  1  0.10667596  0.08886597  0.70000579  1
  Zr  Zr35  1  0.49836332  0.49482116  0.29220276  1
  Zr  Zr36  1  0.28925974  0.70929354  0.30485848  1
  Zr  Zr37  1  0.29986355  0.49416235  0.69947274  1
  Zr  Zr38  1  0.89639968  0.89359139  0.09559493  1
  Zr  Zr39  1  0.49844465  0.50182072  0.50214941  1
  Zr  Zr40  1  0.71079520  0.90291897  0.49928513  1
  Zr  Zr41  1  0.49160563  0.90447310  0.30249062  1
  Zr  Zr42  1  0.28849985  0.89785798  0.10121741  1
  Zr  Zr43  1  0.31106950  0.30232322  0.30193781  1
  Zr  Zr44  1  0.70755372  0.10661781  0.68620592  1
  Zr  Zr45  1  0.90504206  0.70282223  0.10775090  1
  Zr  Zr46  1  0.50326950  0.10883647  0.09578054  1
  Zr  Zr47  1  0.71190601  0.90029917  0.69912648  1
  Zr  Zr48  1  0.10485714  0.52033732  0.70897215  1
  Zr  Zr49  1  0.70142895  0.30051688  0.28844421  1
  Sc  Sc50  1  0.89931357  0.70253191  0.90653762  1
  Sc  Sc51  1  0.89944382  0.10652887  0.29848659  1
  Sc  Sc52  1  0.09031301  0.30832697  0.10237428  1
  Sc  Sc53  1  0.50126812  0.89705363  0.89849195  1
  Sc  Sc54  1  0.09937834  0.09932421  0.50072593  1
  Sc  Sc55  1  0.50026163  0.69640461  0.90766191  1
  Sc  Sc56  1  0.10048095  0.70064211  0.09971195  1
  Sc  Sc57  1  0.89198865  0.09562245  0.10438895  1
  Sc  Sc58  1  0.10573441  0.29958418  0.89837642  1
  Sc  Sc59  1  0.69928553  0.10089852  0.10398407  1
  Sc  Sc60  1  0.49467364  0.89770666  0.69517758  1
  Sc  Sc61  1  0.29288850  0.49497496  0.50333393  1
  Sc  Sc62  1  0.29922704  0.90084877  0.49251816  1
  Sc  Sc63  1  0.69489406  0.09110834  0.91547481  1
  Sc  Sc64  1  0.09228319  0.90029315  0.90278598  1
  Sc  Sc65  1  0.10357754  0.29294932  0.70132226  1
  Sc  Sc66  1  0.70804407  0.89484596  0.90081719  1
  Sc  Sc67  1  0.29561990  0.30294016  0.69985300  1
  Sc  Sc68  1  0.89844732  0.89896402  0.89912496  1
  Sc  Sc69  1  0.29654276  0.09681383  0.09850871  1
  Sc  Sc70  1  0.49376853  0.50738596  0.10078483  1
  Sc  Sc71  1  0.89835449  0.30232549  0.29967856  1
  Sc  Sc72  1  0.70939353  0.69539986  0.10322625  1
  Sc  Sc73  1  0.70674225  0.50111540  0.29872972  1
  Sc  Sc74  1  0.09923689  0.50341537  0.29929878  1
  Sc  Sc75  1  0.89472941  0.10250873  0.49899448  1
  Sc  Sc76  1  0.89957095  0.29760854  0.69942391  1
  Sc  Sc77  1  0.49427792  0.29863487  0.69860831  1
  Sc  Sc78  1  0.29596533  0.91099970  0.69580373  1
  Sc  Sc79  1  0.90140896  0.49505848  0.30429401  1
  Sc  Sc80  1  0.89586583  0.89350451  0.29915446  1
  Sc  Sc81  1  0.29968706  0.69351168  0.91249841  1
  Sc  Sc82  1  0.70753449  0.50493815  0.70455723  1
  Sc  Sc83  1  0.68891179  0.50495988  0.10913407  1
  Sc  Sc84  1  0.49194395  0.29800361  0.90485599  1
  Sc  Sc85  1  0.09805039  0.10035213  0.30852678  1
  Sc  Sc86  1  0.30349698  0.70211867  0.09931078  1
  Sc  Sc87  1  0.09817963  0.70028009  0.48609228  1
  Sc  Sc88  1  0.10378921  0.49672607  0.49016651  1
  Sc  Sc89  1  0.50218777  0.89355445  0.49065110  1
  Sc  Sc90  1  0.09908125  0.69780653  0.29658299  1
  Sc  Sc91  1  0.29612230  0.49487288  0.90851605  1
  Sc  Sc92  1  0.10375598  0.09940858  0.89566958  1
  Sc  Sc93  1  0.70561666  0.10058936  0.30888924  1
  Sc  Sc94  1  0.10975477  0.89573034  0.30875289  1
  Sc  Sc95  1  0.31295981  0.29918266  0.09056718  1
  Sc  Sc96  1  0.09127072  0.30446349  0.30653914  1
  Sc  Sc97  1  0.90528238  0.09440145  0.70034500  1
  Sc  Sc98  1  0.91637049  0.49861993  0.09913617  1
  Sc  Sc99  1  0.49288764  0.29614756  0.49446738  1
  Nb  Nb100  1  0.29952140  0.69807588  0.49861471  1
  Nb  Nb101  1  0.90102009  0.50315786  0.69840786  1
  Nb  Nb102  1  0.70271912  0.10021061  0.50368916  1
  Nb  Nb103  1  0.89833222  0.69495242  0.29829364  1
  Nb  Nb104  1  0.50217380  0.09642919  0.69881155  1
  Nb  Nb105  1  0.10312192  0.68685616  0.89278039  1
  Nb  Nb106  1  0.90891914  0.89283703  0.50581112  1
  Nb  Nb107  1  0.89959590  0.70231910  0.49633190  1
  Nb  Nb108  1  0.30366626  0.10129030  0.29818693  1
  Nb  Nb109  1  0.09552649  0.50450182  0.90874135  1
  Nb  Nb110  1  0.70055929  0.90146542  0.10314713  1
  Nb  Nb111  1  0.30149857  0.49961986  0.09936510  1
  Nb  Nb112  1  0.49279470  0.10069763  0.29312115  1
  Nb  Nb113  1  0.09945479  0.90241514  0.10257087  1
  Nb  Nb114  1  0.69455081  0.29823630  0.09692753  1
  Nb  Nb115  1  0.49364894  0.69781593  0.69710994  1
  Nb  Nb116  1  0.09456251  0.90022025  0.50768136  1
  Nb  Nb117  1  0.09494244  0.70680738  0.70525092  1
  Nb  Nb118  1  0.50120420  0.70095829  0.10200334  1
  Nb  Nb119  1  0.09709202  0.89265751  0.69359884  1
  Nb  Nb120  1  0.91376588  0.69565530  0.69444388  1
  Nb  Nb121  1  0.29534458  0.10187374  0.50169050  1
  Nb  Nb122  1  0.89939256  0.30524364  0.90082369  1
  Nb  Nb123  1  0.70051451  0.30586318  0.89559747  1
  Nb  Nb124  1  0.49602005  0.49838090  0.89959485  1
  Nb  Nb125  1  0.60386848  0.39931331  0.59475494  1
  Nb  Nb126  1  0.20650778  0.39861680  0.19752849  1
  Nb  Nb127  1  -0.00027339  0.40866762  0.79985616  1
  Nb  Nb128  1  0.59441201  -0.00301670  0.20323660  1
  Nb  Nb129  1  0.59951371  0.80292773  0.19663973  1
  Nb  Nb130  1  0.39444393  0.78842339  0.79370276  1
  Nb  Nb131  1  -0.00746086  0.20228533  -0.00175528  1
  Nb  Nb132  1  0.79991472  0.20935588  -0.00315854  1
  Nb  Nb133  1  0.20300721  0.20474920  0.20414161  1
  Nb  Nb134  1  0.19681339  0.79382204  0.79470305  1
  Nb  Nb135  1  0.00004064  0.41115004  0.60884922  1
  Nb  Nb136  1  0.60205824  0.39963620  0.40095244  1
  Nb  Nb137  1  0.60134617  0.79812478  0.01103474  1
  Nb  Nb138  1  0.00487257  -0.00684003  0.19686396  1
  Nb  Nb139  1  0.40143168  0.59855783  0.79921294  1
  Nb  Nb140  1  0.60267378  0.40127617  -0.00464382  1
  Nb  Nb141  1  0.60144154  0.00435981  0.78990163  1
  Nb  Nb142  1  0.79634009  0.20175146  0.80912958  1
  Nb  Nb143  1  0.39936441  0.60362867  0.40417730  1
  Nb  Nb144  1  0.19177881  0.79991688  0.60031216  1
  Nb  Nb145  1  0.79370554  0.39725397  0.00014661  1
  Nb  Nb146  1  0.60455495  0.00417289  0.59827084  1
  Nb  Nb147  1  0.60461250  0.19586473  0.79949154  1
  Nb  Nb148  1  0.39668147  -0.00088860  -0.00128780  1
  Nb  Nb149  1  0.59695104  0.59842983  0.40150186  1
  Pd  Pd150  1  0.20385392  0.19544021  0.60492460  1
  Pd  Pd151  1  0.39343323  0.20341099  0.60081186  1
  Pd  Pd152  1  0.59268604  0.60719582  0.80252587  1
  Pd  Pd153  1  -0.01002386  0.60150882  0.80683411  1
  Pd  Pd154  1  0.19964769  0.20191294  0.39431761  1
  Pd  Pd155  1  0.79352170  0.00771304  0.80365921  1
  Pd  Pd156  1  0.39720425  0.00937273  0.40824462  1
  Pd  Pd157  1  0.81196036  0.58848858  0.19602956  1
  Pd  Pd158  1  0.80260196  0.59034166  0.01199826  1
  Pd  Pd159  1  0.00916265  0.60118298  0.59009424  1
  Pd  Pd160  1  0.59969073  0.59962657  0.00225854  1
  Pd  Pd161  1  0.60024565  0.81199583  0.60127233  1
  Pd  Pd162  1  0.18782729  0.60429245  0.58714093  1
  Pd  Pd163  1  -0.00312555  0.59850387  0.39405179  1
  Pd  Pd164  1  0.81185507  -0.00038690  0.40201750  1
  Pd  Pd165  1  -0.00194742  0.20580688  0.80410051  1
  Pd  Pd166  1  0.00877822  0.18959134  0.19541458  1
  Pd  Pd167  1  -0.00379764  0.00704869  0.59658522  1
  Pd  Pd168  1  0.20347431  0.59768911  0.19600192  1
  Pd  Pd169  1  0.59202338  0.80246746  0.80420206  1
  Pd  Pd170  1  0.39315741  0.60760714  0.20474879  1
  Pd  Pd171  1  0.20163351  0.00067901  0.40440420  1
  Pd  Pd172  1  0.60129162  0.20111961  0.39217912  1
  Pd  Pd173  1  0.80012687  0.40843397  0.19112219  1
  Pd  Pd174  1  0.79908092  -0.00251378  0.20545796  1
  Pd  Pd175  1  0.00658594  0.80544545  0.20756145  1
  Pd  Pd176  1  -0.00460484  0.00419306  0.00513223  1
  Pd  Pd177  1  0.58839935  0.39266728  0.79855085  1
  Pd  Pd178  1  0.18863930  0.79556076  -0.00607633  1
  Pd  Pd179  1  -0.00440609  0.20232276  0.40580057  1
  Pd  Pd180  1  0.19358189  -0.01146961  0.80509509  1
  Pd  Pd181  1  0.40412335  0.39612125  0.59734644  1
  Pd  Pd182  1  0.19314876  0.00744566  0.20822427  1
  Pd  Pd183  1  0.59830723  0.00873562  0.40104837  1
  Pd  Pd184  1  0.38714392  0.80706654  0.60292880  1
  Pd  Pd185  1  0.19974370  0.39357135  0.00691259  1
  Pd  Pd186  1  0.00672270  0.79372771  -0.00561248  1
  Pd  Pd187  1  0.80785014  0.79350028  0.60514059  1
  Pd  Pd188  1  0.80697589  0.79730402  0.39863624  1
  Pd  Pd189  1  0.39615413  0.19288198  0.40379822  1
  Pd  Pd190  1  0.19398187  0.21045293  0.00739959  1
  Pd  Pd191  1  -0.00712767  -0.00519177  0.39397635  1
  Pd  Pd192  1  0.81304398  0.79210644  0.79442625  1
  Pd  Pd193  1  0.40673296  -0.00380396  0.58832215  1
  Pd  Pd194  1  -0.00138896  0.80168441  0.39482287  1
  Pd  Pd195  1  0.19099435  0.40454809  0.80106988  1
  Pd  Pd196  1  0.79859790  0.61149704  0.60681216  1
  Pd  Pd197  1  -0.00247778  0.20380528  0.59801393  1
  Pd  Pd198  1  0.59326141  -0.01241735  0.00451280  1
  Pd  Pd199  1  0.40141465  0.20323469  0.79614148  1
  Rh  Rh200  1  0.80807028  -0.00416621  0.59405450  1
  Rh  Rh201  1  0.60649690  0.21086162  -0.01148292  1
  Rh  Rh202  1  0.39470791  0.79351659  0.20174526  1
  Rh  Rh203  1  0.61114276  0.59477814  0.59830077  1
  Rh  Rh204  1  0.00906481  0.40632389  0.20667167  1
  Rh  Rh205  1  -0.00216065  0.60108011  0.20423727  1
  Rh  Rh206  1  0.20030827  0.60073984  0.00340821  1
  Rh  Rh207  1  0.20478301  0.19641381  0.79333336  1
  Rh  Rh208  1  0.40716880  -0.01094254  0.80452029  1
  Rh  Rh209  1  0.80268323  -0.00010130  0.00205575  1
  Rh  Rh210  1  0.39404582  0.79430634  0.40454098  1
  Rh  Rh211  1  0.80324222  0.20256563  0.39730806  1
  Rh  Rh212  1  0.80646219  0.61273735  0.79120276  1
  Rh  Rh213  1  0.79565082  0.80031573  0.20078248  1
  Rh  Rh214  1  0.21166916  0.59893827  0.81279734  1
  Rh  Rh215  1  0.59489865  0.20271267  0.60487327  1
  Rh  Rh216  1  0.19853789  -0.00289744  0.59090006  1
  Rh  Rh217  1  0.00136594  0.60876973  0.00004075  1
  Rh  Rh218  1  0.40031029  0.40605065  0.80216093  1
  Rh  Rh219  1  0.40217186  0.01211734  0.18907859  1
  Rh  Rh220  1  0.00552099  -0.00574726  0.79720436  1
  Rh  Rh221  1  0.39610410  0.40024683  0.18939880  1
  Rh  Rh222  1  0.19943358  0.80496642  0.40841645  1
  Rh  Rh223  1  0.60675495  0.18659347  0.20789361  1
  Rh  Rh224  1  -0.00117797  0.40361780  0.40648925  1
  Rh  Rh225  1  0.79366581  0.79982496  0.00432202  1
  Rh  Rh226  1  0.39279662  0.59330033  0.59919200  1
  Rh  Rh227  1  0.59918523  0.40233340  0.19799469  1
  Rh  Rh228  1  0.59581874  0.60844085  0.20772652  1
  Rh  Rh229  1  0.81112465  0.39958564  0.79802227  1
  Rh  Rh230  1  0.19958659  0.39751144  0.38953369  1
  Rh  Rh231  1  0.39972632  0.59508237  -0.00115103  1
  Rh  Rh232  1  0.20405254  -0.00605923  -0.00711155  1
  Rh  Rh233  1  0.80037317  0.60548776  0.39878346  1
  Rh  Rh234  1  0.79582987  0.19917100  0.19618845  1
  Rh  Rh235  1  0.39094352  0.19549490  0.19349356  1
  Rh  Rh236  1  0.80317233  0.40040239  0.60478564  1
  Rh  Rh237  1  0.81264415  0.20143042  0.60200270  1
  Rh  Rh238  1  0.40503783  0.40624464  0.40450220  1
  Rh  Rh239  1  0.40937360  0.40541852  0.00172653  1
  Rh  Rh240  1  -0.00233725  0.39714266  -0.00910409  1
  Rh  Rh241  1  0.20729789  0.59863391  0.40050243  1
  Rh  Rh242  1  0.40700031  0.80068534  -0.00652110  1
  Rh  Rh243  1  0.60156977  0.79143701  0.39732084  1
  Rh  Rh244  1  0.18580833  0.40367513  0.60896649  1
  Rh  Rh245  1  0.19567253  0.80003690  0.19804046  1
  Rh  Rh246  1  0.39542523  0.19143904  -0.00108854  1
  Rh  Rh247  1  0.00194055  0.79811516  0.80822318  1
  Rh  Rh248  1  0.00435130  0.78759072  0.58867838  1
  Rh  Rh249  1  0.79287205  0.39444521  0.39547415  1
