# generated using pymatgen
data_ZrScNbPdRh
_symmetry_space_group_name_H-M   'P 1'
_cell_length_a   16.55756414
_cell_length_b   16.55786676
_cell_length_c   16.55607982
_cell_angle_alpha   90.03080356
_cell_angle_beta   90.06211298
_cell_angle_gamma   90.02834683
_symmetry_Int_Tables_number   1
_chemical_formula_structural   ZrScNbPdRh
_chemical_formula_sum   'Zr50 Sc50 Nb50 Pd50 Rh50'
_cell_volume   4538.97687355
_cell_formula_units_Z   50
loop_
 _symmetry_equiv_pos_site_id
 _symmetry_equiv_pos_as_xyz
  1  'x, y, z'
loop_
 _atom_site_type_symbol
 _atom_site_label
 _atom_site_symmetry_multiplicity
 _atom_site_fract_x
 _atom_site_fract_y
 _atom_site_fract_z
 _atom_site_occupancy
  Zr  Zr0  1  0.50551294  0.49827427  0.69524393  1
  Zr  Zr1  1  0.49474400  0.69452078  0.29581897  1
  Zr  Zr2  1  0.10718877  0.50014580  0.50589802  1
  Zr  Zr3  1  0.09377969  0.50359923  0.10331968  1
  Zr  Zr4  1  0.89379475  0.30312666  0.49073495  1
  Zr  Zr5  1  0.90017007  0.09521276  0.29986036  1
  Zr  Zr6  1  0.50096032  0.69394323  0.49585252  1
  Zr  Zr7  1  0.70514294  0.71059430  0.49772196  1
  Zr  Zr8  1  0.11212920  0.89306138  0.90596412  1
  Zr  Zr9  1  0.70179956  0.70004994  0.90461607  1
  Zr  Zr10  1  0.70148314  0.30403066  0.30989044  1
  Zr  Zr11  1  0.68616658  0.10129740  0.50639831  1
  Zr  Zr12  1  0.30866799  0.29736044  0.10348573  1
  Zr  Zr13  1  0.69100333  0.50495395  0.90088625  1
  Zr  Zr14  1  0.49741712  0.09693887  0.30155613  1
  Zr  Zr15  1  0.90748036  0.89832857  0.09993193  1
  Zr  Zr16  1  0.50238045  0.89776711  0.90551938  1
  Zr  Zr17  1  0.70039277  0.29766819  0.89358362  1
  Zr  Zr18  1  0.29823847  0.49465761  0.90084370  1
  Zr  Zr19  1  0.90079650  0.70210362  0.08747699  1
  Zr  Zr20  1  0.29053575  0.50467472  0.69046698  1
  Zr  Zr21  1  0.30851345  0.70011800  0.10298650  1
  Zr  Zr22  1  0.50973185  0.09918187  0.10191745  1
  Zr  Zr23  1  0.30271396  0.89315317  0.09241820  1
  Zr  Zr24  1  0.90234417  0.09827212  0.89743527  1
  Zr  Zr25  1  0.90755385  0.90154618  0.70007328  1
  Zr  Zr26  1  0.69742975  0.29556165  0.70341298  1
  Zr  Zr27  1  0.50030115  0.90067526  0.50623069  1
  Zr  Zr28  1  0.69496552  0.49789220  0.50079250  1
  Zr  Zr29  1  0.30371656  0.11036663  0.89598873  1
  Zr  Zr30  1  0.10586461  0.70293727  0.70330568  1
  Zr  Zr31  1  0.30271238  0.10732112  0.50126744  1
  Zr  Zr32  1  0.69877370  0.89501996  0.89770644  1
  Zr  Zr33  1  0.90983818  0.69606546  0.69422469  1
  Zr  Zr34  1  0.29080983  0.70421384  0.90188010  1
  Zr  Zr35  1  0.30373453  0.09975551  0.70603836  1
  Zr  Zr36  1  0.49220662  0.50052231  0.90035047  1
  Zr  Zr37  1  0.09356783  0.69602296  0.89993732  1
  Zr  Zr38  1  0.29474392  0.50175612  0.49372988  1
  Zr  Zr39  1  0.90449402  0.50179263  0.51023968  1
  Zr  Zr40  1  0.91172000  0.49513149  0.29730474  1
  Zr  Zr41  1  0.70909331  0.89797947  0.30573029  1
  Zr  Zr42  1  0.10117557  0.08861502  0.10338302  1
  Zr  Zr43  1  0.50054085  0.49845847  0.30313564  1
  Zr  Zr44  1  0.69717039  0.69646710  0.69966333  1
  Zr  Zr45  1  0.49721789  0.29594057  0.49895891  1
  Zr  Zr46  1  0.70164186  0.48944705  0.69675939  1
  Zr  Zr47  1  0.10542868  0.50960656  0.30181783  1
  Zr  Zr48  1  0.09926268  0.09464612  0.30038312  1
  Zr  Zr49  1  0.90246399  0.30693878  0.09845771  1
  Sc  Sc50  1  0.10616615  0.09917213  0.90521117  1
  Sc  Sc51  1  0.30125154  0.50385330  0.09700135  1
  Sc  Sc52  1  0.29815018  0.90114094  0.70079917  1
  Sc  Sc53  1  0.69614267  0.29444922  0.09339798  1
  Sc  Sc54  1  0.10058843  0.10241116  0.50242770  1
  Sc  Sc55  1  0.49357133  0.10373032  0.89452330  1
  Sc  Sc56  1  0.90221417  0.90124346  0.90761581  1
  Sc  Sc57  1  0.30280235  0.90265945  0.29577903  1
  Sc  Sc58  1  0.30379610  0.90714087  0.89662697  1
  Sc  Sc59  1  0.10820004  0.09544115  0.70133106  1
  Sc  Sc60  1  0.90333975  0.49681897  0.89914764  1
  Sc  Sc61  1  0.69286183  0.89372925  0.69341592  1
  Sc  Sc62  1  0.10410900  0.89961931  0.70462951  1
  Sc  Sc63  1  0.69880785  0.68346949  0.09754401  1
  Sc  Sc64  1  0.09178328  0.69880926  0.50314579  1
  Sc  Sc65  1  0.69877235  0.91355955  0.09497734  1
  Sc  Sc66  1  0.50357635  0.70119508  0.68851584  1
  Sc  Sc67  1  0.49995122  0.29662102  0.70339953  1
  Sc  Sc68  1  0.49941359  0.10684118  0.69486342  1
  Sc  Sc69  1  0.09281379  0.69791250  0.09867360  1
  Sc  Sc70  1  0.50107470  0.49949495  0.49409330  1
  Sc  Sc71  1  0.70266681  0.09223591  0.29790971  1
  Sc  Sc72  1  0.10924713  0.30329975  0.49821683  1
  Sc  Sc73  1  0.69461052  0.30432073  0.50292231  1
  Sc  Sc74  1  0.89885796  0.90349742  0.29929290  1
  Sc  Sc75  1  0.90270852  0.09471599  0.09155210  1
  Sc  Sc76  1  0.49601864  0.50615903  0.10561428  1
  Sc  Sc77  1  0.90110491  0.09545252  0.71052414  1
  Sc  Sc78  1  0.30161523  0.09866324  0.29952360  1
  Sc  Sc79  1  0.69112990  0.50553283  0.29648422  1
  Sc  Sc80  1  0.49159836  0.10225013  0.50444249  1
  Sc  Sc81  1  0.30651604  0.90204160  0.50845596  1
  Sc  Sc82  1  0.49043007  0.30332413  0.29768506  1
  Sc  Sc83  1  0.09281089  0.89847164  0.51186643  1
  Sc  Sc84  1  0.30221397  0.10037065  0.10078468  1
  Sc  Sc85  1  0.50915269  0.69918495  0.90787251  1
  Sc  Sc86  1  0.69718171  0.69500333  0.30041947  1
  Sc  Sc87  1  0.09626186  0.49626132  0.70060868  1
  Sc  Sc88  1  0.49661851  0.29268170  0.10741235  1
  Sc  Sc89  1  0.89227953  0.31686101  0.70728285  1
  Sc  Sc90  1  0.08973667  0.90182472  0.28853519  1
  Sc  Sc91  1  0.29115418  0.29545674  0.70796998  1
  Sc  Sc92  1  0.89339159  0.89117783  0.49287883  1
  Sc  Sc93  1  0.89569452  0.30088655  0.90275799  1
  Sc  Sc94  1  0.90222952  0.09643375  0.49102548  1
  Sc  Sc95  1  0.90269604  0.50528141  0.09872594  1
  Sc  Sc96  1  0.09666846  0.30250287  0.08726069  1
  Sc  Sc97  1  0.91211979  0.70507212  0.29666225  1
  Sc  Sc98  1  0.30030598  0.50446486  0.30451660  1
  Sc  Sc99  1  0.70590982  0.10669446  0.89668611  1
  Nb  Nb100  1  0.49347985  0.70656464  0.10020115  1
  Nb  Nb101  1  0.90000985  0.69863668  0.50158192  1
  Nb  Nb102  1  0.48986009  0.30006767  0.90146551  1
  Nb  Nb103  1  0.90123300  0.29991502  0.29942623  1
  Nb  Nb104  1  0.10731898  0.69945203  0.29601831  1
  Nb  Nb105  1  0.09911518  0.30026210  0.70299402  1
  Nb  Nb106  1  0.49623201  0.89295705  0.09906090  1
  Nb  Nb107  1  0.29365792  0.69760697  0.30299964  1
  Nb  Nb108  1  0.10302529  0.89999992  0.10177443  1
  Nb  Nb109  1  0.29911348  0.30576853  0.49524352  1
  Nb  Nb110  1  0.29492453  0.30510504  0.30218694  1
  Nb  Nb111  1  0.89444629  0.50077242  0.69876610  1
  Nb  Nb112  1  0.30183145  0.29955601  0.90163707  1
  Nb  Nb113  1  0.09574787  0.30391516  0.29769174  1
  Nb  Nb114  1  0.69498182  0.49705898  0.10259329  1
  Nb  Nb115  1  0.49730654  0.89673801  0.30111045  1
  Nb  Nb116  1  0.30353801  0.70204886  0.69522881  1
  Nb  Nb117  1  0.70075214  0.90313574  0.49718617  1
  Nb  Nb118  1  0.70088082  0.10379855  0.10777418  1
  Nb  Nb119  1  0.89785917  0.70147295  0.90010986  1
  Nb  Nb120  1  0.49850320  0.89959958  0.70500948  1
  Nb  Nb121  1  0.10853166  0.49676278  0.90300178  1
  Nb  Nb122  1  0.30282882  0.69913773  0.50405379  1
  Nb  Nb123  1  0.69853126  0.10303318  0.70277878  1
  Nb  Nb124  1  0.11678646  0.30598491  0.89051714  1
  Nb  Nb125  1  0.59698619  -0.00713525  0.40230704  1
  Nb  Nb126  1  0.80887000  0.60252878  0.40482444  1
  Nb  Nb127  1  0.80286005  0.19609132  0.60407403  1
  Nb  Nb128  1  0.79954201  0.39743866  0.20004730  1
  Nb  Nb129  1  0.59513288  0.39933751  -0.00133549  1
  Nb  Nb130  1  0.79290633  0.00334832  0.60027903  1
  Nb  Nb131  1  0.80569470  0.60146525  0.79706207  1
  Nb  Nb132  1  0.59612262  0.80285140  0.19665079  1
  Nb  Nb133  1  0.40188282  0.79389933  0.79562207  1
  Nb  Nb134  1  -0.00065765  0.20410532  0.20339372  1
  Nb  Nb135  1  0.39239104  0.39636942  0.59542229  1
  Nb  Nb136  1  0.19989346  0.79656794  0.20189468  1
  Nb  Nb137  1  0.00843029  0.20939251  0.79886464  1
  Nb  Nb138  1  0.40958474  -0.00736980  0.19484333  1
  Nb  Nb139  1  0.39536810  0.60554545  0.79530979  1
  Nb  Nb140  1  0.80470158  0.79268931  0.80019971  1
  Nb  Nb141  1  0.19734138  0.39572499  0.20328550  1
  Nb  Nb142  1  0.79494616  0.79907056  0.19375140  1
  Nb  Nb143  1  0.20107378  -0.00629280  0.40112874  1
  Nb  Nb144  1  0.20154690  0.79920334  0.39738165  1
  Nb  Nb145  1  0.80474299  0.20319939  0.20127726  1
  Nb  Nb146  1  0.19401647  0.20759007  0.20462646  1
  Nb  Nb147  1  0.59980703  0.00069311  0.79403861  1
  Nb  Nb148  1  -0.00460360  0.20663532  0.60756359  1
  Nb  Nb149  1  0.39458633  0.79505208  0.39984559  1
  Pd  Pd150  1  0.59809533  0.79944228  0.59761458  1
  Pd  Pd151  1  0.79434915  0.19203044  0.40192937  1
  Pd  Pd152  1  0.40320887  0.59200087  0.59938897  1
  Pd  Pd153  1  0.60779940  0.20511497  0.20964818  1
  Pd  Pd154  1  0.60239142  0.39242908  0.19430765  1
  Pd  Pd155  1  0.59483576  0.20133127  -0.00735425  1
  Pd  Pd156  1  -0.00021256  0.60298692  0.40150518  1
  Pd  Pd157  1  0.80683616  0.59914389  0.20818160  1
  Pd  Pd158  1  0.39674684  0.20360450  0.39383143  1
  Pd  Pd159  1  0.00722576  -0.00982747  0.40584103  1
  Pd  Pd160  1  0.40677294  0.39796339  0.00973785  1
  Pd  Pd161  1  0.19707013  0.60292684  0.00589921  1
  Pd  Pd162  1  0.00806066  0.40050880  0.40634605  1
  Pd  Pd163  1  0.19827530  0.19435347  0.39501692  1
  Pd  Pd164  1  0.59451938  0.60438354  0.79702176  1
  Pd  Pd165  1  0.40053122  0.00266472  0.60765497  1
  Pd  Pd166  1  0.80497657  0.80774116  0.60611344  1
  Pd  Pd167  1  0.60363384  0.01199606  -0.01151289  1
  Pd  Pd168  1  0.20120085  0.59703860  0.79880474  1
  Pd  Pd169  1  0.59443234  0.80100605  0.39452035  1
  Pd  Pd170  1  0.19990230  0.80003813  0.59496200  1
  Pd  Pd171  1  0.79843601  0.41595944  0.39321016  1
  Pd  Pd172  1  0.19715294  0.20394258  0.60241652  1
  Pd  Pd173  1  -0.00160975  0.59056015  0.80104129  1
  Pd  Pd174  1  0.19972958  0.20143733  0.00670772  1
  Pd  Pd175  1  0.00208785  0.40052014  0.80615101  1
  Pd  Pd176  1  0.79135969  0.40628993  0.00346770  1
  Pd  Pd177  1  0.61017868  0.79623599  0.01413194  1
  Pd  Pd178  1  0.20173528  -0.00034548  0.59437695  1
  Pd  Pd179  1  0.00619255  0.80340780  0.39919429  1
  Pd  Pd180  1  0.79075215  -0.01100281  0.79233384  1
  Pd  Pd181  1  0.00561683  0.20167745  -0.00651269  1
  Pd  Pd182  1  0.79643018  0.00401224  -0.00025832  1
  Pd  Pd183  1  0.59416767  0.39434276  0.80644556  1
  Pd  Pd184  1  -0.00809507  0.00865803  0.59790860  1
  Pd  Pd185  1  0.20820367  0.00326448  -0.00188649  1
  Pd  Pd186  1  0.79531894  0.60006509  0.59903751  1
  Pd  Pd187  1  0.59872970  -0.00906178  0.20623089  1
  Pd  Pd188  1  -0.00071568  0.39267790  0.59912033  1
  Pd  Pd189  1  0.80126497  0.19556105  0.00563797  1
  Pd  Pd190  1  0.00424717  0.40219368  -0.01080340  1
  Pd  Pd191  1  0.39550349  0.59357823  0.20331795  1
  Pd  Pd192  1  0.59746615  0.19529642  0.39553451  1
  Pd  Pd193  1  -0.00251426  0.80471033  0.80616643  1
  Pd  Pd194  1  0.00618849  0.20377650  0.40342226  1
  Pd  Pd195  1  0.39150341  0.40256515  0.78862196  1
  Pd  Pd196  1  0.20274169  0.39896405  0.00909404  1
  Pd  Pd197  1  0.40192299  0.00766436  0.00355843  1
  Pd  Pd198  1  0.80438430  0.58977007  -0.00586256  1
  Pd  Pd199  1  0.01322345  0.00268100  0.80737387  1
  Rh  Rh200  1  0.59737075  0.80443596  0.79816399  1
  Rh  Rh201  1  0.81321464  0.20198940  0.79381180  1
  Rh  Rh202  1  0.20522773  0.39184814  0.60328287  1
  Rh  Rh203  1  0.00098051  0.79785222  0.19511181  1
  Rh  Rh204  1  0.60020195  -0.00182594  0.60306763  1
  Rh  Rh205  1  0.39282819  0.19145021  0.20483722  1
  Rh  Rh206  1  0.39520289  0.60367694  0.40061616  1
  Rh  Rh207  1  0.20785468  0.80214978  0.79554750  1
  Rh  Rh208  1  0.59160312  0.59242901  0.00991333  1
  Rh  Rh209  1  0.20092459  0.59997026  0.19354719  1
  Rh  Rh210  1  0.00679394  -0.00683833  -0.00437630  1
  Rh  Rh211  1  0.39093052  0.21014004  0.60277973  1
  Rh  Rh212  1  0.00640895  0.80200680  -0.00334285  1
  Rh  Rh213  1  0.79677170  0.40998608  0.80660566  1
  Rh  Rh214  1  0.79056187  0.00811652  0.41175718  1
  Rh  Rh215  1  0.80735280  0.78812551  0.38917525  1
  Rh  Rh216  1  0.19540957  0.19515063  0.80262845  1
  Rh  Rh217  1  0.58903521  0.39310815  0.59636402  1
  Rh  Rh218  1  0.39938945  0.39957515  0.40324392  1
  Rh  Rh219  1  0.40099821  0.20739955  0.79805120  1
  Rh  Rh220  1  0.00635718  0.59776911  0.60438441  1
  Rh  Rh221  1  0.00234455  0.39705019  0.19806543  1
  Rh  Rh222  1  0.40757991  -0.00582963  0.79785456  1
  Rh  Rh223  1  -0.00256652  0.60703523  0.19835924  1
  Rh  Rh224  1  0.40352693  0.19845987  0.00100605  1
  Rh  Rh225  1  0.59375261  0.39900742  0.39851092  1
  Rh  Rh226  1  0.19401315  0.61004902  0.59768535  1
  Rh  Rh227  1  -0.00721361  0.00421600  0.19564051  1
  Rh  Rh228  1  0.19472799  0.79279498  0.01168030  1
  Rh  Rh229  1  0.19783141  0.61044760  0.40944540  1
  Rh  Rh230  1  0.60406217  0.60002416  0.59374624  1
  Rh  Rh231  1  0.80443546  0.00078382  0.19020400  1
  Rh  Rh232  1  0.59287865  0.19523618  0.80437101  1
  Rh  Rh233  1  0.59205766  0.60719910  0.19391642  1
  Rh  Rh234  1  0.80010734  0.39223346  0.59680530  1
  Rh  Rh235  1  0.20179360  0.00124878  0.80338022  1
  Rh  Rh236  1  0.20975381  -0.00485846  0.20232851  1
  Rh  Rh237  1  0.39760665  0.80256541  0.20818323  1
  Rh  Rh238  1  0.40229438  0.80088244  0.60194996  1
  Rh  Rh239  1  0.79531777  0.80123768  0.00251159  1
  Rh  Rh240  1  -0.00152848  0.80079424  0.60002365  1
  Rh  Rh241  1  0.40031986  -0.00775968  0.39622500  1
  Rh  Rh242  1  -0.00019281  0.59451739  -0.00815669  1
  Rh  Rh243  1  0.39934989  0.79486414  -0.01417481  1
  Rh  Rh244  1  0.61047767  0.60092625  0.40315818  1
  Rh  Rh245  1  0.40194977  0.60698567  -0.00745848  1
  Rh  Rh246  1  0.39149985  0.40593342  0.20229583  1
  Rh  Rh247  1  0.20382113  0.40499377  0.79633577  1
  Rh  Rh248  1  0.60076634  0.20541200  0.60390892  1
  Rh  Rh249  1  0.19606504  0.40225254  0.39201357  1
