# generated using pymatgen
data_ZrScNbPdRh
_symmetry_space_group_name_H-M   'P 1'
_cell_length_a   16.56409649
_cell_length_b   16.56342890
_cell_length_c   16.56050076
_cell_angle_alpha   90.02784840
_cell_angle_beta   89.94004283
_cell_angle_gamma   89.98723530
_symmetry_Int_Tables_number   1
_chemical_formula_structural   ZrScNbPdRh
_chemical_formula_sum   'Zr50 Sc50 Nb50 Pd50 Rh50'
_cell_volume   4543.50661216
_cell_formula_units_Z   50
loop_
 _symmetry_equiv_pos_site_id
 _symmetry_equiv_pos_as_xyz
  1  'x, y, z'
loop_
 _atom_site_type_symbol
 _atom_site_label
 _atom_site_symmetry_multiplicity
 _atom_site_fract_x
 _atom_site_fract_y
 _atom_site_fract_z
 _atom_site_occupancy
  Zr  Zr0  1  0.29858314  0.69115648  0.49308004  1
  Zr  Zr1  1  0.89872519  0.70318324  0.09478873  1
  Zr  Zr2  1  0.90367337  0.08867518  0.50778307  1
  Zr  Zr3  1  0.69627748  0.09725424  0.69737436  1
  Zr  Zr4  1  0.30352647  0.88876257  0.09567172  1
  Zr  Zr5  1  0.30347480  0.09966915  0.30694823  1
  Zr  Zr6  1  0.50126160  0.10264075  0.10420394  1
  Zr  Zr7  1  0.10399229  0.30396035  0.09822763  1
  Zr  Zr8  1  0.29305285  0.90833652  0.70096291  1
  Zr  Zr9  1  0.90390909  0.30374460  0.50237099  1
  Zr  Zr10  1  0.30790625  0.50704728  0.09671663  1
  Zr  Zr11  1  0.70190578  0.69157534  0.09404039  1
  Zr  Zr12  1  0.30135622  0.30408971  0.69852020  1
  Zr  Zr13  1  0.91225436  0.49762637  0.30182169  1
  Zr  Zr14  1  0.89876167  0.70396311  0.50871388  1
  Zr  Zr15  1  0.50606256  0.49656238  0.09301706  1
  Zr  Zr16  1  0.08771444  0.70350558  0.69689647  1
  Zr  Zr17  1  0.69921685  0.70762484  0.29693423  1
  Zr  Zr18  1  0.08695968  0.89436116  0.30549069  1
  Zr  Zr19  1  0.29764909  0.69899324  0.91121502  1
  Zr  Zr20  1  0.89472088  0.50716608  0.50297878  1
  Zr  Zr21  1  0.90020480  0.10074413  0.90220839  1
  Zr  Zr22  1  0.29464387  0.89331656  0.89900808  1
  Zr  Zr23  1  0.10636040  0.50673486  0.70295809  1
  Zr  Zr24  1  0.10197117  0.10118541  0.50080761  1
  Zr  Zr25  1  0.50007817  0.10503312  0.90633923  1
  Zr  Zr26  1  0.89483028  0.30411391  0.29913868  1
  Zr  Zr27  1  0.50929340  0.90725086  0.30348085  1
  Zr  Zr28  1  0.49727198  0.70013748  0.29588634  1
  Zr  Zr29  1  0.89935232  0.90106199  0.68901329  1
  Zr  Zr30  1  0.90572111  0.90785665  0.10958646  1
  Zr  Zr31  1  0.89551026  0.09312508  0.29302500  1
  Zr  Zr32  1  0.71021809  0.89500990  0.10189576  1
  Zr  Zr33  1  0.09456543  0.50159469  0.09846271  1
  Zr  Zr34  1  0.30481976  0.09332685  0.90214723  1
  Zr  Zr35  1  0.09629166  0.09609831  0.10195477  1
  Zr  Zr36  1  0.10420114  0.71183518  0.49881937  1
  Zr  Zr37  1  0.70520588  0.49585773  0.09374617  1
  Zr  Zr38  1  0.30358949  0.09708450  0.10920961  1
  Zr  Zr39  1  0.69530950  0.89619072  0.50128245  1
  Zr  Zr40  1  0.70488903  0.10948067  0.89942189  1
  Zr  Zr41  1  0.09665163  0.89588168  0.10004637  1
  Zr  Zr42  1  0.09122764  0.90167354  0.50372053  1
  Zr  Zr43  1  0.50664649  0.30176082  0.49917977  1
  Zr  Zr44  1  0.89993376  0.90071636  0.90918793  1
  Zr  Zr45  1  0.49013491  0.69799161  0.10007446  1
  Zr  Zr46  1  0.70561742  0.50395398  0.70020353  1
  Zr  Zr47  1  0.50288853  0.49674926  0.49764798  1
  Zr  Zr48  1  0.89900270  0.50375850  0.09492675  1
  Zr  Zr49  1  0.69709066  0.51144221  0.90429325  1
  Sc  Sc50  1  0.30254341  0.50187253  0.89169434  1
  Sc  Sc51  1  0.28935425  0.90437719  0.50703684  1
  Sc  Sc52  1  0.30291004  0.30500677  0.90019364  1
  Sc  Sc53  1  0.89788792  0.52255959  0.69523404  1
  Sc  Sc54  1  0.48714831  0.89074373  0.89381627  1
  Sc  Sc55  1  0.29692402  0.29577540  0.30506218  1
  Sc  Sc56  1  0.50178044  0.70124746  0.70105779  1
  Sc  Sc57  1  0.49922644  0.09547816  0.30222806  1
  Sc  Sc58  1  0.70309012  0.10370535  0.10396945  1
  Sc  Sc59  1  0.49546040  0.09631247  0.49933469  1
  Sc  Sc60  1  0.31119198  0.30105710  0.10106527  1
  Sc  Sc61  1  0.29871410  0.29482821  0.50642218  1
  Sc  Sc62  1  0.68752873  0.09427096  0.50421314  1
  Sc  Sc63  1  0.69672019  0.29872188  0.70134672  1
  Sc  Sc64  1  0.68860418  0.09573184  0.29200474  1
  Sc  Sc65  1  0.10287426  0.30181503  0.89937027  1
  Sc  Sc66  1  0.10583549  0.29795502  0.50053014  1
  Sc  Sc67  1  0.50593239  0.30270792  0.29717173  1
  Sc  Sc68  1  0.88886020  0.30780486  0.09733451  1
  Sc  Sc69  1  0.10622458  0.10196200  0.29672114  1
  Sc  Sc70  1  0.69408551  0.29992456  0.29269976  1
  Sc  Sc71  1  0.50304871  0.50288259  0.29575107  1
  Sc  Sc72  1  0.10204919  0.09906251  0.70213863  1
  Sc  Sc73  1  0.89213509  0.28770786  0.90243773  1
  Sc  Sc74  1  0.70571362  0.70226172  0.49586052  1
  Sc  Sc75  1  0.49924163  0.30515861  0.90345893  1
  Sc  Sc76  1  0.69198334  0.89736836  0.68743733  1
  Sc  Sc77  1  0.09890229  0.89270644  0.88918622  1
  Sc  Sc78  1  0.30343768  0.10417972  0.50569457  1
  Sc  Sc79  1  0.10482659  0.69699090  0.89323431  1
  Sc  Sc80  1  0.10215837  0.50253218  0.90829954  1
  Sc  Sc81  1  0.10923902  0.29366512  0.69972763  1
  Sc  Sc82  1  0.69887606  0.70340881  0.69762638  1
  Sc  Sc83  1  0.48944101  0.49713479  0.70662782  1
  Sc  Sc84  1  0.08953036  0.09815630  0.89902338  1
  Sc  Sc85  1  0.90096614  0.69986089  0.30723236  1
  Sc  Sc86  1  0.49765282  0.30379619  0.69937390  1
  Sc  Sc87  1  0.09892205  0.69477688  0.08869069  1
  Sc  Sc88  1  0.30904308  0.90783117  0.29406431  1
  Sc  Sc89  1  0.50520556  0.69541092  0.49525564  1
  Sc  Sc90  1  0.09857731  0.30906931  0.30990605  1
  Sc  Sc91  1  0.69925868  0.30129305  0.90469659  1
  Sc  Sc92  1  0.69632580  0.49908611  0.29419100  1
  Sc  Sc93  1  0.49932533  0.89752626  0.69522729  1
  Sc  Sc94  1  0.90465086  0.69650869  0.89611665  1
  Sc  Sc95  1  0.29328232  0.68292344  0.69917154  1
  Sc  Sc96  1  0.49608617  0.89665187  0.10740685  1
  Sc  Sc97  1  0.49836935  0.69358262  0.89121404  1
  Sc  Sc98  1  0.50097929  0.30331608  0.09780890  1
  Sc  Sc99  1  0.09933054  0.50120261  0.49243247  1
  Nb  Nb100  1  0.69866381  0.49244712  0.50325874  1
  Nb  Nb101  1  0.49831059  0.89757269  0.49791624  1
  Nb  Nb102  1  0.30084316  0.70050517  0.10528739  1
  Nb  Nb103  1  0.30060490  0.50917129  0.30943188  1
  Nb  Nb104  1  0.69970864  0.30541935  0.49943550  1
  Nb  Nb105  1  0.49790366  0.09976744  0.69868816  1
  Nb  Nb106  1  0.10600260  0.89168468  0.69481182  1
  Nb  Nb107  1  0.89592751  0.70394865  0.70181037  1
  Nb  Nb108  1  0.30838822  0.50070545  0.50493040  1
  Nb  Nb109  1  0.69983255  0.30805529  0.10350545  1
  Nb  Nb110  1  0.10293987  0.50434465  0.29832889  1
  Nb  Nb111  1  0.89997884  0.29844303  0.70226128  1
  Nb  Nb112  1  0.89296878  0.10559331  0.70460807  1
  Nb  Nb113  1  0.70272067  0.90134963  0.90132424  1
  Nb  Nb114  1  0.89808516  0.90065911  0.30490433  1
  Nb  Nb115  1  0.11026882  0.69607699  0.30918511  1
  Nb  Nb116  1  0.70021983  0.70413782  0.89834022  1
  Nb  Nb117  1  0.89762391  0.89971970  0.49310090  1
  Nb  Nb118  1  0.50109664  0.49593921  0.89815896  1
  Nb  Nb119  1  0.89454974  0.49710318  0.89937505  1
  Nb  Nb120  1  0.30318812  0.49452288  0.69288397  1
  Nb  Nb121  1  0.70406415  0.90342532  0.29998560  1
  Nb  Nb122  1  0.90468402  0.09999371  0.09676538  1
  Nb  Nb123  1  0.30347826  0.10235517  0.69709761  1
  Nb  Nb124  1  0.30336769  0.69512922  0.30116372  1
  Nb  Nb125  1  0.79472530  0.39824162  0.40516146  1
  Nb  Nb126  1  0.19990819  -0.00125009  0.00142604  1
  Nb  Nb127  1  0.20250151  0.41281829  0.20554692  1
  Nb  Nb128  1  0.80665987  0.40481881  0.79878806  1
  Nb  Nb129  1  0.39640663  0.40632245  0.40362694  1
  Nb  Nb130  1  0.80132128  0.20077880  0.59788913  1
  Nb  Nb131  1  0.39939422  0.80225870  0.40205401  1
  Nb  Nb132  1  0.60377474  0.59198101  0.59711038  1
  Nb  Nb133  1  0.79766363  0.19799426  0.40644716  1
  Nb  Nb134  1  0.79873000  -0.00340282  0.39980291  1
  Nb  Nb135  1  -0.00884474  0.40195720  0.79493661  1
  Nb  Nb136  1  0.60109485  0.00097280  0.80537070  1
  Nb  Nb137  1  -0.00184955  0.40317225  0.60954092  1
  Nb  Nb138  1  0.39846221  0.19334456  0.79510376  1
  Nb  Nb139  1  0.20358013  0.19205680  0.00377296  1
  Nb  Nb140  1  -0.00821571  0.19656344  0.39680850  1
  Nb  Nb141  1  -0.00473034  0.20149685  0.19900523  1
  Nb  Nb142  1  0.79900349  0.80450808  0.80185005  1
  Nb  Nb143  1  0.79738813  -0.00205536  0.79800466  1
  Nb  Nb144  1  0.20203213  0.78930832  0.20480872  1
  Nb  Nb145  1  0.39598815  0.79803956  0.59240315  1
  Nb  Nb146  1  0.20245571  0.60126089  0.20498603  1
  Nb  Nb147  1  0.60389608  0.80046623  -0.00515563  1
  Nb  Nb148  1  0.60243303  -0.00737948  -0.00497316  1
  Nb  Nb149  1  0.19630670  -0.00045159  0.40053947  1
  Pd  Pd150  1  0.00305997  0.20676737  0.80006430  1
  Pd  Pd151  1  0.21205342  0.81325333  0.39190557  1
  Pd  Pd152  1  0.00415645  0.78622150  0.20500328  1
  Pd  Pd153  1  0.19335154  0.59806101  0.59303693  1
  Pd  Pd154  1  0.21056883  0.39765396  0.00567143  1
  Pd  Pd155  1  0.40604136  0.20331749  0.20834619  1
  Pd  Pd156  1  0.19656331  -0.01282543  0.20252031  1
  Pd  Pd157  1  0.79622056  0.00808623  0.00181308  1
  Pd  Pd158  1  0.60056175  0.59814749  0.19467337  1
  Pd  Pd159  1  0.19572326  0.21213140  0.20031048  1
  Pd  Pd160  1  0.80601379  0.39680115  0.60566287  1
  Pd  Pd161  1  0.40152882  -0.00542023  0.59610236  1
  Pd  Pd162  1  0.38762025  0.79089683  0.78631214  1
  Pd  Pd163  1  0.79969408  0.20038605  0.19993092  1
  Pd  Pd164  1  0.60456036  0.19598376  0.39710895  1
  Pd  Pd165  1  0.80471532  0.59674838  0.20658589  1
  Pd  Pd166  1  0.19334825  0.00451816  0.80394382  1
  Pd  Pd167  1  0.00212993  0.20759977  0.00529108  1
  Pd  Pd168  1  0.00565244  0.61090807  0.20115875  1
  Pd  Pd169  1  -0.00767596  0.39307140  -0.01022097  1
  Pd  Pd170  1  0.00701897  0.00150602  0.61272263  1
  Pd  Pd171  1  0.20858089  0.40306908  0.40200007  1
  Pd  Pd172  1  0.59106390  0.20062500  0.79818067  1
  Pd  Pd173  1  0.60813868  0.59836973  0.40173906  1
  Pd  Pd174  1  0.19594093  0.40452201  0.80208140  1
  Pd  Pd175  1  0.59825929  0.60016525  0.79273474  1
  Pd  Pd176  1  0.60632637  0.40089043  0.80117080  1
  Pd  Pd177  1  0.00348014  0.60641579  0.40687011  1
  Pd  Pd178  1  0.40544618  0.20943780  0.40005816  1
  Pd  Pd179  1  0.80767132  0.79735537  0.20436219  1
  Pd  Pd180  1  0.40788584  0.00179743  0.79696766  1
  Pd  Pd181  1  0.40544278  0.59784231  -0.00877902  1
  Pd  Pd182  1  0.59739958  0.79846383  0.40104710  1
  Pd  Pd183  1  0.39560296  0.40346600  0.21148661  1
  Pd  Pd184  1  0.40411893  -0.00829548  0.00508827  1
  Pd  Pd185  1  0.79249262  0.59208803  0.39457940  1
  Pd  Pd186  1  -0.00010563  0.59447880  0.80546741  1
  Pd  Pd187  1  -0.00397324  -0.00623945  0.79262580  1
  Pd  Pd188  1  0.20684378  0.19471646  0.80877755  1
  Pd  Pd189  1  0.60553477  0.20376825  0.00837213  1
  Pd  Pd190  1  0.60430822  0.80736272  0.80231315  1
  Pd  Pd191  1  0.60000515  0.20086173  0.59964332  1
  Pd  Pd192  1  0.59614513  0.40489445  0.61155664  1
  Pd  Pd193  1  0.00471336  0.39428134  0.19846693  1
  Pd  Pd194  1  0.19394599  0.40259075  0.59611042  1
  Pd  Pd195  1  0.20521684  0.78865912  0.79185820  1
  Pd  Pd196  1  0.00539028  0.79549632  -0.00808584  1
  Pd  Pd197  1  0.00012888  0.20425025  0.60060587  1
  Pd  Pd198  1  0.41091989  0.60513643  0.60293587  1
  Pd  Pd199  1  0.60040666  0.80155984  0.19153887  1
  Rh  Rh200  1  0.79997807  0.79950286  0.60342571  1
  Rh  Rh201  1  0.60081840  0.40020808  0.39350525  1
  Rh  Rh202  1  0.00536895  0.60017174  0.59525437  1
  Rh  Rh203  1  0.80669935  0.60497698  -0.00742103  1
  Rh  Rh204  1  0.39092213  -0.00558578  0.40735563  1
  Rh  Rh205  1  0.79762149  0.20099509  0.01203341  1
  Rh  Rh206  1  0.79670524  0.00280535  0.59817169  1
  Rh  Rh207  1  0.60256568  0.39761784  -0.00182261  1
  Rh  Rh208  1  0.19517244  0.19276814  0.40065189  1
  Rh  Rh209  1  0.79714348  0.39710061  -0.00853280  1
  Rh  Rh210  1  0.20222829  0.59932472  0.00293589  1
  Rh  Rh211  1  0.79796730  0.40850824  0.20598480  1
  Rh  Rh212  1  0.19799894  0.59420292  0.40389782  1
  Rh  Rh213  1  0.79628679  0.20343291  0.79297769  1
  Rh  Rh214  1  0.39664388  0.80072869  0.21142971  1
  Rh  Rh215  1  0.19493391  0.00590575  0.59905878  1
  Rh  Rh216  1  -0.00032453  0.00641410  0.39292113  1
  Rh  Rh217  1  0.00714142  -0.00522020  -0.00182905  1
  Rh  Rh218  1  -0.00335451  0.59991614  -0.00688793  1
  Rh  Rh219  1  -0.00424078  0.80259992  0.59953912  1
  Rh  Rh220  1  0.79870771  0.60649980  0.80327233  1
  Rh  Rh221  1  0.39938854  0.59346441  0.20200284  1
  Rh  Rh222  1  0.78901310  0.60991867  0.59846356  1
  Rh  Rh223  1  0.58777251  -0.00204278  0.60280975  1
  Rh  Rh224  1  0.39722430  0.59663493  0.79927816  1
  Rh  Rh225  1  0.19379315  0.80124966  0.00514834  1
  Rh  Rh226  1  0.40674632  0.00141585  0.19898418  1
  Rh  Rh227  1  0.20419820  0.19609444  0.60285729  1
  Rh  Rh228  1  0.00148860  0.00396605  0.20516094  1
  Rh  Rh229  1  0.59083295  0.78962301  0.59328383  1
  Rh  Rh230  1  0.20777705  0.79489908  0.60768615  1
  Rh  Rh231  1  -0.00657529  0.79290698  0.40156058  1
  Rh  Rh232  1  0.59165538  0.60845143  -0.00358897  1
  Rh  Rh233  1  0.80067254  0.80652103  0.39681296  1
  Rh  Rh234  1  0.39793711  0.39566197  0.80063310  1
  Rh  Rh235  1  -0.00824916  0.80493076  0.79547020  1
  Rh  Rh236  1  0.40792979  0.79399324  -0.00386701  1
  Rh  Rh237  1  0.40397083  0.20265913  0.60667957  1
  Rh  Rh238  1  0.79817725  -0.00113230  0.20126866  1
  Rh  Rh239  1  0.40059108  0.39547165  0.59301727  1
  Rh  Rh240  1  0.20330184  0.59587572  0.80229238  1
  Rh  Rh241  1  0.59648761  0.20317937  0.19611125  1
  Rh  Rh242  1  -0.00267798  0.40005687  0.40866942  1
  Rh  Rh243  1  0.79893649  0.79215931  -0.00587495  1
  Rh  Rh244  1  0.39291541  0.20542341  -0.00658099  1
  Rh  Rh245  1  0.60586714  0.00005402  0.40280736  1
  Rh  Rh246  1  0.60096596  0.40127423  0.19506257  1
  Rh  Rh247  1  0.40691586  0.59866178  0.39893921  1
  Rh  Rh248  1  0.40260844  0.40486241  -0.00549014  1
  Rh  Rh249  1  0.60164757  -0.00361785  0.19012097  1
