# generated using pymatgen
data_ZrScNbPdRh
_symmetry_space_group_name_H-M   'P 1'
_cell_length_a   16.55841003
_cell_length_b   16.56014250
_cell_length_c   16.56059377
_cell_angle_alpha   90.01728723
_cell_angle_beta   89.97810063
_cell_angle_gamma   89.94988193
_symmetry_Int_Tables_number   1
_chemical_formula_structural   ZrScNbPdRh
_chemical_formula_sum   'Zr50 Sc50 Nb50 Pd50 Rh50'
_cell_volume   4541.07200814
_cell_formula_units_Z   50
loop_
 _symmetry_equiv_pos_site_id
 _symmetry_equiv_pos_as_xyz
  1  'x, y, z'
loop_
 _atom_site_type_symbol
 _atom_site_label
 _atom_site_symmetry_multiplicity
 _atom_site_fract_x
 _atom_site_fract_y
 _atom_site_fract_z
 _atom_site_occupancy
  Zr  Zr0  1  0.30504483  0.90140248  0.90151152  1
  Zr  Zr1  1  0.70482623  0.69632836  0.89676455  1
  Zr  Zr2  1  0.09432688  0.10440192  0.29869121  1
  Zr  Zr3  1  0.10755359  0.70011082  0.09829083  1
  Zr  Zr4  1  0.28809733  0.90887728  0.50081046  1
  Zr  Zr5  1  0.70005001  0.69784894  0.49744941  1
  Zr  Zr6  1  0.11057347  0.49867679  0.29263702  1
  Zr  Zr7  1  0.50070861  0.68861892  0.70056442  1
  Zr  Zr8  1  0.29848619  0.29633164  0.49969875  1
  Zr  Zr9  1  0.49801291  0.09924011  0.89444597  1
  Zr  Zr10  1  0.89685182  0.70341009  0.90734141  1
  Zr  Zr11  1  0.69984165  0.89725252  0.29623911  1
  Zr  Zr12  1  0.50628146  0.70207060  0.90654864  1
  Zr  Zr13  1  0.49336848  0.89735220  0.29958384  1
  Zr  Zr14  1  0.89866935  0.30960112  0.49633379  1
  Zr  Zr15  1  0.90282280  0.89524974  0.09762228  1
  Zr  Zr16  1  0.90320852  0.30076623  0.10659920  1
  Zr  Zr17  1  0.69935881  0.88320251  0.90469375  1
  Zr  Zr18  1  0.09441255  0.69718254  0.90400733  1
  Zr  Zr19  1  0.90439283  0.10223505  0.10425981  1
  Zr  Zr20  1  0.49669880  0.49776948  0.70843359  1
  Zr  Zr21  1  0.69204778  0.49619164  0.69706214  1
  Zr  Zr22  1  0.68891012  0.10881119  0.69275155  1
  Zr  Zr23  1  0.49708612  0.90536715  0.50139661  1
  Zr  Zr24  1  0.09171810  0.29613395  0.29694295  1
  Zr  Zr25  1  0.90452282  0.08694010  0.49247118  1
  Zr  Zr26  1  0.10110192  0.10010435  0.48826511  1
  Zr  Zr27  1  0.09995884  0.89999256  0.09875867  1
  Zr  Zr28  1  0.50169979  0.10411790  0.51481314  1
  Zr  Zr29  1  0.50741431  0.29799898  0.69417262  1
  Zr  Zr30  1  0.70380351  0.49884659  0.49264308  1
  Zr  Zr31  1  0.29490378  0.49308742  0.49538028  1
  Zr  Zr32  1  0.90047930  0.49780675  0.09907718  1
  Zr  Zr33  1  0.90860471  0.09722083  0.89492077  1
  Zr  Zr34  1  0.10238637  0.70248952  0.70141201  1
  Zr  Zr35  1  0.50752825  0.49222974  0.29077528  1
  Zr  Zr36  1  0.49733515  0.09756201  0.29585533  1
  Zr  Zr37  1  0.30261020  0.50274507  0.70177617  1
  Zr  Zr38  1  0.30558021  0.30779511  0.30359715  1
  Zr  Zr39  1  0.89855310  0.30125791  0.69814023  1
  Zr  Zr40  1  0.09990435  0.69748434  0.29710657  1
  Zr  Zr41  1  0.90212640  0.91392898  0.70209793  1
  Zr  Zr42  1  0.71793140  0.89754607  0.50077377  1
  Zr  Zr43  1  0.70318317  0.50286893  0.29594640  1
  Zr  Zr44  1  0.49888919  0.69268537  0.09791890  1
  Zr  Zr45  1  0.30739055  0.09255440  0.69961261  1
  Zr  Zr46  1  0.89536147  0.90568593  0.30310350  1
  Zr  Zr47  1  0.30229904  0.90505929  0.30245207  1
  Zr  Zr48  1  0.50027231  0.69596746  0.49600003  1
  Zr  Zr49  1  0.50417472  0.09457375  0.70026172  1
  Sc  Sc50  1  0.28714025  0.30250571  0.69814477  1
  Sc  Sc51  1  0.09872807  0.29553859  0.90178983  1
  Sc  Sc52  1  0.89725145  0.48993704  0.30128537  1
  Sc  Sc53  1  0.70305583  0.69575254  0.09793562  1
  Sc  Sc54  1  0.30868382  0.69881439  0.90835074  1
  Sc  Sc55  1  0.90900267  0.50043598  0.70066134  1
  Sc  Sc56  1  0.30168588  0.70275735  0.70348101  1
  Sc  Sc57  1  0.49006555  0.31543768  0.91200825  1
  Sc  Sc58  1  0.29890134  0.10601269  0.29916167  1
  Sc  Sc59  1  0.49006259  0.10622006  0.11097491  1
  Sc  Sc60  1  0.69568962  0.50057405  0.90899681  1
  Sc  Sc61  1  0.89870251  0.70074543  0.29796982  1
  Sc  Sc62  1  0.70190129  0.30300019  0.90584021  1
  Sc  Sc63  1  0.30112536  0.89058422  0.09982678  1
  Sc  Sc64  1  0.70507176  0.09658845  0.28893586  1
  Sc  Sc65  1  0.09432493  0.49402466  0.70050763  1
  Sc  Sc66  1  0.10393395  0.30099002  0.50125161  1
  Sc  Sc67  1  0.29364097  0.10586034  0.90852969  1
  Sc  Sc68  1  0.29274439  0.10398289  0.49730501  1
  Sc  Sc69  1  0.29104864  0.70804123  0.29841197  1
  Sc  Sc70  1  0.70901867  0.30369977  0.09790184  1
  Sc  Sc71  1  0.29654943  0.29834056  0.90626458  1
  Sc  Sc72  1  0.89114844  0.10504001  0.70913750  1
  Sc  Sc73  1  0.69991281  0.69134449  0.29480725  1
  Sc  Sc74  1  0.70194210  0.29785094  0.69942913  1
  Sc  Sc75  1  0.09470433  0.49397451  0.90695599  1
  Sc  Sc76  1  0.49951214  0.89200554  0.10574184  1
  Sc  Sc77  1  0.69926120  0.50197989  0.10270391  1
  Sc  Sc78  1  0.70118157  0.89426473  0.10566901  1
  Sc  Sc79  1  0.30048969  0.70489815  0.49398590  1
  Sc  Sc80  1  0.90314289  0.29348937  0.90797994  1
  Sc  Sc81  1  0.70352832  0.30885517  0.50796644  1
  Sc  Sc82  1  0.70486569  0.10015334  0.10495909  1
  Sc  Sc83  1  0.09521704  0.69947055  0.49238660  1
  Sc  Sc84  1  0.08974012  0.49846634  0.50066066  1
  Sc  Sc85  1  0.89843435  0.70498566  0.49433503  1
  Sc  Sc86  1  0.70195124  0.90164201  0.70149638  1
  Sc  Sc87  1  0.09678388  0.30439222  0.09543025  1
  Sc  Sc88  1  0.90222073  0.51514670  0.89996105  1
  Sc  Sc89  1  0.10015118  0.89463936  0.29895990  1
  Sc  Sc90  1  0.09740697  0.30480125  0.70283493  1
  Sc  Sc91  1  0.51296341  0.50240680  0.50214038  1
  Sc  Sc92  1  0.09652382  0.90657565  0.91118986  1
  Sc  Sc93  1  0.90074726  0.69033503  0.71131917  1
  Sc  Sc94  1  0.31096526  0.49506006  0.90317218  1
  Sc  Sc95  1  0.70228268  0.10868742  0.88994912  1
  Sc  Sc96  1  0.70275705  0.30748399  0.29387454  1
  Sc  Sc97  1  0.30546947  0.29356537  0.09662367  1
  Sc  Sc98  1  0.08967726  0.10301974  0.71285381  1
  Sc  Sc99  1  0.09982315  0.10231123  0.90849191  1
  Nb  Nb100  1  0.30045290  0.49994491  0.29547711  1
  Nb  Nb101  1  0.49712740  0.29880575  0.49446131  1
  Nb  Nb102  1  0.49861826  0.29471263  0.29568400  1
  Nb  Nb103  1  0.69641466  0.10170965  0.49629774  1
  Nb  Nb104  1  0.10001052  0.50012104  0.10274993  1
  Nb  Nb105  1  0.90383180  0.10939804  0.29719324  1
  Nb  Nb106  1  0.50326152  0.90158606  0.90010818  1
  Nb  Nb107  1  0.10613838  0.09638096  0.09463361  1
  Nb  Nb108  1  0.09184352  0.90968863  0.50434468  1
  Nb  Nb109  1  0.90208196  0.29184402  0.29762021  1
  Nb  Nb110  1  0.49597009  0.69651256  0.30081308  1
  Nb  Nb111  1  0.90446680  0.90134010  0.50181635  1
  Nb  Nb112  1  0.49835083  0.50354991  0.91026320  1
  Nb  Nb113  1  0.30091306  0.69357809  0.09737598  1
  Nb  Nb114  1  0.49815238  0.29840830  0.10214969  1
  Nb  Nb115  1  0.49409037  0.91329326  0.70052496  1
  Nb  Nb116  1  0.90405852  0.69345851  0.09529944  1
  Nb  Nb117  1  0.49883836  0.49471791  0.08933671  1
  Nb  Nb118  1  0.89432824  0.49702405  0.50497123  1
  Nb  Nb119  1  0.29861895  0.09948552  0.09715621  1
  Nb  Nb120  1  0.10808023  0.89656286  0.70004563  1
  Nb  Nb121  1  0.29788543  0.89870639  0.69927248  1
  Nb  Nb122  1  0.69895811  0.69651285  0.69975306  1
  Nb  Nb123  1  0.89869657  0.90004476  0.90031261  1
  Nb  Nb124  1  0.29089517  0.50480810  0.10694146  1
  Nb  Nb125  1  0.59250321  0.19940586  0.00572295  1
  Nb  Nb126  1  0.59923866  0.00232711  -0.00139764  1
  Nb  Nb127  1  0.39519928  0.59430742  0.19844558  1
  Nb  Nb128  1  0.20074528  0.59906812  0.79976638  1
  Nb  Nb129  1  0.80049111  0.19816131  0.39715048  1
  Nb  Nb130  1  0.59876848  0.80256482  0.40082177  1
  Nb  Nb131  1  0.00031025  0.81092528  0.60175762  1
  Nb  Nb132  1  0.40768282  0.80934961  0.79544238  1
  Nb  Nb133  1  0.20001438  0.00448798  0.19360020  1
  Nb  Nb134  1  0.20118322  -0.00732729  0.79831108  1
  Nb  Nb135  1  0.80105743  0.40369047  0.80056852  1
  Nb  Nb136  1  0.59565788  0.80050593  0.60151420  1
  Nb  Nb137  1  0.40255250  0.39814629  0.59637364  1
  Nb  Nb138  1  0.19919156  0.59992124  0.60290773  1
  Nb  Nb139  1  0.60301845  0.00179813  0.40219829  1
  Nb  Nb140  1  0.40172290  0.20091121  0.79851622  1
  Nb  Nb141  1  0.40144584  0.80781677  0.60496979  1
  Nb  Nb142  1  0.40543616  -0.00036994  0.00064395  1
  Nb  Nb143  1  0.79854310  0.59811894  0.59949965  1
  Nb  Nb144  1  -0.00478121  0.19864180  0.59500876  1
  Nb  Nb145  1  0.00148491  0.80862090  0.79873579  1
  Nb  Nb146  1  0.00410967  0.59656106  0.19464034  1
  Nb  Nb147  1  0.39845757  0.59326289  0.38770724  1
  Nb  Nb148  1  0.80002802  -0.00358918  -0.00477666  1
  Nb  Nb149  1  0.60110799  0.20032949  0.39871926  1
  Pd  Pd150  1  0.78855069  0.00021559  0.80529637  1
  Pd  Pd151  1  0.80590572  0.19329251  0.58913359  1
  Pd  Pd152  1  0.19112993  0.01225335  0.60772849  1
  Pd  Pd153  1  0.20194327  0.79887269  0.81290285  1
  Pd  Pd154  1  0.59175000  0.21636356  0.81424021  1
  Pd  Pd155  1  0.20333518  0.40043440  0.00194725  1
  Pd  Pd156  1  0.19186211  0.80602503  0.40435247  1
  Pd  Pd157  1  0.60298930  0.39126956  0.39931058  1
  Pd  Pd158  1  -0.00249985  0.79219809  0.19799397  1
  Pd  Pd159  1  0.20247969  0.38656139  0.19335861  1
  Pd  Pd160  1  0.20159784  0.20119778  0.19706154  1
  Pd  Pd161  1  0.60372867  0.39490403  0.18946942  1
  Pd  Pd162  1  0.00560956  0.00761262  0.60817492  1
  Pd  Pd163  1  0.60042606  0.78940085  0.20336523  1
  Pd  Pd164  1  0.80865913  0.60119593  0.40060281  1
  Pd  Pd165  1  0.20351476  0.60044498  0.40488942  1
  Pd  Pd166  1  0.61163408  -0.00463772  0.80588560  1
  Pd  Pd167  1  0.19962564  0.40683882  0.80787713  1
  Pd  Pd168  1  0.59379717  0.80225984  0.78829057  1
  Pd  Pd169  1  0.20323474  0.19323083  0.80023564  1
  Pd  Pd170  1  0.19151276  0.39599374  0.39921994  1
  Pd  Pd171  1  -0.00826787  0.39692923  0.81106604  1
  Pd  Pd172  1  0.79562282  0.00726320  0.39247217  1
  Pd  Pd173  1  0.39760399  0.40176519  0.19097006  1
  Pd  Pd174  1  0.60092670  0.59359227  0.80892111  1
  Pd  Pd175  1  0.18768205  0.19226613  0.60757335  1
  Pd  Pd176  1  0.79524842  0.19106659  -0.00085821  1
  Pd  Pd177  1  0.00282063  0.40316985  0.39632657  1
  Pd  Pd178  1  0.40907306  0.40728271  0.40438097  1
  Pd  Pd179  1  0.00411025  -0.00062638  0.20241173  1
  Pd  Pd180  1  0.40352043  0.19412252  0.39825387  1
  Pd  Pd181  1  0.00005559  0.80478600  0.40304765  1
  Pd  Pd182  1  -0.00724568  0.59206629  0.39130428  1
  Pd  Pd183  1  0.60617877  0.20523234  0.19863351  1
  Pd  Pd184  1  0.80260462  0.79261216  0.19925890  1
  Pd  Pd185  1  0.79668616  0.01026506  0.60328522  1
  Pd  Pd186  1  0.20280941  0.59141324  -0.01039169  1
  Pd  Pd187  1  0.39129462  0.59793041  0.58784639  1
  Pd  Pd188  1  0.39330603  0.79038983  0.19873508  1
  Pd  Pd189  1  0.59665613  -0.00025252  0.19383502  1
  Pd  Pd190  1  0.80838998  0.80029457  0.79125036  1
  Pd  Pd191  1  0.20221085  0.79960304  -0.00368900  1
  Pd  Pd192  1  0.19884607  0.79412065  0.59012792  1
  Pd  Pd193  1  0.39551447  0.38824249  0.79430472  1
  Pd  Pd194  1  0.80760038  0.40640214  -0.00827571  1
  Pd  Pd195  1  0.40091074  0.01168593  0.40711067  1
  Pd  Pd196  1  0.39460441  0.20728852  0.60796648  1
  Pd  Pd197  1  0.60425036  0.39731112  0.81029494  1
  Pd  Pd198  1  0.80909183  0.79036735  0.61094144  1
  Pd  Pd199  1  -0.00256301  0.60966709  0.59721564  1
  Rh  Rh200  1  0.80187084  0.21144102  0.80370502  1
  Rh  Rh201  1  0.39024472  -0.00233340  0.59119258  1
  Rh  Rh202  1  -0.00115276  0.80082868  -0.00398383  1
  Rh  Rh203  1  0.60432038  0.59907119  0.00169145  1
  Rh  Rh204  1  0.39266287  0.40375965  0.01042185  1
  Rh  Rh205  1  0.79859991  0.20333256  0.20518235  1
  Rh  Rh206  1  0.00146718  0.39228162  0.59714095  1
  Rh  Rh207  1  -0.00003329  0.40480548  0.20190892  1
  Rh  Rh208  1  0.80880159  -0.00038545  0.19342455  1
  Rh  Rh209  1  -0.00321070  0.40133514  -0.00072488  1
  Rh  Rh210  1  0.38787738  -0.00073416  0.19048183  1
  Rh  Rh211  1  0.20438295  0.80496164  0.19791080  1
  Rh  Rh212  1  0.60451587  0.21101593  0.58923477  1
  Rh  Rh213  1  0.78990961  0.58892771  0.79198607  1
  Rh  Rh214  1  0.59870928  0.80199926  0.00927783  1
  Rh  Rh215  1  0.21006804  -0.00165364  0.00212988  1
  Rh  Rh216  1  0.01069478  0.60380842  0.80143362  1
  Rh  Rh217  1  0.59517474  0.60205700  0.38764339  1
  Rh  Rh218  1  0.79694809  0.79739031  0.39021513  1
  Rh  Rh219  1  0.79925779  0.39380843  0.39353404  1
  Rh  Rh220  1  0.80264295  0.41222592  0.61091353  1
  Rh  Rh221  1  0.40004041  0.60834774  0.81254492  1
  Rh  Rh222  1  0.20064363  0.60636638  0.19983629  1
  Rh  Rh223  1  0.20141429  0.20757581  0.39223343  1
  Rh  Rh224  1  0.40394670  0.79326626  0.40385163  1
  Rh  Rh225  1  0.00320795  -0.00659663  0.38909735  1
  Rh  Rh226  1  0.00367840  0.19789828  0.00543818  1
  Rh  Rh227  1  -0.00888988  0.00339777  0.00238487  1
  Rh  Rh228  1  0.39603019  0.59170838  0.00624263  1
  Rh  Rh229  1  0.39338295  0.20400955  0.20453515  1
  Rh  Rh230  1  0.01186954  -0.00762505  0.80494387  1
  Rh  Rh231  1  0.20086250  0.40874035  0.60113719  1
  Rh  Rh232  1  0.00322410  0.59619688  0.00856811  1
  Rh  Rh233  1  0.40646876  0.19318978  -0.00454728  1
  Rh  Rh234  1  0.39121853  0.00195777  0.80818717  1
  Rh  Rh235  1  0.80238087  0.39984894  0.20144910  1
  Rh  Rh236  1  -0.00810503  0.20449122  0.40898710  1
  Rh  Rh237  1  0.81083485  0.59889107  0.19652794  1
  Rh  Rh238  1  0.59284909  0.59841429  0.19559541  1
  Rh  Rh239  1  0.79593998  0.60009528  0.00287008  1
  Rh  Rh240  1  0.40738867  0.80509478  -0.00276961  1
  Rh  Rh241  1  0.59354369  0.39714229  0.59514411  1
  Rh  Rh242  1  0.61242563  -0.01101377  0.59377709  1
  Rh  Rh243  1  0.59840913  0.39430561  0.00598143  1
  Rh  Rh244  1  0.80153984  0.79987511  0.00720548  1
  Rh  Rh245  1  0.60928240  0.60279304  0.60113937  1
  Rh  Rh246  1  -0.00224857  0.20780667  0.79671205  1
  Rh  Rh247  1  0.00733683  0.20018124  0.18955299  1
  Rh  Rh248  1  0.19420590  0.20559426  0.00496402  1
  Rh  Rh249  1  0.19328716  -0.00158454  0.38802179  1
