# generated using pymatgen
data_ZrScNbPdRh
_symmetry_space_group_name_H-M   'P 1'
_cell_length_a   16.56003599
_cell_length_b   16.56223711
_cell_length_c   16.55608538
_cell_angle_alpha   89.98368725
_cell_angle_beta   89.97578560
_cell_angle_gamma   89.98539549
_symmetry_Int_Tables_number   1
_chemical_formula_structural   ZrScNbPdRh
_chemical_formula_sum   'Zr50 Sc50 Nb50 Pd50 Rh50'
_cell_volume   4540.85737443
_cell_formula_units_Z   50
loop_
 _symmetry_equiv_pos_site_id
 _symmetry_equiv_pos_as_xyz
  1  'x, y, z'
loop_
 _atom_site_type_symbol
 _atom_site_label
 _atom_site_symmetry_multiplicity
 _atom_site_fract_x
 _atom_site_fract_y
 _atom_site_fract_z
 _atom_site_occupancy
  Zr  Zr0  1  0.69773828  0.29930682  0.69273377  1
  Zr  Zr1  1  0.90377220  0.89479838  0.10063640  1
  Zr  Zr2  1  0.69426577  0.90096363  0.29247023  1
  Zr  Zr3  1  0.30547848  0.09416666  0.29702469  1
  Zr  Zr4  1  0.09673892  0.09823943  0.50237939  1
  Zr  Zr5  1  0.09426511  0.90512795  0.50053054  1
  Zr  Zr6  1  0.70065603  0.10910433  0.49984521  1
  Zr  Zr7  1  0.89646489  0.29477475  0.50668092  1
  Zr  Zr8  1  0.69876181  0.10355762  0.10637309  1
  Zr  Zr9  1  0.30835303  0.29684601  0.69623658  1
  Zr  Zr10  1  0.30279211  0.91476995  0.70152460  1
  Zr  Zr11  1  0.89923760  0.50301752  0.69543539  1
  Zr  Zr12  1  0.30374785  0.50290052  0.29635878  1
  Zr  Zr13  1  0.30042122  0.69599158  0.29914017  1
  Zr  Zr14  1  0.89840197  0.10806529  0.09238679  1
  Zr  Zr15  1  0.89325375  0.50354401  0.11852115  1
  Zr  Zr16  1  0.09954668  0.90150162  0.29741398  1
  Zr  Zr17  1  0.89457166  0.69120114  0.29867975  1
  Zr  Zr18  1  0.69932498  0.29522052  0.10617772  1
  Zr  Zr19  1  0.10289044  0.30493164  0.09760121  1
  Zr  Zr20  1  0.10714201  0.30914823  0.30063576  1
  Zr  Zr21  1  0.49661813  0.70678338  0.50054534  1
  Zr  Zr22  1  0.10713181  0.50322495  0.50220032  1
  Zr  Zr23  1  0.88833014  0.69508981  0.50135984  1
  Zr  Zr24  1  0.11022127  0.29671939  0.50206162  1
  Zr  Zr25  1  0.50569530  0.89640694  0.10262024  1
  Zr  Zr26  1  0.89625590  0.29822177  0.10323749  1
  Zr  Zr27  1  0.09413549  0.90416281  0.69397406  1
  Zr  Zr28  1  0.70080976  0.09301076  0.70024516  1
  Zr  Zr29  1  0.89748906  0.29917945  0.71203733  1
  Zr  Zr30  1  0.10858258  0.09695030  0.30720782  1
  Zr  Zr31  1  0.30518263  0.70033123  0.71275831  1
  Zr  Zr32  1  0.69149693  0.50491847  0.10068710  1
  Zr  Zr33  1  0.31000283  0.29752424  0.29801242  1
  Zr  Zr34  1  0.50642036  0.89899662  0.90305914  1
  Zr  Zr35  1  0.30331934  0.09774489  0.88576706  1
  Zr  Zr36  1  0.09038464  0.89400442  0.10029119  1
  Zr  Zr37  1  0.50058998  0.70156793  0.09696021  1
  Zr  Zr38  1  0.29855958  0.49883156  0.69599417  1
  Zr  Zr39  1  0.69967472  0.89336582  0.10144379  1
  Zr  Zr40  1  0.09868373  0.70395073  0.49999068  1
  Zr  Zr41  1  0.30507125  0.09701794  0.09878101  1
  Zr  Zr42  1  0.29569884  0.29724285  0.89898854  1
  Zr  Zr43  1  0.90283907  0.31092661  0.29472908  1
  Zr  Zr44  1  0.89576962  0.88920882  0.29534726  1
  Zr  Zr45  1  0.89612390  0.50047645  0.89485216  1
  Zr  Zr46  1  0.30144379  0.50226081  0.50098489  1
  Zr  Zr47  1  0.49839325  0.29686411  0.69611988  1
  Zr  Zr48  1  0.49295723  0.10052661  0.69935364  1
  Zr  Zr49  1  0.69632829  0.29050225  0.30101105  1
  Sc  Sc50  1  0.70158048  0.29655533  0.89870452  1
  Sc  Sc51  1  0.50127329  0.30713420  0.89269190  1
  Sc  Sc52  1  0.90441618  0.89737330  0.50409262  1
  Sc  Sc53  1  0.09843880  0.10894568  0.90012242  1
  Sc  Sc54  1  0.10156380  0.69554902  0.10655009  1
  Sc  Sc55  1  0.50345076  0.29774643  0.50036939  1
  Sc  Sc56  1  0.11014796  0.50101504  0.10508316  1
  Sc  Sc57  1  0.49502012  0.68776219  0.29784959  1
  Sc  Sc58  1  0.08891277  0.69278162  0.69987435  1
  Sc  Sc59  1  0.50654295  0.09728037  0.49959206  1
  Sc  Sc60  1  0.89410133  0.10175504  0.70099932  1
  Sc  Sc61  1  0.89201495  0.89479339  0.69520302  1
  Sc  Sc62  1  0.69096244  0.50365183  0.30168259  1
  Sc  Sc63  1  0.09874638  0.50076890  0.30048128  1
  Sc  Sc64  1  0.69568596  0.90298730  0.50778317  1
  Sc  Sc65  1  0.09341272  0.69745298  0.89994969  1
  Sc  Sc66  1  0.69749067  0.69456858  0.10546087  1
  Sc  Sc67  1  0.89753949  0.09556477  0.50752789  1
  Sc  Sc68  1  0.69819006  0.89868284  0.89006741  1
  Sc  Sc69  1  0.49975612  0.49526145  0.29623930  1
  Sc  Sc70  1  0.30074368  0.69378109  0.10027354  1
  Sc  Sc71  1  0.30180584  0.50149500  0.09557544  1
  Sc  Sc72  1  0.31288619  0.90126646  0.89771024  1
  Sc  Sc73  1  0.70423297  0.71864101  0.69278961  1
  Sc  Sc74  1  0.70392815  0.49068173  0.69471656  1
  Sc  Sc75  1  0.90560145  0.70491109  0.89257390  1
  Sc  Sc76  1  0.50206571  0.48587670  0.70828583  1
  Sc  Sc77  1  0.50257844  0.30458858  0.10499721  1
  Sc  Sc78  1  0.69959249  0.90063512  0.70008094  1
  Sc  Sc79  1  0.50290806  0.49548829  0.49010299  1
  Sc  Sc80  1  0.69392750  0.49896450  0.90326249  1
  Sc  Sc81  1  0.30444632  0.69487674  0.49455066  1
  Sc  Sc82  1  0.30923757  0.89645851  0.10837594  1
  Sc  Sc83  1  0.50238221  0.49928269  0.90658887  1
  Sc  Sc84  1  0.70144447  0.50100388  0.50007125  1
  Sc  Sc85  1  0.50330873  0.09693194  0.29910346  1
  Sc  Sc86  1  0.29679213  0.10600927  0.49914864  1
  Sc  Sc87  1  0.09736126  0.50778389  0.89462445  1
  Sc  Sc88  1  0.09841833  0.09502972  0.10009935  1
  Sc  Sc89  1  0.29797515  0.51238427  0.90272731  1
  Sc  Sc90  1  0.50628231  0.09534649  0.10037398  1
  Sc  Sc91  1  0.89497990  0.10054544  0.29543469  1
  Sc  Sc92  1  0.10345171  0.09992595  0.69904690  1
  Sc  Sc93  1  0.30123466  0.30927637  0.09860836  1
  Sc  Sc94  1  0.09330449  0.29492299  0.89533037  1
  Sc  Sc95  1  0.50285861  0.71519447  0.70598812  1
  Sc  Sc96  1  0.49297780  0.71105146  0.89947204  1
  Sc  Sc97  1  0.50262306  0.90301660  0.69477811  1
  Sc  Sc98  1  0.30573220  0.30078929  0.50278556  1
  Sc  Sc99  1  0.10045670  0.69613380  0.29654246  1
  Nb  Nb100  1  0.30842031  0.10162097  0.70387556  1
  Nb  Nb101  1  0.89609967  0.11243587  0.89759744  1
  Nb  Nb102  1  0.29645338  0.70648488  0.90185528  1
  Nb  Nb103  1  0.30579543  0.90107428  0.30532364  1
  Nb  Nb104  1  0.89944341  0.50029642  0.30777162  1
  Nb  Nb105  1  0.09978762  0.49761686  0.69621804  1
  Nb  Nb106  1  0.70062991  0.09824825  0.89898854  1
  Nb  Nb107  1  0.49613749  0.89509871  0.49192966  1
  Nb  Nb108  1  0.89737142  0.69566234  0.10436366  1
  Nb  Nb109  1  0.69580901  0.09527807  0.30240782  1
  Nb  Nb110  1  0.08982359  0.89364568  0.90451418  1
  Nb  Nb111  1  0.49533813  0.90404594  0.30811892  1
  Nb  Nb112  1  0.89997247  0.29135998  0.90455532  1
  Nb  Nb113  1  0.70283977  0.70223203  0.30960374  1
  Nb  Nb114  1  0.70154572  0.30042605  0.49992655  1
  Nb  Nb115  1  0.31014253  0.89078264  0.49689445  1
  Nb  Nb116  1  0.50501537  0.50365069  0.10471928  1
  Nb  Nb117  1  0.70131445  0.70449265  0.89546797  1
  Nb  Nb118  1  0.89225846  0.69916518  0.69523679  1
  Nb  Nb119  1  0.69644773  0.69894228  0.49823928  1
  Nb  Nb120  1  0.90523240  0.89716657  0.90675247  1
  Nb  Nb121  1  0.50198777  0.30544458  0.29664605  1
  Nb  Nb122  1  0.50532629  0.09718683  0.89973811  1
  Nb  Nb123  1  0.89616253  0.49980405  0.49821109  1
  Nb  Nb124  1  0.09714792  0.30453485  0.69697831  1
  Nb  Nb125  1  -0.00884049  0.40312889  0.00060976  1
  Nb  Nb126  1  0.79166281  0.00043926  0.39525552  1
  Nb  Nb127  1  0.19635087  0.40110540  0.79086883  1
  Nb  Nb128  1  0.20526821  0.80773206  0.40101912  1
  Nb  Nb129  1  0.79479542  0.60730494  0.79463942  1
  Nb  Nb130  1  0.40865929  0.59908642  0.60547186  1
  Nb  Nb131  1  0.19687233  0.80547714  0.80191016  1
  Nb  Nb132  1  0.60015666  0.19139266  0.80088441  1
  Nb  Nb133  1  0.80352307  -0.00009153  -0.00755746  1
  Nb  Nb134  1  0.00267792  0.20235399  0.39735671  1
  Nb  Nb135  1  0.40335074  0.19681180  -0.00707818  1
  Nb  Nb136  1  0.59696370  0.80179672  0.39913046  1
  Nb  Nb137  1  0.19930559  0.80297314  -0.00581418  1
  Nb  Nb138  1  0.20180334  0.19926902  0.20176956  1
  Nb  Nb139  1  0.80401204  0.79882061  -0.00105400  1
  Nb  Nb140  1  0.59847995  0.60520351  0.60398473  1
  Nb  Nb141  1  0.00211805  0.40226661  0.60184545  1
  Nb  Nb142  1  -0.00931889  0.59558133  0.00704887  1
  Nb  Nb143  1  0.20499095  0.80420561  0.60013422  1
  Nb  Nb144  1  0.60722726  0.60666079  0.79544887  1
  Nb  Nb145  1  0.00728302  0.20429794  0.20454544  1
  Nb  Nb146  1  -0.00730258  -0.00254607  0.81037114  1
  Nb  Nb147  1  0.80102196  0.39907708  0.40146885  1
  Nb  Nb148  1  0.19719065  -0.00975425  -0.00495661  1
  Nb  Nb149  1  0.80450360  0.39878974  0.00336209  1
  Pd  Pd150  1  0.21052873  0.40234586  0.39952822  1
  Pd  Pd151  1  0.61076796  -0.00332961  0.00059245  1
  Pd  Pd152  1  0.80200951  0.00295180  0.19682781  1
  Pd  Pd153  1  -0.01587774  0.00514898  0.39560539  1
  Pd  Pd154  1  0.59412094  0.78982324  0.21155517  1
  Pd  Pd155  1  0.80799150  0.19854227  0.39537387  1
  Pd  Pd156  1  0.39977002  0.00855429  0.40773606  1
  Pd  Pd157  1  0.40382547  0.60315222  -0.00140404  1
  Pd  Pd158  1  0.20870416  -0.00663971  0.40958962  1
  Pd  Pd159  1  0.59692297  -0.00110752  0.59803775  1
  Pd  Pd160  1  0.38978652  0.40680536  0.80901647  1
  Pd  Pd161  1  0.59597092  0.40652106  0.59318881  1
  Pd  Pd162  1  -0.00411905  0.00793396  0.20424363  1
  Pd  Pd163  1  0.79175525  0.40144193  0.80769126  1
  Pd  Pd164  1  0.20302756  0.80122445  0.20029277  1
  Pd  Pd165  1  0.39916173  0.00457434  0.58873006  1
  Pd  Pd166  1  0.59475873  0.60982664  -0.01002658  1
  Pd  Pd167  1  0.41481535  0.59632334  0.79937415  1
  Pd  Pd168  1  -0.00342387  0.39695246  0.41239739  1
  Pd  Pd169  1  0.59424015  0.20575098  -0.00610499  1
  Pd  Pd170  1  0.18734476  -0.00557991  0.80914015  1
  Pd  Pd171  1  0.78502336  0.40575859  0.20602806  1
  Pd  Pd172  1  0.79032083  0.81037984  0.40759976  1
  Pd  Pd173  1  -0.00098236  0.20083280  0.60287451  1
  Pd  Pd174  1  0.40362019  0.20043151  0.19049193  1
  Pd  Pd175  1  0.20598667  0.19649102  0.60758401  1
  Pd  Pd176  1  0.00299785  0.79495517  0.39459104  1
  Pd  Pd177  1  0.40866428  0.19699782  0.40315996  1
  Pd  Pd178  1  0.80300146  0.60324413  -0.00774319  1
  Pd  Pd179  1  0.80726087  -0.00581688  0.80562687  1
  Pd  Pd180  1  0.59613492  0.60386176  0.40368100  1
  Pd  Pd181  1  0.40371291  0.39678833  -0.00021978  1
  Pd  Pd182  1  0.59069360  0.20234486  0.39738358  1
  Pd  Pd183  1  -0.00038746  0.01092672  -0.00563646  1
  Pd  Pd184  1  0.39864308  0.00141621  -0.00128653  1
  Pd  Pd185  1  0.20260614  -0.00292834  0.19079360  1
  Pd  Pd186  1  0.39509157  0.79702939  0.60882719  1
  Pd  Pd187  1  0.00225591  0.60179240  0.40101981  1
  Pd  Pd188  1  0.19020821  0.40814385  -0.01507801  1
  Pd  Pd189  1  -0.00140157  0.80283729  0.78942950  1
  Pd  Pd190  1  0.20821074  -0.00011619  0.59248198  1
  Pd  Pd191  1  0.19580411  0.20631634  0.79044633  1
  Pd  Pd192  1  0.40406720  0.79843123  0.20441238  1
  Pd  Pd193  1  0.00416119  0.40083674  0.80189032  1
  Pd  Pd194  1  0.19483255  0.60252495  0.79991330  1
  Pd  Pd195  1  0.20501059  0.19097351  0.00603505  1
  Pd  Pd196  1  0.40142171  0.39837610  0.40088786  1
  Pd  Pd197  1  0.60404193  0.39317652  0.00209523  1
  Pd  Pd198  1  -0.00296494  0.59823620  0.59460570  1
  Pd  Pd199  1  0.20715630  0.61303588  0.60419662  1
  Rh  Rh200  1  -0.00087683  0.78248479  0.00884230  1
  Rh  Rh201  1  0.00475704  0.20564381  0.00588735  1
  Rh  Rh202  1  0.39688218  0.81002178  0.79814184  1
  Rh  Rh203  1  0.80000010  0.80285358  0.59175907  1
  Rh  Rh204  1  0.79032448  0.19985274  -0.00382316  1
  Rh  Rh205  1  0.80456990  0.79866090  0.80483332  1
  Rh  Rh206  1  0.60053790  0.79913026  0.59212054  1
  Rh  Rh207  1  -0.00130613  0.79305841  0.60168546  1
  Rh  Rh208  1  0.80250160  0.19581346  0.20688067  1
  Rh  Rh209  1  -0.00190415  0.78940474  0.20383129  1
  Rh  Rh210  1  0.78848504  0.60272025  0.60439144  1
  Rh  Rh211  1  0.79080706  0.20132495  0.79811645  1
  Rh  Rh212  1  0.20176377  0.20327829  0.39342365  1
  Rh  Rh213  1  0.21044698  0.39946054  0.20419766  1
  Rh  Rh214  1  0.60758918  0.39195738  0.39913643  1
  Rh  Rh215  1  0.59844890  0.40083494  0.20203068  1
  Rh  Rh216  1  0.59438388  0.00027832  0.20029973  1
  Rh  Rh217  1  0.59676092  0.00190949  0.79751280  1
  Rh  Rh218  1  0.40483075  0.40627259  0.19491069  1
  Rh  Rh219  1  0.40635575  0.40643181  0.59343582  1
  Rh  Rh220  1  0.79804256  0.78941777  0.19408273  1
  Rh  Rh221  1  0.78993127  0.60093255  0.21231328  1
  Rh  Rh222  1  0.41005666  0.20025659  0.80667253  1
  Rh  Rh223  1  0.00078612  0.19289272  0.79416930  1
  Rh  Rh224  1  0.19747708  0.60523675  0.39651561  1
  Rh  Rh225  1  0.40191586  0.59491930  0.19079516  1
  Rh  Rh226  1  0.60543472  0.39799507  0.80140209  1
  Rh  Rh227  1  0.59936724  0.60409204  0.20383310  1
  Rh  Rh228  1  -0.00880726  0.00498953  0.61339895  1
  Rh  Rh229  1  0.00721140  0.40449122  0.19349755  1
  Rh  Rh230  1  0.20336986  0.59529544  0.20164129  1
  Rh  Rh231  1  0.00157894  0.59536673  0.20008546  1
  Rh  Rh232  1  0.40110639  0.79526526  0.38807548  1
  Rh  Rh233  1  0.59996782  0.80129718  0.80103660  1
  Rh  Rh234  1  0.59273832  0.19806369  0.20598473  1
  Rh  Rh235  1  0.40843392  -0.00576874  0.20140436  1
  Rh  Rh236  1  0.19165749  0.60946665  0.00005624  1
  Rh  Rh237  1  0.80590656  0.39834644  0.59149211  1
  Rh  Rh238  1  0.60125478  0.19797495  0.60434511  1
  Rh  Rh239  1  -0.00903050  0.60006864  0.79832768  1
  Rh  Rh240  1  0.39281948  0.79858114  0.00436191  1
  Rh  Rh241  1  0.79699631  0.19982290  0.60684684  1
  Rh  Rh242  1  0.60490695  -0.00724288  0.40032368  1
  Rh  Rh243  1  0.79940626  -0.00153091  0.59324915  1
  Rh  Rh244  1  0.60960361  0.79665328  -0.00216418  1
  Rh  Rh245  1  0.41226922  -0.00408305  0.80142867  1
  Rh  Rh246  1  0.40040874  0.19521286  0.59326013  1
  Rh  Rh247  1  0.19782634  0.39647056  0.60408933  1
  Rh  Rh248  1  0.40282185  0.59425930  0.40454876  1
  Rh  Rh249  1  0.79583257  0.59017727  0.39948560  1
