# generated using pymatgen
data_ZrScNbPdRh
_symmetry_space_group_name_H-M   'P 1'
_cell_length_a   16.56258462
_cell_length_b   16.56207518
_cell_length_c   16.56193323
_cell_angle_alpha   90.02389682
_cell_angle_beta   90.02961979
_cell_angle_gamma   90.00177987
_symmetry_Int_Tables_number   1
_chemical_formula_structural   ZrScNbPdRh
_chemical_formula_sum   'Zr50 Sc50 Nb50 Pd50 Rh50'
_cell_volume   4543.11567947
_cell_formula_units_Z   50
loop_
 _symmetry_equiv_pos_site_id
 _symmetry_equiv_pos_as_xyz
  1  'x, y, z'
loop_
 _atom_site_type_symbol
 _atom_site_label
 _atom_site_symmetry_multiplicity
 _atom_site_fract_x
 _atom_site_fract_y
 _atom_site_fract_z
 _atom_site_occupancy
  Zr  Zr0  1  0.69725783  0.70270605  0.10931143  1
  Zr  Zr1  1  0.10474399  0.71395632  0.49801178  1
  Zr  Zr2  1  0.50865135  0.89529124  0.89691620  1
  Zr  Zr3  1  0.49995205  0.49590263  0.49120891  1
  Zr  Zr4  1  0.89341559  0.50009402  0.69399632  1
  Zr  Zr5  1  0.49619274  0.30627398  0.89950158  1
  Zr  Zr6  1  0.89865316  0.70878049  0.50070175  1
  Zr  Zr7  1  0.10152942  0.09943308  0.28745233  1
  Zr  Zr8  1  0.70224763  0.49250451  0.50778410  1
  Zr  Zr9  1  0.50401812  0.90477937  0.49969734  1
  Zr  Zr10  1  0.29609930  0.30304602  0.48970900  1
  Zr  Zr11  1  0.30668792  0.49613041  0.90058243  1
  Zr  Zr12  1  0.10765385  0.48832648  0.50059460  1
  Zr  Zr13  1  0.09344470  0.29594750  0.91026046  1
  Zr  Zr14  1  0.30611135  0.48786560  0.30040568  1
  Zr  Zr15  1  0.89757814  0.69671459  0.10351225  1
  Zr  Zr16  1  0.70270109  0.90278599  0.50960037  1
  Zr  Zr17  1  0.10469065  0.50000359  0.89878462  1
  Zr  Zr18  1  0.69803544  0.69654774  0.29709040  1
  Zr  Zr19  1  0.70640121  0.50034769  0.90751153  1
  Zr  Zr20  1  0.50237899  0.50900900  0.29846467  1
  Zr  Zr21  1  0.29278435  0.09045466  0.09884085  1
  Zr  Zr22  1  0.30072315  0.69988083  0.09900135  1
  Zr  Zr23  1  0.49492426  0.70445130  0.10653936  1
  Zr  Zr24  1  0.10339804  0.49557274  0.69830263  1
  Zr  Zr25  1  0.30215883  0.09885335  0.29946850  1
  Zr  Zr26  1  0.09875010  0.89877662  0.30681412  1
  Zr  Zr27  1  0.70293810  0.70720111  0.69855613  1
  Zr  Zr28  1  0.70619233  0.29288976  0.29620510  1
  Zr  Zr29  1  0.90220459  0.70236755  0.90334178  1
  Zr  Zr30  1  0.30197173  0.29851823  0.70254902  1
  Zr  Zr31  1  0.30363940  0.69857947  0.50602483  1
  Zr  Zr32  1  0.50174761  0.09419904  0.30309502  1
  Zr  Zr33  1  0.89889194  0.50043817  0.90681120  1
  Zr  Zr34  1  0.09658153  0.70345733  0.09779565  1
  Zr  Zr35  1  0.29149344  0.89583209  0.50171023  1
  Zr  Zr36  1  0.70135313  0.10313781  0.89734782  1
  Zr  Zr37  1  0.89477631  0.90301198  0.68974210  1
  Zr  Zr38  1  0.08935358  0.89912866  0.50204676  1
  Zr  Zr39  1  0.29917776  0.30133798  0.90071241  1
  Zr  Zr40  1  0.50126055  0.69959166  0.50669482  1
  Zr  Zr41  1  0.50099957  0.89841072  0.09980870  1
  Zr  Zr42  1  0.70461127  0.70544412  0.89689568  1
  Zr  Zr43  1  0.49725582  0.49303669  0.70159272  1
  Zr  Zr44  1  0.90327197  0.10638023  0.10286390  1
  Zr  Zr45  1  0.29454205  0.50022962  0.70196464  1
  Zr  Zr46  1  0.90137101  0.90212569  0.31414151  1
  Zr  Zr47  1  0.50905513  0.89761468  0.69624925  1
  Zr  Zr48  1  0.49686305  0.28943456  0.70030892  1
  Zr  Zr49  1  0.89432129  0.29961765  0.90794998  1
  Sc  Sc50  1  0.89226280  0.09115325  0.49837547  1
  Sc  Sc51  1  0.30356671  0.89607313  0.70187478  1
  Sc  Sc52  1  0.10156845  0.10027561  0.51043796  1
  Sc  Sc53  1  0.90476922  0.29187016  0.49751592  1
  Sc  Sc54  1  0.49946663  0.10373475  0.88784644  1
  Sc  Sc55  1  0.49804583  0.49470121  0.09927153  1
  Sc  Sc56  1  0.89525892  0.50011253  0.50116426  1
  Sc  Sc57  1  0.69692045  0.10090975  0.49500453  1
  Sc  Sc58  1  0.50399420  0.31159175  0.30839196  1
  Sc  Sc59  1  0.70087289  0.30327087  0.09900229  1
  Sc  Sc60  1  0.89881161  0.11220344  0.89446304  1
  Sc  Sc61  1  0.49305931  0.70951958  0.70406860  1
  Sc  Sc62  1  0.29889435  0.69974469  0.70073998  1
  Sc  Sc63  1  0.10299576  0.10474335  0.09853535  1
  Sc  Sc64  1  0.50759567  0.10147063  0.49152496  1
  Sc  Sc65  1  0.10494437  0.49811973  0.09967143  1
  Sc  Sc66  1  0.30840772  0.69368621  0.28748508  1
  Sc  Sc67  1  0.09823508  0.70431542  0.88885010  1
  Sc  Sc68  1  0.88818233  0.69596133  0.30333137  1
  Sc  Sc69  1  0.10023116  0.90142261  0.11060706  1
  Sc  Sc70  1  0.09552229  0.29933921  0.30464602  1
  Sc  Sc71  1  0.69089538  0.29380762  0.49407119  1
  Sc  Sc72  1  0.10637472  0.89766072  0.69451311  1
  Sc  Sc73  1  0.69230987  0.10882926  0.10544777  1
  Sc  Sc74  1  0.90917336  0.89241498  0.10189102  1
  Sc  Sc75  1  0.69993644  0.09522336  0.69353044  1
  Sc  Sc76  1  0.69957003  0.50418676  0.29902084  1
  Sc  Sc77  1  0.30054550  0.91593441  0.90008712  1
  Sc  Sc78  1  0.49934422  0.90932492  0.29493405  1
  Sc  Sc79  1  0.10101221  0.70136674  0.29444222  1
  Sc  Sc80  1  0.89898826  0.30121612  0.10363533  1
  Sc  Sc81  1  0.10091657  0.29958213  0.50331919  1
  Sc  Sc82  1  0.09599013  0.49103366  0.29885874  1
  Sc  Sc83  1  0.89346943  0.49529960  0.10389119  1
  Sc  Sc84  1  0.69446339  0.29708794  0.68311585  1
  Sc  Sc85  1  0.50675305  0.30503009  0.09516736  1
  Sc  Sc86  1  0.90239049  0.89343802  0.89158620  1
  Sc  Sc87  1  0.70333022  0.50025732  0.10440261  1
  Sc  Sc88  1  0.30373856  0.10196689  0.70308433  1
  Sc  Sc89  1  0.69736454  0.89690714  0.29867484  1
  Sc  Sc90  1  0.30612433  0.90466789  0.29060180  1
  Sc  Sc91  1  0.50324359  0.09382349  0.10607985  1
  Sc  Sc92  1  0.29433526  0.31363465  0.09767296  1
  Sc  Sc93  1  0.30346854  0.10428855  0.49496937  1
  Sc  Sc94  1  0.89736216  0.11117619  0.30332529  1
  Sc  Sc95  1  0.89916632  0.70655683  0.70489518  1
  Sc  Sc96  1  0.30539327  0.69136110  0.89710335  1
  Sc  Sc97  1  0.71124973  0.69637265  0.49737699  1
  Sc  Sc98  1  0.89592531  0.10793697  0.70006549  1
  Sc  Sc99  1  0.09494238  0.29951118  0.09745853  1
  Nb  Nb100  1  0.69491793  0.30304808  0.90400764  1
  Nb  Nb101  1  0.49977754  0.50053126  0.89854667  1
  Nb  Nb102  1  0.09243977  0.29274280  0.69953719  1
  Nb  Nb103  1  0.50504830  0.69970727  0.29871920  1
  Nb  Nb104  1  0.28987084  0.10212878  0.90735951  1
  Nb  Nb105  1  0.29815691  0.50436017  0.10043516  1
  Nb  Nb106  1  0.50190334  0.69398378  0.89930665  1
  Nb  Nb107  1  0.90308230  0.89671647  0.50008389  1
  Nb  Nb108  1  0.10157415  0.90231422  0.90378532  1
  Nb  Nb109  1  0.70097534  0.49797482  0.69841215  1
  Nb  Nb110  1  0.69935019  0.90384782  0.89824476  1
  Nb  Nb111  1  0.49755976  0.10203971  0.69348339  1
  Nb  Nb112  1  0.69762708  0.10169576  0.29852373  1
  Nb  Nb113  1  0.30649972  0.89856637  0.09633895  1
  Nb  Nb114  1  0.10746371  0.09561513  0.90538237  1
  Nb  Nb115  1  0.69448913  0.90466339  0.09751568  1
  Nb  Nb116  1  0.30082614  0.29515232  0.30037438  1
  Nb  Nb117  1  0.90543323  0.29742272  0.70646801  1
  Nb  Nb118  1  0.10131917  0.69504187  0.69893660  1
  Nb  Nb119  1  0.69868383  0.89895317  0.70569752  1
  Nb  Nb120  1  0.29893726  0.49643937  0.50053305  1
  Nb  Nb121  1  0.50692511  0.30378023  0.50322379  1
  Nb  Nb122  1  0.90131889  0.49351964  0.30394901  1
  Nb  Nb123  1  0.09701996  0.10665685  0.70739370  1
  Nb  Nb124  1  0.90047368  0.30370166  0.30068523  1
  Nb  Nb125  1  0.39562335  0.20421511  0.19951218  1
  Nb  Nb126  1  0.79265108  0.80930049  0.00251897  1
  Nb  Nb127  1  -0.00526832  0.39393066  0.79723598  1
  Nb  Nb128  1  0.20210881  0.80592845  -0.00058684  1
  Nb  Nb129  1  0.79935225  -0.00408271  0.00217560  1
  Nb  Nb130  1  0.60251894  0.59559376  0.60811932  1
  Nb  Nb131  1  0.19240388  0.19610673  0.80416337  1
  Nb  Nb132  1  0.80298969  0.39540749  0.39531909  1
  Nb  Nb133  1  0.39434668  0.19733423  0.00343443  1
  Nb  Nb134  1  0.79706300  0.00067247  0.19563439  1
  Nb  Nb135  1  0.59587561  0.60310999  -0.00495017  1
  Nb  Nb136  1  0.60623090  0.40193746  0.80174771  1
  Nb  Nb137  1  0.00589020  0.60390423  0.59792153  1
  Nb  Nb138  1  0.39792906  0.39799189  0.59213355  1
  Nb  Nb139  1  0.59943760  0.59636863  0.80138987  1
  Nb  Nb140  1  0.19675006  -0.00142380  0.39780134  1
  Nb  Nb141  1  0.20178305  0.59529368  0.40173072  1
  Nb  Nb142  1  0.40623926  0.00176205  0.60040780  1
  Nb  Nb143  1  0.00014662  -0.00023865  -0.00713785  1
  Nb  Nb144  1  0.40691192  0.79706080  0.39759776  1
  Nb  Nb145  1  0.00438057  0.59835223  0.40552219  1
  Nb  Nb146  1  0.59565315  0.79636918  0.39987410  1
  Nb  Nb147  1  0.00911954  0.00488141  0.80273405  1
  Nb  Nb148  1  -0.00095904  0.60245047  0.00037134  1
  Nb  Nb149  1  0.79741494  0.39389556  0.79712171  1
  Pd  Pd150  1  0.39591079  0.80279988  0.80818793  1
  Pd  Pd151  1  0.39251661  0.80236346  -0.01153497  1
  Pd  Pd152  1  0.80192589  0.81062292  0.19832258  1
  Pd  Pd153  1  0.21497836  0.79699546  0.38434821  1
  Pd  Pd154  1  -0.00198167  0.59276127  0.79735178  1
  Pd  Pd155  1  0.80813065  -0.00078041  0.80382921  1
  Pd  Pd156  1  0.60427957  0.40258156  0.20310914  1
  Pd  Pd157  1  0.20274513  0.19990712  0.60508197  1
  Pd  Pd158  1  0.79850965  0.59739709  0.79619535  1
  Pd  Pd159  1  0.40968210  0.20620241  0.39542249  1
  Pd  Pd160  1  0.60001232  0.01010189  -0.00304346  1
  Pd  Pd161  1  0.19790485  0.00282621  0.79140379  1
  Pd  Pd162  1  0.18981335  0.19269346  0.39952700  1
  Pd  Pd163  1  0.60832567  0.20465673  0.79422895  1
  Pd  Pd164  1  0.20553041  0.80465527  0.19729615  1
  Pd  Pd165  1  0.19013780  0.38850919  0.80019611  1
  Pd  Pd166  1  0.78673399  0.20981012  0.79239440  1
  Pd  Pd167  1  -0.00431588  0.40056913  0.59904037  1
  Pd  Pd168  1  -0.00290519  0.59362349  0.20262886  1
  Pd  Pd169  1  0.40558142  0.59304303  0.60602527  1
  Pd  Pd170  1  0.79219070  0.00052282  0.39432503  1
  Pd  Pd171  1  0.39277783  0.60466367  0.39656831  1
  Pd  Pd172  1  0.58757527  0.20683912  0.20487732  1
  Pd  Pd173  1  -0.00857729  0.00048711  0.19771159  1
  Pd  Pd174  1  0.80046212  0.20081949  0.59375940  1
  Pd  Pd175  1  0.19944877  0.59266203  0.20781204  1
  Pd  Pd176  1  0.19426802  0.60820729  -0.00608522  1
  Pd  Pd177  1  0.40516680  0.59474568  0.00599431  1
  Pd  Pd178  1  0.40170013  0.00352626  0.79604373  1
  Pd  Pd179  1  -0.00700346  0.19254771  0.59441598  1
  Pd  Pd180  1  0.00471737  0.19384473  0.40295365  1
  Pd  Pd181  1  0.20761151  0.00591975  0.60056863  1
  Pd  Pd182  1  0.60360841  0.79463851  -0.00003759  1
  Pd  Pd183  1  0.59941061  0.00487709  0.79439769  1
  Pd  Pd184  1  0.40327722  0.19920055  0.58737711  1
  Pd  Pd185  1  0.40328753  0.39403196  0.19581084  1
  Pd  Pd186  1  0.20384452  0.20942698  0.19367222  1
  Pd  Pd187  1  0.20580730  0.80000504  0.80582197  1
  Pd  Pd188  1  0.59010974  0.19482372  -0.00069829  1
  Pd  Pd189  1  0.79421519  0.19652215  0.00774256  1
  Pd  Pd190  1  0.80453313  0.38365487  0.59539699  1
  Pd  Pd191  1  0.19542762  0.60325746  0.59525069  1
  Pd  Pd192  1  0.41055889  0.00761199  -0.00465451  1
  Pd  Pd193  1  0.00616881  0.01330444  0.40190426  1
  Pd  Pd194  1  -0.00351273  0.00832765  0.60810566  1
  Pd  Pd195  1  0.00441046  0.80934449  0.79038349  1
  Pd  Pd196  1  0.19493585  0.39573688  0.20307248  1
  Pd  Pd197  1  0.00072545  0.39746609  0.19384773  1
  Pd  Pd198  1  -0.00697015  0.79746208  0.21128130  1
  Pd  Pd199  1  0.60728412  0.60311284  0.40952521  1
  Rh  Rh200  1  0.20489348  0.20661319  0.00157616  1
  Rh  Rh201  1  0.80138768  0.59310726  0.20419976  1
  Rh  Rh202  1  0.19982597  0.79641136  0.60974215  1
  Rh  Rh203  1  0.60030987  0.79612326  0.80096764  1
  Rh  Rh204  1  0.79184815  0.80778779  0.40294050  1
  Rh  Rh205  1  0.39976685  0.00500787  0.19180054  1
  Rh  Rh206  1  -0.00761467  0.40223963  0.40696376  1
  Rh  Rh207  1  0.60218833  0.40829533  -0.00376676  1
  Rh  Rh208  1  0.59792328  0.20088493  0.39435859  1
  Rh  Rh209  1  -0.00091922  0.19015114  0.00068281  1
  Rh  Rh210  1  0.40091897  0.39508847  0.40317894  1
  Rh  Rh211  1  0.39628168  0.81028755  0.59562060  1
  Rh  Rh212  1  0.59706612  0.19169371  0.59574679  1
  Rh  Rh213  1  0.20078076  -0.00681403  0.20130748  1
  Rh  Rh214  1  0.40316144  0.39965519  0.79538797  1
  Rh  Rh215  1  0.00010934  0.20740474  0.20184331  1
  Rh  Rh216  1  0.20009224  0.40546136  0.00182293  1
  Rh  Rh217  1  0.40127726  0.60021698  0.79515476  1
  Rh  Rh218  1  0.80024330  0.40007367  0.20707401  1
  Rh  Rh219  1  0.79836686  0.80980768  0.80256046  1
  Rh  Rh220  1  0.20430942  0.60300100  0.80143392  1
  Rh  Rh221  1  0.19208566  -0.01138949  0.01113814  1
  Rh  Rh222  1  0.60869531  -0.00579825  0.39502442  1
  Rh  Rh223  1  0.00463380  0.80036668  -0.00037996  1
  Rh  Rh224  1  0.80196050  0.60782618  0.60438413  1
  Rh  Rh225  1  0.59422141  0.59544641  0.18898947  1
  Rh  Rh226  1  0.60877919  0.79260345  0.59564798  1
  Rh  Rh227  1  0.79827282  0.00058000  0.60007606  1
  Rh  Rh228  1  0.80208083  0.19648656  0.19986324  1
  Rh  Rh229  1  0.79715619  0.39414667  0.00316406  1
  Rh  Rh230  1  0.40475855  0.80434932  0.20680842  1
  Rh  Rh231  1  0.59443650  0.80693535  0.20721727  1
  Rh  Rh232  1  0.79955124  0.20335221  0.39941861  1
  Rh  Rh233  1  0.19938569  0.40048756  0.39209830  1
  Rh  Rh234  1  0.60830733  -0.00050474  0.20391992  1
  Rh  Rh235  1  0.00032764  0.40980852  0.00080138  1
  Rh  Rh236  1  0.00566263  0.19981574  0.80807506  1
  Rh  Rh237  1  0.38868714  0.19125871  0.81155409  1
  Rh  Rh238  1  0.38903800  -0.01049072  0.41209762  1
  Rh  Rh239  1  0.79838976  0.80277372  0.59920420  1
  Rh  Rh240  1  0.00126025  0.79491071  0.60745931  1
  Rh  Rh241  1  0.40224459  0.59380426  0.19501283  1
  Rh  Rh242  1  0.59159689  0.40162064  0.60345533  1
  Rh  Rh243  1  0.79737706  0.61134545  0.00973245  1
  Rh  Rh244  1  0.61144137  0.40106666  0.39532169  1
  Rh  Rh245  1  0.39712721  0.40023258  0.00410292  1
  Rh  Rh246  1  0.80601393  0.58753408  0.39747321  1
  Rh  Rh247  1  0.20666285  0.38747617  0.60362495  1
  Rh  Rh248  1  0.59795912  0.00613504  0.60445936  1
  Rh  Rh249  1  -0.00601159  0.78913032  0.39326477  1
