# generated using pymatgen
data_ZrScNbPdRh
_symmetry_space_group_name_H-M   'P 1'
_cell_length_a   16.55586351
_cell_length_b   16.55461228
_cell_length_c   16.55641747
_cell_angle_alpha   89.99015557
_cell_angle_beta   90.03068843
_cell_angle_gamma   90.01531805
_symmetry_Int_Tables_number   1
_chemical_formula_structural   ZrScNbPdRh
_chemical_formula_sum   'Zr50 Sc50 Nb50 Pd50 Rh50'
_cell_volume   4537.71416302
_cell_formula_units_Z   50
loop_
 _symmetry_equiv_pos_site_id
 _symmetry_equiv_pos_as_xyz
  1  'x, y, z'
loop_
 _atom_site_type_symbol
 _atom_site_label
 _atom_site_symmetry_multiplicity
 _atom_site_fract_x
 _atom_site_fract_y
 _atom_site_fract_z
 _atom_site_occupancy
  Zr  Zr0  1  0.49860545  0.70506841  0.50184400  1
  Zr  Zr1  1  0.71043272  0.89855900  0.30341628  1
  Zr  Zr2  1  0.69905155  0.70019557  0.10687965  1
  Zr  Zr3  1  0.70062859  0.50146701  0.89632802  1
  Zr  Zr4  1  0.69995417  0.90442053  0.90432758  1
  Zr  Zr5  1  0.90007544  0.29868227  0.49686093  1
  Zr  Zr6  1  0.90181342  0.09780581  0.09878922  1
  Zr  Zr7  1  0.89559931  0.10152542  0.69424478  1
  Zr  Zr8  1  0.90113456  0.30095611  0.69985028  1
  Zr  Zr9  1  0.09784012  0.68949636  0.50223486  1
  Zr  Zr10  1  0.09052930  0.10032771  0.49447257  1
  Zr  Zr11  1  0.30054062  0.09670178  0.10443753  1
  Zr  Zr12  1  0.29628370  0.50667848  0.30213108  1
  Zr  Zr13  1  0.89797977  0.30231594  0.09495476  1
  Zr  Zr14  1  0.50474898  0.09561226  0.10236206  1
  Zr  Zr15  1  0.50020744  0.10191195  0.30256506  1
  Zr  Zr16  1  0.90665662  0.49433904  0.49668576  1
  Zr  Zr17  1  0.09148920  0.71079691  0.69021217  1
  Zr  Zr18  1  0.69623051  0.08696852  0.50511701  1
  Zr  Zr19  1  0.70208475  0.49535150  0.50449985  1
  Zr  Zr20  1  0.10293443  0.90021826  0.51516438  1
  Zr  Zr21  1  0.50382595  0.89528458  0.89820586  1
  Zr  Zr22  1  0.49310300  0.10730510  0.89020900  1
  Zr  Zr23  1  0.88810112  0.90491828  0.49326026  1
  Zr  Zr24  1  0.69891494  0.30022338  0.10279814  1
  Zr  Zr25  1  0.09221634  0.31263932  0.49880521  1
  Zr  Zr26  1  0.30115488  0.29980213  0.69950164  1
  Zr  Zr27  1  0.28906587  0.50362153  0.09651422  1
  Zr  Zr28  1  0.50402865  0.90188240  0.29939393  1
  Zr  Zr29  1  0.28951315  0.90074142  0.68993868  1
  Zr  Zr30  1  0.70117626  0.29935025  0.29616656  1
  Zr  Zr31  1  0.09409269  0.08809328  0.90071801  1
  Zr  Zr32  1  0.09877695  0.50334500  0.31085402  1
  Zr  Zr33  1  0.50548758  0.89882863  0.10219742  1
  Zr  Zr34  1  0.09608079  0.49736229  0.10677995  1
  Zr  Zr35  1  0.30064214  0.29294508  0.50305744  1
  Zr  Zr36  1  0.09395684  0.89250213  0.08982284  1
  Zr  Zr37  1  0.69936110  0.70140296  0.50791254  1
  Zr  Zr38  1  0.89724890  0.49957472  0.10064126  1
  Zr  Zr39  1  0.31548161  0.29858235  0.89700971  1
  Zr  Zr40  1  0.10337377  0.50333906  0.68837786  1
  Zr  Zr41  1  0.50050096  0.49859946  0.70466854  1
  Zr  Zr42  1  0.29993844  0.70412422  0.30445189  1
  Zr  Zr43  1  0.70397927  0.69634361  0.70180853  1
  Zr  Zr44  1  0.50525640  0.69680022  0.70005406  1
  Zr  Zr45  1  0.90836487  0.89688035  0.69649874  1
  Zr  Zr46  1  0.29917574  0.30280269  0.09712651  1
  Zr  Zr47  1  0.49764703  0.89327238  0.70028867  1
  Zr  Zr48  1  0.90023247  0.49176126  0.90234830  1
  Zr  Zr49  1  0.09893000  0.08254565  0.69956914  1
  Sc  Sc50  1  0.09226153  0.90509673  0.30343453  1
  Sc  Sc51  1  0.70116098  0.49562670  0.09594732  1
  Sc  Sc52  1  0.88831468  0.49963365  0.70297242  1
  Sc  Sc53  1  0.70082901  0.10637622  0.69777617  1
  Sc  Sc54  1  0.29612275  0.09573840  0.30110341  1
  Sc  Sc55  1  0.50742696  0.29236134  0.70684026  1
  Sc  Sc56  1  0.70476137  0.10118781  0.29850475  1
  Sc  Sc57  1  0.90222400  0.69404094  0.10938581  1
  Sc  Sc58  1  0.30285718  0.49718622  0.89383706  1
  Sc  Sc59  1  0.90218708  0.70403676  0.50628617  1
  Sc  Sc60  1  0.10260376  0.30578017  0.69333361  1
  Sc  Sc61  1  0.09773368  0.10438718  0.10581030  1
  Sc  Sc62  1  0.30336690  0.69160477  0.69646935  1
  Sc  Sc63  1  0.89131284  0.10119424  0.91001215  1
  Sc  Sc64  1  0.10654538  0.70052297  0.09539135  1
  Sc  Sc65  1  0.31073443  0.10635916  0.50583421  1
  Sc  Sc66  1  0.09456161  0.30168871  0.10481490  1
  Sc  Sc67  1  0.89859783  0.10244955  0.49827757  1
  Sc  Sc68  1  0.30219634  0.49966979  0.70462164  1
  Sc  Sc69  1  0.51129682  0.50772402  0.49711614  1
  Sc  Sc70  1  0.09397222  0.09993217  0.29946011  1
  Sc  Sc71  1  0.49539524  0.70295952  0.31000237  1
  Sc  Sc72  1  0.89766511  0.29499928  0.29713281  1
  Sc  Sc73  1  0.29786378  0.89502632  0.11096671  1
  Sc  Sc74  1  0.89892586  0.69110289  0.90404914  1
  Sc  Sc75  1  0.09210041  0.30942985  0.90315921  1
  Sc  Sc76  1  0.90839487  0.90723139  0.90834805  1
  Sc  Sc77  1  0.70196358  0.30375263  0.89718482  1
  Sc  Sc78  1  0.30335021  0.90242761  0.29938098  1
  Sc  Sc79  1  0.30062912  0.29513455  0.30410738  1
  Sc  Sc80  1  0.30728662  0.09859200  0.70220100  1
  Sc  Sc81  1  0.90018937  0.71433791  0.29521980  1
  Sc  Sc82  1  0.70529970  0.09772416  0.90164711  1
  Sc  Sc83  1  0.69711322  0.30131659  0.69842801  1
  Sc  Sc84  1  0.69400869  0.90134806  0.10403045  1
  Sc  Sc85  1  0.90041593  0.50147210  0.28922776  1
  Sc  Sc86  1  0.50672618  0.69615075  0.89111085  1
  Sc  Sc87  1  0.70248395  0.90007660  0.69005596  1
  Sc  Sc88  1  0.70429039  0.09894292  0.09255449  1
  Sc  Sc89  1  0.09019244  0.30126155  0.29927043  1
  Sc  Sc90  1  0.30511853  0.69946360  0.50071772  1
  Sc  Sc91  1  0.30098111  0.89905057  0.88694456  1
  Sc  Sc92  1  0.69516363  0.69417120  0.89753812  1
  Sc  Sc93  1  0.50574803  0.49490313  0.89949430  1
  Sc  Sc94  1  0.50987851  0.30019636  0.29404303  1
  Sc  Sc95  1  0.10493596  0.50491597  0.90516066  1
  Sc  Sc96  1  0.29129825  0.68999093  0.89993484  1
  Sc  Sc97  1  0.69668213  0.49327058  0.29859969  1
  Sc  Sc98  1  0.29017380  0.50696293  0.49706777  1
  Sc  Sc99  1  0.50527649  0.30845791  0.09515439  1
  Nb  Nb100  1  0.50745378  0.90418497  0.50227019  1
  Nb  Nb101  1  0.09717420  0.89705631  0.89388224  1
  Nb  Nb102  1  0.69610033  0.90112603  0.49956681  1
  Nb  Nb103  1  0.69606626  0.30149936  0.49400615  1
  Nb  Nb104  1  0.50493209  0.50260835  0.10080483  1
  Nb  Nb105  1  0.30519607  0.89760455  0.49808508  1
  Nb  Nb106  1  0.90226974  0.30118686  0.90030690  1
  Nb  Nb107  1  0.10081316  0.70592421  0.30859961  1
  Nb  Nb108  1  0.49504118  0.28902658  0.49819501  1
  Nb  Nb109  1  0.89976937  0.89359908  0.10921089  1
  Nb  Nb110  1  0.49622417  0.50213566  0.29903792  1
  Nb  Nb111  1  0.50362834  0.70020181  0.09937762  1
  Nb  Nb112  1  0.29931847  0.09968610  0.89976452  1
  Nb  Nb113  1  0.50842460  0.10289872  0.69446934  1
  Nb  Nb114  1  0.50354159  0.10255051  0.50599580  1
  Nb  Nb115  1  0.70199589  0.70061009  0.29858730  1
  Nb  Nb116  1  0.69561708  0.50380841  0.69859939  1
  Nb  Nb117  1  0.09503946  0.50178021  0.49584889  1
  Nb  Nb118  1  0.30227729  0.70049348  0.10067704  1
  Nb  Nb119  1  0.89855353  0.70510909  0.70537040  1
  Nb  Nb120  1  0.90712418  0.09156194  0.30329862  1
  Nb  Nb121  1  0.09674662  0.89909035  0.70440717  1
  Nb  Nb122  1  0.90000021  0.90556121  0.29272909  1
  Nb  Nb123  1  0.09706209  0.70568170  0.89674735  1
  Nb  Nb124  1  0.50502125  0.29987187  0.89584424  1
  Nb  Nb125  1  0.40410332  0.60405269  0.00867090  1
  Nb  Nb126  1  0.40848164  -0.00103176  0.40889304  1
  Nb  Nb127  1  0.39727710  -0.00443017  -0.00170501  1
  Nb  Nb128  1  0.20330051  0.19585888  -0.00757467  1
  Nb  Nb129  1  0.40507609  0.39899652  0.40116675  1
  Nb  Nb130  1  0.60017392  0.19887223  0.40836766  1
  Nb  Nb131  1  0.79718788  0.60205121  0.39825108  1
  Nb  Nb132  1  0.40125948  0.40634591  0.20216800  1
  Nb  Nb133  1  0.40261351  0.60069166  0.19497006  1
  Nb  Nb134  1  0.59556474  0.20293294  -0.00589903  1
  Nb  Nb135  1  -0.00049321  0.19955631  0.80119841  1
  Nb  Nb136  1  0.40568101  0.39520502  0.59157554  1
  Nb  Nb137  1  0.19501083  0.19530368  0.80622607  1
  Nb  Nb138  1  0.19851462  0.80302270  0.40577499  1
  Nb  Nb139  1  0.59360623  0.60092702  0.20154724  1
  Nb  Nb140  1  0.60558605  0.80548165  0.40435124  1
  Nb  Nb141  1  0.19480292  0.20028311  0.40620333  1
  Nb  Nb142  1  0.18867967  0.80108043  0.79573050  1
  Nb  Nb143  1  0.59621292  0.00184877  0.79519881  1
  Nb  Nb144  1  0.80116309  0.80126454  0.00263123  1
  Nb  Nb145  1  0.40162216  0.20466374  0.19648086  1
  Nb  Nb146  1  0.40028290  0.79559420  0.00320846  1
  Nb  Nb147  1  0.20298267  -0.00125591  -0.00479084  1
  Nb  Nb148  1  0.80528603  0.80019702  0.80391391  1
  Nb  Nb149  1  0.00125189  0.60497992  0.79754541  1
  Pd  Pd150  1  0.20619975  0.01099304  0.59096380  1
  Pd  Pd151  1  0.79395533  0.39767538  0.79724015  1
  Pd  Pd152  1  0.79213277  0.20443385  0.59268119  1
  Pd  Pd153  1  0.21052309  0.80534115  -0.01047319  1
  Pd  Pd154  1  0.60299607  0.79234335  -0.00385719  1
  Pd  Pd155  1  -0.01563347  0.00557766  0.80185061  1
  Pd  Pd156  1  0.38805202  0.78657602  0.80427712  1
  Pd  Pd157  1  0.80648254  0.59858831  0.59571457  1
  Pd  Pd158  1  0.79849655  -0.00638120  0.79512256  1
  Pd  Pd159  1  0.61130401  0.00438273  0.20492045  1
  Pd  Pd160  1  0.79675495  0.00279522  0.19649444  1
  Pd  Pd161  1  0.80262407  0.20316993  0.80536497  1
  Pd  Pd162  1  0.60689641  0.60663974  0.39453008  1
  Pd  Pd163  1  0.00537237  0.20111530  -0.00440313  1
  Pd  Pd164  1  0.20445972  0.39273487  0.39915851  1
  Pd  Pd165  1  0.19674360  0.39443177  0.80445045  1
  Pd  Pd166  1  0.00864325  0.60905399  0.20693414  1
  Pd  Pd167  1  0.40495062  0.79576383  0.19847559  1
  Pd  Pd168  1  0.19060885  0.19191139  0.60300570  1
  Pd  Pd169  1  0.59331133  0.39492925  0.39982989  1
  Pd  Pd170  1  0.80580081  0.40542653  0.39163870  1
  Pd  Pd171  1  0.00566749  0.40526239  0.79404239  1
  Pd  Pd172  1  0.40528705  0.41040422  0.00224577  1
  Pd  Pd173  1  0.79628018  0.60505169  0.00187675  1
  Pd  Pd174  1  -0.01113283  0.79230191  0.00024688  1
  Pd  Pd175  1  0.00660285  0.20002077  0.60711612  1
  Pd  Pd176  1  0.80545157  0.19352724  0.19856165  1
  Pd  Pd177  1  0.39770290  0.79891448  0.60141354  1
  Pd  Pd178  1  0.00548789  -0.00115424  0.19478005  1
  Pd  Pd179  1  -0.01452350  0.60515275  0.39111285  1
  Pd  Pd180  1  0.79926532  0.39522450  0.60184373  1
  Pd  Pd181  1  -0.01204544  0.59427968  0.60844861  1
  Pd  Pd182  1  0.40417422  0.19539520  0.00757194  1
  Pd  Pd183  1  0.40106105  0.58830135  0.59479888  1
  Pd  Pd184  1  0.20744265  0.00139914  0.40721016  1
  Pd  Pd185  1  0.19156017  0.60734854  0.79331506  1
  Pd  Pd186  1  0.59233215  0.39416060  0.60188436  1
  Pd  Pd187  1  0.00397906  0.80730384  0.40535036  1
  Pd  Pd188  1  0.20904497  0.40704312  0.59540433  1
  Pd  Pd189  1  0.20100832  0.39376226  0.20978932  1
  Pd  Pd190  1  0.19579000  0.60885420  0.20264682  1
  Pd  Pd191  1  0.40444498  -0.00001576  0.59809738  1
  Pd  Pd192  1  0.79475805  0.19243664  0.40280083  1
  Pd  Pd193  1  0.19818354  0.39452604  -0.00720497  1
  Pd  Pd194  1  0.19156892  0.80322154  0.20953901  1
  Pd  Pd195  1  0.18947221  -0.00790938  0.19440501  1
  Pd  Pd196  1  0.40327773  -0.00050256  0.79718392  1
  Pd  Pd197  1  0.00493889  0.60051886  -0.00248035  1
  Pd  Pd198  1  0.20087439  0.20494029  0.20534813  1
  Pd  Pd199  1  0.79815990  0.79297881  0.40178991  1
  Rh  Rh200  1  -0.00007396  0.40414351  0.00496243  1
  Rh  Rh201  1  0.40606110  0.39791998  0.79225942  1
  Rh  Rh202  1  -0.00669649  0.80516565  0.59165297  1
  Rh  Rh203  1  0.39874728  0.59325783  0.40144606  1
  Rh  Rh204  1  0.60830082  0.19248979  0.80655268  1
  Rh  Rh205  1  0.60035276  0.59409789  0.79783672  1
  Rh  Rh206  1  0.59870126  0.59884378  0.00332609  1
  Rh  Rh207  1  0.59704101  0.00158416  0.39836400  1
  Rh  Rh208  1  -0.00385495  0.79562342  0.80764719  1
  Rh  Rh209  1  0.40232008  0.81171911  0.40304159  1
  Rh  Rh210  1  0.40727488  0.20428035  0.61142339  1
  Rh  Rh211  1  0.60321798  0.39575796  -0.00400881  1
  Rh  Rh212  1  0.80621626  -0.01227643  0.01210539  1
  Rh  Rh213  1  0.80246310  0.00593096  0.39586323  1
  Rh  Rh214  1  0.80222754  -0.00119387  0.60109731  1
  Rh  Rh215  1  -0.00818863  0.19861712  0.20178961  1
  Rh  Rh216  1  0.80299792  0.80257490  0.60539256  1
  Rh  Rh217  1  0.59721249  0.19747763  0.19498042  1
  Rh  Rh218  1  -0.00698651  0.40043666  0.39064968  1
  Rh  Rh219  1  0.00595462  0.79865900  0.20055505  1
  Rh  Rh220  1  0.59956028  0.40753323  0.19827999  1
  Rh  Rh221  1  0.60009869  0.80034501  0.59863266  1
  Rh  Rh222  1  0.60017878  0.59918677  0.60361853  1
  Rh  Rh223  1  0.58938242  0.01376599  -0.01396953  1
  Rh  Rh224  1  0.19970793  0.61024388  0.40281816  1
  Rh  Rh225  1  0.20531605  0.79346589  0.59798334  1
  Rh  Rh226  1  0.20257219  -0.00418824  0.80254079  1
  Rh  Rh227  1  0.00147650  -0.00161289  0.00836339  1
  Rh  Rh228  1  -0.00779254  -0.00237017  0.59349370  1
  Rh  Rh229  1  -0.00541458  0.40619468  0.60505411  1
  Rh  Rh230  1  -0.00568596  -0.00557661  0.40238460  1
  Rh  Rh231  1  0.79960756  0.40085526  0.19871305  1
  Rh  Rh232  1  0.19893121  0.60115363  -0.00116399  1
  Rh  Rh233  1  0.60545203  0.20453180  0.59312694  1
  Rh  Rh234  1  0.39684963  0.20132313  0.79107530  1
  Rh  Rh235  1  0.80467028  0.60389943  0.80044508  1
  Rh  Rh236  1  0.59792385  0.79354805  0.21321116  1
  Rh  Rh237  1  0.79284455  0.20824551  -0.00251777  1
  Rh  Rh238  1  0.79920044  0.39696892  -0.00234534  1
  Rh  Rh239  1  0.78852435  0.59681362  0.20765252  1
  Rh  Rh240  1  0.61496110  0.80813681  0.79467898  1
  Rh  Rh241  1  0.60373296  0.40205018  0.79792058  1
  Rh  Rh242  1  0.59718309  -0.00331749  0.60977665  1
  Rh  Rh243  1  0.80023199  0.80162341  0.19432675  1
  Rh  Rh244  1  0.40168351  0.19706619  0.39004568  1
  Rh  Rh245  1  -0.00299943  0.39985469  0.20086248  1
  Rh  Rh246  1  0.40310459  0.59941267  0.81003154  1
  Rh  Rh247  1  0.20186708  0.60079837  0.59925360  1
  Rh  Rh248  1  0.00059404  0.20041700  0.39488979  1
  Rh  Rh249  1  0.40047375  0.00538203  0.20471764  1
