# generated using pymatgen
data_ZrScNbPdRh
_symmetry_space_group_name_H-M   'P 1'
_cell_length_a   16.55363601
_cell_length_b   16.55371929
_cell_length_c   16.55378302
_cell_angle_alpha   89.99995743
_cell_angle_beta   89.98067295
_cell_angle_gamma   89.98845801
_symmetry_Int_Tables_number   1
_chemical_formula_structural   ZrScNbPdRh
_chemical_formula_sum   'Zr50 Sc50 Nb50 Pd50 Rh50'
_cell_volume   4536.13752335
_cell_formula_units_Z   50
loop_
 _symmetry_equiv_pos_site_id
 _symmetry_equiv_pos_as_xyz
  1  'x, y, z'
loop_
 _atom_site_type_symbol
 _atom_site_label
 _atom_site_symmetry_multiplicity
 _atom_site_fract_x
 _atom_site_fract_y
 _atom_site_fract_z
 _atom_site_occupancy
  Zr  Zr0  1  0.69535066  0.30104161  0.09959179  1
  Zr  Zr1  1  0.10304280  0.29395527  0.29788144  1
  Zr  Zr2  1  0.90831004  0.49917171  0.89549735  1
  Zr  Zr3  1  0.89518019  0.50665298  0.49932901  1
  Zr  Zr4  1  0.29675451  0.10232219  0.30535505  1
  Zr  Zr5  1  0.50045139  0.90130577  0.69943748  1
  Zr  Zr6  1  0.30772060  0.90241719  0.29295772  1
  Zr  Zr7  1  0.09253250  0.49777743  0.50275622  1
  Zr  Zr8  1  0.50629784  0.69629227  0.09028922  1
  Zr  Zr9  1  0.90750433  0.69747174  0.89505123  1
  Zr  Zr10  1  0.89749459  0.30819393  0.50004375  1
  Zr  Zr11  1  0.09755871  0.08686158  0.49452821  1
  Zr  Zr12  1  0.50158253  0.29958645  0.10040680  1
  Zr  Zr13  1  0.10490591  0.29810431  0.10192245  1
  Zr  Zr14  1  0.69998125  0.89734397  0.29664147  1
  Zr  Zr15  1  0.70123976  0.89379708  0.69366875  1
  Zr  Zr16  1  0.90491170  0.89624144  0.50433142  1
  Zr  Zr17  1  0.50416070  0.89584107  0.90359809  1
  Zr  Zr18  1  0.09578886  0.90739486  0.30639324  1
  Zr  Zr19  1  0.49879572  0.29623675  0.49367333  1
  Zr  Zr20  1  0.49668127  0.10244252  0.10052150  1
  Zr  Zr21  1  0.30078764  0.49915229  0.89818466  1
  Zr  Zr22  1  0.90014356  0.49775299  0.31172159  1
  Zr  Zr23  1  0.49353300  0.89327377  0.11067156  1
  Zr  Zr24  1  0.29559827  0.09925869  0.09840658  1
  Zr  Zr25  1  0.50293714  0.10254869  0.89454305  1
  Zr  Zr26  1  0.09240446  0.10513393  0.10601333  1
  Zr  Zr27  1  0.49762432  0.49926213  0.09089483  1
  Zr  Zr28  1  0.10779686  0.29783408  0.70172306  1
  Zr  Zr29  1  0.89492891  0.29420662  0.70299920  1
  Zr  Zr30  1  0.90310624  0.69667154  0.50718486  1
  Zr  Zr31  1  0.88573276  0.50836363  0.69665448  1
  Zr  Zr32  1  0.69727542  0.29199239  0.89211942  1
  Zr  Zr33  1  0.30386827  0.49949934  0.29866694  1
  Zr  Zr34  1  0.89699355  0.91047241  0.10068318  1
  Zr  Zr35  1  0.10177808  0.70208876  0.10271606  1
  Zr  Zr36  1  0.09945362  0.30775083  0.90044712  1
  Zr  Zr37  1  0.90332456  0.71451907  0.09584155  1
  Zr  Zr38  1  0.70238046  0.10817149  0.69824016  1
  Zr  Zr39  1  0.89903248  0.70378857  0.30697847  1
  Zr  Zr40  1  0.29573225  0.09793565  0.89279784  1
  Zr  Zr41  1  0.50682279  0.70032584  0.70218107  1
  Zr  Zr42  1  0.29652950  0.70389112  0.49938457  1
  Zr  Zr43  1  0.49178990  0.30375776  0.68700963  1
  Zr  Zr44  1  0.90400083  0.29781140  0.89367406  1
  Zr  Zr45  1  0.49932875  0.30064807  0.90715472  1
  Zr  Zr46  1  0.30090445  0.49253184  0.70339795  1
  Zr  Zr47  1  0.29479552  0.89454203  0.09598984  1
  Zr  Zr48  1  0.09743548  0.70638118  0.50578061  1
  Zr  Zr49  1  0.70419695  0.50075567  0.30172737  1
  Sc  Sc50  1  0.70244225  0.51018907  0.88558761  1
  Sc  Sc51  1  0.09541755  0.89990559  0.09128944  1
  Sc  Sc52  1  0.09865917  0.10129447  0.29889556  1
  Sc  Sc53  1  0.29893318  0.09319830  0.50246741  1
  Sc  Sc54  1  0.10183048  0.09893257  0.89917388  1
  Sc  Sc55  1  0.89218477  0.30477085  0.30528372  1
  Sc  Sc56  1  0.70098313  0.89901384  0.90197638  1
  Sc  Sc57  1  0.70560284  0.71007056  0.50102801  1
  Sc  Sc58  1  0.10619241  0.50051122  0.30169462  1
  Sc  Sc59  1  0.50030125  0.49170430  0.30807232  1
  Sc  Sc60  1  0.49634309  0.70018961  0.50315645  1
  Sc  Sc61  1  0.91364281  0.90197494  0.91196945  1
  Sc  Sc62  1  0.70155758  0.71086424  0.30159090  1
  Sc  Sc63  1  0.69073666  0.70172827  0.90051259  1
  Sc  Sc64  1  0.69542286  0.28683415  0.50045603  1
  Sc  Sc65  1  0.48756536  0.09822223  0.29626678  1
  Sc  Sc66  1  0.91235442  0.29650877  0.09537571  1
  Sc  Sc67  1  0.70950837  0.89532887  0.49749457  1
  Sc  Sc68  1  0.29454514  0.70048560  0.70512483  1
  Sc  Sc69  1  0.90523303  0.09000513  0.29489979  1
  Sc  Sc70  1  0.10347145  0.50061781  0.70742260  1
  Sc  Sc71  1  0.70184293  0.69325307  0.70265138  1
  Sc  Sc72  1  0.69070061  0.30149147  0.30143600  1
  Sc  Sc73  1  0.88981264  0.08760977  0.49668421  1
  Sc  Sc74  1  0.70197087  0.08759487  0.10596808  1
  Sc  Sc75  1  0.30165736  0.49409465  0.09808071  1
  Sc  Sc76  1  0.49131306  0.09991646  0.70022095  1
  Sc  Sc77  1  0.10485367  0.48971905  0.09728537  1
  Sc  Sc78  1  0.10595228  0.29938648  0.50801387  1
  Sc  Sc79  1  0.29442837  0.69697237  0.29886585  1
  Sc  Sc80  1  0.70645741  0.09611840  0.30249742  1
  Sc  Sc81  1  0.49695917  0.89389120  0.50953187  1
  Sc  Sc82  1  0.10387010  0.89827110  0.50462720  1
  Sc  Sc83  1  0.49256699  0.50960446  0.90243030  1
  Sc  Sc84  1  0.50038557  0.50302326  0.50676703  1
  Sc  Sc85  1  0.10214963  0.09313920  0.70811890  1
  Sc  Sc86  1  0.30643495  0.50928586  0.49645886  1
  Sc  Sc87  1  0.10475471  0.70831541  0.30033440  1
  Sc  Sc88  1  0.30082671  0.69889136  0.90141383  1
  Sc  Sc89  1  0.70383311  0.30058002  0.69041422  1
  Sc  Sc90  1  0.49304553  0.10543935  0.49889899  1
  Sc  Sc91  1  0.29823314  0.90702152  0.69474270  1
  Sc  Sc92  1  0.90370899  0.49359889  0.09732921  1
  Sc  Sc93  1  0.09765789  0.89833893  0.70012968  1
  Sc  Sc94  1  0.09534031  0.70197231  0.89044121  1
  Sc  Sc95  1  0.89727577  0.89977996  0.30046901  1
  Sc  Sc96  1  0.30192289  0.70547552  0.10372100  1
  Sc  Sc97  1  0.68814916  0.49902767  0.10248991  1
  Sc  Sc98  1  0.09470046  0.70293611  0.70399457  1
  Sc  Sc99  1  0.29772727  0.30432146  0.10043254  1
  Nb  Nb100  1  0.69899401  0.09927688  0.89575204  1
  Nb  Nb101  1  0.11186895  0.90578143  0.89975066  1
  Nb  Nb102  1  0.29233168  0.29984722  0.69547669  1
  Nb  Nb103  1  0.30170410  0.30090847  0.30479110  1
  Nb  Nb104  1  0.50621866  0.50249574  0.69807683  1
  Nb  Nb105  1  0.70452577  0.69706010  0.09710757  1
  Nb  Nb106  1  0.50259859  0.89271469  0.30183432  1
  Nb  Nb107  1  0.69279022  0.09444998  0.49670799  1
  Nb  Nb108  1  0.50407952  0.70456630  0.30160650  1
  Nb  Nb109  1  0.90618758  0.09828710  0.70454624  1
  Nb  Nb110  1  0.29739314  0.90142391  0.90473977  1
  Nb  Nb111  1  0.69143830  0.50389337  0.69362335  1
  Nb  Nb112  1  0.70305847  0.89374821  0.10046723  1
  Nb  Nb113  1  0.48921926  0.29483083  0.30440687  1
  Nb  Nb114  1  0.89868943  0.10036741  0.89808794  1
  Nb  Nb115  1  0.29564547  0.30034122  0.50940821  1
  Nb  Nb116  1  0.90632186  0.70544536  0.70102381  1
  Nb  Nb117  1  0.10135651  0.50308336  0.90114335  1
  Nb  Nb118  1  0.29737327  0.30266522  0.89171753  1
  Nb  Nb119  1  0.90217879  0.90212996  0.69888774  1
  Nb  Nb120  1  0.30003275  0.89939981  0.50154376  1
  Nb  Nb121  1  0.49797717  0.70170458  0.90564604  1
  Nb  Nb122  1  0.70698842  0.50901224  0.50628772  1
  Nb  Nb123  1  0.29841985  0.10671441  0.70451533  1
  Nb  Nb124  1  0.90154025  0.09996071  0.09848413  1
  Nb  Nb125  1  -0.00353725  0.19552767  0.60034531  1
  Nb  Nb126  1  0.19822955  0.60051716  0.60002007  1
  Nb  Nb127  1  0.19605665  0.59725117  -0.00432057  1
  Nb  Nb128  1  0.59722541  -0.00282417  0.00365753  1
  Nb  Nb129  1  0.80107324  0.19466869  -0.00077473  1
  Nb  Nb130  1  0.40082125  -0.00190301  -0.00309325  1
  Nb  Nb131  1  -0.00227314  0.20051842  0.40743592  1
  Nb  Nb132  1  0.39994982  0.80218867  0.39677865  1
  Nb  Nb133  1  0.81068094  0.80521139  0.79651548  1
  Nb  Nb134  1  0.80610140  0.00149319  0.79905736  1
  Nb  Nb135  1  0.60344394  0.60244234  0.40082252  1
  Nb  Nb136  1  -0.00440957  0.59773283  0.20040758  1
  Nb  Nb137  1  0.20819258  0.39415477  0.40263819  1
  Nb  Nb138  1  0.80399383  0.19895333  0.19116141  1
  Nb  Nb139  1  -0.00552774  0.39686122  0.60382779  1
  Nb  Nb140  1  0.40290529  0.80293001  0.80613601  1
  Nb  Nb141  1  0.00080441  0.40081461  0.20604910  1
  Nb  Nb142  1  0.79867977  0.39770900  -0.00516728  1
  Nb  Nb143  1  0.40919474  0.60070483  0.20217084  1
  Nb  Nb144  1  0.60337571  0.00401757  0.59572054  1
  Nb  Nb145  1  0.80119511  0.59944236  0.00395346  1
  Nb  Nb146  1  0.20012142  -0.00067620  0.19819962  1
  Nb  Nb147  1  0.59486329  0.40569916  0.78908443  1
  Nb  Nb148  1  0.80399227  0.60359068  0.19490173  1
  Nb  Nb149  1  0.59627384  -0.00609010  0.40147085  1
  Pd  Pd150  1  0.00195562  0.80338277  0.20290483  1
  Pd  Pd151  1  0.80666986  0.39730524  0.19073417  1
  Pd  Pd152  1  0.60983991  0.18728089  0.00660174  1
  Pd  Pd153  1  0.20592239  0.80519019  0.79836964  1
  Pd  Pd154  1  0.59852216  0.00101256  0.20404645  1
  Pd  Pd155  1  0.60474929  0.61058486  0.59083951  1
  Pd  Pd156  1  0.39359106  0.19492834  0.59714942  1
  Pd  Pd157  1  0.39368170  0.79708539  0.60542824  1
  Pd  Pd158  1  0.39505311  0.39737010  0.41032473  1
  Pd  Pd159  1  0.00081770  0.40428914  0.78916850  1
  Pd  Pd160  1  0.19383920  0.18533850  0.59914266  1
  Pd  Pd161  1  0.00313808  0.59801467  0.00829121  1
  Pd  Pd162  1  0.60925586  -0.00065558  0.79608635  1
  Pd  Pd163  1  0.60146130  0.60260092  0.20918950  1
  Pd  Pd164  1  -0.00044069  0.19472785  -0.00844257  1
  Pd  Pd165  1  0.40591722  0.40175910  0.19910097  1
  Pd  Pd166  1  0.59473975  0.18774530  0.38923237  1
  Pd  Pd167  1  0.60545668  0.79380567  0.19283549  1
  Pd  Pd168  1  0.78302120  0.39557894  0.41009881  1
  Pd  Pd169  1  -0.00029299  -0.00483042  0.80585303  1
  Pd  Pd170  1  0.40711416  -0.00784656  0.40773217  1
  Pd  Pd171  1  0.60481718  0.19396791  0.20807876  1
  Pd  Pd172  1  0.79828480  0.79550757  -0.01157982  1
  Pd  Pd173  1  0.39300259  0.20573254  0.19929682  1
  Pd  Pd174  1  0.20147368  0.59449373  0.18977041  1
  Pd  Pd175  1  0.19367906  0.59494556  0.40692524  1
  Pd  Pd176  1  0.40682447  0.39614911  0.80063972  1
  Pd  Pd177  1  0.60429780  0.40704189  0.41122846  1
  Pd  Pd178  1  0.79719104  0.00310149  0.60429224  1
  Pd  Pd179  1  0.60310888  0.79793012  0.80007553  1
  Pd  Pd180  1  0.60597249  0.39700850  0.59442776  1
  Pd  Pd181  1  0.39597523  0.40589923  0.59224885  1
  Pd  Pd182  1  0.19429164  0.78913128  -0.00691437  1
  Pd  Pd183  1  0.39311273  0.60258460  0.60901666  1
  Pd  Pd184  1  0.59266583  0.21057396  0.78573968  1
  Pd  Pd185  1  0.19885584  0.00215027  0.60534565  1
  Pd  Pd186  1  0.39763355  0.20987430  0.79741250  1
  Pd  Pd187  1  0.20169389  0.20319270  -0.00657300  1
  Pd  Pd188  1  0.78931352  0.40185565  0.79915857  1
  Pd  Pd189  1  0.40306270  0.60755005  0.79653800  1
  Pd  Pd190  1  0.20622460  0.80814115  0.39706735  1
  Pd  Pd191  1  0.79346186  0.00367062  -0.00595864  1
  Pd  Pd192  1  0.19789941  0.20177901  0.40873862  1
  Pd  Pd193  1  0.60800232  0.41215954  -0.01744456  1
  Pd  Pd194  1  0.80475774  0.19494962  0.39389837  1
  Pd  Pd195  1  0.39445874  -0.00740084  0.80208203  1
  Pd  Pd196  1  0.80636389  0.19239117  0.59132493  1
  Pd  Pd197  1  0.39105729  0.19964953  -0.00251844  1
  Pd  Pd198  1  0.01071730  0.60772654  0.39214943  1
  Pd  Pd199  1  0.59000931  0.39810973  0.20605913  1
  Rh  Rh200  1  0.59427812  0.19365897  0.60108102  1
  Rh  Rh201  1  0.20841864  0.19618668  0.19985801  1
  Rh  Rh202  1  0.41216165  0.60962874  0.39046814  1
  Rh  Rh203  1  0.60778628  0.59673785  -0.00696613  1
  Rh  Rh204  1  0.19731412  0.39826923  0.20943209  1
  Rh  Rh205  1  0.00048034  0.40054084  0.00358899  1
  Rh  Rh206  1  0.79939077  0.79994013  0.19732270  1
  Rh  Rh207  1  0.39296590  0.00219178  0.19225028  1
  Rh  Rh208  1  0.39209444  0.20373079  0.40439807  1
  Rh  Rh209  1  0.01042283  0.80275476  -0.00690613  1
  Rh  Rh210  1  0.00043510  0.59484309  0.79225074  1
  Rh  Rh211  1  0.80086157  0.19269679  0.80417853  1
  Rh  Rh212  1  0.38832114  0.60441128  0.00949422  1
  Rh  Rh213  1  0.20161249  0.41266142  0.59405626  1
  Rh  Rh214  1  0.60427117  0.80443905  0.00699737  1
  Rh  Rh215  1  0.79633262  0.40198653  0.59677666  1
  Rh  Rh216  1  0.39552308  0.39288767  -0.00350684  1
  Rh  Rh217  1  0.20058945  0.39935638  0.80380487  1
  Rh  Rh218  1  0.80787159  0.80280346  0.40273440  1
  Rh  Rh219  1  0.80168489  0.00076156  0.20115079  1
  Rh  Rh220  1  0.80567793  0.79411206  0.60733119  1
  Rh  Rh221  1  0.79452109  -0.00577730  0.39590375  1
  Rh  Rh222  1  0.20324975  -0.00376428  0.79599358  1
  Rh  Rh223  1  0.39789872  0.80215886  -0.00652257  1
  Rh  Rh224  1  0.19444038  0.81196131  0.20365289  1
  Rh  Rh225  1  0.19948768  0.00282533  0.00422231  1
  Rh  Rh226  1  0.79633823  0.60966367  0.60330651  1
  Rh  Rh227  1  0.20362671  0.40277932  -0.00734268  1
  Rh  Rh228  1  -0.00044121  0.80216740  0.40408663  1
  Rh  Rh229  1  0.01491632  0.38757033  0.40127515  1
  Rh  Rh230  1  0.20498980  -0.00639624  0.39465102  1
  Rh  Rh231  1  0.78835291  0.60779776  0.39561014  1
  Rh  Rh232  1  0.20022624  0.79597341  0.60484856  1
  Rh  Rh233  1  0.40065273  0.78634462  0.20795825  1
  Rh  Rh234  1  0.00753430  0.00657931  -0.00146878  1
  Rh  Rh235  1  0.00181834  0.80438497  0.60314019  1
  Rh  Rh236  1  0.00666640  0.19737149  0.79753128  1
  Rh  Rh237  1  -0.00618504  0.00074382  0.40280944  1
  Rh  Rh238  1  0.80307302  0.61130178  0.80353111  1
  Rh  Rh239  1  -0.01401658  0.20888269  0.21415479  1
  Rh  Rh240  1  0.00511958  0.59240307  0.61016844  1
  Rh  Rh241  1  0.20003426  0.20152158  0.80220556  1
  Rh  Rh242  1  0.59067217  0.80028583  0.40798491  1
  Rh  Rh243  1  0.60353872  0.80187246  0.59665482  1
  Rh  Rh244  1  0.19755208  0.59909881  0.80196173  1
  Rh  Rh245  1  0.00078757  0.00331497  0.60122038  1
  Rh  Rh246  1  0.59128871  0.59622148  0.80397065  1
  Rh  Rh247  1  0.00476623  -0.00540938  0.19554985  1
  Rh  Rh248  1  0.40152644  0.00454250  0.60036123  1
  Rh  Rh249  1  -0.00145162  0.81120843  0.80309002  1
