# generated using pymatgen
data_ZrScNbPdRh
_symmetry_space_group_name_H-M   'P 1'
_cell_length_a   16.56342184
_cell_length_b   16.56087017
_cell_length_c   16.56143277
_cell_angle_alpha   89.99881840
_cell_angle_beta   89.99053554
_cell_angle_gamma   90.00133112
_symmetry_Int_Tables_number   1
_chemical_formula_structural   ZrScNbPdRh
_chemical_formula_sum   'Zr50 Sc50 Nb50 Pd50 Rh50'
_cell_volume   4542.87843257
_cell_formula_units_Z   50
loop_
 _symmetry_equiv_pos_site_id
 _symmetry_equiv_pos_as_xyz
  1  'x, y, z'
loop_
 _atom_site_type_symbol
 _atom_site_label
 _atom_site_symmetry_multiplicity
 _atom_site_fract_x
 _atom_site_fract_y
 _atom_site_fract_z
 _atom_site_occupancy
  Zr  Zr0  1  0.50679653  0.50099663  0.68771839  1
  Zr  Zr1  1  0.29493760  0.71394461  0.69544125  1
  Zr  Zr2  1  0.09967441  0.69854305  0.50164459  1
  Zr  Zr3  1  0.70220136  0.09485822  0.90019176  1
  Zr  Zr4  1  0.90490097  0.11342931  0.10255869  1
  Zr  Zr5  1  0.31262267  0.50072505  0.49351887  1
  Zr  Zr6  1  0.50032032  0.90239081  0.90301010  1
  Zr  Zr7  1  0.29606440  0.49912829  0.29895583  1
  Zr  Zr8  1  0.28018812  0.28592032  0.70055110  1
  Zr  Zr9  1  0.50403144  0.30328013  0.10550435  1
  Zr  Zr10  1  0.90457852  0.89460181  0.89796616  1
  Zr  Zr11  1  0.49931273  0.68899915  0.50216969  1
  Zr  Zr12  1  0.88897892  0.30136014  0.29725007  1
  Zr  Zr13  1  0.30100541  0.10097731  0.50127825  1
  Zr  Zr14  1  0.29976471  0.49799770  0.90443270  1
  Zr  Zr15  1  0.10108760  0.49841187  0.50736421  1
  Zr  Zr16  1  0.10035563  0.90193164  0.08806867  1
  Zr  Zr17  1  0.70157290  0.70729112  0.69915324  1
  Zr  Zr18  1  0.70151266  0.50703530  0.69362251  1
  Zr  Zr19  1  0.71191941  0.09716388  0.69845331  1
  Zr  Zr20  1  0.10611514  0.29942226  0.89218048  1
  Zr  Zr21  1  0.70221503  0.90286671  0.29640159  1
  Zr  Zr22  1  0.90451748  0.50085763  0.70066545  1
  Zr  Zr23  1  0.29157708  0.29977129  0.09607074  1
  Zr  Zr24  1  0.09537306  0.69997371  0.30330792  1
  Zr  Zr25  1  0.90333061  0.50520961  0.90471878  1
  Zr  Zr26  1  0.49012548  0.50045394  0.30497925  1
  Zr  Zr27  1  0.30294882  0.31163695  0.29560666  1
  Zr  Zr28  1  0.50081898  0.08947328  0.09345331  1
  Zr  Zr29  1  0.08615102  0.49418417  0.70291554  1
  Zr  Zr30  1  0.50532504  0.90224198  0.29872310  1
  Zr  Zr31  1  0.89889434  0.10012979  0.31011824  1
  Zr  Zr32  1  0.50310254  0.09218574  0.49393917  1
  Zr  Zr33  1  0.90061275  0.30488921  0.10600327  1
  Zr  Zr34  1  0.49820983  0.89514133  0.69429141  1
  Zr  Zr35  1  0.70290253  0.89557657  0.69957770  1
  Zr  Zr36  1  0.49762960  0.09436946  0.89976368  1
  Zr  Zr37  1  0.50834566  0.30907741  0.49977998  1
  Zr  Zr38  1  0.29815582  0.89660793  0.09943531  1
  Zr  Zr39  1  0.89995306  0.89790040  0.10686819  1
  Zr  Zr40  1  0.70707472  0.70301095  0.29963934  1
  Zr  Zr41  1  0.28996449  0.69901319  0.49896406  1
  Zr  Zr42  1  0.69638602  0.89149082  0.09955810  1
  Zr  Zr43  1  0.10523472  0.10321404  0.70123690  1
  Zr  Zr44  1  0.10246061  0.10790913  0.09842381  1
  Zr  Zr45  1  0.09035849  0.09037236  0.49945724  1
  Zr  Zr46  1  0.29487555  0.30456219  0.49910350  1
  Zr  Zr47  1  0.89509303  0.70578247  0.49559146  1
  Zr  Zr48  1  0.29804965  0.70243750  0.30162976  1
  Zr  Zr49  1  0.30226345  0.90344457  0.89572172  1
  Sc  Sc50  1  0.50737669  0.89701554  0.10151725  1
  Sc  Sc51  1  0.08877764  0.70482424  0.09989088  1
  Sc  Sc52  1  0.49736285  0.69651481  0.29066331  1
  Sc  Sc53  1  0.30604023  0.70554515  0.10532667  1
  Sc  Sc54  1  0.70223556  0.08868140  0.10638128  1
  Sc  Sc55  1  0.09364713  0.89167855  0.49979361  1
  Sc  Sc56  1  0.09447291  0.49655592  0.90088520  1
  Sc  Sc57  1  0.70817908  0.51757311  0.90832271  1
  Sc  Sc58  1  0.70438663  0.29289543  0.89776506  1
  Sc  Sc59  1  0.50297122  0.30101415  0.69790180  1
  Sc  Sc60  1  0.90099462  0.90678741  0.49849289  1
  Sc  Sc61  1  0.50716079  0.29920481  0.30244298  1
  Sc  Sc62  1  0.50423735  0.70175966  0.10310488  1
  Sc  Sc63  1  0.30324025  0.09556685  0.89333667  1
  Sc  Sc64  1  0.70631583  0.30417402  0.11267657  1
  Sc  Sc65  1  0.29853604  0.29954648  0.89555920  1
  Sc  Sc66  1  0.30366054  0.49376193  0.10730893  1
  Sc  Sc67  1  0.70590993  0.10209376  0.49889415  1
  Sc  Sc68  1  0.50368498  0.09805339  0.69874350  1
  Sc  Sc69  1  0.89674398  0.09958414  0.90313444  1
  Sc  Sc70  1  0.70020099  0.29042253  0.69331345  1
  Sc  Sc71  1  0.50415573  0.50786873  0.11093830  1
  Sc  Sc72  1  0.49462142  0.50943281  0.89023060  1
  Sc  Sc73  1  0.70617442  0.90024313  0.50608286  1
  Sc  Sc74  1  0.90224312  0.69970207  0.70274975  1
  Sc  Sc75  1  0.50288759  0.70353820  0.90064275  1
  Sc  Sc76  1  0.70119162  0.29516058  0.30511821  1
  Sc  Sc77  1  0.09227684  0.69604153  0.69250194  1
  Sc  Sc78  1  0.50268407  0.69971298  0.70162937  1
  Sc  Sc79  1  0.08938121  0.90212808  0.70348760  1
  Sc  Sc80  1  0.50968065  0.09910999  0.30753646  1
  Sc  Sc81  1  0.30240070  0.89475654  0.50740948  1
  Sc  Sc82  1  0.08362314  0.70304202  0.90401104  1
  Sc  Sc83  1  0.08616452  0.49432342  0.09910280  1
  Sc  Sc84  1  0.89989850  0.70477847  0.29365489  1
  Sc  Sc85  1  0.88607075  0.30588574  0.49761518  1
  Sc  Sc86  1  0.49957786  0.29434355  0.89354088  1
  Sc  Sc87  1  0.88436689  0.49786256  0.50331062  1
  Sc  Sc88  1  0.30652496  0.10711278  0.30725851  1
  Sc  Sc89  1  0.70138964  0.10024705  0.30627218  1
  Sc  Sc90  1  0.90324929  0.69805241  0.10088232  1
  Sc  Sc91  1  0.09830458  0.29689166  0.09218231  1
  Sc  Sc92  1  0.89533262  0.89797393  0.69709114  1
  Sc  Sc93  1  0.89572039  0.89354883  0.30607212  1
  Sc  Sc94  1  0.30894570  0.49699145  0.70369209  1
  Sc  Sc95  1  0.10142599  0.30467715  0.28324156  1
  Sc  Sc96  1  0.90027073  0.29457705  0.91035210  1
  Sc  Sc97  1  0.09418862  0.89027059  0.30531812  1
  Sc  Sc98  1  0.89786013  0.69793480  0.90060606  1
  Sc  Sc99  1  0.31126379  0.70449607  0.90395829  1
  Nb  Nb100  1  0.30290863  0.09994666  0.10147598  1
  Nb  Nb101  1  0.90454368  0.49819608  0.28994137  1
  Nb  Nb102  1  0.29805682  0.09381395  0.69963428  1
  Nb  Nb103  1  0.70270820  0.71148357  0.90602112  1
  Nb  Nb104  1  0.68708693  0.50220245  0.49723384  1
  Nb  Nb105  1  0.69653836  0.69342529  0.09264663  1
  Nb  Nb106  1  0.90187697  0.09754490  0.50131995  1
  Nb  Nb107  1  0.90190362  0.10445268  0.68996860  1
  Nb  Nb108  1  0.09683626  0.08848371  0.89669935  1
  Nb  Nb109  1  0.90537538  0.30629894  0.70099435  1
  Nb  Nb110  1  0.50651341  0.89750517  0.49711274  1
  Nb  Nb111  1  0.09807113  0.10102310  0.30130129  1
  Nb  Nb112  1  0.09997649  0.90418829  0.89749880  1
  Nb  Nb113  1  0.29846533  0.90346359  0.70421194  1
  Nb  Nb114  1  0.09437849  0.50063277  0.29616722  1
  Nb  Nb115  1  0.29889114  0.89407662  0.29794773  1
  Nb  Nb116  1  0.50768916  0.49928706  0.50365002  1
  Nb  Nb117  1  0.10041803  0.30188151  0.50834714  1
  Nb  Nb118  1  0.69802385  0.31077449  0.49245672  1
  Nb  Nb119  1  0.70314857  0.89356290  0.90101982  1
  Nb  Nb120  1  0.89184910  0.49783786  0.10286782  1
  Nb  Nb121  1  0.70991310  0.50323312  0.30003713  1
  Nb  Nb122  1  0.09215856  0.30229847  0.69562272  1
  Nb  Nb123  1  0.70001193  0.69870361  0.49722117  1
  Nb  Nb124  1  0.70615570  0.50384783  0.09970338  1
  Nb  Nb125  1  0.40828802  0.39859499  0.00087096  1
  Nb  Nb126  1  0.20112712  -0.00023365  0.60274093  1
  Nb  Nb127  1  0.19829954  0.60630498  0.80548822  1
  Nb  Nb128  1  -0.00309846  0.20533475  0.59884912  1
  Nb  Nb129  1  0.20060986  0.00216747  0.20608398  1
  Nb  Nb130  1  0.00200976  0.20781562  0.40397524  1
  Nb  Nb131  1  0.40536753  0.80169173  0.40140096  1
  Nb  Nb132  1  -0.00340823  0.59098369  0.39649534  1
  Nb  Nb133  1  0.00088592  0.19979720  0.79249238  1
  Nb  Nb134  1  0.60983121  0.40561227  0.80246602  1
  Nb  Nb135  1  0.40039737  0.19551372  0.19490868  1
  Nb  Nb136  1  0.19854297  0.59980783  0.00265231  1
  Nb  Nb137  1  0.39597813  0.19776803  0.59741600  1
  Nb  Nb138  1  0.19274761  0.59893863  0.19862734  1
  Nb  Nb139  1  0.59911305  0.79766362  0.40449800  1
  Nb  Nb140  1  0.60084424  0.40189367  -0.00267518  1
  Nb  Nb141  1  0.80084414  0.40170190  0.79869409  1
  Nb  Nb142  1  0.20049907  -0.00034387  0.39737881  1
  Nb  Nb143  1  0.19488350  0.80254857  0.80328265  1
  Nb  Nb144  1  0.60802843  -0.00704584  0.80150779  1
  Nb  Nb145  1  -0.00077851  0.40149549  0.39666312  1
  Nb  Nb146  1  0.00625752  0.00442255  0.20243362  1
  Nb  Nb147  1  0.39294022  0.00155230  0.20138641  1
  Nb  Nb148  1  0.19019499  0.20166887  0.40131640  1
  Nb  Nb149  1  0.59966228  0.20070411  0.00315601  1
  Pd  Pd150  1  0.60751644  0.40944440  0.20361099  1
  Pd  Pd151  1  0.80937283  0.00401201  0.20379018  1
  Pd  Pd152  1  0.59782797  0.80312707  0.80307158  1
  Pd  Pd153  1  0.60599522  0.59898611  0.20642052  1
  Pd  Pd154  1  -0.00504524  0.80141755  0.60145853  1
  Pd  Pd155  1  0.60617634  0.00174445  0.60279309  1
  Pd  Pd156  1  0.39969335  0.19771899  0.78909418  1
  Pd  Pd157  1  0.20632858  0.41026098  0.60859225  1
  Pd  Pd158  1  0.79926987  0.60315248  0.80126216  1
  Pd  Pd159  1  0.40165926  0.21024540  0.40004715  1
  Pd  Pd160  1  0.39567386  0.38998798  0.60521204  1
  Pd  Pd161  1  0.80477887  -0.00402889  0.79905833  1
  Pd  Pd162  1  0.59851093  0.60346923  0.39130291  1
  Pd  Pd163  1  0.80002122  0.60604103  0.59796668  1
  Pd  Pd164  1  0.40753620  0.80323601  0.00459763  1
  Pd  Pd165  1  0.40335405  0.79685434  0.59387988  1
  Pd  Pd166  1  0.20069564  0.19128497  -0.01197908  1
  Pd  Pd167  1  0.40773935  0.39519926  0.80096664  1
  Pd  Pd168  1  0.18836320  0.39622231  0.39596958  1
  Pd  Pd169  1  0.80665076  0.59519339  0.39776793  1
  Pd  Pd170  1  0.80336897  0.20523695  0.59237809  1
  Pd  Pd171  1  0.39444592  0.60363690  0.60546341  1
  Pd  Pd172  1  0.59865638  0.19071215  0.19788598  1
  Pd  Pd173  1  0.60444788  0.40696811  0.38746506  1
  Pd  Pd174  1  0.80350888  0.60488318  0.19514426  1
  Pd  Pd175  1  0.40399378  0.20699358  0.00319468  1
  Pd  Pd176  1  0.59376187  0.59693708  -0.00341189  1
  Pd  Pd177  1  0.39423385  0.60982182  0.79367472  1
  Pd  Pd178  1  0.18938566  0.79766445  0.19764277  1
  Pd  Pd179  1  0.79219389  0.39734732  0.60613266  1
  Pd  Pd180  1  0.78840511  0.20052075  0.01126352  1
  Pd  Pd181  1  0.19698984  0.78841616  -0.00922486  1
  Pd  Pd182  1  0.81057369  0.20602514  0.79877593  1
  Pd  Pd183  1  0.79129551  0.39984145  -0.00606981  1
  Pd  Pd184  1  0.19289344  0.59376826  0.39498830  1
  Pd  Pd185  1  0.80387661  -0.00359782  0.00359869  1
  Pd  Pd186  1  -0.00092956  0.39606203  -0.00228470  1
  Pd  Pd187  1  0.39804374  0.00075167  0.60174881  1
  Pd  Pd188  1  0.20501760  0.58960291  0.61272099  1
  Pd  Pd189  1  0.80723855  0.79508642  0.00536630  1
  Pd  Pd190  1  0.59694984  0.19655726  0.59306393  1
  Pd  Pd191  1  0.20616300  0.00750532  -0.00003555  1
  Pd  Pd192  1  0.60613805  0.60034248  0.80392368  1
  Pd  Pd193  1  0.39358327  -0.00926285  0.39498234  1
  Pd  Pd194  1  0.60175961  0.19666279  0.80298068  1
  Pd  Pd195  1  0.20753410  0.19593398  0.20772790  1
  Pd  Pd196  1  -0.00786801  0.00398103  0.00552264  1
  Pd  Pd197  1  0.19873396  0.40971317  0.79390334  1
  Pd  Pd198  1  0.39808412  0.59450830  0.01072209  1
  Pd  Pd199  1  -0.01010323  0.00536623  0.79468509  1
  Rh  Rh200  1  0.80275379  0.79836412  0.59749677  1
  Rh  Rh201  1  -0.01050816  0.59849699  0.58890833  1
  Rh  Rh202  1  0.39000809  0.60237021  0.19891855  1
  Rh  Rh203  1  0.61243352  -0.00702014  0.40455729  1
  Rh  Rh204  1  0.59847722  0.79543130  0.00069599  1
  Rh  Rh205  1  0.00133524  0.80010759  0.80032624  1
  Rh  Rh206  1  0.19530946  0.19001108  0.80831578  1
  Rh  Rh207  1  0.79708644  0.40900096  0.39561451  1
  Rh  Rh208  1  0.40750738  0.80654844  0.20493495  1
  Rh  Rh209  1  0.19079237  0.81278658  0.60944156  1
  Rh  Rh210  1  0.20704087  0.80841489  0.40600307  1
  Rh  Rh211  1  0.19741813  0.19226942  0.59258239  1
  Rh  Rh212  1  -0.00491134  0.20002873  0.20925912  1
  Rh  Rh213  1  0.40746381  0.39776358  0.40270697  1
  Rh  Rh214  1  0.39652229  0.80072666  0.79865183  1
  Rh  Rh215  1  0.80435696  0.60823621  0.00607322  1
  Rh  Rh216  1  -0.00877299  0.39779699  0.58694808  1
  Rh  Rh217  1  0.80110398  0.19974522  0.40668492  1
  Rh  Rh218  1  0.19179765  0.40930569  0.19014555  1
  Rh  Rh219  1  0.00032641  0.59917442  0.20034182  1
  Rh  Rh220  1  0.79445619  0.79288142  0.19145839  1
  Rh  Rh221  1  0.80452974  0.79723223  0.80169832  1
  Rh  Rh222  1  -0.00141117  0.39609456  0.19819855  1
  Rh  Rh223  1  -0.00514103  0.80424834  -0.00107176  1
  Rh  Rh224  1  0.60909878  -0.00120777  -0.00640103  1
  Rh  Rh225  1  0.39254888  -0.00785183  0.00670670  1
  Rh  Rh226  1  0.60614822  0.79352376  0.20324588  1
  Rh  Rh227  1  0.79285907  0.80540654  0.40277613  1
  Rh  Rh228  1  0.60515779  0.60762054  0.59981962  1
  Rh  Rh229  1  0.79391809  0.40533743  0.20463567  1
  Rh  Rh230  1  0.79692817  0.19417609  0.20133061  1
  Rh  Rh231  1  0.00143273  0.80961536  0.19932138  1
  Rh  Rh232  1  0.60565747  0.20071644  0.40836555  1
  Rh  Rh233  1  -0.00114949  0.59605751  0.00513268  1
  Rh  Rh234  1  0.00540220  0.60316733  0.80100318  1
  Rh  Rh235  1  -0.00642919  0.79210530  0.40089720  1
  Rh  Rh236  1  0.79848544  -0.00166587  0.40419281  1
  Rh  Rh237  1  0.40127306  0.60521487  0.39947081  1
  Rh  Rh238  1  0.60962379  0.39745507  0.60538372  1
  Rh  Rh239  1  0.40399493  0.39463022  0.19640741  1
  Rh  Rh240  1  0.59545583  0.00362825  0.20295646  1
  Rh  Rh241  1  0.41106231  -0.00111805  0.79233799  1
  Rh  Rh242  1  0.00109896  -0.00216345  0.39153281  1
  Rh  Rh243  1  0.60271275  0.79351724  0.59139679  1
  Rh  Rh244  1  -0.00065813  0.00027119  0.60567004  1
  Rh  Rh245  1  0.20496859  0.40726506  0.00367454  1
  Rh  Rh246  1  0.01191629  0.19752583  -0.01570368  1
  Rh  Rh247  1  -0.00984249  0.39075148  0.81265588  1
  Rh  Rh248  1  0.80453841  0.00010342  0.59760548  1
  Rh  Rh249  1  0.19785995  -0.00632639  0.79574796  1
