# generated using pymatgen
data_ZrScNbPdRh
_symmetry_space_group_name_H-M   'P 1'
_cell_length_a   16.56019235
_cell_length_b   16.56003201
_cell_length_c   16.55824766
_cell_angle_alpha   90.03062381
_cell_angle_beta   90.01074438
_cell_angle_gamma   89.99855165
_symmetry_Int_Tables_number   1
_chemical_formula_structural   ZrScNbPdRh
_chemical_formula_sum   'Zr50 Sc50 Nb50 Pd50 Rh50'
_cell_volume   4540.88865611
_cell_formula_units_Z   50
loop_
 _symmetry_equiv_pos_site_id
 _symmetry_equiv_pos_as_xyz
  1  'x, y, z'
loop_
 _atom_site_type_symbol
 _atom_site_label
 _atom_site_symmetry_multiplicity
 _atom_site_fract_x
 _atom_site_fract_y
 _atom_site_fract_z
 _atom_site_occupancy
  Zr  Zr0  1  0.90732993  0.30286408  0.51055841  1
  Zr  Zr1  1  0.29388734  0.10682342  0.50860717  1
  Zr  Zr2  1  0.70781191  0.50844300  0.29475684  1
  Zr  Zr3  1  0.29630061  0.69986447  0.30132640  1
  Zr  Zr4  1  0.50708038  0.09573562  0.89149546  1
  Zr  Zr5  1  0.89993071  0.49855283  0.90092435  1
  Zr  Zr6  1  0.90438269  0.69684142  0.89165871  1
  Zr  Zr7  1  0.49898951  0.48715079  0.70549599  1
  Zr  Zr8  1  0.50706169  0.29602366  0.70237092  1
  Zr  Zr9  1  0.30002491  0.90772542  0.10225564  1
  Zr  Zr10  1  0.69471879  0.89864279  0.69478799  1
  Zr  Zr11  1  0.09626876  0.30167137  0.69832422  1
  Zr  Zr12  1  0.70430039  0.09345271  0.89298172  1
  Zr  Zr13  1  0.69441005  0.89227614  0.09764081  1
  Zr  Zr14  1  0.89902007  0.69251334  0.50053803  1
  Zr  Zr15  1  0.69813342  0.90952555  0.29634794  1
  Zr  Zr16  1  0.30170626  0.09486957  0.70327765  1
  Zr  Zr17  1  0.70321952  0.69866582  0.70029869  1
  Zr  Zr18  1  0.30667352  0.69870089  0.08640291  1
  Zr  Zr19  1  0.48775420  0.11125732  0.10827734  1
  Zr  Zr20  1  0.49922675  0.88907486  0.08984742  1
  Zr  Zr21  1  0.29099170  0.30569726  0.30474566  1
  Zr  Zr22  1  0.90885195  0.50524452  0.30437350  1
  Zr  Zr23  1  0.70395705  0.30140906  0.70696643  1
  Zr  Zr24  1  0.09764475  0.91093615  0.09834545  1
  Zr  Zr25  1  0.30020361  0.29141836  0.90326156  1
  Zr  Zr26  1  0.50617808  0.10106622  0.30199953  1
  Zr  Zr27  1  0.09991614  0.69937166  0.90057799  1
  Zr  Zr28  1  0.10309779  0.49729726  0.69826660  1
  Zr  Zr29  1  0.70724807  0.30822339  0.09813515  1
  Zr  Zr30  1  0.30173931  0.90006643  0.50395422  1
  Zr  Zr31  1  0.29517271  0.70316840  0.69896477  1
  Zr  Zr32  1  0.69653132  0.49669262  0.49877794  1
  Zr  Zr33  1  0.29911305  0.89661307  0.30248201  1
  Zr  Zr34  1  0.09121564  0.29793737  0.89329751  1
  Zr  Zr35  1  0.09578201  0.50327449  0.90389086  1
  Zr  Zr36  1  0.49927545  0.09357951  0.69382830  1
  Zr  Zr37  1  0.69317717  0.10295503  0.30801209  1
  Zr  Zr38  1  0.11093823  0.29495852  0.50506602  1
  Zr  Zr39  1  0.10191733  0.89318987  0.29327717  1
  Zr  Zr40  1  0.50180007  0.30868985  0.50437970  1
  Zr  Zr41  1  0.90361837  0.90005560  0.10160993  1
  Zr  Zr42  1  0.10134113  0.69477712  0.30026068  1
  Zr  Zr43  1  0.50404291  0.69809371  0.70646570  1
  Zr  Zr44  1  0.30643659  0.29826603  0.10222638  1
  Zr  Zr45  1  0.50371476  0.70326475  0.10150182  1
  Zr  Zr46  1  0.89891708  0.10094709  0.89249823  1
  Zr  Zr47  1  0.29297683  0.50185544  0.30373940  1
  Zr  Zr48  1  0.90068579  0.69661096  0.70018089  1
  Zr  Zr49  1  0.69971666  0.09930774  0.70461762  1
  Sc  Sc50  1  0.29616476  0.89946257  0.89293865  1
  Sc  Sc51  1  0.29654830  0.90676247  0.70499763  1
  Sc  Sc52  1  0.09753602  0.30677510  0.30237498  1
  Sc  Sc53  1  0.91501449  0.09993079  0.09808587  1
  Sc  Sc54  1  0.70254265  0.28901014  0.29849796  1
  Sc  Sc55  1  0.70079231  0.69988767  0.50154385  1
  Sc  Sc56  1  0.29919153  0.50091628  0.10783774  1
  Sc  Sc57  1  0.69701354  0.68923276  0.10372221  1
  Sc  Sc58  1  0.69920653  0.90480539  0.50186542  1
  Sc  Sc59  1  0.89376949  0.88980537  0.69951066  1
  Sc  Sc60  1  0.89797604  0.69469204  0.29067767  1
  Sc  Sc61  1  0.29335164  0.70136428  0.49288605  1
  Sc  Sc62  1  0.90454275  0.30008211  0.70978254  1
  Sc  Sc63  1  0.49179282  0.70677975  0.91247827  1
  Sc  Sc64  1  0.90483007  0.29729313  0.28823706  1
  Sc  Sc65  1  0.30825768  0.10105356  0.28805720  1
  Sc  Sc66  1  0.89214087  0.49940453  0.10073389  1
  Sc  Sc67  1  0.50030974  0.50462287  0.09742345  1
  Sc  Sc68  1  0.50569426  0.70294880  0.49561462  1
  Sc  Sc69  1  0.51148813  0.90196452  0.50615762  1
  Sc  Sc70  1  0.10549214  0.69915941  0.09957172  1
  Sc  Sc71  1  0.29139808  0.30827494  0.70152147  1
  Sc  Sc72  1  0.08900400  0.70573875  0.69909777  1
  Sc  Sc73  1  0.70153837  0.68323005  0.89739035  1
  Sc  Sc74  1  0.51013069  0.49662177  0.89690239  1
  Sc  Sc75  1  0.89121633  0.09779422  0.30514045  1
  Sc  Sc76  1  0.10058238  0.89895195  0.50026355  1
  Sc  Sc77  1  0.50724438  0.29338994  0.29608402  1
  Sc  Sc78  1  0.89499045  0.90773048  0.89709661  1
  Sc  Sc79  1  0.50107473  0.89932060  0.29560566  1
  Sc  Sc80  1  0.69812350  0.69662702  0.29706283  1
  Sc  Sc81  1  0.90270993  0.50437216  0.50336090  1
  Sc  Sc82  1  0.08114363  0.29024406  0.09854478  1
  Sc  Sc83  1  0.09764587  0.10376831  0.29922190  1
  Sc  Sc84  1  0.50104008  0.50592102  0.30791840  1
  Sc  Sc85  1  0.49820955  0.30718904  0.90214536  1
  Sc  Sc86  1  0.10295276  0.90543074  0.89993074  1
  Sc  Sc87  1  0.10241595  0.50814669  0.10457922  1
  Sc  Sc88  1  0.49807301  0.30306734  0.09939179  1
  Sc  Sc89  1  0.09345787  0.50042166  0.50187433  1
  Sc  Sc90  1  0.89910750  0.49500955  0.69823146  1
  Sc  Sc91  1  0.09901642  0.69851958  0.50539625  1
  Sc  Sc92  1  0.69686187  0.09752189  0.10872496  1
  Sc  Sc93  1  0.50070303  0.70137135  0.29776417  1
  Sc  Sc94  1  0.30248940  0.49228356  0.90163695  1
  Sc  Sc95  1  0.90045944  0.90453870  0.29097540  1
  Sc  Sc96  1  0.10736312  0.10143350  0.90104518  1
  Sc  Sc97  1  0.10657795  0.11230680  0.69818667  1
  Sc  Sc98  1  0.29990292  0.10340231  0.09212601  1
  Sc  Sc99  1  0.69582603  0.29757902  0.49824251  1
  Nb  Nb100  1  0.29739769  0.30290964  0.49279566  1
  Nb  Nb101  1  0.90184758  0.29981490  0.90321116  1
  Nb  Nb102  1  0.69307580  0.90522827  0.90472528  1
  Nb  Nb103  1  0.09994984  0.10602255  0.50119348  1
  Nb  Nb104  1  0.69993529  0.49939779  0.09320150  1
  Nb  Nb105  1  0.10119908  0.09842246  0.09617913  1
  Nb  Nb106  1  0.89897555  0.90651542  0.48965935  1
  Nb  Nb107  1  0.30020607  0.50236636  0.70065942  1
  Nb  Nb108  1  0.89743941  0.09419128  0.49882635  1
  Nb  Nb109  1  0.30201721  0.09728985  0.89740515  1
  Nb  Nb110  1  0.69943300  0.09590186  0.49505771  1
  Nb  Nb111  1  0.30919274  0.48875194  0.50148220  1
  Nb  Nb112  1  0.50638157  0.90133035  0.89983924  1
  Nb  Nb113  1  0.89835041  0.10100841  0.69903339  1
  Nb  Nb114  1  0.09834546  0.50775019  0.29622620  1
  Nb  Nb115  1  0.49803935  0.89987552  0.70263762  1
  Nb  Nb116  1  0.09129412  0.90407762  0.70221634  1
  Nb  Nb117  1  0.29374416  0.69639124  0.89777634  1
  Nb  Nb118  1  0.89954814  0.29327436  0.09248107  1
  Nb  Nb119  1  0.70252286  0.48691769  0.91019279  1
  Nb  Nb120  1  0.49798378  0.10368875  0.50213115  1
  Nb  Nb121  1  0.70516081  0.29838293  0.90069771  1
  Nb  Nb122  1  0.89377397  0.70705800  0.09437327  1
  Nb  Nb123  1  0.69054526  0.49799442  0.71692159  1
  Nb  Nb124  1  0.49975298  0.49643621  0.50637651  1
  Nb  Nb125  1  0.60894970  0.40702161  0.19642186  1
  Nb  Nb126  1  -0.00630146  0.80051808  0.39831134  1
  Nb  Nb127  1  0.80408957  0.40130496  0.39833808  1
  Nb  Nb128  1  -0.00418483  0.00564174  0.59781337  1
  Nb  Nb129  1  0.80341525  0.19087922  0.59794941  1
  Nb  Nb130  1  0.19593250  0.20151437  0.19451065  1
  Nb  Nb131  1  0.80607025  0.80443929  0.39869023  1
  Nb  Nb132  1  0.39962262  0.19665866  0.79882514  1
  Nb  Nb133  1  0.40012332  0.00743881  0.40684854  1
  Nb  Nb134  1  0.20370133  0.60075927  0.79983168  1
  Nb  Nb135  1  -0.00036041  0.19577116  0.41024060  1
  Nb  Nb136  1  0.60779007  0.20197755  -0.00412157  1
  Nb  Nb137  1  0.79880352  0.79798906  -0.00191794  1
  Nb  Nb138  1  0.59973894  0.80540652  0.80593312  1
  Nb  Nb139  1  0.40256533  0.79699470  0.60568825  1
  Nb  Nb140  1  0.40360895  -0.00078017  -0.00698043  1
  Nb  Nb141  1  0.20394105  0.00525469  0.40115229  1
  Nb  Nb142  1  0.39703023  0.20139663  0.40762396  1
  Nb  Nb143  1  0.59531773  0.58944730  0.60500347  1
  Nb  Nb144  1  0.39383474  0.60007136  0.79753682  1
  Nb  Nb145  1  0.00006672  0.00325626  0.78870909  1
  Nb  Nb146  1  0.19506906  0.39287637  0.00291957  1
  Nb  Nb147  1  0.80138799  0.20264139  -0.00287918  1
  Nb  Nb148  1  -0.00570073  0.80132538  0.00153380  1
  Nb  Nb149  1  0.40039506  0.59464052  0.59919160  1
  Pd  Pd150  1  0.39438151  0.39431935  0.60702444  1
  Pd  Pd151  1  0.80448950  0.19146384  0.19151163  1
  Pd  Pd152  1  0.80915527  0.20887081  0.40803891  1
  Pd  Pd153  1  0.80140188  0.00214328  0.00862765  1
  Pd  Pd154  1  0.18911653  0.41230468  0.40460069  1
  Pd  Pd155  1  0.59262266  0.01159078  0.01140067  1
  Pd  Pd156  1  0.00988164  0.00048540  0.39895491  1
  Pd  Pd157  1  0.20325950  0.79315741  0.18982921  1
  Pd  Pd158  1  0.00135872  0.40360945  0.19285348  1
  Pd  Pd159  1  0.20014100  0.80575684  0.60382320  1
  Pd  Pd160  1  0.20418974  0.59521983  0.59769761  1
  Pd  Pd161  1  -0.00685388  0.80756130  0.59163876  1
  Pd  Pd162  1  0.18939491  -0.00194880  0.60007457  1
  Pd  Pd163  1  0.39204961  0.21227041  0.60280969  1
  Pd  Pd164  1  0.40136748  0.60266452  0.40739528  1
  Pd  Pd165  1  0.19747368  0.59243953  0.41008896  1
  Pd  Pd166  1  0.80252014  0.40086656  0.20610006  1
  Pd  Pd167  1  0.80374941  0.00758634  0.19448209  1
  Pd  Pd168  1  0.60934116  0.80394022  0.39453235  1
  Pd  Pd169  1  0.80193535  -0.00050700  0.60300354  1
  Pd  Pd170  1  0.39956747  0.59081682  -0.00792796  1
  Pd  Pd171  1  0.40058960  0.60014928  0.20346195  1
  Pd  Pd172  1  0.19915279  0.01150289  0.20458492  1
  Pd  Pd173  1  0.79128318  0.58930680  0.60505141  1
  Pd  Pd174  1  0.41126950  0.40307068  0.20916769  1
  Pd  Pd175  1  0.39743770  0.40658609  0.00206553  1
  Pd  Pd176  1  0.80369477  0.80289004  0.58884953  1
  Pd  Pd177  1  0.60074914  0.60199215  0.40515131  1
  Pd  Pd178  1  0.79309892  0.79629910  0.20155173  1
  Pd  Pd179  1  -0.00562348  0.60559922  0.00873020  1
  Pd  Pd180  1  0.19690869  0.80734604  0.00155764  1
  Pd  Pd181  1  0.39809454  0.79795403  0.20116500  1
  Pd  Pd182  1  0.40721768  0.39480598  0.39102016  1
  Pd  Pd183  1  0.40310638  0.79807861  0.80200957  1
  Pd  Pd184  1  -0.00087843  0.39487423  0.40165946  1
  Pd  Pd185  1  0.60678375  0.39684771  0.38719568  1
  Pd  Pd186  1  0.59788790  0.60156381  -0.00468190  1
  Pd  Pd187  1  0.78998850  0.80500998  0.81113615  1
  Pd  Pd188  1  0.60965573  0.19590861  0.59608645  1
  Pd  Pd189  1  0.19011274  0.79876861  0.79534695  1
  Pd  Pd190  1  -0.00480942  0.60498665  0.18977900  1
  Pd  Pd191  1  0.00208779  0.40477949  0.00877286  1
  Pd  Pd192  1  0.79470237  0.39599190  0.59843342  1
  Pd  Pd193  1  0.19272819  0.20459800  0.00520809  1
  Pd  Pd194  1  0.19955487  0.40429670  0.80896298  1
  Pd  Pd195  1  -0.00111843  0.00902328  0.20791438  1
  Pd  Pd196  1  0.80068696  0.58853464  0.79981304  1
  Pd  Pd197  1  0.59031948  -0.00294377  0.19139257  1
  Pd  Pd198  1  0.40792312  0.80744882  0.40856921  1
  Pd  Pd199  1  0.18630424  0.39280066  0.18987876  1
  Rh  Rh200  1  0.80175942  0.40195335  0.80616865  1
  Rh  Rh201  1  0.38762601  0.81054507  -0.00839270  1
  Rh  Rh202  1  0.00072005  0.81174762  0.81089135  1
  Rh  Rh203  1  0.59481467  0.79066976  0.60755757  1
  Rh  Rh204  1  0.40168761  0.00150813  0.80457591  1
  Rh  Rh205  1  0.60002620  0.39500186  0.00542107  1
  Rh  Rh206  1  0.60236988  -0.00935260  0.79161922  1
  Rh  Rh207  1  0.59669079  0.59272915  0.19819675  1
  Rh  Rh208  1  0.80152514  -0.00966002  0.79170631  1
  Rh  Rh209  1  -0.00174867  0.59835392  0.60541817  1
  Rh  Rh210  1  0.20161072  0.19240799  0.38917819  1
  Rh  Rh211  1  0.39210148  0.21273563  0.21289427  1
  Rh  Rh212  1  0.00394854  -0.00053204  -0.01133066  1
  Rh  Rh213  1  0.40612305  -0.00676349  0.19619343  1
  Rh  Rh214  1  0.00301925  0.79319240  0.19790099  1
  Rh  Rh215  1  0.20700609  0.58862392  -0.00443736  1
  Rh  Rh216  1  0.00045436  0.19417081  0.80024049  1
  Rh  Rh217  1  0.60911551  0.40371715  0.60501888  1
  Rh  Rh218  1  0.41270553  0.18983445  -0.01471628  1
  Rh  Rh219  1  0.80141057  0.60138920  0.39974684  1
  Rh  Rh220  1  0.18890392  0.80487158  0.40109871  1
  Rh  Rh221  1  0.40579161  -0.01150889  0.59570870  1
  Rh  Rh222  1  0.59249099  0.20121063  0.41014083  1
  Rh  Rh223  1  0.00616635  0.59322037  0.79175786  1
  Rh  Rh224  1  0.00261969  0.19504075  0.20767484  1
  Rh  Rh225  1  0.20232024  0.40320847  0.59319493  1
  Rh  Rh226  1  0.20715447  0.20726891  0.60807781  1
  Rh  Rh227  1  0.60486009  0.21229610  0.18683813  1
  Rh  Rh228  1  0.60475158  0.39160157  0.80907518  1
  Rh  Rh229  1  0.80315178  0.60027864  0.19283630  1
  Rh  Rh230  1  0.39680227  0.39545627  0.80065849  1
  Rh  Rh231  1  0.61407513  0.78754303  -0.01011867  1
  Rh  Rh232  1  0.79282325  -0.00501803  0.39704734  1
  Rh  Rh233  1  0.59517866  0.20697592  0.80769795  1
  Rh  Rh234  1  0.19045709  0.00421844  0.79839040  1
  Rh  Rh235  1  0.60181781  0.79640912  0.20392902  1
  Rh  Rh236  1  0.20794042  0.00117145  -0.00272282  1
  Rh  Rh237  1  0.80504616  0.20603628  0.80005960  1
  Rh  Rh238  1  0.00404936  0.60762780  0.40095057  1
  Rh  Rh239  1  0.59444089  0.60221275  0.80347198  1
  Rh  Rh240  1  0.00369970  0.40210550  0.60401160  1
  Rh  Rh241  1  -0.00413286  0.40323326  0.79935904  1
  Rh  Rh242  1  0.59448286  0.00087038  0.40510385  1
  Rh  Rh243  1  0.80866737  0.39660712  -0.00352053  1
  Rh  Rh244  1  0.20770276  0.19830233  0.79790229  1
  Rh  Rh245  1  0.20642296  0.60347566  0.19915412  1
  Rh  Rh246  1  -0.00754115  0.19413736  0.59790993  1
  Rh  Rh247  1  0.60005888  0.00574340  0.59811304  1
  Rh  Rh248  1  0.80082666  0.60217123  0.00022829  1
  Rh  Rh249  1  -0.00381379  0.19103266  -0.00908156  1
