# generated using pymatgen
data_ZrScNbPdRh
_symmetry_space_group_name_H-M   'P 1'
_cell_length_a   16.55392595
_cell_length_b   16.55516051
_cell_length_c   16.55560481
_cell_angle_alpha   89.99021167
_cell_angle_beta   90.00607943
_cell_angle_gamma   90.00614090
_symmetry_Int_Tables_number   1
_chemical_formula_structural   ZrScNbPdRh
_chemical_formula_sum   'Zr50 Sc50 Nb50 Pd50 Rh50'
_cell_volume   4537.11140988
_cell_formula_units_Z   50
loop_
 _symmetry_equiv_pos_site_id
 _symmetry_equiv_pos_as_xyz
  1  'x, y, z'
loop_
 _atom_site_type_symbol
 _atom_site_label
 _atom_site_symmetry_multiplicity
 _atom_site_fract_x
 _atom_site_fract_y
 _atom_site_fract_z
 _atom_site_occupancy
  Zr  Zr0  1  0.50470202  0.69621759  0.89609608  1
  Zr  Zr1  1  0.90530647  0.49439523  0.69992056  1
  Zr  Zr2  1  0.70498894  0.69898820  0.29913147  1
  Zr  Zr3  1  0.50305937  0.49560502  0.28755199  1
  Zr  Zr4  1  0.90219112  0.09834426  0.09849389  1
  Zr  Zr5  1  0.29872684  0.29962118  0.29380006  1
  Zr  Zr6  1  0.69301269  0.49336599  0.10412413  1
  Zr  Zr7  1  0.30246550  0.89950509  0.89609633  1
  Zr  Zr8  1  0.90428544  0.70470852  0.10223076  1
  Zr  Zr9  1  0.10684617  0.29316492  0.91185440  1
  Zr  Zr10  1  0.30296848  0.69762173  0.89587772  1
  Zr  Zr11  1  0.49603067  0.49963956  0.69658422  1
  Zr  Zr12  1  0.88923655  0.50222946  0.89779466  1
  Zr  Zr13  1  0.70252816  0.49413916  0.49473314  1
  Zr  Zr14  1  0.30093445  0.69833256  0.69897653  1
  Zr  Zr15  1  0.69515985  0.90297874  0.90833217  1
  Zr  Zr16  1  0.90771344  0.70355700  0.69339928  1
  Zr  Zr17  1  0.50441306  0.29270300  0.30195303  1
  Zr  Zr18  1  0.49779094  0.10600318  0.69645569  1
  Zr  Zr19  1  0.09835331  0.29613525  0.30173653  1
  Zr  Zr20  1  0.90639398  0.29640300  0.69308770  1
  Zr  Zr21  1  0.30055695  0.48978092  0.11043223  1
  Zr  Zr22  1  0.30163751  0.09855353  0.68435678  1
  Zr  Zr23  1  0.10797674  0.30517350  0.10295746  1
  Zr  Zr24  1  0.48691093  0.90657063  0.30112352  1
  Zr  Zr25  1  0.30315149  0.49790069  0.50075684  1
  Zr  Zr26  1  0.69272614  0.29514525  0.90494565  1
  Zr  Zr27  1  0.89947357  0.09507111  0.31028610  1
  Zr  Zr28  1  0.89766100  0.49749771  0.10712207  1
  Zr  Zr29  1  0.70104408  0.09582969  0.10004173  1
  Zr  Zr30  1  0.70352341  0.50208606  0.70752293  1
  Zr  Zr31  1  0.49986554  0.90917681  0.90089799  1
  Zr  Zr32  1  0.10279404  0.69854511  0.69200790  1
  Zr  Zr33  1  0.50208525  0.29650471  0.50739007  1
  Zr  Zr34  1  0.89535087  0.10521776  0.69936778  1
  Zr  Zr35  1  0.49538235  0.90160172  0.69751072  1
  Zr  Zr36  1  0.49791468  0.49640601  0.10261848  1
  Zr  Zr37  1  0.69240711  0.29533423  0.69182264  1
  Zr  Zr38  1  0.10313760  0.49524455  0.69774247  1
  Zr  Zr39  1  0.49425614  0.10101037  0.30038751  1
  Zr  Zr40  1  0.89469645  0.70244008  0.91254674  1
  Zr  Zr41  1  0.09603485  0.30019202  0.49912710  1
  Zr  Zr42  1  0.09610567  0.90135718  0.10547917  1
  Zr  Zr43  1  0.89501215  0.90800844  0.70277890  1
  Zr  Zr44  1  0.10440760  0.90348585  0.30076093  1
  Zr  Zr45  1  0.89460145  0.10131051  0.90262435  1
  Zr  Zr46  1  0.10334831  0.10033974  0.69029513  1
  Zr  Zr47  1  0.90303912  0.69562631  0.29883859  1
  Zr  Zr48  1  0.70001856  0.91719877  0.29975510  1
  Zr  Zr49  1  0.90304257  0.29361840  0.49522714  1
  Sc  Sc50  1  0.29788203  0.10454034  0.10802267  1
  Sc  Sc51  1  0.68877494  0.70350194  0.70404505  1
  Sc  Sc52  1  0.29935628  0.70047470  0.49573667  1
  Sc  Sc53  1  0.70415387  0.10254096  0.70381526  1
  Sc  Sc54  1  0.90483543  0.29442532  0.89879222  1
  Sc  Sc55  1  0.69496638  0.70534606  0.50254450  1
  Sc  Sc56  1  0.10068335  0.89416832  0.49398643  1
  Sc  Sc57  1  0.30298641  0.49641362  0.89495457  1
  Sc  Sc58  1  0.50042553  0.30614490  0.10275478  1
  Sc  Sc59  1  0.49251381  0.89867523  0.49713008  1
  Sc  Sc60  1  0.29856425  0.90181786  0.49091958  1
  Sc  Sc61  1  0.48580470  0.10134138  0.49801120  1
  Sc  Sc62  1  0.89974474  0.90420334  0.91451779  1
  Sc  Sc63  1  0.49401010  0.69996026  0.29446372  1
  Sc  Sc64  1  0.09959191  0.10902621  0.10273322  1
  Sc  Sc65  1  0.10211941  0.49938736  0.49530360  1
  Sc  Sc66  1  0.10292709  0.70030031  0.29983892  1
  Sc  Sc67  1  0.10788557  0.48677598  0.89824852  1
  Sc  Sc68  1  0.10407112  0.70437730  0.89991296  1
  Sc  Sc69  1  0.49882821  0.29428482  0.69892510  1
  Sc  Sc70  1  0.30329845  0.30034512  0.70137839  1
  Sc  Sc71  1  0.29911134  0.29637845  0.49673815  1
  Sc  Sc72  1  0.70906884  0.70372234  0.09053891  1
  Sc  Sc73  1  0.49350238  0.70638200  0.50363769  1
  Sc  Sc74  1  0.89546303  0.89847317  0.10365511  1
  Sc  Sc75  1  0.69069559  0.29876859  0.10303033  1
  Sc  Sc76  1  0.90131511  0.30805991  0.30312362  1
  Sc  Sc77  1  0.69658854  0.29698709  0.49405490  1
  Sc  Sc78  1  0.10329737  0.09511791  0.29568008  1
  Sc  Sc79  1  0.90629177  0.49810718  0.48613671  1
  Sc  Sc80  1  0.09902053  0.30234280  0.69813725  1
  Sc  Sc81  1  0.30037791  0.69864725  0.11381354  1
  Sc  Sc82  1  0.49528726  0.10078172  0.10207451  1
  Sc  Sc83  1  0.90990326  0.30192637  0.10277128  1
  Sc  Sc84  1  0.29519753  0.70717033  0.30343211  1
  Sc  Sc85  1  0.10697080  0.89432139  0.68986355  1
  Sc  Sc86  1  0.30092428  0.30070242  0.90211653  1
  Sc  Sc87  1  0.69655295  0.90440812  0.70391238  1
  Sc  Sc88  1  0.70803201  0.10533614  0.49647660  1
  Sc  Sc89  1  0.91622586  0.70292927  0.49495085  1
  Sc  Sc90  1  0.49791690  0.50435812  0.90640405  1
  Sc  Sc91  1  0.10109947  0.50293597  0.30222538  1
  Sc  Sc92  1  0.49833893  0.48599945  0.50233713  1
  Sc  Sc93  1  0.30145468  0.49995341  0.70050845  1
  Sc  Sc94  1  0.10983120  0.10395290  0.49622290  1
  Sc  Sc95  1  0.31471970  0.10586892  0.90702110  1
  Sc  Sc96  1  0.10359469  0.69814015  0.49063951  1
  Sc  Sc97  1  0.49612015  0.29359226  0.90067116  1
  Sc  Sc98  1  0.50037904  0.69018920  0.10203869  1
  Sc  Sc99  1  0.49601120  0.70173515  0.69811791  1
  Nb  Nb100  1  0.10077537  0.90090058  0.90278950  1
  Nb  Nb101  1  0.29551709  0.90600858  0.29187163  1
  Nb  Nb102  1  0.10163004  0.09819253  0.90223193  1
  Nb  Nb103  1  0.29889934  0.90435826  0.69815360  1
  Nb  Nb104  1  0.90112694  0.90277928  0.49810698  1
  Nb  Nb105  1  0.30221400  0.09259378  0.30362524  1
  Nb  Nb106  1  0.69241864  0.90197481  0.10045947  1
  Nb  Nb107  1  0.90502757  0.90134554  0.30935841  1
  Nb  Nb108  1  0.90272706  0.10313801  0.50504308  1
  Nb  Nb109  1  0.69927783  0.10120030  0.90231484  1
  Nb  Nb110  1  0.69946535  0.50615098  0.90032487  1
  Nb  Nb111  1  0.70217388  0.29591524  0.30086324  1
  Nb  Nb112  1  0.29972992  0.90016140  0.10410452  1
  Nb  Nb113  1  0.10209314  0.49810109  0.09768629  1
  Nb  Nb114  1  0.70265828  0.69265627  0.89828095  1
  Nb  Nb115  1  0.69456625  0.89813438  0.50226059  1
  Nb  Nb116  1  0.49888811  0.89820173  0.09885794  1
  Nb  Nb117  1  0.71290143  0.49176648  0.29996277  1
  Nb  Nb118  1  0.30527690  0.49998835  0.30199585  1
  Nb  Nb119  1  0.28701790  0.29890296  0.09908485  1
  Nb  Nb120  1  0.88465832  0.49960082  0.30097943  1
  Nb  Nb121  1  0.69713580  0.10780480  0.29738970  1
  Nb  Nb122  1  0.10034294  0.69903749  0.10176347  1
  Nb  Nb123  1  0.50630929  0.10540653  0.89228643  1
  Nb  Nb124  1  0.29759470  0.09844160  0.49975026  1
  Nb  Nb125  1  -0.00145545  0.80374472  0.80298234  1
  Nb  Nb126  1  0.60208272  0.80331903  0.39212762  1
  Nb  Nb127  1  0.60203945  0.59576718  0.59504383  1
  Nb  Nb128  1  0.60158376  0.80975407  0.19799417  1
  Nb  Nb129  1  0.19941428  0.00129336  0.80195791  1
  Nb  Nb130  1  0.00094177  0.60336627  0.80453759  1
  Nb  Nb131  1  0.79638513  0.19761857  0.20658208  1
  Nb  Nb132  1  0.59857049  -0.00012435  0.59612666  1
  Nb  Nb133  1  0.19636309  0.60028922  0.00815302  1
  Nb  Nb134  1  0.80094117  0.81008728  0.40226824  1
  Nb  Nb135  1  0.20303374  0.80134555  0.00587771  1
  Nb  Nb136  1  0.00690247  0.59646427  0.00288649  1
  Nb  Nb137  1  0.59853191  0.59847360  0.39868717  1
  Nb  Nb138  1  0.39935048  0.80406880  0.00383542  1
  Nb  Nb139  1  0.80104163  0.79941388  0.80351848  1
  Nb  Nb140  1  0.79971949  0.60117241  0.59857264  1
  Nb  Nb141  1  0.79398673  0.40263304  -0.00250351  1
  Nb  Nb142  1  0.20073352  -0.00330668  -0.00239260  1
  Nb  Nb143  1  0.60282234  0.40303073  0.80413377  1
  Nb  Nb144  1  0.19980409  0.19017969  0.80153969  1
  Nb  Nb145  1  -0.00470165  0.00168641  0.59693108  1
  Nb  Nb146  1  0.80246612  0.40167990  0.59892493  1
  Nb  Nb147  1  0.80125024  0.80297478  0.59779872  1
  Nb  Nb148  1  0.40357032  0.59246662  0.39586070  1
  Nb  Nb149  1  0.00688346  -0.00067715  0.80059774  1
  Pd  Pd150  1  0.20174919  0.59925211  0.59267596  1
  Pd  Pd151  1  0.80598117  0.61257667  0.79114690  1
  Pd  Pd152  1  0.00447183  0.00337164  0.00192486  1
  Pd  Pd153  1  0.00021246  0.59143852  0.59455122  1
  Pd  Pd154  1  0.40429168  0.79834242  0.19669567  1
  Pd  Pd155  1  0.59984794  0.40184262  0.39217308  1
  Pd  Pd156  1  0.20205678  0.59668925  0.20288215  1
  Pd  Pd157  1  0.60842734  0.60621344  0.20168139  1
  Pd  Pd158  1  0.40166938  0.20625064  0.00819430  1
  Pd  Pd159  1  0.39055867  0.80469271  0.59723815  1
  Pd  Pd160  1  0.00986459  0.00595900  0.40809463  1
  Pd  Pd161  1  0.79577800  0.20558404  0.80038255  1
  Pd  Pd162  1  0.20355866  0.19581818  0.39475814  1
  Pd  Pd163  1  0.00830267  0.19540113  0.80107630  1
  Pd  Pd164  1  0.20651173  0.80142629  0.59005763  1
  Pd  Pd165  1  0.59668905  0.19085021  0.40669503  1
  Pd  Pd166  1  0.39782161  0.20413406  0.19604590  1
  Pd  Pd167  1  0.59077111  0.00184886  0.19736107  1
  Pd  Pd168  1  0.79465837  0.60150345  0.19210858  1
  Pd  Pd169  1  0.00344960  0.40662924  0.20889044  1
  Pd  Pd170  1  0.60228966  0.00707394  0.79329657  1
  Pd  Pd171  1  0.59082292  0.19461871  0.00592468  1
  Pd  Pd172  1  -0.00688103  0.19789516  0.20708013  1
  Pd  Pd173  1  0.20487360  0.39510822  0.60078475  1
  Pd  Pd174  1  0.19494901  0.59570925  0.80618738  1
  Pd  Pd175  1  0.60244691  0.80286160  0.80194177  1
  Pd  Pd176  1  0.00188532  0.59291346  0.20085058  1
  Pd  Pd177  1  0.79517063  -0.00113192  0.59278117  1
  Pd  Pd178  1  0.00177405  0.80340837  0.20702939  1
  Pd  Pd179  1  0.38942514  0.60403502  0.00671996  1
  Pd  Pd180  1  0.79703291  0.00139744  0.40813174  1
  Pd  Pd181  1  0.19546409  0.80409943  0.79998430  1
  Pd  Pd182  1  0.40809275  0.39791101  0.80144686  1
  Pd  Pd183  1  0.40483078  0.79880199  0.80120975  1
  Pd  Pd184  1  0.79891333  0.61167354  0.41103011  1
  Pd  Pd185  1  0.60266545  0.60128677  0.00357322  1
  Pd  Pd186  1  0.80645425  0.00253586  0.19919238  1
  Pd  Pd187  1  0.39445497  0.00898455  0.79597242  1
  Pd  Pd188  1  0.00432896  0.39891182  0.80813347  1
  Pd  Pd189  1  0.79571956  0.80957260  0.20640543  1
  Pd  Pd190  1  0.79370788  0.38577446  0.80127854  1
  Pd  Pd191  1  -0.00699639  0.40431550  -0.00534010  1
  Pd  Pd192  1  0.59605963  0.00445048  0.40959784  1
  Pd  Pd193  1  0.59476913  0.79153600  0.00431599  1
  Pd  Pd194  1  0.39687636  0.39483991  0.00090486  1
  Pd  Pd195  1  0.19847170  0.40163880  0.39658282  1
  Pd  Pd196  1  0.59429800  0.01060163  0.00231954  1
  Pd  Pd197  1  0.39685755  0.00012593  0.00702333  1
  Pd  Pd198  1  0.80210085  0.21092076  0.01180857  1
  Pd  Pd199  1  0.40322387  0.39699813  0.39701779  1
  Rh  Rh200  1  0.59984503  0.80414942  0.59704603  1
  Rh  Rh201  1  0.19635857  0.80344301  0.19951869  1
  Rh  Rh202  1  0.40058341  0.59941576  0.79527180  1
  Rh  Rh203  1  0.20192432  0.00412345  0.19432661  1
  Rh  Rh204  1  -0.00305716  0.81275602  0.60156993  1
  Rh  Rh205  1  0.79866880  -0.00207419  0.81540620  1
  Rh  Rh206  1  -0.00329581  0.40261454  0.58989197  1
  Rh  Rh207  1  0.00257703  0.19453119  0.39782330  1
  Rh  Rh208  1  0.80072417  0.59154566  0.00924665  1
  Rh  Rh209  1  0.20126887  0.38712369  0.79827523  1
  Rh  Rh210  1  0.20469698  0.19044859  -0.00269252  1
  Rh  Rh211  1  -0.00444631  -0.00079800  0.20181860  1
  Rh  Rh212  1  0.00087074  0.59727457  0.39045779  1
  Rh  Rh213  1  0.00174413  0.19972747  0.00313825  1
  Rh  Rh214  1  0.79560880  -0.00207771  0.00238751  1
  Rh  Rh215  1  0.20120131  0.19685858  0.20566959  1
  Rh  Rh216  1  0.39149396  0.00167483  0.40212586  1
  Rh  Rh217  1  0.00601644  0.19370546  0.59349200  1
  Rh  Rh218  1  0.20280839  0.00096352  0.39980700  1
  Rh  Rh219  1  0.60124317  0.40483604  -0.00960035  1
  Rh  Rh220  1  0.40498354  0.59755959  0.59107271  1
  Rh  Rh221  1  0.80189754  0.38964021  0.40460154  1
  Rh  Rh222  1  0.60127343  0.19904963  0.19914552  1
  Rh  Rh223  1  0.20197658  0.20835651  0.60157394  1
  Rh  Rh224  1  0.60622030  0.40736371  0.61042325  1
  Rh  Rh225  1  0.40128067  0.79608575  0.39371126  1
  Rh  Rh226  1  0.00000301  0.40429307  0.39323430  1
  Rh  Rh227  1  0.21052267  0.40743004  -0.00091611  1
  Rh  Rh228  1  0.39700090  0.00228992  0.19585665  1
  Rh  Rh229  1  0.80374164  0.20124550  0.39405152  1
  Rh  Rh230  1  0.40172737  -0.00576080  0.59341781  1
  Rh  Rh231  1  0.20036917  0.80368576  0.39440877  1
  Rh  Rh232  1  0.19604565  0.40194835  0.20780781  1
  Rh  Rh233  1  0.00000212  0.79920188  0.39404017  1
  Rh  Rh234  1  0.39482412  0.19561910  0.79808257  1
  Rh  Rh235  1  0.60127081  0.18609237  0.59372203  1
  Rh  Rh236  1  0.39305845  0.19966009  0.39995311  1
  Rh  Rh237  1  0.00881212  0.79307711  -0.00100065  1
  Rh  Rh238  1  0.79653078  0.38774750  0.19430616  1
  Rh  Rh239  1  0.39517597  0.39263209  0.60081508  1
  Rh  Rh240  1  0.20931749  0.59692095  0.39907200  1
  Rh  Rh241  1  0.59225397  0.59416150  0.79604927  1
  Rh  Rh242  1  0.39881395  0.38938975  0.19994299  1
  Rh  Rh243  1  0.60476216  0.39253282  0.20836025  1
  Rh  Rh244  1  0.60031065  0.20221860  0.80081998  1
  Rh  Rh245  1  0.39444165  0.20543974  0.59487785  1
  Rh  Rh246  1  0.79781622  0.20765777  0.59580506  1
  Rh  Rh247  1  0.19793027  -0.00781709  0.59585762  1
  Rh  Rh248  1  0.39295078  0.60135320  0.20801113  1
  Rh  Rh249  1  0.79242471  0.80728206  -0.00281054  1
