# generated using pymatgen
data_ZrScNbPdRh
_symmetry_space_group_name_H-M   'P 1'
_cell_length_a   16.55799936
_cell_length_b   16.56037737
_cell_length_c   16.56054227
_cell_angle_alpha   89.97407183
_cell_angle_beta   90.02440513
_cell_angle_gamma   90.02200730
_symmetry_Int_Tables_number   1
_chemical_formula_structural   ZrScNbPdRh
_chemical_formula_sum   'Zr50 Sc50 Nb50 Pd50 Rh50'
_cell_volume   4541.01073255
_cell_formula_units_Z   50
loop_
 _symmetry_equiv_pos_site_id
 _symmetry_equiv_pos_as_xyz
  1  'x, y, z'
loop_
 _atom_site_type_symbol
 _atom_site_label
 _atom_site_symmetry_multiplicity
 _atom_site_fract_x
 _atom_site_fract_y
 _atom_site_fract_z
 _atom_site_occupancy
  Zr  Zr0  1  0.90786975  0.10037530  0.49967490  1
  Zr  Zr1  1  0.10184295  0.70585625  0.29742627  1
  Zr  Zr2  1  0.49957589  0.50181803  0.30608019  1
  Zr  Zr3  1  0.50054015  0.69247848  0.30404016  1
  Zr  Zr4  1  0.90084273  0.49531584  0.90031250  1
  Zr  Zr5  1  0.68788249  0.30296793  0.10592407  1
  Zr  Zr6  1  0.30433889  0.30010383  0.69874398  1
  Zr  Zr7  1  0.89472479  0.29946958  0.30475141  1
  Zr  Zr8  1  0.70047135  0.29624279  0.30534263  1
  Zr  Zr9  1  0.30978760  0.50544215  0.29027552  1
  Zr  Zr10  1  0.49946738  0.29099315  0.90391801  1
  Zr  Zr11  1  0.30115495  0.70472738  0.29541655  1
  Zr  Zr12  1  0.90286589  0.09814672  0.69950086  1
  Zr  Zr13  1  0.10063776  0.70185153  0.88591526  1
  Zr  Zr14  1  0.29794289  0.89261190  0.09586800  1
  Zr  Zr15  1  0.30072309  0.90473384  0.70128628  1
  Zr  Zr16  1  0.31000418  0.70122478  0.90468075  1
  Zr  Zr17  1  0.90626821  0.50550764  0.09694295  1
  Zr  Zr18  1  0.89994200  0.89815537  0.30468682  1
  Zr  Zr19  1  0.28214697  0.70005278  0.70301728  1
  Zr  Zr20  1  0.29572817  0.50455528  0.89980938  1
  Zr  Zr21  1  0.49959828  0.90121014  0.50579675  1
  Zr  Zr22  1  0.49469707  0.90445578  0.90384225  1
  Zr  Zr23  1  0.08600267  0.29632488  0.89821886  1
  Zr  Zr24  1  0.09244399  0.69884245  0.10403106  1
  Zr  Zr25  1  0.50271000  0.50572500  0.50250331  1
  Zr  Zr26  1  0.70059101  0.29921799  0.50806034  1
  Zr  Zr27  1  0.50887441  0.70681049  0.49699406  1
  Zr  Zr28  1  0.29999305  0.09570572  0.69279628  1
  Zr  Zr29  1  0.91577686  0.10559624  0.90161889  1
  Zr  Zr30  1  0.50956372  0.50269676  0.70035128  1
  Zr  Zr31  1  0.70704902  0.49214466  0.09547519  1
  Zr  Zr32  1  0.89858923  0.10059340  0.09721642  1
  Zr  Zr33  1  0.89900703  0.70400791  0.08761056  1
  Zr  Zr34  1  0.09782052  0.50249565  0.29682051  1
  Zr  Zr35  1  0.50098342  0.09879088  0.89784568  1
  Zr  Zr36  1  0.49970625  0.10964586  0.09971757  1
  Zr  Zr37  1  0.30207765  0.29547598  0.10251278  1
  Zr  Zr38  1  0.09649068  0.08498745  0.69954394  1
  Zr  Zr39  1  0.50109050  0.30002338  0.29295767  1
  Zr  Zr40  1  0.30388744  0.91000012  0.50132892  1
  Zr  Zr41  1  0.70278788  0.90389117  0.09415484  1
  Zr  Zr42  1  0.69487413  0.09677295  0.10292729  1
  Zr  Zr43  1  0.90281510  0.50225589  0.30567861  1
  Zr  Zr44  1  0.50359542  0.29863536  0.69817771  1
  Zr  Zr45  1  0.10259898  0.09819297  0.49985943  1
  Zr  Zr46  1  0.09807233  0.89432473  0.09848194  1
  Zr  Zr47  1  0.10348664  0.88688015  0.70178129  1
  Zr  Zr48  1  0.09787392  0.89697155  0.29849012  1
  Zr  Zr49  1  0.30579471  0.49847989  0.69648169  1
  Sc  Sc50  1  0.10081328  0.10081369  0.30730159  1
  Sc  Sc51  1  0.30584518  0.49406863  0.50016437  1
  Sc  Sc52  1  0.11364040  0.30375486  0.09801389  1
  Sc  Sc53  1  0.49746744  0.90244873  0.30875279  1
  Sc  Sc54  1  0.09649610  0.89934932  0.49812698  1
  Sc  Sc55  1  0.10171478  0.49570998  0.48778355  1
  Sc  Sc56  1  0.49706628  0.10232930  0.70537147  1
  Sc  Sc57  1  0.50262214  0.51344965  0.89617039  1
  Sc  Sc58  1  0.69010103  0.09437334  0.70674123  1
  Sc  Sc59  1  0.29706352  0.29337639  0.29487984  1
  Sc  Sc60  1  0.10289207  0.30683416  0.69598602  1
  Sc  Sc61  1  0.90423741  0.70069467  0.30533124  1
  Sc  Sc62  1  0.50599636  0.91276236  0.09250842  1
  Sc  Sc63  1  0.29994679  0.71002163  0.50506594  1
  Sc  Sc64  1  0.29358211  0.09842272  0.30398478  1
  Sc  Sc65  1  0.69583058  0.11475668  0.50525169  1
  Sc  Sc66  1  0.88127347  0.50742979  0.70480276  1
  Sc  Sc67  1  0.29796015  0.69055440  0.09756318  1
  Sc  Sc68  1  0.29923516  0.30273205  0.50857805  1
  Sc  Sc69  1  0.29658430  0.90273672  0.90110391  1
  Sc  Sc70  1  0.70095225  0.50701215  0.89321391  1
  Sc  Sc71  1  0.70300695  0.49080033  0.30150590  1
  Sc  Sc72  1  0.90813012  0.90067300  0.09909786  1
  Sc  Sc73  1  0.88649563  0.30302841  0.09024019  1
  Sc  Sc74  1  0.49700961  0.69849483  0.08438052  1
  Sc  Sc75  1  0.10827242  0.50753678  0.71152253  1
  Sc  Sc76  1  0.50418015  0.69508279  0.69453396  1
  Sc  Sc77  1  0.50856998  0.90531992  0.69223942  1
  Sc  Sc78  1  0.90289354  0.69980575  0.70501824  1
  Sc  Sc79  1  0.89332387  0.70076822  0.49699862  1
  Sc  Sc80  1  0.50537847  0.10134923  0.29838083  1
  Sc  Sc81  1  0.29159234  0.90132910  0.30798628  1
  Sc  Sc82  1  0.89472587  0.29214865  0.50072505  1
  Sc  Sc83  1  0.89870899  0.89173820  0.89982198  1
  Sc  Sc84  1  0.49973772  0.49541432  0.11004725  1
  Sc  Sc85  1  0.09978695  0.29795972  0.49225201  1
  Sc  Sc86  1  0.70105994  0.90823729  0.29334263  1
  Sc  Sc87  1  0.69798641  0.69970142  0.49092514  1
  Sc  Sc88  1  0.89522339  0.30625888  0.69858049  1
  Sc  Sc89  1  0.89829800  0.09888082  0.30216715  1
  Sc  Sc90  1  0.70250952  0.10139985  0.29253168  1
  Sc  Sc91  1  0.90639898  0.89800618  0.70437482  1
  Sc  Sc92  1  0.09334721  0.09126791  0.09444544  1
  Sc  Sc93  1  0.29480154  0.10544526  0.10852274  1
  Sc  Sc94  1  0.29682502  0.29854775  0.89881373  1
  Sc  Sc95  1  0.09836365  0.49370764  0.90457107  1
  Sc  Sc96  1  0.70598458  0.68868360  0.70346720  1
  Sc  Sc97  1  0.69686503  0.30619998  0.91142397  1
  Sc  Sc98  1  0.89560705  0.69472216  0.89878351  1
  Sc  Sc99  1  0.10654095  0.70918537  0.50869689  1
  Nb  Nb100  1  0.50618400  0.70250863  0.89447929  1
  Nb  Nb101  1  0.89283989  0.89522728  0.49919668  1
  Nb  Nb102  1  0.70906070  0.50181140  0.51205233  1
  Nb  Nb103  1  0.10046469  0.90809374  0.90203124  1
  Nb  Nb104  1  0.70061212  0.49401444  0.69520356  1
  Nb  Nb105  1  0.50184477  0.10023447  0.50217442  1
  Nb  Nb106  1  0.09731741  0.29741239  0.29843988  1
  Nb  Nb107  1  0.49853175  0.29578827  0.09721686  1
  Nb  Nb108  1  0.30051592  0.09565669  0.88433409  1
  Nb  Nb109  1  0.50708765  0.29155804  0.49937385  1
  Nb  Nb110  1  0.09904434  0.09656663  0.89776053  1
  Nb  Nb111  1  0.69843559  0.90018662  0.70187358  1
  Nb  Nb112  1  0.09733022  0.69943873  0.69594846  1
  Nb  Nb113  1  0.70024840  0.09552469  0.89642144  1
  Nb  Nb114  1  0.70083898  0.30916004  0.70001091  1
  Nb  Nb115  1  0.69871313  0.70130263  0.29753266  1
  Nb  Nb116  1  0.30415601  0.09346997  0.49860183  1
  Nb  Nb117  1  0.70229047  0.70010600  0.09386338  1
  Nb  Nb118  1  0.89836652  0.50475271  0.50301503  1
  Nb  Nb119  1  0.10537095  0.49867982  0.10157760  1
  Nb  Nb120  1  0.69896320  0.90364716  0.89473045  1
  Nb  Nb121  1  0.28859994  0.49200303  0.09342754  1
  Nb  Nb122  1  0.69226013  0.89827276  0.50952086  1
  Nb  Nb123  1  0.89996386  0.29488973  0.89869895  1
  Nb  Nb124  1  0.69942626  0.70542460  0.90987633  1
  Nb  Nb125  1  0.39804392  0.39983165  0.00138907  1
  Nb  Nb126  1  0.40640668  0.79705265  0.80104246  1
  Nb  Nb127  1  0.79668457  0.60618854  0.19784868  1
  Nb  Nb128  1  0.00360404  0.39841194  0.19985878  1
  Nb  Nb129  1  0.39843008  -0.00360471  0.20049706  1
  Nb  Nb130  1  0.60028942  0.79502003  0.19641120  1
  Nb  Nb131  1  0.60392863  0.79984301  0.80520811  1
  Nb  Nb132  1  0.19612263  0.19101707  -0.01245711  1
  Nb  Nb133  1  0.60327944  0.00289072  0.40980968  1
  Nb  Nb134  1  0.00038716  0.59685125  0.60103899  1
  Nb  Nb135  1  0.59923770  0.39808247  0.40921423  1
  Nb  Nb136  1  0.00202109  0.20915890  0.19984894  1
  Nb  Nb137  1  0.20365910  0.60219279  0.39414592  1
  Nb  Nb138  1  0.40344784  0.40052311  0.80281028  1
  Nb  Nb139  1  0.79443756  0.80685922  0.59995281  1
  Nb  Nb140  1  0.79464847  -0.00412608  0.41471183  1
  Nb  Nb141  1  0.19582449  0.19122946  0.79972076  1
  Nb  Nb142  1  0.60909497  0.60611313  0.19867822  1
  Nb  Nb143  1  0.79626880  -0.00566032  0.59923343  1
  Nb  Nb144  1  0.40532904  0.80291740  0.19618612  1
  Nb  Nb145  1  0.40350043  0.19677284  0.40819999  1
  Nb  Nb146  1  0.79794654  0.00299527  -0.00896008  1
  Nb  Nb147  1  -0.00596576  0.41303342  0.59679632  1
  Nb  Nb148  1  0.79396128  0.79329877  0.19746583  1
  Nb  Nb149  1  0.79995854  0.20323156  0.80571578  1
  Pd  Pd150  1  0.59670508  0.80433891  0.00000690  1
  Pd  Pd151  1  0.39773498  0.80225574  0.39639563  1
  Pd  Pd152  1  0.38997208  0.60716922  0.41243241  1
  Pd  Pd153  1  0.18954333  0.40843358  0.59728225  1
  Pd  Pd154  1  0.79537893  0.39385167  0.80650980  1
  Pd  Pd155  1  0.79670317  0.40085773  0.40997109  1
  Pd  Pd156  1  0.00234404  0.79474723  0.40774200  1
  Pd  Pd157  1  -0.00519355  0.40769993  0.78754528  1
  Pd  Pd158  1  0.79058107  0.19518980  -0.00585511  1
  Pd  Pd159  1  0.79416274  0.79447842  0.79658591  1
  Pd  Pd160  1  0.00836417  0.60240454  -0.00902001  1
  Pd  Pd161  1  0.79243072  0.19287157  0.61523752  1
  Pd  Pd162  1  0.80404829  0.20167803  0.19798715  1
  Pd  Pd163  1  0.20041899  0.60117419  0.20012425  1
  Pd  Pd164  1  0.61223360  0.20629443  0.79969342  1
  Pd  Pd165  1  0.19385074  0.79153738  -0.00443256  1
  Pd  Pd166  1  0.20892965  0.20242147  0.40543221  1
  Pd  Pd167  1  -0.00347585  -0.01259624  0.59642215  1
  Pd  Pd168  1  0.19505084  0.19779715  0.60287140  1
  Pd  Pd169  1  0.60649978  0.81114332  0.39079729  1
  Pd  Pd170  1  -0.00173172  0.80084524  0.80376999  1
  Pd  Pd171  1  -0.00038223  0.00844378  0.20686159  1
  Pd  Pd172  1  0.20950647  0.40195642  0.39128932  1
  Pd  Pd173  1  0.59730631  0.39999656  0.59566264  1
  Pd  Pd174  1  0.20306494  0.39317905  0.80401857  1
  Pd  Pd175  1  0.19352557  0.59051037  0.58914754  1
  Pd  Pd176  1  0.20109675  -0.00020645  0.20149755  1
  Pd  Pd177  1  0.80712253  0.00568924  0.80033032  1
  Pd  Pd178  1  0.39906176  0.39850915  0.19345357  1
  Pd  Pd179  1  0.38824197  0.01215358  0.00673426  1
  Pd  Pd180  1  0.60994157  0.60643010  0.59787843  1
  Pd  Pd181  1  0.19937538  0.39918413  0.20791751  1
  Pd  Pd182  1  0.40147099  0.19656078  0.59524417  1
  Pd  Pd183  1  0.59681547  0.40004935  0.80835015  1
  Pd  Pd184  1  0.20577187  0.00611202  0.00063711  1
  Pd  Pd185  1  0.39679347  0.60767806  0.59653475  1
  Pd  Pd186  1  0.00039461  0.39254684  0.01028225  1
  Pd  Pd187  1  0.39962050  0.79634599  0.61086406  1
  Pd  Pd188  1  0.60038903  0.59290863  0.00507033  1
  Pd  Pd189  1  0.01031219  0.61199177  0.41234580  1
  Pd  Pd190  1  0.79318274  0.59891413  0.39565383  1
  Pd  Pd191  1  0.18998047  0.60506698  -0.00387582  1
  Pd  Pd192  1  0.58860466  0.40993183  -0.00448326  1
  Pd  Pd193  1  0.38790071  0.19586786  -0.00618662  1
  Pd  Pd194  1  0.40254241  0.38754587  0.40433121  1
  Pd  Pd195  1  0.39973201  0.60309438  0.79322582  1
  Pd  Pd196  1  0.00126500  0.20511303  0.78459108  1
  Pd  Pd197  1  0.00521656  0.21194573  0.60314549  1
  Pd  Pd198  1  0.40324660  0.58808632  0.00704981  1
  Pd  Pd199  1  -0.00382791  0.39348210  0.40347594  1
  Rh  Rh200  1  -0.01072323  0.79612608  0.20030066  1
  Rh  Rh201  1  0.59329389  -0.00668698  0.80278645  1
  Rh  Rh202  1  -0.01091684  0.79141268  0.59873524  1
  Rh  Rh203  1  0.19977707  0.60089541  0.80554891  1
  Rh  Rh204  1  0.79145123  0.80815626  0.39736902  1
  Rh  Rh205  1  0.80077511  0.80981939  0.00112753  1
  Rh  Rh206  1  0.19601604  -0.00480659  0.59458198  1
  Rh  Rh207  1  0.79893673  0.18922620  0.40047006  1
  Rh  Rh208  1  0.20592952  0.79971434  0.19458402  1
  Rh  Rh209  1  0.20002804  0.79909896  0.40364938  1
  Rh  Rh210  1  0.19400566  -0.00188546  0.40381303  1
  Rh  Rh211  1  0.60988361  0.78920637  0.61198196  1
  Rh  Rh212  1  0.59831855  0.40387189  0.20732669  1
  Rh  Rh213  1  0.40094605  0.19189702  0.21056151  1
  Rh  Rh214  1  0.20628336  0.80492103  0.80701075  1
  Rh  Rh215  1  0.80176477  0.40249161  -0.00757499  1
  Rh  Rh216  1  -0.00516972  0.59779149  0.19848780  1
  Rh  Rh217  1  -0.00181965  0.59488154  0.79483330  1
  Rh  Rh218  1  0.60217471  0.00999270  0.59790394  1
  Rh  Rh219  1  -0.00014879  -0.00954699  0.80392967  1
  Rh  Rh220  1  0.20334776  0.39289272  -0.00656057  1
  Rh  Rh221  1  0.39215689  0.20508952  0.80066598  1
  Rh  Rh222  1  -0.00470032  -0.00253916  0.40019342  1
  Rh  Rh223  1  0.80888276  -0.00763751  0.19481302  1
  Rh  Rh224  1  0.18614291  0.19259500  0.19392208  1
  Rh  Rh225  1  0.40823345  0.01072562  0.39434296  1
  Rh  Rh226  1  0.59758292  0.19994671  0.39554889  1
  Rh  Rh227  1  0.60560810  0.00759778  -0.00734020  1
  Rh  Rh228  1  0.80695330  0.40092694  0.59764474  1
  Rh  Rh229  1  0.40782513  0.60663460  0.19069605  1
  Rh  Rh230  1  0.79868130  0.59542236  -0.00223418  1
  Rh  Rh231  1  0.80301633  0.60853066  0.59782824  1
  Rh  Rh232  1  -0.00074565  0.20041640  0.39428028  1
  Rh  Rh233  1  0.19576733  -0.00215533  0.79955577  1
  Rh  Rh234  1  0.20284262  0.80915608  0.59760715  1
  Rh  Rh235  1  0.81236253  0.40800785  0.19763058  1
  Rh  Rh236  1  0.79659101  0.60238754  0.80675491  1
  Rh  Rh237  1  0.60037635  0.20160222  0.20090973  1
  Rh  Rh238  1  -0.00669343  -0.00879956  -0.00718688  1
  Rh  Rh239  1  0.40326577  0.80065071  -0.00065354  1
  Rh  Rh240  1  0.40716632  0.00485062  0.60392665  1
  Rh  Rh241  1  0.00941539  0.20785697  0.01352303  1
  Rh  Rh242  1  0.60976619  0.60649585  0.80013042  1
  Rh  Rh243  1  0.60127570  0.19754891  0.61221627  1
  Rh  Rh244  1  0.00541356  0.80035020  -0.00791133  1
  Rh  Rh245  1  0.40538288  -0.00717122  0.79461385  1
  Rh  Rh246  1  0.60508315  0.19477939  -0.00023943  1
  Rh  Rh247  1  0.41040633  0.39947202  0.60362686  1
  Rh  Rh248  1  0.58930153  -0.00663390  0.20961262  1
  Rh  Rh249  1  0.61109420  0.58577698  0.39739822  1
