# generated using pymatgen
data_ZrScNbPdRh
_symmetry_space_group_name_H-M   'P 1'
_cell_length_a   16.56245772
_cell_length_b   16.56526096
_cell_length_c   16.56051864
_cell_angle_alpha   90.00879171
_cell_angle_beta   90.01978025
_cell_angle_gamma   89.95291687
_symmetry_Int_Tables_number   1
_chemical_formula_structural   ZrScNbPdRh
_chemical_formula_sum   'Zr50 Sc50 Nb50 Pd50 Rh50'
_cell_volume   4543.56578639
_cell_formula_units_Z   50
loop_
 _symmetry_equiv_pos_site_id
 _symmetry_equiv_pos_as_xyz
  1  'x, y, z'
loop_
 _atom_site_type_symbol
 _atom_site_label
 _atom_site_symmetry_multiplicity
 _atom_site_fract_x
 _atom_site_fract_y
 _atom_site_fract_z
 _atom_site_occupancy
  Zr  Zr0  1  0.70512291  0.90628864  0.69838176  1
  Zr  Zr1  1  0.09554876  0.09704012  0.90011528  1
  Zr  Zr2  1  0.49858583  0.51048253  0.68876216  1
  Zr  Zr3  1  0.30613039  0.49674902  0.69983473  1
  Zr  Zr4  1  0.10319928  0.90256700  0.10999869  1
  Zr  Zr5  1  0.10238031  0.70496463  0.89913161  1
  Zr  Zr6  1  0.29501838  0.69950311  0.30265132  1
  Zr  Zr7  1  0.10820700  0.49720176  0.29611417  1
  Zr  Zr8  1  0.29809309  0.29727437  0.49686982  1
  Zr  Zr9  1  0.30020194  0.70118106  0.90409790  1
  Zr  Zr10  1  0.89802893  0.09780492  0.89975816  1
  Zr  Zr11  1  0.49667130  0.09562137  0.49412503  1
  Zr  Zr12  1  0.10561320  0.10012689  0.68828075  1
  Zr  Zr13  1  0.89327250  0.29669527  0.10835897  1
  Zr  Zr14  1  0.90278077  0.69620001  0.68814914  1
  Zr  Zr15  1  0.69898537  0.10129715  0.50174044  1
  Zr  Zr16  1  0.69647910  0.29767257  0.29734133  1
  Zr  Zr17  1  0.29436092  0.29247796  0.30258198  1
  Zr  Zr18  1  0.09657198  0.29555916  0.09958483  1
  Zr  Zr19  1  0.49964739  0.29973802  0.90642018  1
  Zr  Zr20  1  0.70622644  0.50080239  0.90988548  1
  Zr  Zr21  1  0.50497771  0.69788391  0.10128968  1
  Zr  Zr22  1  0.69371472  0.49560909  0.10227590  1
  Zr  Zr23  1  0.90259584  0.70767018  0.89962110  1
  Zr  Zr24  1  0.10212182  0.29649663  0.90349755  1
  Zr  Zr25  1  0.50351256  0.89830883  0.90615194  1
  Zr  Zr26  1  0.29908976  0.90568658  0.70896289  1
  Zr  Zr27  1  0.10102565  0.30203730  0.70313399  1
  Zr  Zr28  1  0.50675965  0.49412804  0.50250793  1
  Zr  Zr29  1  0.50017614  0.90584110  0.70421024  1
  Zr  Zr30  1  0.10116312  0.89588229  0.88759369  1
  Zr  Zr31  1  0.69279797  0.50598154  0.69545495  1
  Zr  Zr32  1  0.89205226  0.30034537  0.69399456  1
  Zr  Zr33  1  0.09068254  0.09651991  0.29693851  1
  Zr  Zr34  1  0.50005701  0.68954739  0.50018332  1
  Zr  Zr35  1  0.88542129  0.50202564  0.09349975  1
  Zr  Zr36  1  0.09765318  0.50004077  0.09935893  1
  Zr  Zr37  1  0.89221855  0.30579439  0.89627128  1
  Zr  Zr38  1  0.09863881  0.70223644  0.10220186  1
  Zr  Zr39  1  0.29787047  0.10340953  0.49864142  1
  Zr  Zr40  1  0.09782129  0.70426238  0.50048325  1
  Zr  Zr41  1  0.10662540  0.89523230  0.29607170  1
  Zr  Zr42  1  0.09909343  0.69667075  0.30188649  1
  Zr  Zr43  1  0.30104212  0.10416055  0.89746624  1
  Zr  Zr44  1  0.71137071  0.70055210  0.10206259  1
  Zr  Zr45  1  0.89522807  0.90461760  0.29723736  1
  Zr  Zr46  1  0.50698862  0.90624321  0.10287336  1
  Zr  Zr47  1  0.31091395  0.49732861  0.50298901  1
  Zr  Zr48  1  0.89567266  0.29355773  0.30829447  1
  Zr  Zr49  1  0.50151171  0.90898221  0.49881305  1
  Sc  Sc50  1  0.90189968  0.09514189  0.10664781  1
  Sc  Sc51  1  0.69604077  0.09997825  0.70036583  1
  Sc  Sc52  1  0.31220918  0.70012764  0.70562252  1
  Sc  Sc53  1  0.30022207  0.09816522  0.10204094  1
  Sc  Sc54  1  0.29906746  0.29752450  0.70317317  1
  Sc  Sc55  1  0.09512578  0.10035244  0.10099560  1
  Sc  Sc56  1  0.69577321  0.31062204  0.89145808  1
  Sc  Sc57  1  0.69889096  0.29908242  0.69300423  1
  Sc  Sc58  1  0.69949715  0.09302457  0.88855781  1
  Sc  Sc59  1  0.69062304  0.70137436  0.90474692  1
  Sc  Sc60  1  0.70393604  0.90125747  0.10207646  1
  Sc  Sc61  1  0.29727007  0.70107708  0.49848221  1
  Sc  Sc62  1  0.10132949  0.89930162  0.69903571  1
  Sc  Sc63  1  0.29303916  0.29471131  0.90155191  1
  Sc  Sc64  1  0.10305792  0.49254705  0.89561183  1
  Sc  Sc65  1  0.50247024  0.50713651  0.10241699  1
  Sc  Sc66  1  0.09903886  0.30184520  0.29901053  1
  Sc  Sc67  1  0.10206664  0.89952462  0.50712966  1
  Sc  Sc68  1  0.89885302  0.90479673  0.89914481  1
  Sc  Sc69  1  0.49786419  0.10077508  0.90138447  1
  Sc  Sc70  1  0.70394614  0.49175262  0.49574377  1
  Sc  Sc71  1  0.90349593  0.68977912  0.49867387  1
  Sc  Sc72  1  0.09164989  0.50363410  0.48723058  1
  Sc  Sc73  1  0.90962073  0.49508427  0.30791566  1
  Sc  Sc74  1  0.29654337  0.51103693  0.09670136  1
  Sc  Sc75  1  0.50866084  0.51193778  0.30049427  1
  Sc  Sc76  1  0.89157640  0.90366894  0.50008244  1
  Sc  Sc77  1  0.50387361  0.29857564  0.10493922  1
  Sc  Sc78  1  0.88915775  0.09692405  0.69191973  1
  Sc  Sc79  1  0.51230468  0.50942308  0.90588934  1
  Sc  Sc80  1  0.89701064  0.69737009  0.29289139  1
  Sc  Sc81  1  0.30291277  0.69788340  0.09393117  1
  Sc  Sc82  1  0.69770331  0.10016909  0.30115745  1
  Sc  Sc83  1  0.89817711  0.10112653  0.29911779  1
  Sc  Sc84  1  0.50106448  0.70350498  0.90254140  1
  Sc  Sc85  1  0.51048282  0.30097710  0.50025670  1
  Sc  Sc86  1  0.49784710  0.09858765  0.10421146  1
  Sc  Sc87  1  0.29917598  0.90150700  0.10591371  1
  Sc  Sc88  1  0.69832899  0.90075342  0.90370714  1
  Sc  Sc89  1  0.08990238  0.70779538  0.69956419  1
  Sc  Sc90  1  0.10116930  0.28620616  0.49587649  1
  Sc  Sc91  1  0.90400411  0.10812628  0.49570764  1
  Sc  Sc92  1  0.50534471  0.30799257  0.69693015  1
  Sc  Sc93  1  0.89214210  0.89421233  0.09863021  1
  Sc  Sc94  1  0.29614462  0.28812243  0.09384454  1
  Sc  Sc95  1  0.90362966  0.90175061  0.69410829  1
  Sc  Sc96  1  0.69822422  0.09670929  0.11500931  1
  Sc  Sc97  1  0.70642614  0.69401719  0.30100598  1
  Sc  Sc98  1  0.29978464  0.90050282  0.50199201  1
  Sc  Sc99  1  0.71494918  0.69280818  0.50317040  1
  Nb  Nb100  1  0.51358850  0.69691017  0.69735523  1
  Nb  Nb101  1  0.89855771  0.49488039  0.50675082  1
  Nb  Nb102  1  0.50411446  0.70418794  0.30083307  1
  Nb  Nb103  1  0.69728915  0.90125457  0.49439182  1
  Nb  Nb104  1  0.69482648  0.49389904  0.30115862  1
  Nb  Nb105  1  0.49517796  0.10000837  0.30248666  1
  Nb  Nb106  1  0.70987356  0.30253518  0.49574888  1
  Nb  Nb107  1  0.29618158  0.89927772  0.30074766  1
  Nb  Nb108  1  0.49626167  0.29330076  0.30122588  1
  Nb  Nb109  1  0.70035333  0.69777299  0.70028828  1
  Nb  Nb110  1  0.69976293  0.90175772  0.30273778  1
  Nb  Nb111  1  0.10427452  0.10182523  0.49572196  1
  Nb  Nb112  1  0.29503766  0.89691448  0.89606751  1
  Nb  Nb113  1  0.50149119  0.90826629  0.30435977  1
  Nb  Nb114  1  0.89666111  0.69936855  0.09635576  1
  Nb  Nb115  1  0.90575848  0.50314564  0.69892055  1
  Nb  Nb116  1  0.09809636  0.49993596  0.69986527  1
  Nb  Nb117  1  0.30122810  0.50373340  0.90172646  1
  Nb  Nb118  1  0.30619993  0.09965559  0.30535356  1
  Nb  Nb119  1  0.69853722  0.29989030  0.10297547  1
  Nb  Nb120  1  0.49388126  0.09720426  0.69841314  1
  Nb  Nb121  1  0.30746691  0.09793863  0.69982213  1
  Nb  Nb122  1  0.89675649  0.50184990  0.89778719  1
  Nb  Nb123  1  0.29748193  0.49132846  0.30272311  1
  Nb  Nb124  1  0.88581217  0.30679576  0.49953320  1
  Nb  Nb125  1  0.40685697  0.80258754  0.21012859  1
  Nb  Nb126  1  -0.00030972  0.80175142  0.39662136  1
  Nb  Nb127  1  0.59873115  0.80367718  0.21107088  1
  Nb  Nb128  1  0.79783519  0.79358204  0.79329491  1
  Nb  Nb129  1  0.40365750  0.39745723  0.39045243  1
  Nb  Nb130  1  0.80280705  0.60156860  0.79713526  1
  Nb  Nb131  1  0.40744142  0.80323400  0.39631945  1
  Nb  Nb132  1  0.79060449  0.20224146  0.00266280  1
  Nb  Nb133  1  0.60332954  0.79925519  0.59810851  1
  Nb  Nb134  1  0.41195808  0.80105421  0.60030031  1
  Nb  Nb135  1  0.60208112  0.80356318  0.40129605  1
  Nb  Nb136  1  0.40066119  0.40623169  0.80911799  1
  Nb  Nb137  1  0.20013380  0.59590753  0.79627617  1
  Nb  Nb138  1  0.39569226  0.40107569  0.20474190  1
  Nb  Nb139  1  -0.00610861  0.59813458  -0.00099257  1
  Nb  Nb140  1  0.19613165  0.59461734  0.60604453  1
  Nb  Nb141  1  -0.00260209  0.40192468  0.59936653  1
  Nb  Nb142  1  0.40238188  0.19262221  0.60271303  1
  Nb  Nb143  1  -0.00302084  0.19919326  0.79665829  1
  Nb  Nb144  1  0.60976005  0.20250453  0.00363809  1
  Nb  Nb145  1  0.19256400  0.40468450  0.59989000  1
  Nb  Nb146  1  0.20118942  0.00445801  0.39520374  1
  Nb  Nb147  1  -0.00887271  0.40294608  -0.00098615  1
  Nb  Nb148  1  0.19999173  -0.00548207  -0.00858500  1
  Nb  Nb149  1  0.39855481  0.40385496  0.00032008  1
  Pd  Pd150  1  0.61151250  0.60403418  0.40398190  1
  Pd  Pd151  1  0.40006373  0.80501016  0.00884492  1
  Pd  Pd152  1  0.79856097  0.19799699  0.80195753  1
  Pd  Pd153  1  -0.00441426  0.00528515  0.78828017  1
  Pd  Pd154  1  0.40699266  0.79789785  0.79829868  1
  Pd  Pd155  1  0.60073679  0.20002840  0.39856821  1
  Pd  Pd156  1  0.39918214  0.59673793  0.39349677  1
  Pd  Pd157  1  0.39691358  0.59972355  0.20584907  1
  Pd  Pd158  1  -0.01344827  0.20556424  -0.00352497  1
  Pd  Pd159  1  0.00247940  0.60127269  0.80671708  1
  Pd  Pd160  1  -0.00637574  0.59705851  0.19545785  1
  Pd  Pd161  1  -0.00187605  0.00032486  0.59310988  1
  Pd  Pd162  1  0.80304517  0.79686790  0.39893742  1
  Pd  Pd163  1  0.59294604  0.40911417  0.79843829  1
  Pd  Pd164  1  0.20415468  0.60293481  0.19784953  1
  Pd  Pd165  1  0.21049822  0.79177834  0.60915374  1
  Pd  Pd166  1  -0.00841386  0.80103711  0.20349781  1
  Pd  Pd167  1  0.20231745  0.59439385  0.40836729  1
  Pd  Pd168  1  0.20898225  0.39615848  0.18816888  1
  Pd  Pd169  1  0.58868464  0.40087014  0.20511827  1
  Pd  Pd170  1  0.79922125  0.00851280  0.40062981  1
  Pd  Pd171  1  0.79906275  0.58876352  0.21009444  1
  Pd  Pd172  1  -0.00210935  0.39527569  0.80022858  1
  Pd  Pd173  1  0.59608709  0.19868379  0.80300668  1
  Pd  Pd174  1  0.40739738  0.20990658  0.79378869  1
  Pd  Pd175  1  0.19512293  0.19256885  0.79592687  1
  Pd  Pd176  1  0.79429586  0.00869295  0.00405803  1
  Pd  Pd177  1  0.19623399  0.19244510  0.20215050  1
  Pd  Pd178  1  0.60722350  0.01149497  0.00100848  1
  Pd  Pd179  1  0.60298128  0.00055980  0.60230589  1
  Pd  Pd180  1  0.80535456  0.58834293  0.39580848  1
  Pd  Pd181  1  0.59597350  0.20068249  0.60103153  1
  Pd  Pd182  1  0.20489524  -0.00119719  0.59545543  1
  Pd  Pd183  1  0.39765070  -0.00259940  0.20401545  1
  Pd  Pd184  1  -0.00528633  0.39986541  0.19677787  1
  Pd  Pd185  1  0.39131672  -0.00360239  -0.00342054  1
  Pd  Pd186  1  -0.00526019  0.20558227  0.59883479  1
  Pd  Pd187  1  0.00556316  -0.00688854  0.40655582  1
  Pd  Pd188  1  0.00379538  0.38972688  0.40774561  1
  Pd  Pd189  1  0.20403309  0.40161637  0.00537013  1
  Pd  Pd190  1  0.79844533  0.80204047  0.59952924  1
  Pd  Pd191  1  0.60632251  0.80201140  0.79686617  1
  Pd  Pd192  1  0.40328722  -0.00045548  0.81194545  1
  Pd  Pd193  1  0.20260923  0.80740409  0.00597615  1
  Pd  Pd194  1  0.80172495  0.40468853  0.21045183  1
  Pd  Pd195  1  -0.00043103  0.80499149  0.00330457  1
  Pd  Pd196  1  0.40148285  0.20296255  0.19505268  1
  Pd  Pd197  1  0.00406451  -0.00998897  0.00612467  1
  Pd  Pd198  1  0.79432857  0.41009779  0.78889735  1
  Pd  Pd199  1  0.40512231  0.59922563  0.80690764  1
  Rh  Rh200  1  0.19794818  0.18431411  0.00172003  1
  Rh  Rh201  1  -0.00643989  -0.00543220  0.19620302  1
  Rh  Rh202  1  0.79941716  0.39044231  0.00266750  1
  Rh  Rh203  1  0.39334379  0.61292428  0.59933440  1
  Rh  Rh204  1  0.20881862  0.20292823  0.60486084  1
  Rh  Rh205  1  0.79952890  0.59033027  0.60382807  1
  Rh  Rh206  1  -0.00295411  0.20363433  0.40173711  1
  Rh  Rh207  1  0.21129506  0.78980215  0.19354389  1
  Rh  Rh208  1  0.60289571  0.80202652  0.01306261  1
  Rh  Rh209  1  0.79653550  0.40430444  0.39289021  1
  Rh  Rh210  1  0.79518125  0.80202393  0.20346658  1
  Rh  Rh211  1  -0.00619662  0.80487061  0.58914416  1
  Rh  Rh212  1  -0.00341689  0.60577983  0.39659568  1
  Rh  Rh213  1  0.00715629  0.59176845  0.59373314  1
  Rh  Rh214  1  0.79827913  0.00435491  0.59292105  1
  Rh  Rh215  1  0.59463094  0.39495965  0.00646804  1
  Rh  Rh216  1  0.59525859  0.19555382  0.20039445  1
  Rh  Rh217  1  0.19757108  0.81038463  0.40445894  1
  Rh  Rh218  1  -0.00838340  0.80578301  0.79326979  1
  Rh  Rh219  1  0.38957556  -0.00493263  0.39574845  1
  Rh  Rh220  1  0.61088692  0.60337409  0.58823159  1
  Rh  Rh221  1  0.79944937  0.40528270  0.60410762  1
  Rh  Rh222  1  0.20484785  0.00920959  0.20362770  1
  Rh  Rh223  1  0.79784539  0.80007768  -0.00870160  1
  Rh  Rh224  1  0.39462525  0.00046113  0.60072469  1
  Rh  Rh225  1  0.79771476  0.19582846  0.19937695  1
  Rh  Rh226  1  0.59445682  0.00171012  0.80158309  1
  Rh  Rh227  1  -0.00137044  0.20169072  0.20557111  1
  Rh  Rh228  1  0.60981236  0.39791848  0.59626030  1
  Rh  Rh229  1  0.20212590  0.78999494  0.79231047  1
  Rh  Rh230  1  0.60387123  0.60402092  0.00586008  1
  Rh  Rh231  1  0.79980617  -0.00050130  0.20283000  1
  Rh  Rh232  1  0.20218907  0.40293147  0.40881595  1
  Rh  Rh233  1  0.39550076  0.38325702  0.59865760  1
  Rh  Rh234  1  0.80287954  0.61193010  -0.01022505  1
  Rh  Rh235  1  0.40580263  0.59678734  -0.00215508  1
  Rh  Rh236  1  0.60972204  0.60639152  0.20069938  1
  Rh  Rh237  1  0.40830014  0.20472146  0.00599513  1
  Rh  Rh238  1  0.60013731  -0.00062403  0.20830631  1
  Rh  Rh239  1  0.18797076  0.59933362  -0.00921627  1
  Rh  Rh240  1  0.79504624  0.19764923  0.59501489  1
  Rh  Rh241  1  0.60499658  0.59977820  0.80436635  1
  Rh  Rh242  1  0.19059659  0.18984895  0.38786237  1
  Rh  Rh243  1  0.60518833  0.00400322  0.39439746  1
  Rh  Rh244  1  0.79632760  0.19699171  0.40101589  1
  Rh  Rh245  1  0.21034116  0.40656501  0.79707611  1
  Rh  Rh246  1  0.40822820  0.20584345  0.40776776  1
  Rh  Rh247  1  0.20020937  0.00639937  0.80221292  1
  Rh  Rh248  1  0.80205823  -0.00852570  0.79789819  1
  Rh  Rh249  1  0.59776686  0.39544251  0.39477062  1
