# generated using pymatgen
data_ZrScNbPdRh
_symmetry_space_group_name_H-M   'P 1'
_cell_length_a   16.55115062
_cell_length_b   16.55086494
_cell_length_c   16.55228273
_cell_angle_alpha   90.00158287
_cell_angle_beta   90.01162801
_cell_angle_gamma   89.99509325
_symmetry_Int_Tables_number   1
_chemical_formula_structural   ZrScNbPdRh
_chemical_formula_sum   'Zr50 Sc50 Nb50 Pd50 Rh50'
_cell_volume   4534.26366476
_cell_formula_units_Z   50
loop_
 _symmetry_equiv_pos_site_id
 _symmetry_equiv_pos_as_xyz
  1  'x, y, z'
loop_
 _atom_site_type_symbol
 _atom_site_label
 _atom_site_symmetry_multiplicity
 _atom_site_fract_x
 _atom_site_fract_y
 _atom_site_fract_z
 _atom_site_occupancy
  Zr  Zr0  1  0.31160036  0.89649839  0.29255253  1
  Zr  Zr1  1  0.69895491  0.90851947  0.50263183  1
  Zr  Zr2  1  0.29528812  0.90102640  0.10254014  1
  Zr  Zr3  1  0.10184138  0.09827507  0.69892619  1
  Zr  Zr4  1  0.49575807  0.10030904  0.70400194  1
  Zr  Zr5  1  0.89789208  0.49695964  0.10030374  1
  Zr  Zr6  1  0.29508594  0.30507754  0.90390335  1
  Zr  Zr7  1  0.29700834  0.10511559  0.10274273  1
  Zr  Zr8  1  0.69968678  0.30757249  0.89982613  1
  Zr  Zr9  1  0.90091261  0.29848955  0.50220628  1
  Zr  Zr10  1  0.50578388  0.90708455  0.89609705  1
  Zr  Zr11  1  0.09411806  0.10103584  0.89703987  1
  Zr  Zr12  1  0.50064658  0.89967274  0.30496547  1
  Zr  Zr13  1  0.50537437  0.49137817  0.69196841  1
  Zr  Zr14  1  0.10009239  0.29992104  0.30016183  1
  Zr  Zr15  1  0.49709331  0.70731678  0.51258761  1
  Zr  Zr16  1  0.69034353  0.09530857  0.89723824  1
  Zr  Zr17  1  0.29856564  0.09331225  0.70384606  1
  Zr  Zr18  1  0.88221498  0.09294633  0.49304822  1
  Zr  Zr19  1  0.09742093  0.09522531  0.48678418  1
  Zr  Zr20  1  0.69602106  0.31356516  0.69747845  1
  Zr  Zr21  1  0.90413475  0.09304963  0.10256339  1
  Zr  Zr22  1  0.09914865  0.89598537  0.10012575  1
  Zr  Zr23  1  0.70434457  0.70753876  0.10593371  1
  Zr  Zr24  1  0.89730504  0.09520728  0.70042294  1
  Zr  Zr25  1  0.89742709  0.30513200  0.10114294  1
  Zr  Zr26  1  0.71005517  0.69969280  0.89823870  1
  Zr  Zr27  1  0.30621944  0.30516216  0.49551438  1
  Zr  Zr28  1  0.30671502  0.69280880  0.89885944  1
  Zr  Zr29  1  0.70201988  0.49866170  0.89359308  1
  Zr  Zr30  1  0.49814521  0.10065093  0.90133392  1
  Zr  Zr31  1  0.69809417  0.09733593  0.68744250  1
  Zr  Zr32  1  0.89489106  0.50579274  0.89869603  1
  Zr  Zr33  1  0.69884344  0.50761076  0.50358707  1
  Zr  Zr34  1  0.89094717  0.69740715  0.50785677  1
  Zr  Zr35  1  0.70601372  0.89778117  0.89876553  1
  Zr  Zr36  1  0.29894108  0.10068227  0.50254298  1
  Zr  Zr37  1  0.30963747  0.10115763  0.89653565  1
  Zr  Zr38  1  0.50164198  0.30542555  0.50853711  1
  Zr  Zr39  1  0.49959612  0.29727649  0.90913918  1
  Zr  Zr40  1  0.09250026  0.69474285  0.90580320  1
  Zr  Zr41  1  0.89863031  0.30507815  0.69596672  1
  Zr  Zr42  1  0.30559401  0.89977134  0.90207005  1
  Zr  Zr43  1  0.10445645  0.69886105  0.70512201  1
  Zr  Zr44  1  0.90547762  0.09613885  0.89910955  1
  Zr  Zr45  1  0.70213062  0.28731956  0.50446031  1
  Zr  Zr46  1  0.49651380  0.70278079  0.89569640  1
  Zr  Zr47  1  0.31053417  0.69967259  0.69768949  1
  Zr  Zr48  1  0.90421496  0.69973897  0.29965480  1
  Zr  Zr49  1  0.30912680  0.29120735  0.69472832  1
  Sc  Sc50  1  0.90594935  0.50131942  0.51145744  1
  Sc  Sc51  1  0.70189132  0.30579022  0.09532486  1
  Sc  Sc52  1  0.89709322  0.69931696  0.70576975  1
  Sc  Sc53  1  0.49992610  0.90252558  0.11145418  1
  Sc  Sc54  1  0.50030427  0.50389051  0.31191721  1
  Sc  Sc55  1  0.29321436  0.50423695  0.90022766  1
  Sc  Sc56  1  0.69149927  0.09802019  0.10221160  1
  Sc  Sc57  1  0.50541820  0.70097888  0.30082121  1
  Sc  Sc58  1  0.29819474  0.50334972  0.30876503  1
  Sc  Sc59  1  0.50063806  0.88805880  0.69716514  1
  Sc  Sc60  1  0.10124191  0.30232404  0.10201738  1
  Sc  Sc61  1  0.29778263  0.70527027  0.10168519  1
  Sc  Sc62  1  0.48880218  0.30246055  0.30944426  1
  Sc  Sc63  1  0.29788255  0.69774641  0.30188204  1
  Sc  Sc64  1  0.50014343  0.69427309  0.09543932  1
  Sc  Sc65  1  0.30203736  0.29403567  0.29982795  1
  Sc  Sc66  1  0.10263481  0.50846387  0.10027995  1
  Sc  Sc67  1  0.30658778  0.30131077  0.10463035  1
  Sc  Sc68  1  0.90347530  0.89602269  0.10421309  1
  Sc  Sc69  1  0.49897496  0.09502159  0.30316274  1
  Sc  Sc70  1  0.29686606  0.49941175  0.09355946  1
  Sc  Sc71  1  0.10121138  0.90377126  0.70663362  1
  Sc  Sc72  1  0.90199508  0.70644099  0.90075275  1
  Sc  Sc73  1  0.30063333  0.69343761  0.49853521  1
  Sc  Sc74  1  0.09859265  0.09039445  0.10131653  1
  Sc  Sc75  1  0.30076798  0.50520232  0.49435254  1
  Sc  Sc76  1  0.89400477  0.49808439  0.69802021  1
  Sc  Sc77  1  0.09584973  0.30084814  0.70181069  1
  Sc  Sc78  1  0.29978567  0.89663629  0.48631445  1
  Sc  Sc79  1  0.10762669  0.90286966  0.30097877  1
  Sc  Sc80  1  0.70099309  0.90018375  0.70449640  1
  Sc  Sc81  1  0.09087949  0.89565031  0.90521144  1
  Sc  Sc82  1  0.69008604  0.51334404  0.30604806  1
  Sc  Sc83  1  0.10288300  0.68495128  0.49743166  1
  Sc  Sc84  1  0.30239889  0.10207600  0.29808941  1
  Sc  Sc85  1  0.90326975  0.10086255  0.29750739  1
  Sc  Sc86  1  0.70235528  0.29920351  0.30082629  1
  Sc  Sc87  1  0.10420439  0.50792222  0.30279001  1
  Sc  Sc88  1  0.90359529  0.49573253  0.29537770  1
  Sc  Sc89  1  0.49777309  0.10667700  0.09271840  1
  Sc  Sc90  1  0.09805948  0.50171659  0.70164412  1
  Sc  Sc91  1  0.10381735  0.29309980  0.49423452  1
  Sc  Sc92  1  0.09699652  0.30170202  0.89204295  1
  Sc  Sc93  1  0.29757817  0.50991236  0.70289008  1
  Sc  Sc94  1  0.90301240  0.29889425  0.28952667  1
  Sc  Sc95  1  0.69772723  0.50585982  0.09317093  1
  Sc  Sc96  1  0.49693900  0.50712324  0.90765815  1
  Sc  Sc97  1  0.70384840  0.09477071  0.30182716  1
  Sc  Sc98  1  0.89038402  0.91185433  0.29514911  1
  Sc  Sc99  1  0.89206275  0.89509828  0.70532525  1
  Nb  Nb100  1  0.09829595  0.89697049  0.49734512  1
  Nb  Nb101  1  0.49655016  0.30326013  0.10359225  1
  Nb  Nb102  1  0.69460294  0.10008620  0.50318905  1
  Nb  Nb103  1  0.90998698  0.70154336  0.10105178  1
  Nb  Nb104  1  0.49826023  0.50132026  0.10705803  1
  Nb  Nb105  1  0.70087119  0.70405251  0.30175677  1
  Nb  Nb106  1  0.70559730  0.89984321  0.10803346  1
  Nb  Nb107  1  0.69983517  0.49958047  0.70459079  1
  Nb  Nb108  1  0.50113490  0.69567493  0.70196214  1
  Nb  Nb109  1  0.08937004  0.70229504  0.10701619  1
  Nb  Nb110  1  0.09970710  0.69493056  0.29321254  1
  Nb  Nb111  1  0.29814005  0.90058209  0.69648931  1
  Nb  Nb112  1  0.10341443  0.49800764  0.90663951  1
  Nb  Nb113  1  0.69804656  0.89232836  0.28402320  1
  Nb  Nb114  1  0.70035556  0.69854493  0.68747888  1
  Nb  Nb115  1  0.50194489  0.30332849  0.69949788  1
  Nb  Nb116  1  0.89412193  0.89498047  0.89933899  1
  Nb  Nb117  1  0.70637117  0.70314412  0.50081704  1
  Nb  Nb118  1  0.89764561  0.89603010  0.49639555  1
  Nb  Nb119  1  0.49483285  0.49529958  0.49675407  1
  Nb  Nb120  1  0.10680961  0.49255994  0.50122281  1
  Nb  Nb121  1  0.90162879  0.29631662  0.89841955  1
  Nb  Nb122  1  0.09678476  0.10796350  0.29871079  1
  Nb  Nb123  1  0.51752630  0.08968839  0.50300850  1
  Nb  Nb124  1  0.49643446  0.90726914  0.49677468  1
  Nb  Nb125  1  -0.00269662  0.18894220  0.59475483  1
  Nb  Nb126  1  0.40259841  0.39635143  0.79733189  1
  Nb  Nb127  1  0.00020711  0.40453606  -0.00510282  1
  Nb  Nb128  1  0.80277793  0.19581242  -0.00522541  1
  Nb  Nb129  1  0.40257559  0.59517222  0.19916929  1
  Nb  Nb130  1  0.00104036  0.39971067  0.40300119  1
  Nb  Nb131  1  0.20122030  0.40196564  0.20332120  1
  Nb  Nb132  1  0.19979339  0.19907115  -0.00186906  1
  Nb  Nb133  1  -0.00272808  0.79957191  0.40384415  1
  Nb  Nb134  1  0.59116044  0.40065991  0.19876131  1
  Nb  Nb135  1  0.40104913  -0.00447210  0.59527049  1
  Nb  Nb136  1  0.60025983  0.20704544  0.79638221  1
  Nb  Nb137  1  -0.00161056  -0.00605359  0.59038232  1
  Nb  Nb138  1  0.60200513  0.60323790  0.78948611  1
  Nb  Nb139  1  0.80297295  0.40181767  0.40432791  1
  Nb  Nb140  1  0.60719454  0.80389453  0.00093429  1
  Nb  Nb141  1  0.20625515  0.79788660  0.79951893  1
  Nb  Nb142  1  0.00429158  0.80390484  0.59449397  1
  Nb  Nb143  1  0.79450098  0.79926251  0.39780928  1
  Nb  Nb144  1  0.20199262  0.39993470  0.59661640  1
  Nb  Nb145  1  0.80030372  0.60875755  0.20132825  1
  Nb  Nb146  1  0.80096906  -0.00291075  0.00014151  1
  Nb  Nb147  1  0.19865203  0.80260302  0.60089815  1
  Nb  Nb148  1  0.79651327  0.20235773  0.80189089  1
  Nb  Nb149  1  0.59278989  0.20975156  0.19853139  1
  Pd  Pd150  1  0.41000923  0.80460610  0.00849997  1
  Pd  Pd151  1  0.80372024  0.20446444  0.38994195  1
  Pd  Pd152  1  0.59758687  0.59863438  0.59803754  1
  Pd  Pd153  1  -0.00165158  0.81105532  0.21220593  1
  Pd  Pd154  1  0.00315338  0.60363229  0.60466643  1
  Pd  Pd155  1  0.40958749  0.19168255  0.40805330  1
  Pd  Pd156  1  0.80648305  0.60814495  0.00767743  1
  Pd  Pd157  1  0.00367441  0.20821162  0.00721417  1
  Pd  Pd158  1  0.40161452  0.79181332  0.40045297  1
  Pd  Pd159  1  0.19938250  0.60912199  0.00724673  1
  Pd  Pd160  1  -0.00288290  0.40758974  0.80487100  1
  Pd  Pd161  1  0.79034546  0.19554065  0.19293420  1
  Pd  Pd162  1  0.40168704  -0.00365378  0.00896489  1
  Pd  Pd163  1  0.19871957  0.79325177  0.20395264  1
  Pd  Pd164  1  0.60338806  -0.00924642  0.01142224  1
  Pd  Pd165  1  0.40114321  0.59208469  0.59672136  1
  Pd  Pd166  1  -0.00083214  0.59478648  0.79919112  1
  Pd  Pd167  1  0.19236283  0.20585570  0.59986189  1
  Pd  Pd168  1  0.19916061  0.20209204  0.80434702  1
  Pd  Pd169  1  0.00507288  0.19783348  0.19265311  1
  Pd  Pd170  1  0.59220348  0.61217361  0.41174029  1
  Pd  Pd171  1  0.20646283  0.00054888  0.39031753  1
  Pd  Pd172  1  -0.00078966  0.59525087  0.40407883  1
  Pd  Pd173  1  0.60872686  -0.00414488  0.38942559  1
  Pd  Pd174  1  0.58953936  0.79490468  0.19430251  1
  Pd  Pd175  1  0.19182865  0.78990217  0.40183913  1
  Pd  Pd176  1  0.19874262  -0.00795081  0.81217904  1
  Pd  Pd177  1  0.20527757  0.19772594  0.39552816  1
  Pd  Pd178  1  0.39751247  0.80468803  0.79760722  1
  Pd  Pd179  1  0.19759007  0.00471328  0.20871719  1
  Pd  Pd180  1  0.60787736  0.39577134  0.39875803  1
  Pd  Pd181  1  0.59583743  0.20100299  0.39165464  1
  Pd  Pd182  1  0.20071616  -0.00887545  0.59274742  1
  Pd  Pd183  1  0.60162101  0.60712571  -0.00462876  1
  Pd  Pd184  1  0.19723205  0.00555900  -0.00664268  1
  Pd  Pd185  1  -0.00185274  0.59201721  0.19871514  1
  Pd  Pd186  1  0.60720238  0.79307297  0.80084087  1
  Pd  Pd187  1  0.60285402  0.80589740  0.59741804  1
  Pd  Pd188  1  0.39801144  0.40719371  -0.00408872  1
  Pd  Pd189  1  0.80585385  0.59621343  0.39492044  1
  Pd  Pd190  1  -0.00257148  -0.00666343  0.39381701  1
  Pd  Pd191  1  0.59683127  0.40463460  0.00604518  1
  Pd  Pd192  1  0.78233190  0.41459378  0.21033870  1
  Pd  Pd193  1  -0.00340457  -0.01019239  0.79571249  1
  Pd  Pd194  1  0.19649299  0.79342487  -0.00479033  1
  Pd  Pd195  1  0.41038263  0.18963943  0.59086750  1
  Pd  Pd196  1  0.60440634  0.80007843  0.40723558  1
  Pd  Pd197  1  0.39629988  0.40870303  0.20992089  1
  Pd  Pd198  1  0.20547662  0.40302532  0.79040170  1
  Pd  Pd199  1  0.40441380  0.00896660  0.19535450  1
  Rh  Rh200  1  0.00293160  0.80240757  0.79612184  1
  Rh  Rh201  1  0.80372145  0.80544295  0.00824329  1
  Rh  Rh202  1  0.59918376  0.59557461  0.20049589  1
  Rh  Rh203  1  0.58730343  0.40567816  0.80839964  1
  Rh  Rh204  1  0.39127911  0.80859631  0.59355126  1
  Rh  Rh205  1  0.00770506  -0.00236497  0.20731495  1
  Rh  Rh206  1  0.19789750  0.60347473  0.39739113  1
  Rh  Rh207  1  0.80377898  0.19806186  0.60703695  1
  Rh  Rh208  1  0.80228998  -0.00704595  0.59972104  1
  Rh  Rh209  1  0.79680219  0.00557822  0.19341346  1
  Rh  Rh210  1  0.80956315  0.79501377  0.20401734  1
  Rh  Rh211  1  0.80130190  0.80427237  0.60054677  1
  Rh  Rh212  1  0.80823079  0.39742987  0.80094477  1
  Rh  Rh213  1  0.39020689  0.20343263  0.00334141  1
  Rh  Rh214  1  0.79374852  0.60447702  0.79111150  1
  Rh  Rh215  1  0.59299551  -0.00884035  0.60719151  1
  Rh  Rh216  1  0.41266717  0.58796897  0.79606684  1
  Rh  Rh217  1  0.60663494  0.20715200  0.00362857  1
  Rh  Rh218  1  -0.00239781  0.59558343  0.00193793  1
  Rh  Rh219  1  0.19721992  0.39868879  0.39915868  1
  Rh  Rh220  1  0.79869757  0.59576962  0.60717801  1
  Rh  Rh221  1  0.78915950  -0.00712090  0.39481131  1
  Rh  Rh222  1  -0.00695791  0.20400922  0.40049134  1
  Rh  Rh223  1  0.59454492  0.20038894  0.60533293  1
  Rh  Rh224  1  0.40749903  0.20963281  0.80339619  1
  Rh  Rh225  1  0.20039781  0.59654188  0.59850907  1
  Rh  Rh226  1  0.19724475  0.20374698  0.19601527  1
  Rh  Rh227  1  0.38931799  0.40776101  0.60528445  1
  Rh  Rh228  1  0.79146017  0.40740046  0.59281876  1
  Rh  Rh229  1  -0.00737367  -0.01146326  0.00046853  1
  Rh  Rh230  1  0.40564875  0.60465073  0.39765119  1
  Rh  Rh231  1  0.39819685  0.00573047  0.40725304  1
  Rh  Rh232  1  0.60632862  0.40356253  0.58880659  1
  Rh  Rh233  1  0.40513054  -0.01122690  0.78916062  1
  Rh  Rh234  1  0.40878444  0.19687351  0.20104073  1
  Rh  Rh235  1  0.40241846  0.78999136  0.20042167  1
  Rh  Rh236  1  0.19549529  0.60412728  0.80649230  1
  Rh  Rh237  1  0.79751622  0.79347477  0.79218365  1
  Rh  Rh238  1  0.59583261  0.00247102  0.79053867  1
  Rh  Rh239  1  0.01485155  0.39034484  0.59170110  1
  Rh  Rh240  1  0.01421408  0.40580963  0.20105062  1
  Rh  Rh241  1  -0.00465571  0.80045746  0.00169168  1
  Rh  Rh242  1  -0.00674879  0.20102459  0.78709186  1
  Rh  Rh243  1  0.79931250  0.00416335  0.80617595  1
  Rh  Rh244  1  0.20696564  0.59936975  0.19854118  1
  Rh  Rh245  1  0.39496120  0.59789483  0.00802399  1
  Rh  Rh246  1  0.59846499  0.00757632  0.20240305  1
  Rh  Rh247  1  0.19105956  0.39334895  0.00695453  1
  Rh  Rh248  1  0.39813747  0.40425010  0.40010067  1
  Rh  Rh249  1  0.80895091  0.39551512  -0.00676877  1
