# generated using pymatgen
data_ZrScNbPdRh
_symmetry_space_group_name_H-M   'P 1'
_cell_length_a   16.55956222
_cell_length_b   16.55871835
_cell_length_c   16.56366719
_cell_angle_alpha   90.01278559
_cell_angle_beta   89.98345840
_cell_angle_gamma   89.98081688
_symmetry_Int_Tables_number   1
_chemical_formula_structural   ZrScNbPdRh
_chemical_formula_sum   'Zr50 Sc50 Nb50 Pd50 Rh50'
_cell_volume   4541.84190317
_cell_formula_units_Z   50
loop_
 _symmetry_equiv_pos_site_id
 _symmetry_equiv_pos_as_xyz
  1  'x, y, z'
loop_
 _atom_site_type_symbol
 _atom_site_label
 _atom_site_symmetry_multiplicity
 _atom_site_fract_x
 _atom_site_fract_y
 _atom_site_fract_z
 _atom_site_occupancy
  Zr  Zr0  1  0.50224584  0.90069465  0.70448683  1
  Zr  Zr1  1  0.90070956  0.69257995  0.50576752  1
  Zr  Zr2  1  0.09140829  0.09363210  0.29773350  1
  Zr  Zr3  1  0.30607308  0.49980736  0.50400315  1
  Zr  Zr4  1  0.90583203  0.29999141  0.90592943  1
  Zr  Zr5  1  0.50710474  0.30344155  0.69741090  1
  Zr  Zr6  1  0.50479138  0.89805355  0.29945914  1
  Zr  Zr7  1  0.29464954  0.50308450  0.09937215  1
  Zr  Zr8  1  0.30528847  0.30357180  0.10024357  1
  Zr  Zr9  1  0.48963910  0.09819246  0.89894351  1
  Zr  Zr10  1  0.49913454  0.09972692  0.09130486  1
  Zr  Zr11  1  0.49515306  0.50089298  0.30031423  1
  Zr  Zr12  1  0.70747272  0.09549663  0.69470026  1
  Zr  Zr13  1  0.69897582  0.89534806  0.90077709  1
  Zr  Zr14  1  0.89976065  0.90422886  0.29203347  1
  Zr  Zr15  1  0.70206177  0.70271603  0.29983646  1
  Zr  Zr16  1  0.90031266  0.50471251  0.90759161  1
  Zr  Zr17  1  0.89871723  0.89547018  0.90088338  1
  Zr  Zr18  1  0.48705011  0.29732644  0.29827805  1
  Zr  Zr19  1  0.69397613  0.49620705  0.69881359  1
  Zr  Zr20  1  0.50381743  0.30166958  0.49887028  1
  Zr  Zr21  1  0.29392049  0.90537501  0.89602393  1
  Zr  Zr22  1  0.89588959  0.09507316  0.10588035  1
  Zr  Zr23  1  0.48643096  0.70096115  0.09221093  1
  Zr  Zr24  1  0.29664148  0.30361747  0.30117583  1
  Zr  Zr25  1  0.09031248  0.70550037  0.49950488  1
  Zr  Zr26  1  0.50198177  0.50425955  0.09858357  1
  Zr  Zr27  1  0.69246630  0.29599300  0.50266312  1
  Zr  Zr28  1  0.90263604  0.70159734  0.89796000  1
  Zr  Zr29  1  0.10583629  0.69651459  0.69904645  1
  Zr  Zr30  1  0.91112682  0.29250611  0.70728171  1
  Zr  Zr31  1  0.89887078  0.29717742  0.10511509  1
  Zr  Zr32  1  0.30012935  0.69789647  0.51574913  1
  Zr  Zr33  1  0.90010186  0.88759847  0.49974564  1
  Zr  Zr34  1  0.70621486  0.70264028  0.49172769  1
  Zr  Zr35  1  0.10686497  0.28905260  0.50376084  1
  Zr  Zr36  1  0.28574690  0.10191053  0.49650522  1
  Zr  Zr37  1  0.30334415  0.29599304  0.90572752  1
  Zr  Zr38  1  0.50510963  0.89732863  0.09545425  1
  Zr  Zr39  1  0.50178541  0.70187231  0.50047802  1
  Zr  Zr40  1  0.29920461  0.30019349  0.49732521  1
  Zr  Zr41  1  0.11058375  0.90394905  0.50490715  1
  Zr  Zr42  1  0.10633536  0.90183618  0.10047822  1
  Zr  Zr43  1  0.69301973  0.50980639  0.30095216  1
  Zr  Zr44  1  0.10508140  0.89846599  0.70889652  1
  Zr  Zr45  1  0.29904201  0.10943078  0.29519612  1
  Zr  Zr46  1  0.49827935  0.89880886  0.50562949  1
  Zr  Zr47  1  0.09319800  0.70342705  0.89945091  1
  Zr  Zr48  1  0.90648035  0.70476779  0.69784419  1
  Zr  Zr49  1  0.29763258  0.90045663  0.29100673  1
  Sc  Sc50  1  0.69894225  0.89870987  0.50342260  1
  Sc  Sc51  1  0.09160350  0.50285115  0.49205191  1
  Sc  Sc52  1  0.70476033  0.50139453  0.50138823  1
  Sc  Sc53  1  0.69744233  0.09913364  0.91329352  1
  Sc  Sc54  1  0.69931605  0.70287724  0.10253509  1
  Sc  Sc55  1  0.51300557  0.50484385  0.90120543  1
  Sc  Sc56  1  0.49302150  0.70050418  0.70754777  1
  Sc  Sc57  1  0.49609030  0.50268360  0.49418402  1
  Sc  Sc58  1  0.91469261  0.49084543  0.30170268  1
  Sc  Sc59  1  0.49852837  0.09201930  0.70124433  1
  Sc  Sc60  1  0.11446171  0.09461291  0.90365070  1
  Sc  Sc61  1  0.69925167  0.69900652  0.89871413  1
  Sc  Sc62  1  0.10343373  0.30371601  0.70679699  1
  Sc  Sc63  1  0.70646115  0.89978217  0.70334412  1
  Sc  Sc64  1  0.70014408  0.09530578  0.09646710  1
  Sc  Sc65  1  0.69814556  0.70888572  0.70774204  1
  Sc  Sc66  1  0.10315778  0.49378840  0.29524058  1
  Sc  Sc67  1  0.29962694  0.88701194  0.09754632  1
  Sc  Sc68  1  0.70003656  0.89428258  0.29094715  1
  Sc  Sc69  1  0.29911710  0.89612733  0.69484896  1
  Sc  Sc70  1  0.89926033  0.70001273  0.08752635  1
  Sc  Sc71  1  0.50335993  0.50391113  0.70593858  1
  Sc  Sc72  1  0.29742713  0.50765821  0.89954147  1
  Sc  Sc73  1  0.30551425  0.70248831  0.27929608  1
  Sc  Sc74  1  0.89842349  0.10402522  0.50317666  1
  Sc  Sc75  1  0.10178837  0.30278032  0.89692015  1
  Sc  Sc76  1  0.90574254  0.49651075  0.09158633  1
  Sc  Sc77  1  0.69398329  0.28942920  0.31081967  1
  Sc  Sc78  1  0.70176844  0.10765909  0.49769591  1
  Sc  Sc79  1  0.29290675  0.31251601  0.69595385  1
  Sc  Sc80  1  0.50968120  0.09968680  0.50123309  1
  Sc  Sc81  1  0.49851966  0.89642445  0.90104284  1
  Sc  Sc82  1  0.69485086  0.30367100  0.69308671  1
  Sc  Sc83  1  0.70024528  0.50441073  0.08678941  1
  Sc  Sc84  1  0.69572086  0.30360098  0.90696751  1
  Sc  Sc85  1  0.69549963  0.09772314  0.29980819  1
  Sc  Sc86  1  0.89530020  0.90136348  0.09648113  1
  Sc  Sc87  1  0.10106547  0.89559154  0.90465491  1
  Sc  Sc88  1  0.10017485  0.31276596  0.09773077  1
  Sc  Sc89  1  0.08986871  0.30356336  0.30007851  1
  Sc  Sc90  1  0.09914808  0.90484262  0.29845720  1
  Sc  Sc91  1  0.50852960  0.69317187  0.29652902  1
  Sc  Sc92  1  0.69715654  0.29112955  0.09068359  1
  Sc  Sc93  1  0.49381719  0.30695696  0.08898401  1
  Sc  Sc94  1  0.30450875  0.69876762  0.89952623  1
  Sc  Sc95  1  0.09704710  0.49863688  0.90673408  1
  Sc  Sc96  1  0.89998330  0.29187565  0.49809187  1
  Sc  Sc97  1  0.89800029  0.71171518  0.31393635  1
  Sc  Sc98  1  0.30384523  0.09195314  0.71561488  1
  Sc  Sc99  1  0.09977232  0.11061605  0.70711522  1
  Nb  Nb100  1  0.29632111  0.10228101  0.09216245  1
  Nb  Nb101  1  0.30210864  0.49718611  0.30370521  1
  Nb  Nb102  1  0.11047737  0.70171240  0.10165669  1
  Nb  Nb103  1  0.89964270  0.09951456  0.90425596  1
  Nb  Nb104  1  0.30019723  0.89951605  0.49885713  1
  Nb  Nb105  1  0.30327481  0.09929400  0.90771196  1
  Nb  Nb106  1  0.89580494  0.10264898  0.29799888  1
  Nb  Nb107  1  0.29497749  0.70206235  0.09381689  1
  Nb  Nb108  1  0.50151863  0.29873163  0.89689903  1
  Nb  Nb109  1  0.49801617  0.69820077  0.89590350  1
  Nb  Nb110  1  0.70399227  0.90164577  0.10182503  1
  Nb  Nb111  1  0.89833713  0.50053910  0.50936358  1
  Nb  Nb112  1  0.89383039  0.29552636  0.29661232  1
  Nb  Nb113  1  0.10443283  0.50124538  0.70367004  1
  Nb  Nb114  1  0.29946316  0.51211643  0.70222316  1
  Nb  Nb115  1  0.89797660  0.50136466  0.69228180  1
  Nb  Nb116  1  0.09903660  0.09860680  0.49964980  1
  Nb  Nb117  1  0.10172012  0.70190673  0.30080245  1
  Nb  Nb118  1  0.10237063  0.09465630  0.10222804  1
  Nb  Nb119  1  0.70111136  0.50085885  0.89145338  1
  Nb  Nb120  1  0.89859123  0.09609018  0.70439726  1
  Nb  Nb121  1  0.09716894  0.50594370  0.09955718  1
  Nb  Nb122  1  0.49525083  0.09833358  0.29638492  1
  Nb  Nb123  1  0.89329730  0.90727717  0.69928073  1
  Nb  Nb124  1  0.29900151  0.67864264  0.70300535  1
  Nb  Nb125  1  0.60174927  0.39668128  0.19969883  1
  Nb  Nb126  1  -0.00185094  0.40401412  0.60317924  1
  Nb  Nb127  1  0.39731319  0.20140089  0.59963158  1
  Nb  Nb128  1  0.20601232  0.79565735  0.40024219  1
  Nb  Nb129  1  0.60122332  0.60509500  0.59963604  1
  Nb  Nb130  1  0.79444137  0.39998386  0.20583320  1
  Nb  Nb131  1  0.80306402  0.40079666  0.79910088  1
  Nb  Nb132  1  -0.00738774  0.00219563  0.79870427  1
  Nb  Nb133  1  -0.00105195  0.00289762  0.60587027  1
  Nb  Nb134  1  0.19632185  0.19696152  0.19297128  1
  Nb  Nb135  1  0.58781755  0.20117131  0.19940651  1
  Nb  Nb136  1  0.00309531  0.19149856  0.00484619  1
  Nb  Nb137  1  0.80850098  0.59608397  0.20159748  1
  Nb  Nb138  1  0.40091262  0.00407031  0.19837235  1
  Nb  Nb139  1  0.39419489  0.80375840  0.40162383  1
  Nb  Nb140  1  0.00524205  0.79302581  0.19678432  1
  Nb  Nb141  1  0.00434724  0.60720298  0.19776712  1
  Nb  Nb142  1  0.40153986  0.40105652  0.80210821  1
  Nb  Nb143  1  0.80433203  0.39662258  0.39720212  1
  Nb  Nb144  1  0.80007374  0.20018791  0.80344258  1
  Nb  Nb145  1  0.60180826  0.19846161  0.80235785  1
  Nb  Nb146  1  0.20477256  0.60556061  0.39387508  1
  Nb  Nb147  1  0.80237769  0.59210868  0.79790073  1
  Nb  Nb148  1  0.39777742  -0.00232418  0.39786705  1
  Nb  Nb149  1  0.80557447  0.00175280  0.39512699  1
  Pd  Pd150  1  0.60482973  0.40209768  0.39727291  1
  Pd  Pd151  1  0.20913333  0.79070123  0.80029626  1
  Pd  Pd152  1  0.59625290  0.79241992  0.19424528  1
  Pd  Pd153  1  0.39297919  -0.00951407  0.00589039  1
  Pd  Pd154  1  0.00427064  0.80967164  0.60779227  1
  Pd  Pd155  1  0.39108898  0.61268950  0.39431349  1
  Pd  Pd156  1  0.20786666  0.19383186  0.61396576  1
  Pd  Pd157  1  0.60498248  0.00033721  0.40155340  1
  Pd  Pd158  1  0.60412150  0.00485937  0.80641010  1
  Pd  Pd159  1  0.80141922  0.20603414  0.60684518  1
  Pd  Pd160  1  0.19580984  0.01009692  0.61199634  1
  Pd  Pd161  1  0.20710266  0.40556097  0.80790344  1
  Pd  Pd162  1  0.79542386  0.79756445  0.00283672  1
  Pd  Pd163  1  0.20300685  -0.00274115  0.39356652  1
  Pd  Pd164  1  0.19719866  0.40651488  0.40389919  1
  Pd  Pd165  1  0.78915978  0.60935681  0.60946029  1
  Pd  Pd166  1  0.60734776  0.00009683  0.59877520  1
  Pd  Pd167  1  -0.00759619  -0.00110015  0.41083328  1
  Pd  Pd168  1  0.39284874  0.80048084  0.79833482  1
  Pd  Pd169  1  0.81455385  0.58836459  0.39150428  1
  Pd  Pd170  1  0.39735625  0.59770791  0.19622027  1
  Pd  Pd171  1  0.19128804  0.20573170  0.00525306  1
  Pd  Pd172  1  -0.00203187  0.41101720  0.79689863  1
  Pd  Pd173  1  0.80666079  0.38845239  0.59853551  1
  Pd  Pd174  1  -0.00157479  0.59272365  0.79701548  1
  Pd  Pd175  1  0.79459184  0.39891856  0.00142614  1
  Pd  Pd176  1  0.60154655  0.79416435  -0.00153441  1
  Pd  Pd177  1  0.19803523  0.59758986  0.20549275  1
  Pd  Pd178  1  0.19740834  0.60371575  -0.00739038  1
  Pd  Pd179  1  0.19874914  0.39718384  0.19872772  1
  Pd  Pd180  1  0.39721763  0.79702323  0.60756942  1
  Pd  Pd181  1  0.60374009  0.60858802  -0.00139954  1
  Pd  Pd182  1  0.39355566  0.01051915  0.59273083  1
  Pd  Pd183  1  0.40498540  0.40238627  0.60736250  1
  Pd  Pd184  1  0.60001291  0.00629683  0.19542928  1
  Pd  Pd185  1  0.40460301  0.19114597  0.41185069  1
  Pd  Pd186  1  0.18964004  0.41026750  0.59474998  1
  Pd  Pd187  1  0.18927664  0.59154491  0.58919578  1
  Pd  Pd188  1  0.60355000  0.79629886  0.60578763  1
  Pd  Pd189  1  -0.00526300  0.39168773  0.41023827  1
  Pd  Pd190  1  0.40159639  0.20859053  0.79110141  1
  Pd  Pd191  1  0.00796874  0.20140077  0.19372666  1
  Pd  Pd192  1  -0.00085790  0.59938940  0.39217872  1
  Pd  Pd193  1  0.20739647  0.20114650  0.80089865  1
  Pd  Pd194  1  0.00271628  0.00199563  -0.00403914  1
  Pd  Pd195  1  0.79813079  0.00500935  0.81176875  1
  Pd  Pd196  1  0.78414827  0.20172602  0.20167080  1
  Pd  Pd197  1  0.00358302  0.19743747  0.60142704  1
  Pd  Pd198  1  -0.00033602  0.19849810  0.39809519  1
  Pd  Pd199  1  0.40207132  0.41189781  -0.01197437  1
  Rh  Rh200  1  -0.00652818  0.40537087  0.19338892  1
  Rh  Rh201  1  0.00836036  0.59092261  0.60490528  1
  Rh  Rh202  1  0.20165186  0.79609066  -0.00624222  1
  Rh  Rh203  1  0.60460663  -0.00783312  -0.00153910  1
  Rh  Rh204  1  0.39684769  0.79953051  -0.00782321  1
  Rh  Rh205  1  0.01182409  0.80859044  0.39328180  1
  Rh  Rh206  1  0.19375977  0.79911538  0.20366879  1
  Rh  Rh207  1  -0.00044635  0.18785382  0.81568301  1
  Rh  Rh208  1  0.80630992  -0.00401979  0.58559447  1
  Rh  Rh209  1  -0.00475082  0.81049027  0.79520289  1
  Rh  Rh210  1  0.19683476  0.00214923  0.80154236  1
  Rh  Rh211  1  0.20943783  0.00731991  0.19384311  1
  Rh  Rh212  1  0.80913086  0.79150898  0.19532610  1
  Rh  Rh213  1  0.40912210  0.80309912  0.19965910  1
  Rh  Rh214  1  0.40581148  0.59243421  0.80687279  1
  Rh  Rh215  1  0.80606210  0.79386691  0.79836042  1
  Rh  Rh216  1  -0.00400649  -0.00685373  0.19223893  1
  Rh  Rh217  1  0.19221326  0.59972380  0.80674838  1
  Rh  Rh218  1  0.79415131  0.00080261  0.20481299  1
  Rh  Rh219  1  0.39807278  0.19463246  0.18626529  1
  Rh  Rh220  1  0.79609090  -0.00431552  0.00061041  1
  Rh  Rh221  1  0.39794784  0.59961470  -0.00269836  1
  Rh  Rh222  1  0.59777975  0.80108584  0.39892669  1
  Rh  Rh223  1  0.59398817  0.80013054  0.80481538  1
  Rh  Rh224  1  0.41157461  0.59641497  0.60751985  1
  Rh  Rh225  1  0.00607076  0.80035166  0.00979671  1
  Rh  Rh226  1  0.19968327  0.40455571  -0.00004307  1
  Rh  Rh227  1  0.39679475  0.39952982  0.40050915  1
  Rh  Rh228  1  0.60047712  0.39182299  0.80730398  1
  Rh  Rh229  1  0.60675982  0.59628934  0.19010895  1
  Rh  Rh230  1  0.59327240  0.18925902  0.61219333  1
  Rh  Rh231  1  0.40224275  0.40945423  0.19853006  1
  Rh  Rh232  1  0.59910546  0.60239687  0.41045105  1
  Rh  Rh233  1  0.80878242  0.19820019  -0.00320414  1
  Rh  Rh234  1  0.20271215  0.79595421  0.60311344  1
  Rh  Rh235  1  0.79623955  0.60290022  -0.00414048  1
  Rh  Rh236  1  0.18501758  0.20003356  0.38617886  1
  Rh  Rh237  1  0.60031226  0.40076433  0.00112044  1
  Rh  Rh238  1  0.00389949  0.39394447  0.00182478  1
  Rh  Rh239  1  0.59121246  0.19470124  0.39225922  1
  Rh  Rh240  1  0.40216877  0.20136133  0.00037317  1
  Rh  Rh241  1  0.80127929  0.19592042  0.39775610  1
  Rh  Rh242  1  0.00823685  0.60796614  0.00737113  1
  Rh  Rh243  1  0.59438871  0.41483348  0.58834762  1
  Rh  Rh244  1  0.59077014  0.20154820  -0.00121832  1
  Rh  Rh245  1  0.20532679  -0.00406200  0.00335483  1
  Rh  Rh246  1  0.60493325  0.60754378  0.79482865  1
  Rh  Rh247  1  0.79786136  0.79878604  0.60389696  1
  Rh  Rh248  1  0.39937760  -0.00893484  0.80355207  1
  Rh  Rh249  1  0.79295164  0.81325758  0.39830594  1
