# generated using pymatgen
data_ZrScNbPdRh
_symmetry_space_group_name_H-M   'P 1'
_cell_length_a   16.56363219
_cell_length_b   16.56206636
_cell_length_c   16.56490544
_cell_angle_alpha   90.02352674
_cell_angle_beta   90.02398040
_cell_angle_gamma   90.01110769
_symmetry_Int_Tables_number   1
_chemical_formula_structural   ZrScNbPdRh
_chemical_formula_sum   'Zr50 Sc50 Nb50 Pd50 Rh50'
_cell_volume   4544.21610885
_cell_formula_units_Z   50
loop_
 _symmetry_equiv_pos_site_id
 _symmetry_equiv_pos_as_xyz
  1  'x, y, z'
loop_
 _atom_site_type_symbol
 _atom_site_label
 _atom_site_symmetry_multiplicity
 _atom_site_fract_x
 _atom_site_fract_y
 _atom_site_fract_z
 _atom_site_occupancy
  Zr  Zr0  1  0.09612094  0.10915809  0.70672885  1
  Zr  Zr1  1  0.30216130  0.69494225  0.29950063  1
  Zr  Zr2  1  0.09057889  0.30642976  0.29632649  1
  Zr  Zr3  1  0.30228952  0.50042798  0.29806255  1
  Zr  Zr4  1  0.70017234  0.30142435  0.69396048  1
  Zr  Zr5  1  0.50709799  0.89970858  0.70347554  1
  Zr  Zr6  1  0.30678087  0.10128804  0.30155714  1
  Zr  Zr7  1  0.29143946  0.10461065  0.69348758  1
  Zr  Zr8  1  0.49725284  0.09515527  0.09174178  1
  Zr  Zr9  1  0.70012658  0.70321923  0.09618159  1
  Zr  Zr10  1  0.89993823  0.90237033  0.30051953  1
  Zr  Zr11  1  0.29731401  0.49855188  0.69458771  1
  Zr  Zr12  1  0.11262339  0.90483177  0.10553401  1
  Zr  Zr13  1  0.10292591  0.90965645  0.70655206  1
  Zr  Zr14  1  0.49006225  0.10024207  0.49067660  1
  Zr  Zr15  1  0.09850897  0.69516965  0.49882276  1
  Zr  Zr16  1  0.49658847  0.30038810  0.10200551  1
  Zr  Zr17  1  0.48371735  0.29993023  0.90027333  1
  Zr  Zr18  1  0.69890859  0.09533114  0.70116912  1
  Zr  Zr19  1  0.89291719  0.70103225  0.89725032  1
  Zr  Zr20  1  0.90143608  0.89469353  0.10283443  1
  Zr  Zr21  1  0.89930738  0.09765091  0.10296103  1
  Zr  Zr22  1  0.29995460  0.70603521  0.90022371  1
  Zr  Zr23  1  0.70489589  0.50895123  0.29775503  1
  Zr  Zr24  1  0.30323047  0.50271237  0.10315237  1
  Zr  Zr25  1  0.28653593  0.09734117  0.09674782  1
  Zr  Zr26  1  0.50646974  0.69790550  0.09910026  1
  Zr  Zr27  1  0.10306930  0.10117639  0.51677317  1
  Zr  Zr28  1  0.89541790  0.88770718  0.49878231  1
  Zr  Zr29  1  0.50246954  0.29968600  0.49234432  1
  Zr  Zr30  1  0.49718161  0.49736308  0.49648328  1
  Zr  Zr31  1  0.89669921  0.30248518  0.10680273  1
  Zr  Zr32  1  0.89954514  0.10632913  0.30201618  1
  Zr  Zr33  1  0.89938311  0.29588221  0.49866242  1
  Zr  Zr34  1  0.10059224  0.29465470  0.89481453  1
  Zr  Zr35  1  0.49878283  0.50353602  0.09233249  1
  Zr  Zr36  1  0.09690027  0.89315647  0.29377693  1
  Zr  Zr37  1  0.09407018  0.48742500  0.89376965  1
  Zr  Zr38  1  0.70176190  0.49170544  0.49987431  1
  Zr  Zr39  1  0.10641222  0.10407526  0.90144436  1
  Zr  Zr40  1  0.10055014  0.09595933  0.28415450  1
  Zr  Zr41  1  0.30159449  0.70212756  0.69736858  1
  Zr  Zr42  1  0.69983428  0.70037002  0.29176150  1
  Zr  Zr43  1  0.30069089  0.90097936  0.50038427  1
  Zr  Zr44  1  0.49866203  0.69405088  0.30264339  1
  Zr  Zr45  1  0.90122736  0.10611339  0.50229676  1
  Zr  Zr46  1  0.70530807  0.31171714  0.90300663  1
  Zr  Zr47  1  0.29859715  0.10440089  0.50061325  1
  Zr  Zr48  1  0.70150397  0.50584271  0.09652145  1
  Zr  Zr49  1  0.30690422  0.69738136  0.50201564  1
  Sc  Sc50  1  0.51407725  0.89888029  0.08679713  1
  Sc  Sc51  1  0.70141214  0.69891283  0.70197692  1
  Sc  Sc52  1  0.49466457  0.09851269  0.71047525  1
  Sc  Sc53  1  0.69882370  0.29519470  0.50421051  1
  Sc  Sc54  1  0.69727383  0.89751137  0.51090233  1
  Sc  Sc55  1  0.69324912  0.09424451  0.29784142  1
  Sc  Sc56  1  0.29795583  0.30110872  0.70219434  1
  Sc  Sc57  1  0.29759358  0.89928451  0.29728707  1
  Sc  Sc58  1  0.89518790  0.29796641  0.69622882  1
  Sc  Sc59  1  0.69782093  0.89995494  0.90874797  1
  Sc  Sc60  1  0.70860176  0.70007158  0.49176139  1
  Sc  Sc61  1  0.50360856  0.91430418  0.30599808  1
  Sc  Sc62  1  0.30430391  0.30144463  0.50802658  1
  Sc  Sc63  1  0.90247469  0.30382112  0.90613519  1
  Sc  Sc64  1  0.30894903  0.10449661  0.90335861  1
  Sc  Sc65  1  0.29814693  0.50187495  0.50306846  1
  Sc  Sc66  1  0.69792421  0.28893876  0.30420714  1
  Sc  Sc67  1  0.09375721  0.71574581  0.89270489  1
  Sc  Sc68  1  0.88536716  0.49484373  0.89931531  1
  Sc  Sc69  1  0.49103001  0.29746174  0.69399881  1
  Sc  Sc70  1  0.49536302  0.70070170  0.69727626  1
  Sc  Sc71  1  0.09110708  0.89944077  0.50441653  1
  Sc  Sc72  1  0.91042700  0.49852309  0.29400955  1
  Sc  Sc73  1  0.49310510  0.50116725  0.30233952  1
  Sc  Sc74  1  0.31442242  0.49636048  0.89431692  1
  Sc  Sc75  1  0.50287386  0.10792244  0.30068597  1
  Sc  Sc76  1  0.30340577  0.70141262  0.09341560  1
  Sc  Sc77  1  0.30096830  0.29523549  0.10379451  1
  Sc  Sc78  1  0.69721992  0.10792580  0.49865499  1
  Sc  Sc79  1  0.49812089  0.91225872  0.90134048  1
  Sc  Sc80  1  0.90415091  0.89145872  0.89565109  1
  Sc  Sc81  1  0.90310406  0.10118720  0.69883995  1
  Sc  Sc82  1  0.70772557  0.49626939  0.70625517  1
  Sc  Sc83  1  0.10081766  0.29237752  0.09850242  1
  Sc  Sc84  1  0.90039096  0.70806319  0.70317813  1
  Sc  Sc85  1  0.70163281  0.08800889  0.90303856  1
  Sc  Sc86  1  0.70570531  0.30012109  0.10122359  1
  Sc  Sc87  1  0.10352680  0.50695083  0.49996345  1
  Sc  Sc88  1  0.89464679  0.49991102  0.10431563  1
  Sc  Sc89  1  0.09418501  0.49782247  0.11372087  1
  Sc  Sc90  1  0.50132319  0.68934168  0.90545591  1
  Sc  Sc91  1  0.10071187  0.70333976  0.69293199  1
  Sc  Sc92  1  0.09478066  0.30362036  0.50201334  1
  Sc  Sc93  1  0.50227184  0.89656745  0.50378934  1
  Sc  Sc94  1  0.90436734  0.10412568  0.89977178  1
  Sc  Sc95  1  0.09970784  0.70824198  0.10992752  1
  Sc  Sc96  1  0.70165266  0.09021556  0.10373638  1
  Sc  Sc97  1  0.89479255  0.69696208  0.30764690  1
  Sc  Sc98  1  0.10784084  0.30425283  0.70564911  1
  Sc  Sc99  1  0.70028324  0.90421181  0.69975030  1
  Nb  Nb100  1  0.89779407  0.50066772  0.69895672  1
  Nb  Nb101  1  0.10577954  0.50399358  0.30256353  1
  Nb  Nb102  1  0.10380249  0.09548839  0.09658188  1
  Nb  Nb103  1  0.29340197  0.89797902  0.90334999  1
  Nb  Nb104  1  0.50438365  0.49796458  0.89849834  1
  Nb  Nb105  1  0.50260634  0.10233396  0.90250369  1
  Nb  Nb106  1  0.89852331  0.69531163  0.08923676  1
  Nb  Nb107  1  0.10313068  0.90508927  0.90017191  1
  Nb  Nb108  1  0.70125357  0.90162811  0.11198525  1
  Nb  Nb109  1  0.70164781  0.69063665  0.89821917  1
  Nb  Nb110  1  0.50429265  0.70022015  0.50102370  1
  Nb  Nb111  1  0.70441627  0.89952025  0.29605551  1
  Nb  Nb112  1  0.10249214  0.49894162  0.69952572  1
  Nb  Nb113  1  0.89871520  0.69369215  0.50008546  1
  Nb  Nb114  1  0.30217856  0.89906804  0.09465749  1
  Nb  Nb115  1  0.89925328  0.89995259  0.69990034  1
  Nb  Nb116  1  0.49159473  0.30415063  0.29874651  1
  Nb  Nb117  1  0.90186750  0.30067306  0.30763614  1
  Nb  Nb118  1  0.29559042  0.29924826  0.89765960  1
  Nb  Nb119  1  0.49480978  0.50381683  0.70566991  1
  Nb  Nb120  1  0.90296127  0.50017444  0.49746350  1
  Nb  Nb121  1  0.10834481  0.69261141  0.30284624  1
  Nb  Nb122  1  0.30253318  0.30130599  0.29800471  1
  Nb  Nb123  1  0.30325094  0.89901755  0.70468123  1
  Nb  Nb124  1  0.69682366  0.50650718  0.89864328  1
  Nb  Nb125  1  0.40353301  0.80690290  0.19466163  1
  Nb  Nb126  1  -0.00300060  0.41048801  0.60236567  1
  Nb  Nb127  1  0.20069334  0.40252603  -0.00367196  1
  Nb  Nb128  1  0.19614100  0.79723813  0.39819039  1
  Nb  Nb129  1  0.19926396  0.20287085  0.39456670  1
  Nb  Nb130  1  0.19498824  0.00155410  0.40019713  1
  Nb  Nb131  1  0.01007849  -0.00231815  0.00151730  1
  Nb  Nb132  1  0.19461767  0.59728631  0.80235089  1
  Nb  Nb133  1  0.60097992  0.20428270  0.80772152  1
  Nb  Nb134  1  0.39502464  -0.00371322  0.60578365  1
  Nb  Nb135  1  0.80113693  -0.00354241  0.40035403  1
  Nb  Nb136  1  0.00121963  0.60210030  -0.00517322  1
  Nb  Nb137  1  0.59804192  0.19975645  -0.00619393  1
  Nb  Nb138  1  0.60085683  0.79590226  0.80561482  1
  Nb  Nb139  1  0.59687980  0.40003540  0.20197576  1
  Nb  Nb140  1  0.19087417  0.59495196  -0.00851229  1
  Nb  Nb141  1  0.19897218  0.39859512  0.39188985  1
  Nb  Nb142  1  0.60273824  0.79879675  0.39726184  1
  Nb  Nb143  1  0.39851649  -0.00485220  0.18944909  1
  Nb  Nb144  1  0.80593938  0.59652861  0.59599686  1
  Nb  Nb145  1  0.59322502  0.40319795  0.80504831  1
  Nb  Nb146  1  0.60081833  0.59690137  0.59791186  1
  Nb  Nb147  1  0.80838788  0.39727687  0.39877260  1
  Nb  Nb148  1  0.00067693  0.59385025  0.79892865  1
  Nb  Nb149  1  0.79118521  0.20132855  0.80108283  1
  Pd  Pd150  1  0.59347707  0.40773130  0.61173313  1
  Pd  Pd151  1  -0.00467868  0.60696012  0.19675740  1
  Pd  Pd152  1  0.19716601  0.80443675  0.59522557  1
  Pd  Pd153  1  0.20054769  0.60441390  0.18970198  1
  Pd  Pd154  1  0.80643064  0.00034780  0.80385610  1
  Pd  Pd155  1  0.00162026  0.40550702  0.01054592  1
  Pd  Pd156  1  -0.00784074  -0.00484870  0.60230821  1
  Pd  Pd157  1  0.19303996  0.79375699  0.00232541  1
  Pd  Pd158  1  -0.00056944  0.80123434  0.60579639  1
  Pd  Pd159  1  0.80434011  0.00304020  0.59328684  1
  Pd  Pd160  1  -0.00445704  0.59886999  0.60710515  1
  Pd  Pd161  1  0.00132969  0.00564346  0.40427946  1
  Pd  Pd162  1  0.79340031  0.80437068  -0.00078683  1
  Pd  Pd163  1  0.41006519  0.80121853  0.80964282  1
  Pd  Pd164  1  0.39069926  0.39889931  0.00255177  1
  Pd  Pd165  1  0.58886902  0.01000858  0.59618262  1
  Pd  Pd166  1  0.19891704  0.39536862  0.19677824  1
  Pd  Pd167  1  0.79331122  0.19651051  -0.00522555  1
  Pd  Pd168  1  0.39939110  0.19123020  0.19489444  1
  Pd  Pd169  1  0.40453670  0.80547192  0.60221819  1
  Pd  Pd170  1  0.81016576  -0.00830991  -0.00102632  1
  Pd  Pd171  1  0.79376694  0.39692769  0.21018341  1
  Pd  Pd172  1  0.39274149  0.00157540  0.79979697  1
  Pd  Pd173  1  0.60163946  0.20342538  0.19317383  1
  Pd  Pd174  1  0.60261989  0.60477435  0.40534196  1
  Pd  Pd175  1  0.40157753  0.40120525  0.60062199  1
  Pd  Pd176  1  0.79584209  0.79156958  0.60394458  1
  Pd  Pd177  1  0.61152688  -0.00537476  0.40718369  1
  Pd  Pd178  1  0.59053136  0.80983264  0.20746790  1
  Pd  Pd179  1  0.78947754  0.80568815  0.79913205  1
  Pd  Pd180  1  0.19679679  0.79745195  0.79460705  1
  Pd  Pd181  1  0.80812002  0.79174740  0.19838372  1
  Pd  Pd182  1  0.00764834  0.80233246  0.00248419  1
  Pd  Pd183  1  -0.00595608  -0.00080899  0.80650398  1
  Pd  Pd184  1  0.40900577  0.80467173  -0.00195233  1
  Pd  Pd185  1  0.60769876  0.39521522  0.38836785  1
  Pd  Pd186  1  0.60090306  0.60025688  0.79168251  1
  Pd  Pd187  1  0.59030838  0.19232164  0.60615435  1
  Pd  Pd188  1  0.40481919  0.80661921  0.39189763  1
  Pd  Pd189  1  -0.00814053  0.78743623  0.20606516  1
  Pd  Pd190  1  0.20998828  0.00689607  0.80606214  1
  Pd  Pd191  1  -0.01129979  0.39630789  0.79139093  1
  Pd  Pd192  1  0.00003982  0.20249879  0.19422899  1
  Pd  Pd193  1  0.79417582  0.19660135  0.20421096  1
  Pd  Pd194  1  0.00385884  0.79126313  0.39567953  1
  Pd  Pd195  1  -0.00055959  0.19499250  0.00437301  1
  Pd  Pd196  1  0.01197845  0.19305700  0.40179350  1
  Pd  Pd197  1  0.39540345  0.60432355  0.80237981  1
  Pd  Pd198  1  -0.00086078  0.59822222  0.39488439  1
  Pd  Pd199  1  0.60094680  0.39552461  0.00189847  1
  Rh  Rh200  1  0.40400551  0.60787933  0.19421479  1
  Rh  Rh201  1  0.80285311  0.59759333  -0.00129600  1
  Rh  Rh202  1  0.60407662  0.60195531  -0.00213249  1
  Rh  Rh203  1  0.79612274  0.19702400  0.39842225  1
  Rh  Rh204  1  0.00540632  0.21318771  0.61010266  1
  Rh  Rh205  1  0.00369382  0.40843065  0.40389964  1
  Rh  Rh206  1  0.79194347  0.80666055  0.39915957  1
  Rh  Rh207  1  0.40341284  0.19245723  0.60135477  1
  Rh  Rh208  1  -0.00348942  -0.00102141  0.19005087  1
  Rh  Rh209  1  0.60216037  -0.00315468  0.80416089  1
  Rh  Rh210  1  0.79719939  0.19279115  0.60780631  1
  Rh  Rh211  1  0.21097956  0.40557137  0.80535849  1
  Rh  Rh212  1  0.60627566  0.79392369  -0.01064422  1
  Rh  Rh213  1  0.20472979  -0.00959233  0.60000771  1
  Rh  Rh214  1  0.80011981  0.40679465  0.00475575  1
  Rh  Rh215  1  0.20105651  -0.00159230  -0.00896812  1
  Rh  Rh216  1  0.20309052  0.20881534  -0.00136182  1
  Rh  Rh217  1  0.19495621  0.21397932  0.59684515  1
  Rh  Rh218  1  0.39383227  -0.00455592  0.40064623  1
  Rh  Rh219  1  0.60752489  0.00456030  0.00351578  1
  Rh  Rh220  1  0.80914734  0.40393612  0.59065125  1
  Rh  Rh221  1  0.80825705  0.60679391  0.19544646  1
  Rh  Rh222  1  0.40170082  0.39782740  0.79288918  1
  Rh  Rh223  1  0.20703025  0.19714589  0.80196408  1
  Rh  Rh224  1  0.39612134  0.21224675  0.39958546  1
  Rh  Rh225  1  0.38980876  0.39811672  0.40119149  1
  Rh  Rh226  1  0.20135160  0.60177717  0.60635669  1
  Rh  Rh227  1  0.59381915  0.58866822  0.20001694  1
  Rh  Rh228  1  0.80502600  0.59999783  0.79391786  1
  Rh  Rh229  1  0.40576755  0.40237136  0.19998795  1
  Rh  Rh230  1  0.19136891  0.40029387  0.59006593  1
  Rh  Rh231  1  0.39747103  0.19967629  0.00325747  1
  Rh  Rh232  1  0.60415023  0.78617096  0.60003664  1
  Rh  Rh233  1  0.59592652  0.20304020  0.39755367  1
  Rh  Rh234  1  0.80488421  0.59035802  0.40314362  1
  Rh  Rh235  1  -0.01051593  0.20810659  0.79824210  1
  Rh  Rh236  1  0.20948657  -0.00135597  0.20622097  1
  Rh  Rh237  1  0.40920149  0.59796279  0.59726934  1
  Rh  Rh238  1  0.79763817  0.39599194  0.79941219  1
  Rh  Rh239  1  0.21226486  0.79470889  0.20515119  1
  Rh  Rh240  1  -0.00280986  0.39790501  0.19775455  1
  Rh  Rh241  1  0.39816901  0.59597045  0.40704536  1
  Rh  Rh242  1  0.59351076  -0.00390083  0.19675357  1
  Rh  Rh243  1  0.00264104  0.80509178  0.79210480  1
  Rh  Rh244  1  0.39475127  0.59920037  -0.00413242  1
  Rh  Rh245  1  0.39303571  -0.00313038  -0.00044612  1
  Rh  Rh246  1  0.20581416  0.59867934  0.40235330  1
  Rh  Rh247  1  0.80097988  0.00168408  0.20805101  1
  Rh  Rh248  1  0.19877595  0.20441469  0.20409769  1
  Rh  Rh249  1  0.39831356  0.20033456  0.79863088  1
