# generated using pymatgen
data_ZrScNbPdRh
_symmetry_space_group_name_H-M   'P 1'
_cell_length_a   16.56197161
_cell_length_b   16.55952411
_cell_length_c   16.56096810
_cell_angle_alpha   89.98694562
_cell_angle_beta   89.99706460
_cell_angle_gamma   89.99213253
_symmetry_Int_Tables_number   1
_chemical_formula_structural   ZrScNbPdRh
_chemical_formula_sum   'Zr50 Sc50 Nb50 Pd50 Rh50'
_cell_volume   4541.98392161
_cell_formula_units_Z   50
loop_
 _symmetry_equiv_pos_site_id
 _symmetry_equiv_pos_as_xyz
  1  'x, y, z'
loop_
 _atom_site_type_symbol
 _atom_site_label
 _atom_site_symmetry_multiplicity
 _atom_site_fract_x
 _atom_site_fract_y
 _atom_site_fract_z
 _atom_site_occupancy
  Zr  Zr0  1  0.49778807  0.90202376  0.49901590  1
  Zr  Zr1  1  0.89994736  0.29436055  0.09357971  1
  Zr  Zr2  1  0.50481617  0.30543978  0.90272122  1
  Zr  Zr3  1  0.69766407  0.50351344  0.50402267  1
  Zr  Zr4  1  0.89957159  0.49558151  0.09304871  1
  Zr  Zr5  1  0.29887512  0.10250782  0.28120488  1
  Zr  Zr6  1  0.69276217  0.49671093  0.30172048  1
  Zr  Zr7  1  0.50131764  0.09377635  0.69930606  1
  Zr  Zr8  1  0.70296848  0.10087099  0.90744792  1
  Zr  Zr9  1  0.29979918  0.29794975  0.29663614  1
  Zr  Zr10  1  0.91072793  0.49185006  0.70837181  1
  Zr  Zr11  1  0.30359163  0.09149350  0.90592398  1
  Zr  Zr12  1  0.30346454  0.70104494  0.50948947  1
  Zr  Zr13  1  0.30170303  0.31227566  0.69457033  1
  Zr  Zr14  1  0.50002739  0.70660867  0.49794452  1
  Zr  Zr15  1  0.69993073  0.50549861  0.89873140  1
  Zr  Zr16  1  0.89557165  0.10143530  0.69405790  1
  Zr  Zr17  1  0.09588086  0.09813575  0.70498040  1
  Zr  Zr18  1  0.50134791  0.69718343  0.91331950  1
  Zr  Zr19  1  0.49779702  0.09885999  0.90291133  1
  Zr  Zr20  1  0.10334467  0.70634934  0.49995311  1
  Zr  Zr21  1  0.89936853  0.30034310  0.30047129  1
  Zr  Zr22  1  0.69928697  0.69633214  0.50671098  1
  Zr  Zr23  1  0.30418813  0.30907768  0.90187980  1
  Zr  Zr24  1  0.69891253  0.89190250  0.49317321  1
  Zr  Zr25  1  0.11005577  0.29777053  0.30019637  1
  Zr  Zr26  1  0.90494492  0.50111079  0.30421304  1
  Zr  Zr27  1  0.49687952  0.90949306  0.69955558  1
  Zr  Zr28  1  0.48115581  0.10246368  0.10047116  1
  Zr  Zr29  1  0.70029779  0.90680439  0.10026394  1
  Zr  Zr30  1  0.70778061  0.69973215  0.70287420  1
  Zr  Zr31  1  0.69970033  0.90686243  0.89965166  1
  Zr  Zr32  1  0.89059173  0.89748260  0.70347509  1
  Zr  Zr33  1  0.09898854  0.89929165  0.70834229  1
  Zr  Zr34  1  0.90216283  0.49890145  0.90236167  1
  Zr  Zr35  1  0.89867824  0.90643953  0.49794045  1
  Zr  Zr36  1  0.29545006  0.29971634  0.49891079  1
  Zr  Zr37  1  0.69454897  0.90303716  0.29350765  1
  Zr  Zr38  1  0.50670089  0.30957037  0.70034491  1
  Zr  Zr39  1  0.30551612  0.09338947  0.69898429  1
  Zr  Zr40  1  0.09695995  0.29721834  0.50222590  1
  Zr  Zr41  1  0.29488188  0.71538124  0.30693634  1
  Zr  Zr42  1  0.09990017  0.50123800  0.09877854  1
  Zr  Zr43  1  0.89335094  0.90669876  0.10396483  1
  Zr  Zr44  1  0.30496377  0.49583716  0.50521169  1
  Zr  Zr45  1  0.49934466  0.09980303  0.29893471  1
  Zr  Zr46  1  0.10558044  0.09392630  0.09527250  1
  Zr  Zr47  1  0.09920746  0.50027198  0.29664480  1
  Zr  Zr48  1  0.69482676  0.29637296  0.49714031  1
  Zr  Zr49  1  0.09594721  0.09549787  0.49854608  1
  Sc  Sc50  1  0.68962717  0.50343383  0.69850471  1
  Sc  Sc51  1  0.30512081  0.70540812  0.10075288  1
  Sc  Sc52  1  0.30114560  0.50263337  0.09919478  1
  Sc  Sc53  1  0.09469109  0.09160176  0.89799420  1
  Sc  Sc54  1  0.50091601  0.09538347  0.49997330  1
  Sc  Sc55  1  0.30630736  0.88588520  0.49308030  1
  Sc  Sc56  1  0.09066551  0.89164543  0.30180641  1
  Sc  Sc57  1  0.10244254  0.90718340  0.89833786  1
  Sc  Sc58  1  0.29367262  0.90573480  0.10205732  1
  Sc  Sc59  1  0.89188774  0.68999089  0.89232950  1
  Sc  Sc60  1  0.09025911  0.70318855  0.29820812  1
  Sc  Sc61  1  0.08871157  0.89548081  0.49650464  1
  Sc  Sc62  1  0.90975322  0.29373794  0.90254129  1
  Sc  Sc63  1  0.88965253  0.09254687  0.30446563  1
  Sc  Sc64  1  0.69929429  0.70954196  0.30849826  1
  Sc  Sc65  1  0.50464578  0.49956641  0.90561638  1
  Sc  Sc66  1  0.11382512  0.70171716  0.70127306  1
  Sc  Sc67  1  0.29890064  0.89973411  0.89893830  1
  Sc  Sc68  1  0.10057980  0.70570663  0.10700993  1
  Sc  Sc69  1  0.69604050  0.29071658  0.29688094  1
  Sc  Sc70  1  0.09541609  0.49146132  0.49729487  1
  Sc  Sc71  1  0.30565864  0.69795422  0.89410112  1
  Sc  Sc72  1  0.10163736  0.30162160  0.09086607  1
  Sc  Sc73  1  0.49556939  0.90587161  0.90426893  1
  Sc  Sc74  1  0.89515459  0.70222930  0.70282221  1
  Sc  Sc75  1  0.10534583  0.70456952  0.89526072  1
  Sc  Sc76  1  0.51089588  0.49734608  0.50023706  1
  Sc  Sc77  1  0.48991929  0.69582191  0.70173530  1
  Sc  Sc78  1  0.49915268  0.90382232  0.30242129  1
  Sc  Sc79  1  0.90859452  0.28738263  0.70022679  1
  Sc  Sc80  1  0.68531033  0.70094193  0.10271507  1
  Sc  Sc81  1  0.69668868  0.49599211  0.09797122  1
  Sc  Sc82  1  0.90522064  0.10144169  0.90401198  1
  Sc  Sc83  1  0.70198948  0.29638407  0.09617941  1
  Sc  Sc84  1  0.89533704  0.89083654  0.30177707  1
  Sc  Sc85  1  0.30631687  0.29788963  0.10295024  1
  Sc  Sc86  1  0.49937349  0.89080708  0.10120137  1
  Sc  Sc87  1  0.89321224  0.70405218  0.50010829  1
  Sc  Sc88  1  0.09770082  0.49282005  0.89449323  1
  Sc  Sc89  1  0.09551142  0.30612058  0.69972952  1
  Sc  Sc90  1  0.51268047  0.30007645  0.30411449  1
  Sc  Sc91  1  0.50300348  0.70297096  0.28698254  1
  Sc  Sc92  1  0.29224407  0.49356626  0.29551727  1
  Sc  Sc93  1  0.90301670  0.69796332  0.10069272  1
  Sc  Sc94  1  0.90652888  0.49832792  0.50020008  1
  Sc  Sc95  1  0.29894193  0.50087111  0.89493667  1
  Sc  Sc96  1  0.70766818  0.09859901  0.49227699  1
  Sc  Sc97  1  0.49864236  0.30654310  0.50199378  1
  Sc  Sc98  1  0.50272758  0.30080931  0.09182280  1
  Sc  Sc99  1  0.29987261  0.10463262  0.50305667  1
  Nb  Nb100  1  0.70559313  0.29424585  0.70070527  1
  Nb  Nb101  1  0.50067040  0.50304727  0.29625298  1
  Nb  Nb102  1  0.89975784  0.29405233  0.50326448  1
  Nb  Nb103  1  0.10572729  0.29581982  0.89629972  1
  Nb  Nb104  1  0.90107808  0.89823268  0.90051714  1
  Nb  Nb105  1  0.30399688  0.89705303  0.69883973  1
  Nb  Nb106  1  0.50386923  0.52270508  0.10690424  1
  Nb  Nb107  1  0.29837784  0.10214180  0.10034122  1
  Nb  Nb108  1  0.29681507  0.51540665  0.70197548  1
  Nb  Nb109  1  0.68790466  0.09840526  0.29475638  1
  Nb  Nb110  1  0.50072071  0.49654304  0.69694388  1
  Nb  Nb111  1  0.90473589  0.10195884  0.50003356  1
  Nb  Nb112  1  0.30140729  0.69225573  0.69840286  1
  Nb  Nb113  1  0.09051412  0.90069984  0.09523617  1
  Nb  Nb114  1  0.49821423  0.68978353  0.09986445  1
  Nb  Nb115  1  0.70087163  0.09885885  0.70538194  1
  Nb  Nb116  1  0.70115629  0.70021627  0.89505432  1
  Nb  Nb117  1  0.10389885  0.10215005  0.29902059  1
  Nb  Nb118  1  0.71539092  0.09486797  0.10302698  1
  Nb  Nb119  1  0.30038327  0.90415799  0.30452687  1
  Nb  Nb120  1  0.69176005  0.30440935  0.89913603  1
  Nb  Nb121  1  0.90020279  0.10113982  0.09589746  1
  Nb  Nb122  1  0.69731038  0.90441036  0.70368642  1
  Nb  Nb123  1  0.89826643  0.69861662  0.29700627  1
  Nb  Nb124  1  0.10222648  0.50021589  0.70563711  1
  Nb  Nb125  1  0.60200873  0.80382125  0.61045710  1
  Nb  Nb126  1  0.40181761  0.20336636  0.79983642  1
  Nb  Nb127  1  -0.00603103  0.80570458  -0.00268186  1
  Nb  Nb128  1  0.60256536  0.80190019  0.79994620  1
  Nb  Nb129  1  0.20425574  0.60328013  0.40265857  1
  Nb  Nb130  1  -0.00032016  0.39608093  0.19846837  1
  Nb  Nb131  1  0.00608632  0.59903219  0.60600595  1
  Nb  Nb132  1  0.41195147  0.40838226  0.20184425  1
  Nb  Nb133  1  -0.00220846  0.19503905  0.39835301  1
  Nb  Nb134  1  0.80112815  0.39135474  0.60141344  1
  Nb  Nb135  1  0.80096206  0.59912929  0.20566385  1
  Nb  Nb136  1  0.20037719  -0.00137043  0.39579032  1
  Nb  Nb137  1  0.79896260  0.80004919  -0.00522219  1
  Nb  Nb138  1  0.39701881  0.20215455  0.39585878  1
  Nb  Nb139  1  0.60807783  0.19641188  0.60797414  1
  Nb  Nb140  1  0.00027990  0.00552089  0.19888121  1
  Nb  Nb141  1  0.79975527  0.39688842  0.40542302  1
  Nb  Nb142  1  0.79561662  0.39256087  0.79825927  1
  Nb  Nb143  1  0.00108605  0.19470022  0.20074285  1
  Nb  Nb144  1  0.20072317  -0.00787056  0.59784131  1
  Nb  Nb145  1  0.20461611  0.19737791  -0.00622224  1
  Nb  Nb146  1  0.19862427  0.60151662  -0.00013696  1
  Nb  Nb147  1  0.60310417  0.19975170  0.79843394  1
  Nb  Nb148  1  0.20665823  0.20249646  0.80333883  1
  Nb  Nb149  1  0.39841410  0.59801554  0.39526030  1
  Pd  Pd150  1  0.80615394  0.00547666  0.80569499  1
  Pd  Pd151  1  0.19146909  0.59294755  0.59367232  1
  Pd  Pd152  1  0.19485848  0.19376941  0.60920588  1
  Pd  Pd153  1  0.00773601  0.60998741  0.79671143  1
  Pd  Pd154  1  0.80283915  0.19464688  0.20181634  1
  Pd  Pd155  1  0.59267075  0.60794357  0.39419598  1
  Pd  Pd156  1  0.80210547  0.40431801  0.20536715  1
  Pd  Pd157  1  0.59573881  0.39772970  0.19215328  1
  Pd  Pd158  1  0.19499463  0.40874644  0.60416654  1
  Pd  Pd159  1  -0.00492851  0.79350082  0.60494802  1
  Pd  Pd160  1  0.00984518  0.61224706  -0.00514491  1
  Pd  Pd161  1  -0.00171555  0.79512201  0.80496394  1
  Pd  Pd162  1  0.80149187  0.20018947  0.39642725  1
  Pd  Pd163  1  0.79645890  0.78924722  0.19261773  1
  Pd  Pd164  1  0.19513452  0.79794013  -0.00018892  1
  Pd  Pd165  1  0.79123940  0.61050645  0.01138357  1
  Pd  Pd166  1  0.59367854  0.00608641  0.01078626  1
  Pd  Pd167  1  0.81331601  0.58737618  0.60748523  1
  Pd  Pd168  1  0.80027298  0.59682668  0.39655004  1
  Pd  Pd169  1  0.40819562  0.41321304  0.01138804  1
  Pd  Pd170  1  0.19571619  0.80764158  0.20040357  1
  Pd  Pd171  1  0.41081538  0.59366408  0.59367975  1
  Pd  Pd172  1  0.40407804  0.80130755  0.79904481  1
  Pd  Pd173  1  0.19924531  0.40549035  0.40150433  1
  Pd  Pd174  1  0.20321626  0.80865344  0.60246321  1
  Pd  Pd175  1  0.59247145  0.60705839  0.79784448  1
  Pd  Pd176  1  0.59785589  0.19639067  0.18806427  1
  Pd  Pd177  1  0.40816529  0.59267640  0.80541112  1
  Pd  Pd178  1  0.00547342  0.60766455  0.40902526  1
  Pd  Pd179  1  0.79479402  -0.00282197  0.39487850  1
  Pd  Pd180  1  0.60460165  0.19340698  0.00532636  1
  Pd  Pd181  1  0.38720834  0.60020642  0.20811399  1
  Pd  Pd182  1  0.61187063  0.00145476  0.59194879  1
  Pd  Pd183  1  0.20611815  0.60712985  0.19947034  1
  Pd  Pd184  1  0.00188589  -0.00630278  0.60592366  1
  Pd  Pd185  1  0.59052202  0.00322072  0.19027424  1
  Pd  Pd186  1  0.79308448  0.00050211  0.59690618  1
  Pd  Pd187  1  0.79895668  0.20391081  0.81097940  1
  Pd  Pd188  1  0.20173749  0.40258080  0.00225201  1
  Pd  Pd189  1  0.40592306  0.40006427  0.39332883  1
  Pd  Pd190  1  0.39538452  0.80206278  0.00256997  1
  Pd  Pd191  1  -0.00564912  0.59708903  0.19584738  1
  Pd  Pd192  1  0.60438159  0.80071439  -0.00395759  1
  Pd  Pd193  1  0.40074404  0.80583359  0.20112677  1
  Pd  Pd194  1  0.19083679  -0.01274924  0.20530862  1
  Pd  Pd195  1  0.38990717  0.00912337  0.40109847  1
  Pd  Pd196  1  0.20971107  0.79988965  0.80115865  1
  Pd  Pd197  1  0.40027135  0.40852627  0.79673478  1
  Pd  Pd198  1  0.79802950  0.39238375  -0.00986923  1
  Pd  Pd199  1  0.41063185  0.20317240  0.59802035  1
  Rh  Rh200  1  -0.01079029  0.79356046  0.40039288  1
  Rh  Rh201  1  0.41007843  0.79481425  0.38991505  1
  Rh  Rh202  1  0.20285557  0.18959727  0.40373722  1
  Rh  Rh203  1  0.61114283  0.60466559  0.20674178  1
  Rh  Rh204  1  0.00296389  0.19745049  0.59627153  1
  Rh  Rh205  1  0.00334327  0.00598730  0.38939148  1
  Rh  Rh206  1  0.59808318  0.40900425  0.00722318  1
  Rh  Rh207  1  0.60398592  0.40071398  0.40028624  1
  Rh  Rh208  1  0.59289764  0.61016871  0.60742317  1
  Rh  Rh209  1  -0.00122706  0.39069953  0.80491739  1
  Rh  Rh210  1  0.60027860  0.00193960  0.80555792  1
  Rh  Rh211  1  0.60806764  0.39565748  0.60166098  1
  Rh  Rh212  1  0.40507368  0.80268532  0.61003348  1
  Rh  Rh213  1  0.59710382  0.80150485  0.19864012  1
  Rh  Rh214  1  0.19221100  0.20538155  0.18325842  1
  Rh  Rh215  1  0.00900044  0.19781959  0.80276019  1
  Rh  Rh216  1  0.20057596  0.39490777  0.19093866  1
  Rh  Rh217  1  0.79982498  0.58598467  0.79368043  1
  Rh  Rh218  1  0.39683615  -0.00903465  0.00926133  1
  Rh  Rh219  1  0.19956375  0.59874165  0.80631338  1
  Rh  Rh220  1  -0.00539764  -0.00561844  0.00287506  1
  Rh  Rh221  1  0.20165314  -0.00028932  -0.00063925  1
  Rh  Rh222  1  0.41207191  0.21531084  0.20708334  1
  Rh  Rh223  1  -0.00323833  0.40307911  0.60149391  1
  Rh  Rh224  1  0.00270249  0.39652697  -0.00173198  1
  Rh  Rh225  1  0.79700137  0.19703384  0.59667014  1
  Rh  Rh226  1  0.19252606  0.80487771  0.39918583  1
  Rh  Rh227  1  0.60608400  0.59901967  -0.00059435  1
  Rh  Rh228  1  0.39130901  0.60039007  -0.00144821  1
  Rh  Rh229  1  0.80280809  0.79889773  0.40095404  1
  Rh  Rh230  1  0.20073152  0.40062061  0.79320605  1
  Rh  Rh231  1  0.39730098  -0.00087054  0.80384286  1
  Rh  Rh232  1  0.80181389  0.00471030  0.20735168  1
  Rh  Rh233  1  0.59548810  0.80080879  0.40008515  1
  Rh  Rh234  1  -0.00272342  0.38811850  0.39664256  1
  Rh  Rh235  1  0.40153848  0.40891464  0.60396676  1
  Rh  Rh236  1  0.39177791  0.20208792  -0.00665384  1
  Rh  Rh237  1  0.60439179  0.00284663  0.39906552  1
  Rh  Rh238  1  0.59232349  0.19158800  0.40827572  1
  Rh  Rh239  1  0.20462513  0.00124910  0.79178625  1
  Rh  Rh240  1  0.80652222  -0.00168436  -0.00544351  1
  Rh  Rh241  1  -0.01085612  -0.00080343  0.79763897  1
  Rh  Rh242  1  0.79551237  0.80765557  0.59882719  1
  Rh  Rh243  1  0.38702420  -0.00894670  0.58862566  1
  Rh  Rh244  1  0.39928143  -0.00789479  0.19628327  1
  Rh  Rh245  1  0.79648185  0.20261259  -0.00331931  1
  Rh  Rh246  1  0.01175712  0.19661879  0.00217515  1
  Rh  Rh247  1  0.79399967  0.80365618  0.80705956  1
  Rh  Rh248  1  -0.00598614  0.80579254  0.19301885  1
  Rh  Rh249  1  0.60714318  0.40098716  0.79745610  1
