# generated using pymatgen
data_ZrScNbPdRh
_symmetry_space_group_name_H-M   'P 1'
_cell_length_a   16.56211585
_cell_length_b   16.56150877
_cell_length_c   16.56342602
_cell_angle_alpha   90.00514092
_cell_angle_beta   89.98536934
_cell_angle_gamma   90.03163807
_symmetry_Int_Tables_number   1
_chemical_formula_structural   ZrScNbPdRh
_chemical_formula_sum   'Zr50 Sc50 Nb50 Pd50 Rh50'
_cell_volume   4543.24133884
_cell_formula_units_Z   50
loop_
 _symmetry_equiv_pos_site_id
 _symmetry_equiv_pos_as_xyz
  1  'x, y, z'
loop_
 _atom_site_type_symbol
 _atom_site_label
 _atom_site_symmetry_multiplicity
 _atom_site_fract_x
 _atom_site_fract_y
 _atom_site_fract_z
 _atom_site_occupancy
  Zr  Zr0  1  0.90392886  0.90736864  0.10742988  1
  Zr  Zr1  1  0.69645861  0.50827592  0.70844240  1
  Zr  Zr2  1  0.29593954  0.10377997  0.89360523  1
  Zr  Zr3  1  0.49754976  0.29655145  0.89875544  1
  Zr  Zr4  1  0.30049673  0.50011641  0.91073047  1
  Zr  Zr5  1  0.30084391  0.90818971  0.10098078  1
  Zr  Zr6  1  0.49878210  0.10536876  0.89955448  1
  Zr  Zr7  1  0.49321915  0.90862876  0.30525071  1
  Zr  Zr8  1  0.09846792  0.70354304  0.30060627  1
  Zr  Zr9  1  0.69785065  0.69306018  0.29827865  1
  Zr  Zr10  1  0.70702395  0.29479433  0.49548031  1
  Zr  Zr11  1  0.10301030  0.49899679  0.89407471  1
  Zr  Zr12  1  0.70109241  0.29756385  0.09669925  1
  Zr  Zr13  1  0.49505904  0.89651265  0.90233682  1
  Zr  Zr14  1  0.09933795  0.31539700  0.70178468  1
  Zr  Zr15  1  0.10184455  0.29407288  0.30006568  1
  Zr  Zr16  1  0.90175000  0.29616361  0.90118014  1
  Zr  Zr17  1  0.09156469  0.09839300  0.09810119  1
  Zr  Zr18  1  0.09718428  0.70384513  0.49125219  1
  Zr  Zr19  1  0.29678612  0.10759840  0.09658609  1
  Zr  Zr20  1  0.70000068  0.09961965  0.10312020  1
  Zr  Zr21  1  0.10743500  0.09189428  0.69807145  1
  Zr  Zr22  1  0.28740218  0.69632800  0.30276871  1
  Zr  Zr23  1  0.29973403  0.70576572  0.49598891  1
  Zr  Zr24  1  0.90923782  0.49041204  0.69891976  1
  Zr  Zr25  1  0.09530497  0.89748131  0.29812554  1
  Zr  Zr26  1  0.70283004  0.90840050  0.29995669  1
  Zr  Zr27  1  0.90236044  0.30132072  0.49794862  1
  Zr  Zr28  1  0.69099682  0.69494958  0.10172395  1
  Zr  Zr29  1  0.49881124  0.10094185  0.10975675  1
  Zr  Zr30  1  0.09456829  0.70240559  0.10004266  1
  Zr  Zr31  1  0.29771240  0.70057817  0.70062879  1
  Zr  Zr32  1  0.89157103  0.70127797  0.89526081  1
  Zr  Zr33  1  0.49812418  0.49330363  0.09948632  1
  Zr  Zr34  1  0.90263728  0.30291924  0.69803476  1
  Zr  Zr35  1  0.50831155  0.50343115  0.50307872  1
  Zr  Zr36  1  0.29586999  0.50229494  0.71000226  1
  Zr  Zr37  1  0.90433007  0.10170792  0.90558464  1
  Zr  Zr38  1  0.09793143  0.29572190  0.10005202  1
  Zr  Zr39  1  0.29662336  0.70019925  0.89908867  1
  Zr  Zr40  1  0.69844411  0.87988873  0.89002217  1
  Zr  Zr41  1  0.50103448  0.69408932  0.50396899  1
  Zr  Zr42  1  0.10427800  0.51003063  0.30253122  1
  Zr  Zr43  1  0.09479791  0.90089159  0.09872531  1
  Zr  Zr44  1  0.30524509  0.29857444  0.69676781  1
  Zr  Zr45  1  0.70598268  0.90317433  0.50197676  1
  Zr  Zr46  1  0.90552343  0.09913775  0.49368155  1
  Zr  Zr47  1  0.49763876  0.09533173  0.49550939  1
  Zr  Zr48  1  0.70105148  0.49289112  0.09430625  1
  Zr  Zr49  1  0.50489668  0.69501843  0.29978627  1
  Sc  Sc50  1  0.90430815  0.50082919  0.49919373  1
  Sc  Sc51  1  0.70106636  0.70528261  0.72077152  1
  Sc  Sc52  1  0.09076328  0.90584577  0.50614706  1
  Sc  Sc53  1  0.89773522  0.89873779  0.69543240  1
  Sc  Sc54  1  0.50809950  0.29539757  0.28899375  1
  Sc  Sc55  1  0.70462921  0.89336836  0.10941540  1
  Sc  Sc56  1  0.48413419  0.10723547  0.70224973  1
  Sc  Sc57  1  0.09335763  0.49822402  0.50254620  1
  Sc  Sc58  1  0.69612163  0.49897898  0.49592329  1
  Sc  Sc59  1  0.09775590  0.50042810  0.08602922  1
  Sc  Sc60  1  0.90222146  0.90154317  0.29852912  1
  Sc  Sc61  1  0.10221345  0.90325474  0.89937023  1
  Sc  Sc62  1  0.90453370  0.09743672  0.70642903  1
  Sc  Sc63  1  0.49793761  0.29751835  0.09326904  1
  Sc  Sc64  1  0.30684033  0.49698798  0.51278600  1
  Sc  Sc65  1  0.29921170  0.28783119  0.28776339  1
  Sc  Sc66  1  0.90264306  0.70081671  0.30905692  1
  Sc  Sc67  1  0.49999913  0.30047130  0.70562859  1
  Sc  Sc68  1  0.09529374  0.70365775  0.90860290  1
  Sc  Sc69  1  0.09697882  0.09740422  0.49380336  1
  Sc  Sc70  1  0.69441506  0.30499980  0.90114085  1
  Sc  Sc71  1  0.29894671  0.89595954  0.30571643  1
  Sc  Sc72  1  0.29400096  0.69464107  0.08971583  1
  Sc  Sc73  1  0.90227445  0.90217274  0.49887845  1
  Sc  Sc74  1  0.49763147  0.90288322  0.70569787  1
  Sc  Sc75  1  0.30367348  0.09848332  0.28716813  1
  Sc  Sc76  1  0.70502253  0.69361527  0.50054230  1
  Sc  Sc77  1  0.70415468  0.11553526  0.90273014  1
  Sc  Sc78  1  0.90056435  0.70534319  0.09003962  1
  Sc  Sc79  1  0.50618261  0.70291609  0.90839115  1
  Sc  Sc80  1  0.50447888  0.68897038  0.70157333  1
  Sc  Sc81  1  0.29629351  0.90554923  0.90562523  1
  Sc  Sc82  1  0.10251578  0.29815637  0.90237104  1
  Sc  Sc83  1  0.70587802  0.10128103  0.48424020  1
  Sc  Sc84  1  0.90373195  0.89713411  0.90112280  1
  Sc  Sc85  1  0.49192210  0.90504737  0.49206765  1
  Sc  Sc86  1  0.89835222  0.50217717  0.90918694  1
  Sc  Sc87  1  0.50044957  0.30270734  0.50916620  1
  Sc  Sc88  1  0.09492101  0.10925970  0.29725029  1
  Sc  Sc89  1  0.09999104  0.10014583  0.90229310  1
  Sc  Sc90  1  0.71424932  0.09905012  0.70320051  1
  Sc  Sc91  1  0.49569542  0.89597351  0.09576675  1
  Sc  Sc92  1  0.10158281  0.90365796  0.69821607  1
  Sc  Sc93  1  0.09758571  0.71570837  0.69782216  1
  Sc  Sc94  1  0.90476062  0.70510537  0.50201109  1
  Sc  Sc95  1  0.70851267  0.30456398  0.70058614  1
  Sc  Sc96  1  0.49728313  0.50118329  0.69914808  1
  Sc  Sc97  1  0.89918664  0.49069270  0.30460255  1
  Sc  Sc98  1  0.30131222  0.90437153  0.49748213  1
  Sc  Sc99  1  0.90438089  0.30160425  0.29993077  1
  Nb  Nb100  1  0.50583465  0.49370216  0.90032447  1
  Nb  Nb101  1  0.70555652  0.29554108  0.29994865  1
  Nb  Nb102  1  0.89893415  0.09943950  0.29365128  1
  Nb  Nb103  1  0.69161637  0.49738020  0.29562469  1
  Nb  Nb104  1  0.89876979  0.10406155  0.10047387  1
  Nb  Nb105  1  0.29599631  0.09663101  0.69250160  1
  Nb  Nb106  1  0.10732923  0.29103781  0.49281907  1
  Nb  Nb107  1  0.10024377  0.49896646  0.70082623  1
  Nb  Nb108  1  0.30258850  0.10249370  0.50266294  1
  Nb  Nb109  1  0.30023506  0.30319057  0.09152750  1
  Nb  Nb110  1  0.50255729  0.49849503  0.30121838  1
  Nb  Nb111  1  0.69592692  0.90128625  0.69940672  1
  Nb  Nb112  1  0.50588708  0.09924316  0.30095067  1
  Nb  Nb113  1  0.69307212  0.10666480  0.29623359  1
  Nb  Nb114  1  0.30203455  0.49278785  0.09867164  1
  Nb  Nb115  1  0.30173853  0.29404733  0.91288326  1
  Nb  Nb116  1  0.89986941  0.69593888  0.70174254  1
  Nb  Nb117  1  0.70392506  0.68746214  0.90053728  1
  Nb  Nb118  1  0.49579899  0.69991129  0.10783438  1
  Nb  Nb119  1  0.69433075  0.51411318  0.90071795  1
  Nb  Nb120  1  0.30088068  0.49778072  0.29636952  1
  Nb  Nb121  1  0.89857176  0.49101813  0.10703715  1
  Nb  Nb122  1  0.30130543  0.29569547  0.49618389  1
  Nb  Nb123  1  0.89671646  0.30559045  0.10371974  1
  Nb  Nb124  1  0.29204284  0.90262300  0.70168018  1
  Nb  Nb125  1  0.40012464  0.59063262  0.39315756  1
  Nb  Nb126  1  0.80121953  0.59096972  0.19864125  1
  Nb  Nb127  1  0.19428801  0.59897798  0.60607581  1
  Nb  Nb128  1  0.60644333  -0.00167028  -0.00560976  1
  Nb  Nb129  1  0.39799985  0.78974322  0.19997027  1
  Nb  Nb130  1  0.80030223  0.20065441  0.20092573  1
  Nb  Nb131  1  0.20500760  0.40295168  0.19685582  1
  Nb  Nb132  1  -0.00784802  0.59518728  0.19540029  1
  Nb  Nb133  1  0.20153789  0.20078532  0.59591005  1
  Nb  Nb134  1  0.60424789  0.19259133  0.59935307  1
  Nb  Nb135  1  0.39764801  0.59498034  0.20055960  1
  Nb  Nb136  1  0.20900528  0.39559064  0.39740882  1
  Nb  Nb137  1  0.40074120  0.80152449  0.60595480  1
  Nb  Nb138  1  0.00814100  0.20403497  0.59870112  1
  Nb  Nb139  1  -0.00080361  0.59926846  0.79402560  1
  Nb  Nb140  1  0.40068253  0.20029243  0.39936674  1
  Nb  Nb141  1  0.60300106  0.00098972  0.80104520  1
  Nb  Nb142  1  0.60270478  0.80241616  0.40295003  1
  Nb  Nb143  1  0.80572964  0.60012921  0.61110672  1
  Nb  Nb144  1  0.60229079  0.00184753  0.60466527  1
  Nb  Nb145  1  0.39399986  0.80073821  0.79713926  1
  Nb  Nb146  1  0.79663330  0.00041105  0.00128968  1
  Nb  Nb147  1  0.59966132  0.80649961  0.60035219  1
  Nb  Nb148  1  0.39876828  0.39842154  0.39402009  1
  Nb  Nb149  1  0.20054731  0.00720822  0.39995757  1
  Pd  Pd150  1  0.19929255  0.80537106  0.00062899  1
  Pd  Pd151  1  0.79658528  0.80435475  0.00390648  1
  Pd  Pd152  1  0.21043963  0.39073165  0.81023621  1
  Pd  Pd153  1  0.60573781  0.19398940  0.78767005  1
  Pd  Pd154  1  0.59149102  0.81039099  0.20749773  1
  Pd  Pd155  1  0.40815592  0.60445060  0.80988686  1
  Pd  Pd156  1  0.39742866  0.39443597  0.20317649  1
  Pd  Pd157  1  0.60347897  0.80093028  0.00495500  1
  Pd  Pd158  1  0.80497713  0.59844553  0.00899207  1
  Pd  Pd159  1  0.19401104  0.00253842  0.20657928  1
  Pd  Pd160  1  0.40386151  0.40055315  0.60004483  1
  Pd  Pd161  1  0.01212738  0.40599584  0.20260668  1
  Pd  Pd162  1  0.20123217  0.80302465  0.59323941  1
  Pd  Pd163  1  0.00176763  -0.00461707  0.80060737  1
  Pd  Pd164  1  0.59580524  -0.00851051  0.19354647  1
  Pd  Pd165  1  0.00816118  0.19985521  0.79334420  1
  Pd  Pd166  1  0.60057895  0.40175226  0.79940337  1
  Pd  Pd167  1  0.80802609  0.78798328  0.20357953  1
  Pd  Pd168  1  0.80111967  0.00596682  0.59865850  1
  Pd  Pd169  1  0.60283492  0.39504931  0.19760067  1
  Pd  Pd170  1  0.79974475  0.40633516  0.80997502  1
  Pd  Pd171  1  0.40690374  0.60134530  0.00218928  1
  Pd  Pd172  1  0.80025767  0.20542745  0.80049952  1
  Pd  Pd173  1  -0.00161156  0.80027473  0.79984106  1
  Pd  Pd174  1  0.79681233  0.40361661  0.39833978  1
  Pd  Pd175  1  0.79458470  0.79067115  0.60676062  1
  Pd  Pd176  1  0.20729413  0.58622816  0.41717800  1
  Pd  Pd177  1  0.39556745  0.39886307  0.80653968  1
  Pd  Pd178  1  0.59111440  0.59855102  0.00319887  1
  Pd  Pd179  1  0.79744743  0.80037293  0.39760772  1
  Pd  Pd180  1  0.80432632  0.19218843  0.59878959  1
  Pd  Pd181  1  0.19740621  0.59351622  0.18622865  1
  Pd  Pd182  1  0.00032682  0.39740868  -0.00380570  1
  Pd  Pd183  1  0.79647794  -0.00470980  0.81089355  1
  Pd  Pd184  1  0.80292768  0.59252151  0.40055330  1
  Pd  Pd185  1  0.18509073  0.61162375  0.79620641  1
  Pd  Pd186  1  0.00296826  0.60548124  0.60388109  1
  Pd  Pd187  1  0.19973304  0.20576825  0.79379754  1
  Pd  Pd188  1  0.79413041  0.41114901  0.59596912  1
  Pd  Pd189  1  0.60614511  0.39337344  0.60635651  1
  Pd  Pd190  1  0.20675340  0.80284785  0.19461729  1
  Pd  Pd191  1  0.59140036  0.20696065  0.40524653  1
  Pd  Pd192  1  0.79781533  0.39958184  -0.00998771  1
  Pd  Pd193  1  0.39732350  -0.00287990  0.79828811  1
  Pd  Pd194  1  0.00981121  0.39879509  0.40081912  1
  Pd  Pd195  1  0.19752255  0.40100958  0.59143345  1
  Pd  Pd196  1  0.80474385  0.00337497  0.39281759  1
  Pd  Pd197  1  0.59517405  0.38975155  0.39826233  1
  Pd  Pd198  1  0.40169435  -0.00683490  0.60407129  1
  Pd  Pd199  1  0.40392708  0.00816316  0.00082384  1
  Rh  Rh200  1  0.59075977  0.60051746  0.80722734  1
  Rh  Rh201  1  -0.01025811  0.20197797  0.19666777  1
  Rh  Rh202  1  0.20254440  0.00358570  0.58999358  1
  Rh  Rh203  1  -0.00706067  0.20007616  0.40022236  1
  Rh  Rh204  1  0.19716121  0.59742823  0.00083785  1
  Rh  Rh205  1  0.38921573  0.20351790  0.80019377  1
  Rh  Rh206  1  0.39257641  0.79507270  0.00203434  1
  Rh  Rh207  1  -0.00598404  -0.00192635  -0.00171953  1
  Rh  Rh208  1  0.00237072  0.00597483  0.20361485  1
  Rh  Rh209  1  0.58848036  0.79994243  0.79463893  1
  Rh  Rh210  1  0.19575801  0.00474683  0.00019449  1
  Rh  Rh211  1  0.21161699  0.19426945  0.40170930  1
  Rh  Rh212  1  0.80774122  0.80360840  0.79395831  1
  Rh  Rh213  1  0.59889197  0.39936119  -0.00567196  1
  Rh  Rh214  1  0.60597909  -0.00329457  0.40340128  1
  Rh  Rh215  1  0.80101005  0.00879732  0.19964664  1
  Rh  Rh216  1  -0.00420045  0.59928967  0.39420520  1
  Rh  Rh217  1  0.38882376  0.60604884  0.59618654  1
  Rh  Rh218  1  0.40039188  -0.00524247  0.20222720  1
  Rh  Rh219  1  0.20323903  0.80579500  0.80609878  1
  Rh  Rh220  1  0.80703297  0.19845570  0.38742667  1
  Rh  Rh221  1  0.20215368  -0.00168201  0.80285566  1
  Rh  Rh222  1  0.18956540  0.81778435  0.40716322  1
  Rh  Rh223  1  0.19811462  0.39780823  0.00191512  1
  Rh  Rh224  1  0.81010480  0.59163839  0.79737137  1
  Rh  Rh225  1  0.40473165  0.20249399  0.20087534  1
  Rh  Rh226  1  -0.00757567  0.78957143  0.20121628  1
  Rh  Rh227  1  0.19931589  0.20267143  0.18982798  1
  Rh  Rh228  1  -0.00157280  0.80648665  0.40299027  1
  Rh  Rh229  1  0.80600656  0.20025399  0.00626274  1
  Rh  Rh230  1  0.40167049  0.20177780  0.59646038  1
  Rh  Rh231  1  -0.00072633  0.80627186  -0.00296772  1
  Rh  Rh232  1  0.40192111  0.19636433  0.00232171  1
  Rh  Rh233  1  0.61749431  0.60890391  0.60775123  1
  Rh  Rh234  1  0.60492601  0.20418386  0.19700589  1
  Rh  Rh235  1  0.59983130  0.60193013  0.40129377  1
  Rh  Rh236  1  0.41022096  0.78829225  0.39914195  1
  Rh  Rh237  1  -0.00337507  0.20560329  0.00377869  1
  Rh  Rh238  1  0.59438047  0.19686113  0.00295064  1
  Rh  Rh239  1  0.79317991  0.39747355  0.20726677  1
  Rh  Rh240  1  0.40384359  0.39826345  -0.00722880  1
  Rh  Rh241  1  -0.00258055  0.40502912  0.81094159  1
  Rh  Rh242  1  0.19635124  0.19817268  0.00040095  1
  Rh  Rh243  1  -0.00509934  0.59934277  -0.00052926  1
  Rh  Rh244  1  0.00803054  0.39106569  0.58861154  1
  Rh  Rh245  1  -0.00362075  0.80243132  0.60096482  1
  Rh  Rh246  1  0.00452688  0.00208097  0.39009483  1
  Rh  Rh247  1  0.38744758  0.01339868  0.39147351  1
  Rh  Rh248  1  0.60024714  0.58770900  0.19259048  1
  Rh  Rh249  1  -0.00503563  0.00772893  0.60404777  1
