# generated using pymatgen
data_ZrScNbPdRh
_symmetry_space_group_name_H-M   'P 1'
_cell_length_a   16.55569529
_cell_length_b   16.55049732
_cell_length_c   16.55575285
_cell_angle_alpha   89.99651436
_cell_angle_beta   89.98330623
_cell_angle_gamma   89.96261612
_symmetry_Int_Tables_number   1
_chemical_formula_structural   ZrScNbPdRh
_chemical_formula_sum   'Zr50 Sc50 Nb50 Pd50 Rh50'
_cell_volume   4536.35773805
_cell_formula_units_Z   50
loop_
 _symmetry_equiv_pos_site_id
 _symmetry_equiv_pos_as_xyz
  1  'x, y, z'
loop_
 _atom_site_type_symbol
 _atom_site_label
 _atom_site_symmetry_multiplicity
 _atom_site_fract_x
 _atom_site_fract_y
 _atom_site_fract_z
 _atom_site_occupancy
  Zr  Zr0  1  0.10242075  0.89878106  0.50504811  1
  Zr  Zr1  1  0.69225029  0.10324768  0.30153168  1
  Zr  Zr2  1  0.50609594  0.30620183  0.50289653  1
  Zr  Zr3  1  0.89592659  0.29592431  0.10543450  1
  Zr  Zr4  1  0.09420059  0.69061563  0.10548964  1
  Zr  Zr5  1  0.29974340  0.70365190  0.70067683  1
  Zr  Zr6  1  0.89621483  0.69613768  0.29237708  1
  Zr  Zr7  1  0.70123965  0.89352655  0.30548074  1
  Zr  Zr8  1  0.09795186  0.09393238  0.90331086  1
  Zr  Zr9  1  0.70575336  0.69447254  0.29318597  1
  Zr  Zr10  1  0.50939543  0.49953701  0.69657263  1
  Zr  Zr11  1  0.89625420  0.30334235  0.69973805  1
  Zr  Zr12  1  0.29395060  0.30333870  0.70281984  1
  Zr  Zr13  1  0.30476111  0.69871665  0.89412004  1
  Zr  Zr14  1  0.69987689  0.89593160  0.89646242  1
  Zr  Zr15  1  0.50177149  0.10749273  0.70273261  1
  Zr  Zr16  1  0.90198954  0.89174747  0.29778409  1
  Zr  Zr17  1  0.50672694  0.69528395  0.09052003  1
  Zr  Zr18  1  0.89592618  0.50041035  0.68791434  1
  Zr  Zr19  1  0.10771454  0.70254706  0.69329718  1
  Zr  Zr20  1  0.49954703  0.89851066  0.69798775  1
  Zr  Zr21  1  0.50122187  0.50555860  0.90467092  1
  Zr  Zr22  1  0.30350422  0.48631779  0.49582708  1
  Zr  Zr23  1  0.09439702  0.29694656  0.69650951  1
  Zr  Zr24  1  0.50183831  0.69894493  0.89641689  1
  Zr  Zr25  1  0.70482900  0.90350374  0.50098406  1
  Zr  Zr26  1  0.09888892  0.70064642  0.29993991  1
  Zr  Zr27  1  0.69756682  0.50227778  0.30234063  1
  Zr  Zr28  1  0.30882175  0.90747526  0.10292349  1
  Zr  Zr29  1  0.30135209  0.29776342  0.89782118  1
  Zr  Zr30  1  0.70410480  0.30477633  0.89251409  1
  Zr  Zr31  1  0.09093340  0.90141792  0.10076625  1
  Zr  Zr32  1  0.89947453  0.10401631  0.69283593  1
  Zr  Zr33  1  0.09365932  0.09170626  0.70358687  1
  Zr  Zr34  1  0.89680096  0.29903629  0.29914822  1
  Zr  Zr35  1  0.30397121  0.49629326  0.89792056  1
  Zr  Zr36  1  0.30239460  0.90366310  0.91060053  1
  Zr  Zr37  1  0.89983033  0.89868825  0.50199964  1
  Zr  Zr38  1  0.91239211  0.50441587  0.09836382  1
  Zr  Zr39  1  0.51443225  0.69659340  0.31107148  1
  Zr  Zr40  1  0.10072027  0.49779889  0.29586195  1
  Zr  Zr41  1  0.30415598  0.30092023  0.10056988  1
  Zr  Zr42  1  0.89153336  0.49797586  0.49728365  1
  Zr  Zr43  1  0.69498886  0.10756641  0.69654024  1
  Zr  Zr44  1  0.50588040  0.89956376  0.91327251  1
  Zr  Zr45  1  0.69675166  0.89948647  0.08873493  1
  Zr  Zr46  1  0.89973302  0.49770467  0.89995486  1
  Zr  Zr47  1  0.10477885  0.49810196  0.10452543  1
  Zr  Zr48  1  0.29418573  0.70235699  0.10547418  1
  Zr  Zr49  1  0.49158300  0.70085608  0.69754936  1
  Sc  Sc50  1  0.69965307  0.29863535  0.29719574  1
  Sc  Sc51  1  0.49798396  0.10110754  0.49406053  1
  Sc  Sc52  1  0.29980291  0.91142848  0.50313842  1
  Sc  Sc53  1  0.89423491  0.70186948  0.90676230  1
  Sc  Sc54  1  0.89223375  0.49173321  0.29936493  1
  Sc  Sc55  1  0.89407437  0.10430120  0.50246405  1
  Sc  Sc56  1  0.28712367  0.69778414  0.30402580  1
  Sc  Sc57  1  0.29184007  0.09826460  0.90395872  1
  Sc  Sc58  1  0.50121382  0.69896522  0.50344885  1
  Sc  Sc59  1  0.90097812  0.09518132  0.90116645  1
  Sc  Sc60  1  0.10566045  0.09685064  0.50530094  1
  Sc  Sc61  1  0.90340767  0.10033712  0.10398229  1
  Sc  Sc62  1  0.09646488  0.90886835  0.90199340  1
  Sc  Sc63  1  0.10147720  0.30029909  0.11149303  1
  Sc  Sc64  1  0.29980217  0.10107753  0.10161538  1
  Sc  Sc65  1  0.29985286  0.69734653  0.50273662  1
  Sc  Sc66  1  0.69603178  0.70800629  0.69673308  1
  Sc  Sc67  1  0.30385565  0.50177929  0.09829784  1
  Sc  Sc68  1  0.09801811  0.10264522  0.10306316  1
  Sc  Sc69  1  0.69426773  0.69861353  0.49030352  1
  Sc  Sc70  1  0.09890038  0.49517412  0.50332789  1
  Sc  Sc71  1  0.89925924  0.70294045  0.10156894  1
  Sc  Sc72  1  0.50543354  0.29590864  0.10700170  1
  Sc  Sc73  1  0.10221009  0.30206751  0.88657522  1
  Sc  Sc74  1  0.69326067  0.50813229  0.10850016  1
  Sc  Sc75  1  0.89009456  0.69440292  0.50718341  1
  Sc  Sc76  1  0.70156939  0.49697388  0.50466982  1
  Sc  Sc77  1  0.29912559  0.29978327  0.30536881  1
  Sc  Sc78  1  0.49467768  0.90056241  0.50224586  1
  Sc  Sc79  1  0.70636762  0.10426648  0.09689201  1
  Sc  Sc80  1  0.49774143  0.09597135  0.11576088  1
  Sc  Sc81  1  0.89057489  0.89601950  0.69105342  1
  Sc  Sc82  1  0.50065625  0.50178051  0.49381666  1
  Sc  Sc83  1  0.31185860  0.10354331  0.30522855  1
  Sc  Sc84  1  0.11115151  0.29669294  0.50001376  1
  Sc  Sc85  1  0.50385235  0.92110131  0.29737965  1
  Sc  Sc86  1  0.88903798  0.70500579  0.69324357  1
  Sc  Sc87  1  0.29710316  0.49766487  0.30596863  1
  Sc  Sc88  1  0.30036109  0.89863285  0.69331553  1
  Sc  Sc89  1  0.29541778  0.50427338  0.69928345  1
  Sc  Sc90  1  0.89548208  0.29913647  0.49910142  1
  Sc  Sc91  1  0.10506000  0.69898885  0.89915450  1
  Sc  Sc92  1  0.09649443  0.89591391  0.31540883  1
  Sc  Sc93  1  0.89777093  0.10327653  0.29537969  1
  Sc  Sc94  1  0.10406722  0.70655892  0.50084911  1
  Sc  Sc95  1  0.89758423  0.89636732  0.90788350  1
  Sc  Sc96  1  0.10596389  0.30523977  0.29657973  1
  Sc  Sc97  1  0.09636562  0.50039943  0.90301520  1
  Sc  Sc98  1  0.29953096  0.09329529  0.70032789  1
  Sc  Sc99  1  0.70410466  0.10787114  0.49745727  1
  Nb  Nb100  1  0.89860851  0.89798957  0.10184052  1
  Nb  Nb101  1  0.49637669  0.89454721  0.10103345  1
  Nb  Nb102  1  0.49719658  0.29854573  0.89688091  1
  Nb  Nb103  1  0.50694901  0.29359993  0.29631032  1
  Nb  Nb104  1  0.09586894  0.10091030  0.30040203  1
  Nb  Nb105  1  0.70098591  0.69838431  0.90620531  1
  Nb  Nb106  1  0.70495759  0.49124980  0.70498378  1
  Nb  Nb107  1  0.50339312  0.11637931  0.29799089  1
  Nb  Nb108  1  0.50803265  0.10568989  0.88861632  1
  Nb  Nb109  1  0.30402975  0.10484436  0.50629139  1
  Nb  Nb110  1  0.29826597  0.89768627  0.30000993  1
  Nb  Nb111  1  0.69408904  0.09679000  0.89320988  1
  Nb  Nb112  1  0.69336037  0.30419339  0.69081783  1
  Nb  Nb113  1  0.69887792  0.50131320  0.89701251  1
  Nb  Nb114  1  0.50905794  0.49692610  0.29317802  1
  Nb  Nb115  1  0.89912777  0.30190316  0.90075775  1
  Nb  Nb116  1  0.09361031  0.50015750  0.70083423  1
  Nb  Nb117  1  0.70095639  0.90235290  0.70065842  1
  Nb  Nb118  1  0.29996739  0.29667234  0.50386707  1
  Nb  Nb119  1  0.50288777  0.29526032  0.70227630  1
  Nb  Nb120  1  0.70161242  0.29952997  0.09556978  1
  Nb  Nb121  1  0.09683692  0.89501045  0.69405632  1
  Nb  Nb122  1  0.70326103  0.70111161  0.09900717  1
  Nb  Nb123  1  0.50084033  0.49693440  0.10073181  1
  Nb  Nb124  1  0.70091945  0.29535895  0.50209428  1
  Nb  Nb125  1  0.00197330  0.79799238  0.79211871  1
  Nb  Nb126  1  0.60287544  0.00117389  0.60446169  1
  Nb  Nb127  1  -0.00464749  0.60326268  0.79190165  1
  Nb  Nb128  1  0.41171364  0.40370447  0.20352710  1
  Nb  Nb129  1  0.79734208  0.19998092  0.79932856  1
  Nb  Nb130  1  0.59736383  0.80192498  0.19536206  1
  Nb  Nb131  1  -0.00244369  0.20659372  -0.00367224  1
  Nb  Nb132  1  0.40801750  0.79798678  0.20483172  1
  Nb  Nb133  1  0.79159968  0.00309144  0.79719943  1
  Nb  Nb134  1  0.39573562  0.20662301  0.59910516  1
  Nb  Nb135  1  0.19845050  -0.00117338  0.21106824  1
  Nb  Nb136  1  0.40960284  0.59927806  0.20448165  1
  Nb  Nb137  1  -0.00284609  0.59736836  0.39992654  1
  Nb  Nb138  1  0.39802654  0.80382457  0.39046514  1
  Nb  Nb139  1  0.40738544  0.39583945  0.79808281  1
  Nb  Nb140  1  0.60009092  0.20141981  -0.00787870  1
  Nb  Nb141  1  0.40840081  0.00191650  0.80617719  1
  Nb  Nb142  1  0.00534969  0.19809893  0.39617137  1
  Nb  Nb143  1  0.20312712  0.39767266  -0.00112434  1
  Nb  Nb144  1  0.79472589  0.59647491  0.80129775  1
  Nb  Nb145  1  0.41131647  0.19967423  -0.00691573  1
  Nb  Nb146  1  0.20162602  0.80214176  0.00455926  1
  Nb  Nb147  1  0.79959136  -0.00922600  0.19896497  1
  Nb  Nb148  1  0.79585153  0.40090268  0.00015763  1
  Nb  Nb149  1  0.60139613  0.39828994  -0.00002339  1
  Pd  Pd150  1  0.60658130  0.59812805  0.59816919  1
  Pd  Pd151  1  0.39928615  0.60513309  0.39449515  1
  Pd  Pd152  1  0.19957126  0.19026061  0.79607543  1
  Pd  Pd153  1  0.19212370  0.59391148  0.80010581  1
  Pd  Pd154  1  0.19725214  0.19508118  0.39704218  1
  Pd  Pd155  1  0.19258333  0.20655534  0.00132956  1
  Pd  Pd156  1  0.39676597  0.59480327  0.59926092  1
  Pd  Pd157  1  0.00199169  0.60678339  0.59681262  1
  Pd  Pd158  1  0.41147603  0.01682524  -0.00380843  1
  Pd  Pd159  1  0.19192936  0.59555971  0.40843785  1
  Pd  Pd160  1  0.80142599  0.20034178  -0.00797466  1
  Pd  Pd161  1  0.79622938  0.59483537  0.00244563  1
  Pd  Pd162  1  0.40008645  0.81123843  0.80362098  1
  Pd  Pd163  1  -0.00300072  0.00022839  0.59585397  1
  Pd  Pd164  1  0.80417662  0.79122681  0.40541830  1
  Pd  Pd165  1  0.20017649  0.59788644  -0.00325849  1
  Pd  Pd166  1  0.59741450  0.00181680  0.40952655  1
  Pd  Pd167  1  0.60838622  -0.00145513  0.19362970  1
  Pd  Pd168  1  0.20145882  0.19219024  0.60797845  1
  Pd  Pd169  1  -0.00057654  0.40613223  0.79742189  1
  Pd  Pd170  1  0.40551668  0.39234869  0.39042948  1
  Pd  Pd171  1  0.80413228  0.00244008  -0.00060903  1
  Pd  Pd172  1  0.19398476  0.81169183  0.80799553  1
  Pd  Pd173  1  0.00624256  0.38940519  0.00375774  1
  Pd  Pd174  1  0.40050940  0.00019315  0.39757378  1
  Pd  Pd175  1  -0.00667836  0.19783530  0.80641657  1
  Pd  Pd176  1  0.60720369  0.60701274  0.79436619  1
  Pd  Pd177  1  0.20144873  0.59305958  0.59329232  1
  Pd  Pd178  1  0.79511506  0.40602021  0.19237570  1
  Pd  Pd179  1  0.60574203  0.39857911  0.40058243  1
  Pd  Pd180  1  -0.00596142  0.00920871  0.40526166  1
  Pd  Pd181  1  0.40398388  0.20875997  0.40631075  1
  Pd  Pd182  1  0.59363901  0.39804704  0.80321625  1
  Pd  Pd183  1  0.59249489  0.01454728  0.00780675  1
  Pd  Pd184  1  0.40281665  0.39815779  0.60754376  1
  Pd  Pd185  1  0.19615375  0.40435974  0.60273807  1
  Pd  Pd186  1  0.00103686  0.39241205  0.59049089  1
  Pd  Pd187  1  0.39551410  0.60405275  0.00521823  1
  Pd  Pd188  1  0.20592869  0.19213184  0.20730359  1
  Pd  Pd189  1  -0.00058974  -0.00181133  0.20460600  1
  Pd  Pd190  1  0.20543431  0.00682056  0.39768592  1
  Pd  Pd191  1  -0.01543623  -0.01416613  0.79612227  1
  Pd  Pd192  1  0.60068324  0.80482084  0.59283816  1
  Pd  Pd193  1  0.80587852  0.00691726  0.39298470  1
  Pd  Pd194  1  0.00509976  0.79451065  -0.00694195  1
  Pd  Pd195  1  -0.00892322  0.78712488  0.40875923  1
  Pd  Pd196  1  0.60045313  0.79633413  0.80044771  1
  Pd  Pd197  1  0.19419853  0.80941881  0.19817070  1
  Pd  Pd198  1  0.20629669  -0.00796809  0.79548886  1
  Pd  Pd199  1  0.00352200  0.39611914  0.40254896  1
  Rh  Rh200  1  0.80433090  0.40126978  0.79972764  1
  Rh  Rh201  1  -0.00323779  0.39923699  0.20148786  1
  Rh  Rh202  1  0.79279319  0.00178092  0.60347384  1
  Rh  Rh203  1  0.80449684  0.20295890  0.39697565  1
  Rh  Rh204  1  0.39581306  0.00077043  0.20912261  1
  Rh  Rh205  1  0.21508728  0.40479340  0.19481421  1
  Rh  Rh206  1  0.60101462  0.39276645  0.19559635  1
  Rh  Rh207  1  0.59040802  0.81231598  0.39772532  1
  Rh  Rh208  1  0.60779148  0.20003924  0.19224305  1
  Rh  Rh209  1  0.19993668  0.39723455  0.40269388  1
  Rh  Rh210  1  0.59213276  0.19666791  0.59058400  1
  Rh  Rh211  1  0.19784981  0.00176809  0.60354068  1
  Rh  Rh212  1  0.80465721  0.59347933  0.19231065  1
  Rh  Rh213  1  0.39946988  0.20734469  0.19826610  1
  Rh  Rh214  1  0.00208122  0.20429866  0.20299963  1
  Rh  Rh215  1  0.60378657  0.59082355  0.40663273  1
  Rh  Rh216  1  0.79839556  0.20798285  0.60403502  1
  Rh  Rh217  1  0.19439083  -0.00393645  0.01590343  1
  Rh  Rh218  1  0.39195473  0.19868855  0.79811595  1
  Rh  Rh219  1  -0.00259074  0.79689375  0.60241434  1
  Rh  Rh220  1  0.79493380  0.39427522  0.59417111  1
  Rh  Rh221  1  0.20022912  0.40772380  0.80207352  1
  Rh  Rh222  1  0.79119581  0.80655017  0.18952801  1
  Rh  Rh223  1  0.59766266  0.60829074  0.19717191  1
  Rh  Rh224  1  0.60747719  0.59478893  -0.00047000  1
  Rh  Rh225  1  0.79307035  0.19113021  0.20375598  1
  Rh  Rh226  1  -0.00497395  0.59524938  0.21004576  1
  Rh  Rh227  1  0.21011390  0.80394134  0.40885210  1
  Rh  Rh228  1  0.80258645  0.79994639  0.80434508  1
  Rh  Rh229  1  0.78676213  0.60066741  0.60874057  1
  Rh  Rh230  1  0.00382428  0.20344820  0.58774753  1
  Rh  Rh231  1  0.00417717  0.79981403  0.20152518  1
  Rh  Rh232  1  0.59995609  0.20457520  0.40380563  1
  Rh  Rh233  1  0.80296864  0.59761258  0.39907832  1
  Rh  Rh234  1  0.20847829  0.59148730  0.20430657  1
  Rh  Rh235  1  0.60452597  0.79324618  0.00121968  1
  Rh  Rh236  1  0.20752250  0.80505423  0.59545252  1
  Rh  Rh237  1  0.40813961  0.01119728  0.60750279  1
  Rh  Rh238  1  0.39249476  0.79112563  0.00399141  1
  Rh  Rh239  1  0.60335283  0.40224069  0.59768255  1
  Rh  Rh240  1  0.39491536  0.79752146  0.58822866  1
  Rh  Rh241  1  0.00128786  0.60790217  -0.00784975  1
  Rh  Rh242  1  -0.00469195  0.00873096  0.00511456  1
  Rh  Rh243  1  0.60996326  0.21175935  0.80065075  1
  Rh  Rh244  1  0.40446884  0.59070600  0.79133537  1
  Rh  Rh245  1  0.59892907  -0.01036472  0.79444033  1
  Rh  Rh246  1  0.40268444  0.39053030  0.00207326  1
  Rh  Rh247  1  0.80012815  0.79828530  0.00326136  1
  Rh  Rh248  1  0.79033542  0.39428930  0.40277588  1
  Rh  Rh249  1  0.79095577  0.79829069  0.59315696  1
