# generated using pymatgen
data_ZrScNbPdRh
_symmetry_space_group_name_H-M   'P 1'
_cell_length_a   16.55728103
_cell_length_b   16.55593362
_cell_length_c   16.55367681
_cell_angle_alpha   89.99922142
_cell_angle_beta   89.99049498
_cell_angle_gamma   90.03187761
_symmetry_Int_Tables_number   1
_chemical_formula_structural   ZrScNbPdRh
_chemical_formula_sum   'Zr50 Sc50 Nb50 Pd50 Rh50'
_cell_volume   4537.71374307
_cell_formula_units_Z   50
loop_
 _symmetry_equiv_pos_site_id
 _symmetry_equiv_pos_as_xyz
  1  'x, y, z'
loop_
 _atom_site_type_symbol
 _atom_site_label
 _atom_site_symmetry_multiplicity
 _atom_site_fract_x
 _atom_site_fract_y
 _atom_site_fract_z
 _atom_site_occupancy
  Zr  Zr0  1  0.70060023  0.49569487  0.90311153  1
  Zr  Zr1  1  0.30413654  0.10526376  0.10147903  1
  Zr  Zr2  1  0.09063130  0.89864767  0.89055163  1
  Zr  Zr3  1  0.09390793  0.90080856  0.31090230  1
  Zr  Zr4  1  0.10459874  0.50173442  0.10561530  1
  Zr  Zr5  1  0.30433703  0.50488222  0.49956050  1
  Zr  Zr6  1  0.50332023  0.90052466  0.70475282  1
  Zr  Zr7  1  0.90525693  0.50263880  0.69846081  1
  Zr  Zr8  1  0.28781853  0.90085454  0.89748172  1
  Zr  Zr9  1  0.30728791  0.90038770  0.10723114  1
  Zr  Zr10  1  0.28910054  0.70045731  0.10648649  1
  Zr  Zr11  1  0.30034898  0.70585578  0.69469332  1
  Zr  Zr12  1  0.89777338  0.71367123  0.90617211  1
  Zr  Zr13  1  0.90732587  0.09943557  0.29219435  1
  Zr  Zr14  1  0.89560117  0.10053793  0.69847392  1
  Zr  Zr15  1  0.89979004  0.49848580  0.09629115  1
  Zr  Zr16  1  0.10002422  0.49872654  0.29971746  1
  Zr  Zr17  1  0.09918274  0.70531815  0.49649490  1
  Zr  Zr18  1  0.29124202  0.89490177  0.50244094  1
  Zr  Zr19  1  0.69770772  0.69618897  0.89348633  1
  Zr  Zr20  1  0.89031134  0.70277363  0.30139309  1
  Zr  Zr21  1  0.10473306  0.29744050  0.89683817  1
  Zr  Zr22  1  0.68994644  0.90492804  0.09918160  1
  Zr  Zr23  1  0.49679305  0.09869781  0.89878742  1
  Zr  Zr24  1  0.90026367  0.70036611  0.68947261  1
  Zr  Zr25  1  0.70436618  0.10339339  0.49739138  1
  Zr  Zr26  1  0.49928543  0.49871621  0.10790879  1
  Zr  Zr27  1  0.09766168  0.30605622  0.50431053  1
  Zr  Zr28  1  0.10763332  0.50074358  0.49504436  1
  Zr  Zr29  1  0.50426092  0.70092655  0.70234717  1
  Zr  Zr30  1  0.50312640  0.49241242  0.89471714  1
  Zr  Zr31  1  0.49292609  0.50205615  0.49583164  1
  Zr  Zr32  1  0.49977364  0.30879812  0.49431114  1
  Zr  Zr33  1  0.10310623  0.29767394  0.70158833  1
  Zr  Zr34  1  0.70696074  0.69631895  0.50156780  1
  Zr  Zr35  1  0.29268497  0.70229387  0.89694314  1
  Zr  Zr36  1  0.29452600  0.09661122  0.29198842  1
  Zr  Zr37  1  0.90959480  0.89248830  0.49154064  1
  Zr  Zr38  1  0.50000046  0.89118853  0.28970527  1
  Zr  Zr39  1  0.30346018  0.30953687  0.49916352  1
  Zr  Zr40  1  0.90166395  0.50401002  0.90512878  1
  Zr  Zr41  1  0.29910949  0.30212986  0.70372943  1
  Zr  Zr42  1  0.09183291  0.10147117  0.10863018  1
  Zr  Zr43  1  0.69868015  0.90189537  0.30006664  1
  Zr  Zr44  1  0.70167210  0.90624144  0.49446447  1
  Zr  Zr45  1  0.89181108  0.89645899  0.08489061  1
  Zr  Zr46  1  0.69534539  0.50740023  0.70526583  1
  Zr  Zr47  1  0.70985229  0.29936392  0.10263453  1
  Zr  Zr48  1  0.09879686  0.49895173  0.70042652  1
  Zr  Zr49  1  0.89638742  0.10208158  0.09389045  1
  Sc  Sc50  1  0.89624624  0.29892875  0.50348900  1
  Sc  Sc51  1  0.70588218  0.69732581  0.69959804  1
  Sc  Sc52  1  0.48593695  0.30721342  0.10357930  1
  Sc  Sc53  1  0.29064484  0.10750256  0.70543799  1
  Sc  Sc54  1  0.09657010  0.09734417  0.68901396  1
  Sc  Sc55  1  0.70150303  0.29849263  0.49380171  1
  Sc  Sc56  1  0.90825097  0.89748165  0.70589944  1
  Sc  Sc57  1  0.70263261  0.49868262  0.29938863  1
  Sc  Sc58  1  0.70552789  0.70178101  0.10405530  1
  Sc  Sc59  1  0.09998578  0.69538656  0.70379165  1
  Sc  Sc60  1  0.28617314  0.09242170  0.50227380  1
  Sc  Sc61  1  0.49992274  0.69617047  0.30416599  1
  Sc  Sc62  1  0.50146935  0.49998626  0.69194906  1
  Sc  Sc63  1  0.09843015  0.50465876  0.89671534  1
  Sc  Sc64  1  0.09709992  0.08866760  0.29741396  1
  Sc  Sc65  1  0.10144317  0.69930366  0.90143457  1
  Sc  Sc66  1  0.69293047  0.50064880  0.50197500  1
  Sc  Sc67  1  0.69694569  0.49609511  0.10503686  1
  Sc  Sc68  1  0.70514468  0.09580367  0.89329783  1
  Sc  Sc69  1  0.90061837  0.49627858  0.50016964  1
  Sc  Sc70  1  0.69479973  0.30233769  0.90034200  1
  Sc  Sc71  1  0.09218541  0.30174084  0.10726417  1
  Sc  Sc72  1  0.90006046  0.29982534  0.91488642  1
  Sc  Sc73  1  0.50493764  0.89810959  0.49304945  1
  Sc  Sc74  1  0.31136182  0.29704303  0.89618702  1
  Sc  Sc75  1  0.30102846  0.69523691  0.49778755  1
  Sc  Sc76  1  0.50324743  0.10024891  0.29680341  1
  Sc  Sc77  1  0.50887099  0.09485488  0.48834507  1
  Sc  Sc78  1  0.69680301  0.69573166  0.29785094  1
  Sc  Sc79  1  0.69817630  0.10216960  0.30767376  1
  Sc  Sc80  1  0.50656375  0.70434666  0.11483500  1
  Sc  Sc81  1  0.70472320  0.90039107  0.89889792  1
  Sc  Sc82  1  0.49612812  0.08548731  0.09873450  1
  Sc  Sc83  1  0.09989217  0.91017156  0.50319348  1
  Sc  Sc84  1  0.09789785  0.90417933  0.09316828  1
  Sc  Sc85  1  0.49692978  0.30905184  0.70742375  1
  Sc  Sc86  1  0.10175945  0.08853897  0.90042337  1
  Sc  Sc87  1  0.70183866  0.28872588  0.70450345  1
  Sc  Sc88  1  0.29804902  0.50575227  0.30108926  1
  Sc  Sc89  1  0.89836664  0.30880978  0.30331476  1
  Sc  Sc90  1  0.30210705  0.49715349  0.90018122  1
  Sc  Sc91  1  0.11243421  0.70115680  0.29877100  1
  Sc  Sc92  1  0.30305787  0.49838229  0.10820735  1
  Sc  Sc93  1  0.29970465  0.50660814  0.69792036  1
  Sc  Sc94  1  0.69771058  0.09540782  0.70675065  1
  Sc  Sc95  1  0.90090976  0.29310650  0.10740917  1
  Sc  Sc96  1  0.70336587  0.30196189  0.30418541  1
  Sc  Sc97  1  0.49517365  0.30439505  0.90235400  1
  Sc  Sc98  1  0.90513018  0.29396952  0.69304473  1
  Sc  Sc99  1  0.09404420  0.31151991  0.29750018  1
  Nb  Nb100  1  0.09449896  0.69282196  0.10123285  1
  Nb  Nb101  1  0.50194426  0.70522341  0.89894493  1
  Nb  Nb102  1  0.10683621  0.90201654  0.70311110  1
  Nb  Nb103  1  0.90741341  0.10089551  0.50969282  1
  Nb  Nb104  1  0.50334496  0.89731048  0.09640031  1
  Nb  Nb105  1  0.50179336  0.89717681  0.90385762  1
  Nb  Nb106  1  0.70133175  0.10217878  0.10644724  1
  Nb  Nb107  1  0.30189800  0.10521167  0.90414246  1
  Nb  Nb108  1  0.29967703  0.90130893  0.69795107  1
  Nb  Nb109  1  0.29875826  0.89202257  0.30436485  1
  Nb  Nb110  1  0.90341678  0.90166029  0.29503729  1
  Nb  Nb111  1  0.29847135  0.71526856  0.29971303  1
  Nb  Nb112  1  0.90239972  0.69991765  0.50038874  1
  Nb  Nb113  1  0.90091308  0.91041255  0.89906626  1
  Nb  Nb114  1  0.90360091  0.69913729  0.09718469  1
  Nb  Nb115  1  0.50034423  0.09489486  0.69899338  1
  Nb  Nb116  1  0.90498208  0.49982628  0.30397580  1
  Nb  Nb117  1  0.29943560  0.29791138  0.10228022  1
  Nb  Nb118  1  0.70014668  0.90666762  0.69466812  1
  Nb  Nb119  1  0.30753884  0.29386529  0.28863390  1
  Nb  Nb120  1  0.09586778  0.09819499  0.49826913  1
  Nb  Nb121  1  0.50336687  0.69338705  0.50692272  1
  Nb  Nb122  1  0.90088692  0.08502254  0.89562754  1
  Nb  Nb123  1  0.50114031  0.49126459  0.29381206  1
  Nb  Nb124  1  0.49742995  0.30065196  0.29882375  1
  Nb  Nb125  1  0.80401535  0.40256567  0.79771476  1
  Nb  Nb126  1  0.60417945  0.80006982  0.59884990  1
  Nb  Nb127  1  -0.00416290  0.79515590  0.19577083  1
  Nb  Nb128  1  0.19787420  0.20195515  0.39703791  1
  Nb  Nb129  1  0.40530335  0.19405552  0.59599239  1
  Nb  Nb130  1  0.40635267  0.60858473  -0.00181586  1
  Nb  Nb131  1  0.60025065  0.20332250  0.19422744  1
  Nb  Nb132  1  0.20352285  0.39142239  0.00490451  1
  Nb  Nb133  1  0.39338948  0.19799530  0.39894536  1
  Nb  Nb134  1  0.59053573  0.19618849  0.60060368  1
  Nb  Nb135  1  0.40493740  0.60820854  0.80539757  1
  Nb  Nb136  1  0.59171416  0.60142057  -0.00213924  1
  Nb  Nb137  1  -0.00521934  0.60503608  0.20134119  1
  Nb  Nb138  1  0.39967071  0.00166660  0.60293712  1
  Nb  Nb139  1  0.80495756  -0.00111461  0.59627828  1
  Nb  Nb140  1  0.40568201  0.80078897  0.00086197  1
  Nb  Nb141  1  0.39214801  -0.00334713  0.39736924  1
  Nb  Nb142  1  0.20506097  0.20049674  0.00224911  1
  Nb  Nb143  1  0.79711203  0.40255213  0.60840008  1
  Nb  Nb144  1  0.59986057  0.19686362  0.00892357  1
  Nb  Nb145  1  -0.00201055  0.19307681  0.80350402  1
  Nb  Nb146  1  -0.00388812  0.60355767  0.39571770  1
  Nb  Nb147  1  0.80057560  -0.00028418  0.19838853  1
  Nb  Nb148  1  0.00517587  0.19671561  0.40592561  1
  Nb  Nb149  1  0.39681229  -0.00261496  0.79940266  1
  Pd  Pd150  1  0.40864157  0.80460789  0.59053193  1
  Pd  Pd151  1  -0.00819008  0.38890553  0.80227249  1
  Pd  Pd152  1  -0.00431839  0.61065495  0.80601343  1
  Pd  Pd153  1  0.60112274  0.00164435  0.59639689  1
  Pd  Pd154  1  0.20523758  0.58968772  -0.00014653  1
  Pd  Pd155  1  0.81316152  0.20003634  0.39715603  1
  Pd  Pd156  1  0.60379959  0.40438243  0.39378177  1
  Pd  Pd157  1  0.00897920  0.80626711  0.60646168  1
  Pd  Pd158  1  0.60093580  0.79251715  0.40369772  1
  Pd  Pd159  1  0.00936913  0.40096526  0.00242109  1
  Pd  Pd160  1  0.80024772  0.80637397  0.79691182  1
  Pd  Pd161  1  0.80307471  0.59326236  0.40531191  1
  Pd  Pd162  1  0.00439258  0.59675740  0.58968264  1
  Pd  Pd163  1  0.40233674  0.79894797  0.40747801  1
  Pd  Pd164  1  0.20163865  0.00688161  0.79557131  1
  Pd  Pd165  1  0.80152393  0.59421677  0.19629666  1
  Pd  Pd166  1  0.40459176  0.19531636  0.79248401  1
  Pd  Pd167  1  0.60561569  0.00701145  -0.00710311  1
  Pd  Pd168  1  0.60171944  0.79271549  0.00345426  1
  Pd  Pd169  1  0.20489537  0.40497644  0.80674378  1
  Pd  Pd170  1  0.18688342  0.80993274  0.19664337  1
  Pd  Pd171  1  0.80973873  0.20820191  0.80909581  1
  Pd  Pd172  1  0.00709107  0.19190943  -0.00724334  1
  Pd  Pd173  1  0.40424502  -0.00187028  0.20737340  1
  Pd  Pd174  1  0.39764140  0.60645942  0.20359751  1
  Pd  Pd175  1  0.80961923  0.59971282  0.80124018  1
  Pd  Pd176  1  0.80337360  0.40290394  0.20314926  1
  Pd  Pd177  1  0.79713137  0.80838252  0.60021056  1
  Pd  Pd178  1  0.79715567  0.80081495  0.39873937  1
  Pd  Pd179  1  0.20035065  0.00671528  0.00623363  1
  Pd  Pd180  1  0.59232947  0.20330848  0.80224757  1
  Pd  Pd181  1  0.80032170  0.80673206  0.19680079  1
  Pd  Pd182  1  0.79357685  0.19548454  -0.00985928  1
  Pd  Pd183  1  0.19607462  -0.01086322  0.19903844  1
  Pd  Pd184  1  0.19695991  0.80248687  0.00464519  1
  Pd  Pd185  1  0.18792010  0.20611409  0.20328033  1
  Pd  Pd186  1  0.79042763  0.60207738  0.00475487  1
  Pd  Pd187  1  0.61131508  0.80595566  0.79472865  1
  Pd  Pd188  1  0.81213294  0.00416973  0.39852288  1
  Pd  Pd189  1  0.19149536  0.79781023  0.60207584  1
  Pd  Pd190  1  0.59764032  0.39532151  0.01000826  1
  Pd  Pd191  1  0.20408235  0.20051315  0.59301105  1
  Pd  Pd192  1  0.39540830  -0.00767191  -0.00717875  1
  Pd  Pd193  1  0.60843655  0.38817891  0.60663203  1
  Pd  Pd194  1  0.39926719  0.60380877  0.39107264  1
  Pd  Pd195  1  0.20859792  0.39281996  0.38827765  1
  Pd  Pd196  1  0.20450000  0.40658375  0.60373007  1
  Pd  Pd197  1  0.00728832  0.80060315  0.00084543  1
  Pd  Pd198  1  0.59801938  0.59483729  0.39605657  1
  Pd  Pd199  1  0.39688046  0.80374138  0.80692985  1
  Rh  Rh200  1  0.00109516  0.60101914  0.00076149  1
  Rh  Rh201  1  0.60458934  0.00601890  0.20341141  1
  Rh  Rh202  1  0.59004452  0.20698780  0.39712613  1
  Rh  Rh203  1  0.60071969  0.39086597  0.20477486  1
  Rh  Rh204  1  0.60710724  0.39674910  0.79457149  1
  Rh  Rh205  1  0.78777672  0.19915469  0.59764101  1
  Rh  Rh206  1  0.40216111  0.60044937  0.60635192  1
  Rh  Rh207  1  0.39414258  0.40368318  0.20534646  1
  Rh  Rh208  1  -0.00850868  0.40687564  0.19674715  1
  Rh  Rh209  1  0.59232888  0.59808124  0.80409660  1
  Rh  Rh210  1  0.79533646  0.19454107  0.21023770  1
  Rh  Rh211  1  0.60135958  0.59578764  0.19943904  1
  Rh  Rh212  1  0.20131097  -0.00084283  0.60629726  1
  Rh  Rh213  1  -0.00396784  0.40018422  0.40632986  1
  Rh  Rh214  1  0.58970493  -0.00539324  0.38782609  1
  Rh  Rh215  1  -0.00403012  0.40136725  0.59903612  1
  Rh  Rh216  1  0.60468465  0.79789051  0.20163558  1
  Rh  Rh217  1  0.20658934  0.60021225  0.79700849  1
  Rh  Rh218  1  0.19292762  0.79882254  0.79292727  1
  Rh  Rh219  1  -0.00062376  0.78969356  0.38931031  1
  Rh  Rh220  1  0.79392751  0.00412826  0.00246495  1
  Rh  Rh221  1  0.39679597  0.39917329  0.38766287  1
  Rh  Rh222  1  0.00182877  0.00412775  0.79179431  1
  Rh  Rh223  1  0.20015609  0.60181929  0.20649290  1
  Rh  Rh224  1  0.00625035  0.20277405  0.59999347  1
  Rh  Rh225  1  -0.01045530  -0.01330800  0.18708020  1
  Rh  Rh226  1  -0.00542466  0.00731989  0.40454292  1
  Rh  Rh227  1  0.80120392  0.59249872  0.59514213  1
  Rh  Rh228  1  0.19791974  0.60139457  0.59972283  1
  Rh  Rh229  1  0.00030709  0.79644704  0.79822791  1
  Rh  Rh230  1  0.59682474  -0.00412528  0.80764197  1
  Rh  Rh231  1  0.60150442  0.60596705  0.59854377  1
  Rh  Rh232  1  0.39677100  0.41198216  0.79477019  1
  Rh  Rh233  1  0.00118280  0.20778938  0.21379160  1
  Rh  Rh234  1  0.19162945  0.19149042  0.80947779  1
  Rh  Rh235  1  0.80148746  -0.00846789  0.79189671  1
  Rh  Rh236  1  0.39744663  0.39964479  0.60612035  1
  Rh  Rh237  1  0.20666207  0.39685015  0.19793831  1
  Rh  Rh238  1  0.20138368  0.60633558  0.39824262  1
  Rh  Rh239  1  0.80053776  0.39828266  -0.00175145  1
  Rh  Rh240  1  -0.00283257  -0.00761438  0.60216827  1
  Rh  Rh241  1  0.41200360  0.19701938  0.20033853  1
  Rh  Rh242  1  0.40025592  0.79541141  0.19586384  1
  Rh  Rh243  1  0.40333008  0.20059397  0.00494312  1
  Rh  Rh244  1  0.20352545  0.00193314  0.39729936  1
  Rh  Rh245  1  -0.00081287  0.00289390  0.00075703  1
  Rh  Rh246  1  0.19830682  0.80131749  0.40358893  1
  Rh  Rh247  1  0.39072671  0.40585342  0.00251607  1
  Rh  Rh248  1  0.79878739  0.40487567  0.40920420  1
  Rh  Rh249  1  0.79087993  0.79852421  -0.00310175  1
