# generated using pymatgen
data_ZrScNbPdRh
_symmetry_space_group_name_H-M   'P 1'
_cell_length_a   16.55855778
_cell_length_b   16.56178420
_cell_length_c   16.56001530
_cell_angle_alpha   90.00304583
_cell_angle_beta   90.02216068
_cell_angle_gamma   90.00967547
_symmetry_Int_Tables_number   1
_chemical_formula_structural   ZrScNbPdRh
_chemical_formula_sum   'Zr50 Sc50 Nb50 Pd50 Rh50'
_cell_volume   4541.40594130
_cell_formula_units_Z   50
loop_
 _symmetry_equiv_pos_site_id
 _symmetry_equiv_pos_as_xyz
  1  'x, y, z'
loop_
 _atom_site_type_symbol
 _atom_site_label
 _atom_site_symmetry_multiplicity
 _atom_site_fract_x
 _atom_site_fract_y
 _atom_site_fract_z
 _atom_site_occupancy
  Zr  Zr0  1  0.10669474  0.11102545  0.90153371  1
  Zr  Zr1  1  0.90295224  0.49496525  0.89485636  1
  Zr  Zr2  1  0.10249500  0.70323440  0.89583323  1
  Zr  Zr3  1  0.49929193  0.90303292  0.90034014  1
  Zr  Zr4  1  0.29985356  0.29260517  0.49187085  1
  Zr  Zr5  1  0.10173186  0.30481929  0.90182215  1
  Zr  Zr6  1  0.90301239  0.10173426  0.30213144  1
  Zr  Zr7  1  0.49963430  0.68740836  0.69558751  1
  Zr  Zr8  1  0.69795875  0.49698559  0.89780171  1
  Zr  Zr9  1  0.69479699  0.29688449  0.50283875  1
  Zr  Zr10  1  0.49643109  0.10035697  0.09830623  1
  Zr  Zr11  1  0.09443665  0.50240962  0.70216177  1
  Zr  Zr12  1  0.09369797  0.49280179  0.50745540  1
  Zr  Zr13  1  0.69462141  0.29903930  0.30043490  1
  Zr  Zr14  1  0.90484185  0.90336300  0.09542527  1
  Zr  Zr15  1  0.29795610  0.30938644  0.09399322  1
  Zr  Zr16  1  0.31092670  0.50411687  0.09890949  1
  Zr  Zr17  1  0.30318361  0.90323742  0.09919375  1
  Zr  Zr18  1  0.30321940  0.90081734  0.70795145  1
  Zr  Zr19  1  0.30872447  0.50677445  0.49705414  1
  Zr  Zr20  1  0.70152118  0.89899052  0.51021561  1
  Zr  Zr21  1  0.09766968  0.49979090  0.89103980  1
  Zr  Zr22  1  0.50220807  0.10489098  0.30026024  1
  Zr  Zr23  1  0.29940730  0.69291591  0.31193300  1
  Zr  Zr24  1  0.30031779  0.09765910  0.71608940  1
  Zr  Zr25  1  0.70003659  0.89380944  0.89583910  1
  Zr  Zr26  1  0.10196701  0.30041505  0.49782268  1
  Zr  Zr27  1  0.69423469  0.49014478  0.29188127  1
  Zr  Zr28  1  0.10144097  0.69623779  0.70874252  1
  Zr  Zr29  1  0.30603180  0.70533466  0.09798463  1
  Zr  Zr30  1  0.09662876  0.09858150  0.30132361  1
  Zr  Zr31  1  0.69989536  0.90540341  0.09364769  1
  Zr  Zr32  1  0.49932006  0.28988750  0.50216291  1
  Zr  Zr33  1  0.69154748  0.10510837  0.10834636  1
  Zr  Zr34  1  0.10188279  0.29620710  0.30885352  1
  Zr  Zr35  1  0.89645282  0.89712235  0.49709438  1
  Zr  Zr36  1  0.10173354  0.90410105  0.10827086  1
  Zr  Zr37  1  0.10084951  0.10075791  0.69636466  1
  Zr  Zr38  1  0.11099260  0.70252651  0.49412148  1
  Zr  Zr39  1  0.29520179  0.88673100  0.49137704  1
  Zr  Zr40  1  0.88964801  0.29913832  0.69804203  1
  Zr  Zr41  1  0.89418297  0.70007295  0.30414644  1
  Zr  Zr42  1  0.88938943  0.70022258  0.49703141  1
  Zr  Zr43  1  0.68861031  0.49886009  0.69453262  1
  Zr  Zr44  1  0.89460821  0.29705174  0.30389961  1
  Zr  Zr45  1  0.89214340  0.90672318  0.68992165  1
  Zr  Zr46  1  0.90757912  0.90599715  0.30522532  1
  Zr  Zr47  1  0.89198389  0.90301518  0.90379898  1
  Zr  Zr48  1  0.90388683  0.30197616  0.90446550  1
  Zr  Zr49  1  0.90163875  0.70450431  0.09494294  1
  Sc  Sc50  1  0.49650113  0.90390356  0.09863700  1
  Sc  Sc51  1  0.10774358  0.69839900  0.29717239  1
  Sc  Sc52  1  0.69901086  0.30564878  0.89298540  1
  Sc  Sc53  1  0.10552407  0.70922255  0.10157850  1
  Sc  Sc54  1  0.30723830  0.09148890  0.30113714  1
  Sc  Sc55  1  0.70573137  0.10837628  0.29968387  1
  Sc  Sc56  1  0.49497683  0.70048212  0.89557712  1
  Sc  Sc57  1  0.50679853  0.29855382  0.09423004  1
  Sc  Sc58  1  0.89815817  0.09786967  0.50319077  1
  Sc  Sc59  1  0.30447598  0.89866433  0.89711059  1
  Sc  Sc60  1  0.49545151  0.10067309  0.69784123  1
  Sc  Sc61  1  0.90657088  0.30011813  0.09797663  1
  Sc  Sc62  1  0.88538139  0.49403099  0.30983850  1
  Sc  Sc63  1  0.90301017  0.69913531  0.69692688  1
  Sc  Sc64  1  0.50848439  0.88999672  0.50060386  1
  Sc  Sc65  1  0.30228458  0.49177309  0.29588637  1
  Sc  Sc66  1  0.30630533  0.30260762  0.70453244  1
  Sc  Sc67  1  0.10044999  0.89288010  0.70099946  1
  Sc  Sc68  1  0.30998235  0.48833323  0.90029041  1
  Sc  Sc69  1  0.11390567  0.50315824  0.30154938  1
  Sc  Sc70  1  0.09921334  0.11344156  0.49698100  1
  Sc  Sc71  1  0.30243207  0.89777075  0.29097490  1
  Sc  Sc72  1  0.69935565  0.09115885  0.89776821  1
  Sc  Sc73  1  0.89963039  0.70607843  0.90181166  1
  Sc  Sc74  1  0.89277574  0.49034263  0.09091357  1
  Sc  Sc75  1  0.69771177  0.90154658  0.70021761  1
  Sc  Sc76  1  0.48861288  0.10534994  0.90274718  1
  Sc  Sc77  1  0.69454980  0.70583458  0.50046203  1
  Sc  Sc78  1  0.09223234  0.89401636  0.49698318  1
  Sc  Sc79  1  0.89227816  0.09774690  0.90283102  1
  Sc  Sc80  1  0.09833116  0.29821870  0.09124385  1
  Sc  Sc81  1  0.09797783  0.89472813  0.90679273  1
  Sc  Sc82  1  0.10533801  0.30856516  0.69054001  1
  Sc  Sc83  1  0.30517944  0.49650900  0.70168714  1
  Sc  Sc84  1  0.49483753  0.30262974  0.90179583  1
  Sc  Sc85  1  0.70241917  0.90279794  0.30934985  1
  Sc  Sc86  1  0.89970612  0.30580560  0.50021706  1
  Sc  Sc87  1  0.49799710  0.70094107  0.09190344  1
  Sc  Sc88  1  0.09146894  0.10240321  0.10336494  1
  Sc  Sc89  1  0.70123532  0.69545118  0.30987815  1
  Sc  Sc90  1  0.49798762  0.89692374  0.30176973  1
  Sc  Sc91  1  0.49929156  0.69605292  0.49749575  1
  Sc  Sc92  1  0.50053016  0.49720565  0.70258229  1
  Sc  Sc93  1  0.30031973  0.70085443  0.71373226  1
  Sc  Sc94  1  0.50174135  0.89775592  0.70576592  1
  Sc  Sc95  1  0.69698664  0.30317645  0.69218519  1
  Sc  Sc96  1  0.70120148  0.69870646  0.09005300  1
  Sc  Sc97  1  0.11628436  0.49915741  0.10961056  1
  Sc  Sc98  1  0.69164611  0.70326483  0.69817535  1
  Sc  Sc99  1  0.70673449  0.09703073  0.69557131  1
  Nb  Nb100  1  0.29986760  0.69655985  0.50125997  1
  Nb  Nb101  1  0.89993266  0.50343184  0.69112887  1
  Nb  Nb102  1  0.68815575  0.10565442  0.50072174  1
  Nb  Nb103  1  0.70213067  0.50059522  0.50014089  1
  Nb  Nb104  1  0.50676956  0.49671393  0.29288152  1
  Nb  Nb105  1  0.50399945  0.50107039  0.90436101  1
  Nb  Nb106  1  0.29930100  0.28909197  0.90168432  1
  Nb  Nb107  1  0.50209049  0.50162916  0.50587360  1
  Nb  Nb108  1  0.49387579  0.10283893  0.49725002  1
  Nb  Nb109  1  0.69335794  0.49699881  0.10486945  1
  Nb  Nb110  1  0.90127020  0.09884846  0.70306889  1
  Nb  Nb111  1  0.10085189  0.91164626  0.29738549  1
  Nb  Nb112  1  0.89491025  0.10026764  0.09759873  1
  Nb  Nb113  1  0.30196011  0.29986213  0.29644636  1
  Nb  Nb114  1  0.89410262  0.50557358  0.50966454  1
  Nb  Nb115  1  0.30087267  0.70505231  0.90786717  1
  Nb  Nb116  1  0.51193561  0.69512485  0.29743935  1
  Nb  Nb117  1  0.30402763  0.10005441  0.10060715  1
  Nb  Nb118  1  0.50514545  0.29724929  0.69770952  1
  Nb  Nb119  1  0.30091606  0.10852536  0.90418002  1
  Nb  Nb120  1  0.70226769  0.69550986  0.89676997  1
  Nb  Nb121  1  0.30372187  0.09747816  0.49710758  1
  Nb  Nb122  1  0.49640748  0.30301124  0.30342652  1
  Nb  Nb123  1  0.70043409  0.30338934  0.10717525  1
  Nb  Nb124  1  0.50639174  0.50299964  0.09924436  1
  Nb  Nb125  1  -0.00898448  0.59421171  0.20111469  1
  Nb  Nb126  1  0.59723800  0.58726996  0.39778664  1
  Nb  Nb127  1  0.00000084  0.40460917  0.20634819  1
  Nb  Nb128  1  -0.00486910  0.59649628  0.40110084  1
  Nb  Nb129  1  0.79728066  0.59910753  0.19489107  1
  Nb  Nb130  1  0.20718349  0.00039769  0.59273498  1
  Nb  Nb131  1  0.00784553  0.59764829  0.00353028  1
  Nb  Nb132  1  0.79759405  0.59657795  0.79848386  1
  Nb  Nb133  1  0.19922950  -0.00144873  0.40269506  1
  Nb  Nb134  1  0.41275009  0.59827835  0.20405891  1
  Nb  Nb135  1  0.39463171  0.79723821  0.59988114  1
  Nb  Nb136  1  0.20859219  0.20004889  0.20025611  1
  Nb  Nb137  1  0.60100750  0.59370181  -0.00222485  1
  Nb  Nb138  1  -0.00313483  0.00585308  0.79714809  1
  Nb  Nb139  1  0.20479786  0.60441111  -0.00574312  1
  Nb  Nb140  1  0.79437878  0.19998685  0.00727844  1
  Nb  Nb141  1  0.60623209  0.79589917  0.19993384  1
  Nb  Nb142  1  0.39771578  0.20619352  0.20078295  1
  Nb  Nb143  1  0.59783805  0.00823241  0.40805130  1
  Nb  Nb144  1  0.39459347  -0.00338357  0.59202003  1
  Nb  Nb145  1  -0.00383748  0.19764470  0.79579514  1
  Nb  Nb146  1  0.59686910  0.20261727  0.79515887  1
  Nb  Nb147  1  0.20620692  0.00825999  0.00210224  1
  Nb  Nb148  1  0.79829657  0.79957578  0.19916206  1
  Nb  Nb149  1  0.20383693  0.60265802  0.59917543  1
  Pd  Pd150  1  0.79286576  0.39077272  0.00381876  1
  Pd  Pd151  1  0.80008073  0.59701301  -0.00243494  1
  Pd  Pd152  1  0.78924470  0.60669572  0.60778463  1
  Pd  Pd153  1  0.00318075  0.20740214  0.19821362  1
  Pd  Pd154  1  0.59464044  0.01058861  0.79707479  1
  Pd  Pd155  1  0.20391987  0.79851724  0.20493422  1
  Pd  Pd156  1  -0.00144543  0.39010070  0.78809577  1
  Pd  Pd157  1  0.79509415  0.19678794  0.80712585  1
  Pd  Pd158  1  0.19957547  0.40960799  -0.00585949  1
  Pd  Pd159  1  0.59019146  0.00393063  0.59850925  1
  Pd  Pd160  1  -0.00092877  0.79327385  0.60002267  1
  Pd  Pd161  1  0.79739786  0.40724056  0.78948592  1
  Pd  Pd162  1  0.40308620  0.39760584  0.59712955  1
  Pd  Pd163  1  0.19045645  -0.00789467  0.80794406  1
  Pd  Pd164  1  0.59408849  0.40117052  0.40827227  1
  Pd  Pd165  1  0.59496906  0.79443071  0.79861406  1
  Pd  Pd166  1  0.39220490  0.19423158  0.60767684  1
  Pd  Pd167  1  0.60792955  0.20117193  -0.01235243  1
  Pd  Pd168  1  0.00800243  0.00739217  -0.00575607  1
  Pd  Pd169  1  0.21287236  0.59307310  0.80291965  1
  Pd  Pd170  1  0.00708168  0.61084662  0.59237563  1
  Pd  Pd171  1  -0.00470207  0.20741166  0.60136407  1
  Pd  Pd172  1  0.40751501  0.79495464  0.40061956  1
  Pd  Pd173  1  0.19495443  0.21215265  0.79238938  1
  Pd  Pd174  1  -0.00208427  0.79624644  0.20707697  1
  Pd  Pd175  1  0.00693693  0.79339158  0.39269108  1
  Pd  Pd176  1  0.39735251  0.59724380  0.80630356  1
  Pd  Pd177  1  0.21165245  0.40633085  0.59826305  1
  Pd  Pd178  1  0.80397465  0.20542453  0.19429797  1
  Pd  Pd179  1  0.80300963  -0.00466395  0.19990267  1
  Pd  Pd180  1  0.21051007  0.19665342  0.60369801  1
  Pd  Pd181  1  0.79501466  0.39685380  0.40927476  1
  Pd  Pd182  1  -0.00937154  0.80973139  0.79866165  1
  Pd  Pd183  1  0.80218713  0.79318721  0.79291182  1
  Pd  Pd184  1  0.41010626  0.79133867  0.20340534  1
  Pd  Pd185  1  0.41093552  0.59622894  0.39233393  1
  Pd  Pd186  1  0.20512684  0.79795225  0.60854884  1
  Pd  Pd187  1  0.79109441  0.00799015  0.40703801  1
  Pd  Pd188  1  0.59860115  -0.00845190  0.21154056  1
  Pd  Pd189  1  0.40290863  -0.00896242  0.40368002  1
  Pd  Pd190  1  -0.00223441  0.40846653  0.39591229  1
  Pd  Pd191  1  0.59857417  0.79359778  0.00077315  1
  Pd  Pd192  1  0.59746622  0.00525725  -0.00422311  1
  Pd  Pd193  1  0.41040707  0.39816064  0.19393928  1
  Pd  Pd194  1  0.60072674  0.39979452  0.00023113  1
  Pd  Pd195  1  0.40580026  0.39531889  0.80237820  1
  Pd  Pd196  1  0.20577357  0.40453903  0.40185262  1
  Pd  Pd197  1  0.00816880  -0.00084249  0.59721122  1
  Pd  Pd198  1  0.40432859  0.40076761  0.40270314  1
  Pd  Pd199  1  0.79917612  0.19516198  0.59454179  1
  Rh  Rh200  1  0.18939535  0.38586749  0.20363838  1
  Rh  Rh201  1  0.60218872  0.80073620  0.39346664  1
  Rh  Rh202  1  0.21048989  0.18985168  0.38947026  1
  Rh  Rh203  1  0.39259634  -0.00067270  -0.00514015  1
  Rh  Rh204  1  0.59123935  0.20845674  0.20520953  1
  Rh  Rh205  1  0.40666346  0.00488006  0.20043877  1
  Rh  Rh206  1  0.79291934  0.59336222  0.40013079  1
  Rh  Rh207  1  -0.01189569  0.19237783  -0.00641774  1
  Rh  Rh208  1  0.39342944  0.60399353  0.60389810  1
  Rh  Rh209  1  0.79735029  0.79674415  0.60392690  1
  Rh  Rh210  1  0.40488765  0.80698056  -0.00428998  1
  Rh  Rh211  1  0.59886429  0.19788574  0.39668809  1
  Rh  Rh212  1  0.60332620  0.60005645  0.80843305  1
  Rh  Rh213  1  0.21523811  0.60710565  0.19222609  1
  Rh  Rh214  1  0.01363797  0.41452222  0.01314900  1
  Rh  Rh215  1  -0.00856035  0.00455076  0.19679745  1
  Rh  Rh216  1  0.79277194  0.00848091  0.00489478  1
  Rh  Rh217  1  0.40461424  0.79523201  0.79776037  1
  Rh  Rh218  1  0.20277663  0.80565840  0.00003173  1
  Rh  Rh219  1  0.79898477  0.19889604  0.40709641  1
  Rh  Rh220  1  0.40342475  0.59839793  -0.00070258  1
  Rh  Rh221  1  0.40514328  0.00364196  0.80404536  1
  Rh  Rh222  1  0.39595724  0.20729846  0.00733785  1
  Rh  Rh223  1  0.79515402  0.80624752  0.39809237  1
  Rh  Rh224  1  0.19455663  0.81006696  0.38499637  1
  Rh  Rh225  1  0.20647052  0.19550564  0.01020672  1
  Rh  Rh226  1  0.80571248  0.40025264  0.19527217  1
  Rh  Rh227  1  0.79663385  0.00564327  0.59555094  1
  Rh  Rh228  1  0.00505116  0.79636504  0.00023510  1
  Rh  Rh229  1  0.00827317  0.00452604  0.40879196  1
  Rh  Rh230  1  0.40703634  0.20493589  0.79972145  1
  Rh  Rh231  1  -0.00886825  0.39519752  0.60414169  1
  Rh  Rh232  1  0.59809213  0.19399766  0.60866420  1
  Rh  Rh233  1  0.59316965  0.38927861  0.19587878  1
  Rh  Rh234  1  0.79455409  0.80319401  0.00109320  1
  Rh  Rh235  1  0.58933203  0.79675900  0.60679789  1
  Rh  Rh236  1  0.80213702  -0.00298910  0.79734459  1
  Rh  Rh237  1  0.59411852  0.40007674  0.59421542  1
  Rh  Rh238  1  0.60413685  0.60756073  0.19463843  1
  Rh  Rh239  1  0.60217407  0.59965328  0.58774551  1
  Rh  Rh240  1  0.20207007  0.80479505  0.80553361  1
  Rh  Rh241  1  0.79820553  0.40340547  0.59759006  1
  Rh  Rh242  1  -0.01522001  0.60351703  0.80552569  1
  Rh  Rh243  1  0.40535930  0.39607925  -0.00151872  1
  Rh  Rh244  1  -0.01004693  0.19960451  0.40689576  1
  Rh  Rh245  1  0.39685987  0.20252719  0.39160343  1
  Rh  Rh246  1  0.19429988  0.58953439  0.41070930  1
  Rh  Rh247  1  0.20450786  0.39586670  0.80291047  1
  Rh  Rh248  1  0.59158212  0.39294867  0.79666390  1
  Rh  Rh249  1  0.19933462  0.00873294  0.20027918  1
