# generated using pymatgen
data_ZrScNbPdRh
_symmetry_space_group_name_H-M   'P 1'
_cell_length_a   16.55967159
_cell_length_b   16.55788097
_cell_length_c   16.55918425
_cell_angle_alpha   89.99154621
_cell_angle_beta   89.96249492
_cell_angle_gamma   90.06007513
_symmetry_Int_Tables_number   1
_chemical_formula_structural   ZrScNbPdRh
_chemical_formula_sum   'Zr50 Sc50 Nb50 Pd50 Rh50'
_cell_volume   4540.41006467
_cell_formula_units_Z   50
loop_
 _symmetry_equiv_pos_site_id
 _symmetry_equiv_pos_as_xyz
  1  'x, y, z'
loop_
 _atom_site_type_symbol
 _atom_site_label
 _atom_site_symmetry_multiplicity
 _atom_site_fract_x
 _atom_site_fract_y
 _atom_site_fract_z
 _atom_site_occupancy
  Zr  Zr0  1  0.09727310  0.88929963  0.29540935  1
  Zr  Zr1  1  0.29093934  0.10238257  0.69440479  1
  Zr  Zr2  1  0.09941311  0.90105984  0.50244129  1
  Zr  Zr3  1  0.68968142  0.89452071  0.10207155  1
  Zr  Zr4  1  0.29610675  0.30577501  0.68606069  1
  Zr  Zr5  1  0.90266998  0.28971761  0.29971092  1
  Zr  Zr6  1  0.10791291  0.09771621  0.10178298  1
  Zr  Zr7  1  0.49245591  0.69323765  0.69898078  1
  Zr  Zr8  1  0.29402428  0.70159147  0.90324047  1
  Zr  Zr9  1  0.70533112  0.49137417  0.90923065  1
  Zr  Zr10  1  0.49946129  0.70773446  0.10013347  1
  Zr  Zr11  1  0.30590293  0.29745278  0.89486492  1
  Zr  Zr12  1  0.70172597  0.49718901  0.50033042  1
  Zr  Zr13  1  0.69020183  0.50669947  0.30927062  1
  Zr  Zr14  1  0.09984961  0.90569812  0.10079256  1
  Zr  Zr15  1  0.28636171  0.69615357  0.30037072  1
  Zr  Zr16  1  0.70282583  0.89691915  0.30030000  1
  Zr  Zr17  1  0.29203598  0.90755043  0.70244493  1
  Zr  Zr18  1  0.89707224  0.08559323  0.89439444  1
  Zr  Zr19  1  0.90844984  0.69768254  0.50654996  1
  Zr  Zr20  1  0.90552471  0.09395142  0.10180276  1
  Zr  Zr21  1  0.68946403  0.09942209  0.50756769  1
  Zr  Zr22  1  0.08436678  0.09968982  0.69795879  1
  Zr  Zr23  1  0.10046091  0.28944167  0.70300551  1
  Zr  Zr24  1  0.69413247  0.09850942  0.10105210  1
  Zr  Zr25  1  0.69806429  0.09783668  0.30565437  1
  Zr  Zr26  1  0.90060379  0.30191150  0.10900709  1
  Zr  Zr27  1  0.90114912  0.29016657  0.70109451  1
  Zr  Zr28  1  0.49413300  0.90699954  0.49228213  1
  Zr  Zr29  1  0.11086494  0.70627747  0.49316959  1
  Zr  Zr30  1  0.10607469  0.71565131  0.11020487  1
  Zr  Zr31  1  0.49675251  0.69967141  0.50635770  1
  Zr  Zr32  1  0.30467855  0.50437389  0.10542910  1
  Zr  Zr33  1  0.69759222  0.30038043  0.50034491  1
  Zr  Zr34  1  0.09822377  0.10042919  0.29740772  1
  Zr  Zr35  1  0.10092498  0.29822516  0.10187709  1
  Zr  Zr36  1  0.90456749  0.69312325  0.89806516  1
  Zr  Zr37  1  0.50518089  0.29455142  0.89779426  1
  Zr  Zr38  1  0.89876980  0.90831732  0.30407453  1
  Zr  Zr39  1  0.70267910  0.90992012  0.49875433  1
  Zr  Zr40  1  0.51063056  0.29536934  0.09395913  1
  Zr  Zr41  1  0.50722071  0.50297768  0.49974023  1
  Zr  Zr42  1  0.49947189  0.09780428  0.30023590  1
  Zr  Zr43  1  0.31330432  0.10311186  0.49988659  1
  Zr  Zr44  1  0.11512078  0.50545465  0.30264617  1
  Zr  Zr45  1  0.29184821  0.90076114  0.08520203  1
  Zr  Zr46  1  0.29668887  0.89675377  0.50357375  1
  Zr  Zr47  1  0.69694976  0.69223153  0.49361608  1
  Zr  Zr48  1  0.69966477  0.29704191  0.29786633  1
  Zr  Zr49  1  0.49104768  0.70570867  0.29947604  1
  Sc  Sc50  1  0.89729569  0.50090816  0.09862990  1
  Sc  Sc51  1  0.69379208  0.90296864  0.90400269  1
  Sc  Sc52  1  0.90126622  0.90647303  0.10397128  1
  Sc  Sc53  1  0.30668736  0.10309471  0.28908512  1
  Sc  Sc54  1  0.90638776  0.50101345  0.90530425  1
  Sc  Sc55  1  0.49845861  0.90227011  0.10065039  1
  Sc  Sc56  1  0.49998567  0.89761565  0.69586432  1
  Sc  Sc57  1  0.10350502  0.50444360  0.70085051  1
  Sc  Sc58  1  0.69336515  0.30264969  0.90287139  1
  Sc  Sc59  1  0.89598095  0.71058589  0.30036822  1
  Sc  Sc60  1  0.49502379  0.30525047  0.29451195  1
  Sc  Sc61  1  0.30185414  0.29847608  0.10883472  1
  Sc  Sc62  1  0.49641304  0.10650678  0.69433694  1
  Sc  Sc63  1  0.50027822  0.90361654  0.29206653  1
  Sc  Sc64  1  0.89986010  0.09333025  0.49690767  1
  Sc  Sc65  1  0.30074714  0.09427162  0.09834256  1
  Sc  Sc66  1  0.10299858  0.49169931  0.09474475  1
  Sc  Sc67  1  0.10421275  0.50110323  0.50452216  1
  Sc  Sc68  1  0.29789793  0.51313896  0.89997296  1
  Sc  Sc69  1  0.08998434  0.69949191  0.70011534  1
  Sc  Sc70  1  0.49475602  0.49861136  0.69932697  1
  Sc  Sc71  1  0.90736937  0.50349968  0.70582423  1
  Sc  Sc72  1  0.10249503  0.69084899  0.89404258  1
  Sc  Sc73  1  0.31239298  0.89896009  0.30276567  1
  Sc  Sc74  1  0.69491717  0.90528690  0.69294197  1
  Sc  Sc75  1  0.49435497  0.90625559  0.90186913  1
  Sc  Sc76  1  0.09545957  0.09770405  0.50543631  1
  Sc  Sc77  1  0.69140028  0.48868825  0.69570942  1
  Sc  Sc78  1  0.49440404  0.49929042  0.10565158  1
  Sc  Sc79  1  0.30949904  0.49882827  0.70450716  1
  Sc  Sc80  1  0.70144048  0.10025327  0.90074561  1
  Sc  Sc81  1  0.70798834  0.70142403  0.29620104  1
  Sc  Sc82  1  0.10694026  0.30002487  0.50852011  1
  Sc  Sc83  1  0.69897144  0.30382252  0.09913102  1
  Sc  Sc84  1  0.30944457  0.08891347  0.89798606  1
  Sc  Sc85  1  0.90025995  0.90339180  0.49654622  1
  Sc  Sc86  1  0.10830329  0.89776754  0.89306278  1
  Sc  Sc87  1  0.09755816  0.29904296  0.29468837  1
  Sc  Sc88  1  0.89706878  0.30767034  0.89340157  1
  Sc  Sc89  1  0.71023481  0.49881389  0.10439250  1
  Sc  Sc90  1  0.68295965  0.70559320  0.69726764  1
  Sc  Sc91  1  0.70252908  0.29345224  0.69819080  1
  Sc  Sc92  1  0.89751531  0.49429095  0.30308315  1
  Sc  Sc93  1  0.49663804  0.70606120  0.90122473  1
  Sc  Sc94  1  0.09611804  0.10014306  0.89084105  1
  Sc  Sc95  1  0.90588890  0.90741074  0.70445063  1
  Sc  Sc96  1  0.49880055  0.09796885  0.09822107  1
  Sc  Sc97  1  0.89451584  0.68919010  0.10280487  1
  Sc  Sc98  1  0.49166134  0.29714321  0.49806798  1
  Sc  Sc99  1  0.89521944  0.30409369  0.49148032  1
  Nb  Nb100  1  0.89945099  0.69727223  0.70251506  1
  Nb  Nb101  1  0.49037474  0.50502482  0.29900036  1
  Nb  Nb102  1  0.30076954  0.30216934  0.49849626  1
  Nb  Nb103  1  0.10284064  0.90993147  0.69319587  1
  Nb  Nb104  1  0.90239456  0.10082373  0.30171592  1
  Nb  Nb105  1  0.50505894  0.09703894  0.49448796  1
  Nb  Nb106  1  0.30106031  0.70154908  0.09556435  1
  Nb  Nb107  1  0.31114761  0.49588476  0.29898062  1
  Nb  Nb108  1  0.29944343  0.89991111  0.89518936  1
  Nb  Nb109  1  0.30154633  0.69951067  0.49934783  1
  Nb  Nb110  1  0.09843907  0.30054336  0.90136326  1
  Nb  Nb111  1  0.49323524  0.31126338  0.71477771  1
  Nb  Nb112  1  0.69783020  0.70096387  0.90290132  1
  Nb  Nb113  1  0.50332831  0.48958769  0.89574885  1
  Nb  Nb114  1  0.10081878  0.70137858  0.30125464  1
  Nb  Nb115  1  0.10264240  0.49505865  0.89909534  1
  Nb  Nb116  1  0.89562083  0.89633620  0.90439708  1
  Nb  Nb117  1  0.89349224  0.09794293  0.70240421  1
  Nb  Nb118  1  0.49922751  0.10334385  0.89618108  1
  Nb  Nb119  1  0.70575490  0.09636011  0.69386351  1
  Nb  Nb120  1  0.30417180  0.49204815  0.50514449  1
  Nb  Nb121  1  0.30723224  0.30100878  0.30756465  1
  Nb  Nb122  1  0.30355779  0.69005670  0.70376199  1
  Nb  Nb123  1  0.90517564  0.50156433  0.50435927  1
  Nb  Nb124  1  0.69820778  0.69640605  0.09714457  1
  Nb  Nb125  1  -0.00116015  0.40005696  0.60117010  1
  Nb  Nb126  1  0.59797943  0.60436348  0.19858741  1
  Nb  Nb127  1  0.20882933  0.20277823  0.39990069  1
  Nb  Nb128  1  0.80310646  0.79351169  0.60541957  1
  Nb  Nb129  1  0.60162693  0.59618982  0.80935675  1
  Nb  Nb130  1  0.19605988  0.20295883  -0.00475421  1
  Nb  Nb131  1  0.79181345  0.60552490  0.79767154  1
  Nb  Nb132  1  0.40367855  0.39943107  -0.00415854  1
  Nb  Nb133  1  0.38816286  0.80197043  0.79861053  1
  Nb  Nb134  1  -0.00392559  0.80087343  -0.00272787  1
  Nb  Nb135  1  -0.00063387  0.20121398  -0.00270292  1
  Nb  Nb136  1  0.60142111  0.59937009  0.00058699  1
  Nb  Nb137  1  0.00613876  0.60179871  0.39748973  1
  Nb  Nb138  1  0.19612415  0.39808601  0.80557178  1
  Nb  Nb139  1  0.39141410  0.59608216  0.40199404  1
  Nb  Nb140  1  0.80727642  0.19679192  0.00248784  1
  Nb  Nb141  1  0.21274043  0.39806461  0.40013836  1
  Nb  Nb142  1  0.79934210  0.79602274  0.79981148  1
  Nb  Nb143  1  0.59881260  0.80027045  0.40052367  1
  Nb  Nb144  1  0.20228900  0.00347394  0.39975165  1
  Nb  Nb145  1  0.80122669  0.60252537  0.60535404  1
  Nb  Nb146  1  0.00762922  0.60337947  0.20874335  1
  Nb  Nb147  1  0.80089519  0.79742450  -0.00380441  1
  Nb  Nb148  1  0.59648690  0.00966371  0.79677109  1
  Nb  Nb149  1  0.21072697  0.60424972  0.59836368  1
  Pd  Pd150  1  0.59094020  0.38894343  0.60323118  1
  Pd  Pd151  1  0.79946677  0.40026786  0.39575471  1
  Pd  Pd152  1  0.00631936  0.40270849  0.79354915  1
  Pd  Pd153  1  0.79768168  0.40402623  0.20863629  1
  Pd  Pd154  1  0.20005316  0.79107936  0.61275065  1
  Pd  Pd155  1  0.00894641  -0.00379716  -0.00937824  1
  Pd  Pd156  1  -0.00035282  0.80680340  0.80271492  1
  Pd  Pd157  1  0.59379588  0.80586602  0.80518906  1
  Pd  Pd158  1  0.20900493  -0.00812444  0.21050637  1
  Pd  Pd159  1  0.80522587  0.19476316  0.59099709  1
  Pd  Pd160  1  0.40977791  0.59437626  -0.00435937  1
  Pd  Pd161  1  0.78919799  -0.01079645  0.79628366  1
  Pd  Pd162  1  0.19875848  0.79378631  0.79092000  1
  Pd  Pd163  1  0.19752349  0.59969022  0.18981110  1
  Pd  Pd164  1  -0.00288001  0.80879366  0.60546208  1
  Pd  Pd165  1  0.00174601  0.41173337  0.20372881  1
  Pd  Pd166  1  -0.00421128  0.79832632  0.40019355  1
  Pd  Pd167  1  0.59445253  0.00431223  -0.00660572  1
  Pd  Pd168  1  0.39486198  0.19670523  0.79064661  1
  Pd  Pd169  1  0.79811230  0.40672512  0.79377547  1
  Pd  Pd170  1  0.80455035  0.80064140  0.18828512  1
  Pd  Pd171  1  0.79850111  0.19359652  0.40742406  1
  Pd  Pd172  1  0.40388850  0.00016512  0.60440023  1
  Pd  Pd173  1  0.20462762  0.19827728  0.80511825  1
  Pd  Pd174  1  0.01161028  0.60605331  0.01151887  1
  Pd  Pd175  1  0.19562232  0.00868736  0.80209050  1
  Pd  Pd176  1  0.20622262  0.39537561  0.20627416  1
  Pd  Pd177  1  0.81300689  0.60022672  0.40135225  1
  Pd  Pd178  1  0.60649513  0.19529754  0.79280802  1
  Pd  Pd179  1  0.38975760  0.80333155  0.19373903  1
  Pd  Pd180  1  0.59894014  0.40958773  0.19900139  1
  Pd  Pd181  1  0.40709431  0.20654148  0.60391682  1
  Pd  Pd182  1  0.01220123  0.40323563  0.40581259  1
  Pd  Pd183  1  0.40474481  0.20112986  0.19512526  1
  Pd  Pd184  1  0.00977652  0.20258187  0.40735268  1
  Pd  Pd185  1  0.39312785  0.20038491  0.00402887  1
  Pd  Pd186  1  0.39966875  0.80628425  -0.00536399  1
  Pd  Pd187  1  0.79638882  0.19487351  0.19502103  1
  Pd  Pd188  1  0.19131471  0.60249057  0.00795901  1
  Pd  Pd189  1  0.21302497  0.39612175  -0.00590716  1
  Pd  Pd190  1  -0.01049087  0.20414406  0.58830978  1
  Pd  Pd191  1  0.59115554  0.39256668  0.39749001  1
  Pd  Pd192  1  -0.00547694  0.39558704  0.00059371  1
  Pd  Pd193  1  0.59100262  0.20817193  0.60762553  1
  Pd  Pd194  1  0.60426759  0.80576426  0.58970275  1
  Pd  Pd195  1  0.79633450  0.00083250  0.19877686  1
  Pd  Pd196  1  0.59090056  0.20753331  0.39649069  1
  Pd  Pd197  1  0.79668498  0.19993291  0.80876896  1
  Pd  Pd198  1  0.39293805  0.80315165  0.60765681  1
  Pd  Pd199  1  0.81008024  0.40654472  0.60712879  1
  Rh  Rh200  1  0.60378843  0.39948670  0.79627219  1
  Rh  Rh201  1  0.40278304  0.39327807  0.19186307  1
  Rh  Rh202  1  0.40775084  -0.00469889  0.79544236  1
  Rh  Rh203  1  0.59924079  0.19922994  0.20305715  1
  Rh  Rh204  1  0.59824426  -0.00712877  0.39342543  1
  Rh  Rh205  1  0.39205091  0.40279868  0.80657967  1
  Rh  Rh206  1  0.00442988  0.59414000  0.59509442  1
  Rh  Rh207  1  0.59883729  0.00133151  0.20191116  1
  Rh  Rh208  1  0.60795151  0.19366754  -0.00236143  1
  Rh  Rh209  1  0.40889922  0.60526987  0.81066668  1
  Rh  Rh210  1  -0.00098545  0.00219137  0.20853299  1
  Rh  Rh211  1  0.59200958  0.00501802  0.60635196  1
  Rh  Rh212  1  0.79328859  -0.00351748  0.00715404  1
  Rh  Rh213  1  -0.00728684  -0.00198319  0.60202882  1
  Rh  Rh214  1  0.80665362  0.38950482  0.00310423  1
  Rh  Rh215  1  0.21132008  0.80712014  0.20138847  1
  Rh  Rh216  1  -0.01232048  0.19635987  0.80936409  1
  Rh  Rh217  1  0.00777372  -0.00017844  0.39555696  1
  Rh  Rh218  1  0.59354611  0.40926475  0.00852540  1
  Rh  Rh219  1  0.58692216  0.60990351  0.38904873  1
  Rh  Rh220  1  0.40269570  0.40636048  0.40444192  1
  Rh  Rh221  1  -0.01035609  0.79527579  0.19357431  1
  Rh  Rh222  1  0.39961690  -0.00238920  0.19189750  1
  Rh  Rh223  1  0.20325661  0.20463487  0.20179675  1
  Rh  Rh224  1  0.39642800  0.00595718  0.39606212  1
  Rh  Rh225  1  0.00046064  0.19328121  0.19573689  1
  Rh  Rh226  1  0.39525909  0.59431779  0.59275976  1
  Rh  Rh227  1  0.79497179  0.60179978  -0.00638490  1
  Rh  Rh228  1  0.19805178  0.59412581  0.79237145  1
  Rh  Rh229  1  0.39832413  0.60902951  0.20317342  1
  Rh  Rh230  1  0.79925983  0.59630857  0.20652822  1
  Rh  Rh231  1  0.19763194  0.00689864  -0.01068878  1
  Rh  Rh232  1  0.20573187  0.81217709  0.39396548  1
  Rh  Rh233  1  0.19278731  0.79955594  -0.00467750  1
  Rh  Rh234  1  0.79327524  0.80145118  0.41270201  1
  Rh  Rh235  1  0.19737933  0.00718589  0.59305193  1
  Rh  Rh236  1  0.19575063  0.40886895  0.60441997  1
  Rh  Rh237  1  0.00091538  0.59269603  0.80344940  1
  Rh  Rh238  1  0.60541263  0.59376029  0.61202394  1
  Rh  Rh239  1  0.20035351  0.19137631  0.59048744  1
  Rh  Rh240  1  0.20561219  0.58971995  0.41055333  1
  Rh  Rh241  1  0.60107598  0.79921814  -0.00212556  1
  Rh  Rh242  1  0.40200344  0.19646301  0.39693895  1
  Rh  Rh243  1  0.40139745  0.79448083  0.40401987  1
  Rh  Rh244  1  0.80729929  -0.00356894  0.60317799  1
  Rh  Rh245  1  0.60237344  0.79243527  0.20851508  1
  Rh  Rh246  1  0.40871948  0.39791629  0.59984362  1
  Rh  Rh247  1  0.40122453  -0.00076838  -0.00131380  1
  Rh  Rh248  1  0.00272846  -0.00698691  0.79951010  1
  Rh  Rh249  1  0.79924785  0.00823823  0.40003443  1
