# generated using pymatgen
data_ZrScNbPdRh
_symmetry_space_group_name_H-M   'P 1'
_cell_length_a   16.55744675
_cell_length_b   16.56302580
_cell_length_c   16.56232626
_cell_angle_alpha   89.96612100
_cell_angle_beta   89.97107274
_cell_angle_gamma   89.98892806
_symmetry_Int_Tables_number   1
_chemical_formula_structural   ZrScNbPdRh
_chemical_formula_sum   'Zr50 Sc50 Nb50 Pd50 Rh50'
_cell_volume   4542.07437745
_cell_formula_units_Z   50
loop_
 _symmetry_equiv_pos_site_id
 _symmetry_equiv_pos_as_xyz
  1  'x, y, z'
loop_
 _atom_site_type_symbol
 _atom_site_label
 _atom_site_symmetry_multiplicity
 _atom_site_fract_x
 _atom_site_fract_y
 _atom_site_fract_z
 _atom_site_occupancy
  Zr  Zr0  1  0.49720609  0.10473482  0.89413031  1
  Zr  Zr1  1  0.69210998  0.29786923  0.69706767  1
  Zr  Zr2  1  0.50324484  0.30945854  0.10577804  1
  Zr  Zr3  1  0.70969858  0.28877477  0.49469734  1
  Zr  Zr4  1  0.69420607  0.09656380  0.89361667  1
  Zr  Zr5  1  0.30148666  0.49657957  0.09957429  1
  Zr  Zr6  1  0.69789312  0.29946182  0.29461426  1
  Zr  Zr7  1  0.70314821  0.70351780  0.70032087  1
  Zr  Zr8  1  0.49758766  0.09462145  0.09331271  1
  Zr  Zr9  1  0.90526807  0.29013637  0.69632459  1
  Zr  Zr10  1  0.49981090  0.70674699  0.49535736  1
  Zr  Zr11  1  0.90181568  0.70016486  0.50595312  1
  Zr  Zr12  1  0.50034933  0.70173795  0.09971601  1
  Zr  Zr13  1  0.50155444  0.49428265  0.30639881  1
  Zr  Zr14  1  0.50352656  0.50288992  0.50416513  1
  Zr  Zr15  1  0.49655193  0.50255722  0.69658668  1
  Zr  Zr16  1  0.29714930  0.50110955  0.30300926  1
  Zr  Zr17  1  0.30662170  0.29826281  0.88621813  1
  Zr  Zr18  1  0.69259322  0.10780479  0.30495642  1
  Zr  Zr19  1  0.49593050  0.70807647  0.69799118  1
  Zr  Zr20  1  0.50274333  0.29571488  0.30283947  1
  Zr  Zr21  1  0.90026366  0.09987477  0.89971933  1
  Zr  Zr22  1  0.90112046  0.90284786  0.88858599  1
  Zr  Zr23  1  0.49623719  0.89943265  0.09717896  1
  Zr  Zr24  1  0.10333378  0.89856353  0.09685973  1
  Zr  Zr25  1  0.90312232  0.10068934  0.29663358  1
  Zr  Zr26  1  0.30103001  0.10451238  0.69428085  1
  Zr  Zr27  1  0.89443625  0.69652810  0.89193855  1
  Zr  Zr28  1  0.89087221  0.89847281  0.12013432  1
  Zr  Zr29  1  0.30417166  0.89989693  0.10409275  1
  Zr  Zr30  1  0.09380027  0.70475061  0.69796980  1
  Zr  Zr31  1  0.69464606  0.90337461  0.09752366  1
  Zr  Zr32  1  0.30045983  0.51120824  0.49922901  1
  Zr  Zr33  1  0.90058538  0.70474534  0.29742566  1
  Zr  Zr34  1  0.29891168  0.30162475  0.10033569  1
  Zr  Zr35  1  0.10264687  0.10515861  0.10438945  1
  Zr  Zr36  1  0.89658728  0.10515792  0.50799021  1
  Zr  Zr37  1  0.90284536  0.50119232  0.89897676  1
  Zr  Zr38  1  0.90915433  0.89796529  0.30477993  1
  Zr  Zr39  1  0.90399735  0.09926709  0.09808831  1
  Zr  Zr40  1  0.70439142  0.10945457  0.10203430  1
  Zr  Zr41  1  0.10557641  0.90685643  0.49237130  1
  Zr  Zr42  1  0.69991000  0.50257640  0.50096781  1
  Zr  Zr43  1  0.30136134  0.69812015  0.31025381  1
  Zr  Zr44  1  0.29940377  0.50293393  0.70186864  1
  Zr  Zr45  1  0.10258147  0.30211670  0.09854464  1
  Zr  Zr46  1  0.10010623  0.08965982  0.89943974  1
  Zr  Zr47  1  0.50591052  0.09158305  0.49844878  1
  Zr  Zr48  1  0.69555247  0.70086930  0.50449800  1
  Zr  Zr49  1  0.49404267  0.70505187  0.89949888  1
  Sc  Sc50  1  0.29340469  0.70182403  0.09461656  1
  Sc  Sc51  1  0.10105660  0.89888385  0.69980477  1
  Sc  Sc52  1  0.89923963  0.50102480  0.49372381  1
  Sc  Sc53  1  0.09728100  0.50175727  0.70474398  1
  Sc  Sc54  1  0.30721838  0.09758271  0.10191887  1
  Sc  Sc55  1  0.90298652  0.29400734  0.49057388  1
  Sc  Sc56  1  0.30174348  0.10349865  0.30531124  1
  Sc  Sc57  1  0.69930890  0.09651055  0.69594678  1
  Sc  Sc58  1  0.10018973  0.28476380  0.30469384  1
  Sc  Sc59  1  0.10114563  0.70476090  0.49969171  1
  Sc  Sc60  1  0.69348547  0.69539489  0.30580029  1
  Sc  Sc61  1  0.90739646  0.51303340  0.70299872  1
  Sc  Sc62  1  0.49268641  0.89123041  0.29652500  1
  Sc  Sc63  1  0.90973331  0.30155747  0.90473862  1
  Sc  Sc64  1  0.30400440  0.29544737  0.29909924  1
  Sc  Sc65  1  0.90011733  0.29117288  0.09398166  1
  Sc  Sc66  1  0.29660106  0.70394727  0.50093589  1
  Sc  Sc67  1  0.90076844  0.09099839  0.69999351  1
  Sc  Sc68  1  0.50198881  0.30005303  0.49872818  1
  Sc  Sc69  1  0.91136944  0.50364004  0.08658831  1
  Sc  Sc70  1  0.69315635  0.69999193  0.10436783  1
  Sc  Sc71  1  0.10788193  0.50014247  0.09814262  1
  Sc  Sc72  1  0.49636498  0.10152716  0.30000527  1
  Sc  Sc73  1  0.09130816  0.51326015  0.49854617  1
  Sc  Sc74  1  0.71003281  0.89981524  0.28915841  1
  Sc  Sc75  1  0.69659986  0.89866296  0.70400790  1
  Sc  Sc76  1  0.09984459  0.69948693  0.30571270  1
  Sc  Sc77  1  0.69008893  0.50168227  0.68842483  1
  Sc  Sc78  1  0.30056962  0.70559305  0.90195398  1
  Sc  Sc79  1  0.30216603  0.70745832  0.69644583  1
  Sc  Sc80  1  0.29789339  0.89390141  0.30439946  1
  Sc  Sc81  1  0.90243714  0.89780201  0.69851981  1
  Sc  Sc82  1  0.50397762  0.90108120  0.89953233  1
  Sc  Sc83  1  0.50572018  0.10034465  0.69724126  1
  Sc  Sc84  1  0.10808465  0.70845170  0.90346927  1
  Sc  Sc85  1  0.29472430  0.89864031  0.68881612  1
  Sc  Sc86  1  0.49644971  0.29416362  0.70225404  1
  Sc  Sc87  1  0.10062321  0.09843660  0.69372296  1
  Sc  Sc88  1  0.10134199  0.89787060  0.89335293  1
  Sc  Sc89  1  0.29562035  0.09478018  0.50328430  1
  Sc  Sc90  1  0.90067854  0.50476527  0.31426093  1
  Sc  Sc91  1  0.09947062  0.49233365  0.90386586  1
  Sc  Sc92  1  0.29987264  0.28445384  0.49646198  1
  Sc  Sc93  1  0.70059696  0.50002281  0.31074148  1
  Sc  Sc94  1  0.70108991  0.70464385  0.89337263  1
  Sc  Sc95  1  0.10263508  0.69223947  0.10211635  1
  Sc  Sc96  1  0.69464675  0.90175246  0.89093321  1
  Sc  Sc97  1  0.30563878  0.49682353  0.90393170  1
  Sc  Sc98  1  0.70552011  0.50192577  0.91528789  1
  Sc  Sc99  1  0.29150602  0.89358944  0.89845742  1
  Nb  Nb100  1  0.89754566  0.90094367  0.49775187  1
  Nb  Nb101  1  0.10559919  0.30071510  0.89158641  1
  Nb  Nb102  1  0.89797399  0.30929539  0.30703143  1
  Nb  Nb103  1  0.69266074  0.90186424  0.49779115  1
  Nb  Nb104  1  0.49187674  0.89849977  0.69752369  1
  Nb  Nb105  1  0.70060996  0.09463131  0.49602822  1
  Nb  Nb106  1  0.70411330  0.30122329  0.90314410  1
  Nb  Nb107  1  0.50130548  0.30030238  0.89895376  1
  Nb  Nb108  1  0.10381507  0.10627611  0.48489342  1
  Nb  Nb109  1  0.09725896  0.29961943  0.49683038  1
  Nb  Nb110  1  0.30096233  0.90043026  0.50113753  1
  Nb  Nb111  1  0.09738790  0.49836963  0.30471214  1
  Nb  Nb112  1  0.30253471  0.10233153  0.89536800  1
  Nb  Nb113  1  0.49810435  0.49989108  0.90460253  1
  Nb  Nb114  1  0.10133871  0.90379742  0.30539755  1
  Nb  Nb115  1  0.29252564  0.30210051  0.69845611  1
  Nb  Nb116  1  0.70001572  0.30392323  0.09857657  1
  Nb  Nb117  1  0.69788767  0.49347692  0.10552120  1
  Nb  Nb118  1  0.50449721  0.50277897  0.09671104  1
  Nb  Nb119  1  0.10651227  0.30456247  0.70404565  1
  Nb  Nb120  1  0.49637410  0.69505178  0.30117188  1
  Nb  Nb121  1  0.90036562  0.70490447  0.70382507  1
  Nb  Nb122  1  0.10557033  0.09523869  0.30530941  1
  Nb  Nb123  1  0.49881149  0.89712965  0.50824411  1
  Nb  Nb124  1  0.90006370  0.70118144  0.10124757  1
  Nb  Nb125  1  0.80614192  0.39610347  0.60280138  1
  Nb  Nb126  1  0.39555188  0.00124026  0.79604365  1
  Nb  Nb127  1  0.80165504  0.59331609  0.19488379  1
  Nb  Nb128  1  0.19668430  0.39533900  0.59730753  1
  Nb  Nb129  1  0.60182318  0.21010936  -0.00141581  1
  Nb  Nb130  1  0.00405286  0.39372931  0.59824727  1
  Nb  Nb131  1  0.80536761  0.80379522  0.00345220  1
  Nb  Nb132  1  0.79746993  0.20514628  0.80165397  1
  Nb  Nb133  1  -0.00386778  0.39924666  0.20784226  1
  Nb  Nb134  1  0.79675610  0.39704171  0.79684721  1
  Nb  Nb135  1  0.80144037  -0.00301929  0.00069959  1
  Nb  Nb136  1  0.59691506  0.00224593  0.19642825  1
  Nb  Nb137  1  0.80037077  0.80638876  0.40870547  1
  Nb  Nb138  1  0.59951374  0.40219751  0.80969600  1
  Nb  Nb139  1  0.40698737  0.59838203  0.19988383  1
  Nb  Nb140  1  0.19380104  0.39978454  0.40673657  1
  Nb  Nb141  1  0.59238720  0.59493691  0.80492115  1
  Nb  Nb142  1  0.40229395  -0.00929680  0.40938365  1
  Nb  Nb143  1  0.20404992  0.19946215  -0.01107660  1
  Nb  Nb144  1  0.20232934  0.60101176  0.80039153  1
  Nb  Nb145  1  0.80321519  0.40360490  0.19634970  1
  Nb  Nb146  1  0.79685896  -0.00115122  0.40642685  1
  Nb  Nb147  1  -0.01112761  0.79907188  0.00465402  1
  Nb  Nb148  1  0.19643458  -0.00069982  0.20763478  1
  Nb  Nb149  1  0.38929154  0.39750110  0.60162316  1
  Pd  Pd150  1  0.19161255  0.20092626  0.59678419  1
  Pd  Pd151  1  0.79302413  0.60854347  0.00845873  1
  Pd  Pd152  1  0.60346603  0.80789596  0.39110629  1
  Pd  Pd153  1  -0.00627482  -0.01263447  0.00288807  1
  Pd  Pd154  1  0.79736646  0.80907224  0.60011500  1
  Pd  Pd155  1  0.40167733  0.19773339  0.19902623  1
  Pd  Pd156  1  0.60712578  0.79690037  -0.00630267  1
  Pd  Pd157  1  0.20884597  0.00564126  0.00557582  1
  Pd  Pd158  1  -0.00294519  0.20829210  0.20618974  1
  Pd  Pd159  1  0.19014375  0.39489433  0.21377343  1
  Pd  Pd160  1  0.20629557  -0.00231779  0.79211460  1
  Pd  Pd161  1  0.79534119  -0.00727276  0.59941437  1
  Pd  Pd162  1  0.01280216  0.60763920  0.80914516  1
  Pd  Pd163  1  0.00333850  0.80780555  0.59589643  1
  Pd  Pd164  1  0.80634683  0.59299719  0.60340917  1
  Pd  Pd165  1  0.40224687  0.40593496  0.20218303  1
  Pd  Pd166  1  0.60646275  0.39506232  0.40632501  1
  Pd  Pd167  1  0.60075526  0.80426065  0.20741119  1
  Pd  Pd168  1  0.60546270  0.60513022  -0.00492583  1
  Pd  Pd169  1  -0.00648483  0.00792093  0.40638690  1
  Pd  Pd170  1  0.80962077  0.39898293  0.00347188  1
  Pd  Pd171  1  0.78653445  0.58745306  0.79372994  1
  Pd  Pd172  1  -0.00517302  0.59077701  0.20358757  1
  Pd  Pd173  1  0.19507515  0.19289235  0.80074421  1
  Pd  Pd174  1  0.59732097  -0.01207802  0.38762095  1
  Pd  Pd175  1  0.40475075  0.20309253  0.59734152  1
  Pd  Pd176  1  0.38979503  0.39479278  0.40951756  1
  Pd  Pd177  1  0.59913528  0.19844117  0.59249484  1
  Pd  Pd178  1  0.01023618  0.00004203  0.20062143  1
  Pd  Pd179  1  0.19263000  0.60001243  0.60668990  1
  Pd  Pd180  1  0.80734290  0.20843666  0.20375950  1
  Pd  Pd181  1  0.39608202  0.60168019  0.00626483  1
  Pd  Pd182  1  0.00977239  0.19987483  0.59728633  1
  Pd  Pd183  1  0.01257253  0.20322182  -0.00780607  1
  Pd  Pd184  1  -0.00560319  0.39962683  0.79417976  1
  Pd  Pd185  1  0.19656000  0.80085539  0.20592142  1
  Pd  Pd186  1  0.60228050  -0.00567890  0.60663694  1
  Pd  Pd187  1  0.39639281  0.60537702  0.80387560  1
  Pd  Pd188  1  0.00693072  -0.00186183  0.59588969  1
  Pd  Pd189  1  0.00906889  0.60820820  -0.00667492  1
  Pd  Pd190  1  0.20392108  0.39437411  -0.00986877  1
  Pd  Pd191  1  0.39209252  -0.00813807  -0.01424866  1
  Pd  Pd192  1  0.40056838  0.20801994  0.00114751  1
  Pd  Pd193  1  0.00030216  0.19412881  0.79996158  1
  Pd  Pd194  1  0.59733870  0.39883251  -0.00410927  1
  Pd  Pd195  1  0.01354113  0.79625227  0.19720914  1
  Pd  Pd196  1  0.40609786  0.39915723  0.79459351  1
  Pd  Pd197  1  0.60063238  0.59240149  0.20501683  1
  Pd  Pd198  1  0.39449932  0.78903930  0.19963419  1
  Pd  Pd199  1  0.20465008  0.60138667  0.20352985  1
  Rh  Rh200  1  0.40279665  0.39735055  0.00156755  1
  Rh  Rh201  1  0.59475066  0.79631676  0.79678954  1
  Rh  Rh202  1  -0.00049185  0.79735479  0.80394704  1
  Rh  Rh203  1  0.19892219  0.80093654  0.40255129  1
  Rh  Rh204  1  0.00798721  0.40000141  0.40089745  1
  Rh  Rh205  1  0.40081136  0.19568723  0.79100866  1
  Rh  Rh206  1  0.39724184  -0.00211009  0.21473022  1
  Rh  Rh207  1  0.21159618  -0.00058451  0.39621323  1
  Rh  Rh208  1  -0.00060616  0.79836493  0.40455423  1
  Rh  Rh209  1  0.80580989  0.19114788  0.39438220  1
  Rh  Rh210  1  0.19381013  0.80055606  0.00399487  1
  Rh  Rh211  1  0.80232799  0.61371379  0.39681756  1
  Rh  Rh212  1  -0.00338682  0.59996953  0.59978040  1
  Rh  Rh213  1  0.59622483  0.39359148  0.60061224  1
  Rh  Rh214  1  0.20004027  0.41036213  0.79813873  1
  Rh  Rh215  1  0.59540943  0.20246196  0.40578575  1
  Rh  Rh216  1  0.60455304  0.40564223  0.20411775  1
  Rh  Rh217  1  0.80203967  0.80359635  0.79918844  1
  Rh  Rh218  1  0.79372366  0.19334708  -0.00956483  1
  Rh  Rh219  1  0.20358750  0.20287148  0.39853749  1
  Rh  Rh220  1  0.39490794  0.80003068  0.59360518  1
  Rh  Rh221  1  0.19418636  0.00189358  0.59447923  1
  Rh  Rh222  1  0.40510340  0.60265524  0.39937749  1
  Rh  Rh223  1  0.59180899  0.19477813  0.18971947  1
  Rh  Rh224  1  0.40415219  0.18774852  0.40627928  1
  Rh  Rh225  1  0.20001786  0.79265947  0.79161605  1
  Rh  Rh226  1  0.40097243  -0.00209130  0.60076089  1
  Rh  Rh227  1  0.58647909  -0.00582982  0.79100624  1
  Rh  Rh228  1  -0.00041059  0.60862442  0.40135509  1
  Rh  Rh229  1  0.79577898  0.19953099  0.60765718  1
  Rh  Rh230  1  0.39819910  0.80416858  -0.00108413  1
  Rh  Rh231  1  0.39986100  0.80331296  0.40565501  1
  Rh  Rh232  1  0.79034964  0.78296166  0.20363971  1
  Rh  Rh233  1  0.79068591  0.01266419  0.20416453  1
  Rh  Rh234  1  0.00391992  0.39477573  0.00496942  1
  Rh  Rh235  1  0.79525212  0.39917116  0.40397280  1
  Rh  Rh236  1  0.40287969  0.60370242  0.59422077  1
  Rh  Rh237  1  0.20104218  0.59676077  -0.00842467  1
  Rh  Rh238  1  0.59463354  0.61242881  0.60471490  1
  Rh  Rh239  1  0.00446622  0.00094041  0.79236365  1
  Rh  Rh240  1  0.19677007  0.80299829  0.59516447  1
  Rh  Rh241  1  0.19295399  0.59733192  0.39904390  1
  Rh  Rh242  1  -0.00347098  0.19527225  0.39698726  1
  Rh  Rh243  1  0.80048445  0.00536344  0.80121869  1
  Rh  Rh244  1  0.39673347  0.81290118  0.80059027  1
  Rh  Rh245  1  0.20700291  0.19233540  0.19594108  1
  Rh  Rh246  1  0.60019153  0.80378171  0.60567983  1
  Rh  Rh247  1  0.59596286  0.60031974  0.40260224  1
  Rh  Rh248  1  0.60470581  0.20745938  0.80712648  1
  Rh  Rh249  1  0.60772588  0.01043440  0.00468294  1
