# generated using pymatgen
data_ZrScNbPdRh
_symmetry_space_group_name_H-M   'P 1'
_cell_length_a   16.56053449
_cell_length_b   16.56142226
_cell_length_c   16.55796375
_cell_angle_alpha   89.97201817
_cell_angle_beta   89.97308365
_cell_angle_gamma   89.99021422
_symmetry_Int_Tables_number   1
_chemical_formula_structural   ZrScNbPdRh
_chemical_formula_sum   'Zr50 Sc50 Nb50 Pd50 Rh50'
_cell_volume   4541.28545178
_cell_formula_units_Z   50
loop_
 _symmetry_equiv_pos_site_id
 _symmetry_equiv_pos_as_xyz
  1  'x, y, z'
loop_
 _atom_site_type_symbol
 _atom_site_label
 _atom_site_symmetry_multiplicity
 _atom_site_fract_x
 _atom_site_fract_y
 _atom_site_fract_z
 _atom_site_occupancy
  Zr  Zr0  1  0.30040612  0.10700153  0.09915984  1
  Zr  Zr1  1  0.88986500  0.69692913  0.70057262  1
  Zr  Zr2  1  0.89712563  0.09655609  0.10445250  1
  Zr  Zr3  1  0.49916735  0.50115639  0.70372048  1
  Zr  Zr4  1  0.89913306  0.50162393  0.88230341  1
  Zr  Zr5  1  0.49843051  0.10006618  0.10737901  1
  Zr  Zr6  1  0.89394352  0.89658034  0.30282375  1
  Zr  Zr7  1  0.30567498  0.50842712  0.30660085  1
  Zr  Zr8  1  0.29602297  0.10035224  0.49664089  1
  Zr  Zr9  1  0.70025967  0.70195138  0.89675900  1
  Zr  Zr10  1  0.88614367  0.69751996  0.49687519  1
  Zr  Zr11  1  0.89189637  0.09875359  0.69074450  1
  Zr  Zr12  1  0.29253254  0.69032527  0.50234310  1
  Zr  Zr13  1  0.10112542  0.90383862  0.50315592  1
  Zr  Zr14  1  0.50954735  0.30062491  0.89650669  1
  Zr  Zr15  1  0.29982599  0.50340442  0.69391067  1
  Zr  Zr16  1  0.29622482  0.09470170  0.90201645  1
  Zr  Zr17  1  0.49793595  0.89795228  0.10660336  1
  Zr  Zr18  1  0.89798722  0.30457614  0.70047148  1
  Zr  Zr19  1  0.49386567  0.89380585  0.90187090  1
  Zr  Zr20  1  0.09855440  0.10918655  0.09743847  1
  Zr  Zr21  1  0.70466923  0.09767514  0.30311334  1
  Zr  Zr22  1  0.68578680  0.69733806  0.69393565  1
  Zr  Zr23  1  0.49866337  0.09100681  0.49913134  1
  Zr  Zr24  1  0.69552661  0.50092912  0.09847339  1
  Zr  Zr25  1  0.10144752  0.49685552  0.10133196  1
  Zr  Zr26  1  0.29335841  0.49883284  0.10031369  1
  Zr  Zr27  1  0.49953159  0.89808869  0.49412414  1
  Zr  Zr28  1  0.49958935  0.49942657  0.48546619  1
  Zr  Zr29  1  0.29454167  0.49870752  0.88647755  1
  Zr  Zr30  1  0.30970391  0.29420604  0.90154883  1
  Zr  Zr31  1  0.30336599  0.89691902  0.89456289  1
  Zr  Zr32  1  0.89554971  0.29922579  0.49530447  1
  Zr  Zr33  1  0.10025471  0.50179365  0.89789743  1
  Zr  Zr34  1  0.50086628  0.30299079  0.70190272  1
  Zr  Zr35  1  0.30060332  0.31558517  0.69860046  1
  Zr  Zr36  1  0.90900597  0.09976972  0.49962510  1
  Zr  Zr37  1  0.90082212  0.10883085  0.30112860  1
  Zr  Zr38  1  0.09836014  0.69665147  0.09931191  1
  Zr  Zr39  1  0.29476425  0.29319340  0.10695662  1
  Zr  Zr40  1  0.09774684  0.69817378  0.89458816  1
  Zr  Zr41  1  0.89557589  0.49959360  0.49035648  1
  Zr  Zr42  1  0.89562891  0.70378743  0.90170076  1
  Zr  Zr43  1  0.91180453  0.29485664  0.10599016  1
  Zr  Zr44  1  0.10893274  0.29365552  0.50115728  1
  Zr  Zr45  1  0.50784343  0.50278771  0.10411443  1
  Zr  Zr46  1  0.90814448  0.30781443  0.30196649  1
  Zr  Zr47  1  0.69295798  0.49295899  0.90398424  1
  Zr  Zr48  1  0.89995114  0.30571766  0.89736612  1
  Zr  Zr49  1  0.30542685  0.30239872  0.49937913  1
  Sc  Sc50  1  0.30421114  0.10726990  0.30073695  1
  Sc  Sc51  1  0.31199096  0.89977449  0.09347455  1
  Sc  Sc52  1  0.10721900  0.50931325  0.49546799  1
  Sc  Sc53  1  0.70309503  0.29737619  0.30679641  1
  Sc  Sc54  1  0.70227549  0.10169646  0.50409227  1
  Sc  Sc55  1  0.10263943  0.90113761  0.89868033  1
  Sc  Sc56  1  0.09304170  0.29908542  0.90658038  1
  Sc  Sc57  1  0.10092895  0.09818588  0.90352791  1
  Sc  Sc58  1  0.30023544  0.90818414  0.50429314  1
  Sc  Sc59  1  0.30499227  0.69603879  0.10549223  1
  Sc  Sc60  1  0.10290805  0.10284003  0.31250135  1
  Sc  Sc61  1  0.69618839  0.30928879  0.09851999  1
  Sc  Sc62  1  0.49926890  0.69882599  0.88333665  1
  Sc  Sc63  1  0.50331424  0.09386476  0.30223106  1
  Sc  Sc64  1  0.30222097  0.49665080  0.50429832  1
  Sc  Sc65  1  0.49792789  0.89945456  0.69329276  1
  Sc  Sc66  1  0.69076455  0.10019714  0.89793535  1
  Sc  Sc67  1  0.10270636  0.30275109  0.10628899  1
  Sc  Sc68  1  0.09161906  0.50608351  0.29826210  1
  Sc  Sc69  1  0.70438869  0.69336176  0.10184150  1
  Sc  Sc70  1  0.70278386  0.09797236  0.10631593  1
  Sc  Sc71  1  0.90535922  0.10024723  0.90912058  1
  Sc  Sc72  1  0.89512836  0.89701393  0.09135729  1
  Sc  Sc73  1  0.69824038  0.49747025  0.29454048  1
  Sc  Sc74  1  0.10107821  0.10176846  0.69708974  1
  Sc  Sc75  1  0.10633364  0.90079133  0.69553396  1
  Sc  Sc76  1  0.30411252  0.90352759  0.30765690  1
  Sc  Sc77  1  0.69692891  0.89949299  0.69778310  1
  Sc  Sc78  1  0.69718867  0.50030726  0.49333174  1
  Sc  Sc79  1  0.71287643  0.90132636  0.10811438  1
  Sc  Sc80  1  0.49761180  0.10792570  0.89350851  1
  Sc  Sc81  1  0.30048611  0.89778371  0.70040629  1
  Sc  Sc82  1  0.30084461  0.08644625  0.70205531  1
  Sc  Sc83  1  0.69966031  0.49626818  0.69946815  1
  Sc  Sc84  1  0.69025828  0.09871752  0.69669845  1
  Sc  Sc85  1  0.10846189  0.50218734  0.70634501  1
  Sc  Sc86  1  0.69821253  0.30856211  0.49633685  1
  Sc  Sc87  1  0.09279629  0.89514136  0.09072644  1
  Sc  Sc88  1  0.49986919  0.29126347  0.09961833  1
  Sc  Sc89  1  0.69966361  0.90045864  0.30487936  1
  Sc  Sc90  1  0.49394305  0.69721001  0.10373665  1
  Sc  Sc91  1  0.50011709  0.29829629  0.30642050  1
  Sc  Sc92  1  0.69232635  0.89121954  0.49604215  1
  Sc  Sc93  1  0.10697260  0.70128510  0.69501740  1
  Sc  Sc94  1  0.69278195  0.30407803  0.69780250  1
  Sc  Sc95  1  0.50435908  0.30856376  0.49801213  1
  Sc  Sc96  1  0.10342453  0.90547686  0.31598035  1
  Sc  Sc97  1  0.89558727  0.70383268  0.10074596  1
  Sc  Sc98  1  0.10402608  0.30151095  0.69781169  1
  Sc  Sc99  1  0.89608368  0.49817079  0.11275679  1
  Nb  Nb100  1  0.71371330  0.71339722  0.31173834  1
  Nb  Nb101  1  0.89092235  0.89687750  0.90213997  1
  Nb  Nb102  1  0.50121070  0.49827632  0.90241098  1
  Nb  Nb103  1  0.51038805  0.70170675  0.50040773  1
  Nb  Nb104  1  0.50365252  0.89571741  0.30522687  1
  Nb  Nb105  1  0.10617275  0.09581417  0.49814227  1
  Nb  Nb106  1  0.89990090  0.69754711  0.30561611  1
  Nb  Nb107  1  0.30076510  0.70006091  0.30265573  1
  Nb  Nb108  1  0.29731750  0.30096666  0.29709985  1
  Nb  Nb109  1  0.49542849  0.69873867  0.69394717  1
  Nb  Nb110  1  0.10065384  0.70159711  0.30948010  1
  Nb  Nb111  1  0.90138198  0.90310592  0.50925305  1
  Nb  Nb112  1  0.10841770  0.30243069  0.29298150  1
  Nb  Nb113  1  0.50279078  0.10381679  0.69434493  1
  Nb  Nb114  1  0.70277649  0.90068903  0.90805588  1
  Nb  Nb115  1  0.70335750  0.30128838  0.89823992  1
  Nb  Nb116  1  0.49412298  0.50457569  0.29746733  1
  Nb  Nb117  1  0.30447708  0.70223887  0.89413506  1
  Nb  Nb118  1  0.90378557  0.50179889  0.69506693  1
  Nb  Nb119  1  0.49095051  0.69123451  0.30102816  1
  Nb  Nb120  1  0.09740380  0.70061002  0.49695506  1
  Nb  Nb121  1  0.89646437  0.90036066  0.69434508  1
  Nb  Nb122  1  0.69128335  0.70022371  0.49329278  1
  Nb  Nb123  1  0.31023838  0.69423895  0.70517705  1
  Nb  Nb124  1  0.90035840  0.50592361  0.30792263  1
  Nb  Nb125  1  -0.00507478  0.59921191  0.59860534  1
  Nb  Nb126  1  0.40217953  0.40442114  0.00230923  1
  Nb  Nb127  1  0.20660391  0.79377660  -0.00086752  1
  Nb  Nb128  1  -0.00187316  0.59691216  -0.00344753  1
  Nb  Nb129  1  0.20572883  0.20046884  0.80238941  1
  Nb  Nb130  1  -0.00213971  0.40760308  0.59645282  1
  Nb  Nb131  1  0.80323539  -0.00199021  0.80298550  1
  Nb  Nb132  1  0.19579881  -0.00387930  0.19758542  1
  Nb  Nb133  1  0.60010789  0.80383801  0.00417641  1
  Nb  Nb134  1  0.59713179  0.79558948  0.20770985  1
  Nb  Nb135  1  0.79859121  0.20656112  -0.00447274  1
  Nb  Nb136  1  0.39852526  0.40193081  0.20118187  1
  Nb  Nb137  1  0.40447821  0.79075691  0.40047331  1
  Nb  Nb138  1  0.79898280  0.19950693  0.80314363  1
  Nb  Nb139  1  0.39855039  0.59409909  -0.00920489  1
  Nb  Nb140  1  -0.00349170  0.79602756  0.40607431  1
  Nb  Nb141  1  0.00370612  -0.00397079  0.20394232  1
  Nb  Nb142  1  0.59890308  -0.00730001  0.00160655  1
  Nb  Nb143  1  -0.01174968  -0.00809054  0.79720601  1
  Nb  Nb144  1  0.40422987  0.19644562  0.60259716  1
  Nb  Nb145  1  0.80768305  -0.00086343  0.40856099  1
  Nb  Nb146  1  0.19729454  0.80146938  0.20307838  1
  Nb  Nb147  1  0.20264606  0.39575290  0.39316598  1
  Nb  Nb148  1  0.00422802  0.79839441  0.21243048  1
  Nb  Nb149  1  -0.01081417  0.80689522  0.79621745  1
  Pd  Pd150  1  0.39616489  0.80205360  0.20949569  1
  Pd  Pd151  1  0.60033673  0.19702666  0.40527081  1
  Pd  Pd152  1  0.00768816  0.20547765  0.39873842  1
  Pd  Pd153  1  -0.00497542  0.60546004  0.19731472  1
  Pd  Pd154  1  0.01363360  0.39998731  0.40477440  1
  Pd  Pd155  1  0.80785982  0.59207005  -0.00087306  1
  Pd  Pd156  1  0.59674555  0.80579446  0.79948186  1
  Pd  Pd157  1  0.79358095  0.59500144  0.59666841  1
  Pd  Pd158  1  0.79831871  0.60284905  0.20841002  1
  Pd  Pd159  1  0.60555308  0.60157182  0.38776290  1
  Pd  Pd160  1  0.59304415  0.39177497  0.20585696  1
  Pd  Pd161  1  0.59144946  0.61404974  -0.00550027  1
  Pd  Pd162  1  0.20509106  0.80239580  0.40057371  1
  Pd  Pd163  1  0.60303930  -0.00710418  0.59516405  1
  Pd  Pd164  1  0.60700016  0.19330281  0.00312313  1
  Pd  Pd165  1  0.60837963  0.61195606  0.21103367  1
  Pd  Pd166  1  0.00291572  0.20576039  0.59969312  1
  Pd  Pd167  1  0.40544769  0.20078050  0.40368174  1
  Pd  Pd168  1  0.19838248  0.60389026  0.20897274  1
  Pd  Pd169  1  -0.00111538  0.79178879  0.60109241  1
  Pd  Pd170  1  0.60530807  -0.00849460  0.19931821  1
  Pd  Pd171  1  0.40739282  0.59841802  0.59263797  1
  Pd  Pd172  1  0.00827438  0.00289325  0.60617697  1
  Pd  Pd173  1  0.60300795  0.20453031  0.20531178  1
  Pd  Pd174  1  0.19710109  0.79801726  0.80042960  1
  Pd  Pd175  1  0.40814789  0.00924807  -0.00251664  1
  Pd  Pd176  1  0.78811194  0.80126015  0.59670096  1
  Pd  Pd177  1  -0.00162918  -0.00428942  -0.00009983  1
  Pd  Pd178  1  0.80097666  0.39644789  0.20467699  1
  Pd  Pd179  1  0.78746462  0.59554836  0.79711220  1
  Pd  Pd180  1  -0.00733300  0.40965528  0.00459877  1
  Pd  Pd181  1  0.40894694  -0.00086446  0.79503438  1
  Pd  Pd182  1  0.20083564  -0.01124105  0.00734218  1
  Pd  Pd183  1  0.59597883  0.20549173  0.59302777  1
  Pd  Pd184  1  0.20864742  0.79797724  0.60000020  1
  Pd  Pd185  1  0.21224855  0.19435264  0.61121543  1
  Pd  Pd186  1  0.79368793  0.21024723  0.19383994  1
  Pd  Pd187  1  0.00044485  0.19045889  0.80018197  1
  Pd  Pd188  1  0.00876035  0.39914060  0.79048458  1
  Pd  Pd189  1  0.20445595  0.39105431  -0.00574930  1
  Pd  Pd190  1  0.20328673  0.60706892  -0.00585541  1
  Pd  Pd191  1  0.39583171  0.79836833  0.59370433  1
  Pd  Pd192  1  0.59719907  0.59119390  0.59648639  1
  Pd  Pd193  1  0.79982483  0.40315634  0.59880529  1
  Pd  Pd194  1  0.39411603  0.19538459  0.78870737  1
  Pd  Pd195  1  0.79586316  0.80576535  0.79449743  1
  Pd  Pd196  1  0.79071226  0.20591411  0.60215936  1
  Pd  Pd197  1  0.80774676  0.40048963  0.00457776  1
  Pd  Pd198  1  0.59982374  -0.00391625  0.80390942  1
  Pd  Pd199  1  0.39246715  0.00066419  0.20844953  1
  Rh  Rh200  1  0.20040388  0.20474986  0.39527159  1
  Rh  Rh201  1  0.60202969  0.40229407  0.79920580  1
  Rh  Rh202  1  0.19570127  0.60124977  0.60414914  1
  Rh  Rh203  1  0.19690167  0.20539788  -0.00743228  1
  Rh  Rh204  1  0.00968039  0.19482161  0.20703798  1
  Rh  Rh205  1  0.59722668  0.40658959  0.59664779  1
  Rh  Rh206  1  0.60021279  0.40402644  0.39165375  1
  Rh  Rh207  1  0.40141443  0.00386699  0.60180739  1
  Rh  Rh208  1  -0.00234989  0.60681135  0.40666839  1
  Rh  Rh209  1  0.20351919  0.60756976  0.79256860  1
  Rh  Rh210  1  0.40068641  -0.00511086  0.39703515  1
  Rh  Rh211  1  0.59432446  0.39502549  0.00189918  1
  Rh  Rh212  1  0.80873953  0.00063471  0.21062010  1
  Rh  Rh213  1  0.40186304  0.59638125  0.80117495  1
  Rh  Rh214  1  -0.00020968  0.60983957  0.79334782  1
  Rh  Rh215  1  0.40138063  0.78372801  -0.00375445  1
  Rh  Rh216  1  0.20635145  0.00460346  0.39579028  1
  Rh  Rh217  1  0.19551650  0.18882428  0.20626108  1
  Rh  Rh218  1  0.40632341  0.20587050  0.20561072  1
  Rh  Rh219  1  0.80500613  0.80971077  0.41154532  1
  Rh  Rh220  1  0.00411764  0.79284458  -0.00638364  1
  Rh  Rh221  1  0.39601035  0.39819596  0.39185232  1
  Rh  Rh222  1  0.19339136  0.38642175  0.80739507  1
  Rh  Rh223  1  0.18832130  0.00596285  0.79961023  1
  Rh  Rh224  1  0.20331231  0.40959918  0.21036524  1
  Rh  Rh225  1  0.40384439  0.19996320  0.00233985  1
  Rh  Rh226  1  0.78918758  0.79560448  0.00614943  1
  Rh  Rh227  1  0.60861100  0.00312181  0.40040148  1
  Rh  Rh228  1  0.80023380  0.79485195  0.19852602  1
  Rh  Rh229  1  0.19061626  0.40799956  0.58929629  1
  Rh  Rh230  1  0.79802658  0.19557099  0.40637839  1
  Rh  Rh231  1  0.00063986  0.40529462  0.20474630  1
  Rh  Rh232  1  0.78983179  0.59497422  0.39319743  1
  Rh  Rh233  1  -0.00587700  -0.00694247  0.40103589  1
  Rh  Rh234  1  0.40222132  0.80053741  0.78829514  1
  Rh  Rh235  1  0.79432863  0.39805705  0.79436416  1
  Rh  Rh236  1  0.79733140  0.40283920  0.39173697  1
  Rh  Rh237  1  0.19869533  0.00185334  0.60063394  1
  Rh  Rh238  1  0.79102268  0.01311294  -0.00717533  1
  Rh  Rh239  1  0.40998818  0.40010158  0.59744388  1
  Rh  Rh240  1  0.60764856  0.20119309  0.79628831  1
  Rh  Rh241  1  0.79200263  -0.00455604  0.59628582  1
  Rh  Rh242  1  0.40507420  0.40545382  0.80473359  1
  Rh  Rh243  1  -0.00318992  0.20202934  0.00166191  1
  Rh  Rh244  1  0.39988533  0.60703237  0.40913832  1
  Rh  Rh245  1  0.59713177  0.79999743  0.60207475  1
  Rh  Rh246  1  0.39663691  0.59238922  0.19290988  1
  Rh  Rh247  1  0.20059709  0.59573585  0.39738313  1
  Rh  Rh248  1  0.60039553  0.59660844  0.79964984  1
  Rh  Rh249  1  0.59205878  0.78983653  0.39060417  1
