# generated using pymatgen
data_ZrScNbPdRh
_symmetry_space_group_name_H-M   'P 1'
_cell_length_a   16.56402940
_cell_length_b   16.56928450
_cell_length_c   16.56331552
_cell_angle_alpha   89.97809716
_cell_angle_beta   89.98970294
_cell_angle_gamma   90.00720143
_symmetry_Int_Tables_number   1
_chemical_formula_structural   ZrScNbPdRh
_chemical_formula_sum   'Zr50 Sc50 Nb50 Pd50 Rh50'
_cell_volume   4545.86967274
_cell_formula_units_Z   50
loop_
 _symmetry_equiv_pos_site_id
 _symmetry_equiv_pos_as_xyz
  1  'x, y, z'
loop_
 _atom_site_type_symbol
 _atom_site_label
 _atom_site_symmetry_multiplicity
 _atom_site_fract_x
 _atom_site_fract_y
 _atom_site_fract_z
 _atom_site_occupancy
  Zr  Zr0  1  0.49372806  0.49755067  0.08981473  1
  Zr  Zr1  1  0.09993205  0.69876536  0.09215777  1
  Zr  Zr2  1  0.71120289  0.10081371  0.30004209  1
  Zr  Zr3  1  0.50188029  0.90550158  0.89987772  1
  Zr  Zr4  1  0.90097337  0.29759989  0.70316193  1
  Zr  Zr5  1  0.29986953  0.29088028  0.29747357  1
  Zr  Zr6  1  0.29605061  0.29295213  0.69435407  1
  Zr  Zr7  1  0.29542347  0.49966832  0.51039954  1
  Zr  Zr8  1  0.09938080  0.10269867  0.29859729  1
  Zr  Zr9  1  0.49935379  0.30156461  0.30436486  1
  Zr  Zr10  1  0.49955619  0.50608444  0.89510974  1
  Zr  Zr11  1  0.50004210  0.69800188  0.49423672  1
  Zr  Zr12  1  0.10174233  0.70548359  0.70353774  1
  Zr  Zr13  1  0.49948584  0.89197390  0.29715830  1
  Zr  Zr14  1  0.90517365  0.70606071  0.69802410  1
  Zr  Zr15  1  0.50427483  0.89618923  0.49653422  1
  Zr  Zr16  1  0.70250972  0.49778520  0.90044456  1
  Zr  Zr17  1  0.29113339  0.10447222  0.10913822  1
  Zr  Zr18  1  0.49989883  0.28931295  0.69199473  1
  Zr  Zr19  1  0.89990719  0.30676137  0.29811147  1
  Zr  Zr20  1  0.29027596  0.09553068  0.30055014  1
  Zr  Zr21  1  0.09240598  0.10726172  0.90268476  1
  Zr  Zr22  1  0.09668752  0.10361508  0.10524774  1
  Zr  Zr23  1  0.70340074  0.70145829  0.49839994  1
  Zr  Zr24  1  0.90460847  0.49277434  0.90246430  1
  Zr  Zr25  1  0.51098748  0.90021014  0.09646617  1
  Zr  Zr26  1  0.08808134  0.09187238  0.49627261  1
  Zr  Zr27  1  0.89457791  0.89631701  0.69911991  1
  Zr  Zr28  1  0.70019149  0.89805998  0.28732319  1
  Zr  Zr29  1  0.50242344  0.90911101  0.70910535  1
  Zr  Zr30  1  0.49777219  0.30246523  0.09668570  1
  Zr  Zr31  1  0.50037910  0.30087962  0.90379291  1
  Zr  Zr32  1  0.70273799  0.30785143  0.69581206  1
  Zr  Zr33  1  0.09599501  0.30755940  0.30362838  1
  Zr  Zr34  1  0.70406989  0.09476653  0.10429648  1
  Zr  Zr35  1  0.10052860  0.90997282  0.30257453  1
  Zr  Zr36  1  0.30243818  0.29842903  0.50442122  1
  Zr  Zr37  1  0.89597408  0.10429556  0.89464204  1
  Zr  Zr38  1  0.90056478  0.49878751  0.70120922  1
  Zr  Zr39  1  0.29556564  0.50931260  0.09497678  1
  Zr  Zr40  1  0.70590235  0.49719931  0.50973605  1
  Zr  Zr41  1  0.89620952  0.29534966  0.50243636  1
  Zr  Zr42  1  0.70237292  0.30148260  0.89191665  1
  Zr  Zr43  1  0.49695411  0.49907671  0.29826946  1
  Zr  Zr44  1  0.09955760  0.30386309  0.90049762  1
  Zr  Zr45  1  0.90392870  0.10642238  0.10547915  1
  Zr  Zr46  1  0.10664172  0.29779459  0.49876033  1
  Zr  Zr47  1  0.70460244  0.29740692  0.31102083  1
  Zr  Zr48  1  0.09001796  0.90422087  0.09859275  1
  Zr  Zr49  1  0.71229259  0.70992808  0.09305549  1
  Sc  Sc50  1  0.49659789  0.09779779  0.89060152  1
  Sc  Sc51  1  0.71334070  0.70412484  0.70906383  1
  Sc  Sc52  1  0.28883248  0.49717614  0.29328639  1
  Sc  Sc53  1  0.29240485  0.68934273  0.70072667  1
  Sc  Sc54  1  0.51044960  0.10665972  0.50759773  1
  Sc  Sc55  1  0.69577127  0.88791545  0.89949085  1
  Sc  Sc56  1  0.70090039  0.09605645  0.69962776  1
  Sc  Sc57  1  0.30465032  0.10633670  0.89275324  1
  Sc  Sc58  1  0.29038708  0.89258832  0.69950124  1
  Sc  Sc59  1  0.50381325  0.09964700  0.08910530  1
  Sc  Sc60  1  0.70891291  0.30595450  0.08881680  1
  Sc  Sc61  1  0.89797204  0.50730954  0.49881460  1
  Sc  Sc62  1  0.49468266  0.68553484  0.70762962  1
  Sc  Sc63  1  0.70152137  0.90189047  0.70600916  1
  Sc  Sc64  1  0.89412162  0.70787064  0.50633901  1
  Sc  Sc65  1  0.89980027  0.70115791  0.29650223  1
  Sc  Sc66  1  0.71057384  0.49353267  0.31209321  1
  Sc  Sc67  1  0.70080796  0.29984217  0.50276659  1
  Sc  Sc68  1  0.08808731  0.68866587  0.29507052  1
  Sc  Sc69  1  0.29283884  0.69754634  0.50688601  1
  Sc  Sc70  1  0.49093312  0.70338565  0.10277114  1
  Sc  Sc71  1  0.70104831  0.10662503  0.89604924  1
  Sc  Sc72  1  0.30489023  0.69866217  0.29169267  1
  Sc  Sc73  1  0.09512234  0.69547909  0.50484551  1
  Sc  Sc74  1  0.10408300  0.50398047  0.70165810  1
  Sc  Sc75  1  0.29579342  0.30528528  0.09514965  1
  Sc  Sc76  1  0.09806501  0.29259342  0.70518920  1
  Sc  Sc77  1  0.90316170  0.30089815  0.89512143  1
  Sc  Sc78  1  0.50546761  0.29876588  0.49959968  1
  Sc  Sc79  1  0.30155997  0.10883087  0.70309850  1
  Sc  Sc80  1  0.30272078  0.50523823  0.91045914  1
  Sc  Sc81  1  0.09079313  0.88621248  0.69726614  1
  Sc  Sc82  1  0.10169543  0.49871202  0.90835972  1
  Sc  Sc83  1  0.90439229  0.89382909  0.30138401  1
  Sc  Sc84  1  0.50355018  0.69800024  0.89960340  1
  Sc  Sc85  1  0.70196577  0.70204860  0.30424467  1
  Sc  Sc86  1  0.29663685  0.90083489  0.29754278  1
  Sc  Sc87  1  0.89227651  0.70754316  0.90653678  1
  Sc  Sc88  1  0.30477309  0.90319511  0.90178670  1
  Sc  Sc89  1  0.09750654  0.50090816  0.09994033  1
  Sc  Sc90  1  0.49940700  0.50422936  0.70011879  1
  Sc  Sc91  1  0.50377295  0.70443371  0.30158021  1
  Sc  Sc92  1  0.29211758  0.89487808  0.49905945  1
  Sc  Sc93  1  0.50445942  0.10928576  0.30585831  1
  Sc  Sc94  1  0.28811993  0.10785028  0.49878239  1
  Sc  Sc95  1  0.70270417  0.50133420  0.70538712  1
  Sc  Sc96  1  0.90841157  0.69946969  0.10244059  1
  Sc  Sc97  1  0.30848105  0.89383057  0.09493648  1
  Sc  Sc98  1  0.90189754  0.88851949  0.10146754  1
  Sc  Sc99  1  0.49991483  0.49394430  0.50414273  1
  Nb  Nb100  1  0.90444748  0.31099334  0.10373916  1
  Nb  Nb101  1  0.90488651  0.09691374  0.69375357  1
  Nb  Nb102  1  0.08736711  0.49968387  0.31341971  1
  Nb  Nb103  1  0.89350032  0.48928823  0.10191371  1
  Nb  Nb104  1  0.09872981  0.49466215  0.48754168  1
  Nb  Nb105  1  0.90688420  0.90998479  0.50491946  1
  Nb  Nb106  1  0.89849903  0.10924380  0.30361017  1
  Nb  Nb107  1  0.49470701  0.09473069  0.70147157  1
  Nb  Nb108  1  0.09965294  0.70702612  0.89716003  1
  Nb  Nb109  1  0.09836931  0.29647231  0.09641060  1
  Nb  Nb110  1  0.29928472  0.30165381  0.89444113  1
  Nb  Nb111  1  0.09145111  0.90106963  0.90129656  1
  Nb  Nb112  1  0.70761067  0.90309251  0.50361476  1
  Nb  Nb113  1  0.09418190  0.90204362  0.49570921  1
  Nb  Nb114  1  0.30585928  0.50003516  0.70321332  1
  Nb  Nb115  1  0.90901554  0.49712093  0.29498276  1
  Nb  Nb116  1  0.69860537  0.69793930  0.90228574  1
  Nb  Nb117  1  0.89485366  0.08935060  0.50381000  1
  Nb  Nb118  1  0.90587490  0.90374226  0.90348628  1
  Nb  Nb119  1  0.70977300  0.09234441  0.49406213  1
  Nb  Nb120  1  0.09716297  0.09820157  0.70061407  1
  Nb  Nb121  1  0.70223635  0.90155990  0.09660781  1
  Nb  Nb122  1  0.70424050  0.49544847  0.09681887  1
  Nb  Nb123  1  0.29556064  0.69976218  0.90841899  1
  Nb  Nb124  1  0.29557317  0.69989905  0.09550895  1
  Nb  Nb125  1  0.20935003  0.40012011  0.79980884  1
  Nb  Nb126  1  0.80121341  0.58891513  0.19595705  1
  Nb  Nb127  1  0.40664400  0.80118861  0.60560320  1
  Nb  Nb128  1  0.39698916  -0.00163405  0.59855100  1
  Nb  Nb129  1  0.60694085  -0.00211030  0.40175978  1
  Nb  Nb130  1  0.19192272  -0.00010604  0.60387201  1
  Nb  Nb131  1  0.60857792  0.60041257  0.00448330  1
  Nb  Nb132  1  0.00446950  0.40155032  0.59467625  1
  Nb  Nb133  1  0.19037428  0.79898450  0.39382824  1
  Nb  Nb134  1  0.19631535  0.79707235  0.19636560  1
  Nb  Nb135  1  0.40418589  0.00064992  0.20384661  1
  Nb  Nb136  1  -0.00158184  -0.00058977  0.79781208  1
  Nb  Nb137  1  0.60945580  0.59151359  0.19260038  1
  Nb  Nb138  1  0.39623377  0.79669458  0.79935313  1
  Nb  Nb139  1  0.19266900  0.00210250  -0.00464622  1
  Nb  Nb140  1  0.00347476  0.60822876  0.80523485  1
  Nb  Nb141  1  0.40375185  -0.00000956  0.40266689  1
  Nb  Nb142  1  0.60448864  0.40146842  0.19793094  1
  Nb  Nb143  1  0.59925038  0.79732509  0.60117996  1
  Nb  Nb144  1  0.60415399  0.20901671  0.19871306  1
  Nb  Nb145  1  0.18828741  -0.00023767  0.80052387  1
  Nb  Nb146  1  0.80217430  -0.00446359  0.00238456  1
  Nb  Nb147  1  0.39644221  0.59573407  0.40106707  1
  Nb  Nb148  1  0.39439048  0.39783727  0.79848513  1
  Nb  Nb149  1  0.60492348  0.60705147  0.59897176  1
  Pd  Pd150  1  0.19840139  0.59301363  0.80927749  1
  Pd  Pd151  1  -0.01118168  0.00016534  0.20683700  1
  Pd  Pd152  1  0.59682510  0.59123323  0.39911275  1
  Pd  Pd153  1  0.60148842  0.40444763  0.40183683  1
  Pd  Pd154  1  0.19157476  0.40196408  0.60827428  1
  Pd  Pd155  1  0.39432696  0.19679732  -0.00072658  1
  Pd  Pd156  1  0.80906822  0.60049230  0.39299576  1
  Pd  Pd157  1  0.61182304  0.00339647  -0.01108017  1
  Pd  Pd158  1  0.00427036  0.59446276  0.60293457  1
  Pd  Pd159  1  0.00326724  0.79462170  0.40307899  1
  Pd  Pd160  1  0.59438053  0.79077385  0.79276617  1
  Pd  Pd161  1  0.40603545  0.40004976  0.60614868  1
  Pd  Pd162  1  0.80021111  -0.00471643  0.80659677  1
  Pd  Pd163  1  0.59219410  0.01134582  0.20679512  1
  Pd  Pd164  1  0.20417533  0.60766344  0.39496187  1
  Pd  Pd165  1  0.80921253  0.60237974  0.80273943  1
  Pd  Pd166  1  0.40073158  0.19137542  0.40904883  1
  Pd  Pd167  1  0.38479455  0.79572439  0.40378632  1
  Pd  Pd168  1  0.20971798  0.39891675  0.39794240  1
  Pd  Pd169  1  0.79764601  0.21295353  0.19428668  1
  Pd  Pd170  1  0.00311432  0.20297676  0.59842777  1
  Pd  Pd171  1  0.80411808  -0.00949819  0.39351036  1
  Pd  Pd172  1  0.20626121  0.80560717  0.80870815  1
  Pd  Pd173  1  -0.01105588  0.60712620  0.40622313  1
  Pd  Pd174  1  0.61162602  0.19492231  0.59943175  1
  Pd  Pd175  1  0.40893261  0.19252280  0.19616985  1
  Pd  Pd176  1  0.39036536  0.00961461  0.00639888  1
  Pd  Pd177  1  0.80453298  0.20098972  0.00256211  1
  Pd  Pd178  1  -0.00404947  0.60081595  -0.00393845  1
  Pd  Pd179  1  0.19272711  0.39999957  0.19605441  1
  Pd  Pd180  1  -0.01003015  0.20948806  0.00178126  1
  Pd  Pd181  1  0.19120034  0.59578773  0.59991029  1
  Pd  Pd182  1  0.59802568  0.19498568  0.79494827  1
  Pd  Pd183  1  0.60067059  -0.00341520  0.59726665  1
  Pd  Pd184  1  0.39025346  0.40508414  0.40087112  1
  Pd  Pd185  1  0.59015607  0.40008606  0.79289327  1
  Pd  Pd186  1  0.80254098  0.80767278  0.39971162  1
  Pd  Pd187  1  0.40423719  0.60109726  0.20273859  1
  Pd  Pd188  1  0.79411028  0.19261587  0.60331743  1
  Pd  Pd189  1  0.19626674  0.81028751  0.00123670  1
  Pd  Pd190  1  0.60363681  0.78619723  0.19313929  1
  Pd  Pd191  1  0.60651968  0.19950744  0.00270173  1
  Pd  Pd192  1  -0.00442816  0.19896979  0.40153368  1
  Pd  Pd193  1  0.20526851  0.19725640  -0.00479054  1
  Pd  Pd194  1  0.80451066  0.59827419  0.00414784  1
  Pd  Pd195  1  0.01061754  0.40355651  0.19477134  1
  Pd  Pd196  1  0.39689380  0.40084698  0.19662361  1
  Pd  Pd197  1  0.19171218  0.60170914  0.20316486  1
  Pd  Pd198  1  0.81375601  -0.00696221  0.19554250  1
  Pd  Pd199  1  0.40665084  0.79478561  -0.00752738  1
  Rh  Rh200  1  0.00849735  0.79922341  0.20184277  1
  Rh  Rh201  1  0.00109916  0.39694584  0.00471072  1
  Rh  Rh202  1  -0.00559268  0.00547841  -0.00326253  1
  Rh  Rh203  1  0.20929165  -0.01528144  0.18316369  1
  Rh  Rh204  1  0.80958588  0.40213679  0.59986436  1
  Rh  Rh205  1  0.00300657  -0.00645649  0.60881008  1
  Rh  Rh206  1  0.61666319  0.81081637  0.40352593  1
  Rh  Rh207  1  0.18950777  0.21278442  0.20271694  1
  Rh  Rh208  1  0.19068198  0.18999671  0.59924379  1
  Rh  Rh209  1  0.61022878  0.19314550  0.40017802  1
  Rh  Rh210  1  0.61033070  0.60293910  0.80074962  1
  Rh  Rh211  1  0.80280045  0.80300260  0.80776070  1
  Rh  Rh212  1  0.39308793  0.39700517  -0.00711194  1
  Rh  Rh213  1  0.80208227  0.39894395  0.80134473  1
  Rh  Rh214  1  0.19549305  0.20178268  0.39692765  1
  Rh  Rh215  1  0.00115541  0.20683465  0.20401505  1
  Rh  Rh216  1  0.60612428  0.00637945  0.80522874  1
  Rh  Rh217  1  0.79636675  0.80711079  0.59900499  1
  Rh  Rh218  1  -0.00412899  0.19401401  0.79562605  1
  Rh  Rh219  1  0.19564392  0.60267397  -0.00347706  1
  Rh  Rh220  1  0.40804413  0.20758507  0.79978882  1
  Rh  Rh221  1  0.80205514  0.81045277  -0.00447127  1
  Rh  Rh222  1  0.59875184  0.40696731  0.60363876  1
  Rh  Rh223  1  0.59741432  0.79290238  0.00297612  1
  Rh  Rh224  1  0.80853665  0.40243542  0.40516810  1
  Rh  Rh225  1  0.60145957  0.40503253  -0.00007624  1
  Rh  Rh226  1  0.39341597  0.80462269  0.19789330  1
  Rh  Rh227  1  0.01149466  0.41040974  0.79277056  1
  Rh  Rh228  1  0.38643867  0.60264738  0.80934330  1
  Rh  Rh229  1  0.19984769  0.39816646  -0.00205553  1
  Rh  Rh230  1  0.38487515  -0.00626107  0.78842574  1
  Rh  Rh231  1  -0.00993150  0.40032335  0.41029545  1
  Rh  Rh232  1  -0.00024056  0.79470504  -0.00357339  1
  Rh  Rh233  1  -0.01310853  0.00522555  0.39256691  1
  Rh  Rh234  1  0.40517849  0.61055884  -0.00160758  1
  Rh  Rh235  1  0.79511474  0.40140373  0.20606014  1
  Rh  Rh236  1  0.40502805  0.60418031  0.59206159  1
  Rh  Rh237  1  0.79989883  0.20126998  0.79010126  1
  Rh  Rh238  1  -0.00538258  0.59158969  0.19601469  1
  Rh  Rh239  1  0.80543777  0.19772407  0.40776772  1
  Rh  Rh240  1  -0.00084137  0.80268788  0.59066724  1
  Rh  Rh241  1  0.40166515  0.19045762  0.59448911  1
  Rh  Rh242  1  0.80647895  0.39297610  -0.00806437  1
  Rh  Rh243  1  0.79481793  0.60335162  0.60546251  1
  Rh  Rh244  1  0.19611088  0.20073314  0.80228717  1
  Rh  Rh245  1  0.80096586  -0.00192251  0.60317426  1
  Rh  Rh246  1  0.20426617  -0.00467594  0.41198099  1
  Rh  Rh247  1  -0.00795207  0.79843797  0.80776789  1
  Rh  Rh248  1  0.80120554  0.79471485  0.20122252  1
  Rh  Rh249  1  0.19364713  0.80372745  0.58935285  1
