# generated using pymatgen
data_ZrScNbPdRh
_symmetry_space_group_name_H-M   'P 1'
_cell_length_a   16.56749861
_cell_length_b   16.56951102
_cell_length_c   16.56912856
_cell_angle_alpha   89.95963104
_cell_angle_beta   90.02971371
_cell_angle_gamma   89.94622631
_symmetry_Int_Tables_number   1
_chemical_formula_structural   ZrScNbPdRh
_chemical_formula_sum   'Zr50 Sc50 Nb50 Pd50 Rh50'
_cell_volume   4548.47639491
_cell_formula_units_Z   50
loop_
 _symmetry_equiv_pos_site_id
 _symmetry_equiv_pos_as_xyz
  1  'x, y, z'
loop_
 _atom_site_type_symbol
 _atom_site_label
 _atom_site_symmetry_multiplicity
 _atom_site_fract_x
 _atom_site_fract_y
 _atom_site_fract_z
 _atom_site_occupancy
  Zr  Zr0  1  0.08824084  0.30253763  0.30080289  1
  Zr  Zr1  1  0.90190590  0.10372982  0.89801527  1
  Zr  Zr2  1  0.29830472  0.70727217  0.89894836  1
  Zr  Zr3  1  0.10016629  0.10358574  0.90141580  1
  Zr  Zr4  1  0.29845703  0.89108055  0.70003204  1
  Zr  Zr5  1  0.29876146  0.30208522  0.69765712  1
  Zr  Zr6  1  0.69874211  0.89719521  0.49878308  1
  Zr  Zr7  1  0.50107398  0.90403574  0.90261198  1
  Zr  Zr8  1  0.30963685  0.89894316  0.29957246  1
  Zr  Zr9  1  0.89838583  0.49802166  0.09887588  1
  Zr  Zr10  1  0.09792444  0.29166483  0.89784015  1
  Zr  Zr11  1  0.30001618  0.69646830  0.09983708  1
  Zr  Zr12  1  0.69202022  0.50869417  0.10507918  1
  Zr  Zr13  1  0.70100895  0.30390441  0.89239765  1
  Zr  Zr14  1  0.90377263  0.69829618  0.31244662  1
  Zr  Zr15  1  0.11249869  0.50306038  0.70174793  1
  Zr  Zr16  1  0.29759615  0.90432740  0.50716519  1
  Zr  Zr17  1  0.91257520  0.09997064  0.50181370  1
  Zr  Zr18  1  0.50544928  0.69580951  0.10325435  1
  Zr  Zr19  1  0.49295575  0.10211020  0.69932993  1
  Zr  Zr20  1  0.90910603  0.90625708  0.09771526  1
  Zr  Zr21  1  0.09853164  0.09039555  0.10108277  1
  Zr  Zr22  1  0.10069163  0.90290930  0.10830938  1
  Zr  Zr23  1  0.90569805  0.89563844  0.70363873  1
  Zr  Zr24  1  0.70175249  0.10404732  0.10172225  1
  Zr  Zr25  1  0.69736637  0.09050329  0.90512646  1
  Zr  Zr26  1  0.09721136  0.70309196  0.29471352  1
  Zr  Zr27  1  0.50988398  0.29148995  0.70576870  1
  Zr  Zr28  1  0.90197266  0.10717700  0.29592931  1
  Zr  Zr29  1  0.70049621  0.50325540  0.30606658  1
  Zr  Zr30  1  0.50140357  0.29775471  0.50181395  1
  Zr  Zr31  1  0.50530875  0.89490593  0.10170913  1
  Zr  Zr32  1  0.70382397  0.69262846  0.49508139  1
  Zr  Zr33  1  0.10308684  0.50162548  0.50325991  1
  Zr  Zr34  1  0.90151683  0.51082688  0.49726605  1
  Zr  Zr35  1  0.48843798  0.69758923  0.70168950  1
  Zr  Zr36  1  0.29419519  0.30402763  0.30475319  1
  Zr  Zr37  1  0.69687419  0.49967667  0.50422269  1
  Zr  Zr38  1  0.30729009  0.08761658  0.69527298  1
  Zr  Zr39  1  0.69608581  0.10020130  0.48936106  1
  Zr  Zr40  1  0.49466025  0.72094051  0.29789133  1
  Zr  Zr41  1  0.69636805  0.90060442  0.30571184  1
  Zr  Zr42  1  0.70385356  0.48728139  0.70257306  1
  Zr  Zr43  1  0.10356799  0.70294446  0.09636440  1
  Zr  Zr44  1  0.49915694  0.50109686  0.70586497  1
  Zr  Zr45  1  0.30098346  0.69694197  0.29691016  1
  Zr  Zr46  1  0.29520673  0.49536611  0.10777679  1
  Zr  Zr47  1  0.30079450  0.50378040  0.68783361  1
  Zr  Zr48  1  0.89720835  0.29920813  0.10488780  1
  Zr  Zr49  1  0.10830084  0.29272865  0.49498376  1
  Sc  Sc50  1  0.29736476  0.89849129  0.09424342  1
  Sc  Sc51  1  0.89955227  0.50085653  0.68786344  1
  Sc  Sc52  1  0.49786137  0.30095694  0.10845661  1
  Sc  Sc53  1  0.70982612  0.90288290  0.09986231  1
  Sc  Sc54  1  0.70179035  0.29393227  0.09521218  1
  Sc  Sc55  1  0.29770995  0.48874878  0.89005920  1
  Sc  Sc56  1  0.49092902  0.30116555  0.30256981  1
  Sc  Sc57  1  0.69278008  0.69016519  0.69297366  1
  Sc  Sc58  1  0.10314145  0.88448721  0.68884561  1
  Sc  Sc59  1  0.30442883  0.89782214  0.89816587  1
  Sc  Sc60  1  0.29418933  0.09422664  0.09803142  1
  Sc  Sc61  1  0.89265789  0.10000199  0.09872189  1
  Sc  Sc62  1  0.89397806  0.49122699  0.90630665  1
  Sc  Sc63  1  0.08718152  0.89476810  0.91136030  1
  Sc  Sc64  1  0.90525979  0.89542431  0.29769106  1
  Sc  Sc65  1  0.30640240  0.30615740  0.10663183  1
  Sc  Sc66  1  0.29977758  0.29761625  0.89650372  1
  Sc  Sc67  1  0.49996961  0.11291180  0.31418557  1
  Sc  Sc68  1  0.30140810  0.09969512  0.89613294  1
  Sc  Sc69  1  0.69995846  0.49497059  0.89504032  1
  Sc  Sc70  1  0.49499012  0.49367574  0.10707265  1
  Sc  Sc71  1  0.29895654  0.50088975  0.30533477  1
  Sc  Sc72  1  0.30426654  0.10652194  0.49997003  1
  Sc  Sc73  1  0.89220564  0.90383457  0.90165136  1
  Sc  Sc74  1  0.91609987  0.30671681  0.49791479  1
  Sc  Sc75  1  0.50356095  0.69876810  0.50090957  1
  Sc  Sc76  1  0.10258959  0.70042655  0.90472001  1
  Sc  Sc77  1  0.09314205  0.50764060  0.10288038  1
  Sc  Sc78  1  0.68679171  0.29341895  0.29842446  1
  Sc  Sc79  1  0.50376679  0.09927940  0.89170136  1
  Sc  Sc80  1  0.89592432  0.30182178  0.90793290  1
  Sc  Sc81  1  0.69985566  0.70061700  0.29573232  1
  Sc  Sc82  1  0.09528200  0.11302362  0.68755829  1
  Sc  Sc83  1  0.49786962  0.69097059  0.89583031  1
  Sc  Sc84  1  0.30544549  0.10649391  0.30358600  1
  Sc  Sc85  1  0.68690592  0.10354252  0.70502111  1
  Sc  Sc86  1  0.90701809  0.89478066  0.49473443  1
  Sc  Sc87  1  0.30229113  0.68993475  0.50013432  1
  Sc  Sc88  1  0.48804746  0.89976199  0.69667452  1
  Sc  Sc89  1  0.10114133  0.50231420  0.29518000  1
  Sc  Sc90  1  0.90765767  0.30041496  0.69935855  1
  Sc  Sc91  1  0.70193671  0.90106232  0.70465427  1
  Sc  Sc92  1  0.91200741  0.50350067  0.30120010  1
  Sc  Sc93  1  0.90631262  0.71968357  0.89783916  1
  Sc  Sc94  1  0.10544174  0.30060495  0.69666435  1
  Sc  Sc95  1  0.90414348  0.70403367  0.11141969  1
  Sc  Sc96  1  0.09456583  0.90014158  0.50146256  1
  Sc  Sc97  1  0.49656771  0.89034536  0.48865760  1
  Sc  Sc98  1  0.50080969  0.49553178  0.30720546  1
  Sc  Sc99  1  0.09478822  0.70087774  0.50442166  1
  Nb  Nb100  1  0.30126179  0.31438421  0.49851710  1
  Nb  Nb101  1  0.49462782  0.49248600  0.90122197  1
  Nb  Nb102  1  0.10097562  0.69829005  0.69958652  1
  Nb  Nb103  1  0.70192197  0.10080537  0.30113203  1
  Nb  Nb104  1  0.70041032  0.29838336  0.50662035  1
  Nb  Nb105  1  0.30745964  0.49305734  0.50296761  1
  Nb  Nb106  1  0.70307729  0.29926981  0.69823362  1
  Nb  Nb107  1  0.69664211  0.69710614  0.09898171  1
  Nb  Nb108  1  0.10525822  0.90540922  0.29464135  1
  Nb  Nb109  1  0.50150191  0.10456405  0.50566448  1
  Nb  Nb110  1  0.10156492  0.30316240  0.10297512  1
  Nb  Nb111  1  0.70453052  0.70126428  0.89972011  1
  Nb  Nb112  1  0.90871187  0.69957980  0.69716336  1
  Nb  Nb113  1  0.10063668  0.10406073  0.48767192  1
  Nb  Nb114  1  0.50601192  0.09552640  0.09325866  1
  Nb  Nb115  1  0.48593717  0.49678445  0.50557875  1
  Nb  Nb116  1  0.70054947  0.89512289  0.89979567  1
  Nb  Nb117  1  0.50063679  0.89863614  0.29466309  1
  Nb  Nb118  1  0.89836253  0.30474899  0.29984333  1
  Nb  Nb119  1  0.90043653  0.10313946  0.69821624  1
  Nb  Nb120  1  0.10225619  0.10125609  0.29965733  1
  Nb  Nb121  1  0.90129163  0.69572496  0.50642400  1
  Nb  Nb122  1  0.49399049  0.30366945  0.90053839  1
  Nb  Nb123  1  0.28740374  0.70338448  0.70062996  1
  Nb  Nb124  1  0.09619793  0.49879842  0.90127593  1
  Nb  Nb125  1  0.79814407  0.39528851  0.39954949  1
  Nb  Nb126  1  0.19549172  0.00176524  0.39687956  1
  Nb  Nb127  1  0.80502601  0.79626188  0.60019874  1
  Nb  Nb128  1  0.80017293  0.20605741  0.40170667  1
  Nb  Nb129  1  0.79488023  0.60948517  -0.00194952  1
  Nb  Nb130  1  0.19970297  0.80608268  0.39627412  1
  Nb  Nb131  1  0.80654629  0.60490027  0.80127263  1
  Nb  Nb132  1  0.19291383  0.20131704  0.20187264  1
  Nb  Nb133  1  0.60228128  0.79838505  0.80575015  1
  Nb  Nb134  1  0.00435184  0.00382033  0.79482141  1
  Nb  Nb135  1  0.59811165  0.00159580  0.59317149  1
  Nb  Nb136  1  0.79840060  0.19856796  0.59913679  1
  Nb  Nb137  1  0.41162187  0.00192789  0.19941839  1
  Nb  Nb138  1  0.39926803  0.59046335  -0.00187811  1
  Nb  Nb139  1  0.19184998  0.39796383  0.00027617  1
  Nb  Nb140  1  0.40705201  0.20018301  0.00105144  1
  Nb  Nb141  1  0.59759714  0.00598925  0.20578150  1
  Nb  Nb142  1  0.79883463  0.39900944  0.20762756  1
  Nb  Nb143  1  0.79793515  0.20050735  0.79317214  1
  Nb  Nb144  1  0.00563650  0.40729910  0.80338410  1
  Nb  Nb145  1  0.79990966  0.00266503  0.59959642  1
  Nb  Nb146  1  0.61016735  0.79397328  -0.00430796  1
  Nb  Nb147  1  0.59130920  0.40014639  -0.00530299  1
  Nb  Nb148  1  -0.00063094  0.59922728  0.79928881  1
  Nb  Nb149  1  0.19028303  -0.00165439  0.79449339  1
  Pd  Pd150  1  -0.01288736  0.60832765  -0.00859655  1
  Pd  Pd151  1  0.39799886  0.39638469  0.79140176  1
  Pd  Pd152  1  0.40663941  0.60127303  0.39946054  1
  Pd  Pd153  1  0.59393782  0.20883254  -0.00516657  1
  Pd  Pd154  1  0.00842397  0.40085838  0.60466743  1
  Pd  Pd155  1  0.79903297  0.80065577  0.20097055  1
  Pd  Pd156  1  0.59724435  0.59502083  -0.00967898  1
  Pd  Pd157  1  0.19944765  -0.00789264  -0.01237344  1
  Pd  Pd158  1  0.20892947  0.58818390  -0.00571096  1
  Pd  Pd159  1  0.59452999  -0.00933365  0.79014111  1
  Pd  Pd160  1  0.20589696  0.19089566  0.79073663  1
  Pd  Pd161  1  0.21086831  0.20904016  0.01116380  1
  Pd  Pd162  1  0.19418117  0.40758993  0.39748392  1
  Pd  Pd163  1  0.19603971  0.60464046  0.40272506  1
  Pd  Pd164  1  0.00322561  -0.00361747  0.39135361  1
  Pd  Pd165  1  0.58917945  0.60549772  0.39660852  1
  Pd  Pd166  1  0.59311944  0.59362584  0.59938176  1
  Pd  Pd167  1  0.58933588  0.60295342  0.21514644  1
  Pd  Pd168  1  0.39519226  0.79248566  0.59371378  1
  Pd  Pd169  1  0.40080913  0.00400151  0.39964159  1
  Pd  Pd170  1  0.81125605  0.00410556  0.40135808  1
  Pd  Pd171  1  0.00555541  0.39604900  -0.00041513  1
  Pd  Pd172  1  0.39551512  0.19167808  0.19156460  1
  Pd  Pd173  1  0.20024765  0.60242560  0.80683663  1
  Pd  Pd174  1  0.38633388  0.59858998  0.80398594  1
  Pd  Pd175  1  0.80181005  0.79748469  0.40445639  1
  Pd  Pd176  1  0.00332690  0.19662891  0.19325933  1
  Pd  Pd177  1  0.79342634  0.79101555  0.78796208  1
  Pd  Pd178  1  0.39798525  0.00724935  0.00152583  1
  Pd  Pd179  1  -0.00416780  0.19787195  0.01041226  1
  Pd  Pd180  1  0.80685738  0.59798852  0.20065772  1
  Pd  Pd181  1  0.00346474  -0.00174370  0.60561519  1
  Pd  Pd182  1  0.60390677  0.39589290  0.19584190  1
  Pd  Pd183  1  0.59258529  0.40245330  0.60147459  1
  Pd  Pd184  1  0.39329423  0.20807371  0.59722914  1
  Pd  Pd185  1  0.60358744  0.80598179  0.60873756  1
  Pd  Pd186  1  0.20624077  0.80103820  0.20158633  1
  Pd  Pd187  1  0.60164689  0.39541002  0.40491514  1
  Pd  Pd188  1  0.18919677  0.80868496  0.80884769  1
  Pd  Pd189  1  0.40543125  0.59465232  0.20141753  1
  Pd  Pd190  1  0.20798251  0.19711083  0.59608105  1
  Pd  Pd191  1  0.59318581  0.19435840  0.20193662  1
  Pd  Pd192  1  0.60665500  0.60014400  0.80492507  1
  Pd  Pd193  1  0.40869154  0.79022760  0.00025895  1
  Pd  Pd194  1  0.80830589  0.39201786  0.59267935  1
  Pd  Pd195  1  0.80139561  0.79693779  0.00875121  1
  Pd  Pd196  1  0.79834522  -0.00196982  0.20482758  1
  Pd  Pd197  1  0.80379349  0.00625890  0.79481441  1
  Pd  Pd198  1  0.58747122  -0.00033102  0.39833224  1
  Pd  Pd199  1  0.18838553  0.00614840  0.59756180  1
  Rh  Rh200  1  0.39286622  0.80620358  0.18856823  1
  Rh  Rh201  1  0.39225284  -0.00393874  0.80271200  1
  Rh  Rh202  1  0.78288217  0.41035067  0.01585989  1
  Rh  Rh203  1  0.39811581  0.40308234  0.21182937  1
  Rh  Rh204  1  0.00951785  0.79972874  0.39852218  1
  Rh  Rh205  1  0.39784757  0.39749591  0.00157067  1
  Rh  Rh206  1  0.20478356  0.19622609  0.39449536  1
  Rh  Rh207  1  -0.00367449  0.00508447  -0.00630573  1
  Rh  Rh208  1  0.79649261  0.20855084  0.21001582  1
  Rh  Rh209  1  0.60486229  0.20204329  0.80797981  1
  Rh  Rh210  1  0.38992347  0.79550604  0.40651405  1
  Rh  Rh211  1  0.80178104  0.59648343  0.39776597  1
  Rh  Rh212  1  0.19724326  0.59866709  0.20019347  1
  Rh  Rh213  1  0.19983967  0.39908190  0.59431267  1
  Rh  Rh214  1  0.40715948  0.39374635  0.60802332  1
  Rh  Rh215  1  0.61287153  0.80801040  0.19415155  1
  Rh  Rh216  1  0.00854867  0.80064291  0.79813849  1
  Rh  Rh217  1  -0.00483874  0.20112244  0.39868511  1
  Rh  Rh218  1  0.60075702  0.20624627  0.40222586  1
  Rh  Rh219  1  0.60540647  0.19392235  0.59768814  1
  Rh  Rh220  1  0.80001326  0.00091257  -0.00039745  1
  Rh  Rh221  1  0.79846785  0.19564468  -0.01090119  1
  Rh  Rh222  1  0.21315696  0.00941305  0.21145304  1
  Rh  Rh223  1  -0.00456918  0.79657662  0.59669580  1
  Rh  Rh224  1  0.39771964  0.19979080  0.80554681  1
  Rh  Rh225  1  0.39877047  0.60301750  0.60045365  1
  Rh  Rh226  1  0.41168776  -0.00257644  0.58824109  1
  Rh  Rh227  1  -0.00547938  0.40337499  0.19744378  1
  Rh  Rh228  1  0.20300856  0.60458005  0.59459662  1
  Rh  Rh229  1  0.00190980  0.40703816  0.40116724  1
  Rh  Rh230  1  0.00669480  0.59894418  0.60617442  1
  Rh  Rh231  1  0.60316191  0.79357491  0.39793201  1
  Rh  Rh232  1  0.20292833  0.78995247  0.58902034  1
  Rh  Rh233  1  0.59538421  0.39782257  0.80239691  1
  Rh  Rh234  1  0.00086380  0.80241875  0.20153072  1
  Rh  Rh235  1  0.19490183  0.39657733  0.19788825  1
  Rh  Rh236  1  0.19240096  0.39342257  0.80774485  1
  Rh  Rh237  1  0.00068751  0.20586670  0.59420883  1
  Rh  Rh238  1  -0.00163168  0.79749272  0.00885330  1
  Rh  Rh239  1  0.00741926  0.60172550  0.40298991  1
  Rh  Rh240  1  0.19806276  0.80590509  -0.00009881  1
  Rh  Rh241  1  0.60845019  -0.01002954  0.00787424  1
  Rh  Rh242  1  0.39586046  0.20906127  0.41091873  1
  Rh  Rh243  1  0.40006717  0.40035073  0.39979081  1
  Rh  Rh244  1  0.81484214  0.39901370  0.79100934  1
  Rh  Rh245  1  -0.00760989  0.20463619  0.79767655  1
  Rh  Rh246  1  0.40503437  0.79912325  0.80025180  1
  Rh  Rh247  1  0.80033749  0.60682392  0.60809984  1
  Rh  Rh248  1  0.00005951  0.60370623  0.19976248  1
  Rh  Rh249  1  -0.00548417  0.00344154  0.20432721  1
