# generated using pymatgen
data_ZrScNbPdRh
_symmetry_space_group_name_H-M   'P 1'
_cell_length_a   16.55915860
_cell_length_b   16.55863733
_cell_length_c   16.56032757
_cell_angle_alpha   89.98132526
_cell_angle_beta   89.97324119
_cell_angle_gamma   89.99180786
_symmetry_Int_Tables_number   1
_chemical_formula_structural   ZrScNbPdRh
_chemical_formula_sum   'Zr50 Sc50 Nb50 Pd50 Rh50'
_cell_volume   4540.79304058
_cell_formula_units_Z   50
loop_
 _symmetry_equiv_pos_site_id
 _symmetry_equiv_pos_as_xyz
  1  'x, y, z'
loop_
 _atom_site_type_symbol
 _atom_site_label
 _atom_site_symmetry_multiplicity
 _atom_site_fract_x
 _atom_site_fract_y
 _atom_site_fract_z
 _atom_site_occupancy
  Zr  Zr0  1  0.30160012  0.70244990  0.70590632  1
  Zr  Zr1  1  0.29880946  0.70265963  0.89817890  1
  Zr  Zr2  1  0.90025649  0.69712264  0.29799487  1
  Zr  Zr3  1  0.10280713  0.89966832  0.30582793  1
  Zr  Zr4  1  0.49274764  0.30115926  0.70745885  1
  Zr  Zr5  1  0.69647071  0.50214107  0.90690485  1
  Zr  Zr6  1  0.89509938  0.90038495  0.71149000  1
  Zr  Zr7  1  0.88894002  0.30134202  0.69240994  1
  Zr  Zr8  1  0.30043792  0.69727033  0.10021000  1
  Zr  Zr9  1  0.31507730  0.09951638  0.30692641  1
  Zr  Zr10  1  0.10295909  0.11375182  0.90643399  1
  Zr  Zr11  1  0.30472653  0.90819764  0.69890046  1
  Zr  Zr12  1  0.49689421  0.90662438  0.89413361  1
  Zr  Zr13  1  0.29340763  0.89489489  0.09489995  1
  Zr  Zr14  1  0.49835226  0.89957257  0.69885135  1
  Zr  Zr15  1  0.30659543  0.69892348  0.50547410  1
  Zr  Zr16  1  0.09785251  0.89525422  0.90391829  1
  Zr  Zr17  1  0.70050496  0.90096611  0.30104601  1
  Zr  Zr18  1  0.89456389  0.09247299  0.90068534  1
  Zr  Zr19  1  0.90261734  0.69704269  0.69636999  1
  Zr  Zr20  1  0.29949290  0.49990785  0.48778594  1
  Zr  Zr21  1  0.90383920  0.71056858  0.89926383  1
  Zr  Zr22  1  0.11466195  0.50338133  0.30771741  1
  Zr  Zr23  1  0.10253587  0.10999548  0.09597731  1
  Zr  Zr24  1  0.50977091  0.09675647  0.29197582  1
  Zr  Zr25  1  0.70148996  0.69627060  0.90292807  1
  Zr  Zr26  1  0.89109050  0.69859771  0.10240213  1
  Zr  Zr27  1  0.90496226  0.29522729  0.10365306  1
  Zr  Zr28  1  0.49164959  0.69570286  0.89024618  1
  Zr  Zr29  1  0.09889276  0.49199415  0.50336933  1
  Zr  Zr30  1  0.49906081  0.49806104  0.31025288  1
  Zr  Zr31  1  0.70357284  0.70481162  0.28566799  1
  Zr  Zr32  1  0.48980615  0.48993856  0.09340062  1
  Zr  Zr33  1  0.90835756  0.49511171  0.89425216  1
  Zr  Zr34  1  0.10065093  0.69793684  0.29988508  1
  Zr  Zr35  1  0.30824037  0.90291816  0.49929192  1
  Zr  Zr36  1  0.89824969  0.49453136  0.50420873  1
  Zr  Zr37  1  0.49717534  0.50268365  0.50653216  1
  Zr  Zr38  1  0.49921504  0.89196693  0.50191322  1
  Zr  Zr39  1  0.09886007  0.90290308  0.69943568  1
  Zr  Zr40  1  0.69442947  0.29501902  0.69804317  1
  Zr  Zr41  1  0.09868424  0.69937031  0.69990851  1
  Zr  Zr42  1  0.90381267  0.90463295  0.31260661  1
  Zr  Zr43  1  0.09477409  0.70530994  0.50370656  1
  Zr  Zr44  1  0.90150909  0.29167778  0.29461782  1
  Zr  Zr45  1  0.69652902  0.09307434  0.10535536  1
  Zr  Zr46  1  0.71191065  0.90315395  0.89983667  1
  Zr  Zr47  1  0.29610341  0.68287800  0.29592545  1
  Zr  Zr48  1  0.30581621  0.31334757  0.10958132  1
  Zr  Zr49  1  0.89881118  0.89769526  0.89911306  1
  Sc  Sc50  1  0.90608269  0.49852068  0.69577478  1
  Sc  Sc51  1  0.69824618  0.69280308  0.50550901  1
  Sc  Sc52  1  0.70211678  0.90129537  0.69185568  1
  Sc  Sc53  1  0.09538817  0.29731306  0.09341856  1
  Sc  Sc54  1  0.69843675  0.10457684  0.69761873  1
  Sc  Sc55  1  0.30924746  0.89859672  0.30222485  1
  Sc  Sc56  1  0.49854699  0.30071071  0.50232523  1
  Sc  Sc57  1  0.10028083  0.90832161  0.50178509  1
  Sc  Sc58  1  0.09653397  0.30412198  0.50023199  1
  Sc  Sc59  1  0.29335994  0.30407957  0.89217696  1
  Sc  Sc60  1  0.29569767  0.11178416  0.90097967  1
  Sc  Sc61  1  0.69898173  0.70141780  0.69396425  1
  Sc  Sc62  1  0.70027603  0.30316628  0.50502601  1
  Sc  Sc63  1  0.70641992  0.30674511  0.10383095  1
  Sc  Sc64  1  0.89283797  0.89351278  0.08954749  1
  Sc  Sc65  1  0.10197037  0.70213275  0.88989552  1
  Sc  Sc66  1  0.90171910  0.90560533  0.50323488  1
  Sc  Sc67  1  0.50111349  0.69677115  0.50378863  1
  Sc  Sc68  1  0.11315212  0.30345640  0.68946287  1
  Sc  Sc69  1  0.90185129  0.49683581  0.29729735  1
  Sc  Sc70  1  0.69678498  0.30096225  0.30410471  1
  Sc  Sc71  1  0.29947539  0.48657502  0.70321732  1
  Sc  Sc72  1  0.49655165  0.29170976  0.30429916  1
  Sc  Sc73  1  0.69441943  0.49406232  0.69641717  1
  Sc  Sc74  1  0.48899097  0.70238317  0.09847894  1
  Sc  Sc75  1  0.30228248  0.30227361  0.51079986  1
  Sc  Sc76  1  0.49628541  0.49550243  0.89297737  1
  Sc  Sc77  1  0.10636067  0.70580379  0.09813497  1
  Sc  Sc78  1  0.70115159  0.50193035  0.30789087  1
  Sc  Sc79  1  0.30582176  0.09973565  0.50558361  1
  Sc  Sc80  1  0.69560610  0.89930237  0.50237869  1
  Sc  Sc81  1  0.09260024  0.10199050  0.31117175  1
  Sc  Sc82  1  0.09745509  0.31104153  0.30378046  1
  Sc  Sc83  1  0.09629092  0.49740916  0.70401732  1
  Sc  Sc84  1  0.29983689  0.89776584  0.89383861  1
  Sc  Sc85  1  0.49411348  0.10545470  0.70411602  1
  Sc  Sc86  1  0.10079532  0.49079012  0.10447076  1
  Sc  Sc87  1  0.89333177  0.49586789  0.10163913  1
  Sc  Sc88  1  0.49612646  0.10305412  0.49107026  1
  Sc  Sc89  1  0.89962408  0.09773764  0.69370241  1
  Sc  Sc90  1  0.69332454  0.49620482  0.49721226  1
  Sc  Sc91  1  0.49678315  0.69136562  0.69325301  1
  Sc  Sc92  1  0.69890289  0.30053962  0.89117092  1
  Sc  Sc93  1  0.50170452  0.09940507  0.89054431  1
  Sc  Sc94  1  0.50248584  0.90096460  0.11072853  1
  Sc  Sc95  1  0.89965445  0.30408853  0.89997969  1
  Sc  Sc96  1  0.69677413  0.09345756  0.89666104  1
  Sc  Sc97  1  0.70061901  0.89386730  0.10412443  1
  Sc  Sc98  1  0.69780780  0.09331764  0.49913632  1
  Sc  Sc99  1  0.50316480  0.89239583  0.30104021  1
  Nb  Nb100  1  0.29934336  0.10449109  0.10112878  1
  Nb  Nb101  1  0.09428320  0.30646775  0.90489789  1
  Nb  Nb102  1  0.50160879  0.29999134  0.09962202  1
  Nb  Nb103  1  0.69968589  0.69436840  0.09758633  1
  Nb  Nb104  1  0.30437933  0.29359978  0.69793932  1
  Nb  Nb105  1  0.10101292  0.90312939  0.09907242  1
  Nb  Nb106  1  0.49969145  0.29578521  0.90323172  1
  Nb  Nb107  1  0.29668418  0.48757287  0.28802381  1
  Nb  Nb108  1  0.90167831  0.10050063  0.30088801  1
  Nb  Nb109  1  0.91183109  0.10514211  0.48793604  1
  Nb  Nb110  1  0.10247100  0.10447392  0.69571007  1
  Nb  Nb111  1  0.29338381  0.49897945  0.89830433  1
  Nb  Nb112  1  0.90231958  0.69609630  0.50092457  1
  Nb  Nb113  1  0.09868260  0.10998009  0.50627532  1
  Nb  Nb114  1  0.49879182  0.10311250  0.10324868  1
  Nb  Nb115  1  0.69382054  0.50786176  0.09746424  1
  Nb  Nb116  1  0.29667408  0.30252287  0.30407034  1
  Nb  Nb117  1  0.29709787  0.11313701  0.70193778  1
  Nb  Nb118  1  0.90312299  0.29919686  0.49620540  1
  Nb  Nb119  1  0.50278726  0.70278143  0.29119607  1
  Nb  Nb120  1  0.90405906  0.10941649  0.10759509  1
  Nb  Nb121  1  0.29980586  0.49985997  0.10379165  1
  Nb  Nb122  1  0.70654495  0.09797675  0.30214839  1
  Nb  Nb123  1  0.09993079  0.49186114  0.89899155  1
  Nb  Nb124  1  0.49178674  0.50083437  0.69935865  1
  Nb  Nb125  1  0.00102343  0.00318876  0.00645641  1
  Nb  Nb126  1  0.00102435  0.80782285  0.19901943  1
  Nb  Nb127  1  0.00671715  0.59663216  -0.00401112  1
  Nb  Nb128  1  0.79732899  0.19503896  0.00588169  1
  Nb  Nb129  1  0.80436498  0.79435832  0.40264958  1
  Nb  Nb130  1  0.00105883  0.00062922  0.19489225  1
  Nb  Nb131  1  0.20551524  0.19920780  0.20711159  1
  Nb  Nb132  1  0.39890514  0.01033774  0.00672314  1
  Nb  Nb133  1  0.80190199  0.59912798  0.80213109  1
  Nb  Nb134  1  0.19568417  0.01165247  0.79406015  1
  Nb  Nb135  1  0.19914201  0.00599949  0.19790568  1
  Nb  Nb136  1  0.40559900  0.20227906  0.00734399  1
  Nb  Nb137  1  0.59552620  0.40593507  0.19611835  1
  Nb  Nb138  1  -0.00177455  0.59957747  0.40577148  1
  Nb  Nb139  1  0.59743449  0.59685998  0.19423546  1
  Nb  Nb140  1  0.20015793  0.59002032  -0.00459185  1
  Nb  Nb141  1  0.00538084  0.20115571  0.79656725  1
  Nb  Nb142  1  0.20083518  0.59888728  0.60008663  1
  Nb  Nb143  1  0.59949581  0.79741518  -0.00581049  1
  Nb  Nb144  1  0.80649096  0.19340656  0.39884559  1
  Nb  Nb145  1  0.60020759  0.80036182  0.80385530  1
  Nb  Nb146  1  0.80895655  0.00633618  0.20473338  1
  Nb  Nb147  1  0.59670826  0.20084191  0.00463264  1
  Nb  Nb148  1  0.20298925  0.20108870  0.40121273  1
  Nb  Nb149  1  0.20353525  0.79671816  0.40265136  1
  Pd  Pd150  1  0.79496148  0.59160294  0.60622969  1
  Pd  Pd151  1  0.00656478  0.60233066  0.19464772  1
  Pd  Pd152  1  0.79968677  0.19286803  0.58646468  1
  Pd  Pd153  1  0.39289508  0.39451419  -0.01181846  1
  Pd  Pd154  1  0.00389650  0.40177034  0.20201252  1
  Pd  Pd155  1  0.00535976  0.38594817  0.78874404  1
  Pd  Pd156  1  0.20006954  0.59234106  0.79659013  1
  Pd  Pd157  1  0.80276639  0.60219738  0.40074082  1
  Pd  Pd158  1  -0.00372074  0.00249643  0.59693303  1
  Pd  Pd159  1  0.39988285  0.39301741  0.40102236  1
  Pd  Pd160  1  0.39534197  -0.00701652  0.19579720  1
  Pd  Pd161  1  0.59207074  0.19571604  0.59627503  1
  Pd  Pd162  1  0.59622367  0.40085169  0.79974939  1
  Pd  Pd163  1  0.60158544  0.60994710  0.39429310  1
  Pd  Pd164  1  0.40794199  0.00993582  0.60104229  1
  Pd  Pd165  1  0.58447241  0.60576823  0.00495914  1
  Pd  Pd166  1  -0.00089927  0.20686410  0.60623264  1
  Pd  Pd167  1  0.59344575  0.39903595  0.60100183  1
  Pd  Pd168  1  0.59508372  -0.00301681  0.39913603  1
  Pd  Pd169  1  -0.00652570  0.80875841  0.60287644  1
  Pd  Pd170  1  0.60515684  0.60225570  0.79045624  1
  Pd  Pd171  1  0.39487294  0.59329305  -0.00656926  1
  Pd  Pd172  1  0.20338382  0.79995112  0.59652741  1
  Pd  Pd173  1  0.81215309  0.59597694  -0.00606167  1
  Pd  Pd174  1  0.59229101  0.00675209  0.60043399  1
  Pd  Pd175  1  0.59117354  -0.00288378  0.00334467  1
  Pd  Pd176  1  0.20304035  0.00836206  0.60128442  1
  Pd  Pd177  1  0.40617212  0.59399626  0.20166316  1
  Pd  Pd178  1  0.60747605  -0.00365193  0.79023778  1
  Pd  Pd179  1  0.40670051  0.81121772  0.00106686  1
  Pd  Pd180  1  0.39739219  0.78849320  0.39265870  1
  Pd  Pd181  1  0.79603725  0.40809005  0.79698002  1
  Pd  Pd182  1  0.40418252  0.60491795  0.39660025  1
  Pd  Pd183  1  0.80445233  0.00630301  0.59453511  1
  Pd  Pd184  1  0.20048012  0.39958043  0.00216253  1
  Pd  Pd185  1  0.39852639  0.20489165  0.20049195  1
  Pd  Pd186  1  0.20096453  0.00471267  0.39969609  1
  Pd  Pd187  1  0.20334821  0.00113144  -0.00506100  1
  Pd  Pd188  1  0.60748197  0.20914041  0.19797322  1
  Pd  Pd189  1  0.60865433  0.20193472  0.40569080  1
  Pd  Pd190  1  0.80144383  0.39100388  0.39928788  1
  Pd  Pd191  1  0.80407172  0.19663145  0.80519662  1
  Pd  Pd192  1  0.79998745  0.39431400  -0.00078419  1
  Pd  Pd193  1  0.80272457  0.80179401  0.59239711  1
  Pd  Pd194  1  0.20213133  0.80595331  0.20754674  1
  Pd  Pd195  1  0.60847572  0.79088376  0.40446978  1
  Pd  Pd196  1  0.60564404  0.39165031  0.00081051  1
  Pd  Pd197  1  0.79140117  0.40582594  0.20434456  1
  Pd  Pd198  1  0.19308943  0.20814760  0.79765951  1
  Pd  Pd199  1  0.00926785  0.00986989  0.80715422  1
  Rh  Rh200  1  0.59989316  0.20122958  0.80403524  1
  Rh  Rh201  1  0.38279685  0.01440654  0.80856301  1
  Rh  Rh202  1  0.80873890  0.00885359  0.01435498  1
  Rh  Rh203  1  0.59512337  0.78979881  0.18729322  1
  Rh  Rh204  1  0.81125507  0.81270873  0.20746258  1
  Rh  Rh205  1  0.19950283  0.81226871  0.79661174  1
  Rh  Rh206  1  0.00791448  0.59538424  0.59440946  1
  Rh  Rh207  1  0.79141021  0.79209996  0.79397824  1
  Rh  Rh208  1  0.40020425  0.20232737  0.80744788  1
  Rh  Rh209  1  0.19800550  0.79157683  -0.00609071  1
  Rh  Rh210  1  0.40207563  0.20064599  0.60126000  1
  Rh  Rh211  1  0.39310552  0.20540054  0.40564514  1
  Rh  Rh212  1  -0.00372675  0.40652112  0.00559981  1
  Rh  Rh213  1  -0.00358815  0.39260544  0.60349080  1
  Rh  Rh214  1  0.41204363  -0.00294069  0.39933870  1
  Rh  Rh215  1  0.19751902  0.59265374  0.18706099  1
  Rh  Rh216  1  0.79134367  0.19576178  0.20229411  1
  Rh  Rh217  1  0.59865370  0.59290805  0.60277023  1
  Rh  Rh218  1  0.19377520  0.60771675  0.41293408  1
  Rh  Rh219  1  0.00357498  0.20783413  0.39803509  1
  Rh  Rh220  1  0.79859039  0.00148722  0.40210798  1
  Rh  Rh221  1  0.20584633  0.39015089  0.40489509  1
  Rh  Rh222  1  0.38995761  0.59092541  0.60556521  1
  Rh  Rh223  1  0.01491935  0.19970436  0.21029377  1
  Rh  Rh224  1  0.40629104  0.79865930  0.79281941  1
  Rh  Rh225  1  0.21443066  0.21956457  0.01052398  1
  Rh  Rh226  1  0.79706815  0.40070093  0.59721689  1
  Rh  Rh227  1  0.20420069  0.19915702  0.59024867  1
  Rh  Rh228  1  0.60541426  -0.00333496  0.20451760  1
  Rh  Rh229  1  0.00574312  0.79698510  0.00791231  1
  Rh  Rh230  1  -0.00436542  0.60338794  0.80657394  1
  Rh  Rh231  1  0.59635941  0.39446634  0.39767858  1
  Rh  Rh232  1  0.20604154  0.40568706  0.59914051  1
  Rh  Rh233  1  0.79079848  0.58946903  0.20018443  1
  Rh  Rh234  1  0.78877044  0.79707665  0.00216684  1
  Rh  Rh235  1  0.59679625  0.79685208  0.60493412  1
  Rh  Rh236  1  0.40281296  0.79950840  0.60537314  1
  Rh  Rh237  1  -0.00634117  0.40667535  0.39766892  1
  Rh  Rh238  1  0.41044664  0.39898979  0.21166938  1
  Rh  Rh239  1  -0.00081099  0.79185870  0.39807339  1
  Rh  Rh240  1  0.79294386  0.00540593  0.78796692  1
  Rh  Rh241  1  0.40141276  0.40114089  0.60324099  1
  Rh  Rh242  1  0.39360177  0.59111487  0.79679201  1
  Rh  Rh243  1  0.39441004  0.79938135  0.20228198  1
  Rh  Rh244  1  0.19687254  0.39504289  0.79765859  1
  Rh  Rh245  1  0.00691198  0.00384271  0.40519701  1
  Rh  Rh246  1  -0.01429584  0.19928414  -0.01352306  1
  Rh  Rh247  1  0.39858320  0.39766178  0.80309045  1
  Rh  Rh248  1  0.00239815  0.79951635  0.79275296  1
  Rh  Rh249  1  0.19354390  0.39382280  0.19857575  1
