# generated using pymatgen
data_ZrScNbPdRh
_symmetry_space_group_name_H-M   'P 1'
_cell_length_a   16.55423619
_cell_length_b   16.55298161
_cell_length_c   16.55360781
_cell_angle_alpha   90.03902330
_cell_angle_beta   90.00346391
_cell_angle_gamma   89.98323364
_symmetry_Int_Tables_number   1
_chemical_formula_structural   ZrScNbPdRh
_chemical_formula_sum   'Zr50 Sc50 Nb50 Pd50 Rh50'
_cell_volume   4536.05091995
_cell_formula_units_Z   50
loop_
 _symmetry_equiv_pos_site_id
 _symmetry_equiv_pos_as_xyz
  1  'x, y, z'
loop_
 _atom_site_type_symbol
 _atom_site_label
 _atom_site_symmetry_multiplicity
 _atom_site_fract_x
 _atom_site_fract_y
 _atom_site_fract_z
 _atom_site_occupancy
  Zr  Zr0  1  0.51309442  0.90469196  0.70266477  1
  Zr  Zr1  1  0.49093882  0.30119225  0.10226320  1
  Zr  Zr2  1  0.89894024  0.89820551  0.70492038  1
  Zr  Zr3  1  0.09856812  0.30068413  0.70134471  1
  Zr  Zr4  1  0.30238307  0.50104646  0.90115431  1
  Zr  Zr5  1  0.89823352  0.09580811  0.09676083  1
  Zr  Zr6  1  0.29680426  0.09560270  0.29923627  1
  Zr  Zr7  1  0.10172650  0.50621442  0.89934392  1
  Zr  Zr8  1  0.09782900  0.49674715  0.49043804  1
  Zr  Zr9  1  0.69474886  0.11200608  0.90418296  1
  Zr  Zr10  1  0.50693840  0.29224808  0.89662510  1
  Zr  Zr11  1  0.89489562  0.50839083  0.30335383  1
  Zr  Zr12  1  0.29803275  0.70764428  0.30423675  1
  Zr  Zr13  1  0.09109878  0.49826143  0.29687339  1
  Zr  Zr14  1  0.30029577  0.10096533  0.10121121  1
  Zr  Zr15  1  0.09763506  0.10455091  0.49145298  1
  Zr  Zr16  1  0.29840356  0.70024561  0.50280414  1
  Zr  Zr17  1  0.69301124  0.11010258  0.29344015  1
  Zr  Zr18  1  0.90544310  0.29253180  0.50384045  1
  Zr  Zr19  1  0.89651053  0.09861553  0.89990615  1
  Zr  Zr20  1  0.49063989  0.90157591  0.29210192  1
  Zr  Zr21  1  0.10131869  0.31227136  0.89912265  1
  Zr  Zr22  1  0.70735308  0.49683605  0.90451100  1
  Zr  Zr23  1  0.50043455  0.50363285  0.89777560  1
  Zr  Zr24  1  0.10114173  0.49988044  0.09895258  1
  Zr  Zr25  1  0.89853849  0.89499301  0.90691603  1
  Zr  Zr26  1  0.70330894  0.69303063  0.10173435  1
  Zr  Zr27  1  0.49652929  0.90339312  0.08974899  1
  Zr  Zr28  1  0.29458576  0.70133005  0.70024648  1
  Zr  Zr29  1  0.49625037  0.49988305  0.51138974  1
  Zr  Zr30  1  0.29922455  0.29876687  0.10214507  1
  Zr  Zr31  1  0.70030497  0.50667244  0.10101208  1
  Zr  Zr32  1  0.70632081  0.69908298  0.29992544  1
  Zr  Zr33  1  0.90097357  0.49844792  0.49549018  1
  Zr  Zr34  1  0.09773487  0.28689775  0.30013340  1
  Zr  Zr35  1  0.31335277  0.29219640  0.30046051  1
  Zr  Zr36  1  0.50078038  0.69205108  0.69702783  1
  Zr  Zr37  1  0.29875757  0.09833448  0.70027860  1
  Zr  Zr38  1  0.30180904  0.30315795  0.90256735  1
  Zr  Zr39  1  0.09401856  0.10432210  0.11038149  1
  Zr  Zr40  1  0.29987131  0.09461453  0.50138505  1
  Zr  Zr41  1  0.50481952  0.09582764  0.10395242  1
  Zr  Zr42  1  0.49645795  0.69682444  0.90047751  1
  Zr  Zr43  1  0.28946867  0.49780472  0.30395983  1
  Zr  Zr44  1  0.89067536  0.70065612  0.48873122  1
  Zr  Zr45  1  0.70239797  0.29051578  0.70844635  1
  Zr  Zr46  1  0.29591117  0.90113566  0.90944141  1
  Zr  Zr47  1  0.09350158  0.69608558  0.09620043  1
  Zr  Zr48  1  0.89982883  0.09307205  0.49831241  1
  Zr  Zr49  1  0.29261627  0.68730449  0.10166650  1
  Sc  Sc50  1  0.90671503  0.09897318  0.30180181  1
  Sc  Sc51  1  0.72085649  0.90864723  0.49842369  1
  Sc  Sc52  1  0.90439756  0.29378067  0.70549746  1
  Sc  Sc53  1  0.90187555  0.70633936  0.90392712  1
  Sc  Sc54  1  0.70197640  0.50552663  0.50283920  1
  Sc  Sc55  1  0.10167925  0.90372556  0.50078373  1
  Sc  Sc56  1  0.30832738  0.90884368  0.10233647  1
  Sc  Sc57  1  0.89983821  0.90618410  0.31774234  1
  Sc  Sc58  1  0.30703039  0.50751339  0.69177622  1
  Sc  Sc59  1  0.10287798  0.09520615  0.69645457  1
  Sc  Sc60  1  0.51289293  0.48546372  0.29119382  1
  Sc  Sc61  1  0.29581899  0.90116349  0.49097380  1
  Sc  Sc62  1  0.50048677  0.70765101  0.29436405  1
  Sc  Sc63  1  0.09380478  0.89910854  0.89457102  1
  Sc  Sc64  1  0.69156462  0.89730973  0.09392419  1
  Sc  Sc65  1  0.68821901  0.89584808  0.89705990  1
  Sc  Sc66  1  0.89819681  0.50059090  0.10211195  1
  Sc  Sc67  1  0.89604240  0.30125943  0.89761614  1
  Sc  Sc68  1  0.50572808  0.69785471  0.09884938  1
  Sc  Sc69  1  0.50382536  0.09766386  0.90709156  1
  Sc  Sc70  1  0.90193429  0.50108825  0.70696522  1
  Sc  Sc71  1  0.69515198  0.29997322  0.49795653  1
  Sc  Sc72  1  0.89278085  0.30766829  0.29330923  1
  Sc  Sc73  1  0.10617598  0.70406130  0.70497583  1
  Sc  Sc74  1  0.50004780  0.30773652  0.49137720  1
  Sc  Sc75  1  0.71213110  0.29192402  0.10363987  1
  Sc  Sc76  1  0.70653617  0.69815824  0.90463646  1
  Sc  Sc77  1  0.49973878  0.69846482  0.50266352  1
  Sc  Sc78  1  0.90930177  0.90051378  0.50570838  1
  Sc  Sc79  1  0.89983810  0.49864920  0.90133006  1
  Sc  Sc80  1  0.29813137  0.69183272  0.89733476  1
  Sc  Sc81  1  0.90461726  0.30183890  0.10004722  1
  Sc  Sc82  1  0.50288465  0.08688422  0.69567300  1
  Sc  Sc83  1  0.89816894  0.70661823  0.70531950  1
  Sc  Sc84  1  0.70647594  0.70254795  0.69976657  1
  Sc  Sc85  1  0.09710053  0.89725741  0.69768905  1
  Sc  Sc86  1  0.10385530  0.70848376  0.49986548  1
  Sc  Sc87  1  0.10002697  0.50192493  0.70532988  1
  Sc  Sc88  1  0.69892347  0.50367416  0.70183700  1
  Sc  Sc89  1  0.50219565  0.50190398  0.09652197  1
  Sc  Sc90  1  0.09964492  0.69108669  0.30276150  1
  Sc  Sc91  1  0.09126207  0.91328870  0.09352127  1
  Sc  Sc92  1  0.50340232  0.50286433  0.69631911  1
  Sc  Sc93  1  0.28566691  0.90201448  0.69434182  1
  Sc  Sc94  1  0.70855977  0.09929317  0.50501182  1
  Sc  Sc95  1  0.29606799  0.29197536  0.70429007  1
  Sc  Sc96  1  0.29733271  0.10125321  0.90146129  1
  Sc  Sc97  1  0.89663096  0.10584087  0.69467581  1
  Sc  Sc98  1  0.30194084  0.49339515  0.09136030  1
  Sc  Sc99  1  0.09648719  0.09055197  0.90780246  1
  Nb  Nb100  1  0.50159307  0.10781535  0.30461483  1
  Nb  Nb101  1  0.70239419  0.09707570  0.09789700  1
  Nb  Nb102  1  0.89725290  0.89864665  0.10036593  1
  Nb  Nb103  1  0.49886214  0.30200979  0.69351351  1
  Nb  Nb104  1  0.69833793  0.30068218  0.90155150  1
  Nb  Nb105  1  0.49610343  0.89787992  0.90071237  1
  Nb  Nb106  1  0.89848040  0.70189090  0.29811081  1
  Nb  Nb107  1  0.69790302  0.70243653  0.49770871  1
  Nb  Nb108  1  0.70047323  0.09341998  0.69902570  1
  Nb  Nb109  1  0.29477956  0.89707780  0.29825843  1
  Nb  Nb110  1  0.70140840  0.50251551  0.29444935  1
  Nb  Nb111  1  0.30471964  0.49256049  0.49818342  1
  Nb  Nb112  1  0.10175419  0.90712612  0.29833210  1
  Nb  Nb113  1  0.09838663  0.09306851  0.29894224  1
  Nb  Nb114  1  0.09957941  0.29939288  0.50184004  1
  Nb  Nb115  1  0.70108521  0.90321208  0.30410753  1
  Nb  Nb116  1  0.50010236  0.91076749  0.50637979  1
  Nb  Nb117  1  0.30437000  0.30611441  0.49912886  1
  Nb  Nb118  1  0.09863790  0.30162076  0.10382088  1
  Nb  Nb119  1  0.50079495  0.09383578  0.50279594  1
  Nb  Nb120  1  0.69298609  0.30242621  0.30446148  1
  Nb  Nb121  1  0.89590233  0.71304940  0.09779231  1
  Nb  Nb122  1  0.69909219  0.90742621  0.70234133  1
  Nb  Nb123  1  0.51522523  0.28684924  0.30333873  1
  Nb  Nb124  1  0.10326382  0.70362530  0.89980488  1
  Nb  Nb125  1  0.79609542  -0.00304527  0.19759276  1
  Nb  Nb126  1  0.39682061  0.59674466  0.20849516  1
  Nb  Nb127  1  0.19545421  0.79782554  0.00498021  1
  Nb  Nb128  1  0.40137324  0.80570986  0.79769895  1
  Nb  Nb129  1  0.79601035  0.20406220  0.39516884  1
  Nb  Nb130  1  0.60221102  0.80759953  0.40552636  1
  Nb  Nb131  1  0.40625417  0.80865087  0.60348108  1
  Nb  Nb132  1  0.59493591  0.19629016  0.60014834  1
  Nb  Nb133  1  0.20054501  0.39619178  0.58965704  1
  Nb  Nb134  1  -0.00254505  0.60237891  0.59522581  1
  Nb  Nb135  1  0.19318160  0.80600457  0.19853207  1
  Nb  Nb136  1  0.59637931  -0.00024648  0.39933752  1
  Nb  Nb137  1  0.60433705  0.80792245  0.59404694  1
  Nb  Nb138  1  0.19297857  0.20600169  0.00688994  1
  Nb  Nb139  1  0.40293606  0.59352468  0.39753310  1
  Nb  Nb140  1  -0.00408088  0.80400153  0.20235691  1
  Nb  Nb141  1  0.19652270  0.39260471  0.20170648  1
  Nb  Nb142  1  0.40554992  0.39519141  0.79707649  1
  Nb  Nb143  1  0.79263206  0.00150756  0.80017199  1
  Nb  Nb144  1  0.60673983  0.39300857  -0.00370138  1
  Nb  Nb145  1  0.80397038  0.39608962  0.60125092  1
  Nb  Nb146  1  0.80454550  0.80585152  0.20252443  1
  Nb  Nb147  1  0.40543417  0.20002557  0.59595359  1
  Nb  Nb148  1  0.40103422  -0.00961402  0.80222728  1
  Nb  Nb149  1  0.60039118  0.60284538  0.39738114  1
  Pd  Pd150  1  0.60846791  0.39155847  0.18862952  1
  Pd  Pd151  1  -0.00855552  0.60587459  0.19623491  1
  Pd  Pd152  1  0.80492998  0.20556301  -0.00008868  1
  Pd  Pd153  1  0.19773719  0.38696018  0.39662768  1
  Pd  Pd154  1  0.20076279  -0.00186168  0.80241896  1
  Pd  Pd155  1  0.79378654  0.39731603  0.40494534  1
  Pd  Pd156  1  0.40211467  -0.00068137  0.39407540  1
  Pd  Pd157  1  0.20122566  0.60239088  0.40539598  1
  Pd  Pd158  1  0.80421053  0.39730669  0.79436790  1
  Pd  Pd159  1  0.40417366  0.19719349  0.40829712  1
  Pd  Pd160  1  0.00426487  0.19228263  0.60323432  1
  Pd  Pd161  1  -0.00422718  0.38968203  0.39250235  1
  Pd  Pd162  1  0.21208334  0.40906113  0.78674887  1
  Pd  Pd163  1  0.61071190  0.39472140  0.60323123  1
  Pd  Pd164  1  -0.00112751  0.60796898  0.79632522  1
  Pd  Pd165  1  0.60161499  0.79308918  -0.00171085  1
  Pd  Pd166  1  0.20374220  0.20111768  0.40066807  1
  Pd  Pd167  1  0.20431791  0.20441229  0.59504123  1
  Pd  Pd168  1  0.60397105  0.41073760  0.40432123  1
  Pd  Pd169  1  0.60974140  0.60416186  0.80200229  1
  Pd  Pd170  1  0.60057349  0.79043065  0.79645491  1
  Pd  Pd171  1  0.60095229  0.20656727  0.18843000  1
  Pd  Pd172  1  -0.00874084  0.60156551  -0.00239954  1
  Pd  Pd173  1  0.19101802  0.59118286  0.59591541  1
  Pd  Pd174  1  0.39760082  0.19458521  -0.00111359  1
  Pd  Pd175  1  0.00658669  0.80040545  0.39464502  1
  Pd  Pd176  1  0.78914536  -0.00738494  -0.00294738  1
  Pd  Pd177  1  0.18923735  0.19321401  0.81226096  1
  Pd  Pd178  1  0.00661134  0.19515062  0.80449788  1
  Pd  Pd179  1  0.00051946  0.40739373  0.60707987  1
  Pd  Pd180  1  0.59672314  0.40257168  0.79990578  1
  Pd  Pd181  1  0.60267843  -0.00471314  0.20288829  1
  Pd  Pd182  1  -0.00503137  0.40226804  -0.00092620  1
  Pd  Pd183  1  0.60639406  0.80335765  0.20200950  1
  Pd  Pd184  1  0.40910760  0.19363139  0.79221356  1
  Pd  Pd185  1  0.79730114  0.80345932  0.59940130  1
  Pd  Pd186  1  0.59236484  0.18887783  0.78906212  1
  Pd  Pd187  1  0.00119198  0.79209904  0.60261432  1
  Pd  Pd188  1  0.39623591  0.40592635  0.20729149  1
  Pd  Pd189  1  0.80282481  0.60397661  0.80290968  1
  Pd  Pd190  1  0.80563911  0.59568477  0.60311424  1
  Pd  Pd191  1  0.40711263  0.79879882  0.40962500  1
  Pd  Pd192  1  0.00375092  0.20427937  -0.00603241  1
  Pd  Pd193  1  -0.01072270  0.20090475  0.20357572  1
  Pd  Pd194  1  0.79586735  0.40245348  0.19780846  1
  Pd  Pd195  1  0.39185430  0.79339548  0.18756377  1
  Pd  Pd196  1  0.39067137  0.78994188  0.00019924  1
  Pd  Pd197  1  0.19959065  -0.00524847  0.19426643  1
  Pd  Pd198  1  -0.00723998  0.00256632  0.79607240  1
  Pd  Pd199  1  0.41136682  0.40384422  0.38980470  1
  Rh  Rh200  1  0.19547887  0.39623732  0.00804166  1
  Rh  Rh201  1  0.20458314  0.80457248  0.59489239  1
  Rh  Rh202  1  0.61455096  -0.00072189  0.58847685  1
  Rh  Rh203  1  0.20269624  0.59185447  0.20113254  1
  Rh  Rh204  1  0.60150996  0.20696690  0.01152331  1
  Rh  Rh205  1  0.80734741  -0.00352850  0.61091199  1
  Rh  Rh206  1  -0.00709405  0.20175609  0.39562931  1
  Rh  Rh207  1  0.00318670  0.79647007  0.80143133  1
  Rh  Rh208  1  0.40182023  0.60157518  0.00934831  1
  Rh  Rh209  1  0.40129331  0.00717377  -0.00653443  1
  Rh  Rh210  1  0.20262498  0.80213201  0.81021400  1
  Rh  Rh211  1  0.00764248  -0.00059216  0.40184953  1
  Rh  Rh212  1  0.60683414  0.60734559  0.59580075  1
  Rh  Rh213  1  0.79116209  0.20938658  0.59491001  1
  Rh  Rh214  1  0.39748936  0.60679790  0.59409320  1
  Rh  Rh215  1  -0.00034352  0.00312849  0.60066742  1
  Rh  Rh216  1  0.00813828  0.80321349  0.00217666  1
  Rh  Rh217  1  0.79147274  0.59693570  0.39843748  1
  Rh  Rh218  1  0.00241729  0.39968716  0.20162989  1
  Rh  Rh219  1  0.19794733  0.60190885  -0.00649895  1
  Rh  Rh220  1  0.79674744  0.80779312  0.80535003  1
  Rh  Rh221  1  0.40053795  0.00666165  0.20559366  1
  Rh  Rh222  1  0.19846092  0.00357805  0.00518461  1
  Rh  Rh223  1  0.38914178  -0.00116721  0.60728092  1
  Rh  Rh224  1  0.79822576  0.80267924  0.39682185  1
  Rh  Rh225  1  0.00106994  0.60996893  0.40684625  1
  Rh  Rh226  1  0.80843828  0.60167619  0.00140576  1
  Rh  Rh227  1  0.38877851  0.38989340  0.61097122  1
  Rh  Rh228  1  0.60162010  0.00570128  0.81149630  1
  Rh  Rh229  1  0.59118378  0.60102383  0.20921488  1
  Rh  Rh230  1  -0.00437853  -0.00029191  -0.00131870  1
  Rh  Rh231  1  0.80388345  0.19246491  0.20508272  1
  Rh  Rh232  1  0.39751163  0.59777848  0.79589103  1
  Rh  Rh233  1  0.80805037  0.60444749  0.19705716  1
  Rh  Rh234  1  0.41361611  0.39843933  -0.01246651  1
  Rh  Rh235  1  0.79126154  0.80229533  0.00230869  1
  Rh  Rh236  1  0.19555430  0.00039314  0.59395350  1
  Rh  Rh237  1  0.40707093  0.19365803  0.20358727  1
  Rh  Rh238  1  0.20145413  0.59802358  0.80068625  1
  Rh  Rh239  1  0.19733122  -0.00112369  0.39858875  1
  Rh  Rh240  1  0.79100424  0.01728593  0.38735215  1
  Rh  Rh241  1  0.19319171  0.80569453  0.39264761  1
  Rh  Rh242  1  0.79698296  0.39808253  0.00406576  1
  Rh  Rh243  1  0.60471112  0.19189383  0.41024270  1
  Rh  Rh244  1  0.19986750  0.20109278  0.19947751  1
  Rh  Rh245  1  0.60149372  0.59472255  -0.00520337  1
  Rh  Rh246  1  -0.00999550  -0.00591209  0.20544770  1
  Rh  Rh247  1  0.79972367  0.19305214  0.80384076  1
  Rh  Rh248  1  -0.00261795  0.40070141  0.80167506  1
  Rh  Rh249  1  0.60137000  -0.00027299  -0.00279195  1
