# generated using pymatgen
data_ZrScNbPdRh
_symmetry_space_group_name_H-M   'P 1'
_cell_length_a   16.56178807
_cell_length_b   16.57064350
_cell_length_c   16.56151800
_cell_angle_alpha   89.98477776
_cell_angle_beta   89.99898892
_cell_angle_gamma   90.01070778
_symmetry_Int_Tables_number   1
_chemical_formula_structural   ZrScNbPdRh
_chemical_formula_sum   'Zr50 Sc50 Nb50 Pd50 Rh50'
_cell_volume   4545.13424609
_cell_formula_units_Z   50
loop_
 _symmetry_equiv_pos_site_id
 _symmetry_equiv_pos_as_xyz
  1  'x, y, z'
loop_
 _atom_site_type_symbol
 _atom_site_label
 _atom_site_symmetry_multiplicity
 _atom_site_fract_x
 _atom_site_fract_y
 _atom_site_fract_z
 _atom_site_occupancy
  Zr  Zr0  1  0.70183558  0.50185994  0.89892186  1
  Zr  Zr1  1  0.10273657  0.28796739  0.11180633  1
  Zr  Zr2  1  0.10295892  0.69995113  0.69976808  1
  Zr  Zr3  1  0.10207380  0.29491359  0.30612188  1
  Zr  Zr4  1  0.29447125  0.90603510  0.49659379  1
  Zr  Zr5  1  0.29738561  0.29231450  0.30033746  1
  Zr  Zr6  1  0.29483116  0.70233721  0.69929493  1
  Zr  Zr7  1  0.70135024  0.50553881  0.29763585  1
  Zr  Zr8  1  0.30821074  0.49293937  0.51240558  1
  Zr  Zr9  1  0.29883483  0.70640355  0.50835386  1
  Zr  Zr10  1  0.69192812  0.90525193  0.29870595  1
  Zr  Zr11  1  0.48378468  0.30431081  0.50323919  1
  Zr  Zr12  1  0.49560703  0.70040581  0.69933653  1
  Zr  Zr13  1  0.09853218  0.09436461  0.09613544  1
  Zr  Zr14  1  0.30272109  0.90134899  0.69119205  1
  Zr  Zr15  1  0.30034351  0.70613699  0.89777958  1
  Zr  Zr16  1  0.69007870  0.49715934  0.09970164  1
  Zr  Zr17  1  0.90185192  0.71212045  0.69869341  1
  Zr  Zr18  1  0.69779315  0.10140294  0.69828013  1
  Zr  Zr19  1  0.70105213  0.70353880  0.90158950  1
  Zr  Zr20  1  0.49307498  0.49261616  0.10415242  1
  Zr  Zr21  1  0.49364366  0.90827955  0.10385597  1
  Zr  Zr22  1  0.90268621  0.50755688  0.09345431  1
  Zr  Zr23  1  0.70087246  0.49265575  0.69422681  1
  Zr  Zr24  1  0.90100828  0.10407501  0.70169686  1
  Zr  Zr25  1  0.90476387  0.30496256  0.89032533  1
  Zr  Zr26  1  0.70015686  0.11182047  0.90262157  1
  Zr  Zr27  1  0.29551038  0.30454539  0.09632839  1
  Zr  Zr28  1  0.91169436  0.89906619  0.49477416  1
  Zr  Zr29  1  0.50167754  0.30223319  0.09494015  1
  Zr  Zr30  1  0.09921245  0.49099060  0.49945264  1
  Zr  Zr31  1  0.70230776  0.90713123  0.10165161  1
  Zr  Zr32  1  0.90044461  0.51015069  0.29271011  1
  Zr  Zr33  1  0.50619487  0.29221338  0.89952653  1
  Zr  Zr34  1  0.70431623  0.29817455  0.50335837  1
  Zr  Zr35  1  0.29393085  0.89729980  0.30082255  1
  Zr  Zr36  1  0.89974509  0.69752387  0.10306096  1
  Zr  Zr37  1  0.48900583  0.10501016  0.89953939  1
  Zr  Zr38  1  0.69759115  0.29428803  0.09479907  1
  Zr  Zr39  1  0.69731313  0.70282798  0.70783218  1
  Zr  Zr40  1  0.29612976  0.69769488  0.28991905  1
  Zr  Zr41  1  0.70578233  0.90063688  0.70653749  1
  Zr  Zr42  1  0.09734165  0.49594189  0.89491608  1
  Zr  Zr43  1  0.10720095  0.30274706  0.49945635  1
  Zr  Zr44  1  0.89807999  0.70465009  0.29772816  1
  Zr  Zr45  1  0.90413713  0.29081351  0.09746355  1
  Zr  Zr46  1  0.90212966  0.49480984  0.50110793  1
  Zr  Zr47  1  0.50161852  0.49793498  0.29148784  1
  Zr  Zr48  1  0.90387639  0.10336498  0.90017617  1
  Zr  Zr49  1  0.70006573  0.09999212  0.31138738  1
  Sc  Sc50  1  0.89146436  0.91126953  0.10141891  1
  Sc  Sc51  1  0.50155184  0.90344922  0.69153237  1
  Sc  Sc52  1  0.49708066  0.90589263  0.50061439  1
  Sc  Sc53  1  0.90481913  0.29520868  0.69662315  1
  Sc  Sc54  1  0.10158558  0.09511820  0.29527416  1
  Sc  Sc55  1  0.89631731  0.90795234  0.89419132  1
  Sc  Sc56  1  0.49620376  0.29884394  0.29599419  1
  Sc  Sc57  1  0.90895723  0.29544592  0.30541409  1
  Sc  Sc58  1  0.09529770  0.89669565  0.70094214  1
  Sc  Sc59  1  0.70648163  0.70532314  0.29904765  1
  Sc  Sc60  1  0.29718676  0.09334624  0.30682829  1
  Sc  Sc61  1  0.50004955  0.70618954  0.09272411  1
  Sc  Sc62  1  0.09996626  0.49279785  0.29850951  1
  Sc  Sc63  1  0.10361593  0.29742590  0.89549421  1
  Sc  Sc64  1  0.49020430  0.09785668  0.70205886  1
  Sc  Sc65  1  0.50204720  0.70649411  0.50738128  1
  Sc  Sc66  1  0.49924951  0.49102085  0.90483186  1
  Sc  Sc67  1  0.70149072  0.70783889  0.49773421  1
  Sc  Sc68  1  0.10682161  0.70536822  0.29938436  1
  Sc  Sc69  1  0.29364351  0.48427188  0.89516451  1
  Sc  Sc70  1  0.50314136  0.09024254  0.30077602  1
  Sc  Sc71  1  0.29735347  0.29848198  0.70002301  1
  Sc  Sc72  1  0.90298175  0.70742519  0.50021599  1
  Sc  Sc73  1  0.68534707  0.90386432  0.49854495  1
  Sc  Sc74  1  0.89925901  0.90630356  0.30480704  1
  Sc  Sc75  1  0.10589521  0.69729035  0.10876170  1
  Sc  Sc76  1  0.49183388  0.89389347  0.91224289  1
  Sc  Sc77  1  0.70773516  0.10381109  0.10654904  1
  Sc  Sc78  1  0.10462259  0.49661677  0.69624761  1
  Sc  Sc79  1  0.10661425  0.10567043  0.70280978  1
  Sc  Sc80  1  0.10746003  0.70652099  0.89346399  1
  Sc  Sc81  1  0.30550697  0.09787268  0.50387462  1
  Sc  Sc82  1  0.89790822  0.90111451  0.70497534  1
  Sc  Sc83  1  0.10363465  0.10248402  0.49741585  1
  Sc  Sc84  1  0.70985137  0.29971556  0.69684333  1
  Sc  Sc85  1  0.29617538  0.90157749  0.90235139  1
  Sc  Sc86  1  0.50619010  0.70504961  0.90005654  1
  Sc  Sc87  1  0.70416261  0.70384785  0.09401601  1
  Sc  Sc88  1  0.09797643  0.71150808  0.50569505  1
  Sc  Sc89  1  0.50046355  0.49740628  0.68640949  1
  Sc  Sc90  1  0.30690950  0.50192255  0.28263470  1
  Sc  Sc91  1  0.30137444  0.89364121  0.09955392  1
  Sc  Sc92  1  0.90496380  0.48307592  0.69966713  1
  Sc  Sc93  1  0.29910692  0.29807184  0.89451668  1
  Sc  Sc94  1  0.70717623  0.89964510  0.90372815  1
  Sc  Sc95  1  0.09638355  0.49717957  0.10534866  1
  Sc  Sc96  1  0.69407086  0.29036117  0.29698797  1
  Sc  Sc97  1  0.90806125  0.29314301  0.49862765  1
  Sc  Sc98  1  0.49495617  0.29276609  0.70332367  1
  Sc  Sc99  1  0.50351007  0.70030987  0.29760046  1
  Nb  Nb100  1  0.09591361  0.90694412  0.91347601  1
  Nb  Nb101  1  0.90369379  0.50039593  0.90142542  1
  Nb  Nb102  1  0.29851176  0.69089254  0.10387551  1
  Nb  Nb103  1  0.09971606  0.89949306  0.48686988  1
  Nb  Nb104  1  0.69913356  0.10385029  0.49960713  1
  Nb  Nb105  1  0.50177017  0.49883813  0.50199000  1
  Nb  Nb106  1  0.30121162  0.29848261  0.49688528  1
  Nb  Nb107  1  0.50479420  0.09362158  0.50426016  1
  Nb  Nb108  1  0.89843372  0.10527946  0.09807425  1
  Nb  Nb109  1  0.09614539  0.90316813  0.10393902  1
  Nb  Nb110  1  0.29967216  0.50707728  0.70564434  1
  Nb  Nb111  1  0.10686210  0.09117465  0.89816359  1
  Nb  Nb112  1  0.30252082  0.10193294  0.09227654  1
  Nb  Nb113  1  0.49200501  0.09778930  0.09389700  1
  Nb  Nb114  1  0.29897508  0.09402389  0.71321471  1
  Nb  Nb115  1  0.09729678  0.29667840  0.70264207  1
  Nb  Nb116  1  0.89940262  0.69129018  0.90788927  1
  Nb  Nb117  1  0.29347640  0.09755348  0.89217906  1
  Nb  Nb118  1  0.49893773  0.89986322  0.30247354  1
  Nb  Nb119  1  0.69771071  0.49351855  0.50646525  1
  Nb  Nb120  1  0.10164028  0.90008909  0.30343830  1
  Nb  Nb121  1  0.30286529  0.50204406  0.09732730  1
  Nb  Nb122  1  0.89989095  0.10056165  0.31756770  1
  Nb  Nb123  1  0.69831869  0.30040484  0.90048522  1
  Nb  Nb124  1  0.89506255  0.09978730  0.49500309  1
  Nb  Nb125  1  0.60496672  0.39477612  0.79950109  1
  Nb  Nb126  1  0.59621246  0.00817639  0.00016790  1
  Nb  Nb127  1  0.59841915  0.00377748  0.80792126  1
  Nb  Nb128  1  0.80247619  0.00521698  0.59339963  1
  Nb  Nb129  1  0.59618453  0.19510995  0.59341301  1
  Nb  Nb130  1  0.00346996  0.80596487  0.00339652  1
  Nb  Nb131  1  0.80929558  0.59864025  0.79949288  1
  Nb  Nb132  1  0.80126026  0.39815264  0.19660909  1
  Nb  Nb133  1  0.00280236  0.81002909  0.19749754  1
  Nb  Nb134  1  0.39127165  0.59794290  -0.00201318  1
  Nb  Nb135  1  -0.00411004  0.00297067  0.59352329  1
  Nb  Nb136  1  0.39640441  0.19231644  0.19102216  1
  Nb  Nb137  1  -0.00627452  0.60031061  0.80150016  1
  Nb  Nb138  1  0.60017922  0.40450942  0.40609807  1
  Nb  Nb139  1  0.79554198  0.40262136  0.39582980  1
  Nb  Nb140  1  0.00571895  0.60055689  0.40152936  1
  Nb  Nb141  1  0.39502730  0.59771489  0.80082233  1
  Nb  Nb142  1  0.40127834  0.60039628  0.40487350  1
  Nb  Nb143  1  0.59788147  0.59323561  0.40692297  1
  Nb  Nb144  1  0.20736534  0.59703206  0.00143506  1
  Nb  Nb145  1  0.20468731  0.59757919  0.40400486  1
  Nb  Nb146  1  0.80282553  0.39885914  -0.00107098  1
  Nb  Nb147  1  0.39827209  0.79878516  0.39702202  1
  Nb  Nb148  1  0.79953771  0.59829028  0.60559876  1
  Nb  Nb149  1  0.59961017  0.81054814  0.19928267  1
  Pd  Pd150  1  -0.00880077  0.00151534  0.20478791  1
  Pd  Pd151  1  0.39081426  0.00586887  0.20447933  1
  Pd  Pd152  1  0.79330044  -0.00854415  0.40781374  1
  Pd  Pd153  1  0.80686198  0.20142845  0.21148711  1
  Pd  Pd154  1  0.19132452  0.40227745  0.00255944  1
  Pd  Pd155  1  0.59121816  0.58842183  0.80022096  1
  Pd  Pd156  1  0.19545131  0.79574628  0.00778721  1
  Pd  Pd157  1  0.39629713  0.19296545  0.60448364  1
  Pd  Pd158  1  0.01821422  0.61062440  -0.00523475  1
  Pd  Pd159  1  0.79719697  0.80710408  0.59308587  1
  Pd  Pd160  1  0.59265689  0.81444802  0.80380032  1
  Pd  Pd161  1  0.40655165  -0.01048634  0.80389532  1
  Pd  Pd162  1  -0.00998191  -0.00075101  0.00145343  1
  Pd  Pd163  1  0.60270120  0.61496535  0.19910555  1
  Pd  Pd164  1  0.19752174  0.19693709  -0.00672663  1
  Pd  Pd165  1  0.19794609  0.81408873  0.79973345  1
  Pd  Pd166  1  0.00703710  0.00374626  0.79316820  1
  Pd  Pd167  1  0.40554251  0.79578334  0.20199160  1
  Pd  Pd168  1  0.59009157  0.59980398  -0.00082229  1
  Pd  Pd169  1  0.20824614  -0.00195202  0.00470184  1
  Pd  Pd170  1  -0.00585732  0.39646058  0.20101772  1
  Pd  Pd171  1  0.58980371  0.18985408  0.19543506  1
  Pd  Pd172  1  0.20857944  0.19820115  0.60167753  1
  Pd  Pd173  1  -0.00629655  0.60040193  0.60147474  1
  Pd  Pd174  1  0.39111713  0.20583645  -0.00210991  1
  Pd  Pd175  1  0.21558313  0.40890068  0.39348291  1
  Pd  Pd176  1  0.19357266  -0.01001407  0.79724901  1
  Pd  Pd177  1  -0.00357146  0.79797509  0.81323263  1
  Pd  Pd178  1  0.40772683  0.40354231  0.79513678  1
  Pd  Pd179  1  0.60134622  0.80287627  0.60155925  1
  Pd  Pd180  1  0.40396804  0.80263372  0.79844604  1
  Pd  Pd181  1  0.19074704  0.00078994  0.60027045  1
  Pd  Pd182  1  0.20622683  0.00010736  0.19385433  1
  Pd  Pd183  1  0.00395057  0.19575422  0.59525458  1
  Pd  Pd184  1  0.39789623  0.40781727  0.39228602  1
  Pd  Pd185  1  0.60665250  0.60822865  0.59496325  1
  Pd  Pd186  1  0.80103853  0.20427021  0.79904979  1
  Pd  Pd187  1  0.40530651  0.18978807  0.39318203  1
  Pd  Pd188  1  0.79664361  0.81001070  0.40228716  1
  Pd  Pd189  1  0.20452977  0.39533908  0.60755135  1
  Pd  Pd190  1  0.20055326  0.40194844  0.20251410  1
  Pd  Pd191  1  0.19671228  0.59774171  0.59366690  1
  Pd  Pd192  1  0.80700660  0.01154091  0.20751337  1
  Pd  Pd193  1  0.79992553  0.59812453  0.41364549  1
  Pd  Pd194  1  0.00973569  0.20016884  -0.00906353  1
  Pd  Pd195  1  -0.00466521  0.18601062  0.20868236  1
  Pd  Pd196  1  0.58720002  0.20672605  0.40630087  1
  Pd  Pd197  1  0.20220711  0.19179350  0.40328169  1
  Pd  Pd198  1  0.81087699  0.80543790  -0.00051783  1
  Pd  Pd199  1  0.00330924  0.39181003  0.00386802  1
  Rh  Rh200  1  0.00422971  0.81098243  0.60005192  1
  Rh  Rh201  1  0.79303110  0.00684695  0.79799610  1
  Rh  Rh202  1  0.60238718  0.81405534  0.00839776  1
  Rh  Rh203  1  0.19300229  0.58991542  0.20033918  1
  Rh  Rh204  1  0.59921032  0.19186488  0.00776777  1
  Rh  Rh205  1  0.40985575  0.60657031  0.19311492  1
  Rh  Rh206  1  0.39389682  0.38588555  0.19805224  1
  Rh  Rh207  1  0.00485556  0.79320233  0.38828170  1
  Rh  Rh208  1  0.59215289  0.79469349  0.39165494  1
  Rh  Rh209  1  0.60293984  0.20265355  0.78720342  1
  Rh  Rh210  1  0.40134292  0.80693143  0.59325594  1
  Rh  Rh211  1  0.39617208  0.00490082  0.60097147  1
  Rh  Rh212  1  0.60815440  0.39245140  0.20831280  1
  Rh  Rh213  1  0.00771180  0.19425369  0.40147659  1
  Rh  Rh214  1  0.79895707  0.19537123  0.59669600  1
  Rh  Rh215  1  0.19486374  0.00290890  0.40110968  1
  Rh  Rh216  1  0.79480914  0.59358782  -0.00102934  1
  Rh  Rh217  1  -0.00893164  0.40727564  0.39344460  1
  Rh  Rh218  1  0.19518784  0.39434639  0.79054103  1
  Rh  Rh219  1  0.40036428  0.60133957  0.60454081  1
  Rh  Rh220  1  0.00734758  0.00728273  0.40147053  1
  Rh  Rh221  1  0.20467601  0.79429701  0.40167252  1
  Rh  Rh222  1  0.79711632  0.01123696  -0.00356041  1
  Rh  Rh223  1  0.79580539  0.40216342  0.80833124  1
  Rh  Rh224  1  0.80774219  0.79197303  0.81055342  1
  Rh  Rh225  1  0.59818053  0.00229850  0.19323763  1
  Rh  Rh226  1  0.60385058  0.00564434  0.60620010  1
  Rh  Rh227  1  0.80222519  0.20825984  0.39763919  1
  Rh  Rh228  1  0.39301741  0.79184046  0.00436110  1
  Rh  Rh229  1  0.20781513  0.18913826  0.19831950  1
  Rh  Rh230  1  0.80684215  0.20419175  -0.00406892  1
  Rh  Rh231  1  0.19210684  0.81212176  0.59945524  1
  Rh  Rh232  1  0.39504573  0.39623196  0.61005856  1
  Rh  Rh233  1  0.40371500  -0.00461291  0.40072816  1
  Rh  Rh234  1  0.00611871  0.38767972  0.60201388  1
  Rh  Rh235  1  0.00974199  0.19559628  0.80348999  1
  Rh  Rh236  1  0.81103282  0.39604366  0.59191168  1
  Rh  Rh237  1  0.00721921  0.40136025  0.79364290  1
  Rh  Rh238  1  0.20022228  0.19840959  0.80101432  1
  Rh  Rh239  1  0.59177714  0.38272750  0.60158288  1
  Rh  Rh240  1  0.19917922  0.59383077  0.80604458  1
  Rh  Rh241  1  0.00771876  0.61160733  0.21062203  1
  Rh  Rh242  1  0.59636378  0.00240636  0.40284827  1
  Rh  Rh243  1  0.80029530  0.80319065  0.19933639  1
  Rh  Rh244  1  0.39752649  0.39899362  -0.00310010  1
  Rh  Rh245  1  0.60431138  0.39909034  -0.00821719  1
  Rh  Rh246  1  0.38865850  0.19923082  0.79935441  1
  Rh  Rh247  1  0.39469768  0.00081044  -0.00631817  1
  Rh  Rh248  1  0.19338971  0.80903067  0.19378640  1
  Rh  Rh249  1  0.79123233  0.59862121  0.18716289  1
