# generated using pymatgen
data_ZrScNbPdRh
_symmetry_space_group_name_H-M   'P 1'
_cell_length_a   16.55139650
_cell_length_b   16.55121244
_cell_length_c   16.55251652
_cell_angle_alpha   89.99766985
_cell_angle_beta   89.98622026
_cell_angle_gamma   90.03546320
_symmetry_Int_Tables_number   1
_chemical_formula_structural   ZrScNbPdRh
_chemical_formula_sum   'Zr50 Sc50 Nb50 Pd50 Rh50'
_cell_volume   4534.48938456
_cell_formula_units_Z   50
loop_
 _symmetry_equiv_pos_site_id
 _symmetry_equiv_pos_as_xyz
  1  'x, y, z'
loop_
 _atom_site_type_symbol
 _atom_site_label
 _atom_site_symmetry_multiplicity
 _atom_site_fract_x
 _atom_site_fract_y
 _atom_site_fract_z
 _atom_site_occupancy
  Zr  Zr0  1  0.69749008  0.89992086  0.69978760  1
  Zr  Zr1  1  0.28962369  0.50207585  0.09320278  1
  Zr  Zr2  1  0.30467179  0.90236907  0.49763535  1
  Zr  Zr3  1  0.49450450  0.48677378  0.10662010  1
  Zr  Zr4  1  0.90979069  0.29696466  0.49730931  1
  Zr  Zr5  1  0.10260994  0.50766339  0.69055167  1
  Zr  Zr6  1  0.09803820  0.10375614  0.10025302  1
  Zr  Zr7  1  0.49469981  0.90749306  0.10311833  1
  Zr  Zr8  1  0.70181260  0.30369053  0.69563301  1
  Zr  Zr9  1  0.30006635  0.70244856  0.09707620  1
  Zr  Zr10  1  0.49773686  0.10249937  0.91197934  1
  Zr  Zr11  1  0.69556202  0.70292917  0.29361953  1
  Zr  Zr12  1  0.50238922  0.69315795  0.89912230  1
  Zr  Zr13  1  0.89628898  0.29874129  0.89726665  1
  Zr  Zr14  1  0.69867125  0.09086111  0.70165080  1
  Zr  Zr15  1  0.89457956  0.89790222  0.69549135  1
  Zr  Zr16  1  0.90072326  0.09945823  0.90089157  1
  Zr  Zr17  1  0.10458125  0.29811750  0.89742982  1
  Zr  Zr18  1  0.70514010  0.50130629  0.29638866  1
  Zr  Zr19  1  0.10065078  0.49319320  0.10096334  1
  Zr  Zr20  1  0.30373232  0.09836487  0.70303426  1
  Zr  Zr21  1  0.89922101  0.70785377  0.08840762  1
  Zr  Zr22  1  0.10203097  0.70204405  0.30411610  1
  Zr  Zr23  1  0.09713269  0.89789258  0.49971417  1
  Zr  Zr24  1  0.70063492  0.50035515  0.69895634  1
  Zr  Zr25  1  0.49651413  0.29857550  0.29420880  1
  Zr  Zr26  1  0.69583581  0.50429836  0.90116685  1
  Zr  Zr27  1  0.89585491  0.29437182  0.10432409  1
  Zr  Zr28  1  0.29450574  0.90040029  0.90382410  1
  Zr  Zr29  1  0.10000882  0.70443367  0.89728832  1
  Zr  Zr30  1  0.09365375  0.49329737  0.49542252  1
  Zr  Zr31  1  0.89654958  0.89941788  0.50944563  1
  Zr  Zr32  1  0.90019065  0.49973598  0.10872186  1
  Zr  Zr33  1  0.50469735  0.10633031  0.48798490  1
  Zr  Zr34  1  0.69944561  0.49499405  0.50350829  1
  Zr  Zr35  1  0.90597152  0.90422297  0.09989268  1
  Zr  Zr36  1  0.30599940  0.70503505  0.49426772  1
  Zr  Zr37  1  0.30762649  0.69740353  0.30142040  1
  Zr  Zr38  1  0.90231613  0.50530238  0.89679808  1
  Zr  Zr39  1  0.90619546  0.89496601  0.29210382  1
  Zr  Zr40  1  0.69750391  0.49805357  0.09807779  1
  Zr  Zr41  1  0.09462931  0.50336153  0.29531174  1
  Zr  Zr42  1  0.69918208  0.69743304  0.90026288  1
  Zr  Zr43  1  0.70225304  0.30201316  0.09819949  1
  Zr  Zr44  1  0.09966092  0.89809280  0.90264408  1
  Zr  Zr45  1  0.90300773  0.29587213  0.70708011  1
  Zr  Zr46  1  0.30276156  0.69766225  0.90676941  1
  Zr  Zr47  1  0.10143103  0.90404945  0.29554430  1
  Zr  Zr48  1  0.09928595  0.11316487  0.50202107  1
  Zr  Zr49  1  0.49703568  0.50593208  0.89414701  1
  Sc  Sc50  1  0.69062989  0.10145193  0.31267139  1
  Sc  Sc51  1  0.10839948  0.10206775  0.29703326  1
  Sc  Sc52  1  0.89729890  0.10263410  0.69817919  1
  Sc  Sc53  1  0.30506050  0.49570657  0.70030825  1
  Sc  Sc54  1  0.69374909  0.69790377  0.50759868  1
  Sc  Sc55  1  0.10259789  0.49593855  0.90086727  1
  Sc  Sc56  1  0.50752930  0.51208794  0.49739132  1
  Sc  Sc57  1  0.30571448  0.90858117  0.30454387  1
  Sc  Sc58  1  0.69580036  0.89933204  0.51224308  1
  Sc  Sc59  1  0.09692794  0.30190330  0.70136535  1
  Sc  Sc60  1  0.10013498  0.69595466  0.50904443  1
  Sc  Sc61  1  0.10307068  0.29991521  0.30009417  1
  Sc  Sc62  1  0.50787893  0.69934628  0.69966027  1
  Sc  Sc63  1  0.69732787  0.29452415  0.50309089  1
  Sc  Sc64  1  0.30030971  0.29439410  0.29938362  1
  Sc  Sc65  1  0.90450445  0.69408935  0.70412923  1
  Sc  Sc66  1  0.30592639  0.10055704  0.29819777  1
  Sc  Sc67  1  0.10955934  0.10065491  0.90166426  1
  Sc  Sc68  1  0.50277989  0.90721724  0.69783089  1
  Sc  Sc69  1  0.29458085  0.70326224  0.69626470  1
  Sc  Sc70  1  0.09602761  0.10734127  0.70326351  1
  Sc  Sc71  1  0.69262607  0.09528939  0.90027662  1
  Sc  Sc72  1  0.09586831  0.70159472  0.70020516  1
  Sc  Sc73  1  0.69420238  0.69981850  0.09544140  1
  Sc  Sc74  1  0.90214452  0.69153253  0.29749820  1
  Sc  Sc75  1  0.30680938  0.10036666  0.09648732  1
  Sc  Sc76  1  0.90740166  0.49555198  0.70639637  1
  Sc  Sc77  1  0.50148953  0.91048236  0.29719846  1
  Sc  Sc78  1  0.90483884  0.69994049  0.50246068  1
  Sc  Sc79  1  0.29795888  0.30026087  0.10181349  1
  Sc  Sc80  1  0.09935324  0.89066672  0.70341934  1
  Sc  Sc81  1  0.69716750  0.70162194  0.69732285  1
  Sc  Sc82  1  0.28786830  0.49120051  0.51249437  1
  Sc  Sc83  1  0.90509063  0.10419419  0.10394900  1
  Sc  Sc84  1  0.90044791  0.10547028  0.50509373  1
  Sc  Sc85  1  0.30742578  0.50130230  0.28948351  1
  Sc  Sc86  1  0.09629959  0.90861316  0.09791114  1
  Sc  Sc87  1  0.30039358  0.10890395  0.49361271  1
  Sc  Sc88  1  0.50432415  0.90648028  0.90505381  1
  Sc  Sc89  1  0.10701995  0.68753605  0.09280240  1
  Sc  Sc90  1  0.30264055  0.90135060  0.70109087  1
  Sc  Sc91  1  0.49655931  0.71005279  0.10111733  1
  Sc  Sc92  1  0.69782201  0.10103268  0.49947367  1
  Sc  Sc93  1  0.49733691  0.09682261  0.09798391  1
  Sc  Sc94  1  0.68715358  0.88966471  0.10810816  1
  Sc  Sc95  1  0.90598516  0.69591910  0.89864574  1
  Sc  Sc96  1  0.49582260  0.90033879  0.49963952  1
  Sc  Sc97  1  0.49516812  0.29021944  0.09338546  1
  Sc  Sc98  1  0.90502145  0.88809329  0.91137411  1
  Sc  Sc99  1  0.50017407  0.50099337  0.69613871  1
  Nb  Nb100  1  0.29990006  0.30388527  0.50791613  1
  Nb  Nb101  1  0.88531928  0.29085911  0.29971457  1
  Nb  Nb102  1  0.11403303  0.30189814  0.49733505  1
  Nb  Nb103  1  0.49796509  0.69872673  0.49248602  1
  Nb  Nb104  1  0.30258288  0.10511425  0.89681017  1
  Nb  Nb105  1  0.50174222  0.10079835  0.29716177  1
  Nb  Nb106  1  0.69296601  0.29898209  0.90223327  1
  Nb  Nb107  1  0.30228052  0.50108034  0.89563260  1
  Nb  Nb108  1  0.49731227  0.30389903  0.50454707  1
  Nb  Nb109  1  0.30709307  0.89260620  0.09863746  1
  Nb  Nb110  1  0.70342289  0.29921667  0.30016792  1
  Nb  Nb111  1  0.90379495  0.50252711  0.48991934  1
  Nb  Nb112  1  0.49885723  0.29544214  0.89916007  1
  Nb  Nb113  1  0.70054753  0.90068711  0.89968677  1
  Nb  Nb114  1  0.31172990  0.30749789  0.68621080  1
  Nb  Nb115  1  0.49464187  0.68622248  0.31642724  1
  Nb  Nb116  1  0.29852522  0.30457834  0.89100566  1
  Nb  Nb117  1  0.69497676  0.89984116  0.30124518  1
  Nb  Nb118  1  0.49759229  0.30018864  0.69287794  1
  Nb  Nb119  1  0.69375501  0.09614366  0.09992499  1
  Nb  Nb120  1  0.50046466  0.10324229  0.70759918  1
  Nb  Nb121  1  0.90005167  0.50064661  0.30663408  1
  Nb  Nb122  1  0.49850739  0.49986602  0.30487294  1
  Nb  Nb123  1  0.89419585  0.10076087  0.30627703  1
  Nb  Nb124  1  0.09743474  0.30308934  0.09785528  1
  Nb  Nb125  1  -0.00181292  -0.00410021  0.80251347  1
  Nb  Nb126  1  0.79552272  0.80236793  0.80303994  1
  Nb  Nb127  1  0.79468246  0.00072880  0.20388451  1
  Nb  Nb128  1  0.60322757  0.19882507  0.20139251  1
  Nb  Nb129  1  0.59103867  0.59668489  0.20691755  1
  Nb  Nb130  1  0.79457239  -0.00445055  0.00824728  1
  Nb  Nb131  1  0.40159531  0.79877129  0.80495255  1
  Nb  Nb132  1  0.80468669  0.59074881  0.59755785  1
  Nb  Nb133  1  0.00003687  0.39366031  0.00519812  1
  Nb  Nb134  1  0.40005404  0.60594981  0.59415360  1
  Nb  Nb135  1  0.59359190  0.20452094  0.79818456  1
  Nb  Nb136  1  0.20539173  0.59886997  0.80328126  1
  Nb  Nb137  1  0.59801432  0.79697531  0.39656012  1
  Nb  Nb138  1  0.59976443  0.39758773  0.39594234  1
  Nb  Nb139  1  0.40401499  0.39884258  0.40652183  1
  Nb  Nb140  1  0.39399767  0.39767545  -0.01353915  1
  Nb  Nb141  1  0.20591189  0.80299951  0.19765939  1
  Nb  Nb142  1  0.80343664  0.39866801  0.39605493  1
  Nb  Nb143  1  -0.00357876  0.00201428  0.39877703  1
  Nb  Nb144  1  0.80293362  -0.00619733  0.39617357  1
  Nb  Nb145  1  0.59631660  0.39059261  0.80124634  1
  Nb  Nb146  1  0.19955292  0.00223521  0.59732053  1
  Nb  Nb147  1  0.40023001  0.20672543  0.79786284  1
  Nb  Nb148  1  0.79432205  0.80363717  0.39752109  1
  Nb  Nb149  1  0.20044474  0.59702461  0.40044305  1
  Pd  Pd150  1  0.60032333  0.39602964  0.20428503  1
  Pd  Pd151  1  0.19488450  0.00744452  0.40617780  1
  Pd  Pd152  1  0.79982169  0.19816525  0.59830515  1
  Pd  Pd153  1  0.59269320  0.00445363  0.59451702  1
  Pd  Pd154  1  0.19131459  -0.00074819  0.79187067  1
  Pd  Pd155  1  0.40252938  0.80281504  0.21178956  1
  Pd  Pd156  1  0.40528405  0.60078768  0.19132654  1
  Pd  Pd157  1  0.20426129  0.39598922  0.20552984  1
  Pd  Pd158  1  0.40672688  0.39647264  0.79809549  1
  Pd  Pd159  1  0.40805142  0.79599850  0.60929995  1
  Pd  Pd160  1  0.00363295  0.20275278  -0.00441087  1
  Pd  Pd161  1  0.39710982  0.20640170  0.39909141  1
  Pd  Pd162  1  0.21069701  0.40480069  0.39052480  1
  Pd  Pd163  1  -0.00446972  0.38997950  0.38824409  1
  Pd  Pd164  1  0.40222079  0.19184065  0.59964550  1
  Pd  Pd165  1  0.81604086  0.40210143  0.59308098  1
  Pd  Pd166  1  0.40540709  0.59361412  0.00894779  1
  Pd  Pd167  1  0.40474180  -0.00329706  0.80803022  1
  Pd  Pd168  1  0.20314074  0.20000173  0.19655014  1
  Pd  Pd169  1  0.80827774  -0.00901056  0.80966964  1
  Pd  Pd170  1  0.00467736  0.19857909  0.39233656  1
  Pd  Pd171  1  0.00005501  0.39660329  0.59971170  1
  Pd  Pd172  1  0.59944440  0.19576257  0.60376646  1
  Pd  Pd173  1  0.20380897  0.79886093  0.39511064  1
  Pd  Pd174  1  0.79387289  0.40162348  0.80461653  1
  Pd  Pd175  1  0.20664213  0.20369615  0.00303332  1
  Pd  Pd176  1  0.59757986  0.80544477  0.80093457  1
  Pd  Pd177  1  0.21039274  -0.00383549  0.19130204  1
  Pd  Pd178  1  0.01394988  0.78906426  0.18922028  1
  Pd  Pd179  1  0.20238152  0.20094999  0.60733435  1
  Pd  Pd180  1  0.78846114  0.18647710  0.20179469  1
  Pd  Pd181  1  0.58974463  0.39930676  -0.00529059  1
  Pd  Pd182  1  -0.00072335  0.60711780  0.19474012  1
  Pd  Pd183  1  -0.00684024  0.80058496  0.40423481  1
  Pd  Pd184  1  0.20803408  0.20649281  0.78857257  1
  Pd  Pd185  1  0.20497701  0.00212485  0.00686945  1
  Pd  Pd186  1  0.79974530  0.80183654  0.19834491  1
  Pd  Pd187  1  0.00184575  0.20158245  0.21032366  1
  Pd  Pd188  1  0.79565487  0.60604479  0.40799862  1
  Pd  Pd189  1  0.19770608  0.40490119  0.79022844  1
  Pd  Pd190  1  0.59605289  0.80358790  -0.00131580  1
  Pd  Pd191  1  0.00798160  0.00378309  0.60440528  1
  Pd  Pd192  1  -0.00697446  0.38977154  0.20528422  1
  Pd  Pd193  1  0.78850474  0.19652052  0.80316940  1
  Pd  Pd194  1  0.79759821  0.60664177  0.19245451  1
  Pd  Pd195  1  0.80650890  0.40265052  -0.00403580  1
  Pd  Pd196  1  0.80159323  0.59978039  0.00200687  1
  Pd  Pd197  1  0.20058452  0.80656704  0.60031977  1
  Pd  Pd198  1  0.39909491  0.00946472  0.59381047  1
  Pd  Pd199  1  0.79276176  0.19030190  -0.00255165  1
  Rh  Rh200  1  0.58437124  0.79006904  0.21160543  1
  Rh  Rh201  1  0.39758967  0.00475547  0.19870272  1
  Rh  Rh202  1  -0.00407430  0.00517182  -0.00693203  1
  Rh  Rh203  1  0.61059846  0.59980966  0.39527186  1
  Rh  Rh204  1  -0.00086357  0.79542745  0.60350141  1
  Rh  Rh205  1  0.38480527  0.58233786  0.41346187  1
  Rh  Rh206  1  0.40763271  0.80464444  -0.00981017  1
  Rh  Rh207  1  0.59256452  0.39949245  0.59872090  1
  Rh  Rh208  1  0.40656687  0.19585711  0.19720164  1
  Rh  Rh209  1  0.00844305  0.60427381  0.40193803  1
  Rh  Rh210  1  0.01090956  0.79485570  0.00595574  1
  Rh  Rh211  1  0.40984346  0.41305923  0.59061115  1
  Rh  Rh212  1  -0.00444864  0.01464088  0.20909245  1
  Rh  Rh213  1  0.60170567  0.00985074  0.20201009  1
  Rh  Rh214  1  -0.01236908  0.80617138  0.79678471  1
  Rh  Rh215  1  0.00377988  0.40018457  0.80798582  1
  Rh  Rh216  1  0.60186503  -0.00772244  0.40377600  1
  Rh  Rh217  1  0.39246246  0.39516354  0.19646878  1
  Rh  Rh218  1  0.20161354  0.39518424  -0.00299753  1
  Rh  Rh219  1  -0.00845560  0.59599086  0.59795663  1
  Rh  Rh220  1  0.60693832  -0.00705451  0.00523415  1
  Rh  Rh221  1  0.19662550  0.59472526  -0.01096939  1
  Rh  Rh222  1  0.79120318  0.80445054  -0.00423694  1
  Rh  Rh223  1  0.00210563  0.59055082  0.00020774  1
  Rh  Rh224  1  0.38666968  0.20764520  -0.00828497  1
  Rh  Rh225  1  0.59824825  0.21007823  0.39492543  1
  Rh  Rh226  1  0.39231978  -0.00164723  -0.00160413  1
  Rh  Rh227  1  0.59171562  0.80037320  0.59184867  1
  Rh  Rh228  1  0.20962019  0.79201912  0.80271734  1
  Rh  Rh229  1  0.79512186  0.60850413  0.79253524  1
  Rh  Rh230  1  0.59397240  0.00512044  0.80424926  1
  Rh  Rh231  1  0.60354963  0.59294269  0.79364727  1
  Rh  Rh232  1  0.00009822  0.19191956  0.80368671  1
  Rh  Rh233  1  0.60512256  0.20088937  0.00388454  1
  Rh  Rh234  1  0.79631161  0.00830929  0.59270262  1
  Rh  Rh235  1  0.20635908  0.60236768  0.60017412  1
  Rh  Rh236  1  0.00351159  0.20943360  0.60121740  1
  Rh  Rh237  1  0.19269786  0.39334657  0.60766513  1
  Rh  Rh238  1  0.20490987  0.20476149  0.39972568  1
  Rh  Rh239  1  0.40573623  0.00560368  0.40046203  1
  Rh  Rh240  1  0.80180429  0.78560638  0.60424896  1
  Rh  Rh241  1  0.59899716  0.60267777  0.60187418  1
  Rh  Rh242  1  0.19966159  0.60838153  0.20942548  1
  Rh  Rh243  1  0.80683926  0.40159031  0.20631174  1
  Rh  Rh244  1  0.01343399  0.59719093  0.80151955  1
  Rh  Rh245  1  0.59076584  0.59738210  0.01536273  1
  Rh  Rh246  1  0.41023157  0.81060592  0.39344276  1
  Rh  Rh247  1  0.39160621  0.61166907  0.78707651  1
  Rh  Rh248  1  0.19505906  0.80633253  0.01074674  1
  Rh  Rh249  1  0.79605518  0.20053799  0.40803256  1
