# generated using pymatgen
data_ZrScNbPdRh
_symmetry_space_group_name_H-M   'P 1'
_cell_length_a   16.56047487
_cell_length_b   16.57123573
_cell_length_c   16.56454037
_cell_angle_alpha   89.96505239
_cell_angle_beta   90.03677076
_cell_angle_gamma   89.98968570
_symmetry_Int_Tables_number   1
_chemical_formula_structural   ZrScNbPdRh
_chemical_formula_sum   'Zr50 Sc50 Nb50 Pd50 Rh50'
_cell_volume   4545.76409020
_cell_formula_units_Z   50
loop_
 _symmetry_equiv_pos_site_id
 _symmetry_equiv_pos_as_xyz
  1  'x, y, z'
loop_
 _atom_site_type_symbol
 _atom_site_label
 _atom_site_symmetry_multiplicity
 _atom_site_fract_x
 _atom_site_fract_y
 _atom_site_fract_z
 _atom_site_occupancy
  Zr  Zr0  1  0.89332135  0.10024403  0.30577660  1
  Zr  Zr1  1  0.91402845  0.30105142  0.90049416  1
  Zr  Zr2  1  0.50426351  0.49431718  0.09928162  1
  Zr  Zr3  1  0.10461317  0.89541871  0.30151004  1
  Zr  Zr4  1  0.29924522  0.89901586  0.10426931  1
  Zr  Zr5  1  0.10110304  0.70945906  0.89945831  1
  Zr  Zr6  1  0.30197585  0.69546325  0.50269859  1
  Zr  Zr7  1  0.49557977  0.50601964  0.69641752  1
  Zr  Zr8  1  0.30530905  0.89847313  0.29019638  1
  Zr  Zr9  1  0.49708468  0.29971742  0.11125034  1
  Zr  Zr10  1  0.70171956  0.50042073  0.09105538  1
  Zr  Zr11  1  0.09772500  0.50187543  0.70029775  1
  Zr  Zr12  1  0.70192553  0.10616544  0.29762765  1
  Zr  Zr13  1  0.09026424  0.69268537  0.30694141  1
  Zr  Zr14  1  0.69225270  0.10460385  0.90409888  1
  Zr  Zr15  1  0.49748447  0.29563418  0.49151864  1
  Zr  Zr16  1  0.30437170  0.69494149  0.69867939  1
  Zr  Zr17  1  0.29606866  0.70072493  0.90728495  1
  Zr  Zr18  1  0.49905630  0.69803890  0.89756414  1
  Zr  Zr19  1  0.30415464  0.90858706  0.49704721  1
  Zr  Zr20  1  0.49640064  0.48479191  0.29797867  1
  Zr  Zr21  1  0.90152974  0.30446723  0.09573738  1
  Zr  Zr22  1  0.50410373  0.10141766  0.70158384  1
  Zr  Zr23  1  0.89419312  0.89999497  0.08975540  1
  Zr  Zr24  1  0.50325625  0.50671782  0.90058143  1
  Zr  Zr25  1  0.89249216  0.29428571  0.30836336  1
  Zr  Zr26  1  0.89806712  0.09658578  0.10423611  1
  Zr  Zr27  1  0.31102540  0.09858129  0.50119489  1
  Zr  Zr28  1  0.89461363  0.49659302  0.90713355  1
  Zr  Zr29  1  0.09878537  0.89812522  0.70674111  1
  Zr  Zr30  1  0.90698018  0.70223687  0.91576613  1
  Zr  Zr31  1  0.09745125  0.49918240  0.11079709  1
  Zr  Zr32  1  0.29652825  0.70223517  0.10035361  1
  Zr  Zr33  1  0.30149080  0.90726408  0.69007128  1
  Zr  Zr34  1  0.69925261  0.89884893  0.69966625  1
  Zr  Zr35  1  0.69691217  0.70271498  0.49729963  1
  Zr  Zr36  1  0.09507611  0.30325701  0.09799438  1
  Zr  Zr37  1  0.49706059  0.90199480  0.10672594  1
  Zr  Zr38  1  0.10210362  0.30013031  0.71683153  1
  Zr  Zr39  1  0.10228673  0.70370078  0.50266274  1
  Zr  Zr40  1  0.09182905  0.49325662  0.89252836  1
  Zr  Zr41  1  0.49941438  0.29989418  0.68897134  1
  Zr  Zr42  1  0.70009153  0.50060839  0.69392733  1
  Zr  Zr43  1  0.70597247  0.30323612  0.90070553  1
  Zr  Zr44  1  0.70033446  0.50413028  0.89736161  1
  Zr  Zr45  1  0.69544458  0.49415020  0.30267856  1
  Zr  Zr46  1  0.50362202  0.89761978  0.90097497  1
  Zr  Zr47  1  0.10659237  0.89968821  0.50347389  1
  Zr  Zr48  1  0.49994701  0.09609654  0.90447857  1
  Zr  Zr49  1  0.69772185  0.90145393  0.10113087  1
  Sc  Sc50  1  0.31121844  0.30924175  0.29866282  1
  Sc  Sc51  1  0.10293834  0.69160062  0.09564994  1
  Sc  Sc52  1  0.70125803  0.49300817  0.50137857  1
  Sc  Sc53  1  0.70129743  0.09600320  0.10598850  1
  Sc  Sc54  1  0.50047054  0.49366363  0.49480916  1
  Sc  Sc55  1  0.49377238  0.70803163  0.70534507  1
  Sc  Sc56  1  0.50484151  0.28237423  0.89993977  1
  Sc  Sc57  1  0.50943015  0.70099908  0.10262943  1
  Sc  Sc58  1  0.29835566  0.70357493  0.29684201  1
  Sc  Sc59  1  0.09948138  0.10519627  0.69844869  1
  Sc  Sc60  1  0.10117630  0.90892986  0.10531594  1
  Sc  Sc61  1  0.69367045  0.90143439  0.50522680  1
  Sc  Sc62  1  0.30940799  0.08933719  0.30403280  1
  Sc  Sc63  1  0.70744239  0.30981794  0.49222325  1
  Sc  Sc64  1  0.70657076  0.69890542  0.70006886  1
  Sc  Sc65  1  0.09444991  0.09786374  0.89439051  1
  Sc  Sc66  1  0.29154018  0.29275629  0.88622613  1
  Sc  Sc67  1  0.30544149  0.50513669  0.49676163  1
  Sc  Sc68  1  0.29099615  0.50701967  0.10061222  1
  Sc  Sc69  1  0.08814135  0.08782214  0.30523547  1
  Sc  Sc70  1  0.91056693  0.90324965  0.29042634  1
  Sc  Sc71  1  0.29536770  0.10784339  0.69604150  1
  Sc  Sc72  1  0.49870616  0.10722639  0.09554491  1
  Sc  Sc73  1  0.09336485  0.28900926  0.50109819  1
  Sc  Sc74  1  0.90635766  0.69807884  0.50200429  1
  Sc  Sc75  1  0.28386226  0.90128418  0.90425207  1
  Sc  Sc76  1  0.89890544  0.90253514  0.70654482  1
  Sc  Sc77  1  0.88976190  0.90204911  0.50254102  1
  Sc  Sc78  1  0.89521832  0.50784524  0.70067797  1
  Sc  Sc79  1  0.30732030  0.29634421  0.50138175  1
  Sc  Sc80  1  0.69035812  0.90711381  0.29338919  1
  Sc  Sc81  1  0.29905316  0.50978396  0.89860984  1
  Sc  Sc82  1  0.69269647  0.29497110  0.10318040  1
  Sc  Sc83  1  0.70364129  0.29700174  0.69460395  1
  Sc  Sc84  1  0.11067301  0.51458833  0.49258466  1
  Sc  Sc85  1  0.30092097  0.08711800  0.09805853  1
  Sc  Sc86  1  0.90292341  0.08977112  0.89912412  1
  Sc  Sc87  1  0.51231923  0.69972534  0.30125590  1
  Sc  Sc88  1  0.90347299  0.29030569  0.69853511  1
  Sc  Sc89  1  0.10598695  0.31512109  0.29718863  1
  Sc  Sc90  1  0.30168078  0.30073030  0.10830757  1
  Sc  Sc91  1  0.90320017  0.69825617  0.69677714  1
  Sc  Sc92  1  0.29131748  0.49795232  0.30407034  1
  Sc  Sc93  1  0.30062934  0.09703689  0.90167395  1
  Sc  Sc94  1  0.89876073  0.10139168  0.70243613  1
  Sc  Sc95  1  0.10013491  0.10071111  0.49844802  1
  Sc  Sc96  1  0.89761979  0.29043632  0.49950220  1
  Sc  Sc97  1  0.70201547  0.90382256  0.91236727  1
  Sc  Sc98  1  0.91015676  0.51170348  0.29269510  1
  Sc  Sc99  1  0.70311826  0.09800864  0.70567052  1
  Nb  Nb100  1  0.70310419  0.29904201  0.29554991  1
  Nb  Nb101  1  0.89921788  0.50458413  0.09702967  1
  Nb  Nb102  1  0.10129566  0.69910868  0.69620899  1
  Nb  Nb103  1  0.90515821  0.10363125  0.49554367  1
  Nb  Nb104  1  0.49752820  0.90435019  0.50732981  1
  Nb  Nb105  1  0.10281188  0.50318178  0.30179173  1
  Nb  Nb106  1  0.50071016  0.09936218  0.49426947  1
  Nb  Nb107  1  0.29815475  0.50060987  0.69897428  1
  Nb  Nb108  1  0.69866615  0.70152622  0.90965646  1
  Nb  Nb109  1  0.70344951  0.09355076  0.49475004  1
  Nb  Nb110  1  0.70033790  0.69934860  0.29710209  1
  Nb  Nb111  1  0.70531531  0.70077197  0.10078949  1
  Nb  Nb112  1  0.09815978  0.10485687  0.10492851  1
  Nb  Nb113  1  0.50098555  0.70188844  0.49861789  1
  Nb  Nb114  1  0.29727090  0.30489149  0.69952503  1
  Nb  Nb115  1  0.49627953  0.89916505  0.29833635  1
  Nb  Nb116  1  0.50279798  0.10839104  0.31589665  1
  Nb  Nb117  1  0.09740981  0.29979768  0.90182422  1
  Nb  Nb118  1  0.49891194  0.90270479  0.69978147  1
  Nb  Nb119  1  0.90852961  0.89426896  0.90020980  1
  Nb  Nb120  1  0.50640985  0.29567230  0.29762838  1
  Nb  Nb121  1  0.89703844  0.68823120  0.10473981  1
  Nb  Nb122  1  0.08532951  0.89673184  0.89455578  1
  Nb  Nb123  1  0.89489474  0.49726010  0.49667594  1
  Nb  Nb124  1  0.89963836  0.70080674  0.29931474  1
  Nb  Nb125  1  -0.00218905  0.00291980  0.59716083  1
  Nb  Nb126  1  0.40364153  -0.00484287  0.79657806  1
  Nb  Nb127  1  0.39854336  0.80132501  0.00373116  1
  Nb  Nb128  1  0.79778522  0.79443410  0.38840622  1
  Nb  Nb129  1  0.39616822  0.39692505  -0.00688365  1
  Nb  Nb130  1  0.80037117  0.79005225  0.20004831  1
  Nb  Nb131  1  0.00168479  0.20013842  0.20137796  1
  Nb  Nb132  1  -0.00044656  0.40794130  0.40456094  1
  Nb  Nb133  1  0.20258307  0.19932598  0.39141221  1
  Nb  Nb134  1  0.59562221  0.60504407  0.59516963  1
  Nb  Nb135  1  0.80413798  0.20035572  -0.00021256  1
  Nb  Nb136  1  0.40056009  0.40034053  0.79943668  1
  Nb  Nb137  1  0.59537288  0.40088292  0.79717676  1
  Nb  Nb138  1  0.40989488  0.80438333  0.40340210  1
  Nb  Nb139  1  0.00321665  0.40383009  0.59543749  1
  Nb  Nb140  1  0.60243491  0.19148715  0.58673888  1
  Nb  Nb141  1  0.40270019  0.59882240  0.20139872  1
  Nb  Nb142  1  0.19510001  0.60430207  0.79345716  1
  Nb  Nb143  1  0.80062264  0.40246335  0.19870774  1
  Nb  Nb144  1  0.80304608  0.79911038  0.81443211  1
  Nb  Nb145  1  0.19155489  0.20212307  0.00408590  1
  Nb  Nb146  1  0.19840839  0.39899527  0.60526629  1
  Nb  Nb147  1  0.19541121  0.19379849  0.20257190  1
  Nb  Nb148  1  0.19852873  0.39527242  -0.00553632  1
  Nb  Nb149  1  0.80072756  0.60446673  0.39494600  1
  Pd  Pd150  1  0.80378035  0.61168088  0.80861212  1
  Pd  Pd151  1  0.79344145  0.19372691  0.59364532  1
  Pd  Pd152  1  0.60398325  0.60344695  0.79063018  1
  Pd  Pd153  1  0.20084672  0.00656279  0.39687290  1
  Pd  Pd154  1  0.59696484  -0.00485066  0.39964574  1
  Pd  Pd155  1  0.20093694  0.20540330  0.59285132  1
  Pd  Pd156  1  0.79879061  -0.00730678  0.80928249  1
  Pd  Pd157  1  0.60062902  -0.00453391  0.80241996  1
  Pd  Pd158  1  -0.00436553  -0.01011294  0.40939134  1
  Pd  Pd159  1  0.81130878  0.39574118  0.60564991  1
  Pd  Pd160  1  0.41114934  0.01302929  0.20270235  1
  Pd  Pd161  1  0.38918386  0.81053355  0.80867291  1
  Pd  Pd162  1  0.20567032  0.79758532  0.79330936  1
  Pd  Pd163  1  0.00614202  0.00221655  0.00118470  1
  Pd  Pd164  1  0.59996942  0.81087418  0.39671268  1
  Pd  Pd165  1  0.80431545  0.79714363  0.60055140  1
  Pd  Pd166  1  0.38495052  0.20717634  0.00021292  1
  Pd  Pd167  1  0.20271718  0.00576258  0.79848505  1
  Pd  Pd168  1  0.21095982  0.79757991  0.39984765  1
  Pd  Pd169  1  0.60288756  0.59249017  0.40604814  1
  Pd  Pd170  1  -0.00067519  0.60734043  0.80314990  1
  Pd  Pd171  1  0.80447638  0.19806069  0.80895412  1
  Pd  Pd172  1  0.59526045  0.79873562  0.00418199  1
  Pd  Pd173  1  0.18729104  0.79342835  0.19682549  1
  Pd  Pd174  1  0.80078126  0.39712908  0.79149088  1
  Pd  Pd175  1  0.59568084  0.79491252  0.60654936  1
  Pd  Pd176  1  -0.00569188  0.80918027  0.60345322  1
  Pd  Pd177  1  0.00013355  0.59388007  0.59233909  1
  Pd  Pd178  1  -0.00062729  0.79414468  0.19074885  1
  Pd  Pd179  1  0.61252660  0.20654355  0.40365361  1
  Pd  Pd180  1  0.59146225  0.38928791  -0.00777207  1
  Pd  Pd181  1  0.80578361  0.00704775  0.60052921  1
  Pd  Pd182  1  0.59963506  0.00535730  0.59980437  1
  Pd  Pd183  1  0.58926326  0.01212626  0.20017848  1
  Pd  Pd184  1  0.79631903  0.59458279  0.20463606  1
  Pd  Pd185  1  0.39410351  0.19145624  0.20634687  1
  Pd  Pd186  1  0.79814522  -0.01060953  0.39338342  1
  Pd  Pd187  1  0.40365959  0.60077799  0.01125144  1
  Pd  Pd188  1  0.20444638  0.80070808  0.60257790  1
  Pd  Pd189  1  0.40319983  0.79899953  0.59492506  1
  Pd  Pd190  1  -0.00957272  0.80751268  0.40515462  1
  Pd  Pd191  1  0.39742557  0.19785336  0.79601054  1
  Pd  Pd192  1  0.40224455  0.60605101  0.38942324  1
  Pd  Pd193  1  0.59764021  0.59658377  0.19760544  1
  Pd  Pd194  1  -0.00972830  0.39657524  0.21003764  1
  Pd  Pd195  1  0.19566581  0.39235057  0.41441047  1
  Pd  Pd196  1  0.61079114  0.79786724  0.79957118  1
  Pd  Pd197  1  0.00909904  0.80144952  0.01516846  1
  Pd  Pd198  1  0.39258061  0.40442423  0.59761241  1
  Pd  Pd199  1  0.18839868  0.00373009  -0.00273481  1
  Rh  Rh200  1  0.20105282  0.59560541  0.60396720  1
  Rh  Rh201  1  0.20964799  0.40844101  0.80261610  1
  Rh  Rh202  1  0.60666249  0.19903667  0.00797060  1
  Rh  Rh203  1  0.39251040  0.59660669  0.79822330  1
  Rh  Rh204  1  0.80047728  0.79449503  0.00333497  1
  Rh  Rh205  1  0.80603056  0.20937109  0.19097107  1
  Rh  Rh206  1  -0.00253484  0.18918273  0.00148402  1
  Rh  Rh207  1  -0.00504452  0.59553402  0.40568760  1
  Rh  Rh208  1  -0.00187333  0.00379079  0.19805545  1
  Rh  Rh209  1  -0.01484388  0.39988280  0.78761723  1
  Rh  Rh210  1  0.39158948  0.41274089  0.19007503  1
  Rh  Rh211  1  0.20201954  0.60230373  0.21054219  1
  Rh  Rh212  1  0.40809510  0.60024186  0.59544744  1
  Rh  Rh213  1  0.79827634  0.00795398  -0.00358931  1
  Rh  Rh214  1  0.60433452  0.21009135  0.78596278  1
  Rh  Rh215  1  -0.00023211  0.00037536  0.79147891  1
  Rh  Rh216  1  0.00419436  0.60438762  0.19680644  1
  Rh  Rh217  1  0.79210671  0.60185403  0.58818879  1
  Rh  Rh218  1  0.41131227  -0.00786212  0.39803591  1
  Rh  Rh219  1  0.00412287  0.41149672  0.00224079  1
  Rh  Rh220  1  0.20452663  0.60802701  0.39610159  1
  Rh  Rh221  1  0.60399831  0.60608213  0.00313466  1
  Rh  Rh222  1  0.19774558  0.00549064  0.20764198  1
  Rh  Rh223  1  0.79149977  0.19517294  0.40846890  1
  Rh  Rh224  1  0.01047250  0.20841775  0.38828672  1
  Rh  Rh225  1  0.40750463  0.00803266  0.60654429  1
  Rh  Rh226  1  0.81013725  0.41126813  0.38656052  1
  Rh  Rh227  1  0.20467760  0.39965859  0.19454167  1
  Rh  Rh228  1  0.59613104  0.19531925  0.20341430  1
  Rh  Rh229  1  0.18560117  0.58691165  -0.01289298  1
  Rh  Rh230  1  0.40523188  0.19462428  0.60140045  1
  Rh  Rh231  1  -0.00820068  0.79341427  0.79454659  1
  Rh  Rh232  1  0.41038413  0.78780118  0.20249783  1
  Rh  Rh233  1  0.59758272  0.39138384  0.39778459  1
  Rh  Rh234  1  0.39311599  0.20346851  0.39251828  1
  Rh  Rh235  1  0.19527656  0.81074388  0.00664396  1
  Rh  Rh236  1  0.40177433  -0.01110546  -0.00882274  1
  Rh  Rh237  1  0.19730410  0.19190771  0.80659105  1
  Rh  Rh238  1  0.40059476  0.39658609  0.40060223  1
  Rh  Rh239  1  0.79804079  0.60312505  -0.00329768  1
  Rh  Rh240  1  0.80143890  -0.01166371  0.20484929  1
  Rh  Rh241  1  0.18947264  0.00444963  0.60129747  1
  Rh  Rh242  1  -0.00152021  0.19518211  0.60121504  1
  Rh  Rh243  1  -0.00098908  0.19481586  0.80236856  1
  Rh  Rh244  1  0.00277496  0.59456521  0.00383414  1
  Rh  Rh245  1  0.60304116  0.39887563  0.60183923  1
  Rh  Rh246  1  0.79877458  0.39367851  0.00654530  1
  Rh  Rh247  1  0.59864290  0.00335504  0.00807978  1
  Rh  Rh248  1  0.60519612  0.80064588  0.20019902  1
  Rh  Rh249  1  0.60886030  0.39511927  0.20234133  1
