# generated using pymatgen
data_ZrScNbPdRh
_symmetry_space_group_name_H-M   'P 1'
_cell_length_a   16.56042891
_cell_length_b   16.55896528
_cell_length_c   16.55847400
_cell_angle_alpha   89.99525037
_cell_angle_beta   89.98351985
_cell_angle_gamma   89.96831217
_symmetry_Int_Tables_number   1
_chemical_formula_structural   ZrScNbPdRh
_chemical_formula_sum   'Zr50 Sc50 Nb50 Pd50 Rh50'
_cell_volume   4540.72291504
_cell_formula_units_Z   50
loop_
 _symmetry_equiv_pos_site_id
 _symmetry_equiv_pos_as_xyz
  1  'x, y, z'
loop_
 _atom_site_type_symbol
 _atom_site_label
 _atom_site_symmetry_multiplicity
 _atom_site_fract_x
 _atom_site_fract_y
 _atom_site_fract_z
 _atom_site_occupancy
  Zr  Zr0  1  0.69367085  0.90665014  0.90335867  1
  Zr  Zr1  1  0.49714018  0.09870787  0.89900318  1
  Zr  Zr2  1  0.50379019  0.90698350  0.50332334  1
  Zr  Zr3  1  0.50370455  0.50924009  0.09799627  1
  Zr  Zr4  1  0.70498920  0.50371052  0.09641217  1
  Zr  Zr5  1  0.90233784  0.90478708  0.09471919  1
  Zr  Zr6  1  0.50582129  0.69893763  0.29086915  1
  Zr  Zr7  1  0.10315905  0.30648491  0.89777594  1
  Zr  Zr8  1  0.69708118  0.90067173  0.50110372  1
  Zr  Zr9  1  0.49598313  0.09857117  0.10340036  1
  Zr  Zr10  1  0.90036546  0.09782619  0.91299178  1
  Zr  Zr11  1  0.10201156  0.49647319  0.70182545  1
  Zr  Zr12  1  0.09985440  0.90375570  0.69798617  1
  Zr  Zr13  1  0.30091409  0.50369381  0.29712916  1
  Zr  Zr14  1  0.90195092  0.70618595  0.30798347  1
  Zr  Zr15  1  0.90381442  0.29347229  0.29912934  1
  Zr  Zr16  1  0.69880581  0.30188381  0.51084064  1
  Zr  Zr17  1  0.49866402  0.10004009  0.49980049  1
  Zr  Zr18  1  0.31165779  0.30086886  0.90380234  1
  Zr  Zr19  1  0.09941889  0.09946362  0.29525836  1
  Zr  Zr20  1  0.69106263  0.10301999  0.50343330  1
  Zr  Zr21  1  0.49538354  0.71004407  0.70363882  1
  Zr  Zr22  1  0.89891277  0.30481375  0.90427212  1
  Zr  Zr23  1  0.69599672  0.89541808  0.70359133  1
  Zr  Zr24  1  0.30316381  0.30110684  0.69868480  1
  Zr  Zr25  1  0.30413459  0.09694851  0.90157213  1
  Zr  Zr26  1  0.49943022  0.89741045  0.89019612  1
  Zr  Zr27  1  0.90120717  0.30670294  0.69774724  1
  Zr  Zr28  1  0.69774282  0.51127698  0.30485687  1
  Zr  Zr29  1  0.50386093  0.29294486  0.49689311  1
  Zr  Zr30  1  0.09747662  0.29305618  0.10764432  1
  Zr  Zr31  1  0.69593870  0.90428341  0.10755004  1
  Zr  Zr32  1  0.89531479  0.50015965  0.09591180  1
  Zr  Zr33  1  0.90484974  0.89113061  0.50153890  1
  Zr  Zr34  1  0.89039442  0.50580343  0.90507220  1
  Zr  Zr35  1  0.29871775  0.51098071  0.50287887  1
  Zr  Zr36  1  0.89956642  0.09080847  0.71142719  1
  Zr  Zr37  1  0.30451593  0.29386047  0.10495390  1
  Zr  Zr38  1  0.30565126  0.29337212  0.50079614  1
  Zr  Zr39  1  0.49121395  0.71592583  0.50679782  1
  Zr  Zr40  1  0.70290553  0.10045861  0.89813350  1
  Zr  Zr41  1  0.90232906  0.08606846  0.49869222  1
  Zr  Zr42  1  0.31375032  0.89008708  0.48907209  1
  Zr  Zr43  1  0.29553530  0.51040461  0.70297718  1
  Zr  Zr44  1  0.70590549  0.68710852  0.49887230  1
  Zr  Zr45  1  0.10783635  0.69376457  0.69787251  1
  Zr  Zr46  1  0.50602806  0.49594552  0.29762801  1
  Zr  Zr47  1  0.89608417  0.89400626  0.69492187  1
  Zr  Zr48  1  0.69578512  0.70223415  0.11054328  1
  Zr  Zr49  1  0.89537433  0.91411924  0.88946434  1
  Sc  Sc50  1  0.70024323  0.69945362  0.90497291  1
  Sc  Sc51  1  0.89513447  0.69682584  0.90510771  1
  Sc  Sc52  1  0.50125203  0.10254343  0.30095152  1
  Sc  Sc53  1  0.89569125  0.89827893  0.30147286  1
  Sc  Sc54  1  0.29849815  0.90161704  0.10152405  1
  Sc  Sc55  1  0.10217648  0.69869859  0.90543880  1
  Sc  Sc56  1  0.49670253  0.29980880  0.10723064  1
  Sc  Sc57  1  0.70118110  0.09805994  0.10257548  1
  Sc  Sc58  1  0.30471484  0.10044809  0.29472416  1
  Sc  Sc59  1  0.10706367  0.90106741  0.89570595  1
  Sc  Sc60  1  0.89447384  0.31657697  0.50316181  1
  Sc  Sc61  1  0.10242151  0.50565320  0.89467149  1
  Sc  Sc62  1  0.30059816  0.90301076  0.71234038  1
  Sc  Sc63  1  0.49604098  0.90144721  0.09624254  1
  Sc  Sc64  1  0.30485452  0.10093834  0.70112218  1
  Sc  Sc65  1  0.90490047  0.70049213  0.09804495  1
  Sc  Sc66  1  0.69067307  0.49938355  0.69159083  1
  Sc  Sc67  1  0.09776268  0.69877223  0.49018615  1
  Sc  Sc68  1  0.90197457  0.49153496  0.31533361  1
  Sc  Sc69  1  0.11186566  0.08991310  0.69362570  1
  Sc  Sc70  1  0.50088452  0.70163217  0.09407160  1
  Sc  Sc71  1  0.48952504  0.49621889  0.90174218  1
  Sc  Sc72  1  0.09738606  0.70288644  0.30236853  1
  Sc  Sc73  1  0.29873128  0.09284910  0.10055549  1
  Sc  Sc74  1  0.69951337  0.29558303  0.89117800  1
  Sc  Sc75  1  0.30075889  0.90178996  0.90255119  1
  Sc  Sc76  1  0.09936738  0.30853447  0.70136123  1
  Sc  Sc77  1  0.89414479  0.29379615  0.10271782  1
  Sc  Sc78  1  0.08960245  0.50836688  0.49043640  1
  Sc  Sc79  1  0.09902923  0.89062453  0.29365993  1
  Sc  Sc80  1  0.29935765  0.49845751  0.89610614  1
  Sc  Sc81  1  0.10133679  0.30040996  0.29449481  1
  Sc  Sc82  1  0.50181851  0.29755071  0.70866709  1
  Sc  Sc83  1  0.11092809  0.28927968  0.50029970  1
  Sc  Sc84  1  0.70151396  0.70503113  0.69904909  1
  Sc  Sc85  1  0.69066994  0.30094661  0.29448757  1
  Sc  Sc86  1  0.69511696  0.08995420  0.29536364  1
  Sc  Sc87  1  0.29258332  0.70854971  0.30643627  1
  Sc  Sc88  1  0.70560542  0.29897588  0.10158697  1
  Sc  Sc89  1  0.29988038  0.70264960  0.89251876  1
  Sc  Sc90  1  0.30983798  0.50098657  0.09613617  1
  Sc  Sc91  1  0.49323177  0.49533873  0.70362432  1
  Sc  Sc92  1  0.49815111  0.09916372  0.70074277  1
  Sc  Sc93  1  0.29773315  0.70669140  0.09381420  1
  Sc  Sc94  1  0.89396570  0.09225111  0.29520232  1
  Sc  Sc95  1  0.52002843  0.49592232  0.50079496  1
  Sc  Sc96  1  0.29946227  0.10845029  0.50765761  1
  Sc  Sc97  1  0.10833483  0.89159432  0.09973457  1
  Sc  Sc98  1  0.29778642  0.90101375  0.29112455  1
  Sc  Sc99  1  0.09550318  0.70504704  0.09361669  1
  Nb  Nb100  1  0.30092388  0.69619939  0.68667017  1
  Nb  Nb101  1  0.09851495  0.90980683  0.50506532  1
  Nb  Nb102  1  0.50484793  0.70197513  0.89850292  1
  Nb  Nb103  1  0.70432196  0.29392557  0.70207035  1
  Nb  Nb104  1  0.10008917  0.09461488  0.50298254  1
  Nb  Nb105  1  0.90192198  0.09922181  0.09866798  1
  Nb  Nb106  1  0.09582126  0.10090298  0.09819683  1
  Nb  Nb107  1  0.89927129  0.70080771  0.69231523  1
  Nb  Nb108  1  0.49620656  0.90188698  0.30608294  1
  Nb  Nb109  1  0.70188166  0.11842618  0.69981548  1
  Nb  Nb110  1  0.70938110  0.49522786  0.49400579  1
  Nb  Nb111  1  0.10114779  0.50066665  0.29925917  1
  Nb  Nb112  1  0.70022593  0.50268216  0.90320082  1
  Nb  Nb113  1  0.90507659  0.49607769  0.69565539  1
  Nb  Nb114  1  0.49858636  0.29843301  0.90291217  1
  Nb  Nb115  1  0.09886233  0.49805837  0.10189506  1
  Nb  Nb116  1  0.30123484  0.69992224  0.50325909  1
  Nb  Nb117  1  0.30794768  0.30130952  0.30268537  1
  Nb  Nb118  1  0.69967372  0.70713547  0.29818242  1
  Nb  Nb119  1  0.49513571  0.29792345  0.30057619  1
  Nb  Nb120  1  0.90159939  0.69321807  0.50463327  1
  Nb  Nb121  1  0.50387510  0.89227056  0.69723935  1
  Nb  Nb122  1  0.69661309  0.89144716  0.29761707  1
  Nb  Nb123  1  0.10031928  0.10318697  0.90169121  1
  Nb  Nb124  1  0.88727671  0.50778522  0.50316968  1
  Nb  Nb125  1  0.19256473  0.59594641  0.19819251  1
  Nb  Nb126  1  0.79684029  0.40587330  0.79498515  1
  Nb  Nb127  1  0.59991985  0.39815134  -0.00511430  1
  Nb  Nb128  1  0.80059970  0.19898229  0.40340140  1
  Nb  Nb129  1  0.40127956  0.40083998  0.39809700  1
  Nb  Nb130  1  0.40313333  0.60148668  0.40232666  1
  Nb  Nb131  1  -0.00454222  0.79308619  0.79336919  1
  Nb  Nb132  1  0.00209935  0.00278127  0.18985397  1
  Nb  Nb133  1  0.00461605  0.40279009  0.00447456  1
  Nb  Nb134  1  0.19776365  0.19949283  0.80521433  1
  Nb  Nb135  1  0.20704341  0.40074972  0.39743524  1
  Nb  Nb136  1  0.00570408  0.19452575  0.80144828  1
  Nb  Nb137  1  0.79451377  0.00163022  0.60403620  1
  Nb  Nb138  1  0.00044471  0.19355068  0.60024089  1
  Nb  Nb139  1  0.19650339  0.39895387  0.00766017  1
  Nb  Nb140  1  0.59730341  0.60048076  0.80662098  1
  Nb  Nb141  1  0.20572446  0.79900106  0.59466900  1
  Nb  Nb142  1  0.20400124  0.40494639  0.59296441  1
  Nb  Nb143  1  0.19518327  0.00053493  0.40527938  1
  Nb  Nb144  1  0.60226447  0.80022391  0.39462776  1
  Nb  Nb145  1  -0.01013225  0.60202754  0.79124209  1
  Nb  Nb146  1  -0.00281729  0.19380810  0.40673669  1
  Nb  Nb147  1  0.59525735  0.20339658  -0.00270573  1
  Nb  Nb148  1  0.79700953  0.80862988  0.00255233  1
  Nb  Nb149  1  0.00414664  0.59251842  0.20278883  1
  Pd  Pd150  1  0.40410287  0.60478644  0.80441940  1
  Pd  Pd151  1  0.39123541  0.00953582  0.39789937  1
  Pd  Pd152  1  0.81194854  0.60056246  0.20928155  1
  Pd  Pd153  1  0.59317463  0.60681458  0.60733950  1
  Pd  Pd154  1  0.40341499  0.40153471  0.19941795  1
  Pd  Pd155  1  0.60049242  0.00728858  0.79164150  1
  Pd  Pd156  1  0.60295694  0.80070342  0.00240640  1
  Pd  Pd157  1  0.19289635  0.80882013  0.40576906  1
  Pd  Pd158  1  -0.00526418  0.80753651  -0.01559812  1
  Pd  Pd159  1  0.59143596  -0.00288808  0.20381715  1
  Pd  Pd160  1  0.01099573  0.39700009  0.58565671  1
  Pd  Pd161  1  0.79022403  0.00131490  0.40182457  1
  Pd  Pd162  1  0.79599711  0.79663197  0.40727038  1
  Pd  Pd163  1  -0.00150996  0.20806015  -0.00075909  1
  Pd  Pd164  1  0.60775371  0.20051287  0.39205371  1
  Pd  Pd165  1  0.79524066  0.19325869  0.20547914  1
  Pd  Pd166  1  0.39829763  0.80247315  -0.00500055  1
  Pd  Pd167  1  0.60431761  0.00611572  0.61296274  1
  Pd  Pd168  1  0.60309451  0.40518769  0.80543890  1
  Pd  Pd169  1  0.00253098  0.59832625  0.59931104  1
  Pd  Pd170  1  0.39009854  0.61308935  0.20257772  1
  Pd  Pd171  1  -0.00875408  0.40400463  0.19682104  1
  Pd  Pd172  1  0.20549190  0.40319340  0.19914193  1
  Pd  Pd173  1  0.20410454  0.20270294  -0.00159567  1
  Pd  Pd174  1  0.19740078  -0.00235437  0.00203823  1
  Pd  Pd175  1  0.00652659  -0.00541800  0.38696023  1
  Pd  Pd176  1  0.20302653  0.59512400  0.00465695  1
  Pd  Pd177  1  0.39650125  0.60579576  -0.00792753  1
  Pd  Pd178  1  0.79600717  0.59501438  0.61032574  1
  Pd  Pd179  1  0.39524164  -0.00391144  0.60513182  1
  Pd  Pd180  1  0.21839425  -0.01019048  0.59173423  1
  Pd  Pd181  1  0.19771207  0.19664375  0.39257196  1
  Pd  Pd182  1  0.40048602  0.40367140  0.59428165  1
  Pd  Pd183  1  0.79048243  0.39048987  0.39306393  1
  Pd  Pd184  1  0.80906041  0.80219698  0.19333374  1
  Pd  Pd185  1  0.59819880  0.39342319  0.60690359  1
  Pd  Pd186  1  0.79521729  0.59610821  0.78972732  1
  Pd  Pd187  1  0.80190102  0.79572466  0.80951456  1
  Pd  Pd188  1  0.80146800  0.40259880  0.20980138  1
  Pd  Pd189  1  0.81132799  0.20529798  0.80435713  1
  Pd  Pd190  1  0.01168110  0.79354030  0.59866679  1
  Pd  Pd191  1  0.01345751  -0.00809679  0.00108404  1
  Pd  Pd192  1  0.20671719  0.19526152  0.20231249  1
  Pd  Pd193  1  0.41533389  0.59349902  0.59442372  1
  Pd  Pd194  1  0.60186201  0.39926743  0.19072448  1
  Pd  Pd195  1  0.19929673  0.79548057  0.79581399  1
  Pd  Pd196  1  0.01144382  0.38901501  0.40734338  1
  Pd  Pd197  1  0.39851386  0.80002953  0.19966795  1
  Pd  Pd198  1  0.81232108  0.19436063  0.59277048  1
  Pd  Pd199  1  0.59310729  0.60909673  0.40405468  1
  Rh  Rh200  1  0.59880828  0.59569370  -0.00682365  1
  Rh  Rh201  1  -0.00185048  0.79897386  0.20072205  1
  Rh  Rh202  1  0.19231611  0.00089626  0.20255541  1
  Rh  Rh203  1  0.80534065  0.60278546  0.39425956  1
  Rh  Rh204  1  0.59710132  0.00987506  0.00161937  1
  Rh  Rh205  1  0.19948281  0.78731794  0.19474497  1
  Rh  Rh206  1  -0.01357607  0.41081724  0.81155042  1
  Rh  Rh207  1  0.40268656  -0.00369933  0.20245351  1
  Rh  Rh208  1  0.20412604  0.80112832  -0.00410396  1
  Rh  Rh209  1  0.59199713  0.20413544  0.60951785  1
  Rh  Rh210  1  0.40050211  0.19547208  0.20197611  1
  Rh  Rh211  1  0.59699910  0.20028456  0.19466821  1
  Rh  Rh212  1  -0.00968082  0.60044751  0.39525264  1
  Rh  Rh213  1  0.00082178  0.59210805  -0.00055587  1
  Rh  Rh214  1  0.39580626  0.79912475  0.79908272  1
  Rh  Rh215  1  0.18948668  0.60133997  0.59007304  1
  Rh  Rh216  1  0.60771378  0.79419408  0.59238030  1
  Rh  Rh217  1  0.39818571  0.39921688  0.79927254  1
  Rh  Rh218  1  0.80626701  -0.00462238  0.19808447  1
  Rh  Rh219  1  0.21259088  0.39556730  0.79970248  1
  Rh  Rh220  1  0.79292669  0.19810895  0.00293623  1
  Rh  Rh221  1  0.01087138  0.00037095  0.80105401  1
  Rh  Rh222  1  0.20539800  0.59808060  0.39346061  1
  Rh  Rh223  1  0.40822312  0.79186393  0.38733361  1
  Rh  Rh224  1  0.40136236  0.19881468  0.39734628  1
  Rh  Rh225  1  0.79089043  0.39184413  -0.00824479  1
  Rh  Rh226  1  0.60138480  0.39448016  0.39958087  1
  Rh  Rh227  1  0.40837664  0.19783667  0.60338421  1
  Rh  Rh228  1  0.38964918  0.81153775  0.61261963  1
  Rh  Rh229  1  0.40602723  0.19671388  0.00542077  1
  Rh  Rh230  1  0.79253154  0.61603638  0.00889084  1
  Rh  Rh231  1  0.00235206  0.80246329  0.40576482  1
  Rh  Rh232  1  0.78475988  0.00224255  0.79029597  1
  Rh  Rh233  1  0.60296462  0.79235426  0.80269882  1
  Rh  Rh234  1  0.39602968  0.19954925  0.79922362  1
  Rh  Rh235  1  0.60060770  -0.00687592  0.39293459  1
  Rh  Rh236  1  0.58797950  0.80957603  0.20386247  1
  Rh  Rh237  1  -0.00651245  0.00275174  0.60810499  1
  Rh  Rh238  1  0.19275712  0.20674724  0.61469401  1
  Rh  Rh239  1  -0.00602087  0.18985405  0.20395746  1
  Rh  Rh240  1  0.79275227  0.40967840  0.60806771  1
  Rh  Rh241  1  0.39959833  -0.00402081  -0.00022584  1
  Rh  Rh242  1  0.79282625  -0.00102056  0.00760921  1
  Rh  Rh243  1  0.60326369  0.59843653  0.19741092  1
  Rh  Rh244  1  0.19826386  0.60611443  0.80372140  1
  Rh  Rh245  1  0.79536202  0.80095327  0.59186838  1
  Rh  Rh246  1  0.40581007  -0.00562384  0.79667067  1
  Rh  Rh247  1  0.20096980  0.00974118  0.80617283  1
  Rh  Rh248  1  0.40189325  0.40016869  0.00562688  1
  Rh  Rh249  1  0.59621735  0.19766779  0.80319686  1
