# generated using pymatgen
data_ZrScNbPdRh
_symmetry_space_group_name_H-M   'P 1'
_cell_length_a   16.55883231
_cell_length_b   16.55464045
_cell_length_c   16.55854643
_cell_angle_alpha   90.00100226
_cell_angle_beta   90.05149347
_cell_angle_gamma   89.98116957
_symmetry_Int_Tables_number   1
_chemical_formula_structural   ZrScNbPdRh
_chemical_formula_sum   'Zr50 Sc50 Nb50 Pd50 Rh50'
_cell_volume   4539.11799048
_cell_formula_units_Z   50
loop_
 _symmetry_equiv_pos_site_id
 _symmetry_equiv_pos_as_xyz
  1  'x, y, z'
loop_
 _atom_site_type_symbol
 _atom_site_label
 _atom_site_symmetry_multiplicity
 _atom_site_fract_x
 _atom_site_fract_y
 _atom_site_fract_z
 _atom_site_occupancy
  Zr  Zr0  1  0.70230583  0.70882167  0.70000199  1
  Zr  Zr1  1  0.29945525  0.90437901  0.68225143  1
  Zr  Zr2  1  0.09392146  0.89483924  0.29498110  1
  Zr  Zr3  1  0.69347315  0.49823296  0.29705813  1
  Zr  Zr4  1  0.90651427  0.49384367  0.50034532  1
  Zr  Zr5  1  0.09634460  0.50479915  0.10451353  1
  Zr  Zr6  1  0.29005700  0.72126879  0.49769905  1
  Zr  Zr7  1  0.89954647  0.29982832  0.49829991  1
  Zr  Zr8  1  0.49692435  0.49483836  0.30805949  1
  Zr  Zr9  1  0.29687449  0.49724554  0.09579497  1
  Zr  Zr10  1  0.09533544  0.69184304  0.70147469  1
  Zr  Zr11  1  0.29646664  0.09404586  0.50703127  1
  Zr  Zr12  1  0.70419321  0.10076865  0.90966139  1
  Zr  Zr13  1  0.69437756  0.89537233  0.89762461  1
  Zr  Zr14  1  0.49519318  0.49974850  0.69699151  1
  Zr  Zr15  1  0.29909854  0.69733960  0.69987484  1
  Zr  Zr16  1  0.70433294  0.09790556  0.50563241  1
  Zr  Zr17  1  0.70855598  0.10127094  0.10118833  1
  Zr  Zr18  1  0.49726535  0.10090064  0.71080444  1
  Zr  Zr19  1  0.69330933  0.10465386  0.70117187  1
  Zr  Zr20  1  0.10455730  0.69710401  0.29889049  1
  Zr  Zr21  1  0.09558201  0.30126256  0.09678752  1
  Zr  Zr22  1  0.68914642  0.68810946  0.09528078  1
  Zr  Zr23  1  0.90449472  0.10804552  0.09523066  1
  Zr  Zr24  1  0.50266172  0.90254381  0.29479265  1
  Zr  Zr25  1  0.09823753  0.29897759  0.69820813  1
  Zr  Zr26  1  0.29812518  0.70365110  0.91297662  1
  Zr  Zr27  1  0.49604029  0.30988217  0.49413947  1
  Zr  Zr28  1  0.90598556  0.89486361  0.88946028  1
  Zr  Zr29  1  0.10989149  0.89398393  0.50576621  1
  Zr  Zr30  1  0.50680657  0.10108958  0.10492729  1
  Zr  Zr31  1  0.70005437  0.29228095  0.10873817  1
  Zr  Zr32  1  0.29991853  0.50195672  0.70448615  1
  Zr  Zr33  1  0.91212077  0.68886862  0.10192216  1
  Zr  Zr34  1  0.69629181  0.90471785  0.09853761  1
  Zr  Zr35  1  0.50252445  0.30290692  0.70151421  1
  Zr  Zr36  1  0.30243768  0.89463234  0.08301627  1
  Zr  Zr37  1  0.09346890  0.09811388  0.89909784  1
  Zr  Zr38  1  0.10505984  0.29821604  0.88708570  1
  Zr  Zr39  1  0.89054868  0.49464390  0.90580327  1
  Zr  Zr40  1  0.69933123  0.90024972  0.69680731  1
  Zr  Zr41  1  0.29636427  0.49584024  0.49726210  1
  Zr  Zr42  1  0.89735035  0.89883001  0.30038284  1
  Zr  Zr43  1  0.49648891  0.90664521  0.90674465  1
  Zr  Zr44  1  0.50033149  0.69531147  0.69322984  1
  Zr  Zr45  1  0.30921482  0.89629379  0.30699869  1
  Zr  Zr46  1  0.30352017  0.10053496  0.30052906  1
  Zr  Zr47  1  0.90646966  0.70490355  0.30164160  1
  Zr  Zr48  1  0.70462264  0.49733545  0.09619384  1
  Zr  Zr49  1  0.30619309  0.30360519  0.10184860  1
  Sc  Sc50  1  0.50461673  0.70330611  0.91031728  1
  Sc  Sc51  1  0.30342163  0.09740509  0.10227429  1
  Sc  Sc52  1  0.10055334  0.69678200  0.89864896  1
  Sc  Sc53  1  0.49114571  0.89739798  0.49418068  1
  Sc  Sc54  1  0.50609255  0.50438843  0.10550276  1
  Sc  Sc55  1  0.69503306  0.70688262  0.50174280  1
  Sc  Sc56  1  0.50637186  0.90717341  0.70626710  1
  Sc  Sc57  1  0.89457767  0.09969558  0.28973703  1
  Sc  Sc58  1  0.50421605  0.10250655  0.50058934  1
  Sc  Sc59  1  0.69159987  0.51067127  0.49336168  1
  Sc  Sc60  1  0.10208256  0.90216392  0.90361799  1
  Sc  Sc61  1  0.09975761  0.10723929  0.51256560  1
  Sc  Sc62  1  0.49489690  0.29797023  0.10203662  1
  Sc  Sc63  1  0.48826315  0.49642494  0.90007919  1
  Sc  Sc64  1  0.29077551  0.49221197  0.29797415  1
  Sc  Sc65  1  0.90101661  0.89398748  0.69881796  1
  Sc  Sc66  1  0.48837905  0.29786143  0.90378918  1
  Sc  Sc67  1  0.90450137  0.50359844  0.69738012  1
  Sc  Sc68  1  0.09003027  0.90820343  0.70367936  1
  Sc  Sc69  1  0.49933811  0.70448149  0.09942219  1
  Sc  Sc70  1  0.90970873  0.09748740  0.69445169  1
  Sc  Sc71  1  0.90615234  0.29951352  0.89509620  1
  Sc  Sc72  1  0.49973023  0.49979897  0.50436518  1
  Sc  Sc73  1  0.49991243  0.10025056  0.90371743  1
  Sc  Sc74  1  0.10212599  0.49429988  0.89481465  1
  Sc  Sc75  1  0.10664657  0.91073461  0.09557555  1
  Sc  Sc76  1  0.70219218  0.11254469  0.29273417  1
  Sc  Sc77  1  0.50475510  0.30238046  0.29567401  1
  Sc  Sc78  1  0.28830021  0.29965612  0.70896631  1
  Sc  Sc79  1  0.90189282  0.90722749  0.10789876  1
  Sc  Sc80  1  0.28637743  0.30084958  0.50138923  1
  Sc  Sc81  1  0.89177829  0.90092295  0.49857673  1
  Sc  Sc82  1  0.09694935  0.49309416  0.69944267  1
  Sc  Sc83  1  0.89831700  0.69596214  0.88886787  1
  Sc  Sc84  1  0.90241199  0.29706979  0.70190392  1
  Sc  Sc85  1  0.70448381  0.89505087  0.30239233  1
  Sc  Sc86  1  0.89933997  0.10039547  0.50774444  1
  Sc  Sc87  1  0.30030787  0.30930486  0.90497343  1
  Sc  Sc88  1  0.71408594  0.29525116  0.89318020  1
  Sc  Sc89  1  0.50694518  0.70606703  0.29767853  1
  Sc  Sc90  1  0.69879914  0.50428756  0.69301591  1
  Sc  Sc91  1  0.31204506  0.09985752  0.90260763  1
  Sc  Sc92  1  0.89603199  0.70032431  0.70079734  1
  Sc  Sc93  1  0.29794762  0.49931854  0.89994354  1
  Sc  Sc94  1  0.69701907  0.69622219  0.31140024  1
  Sc  Sc95  1  0.10824480  0.30068452  0.29873878  1
  Sc  Sc96  1  0.89135379  0.69838059  0.50188009  1
  Sc  Sc97  1  0.10652361  0.10414966  0.28519704  1
  Sc  Sc98  1  0.10067183  0.10691357  0.70080213  1
  Sc  Sc99  1  0.69594461  0.28901331  0.49485037  1
  Nb  Nb100  1  0.50253577  0.69445743  0.49705874  1
  Nb  Nb101  1  0.09275663  0.30822163  0.50538818  1
  Nb  Nb102  1  0.90329612  0.31423755  0.11148773  1
  Nb  Nb103  1  0.49414181  0.09642550  0.30202226  1
  Nb  Nb104  1  0.89995935  0.49079172  0.10509196  1
  Nb  Nb105  1  0.70173608  0.30009326  0.69683969  1
  Nb  Nb106  1  0.29229812  0.69698828  0.09991049  1
  Nb  Nb107  1  0.10303647  0.10250018  0.09242845  1
  Nb  Nb108  1  0.89973053  0.48802023  0.30367265  1
  Nb  Nb109  1  0.10354806  0.70196531  0.10271544  1
  Nb  Nb110  1  0.10333297  0.50418300  0.31027326  1
  Nb  Nb111  1  0.50472762  0.90074999  0.09836428  1
  Nb  Nb112  1  0.30147994  0.90155049  0.89966947  1
  Nb  Nb113  1  0.09887517  0.49402980  0.50208414  1
  Nb  Nb114  1  0.69981270  0.69570890  0.90211814  1
  Nb  Nb115  1  0.70057270  0.90133416  0.49587270  1
  Nb  Nb116  1  0.10059147  0.69575285  0.49566200  1
  Nb  Nb117  1  0.29820293  0.10094798  0.69915703  1
  Nb  Nb118  1  0.31056610  0.29693196  0.29754313  1
  Nb  Nb119  1  0.70578395  0.30198646  0.29938235  1
  Nb  Nb120  1  0.89614852  0.30725384  0.30377378  1
  Nb  Nb121  1  0.29609635  0.69754394  0.29994866  1
  Nb  Nb122  1  0.29665242  0.90559385  0.49740765  1
  Nb  Nb123  1  0.69875192  0.50214367  0.90266779  1
  Nb  Nb124  1  0.89955761  0.09696553  0.89712325  1
  Nb  Nb125  1  0.20542348  0.79469713  0.19565553  1
  Nb  Nb126  1  0.19809594  -0.00192336  0.40107716  1
  Nb  Nb127  1  0.60624742  0.39978673  -0.00692351  1
  Nb  Nb128  1  0.19446761  0.59965601  0.59237554  1
  Nb  Nb129  1  0.39464786  0.80449597  0.80207475  1
  Nb  Nb130  1  0.20617454  0.80545854  0.79948449  1
  Nb  Nb131  1  0.19540737  0.19783042  0.00220564  1
  Nb  Nb132  1  0.00387229  0.79328494  0.59694864  1
  Nb  Nb133  1  0.80798490  0.59267331  0.20166867  1
  Nb  Nb134  1  0.39635138  0.19993254  0.60132483  1
  Nb  Nb135  1  0.00005549  0.20281067  0.39799675  1
  Nb  Nb136  1  0.60511105  0.40278321  0.80248378  1
  Nb  Nb137  1  0.60292075  0.00132177  0.39849797  1
  Nb  Nb138  1  0.39690942  0.20073623  0.40061444  1
  Nb  Nb139  1  0.39295963  0.60669951  0.39771419  1
  Nb  Nb140  1  0.00612448  0.00565386  0.39970759  1
  Nb  Nb141  1  0.80089551  0.78821778  0.19234846  1
  Nb  Nb142  1  0.60382141  0.59762739  0.80560517  1
  Nb  Nb143  1  -0.00194658  0.79602507  0.00393998  1
  Nb  Nb144  1  0.80168355  0.79363178  0.00212985  1
  Nb  Nb145  1  0.79612489  0.39561190  0.59787912  1
  Nb  Nb146  1  0.21035987  -0.00068511  0.79894812  1
  Nb  Nb147  1  0.80003530  0.00304638  0.80274874  1
  Nb  Nb148  1  0.00382584  0.59171567  0.40122377  1
  Nb  Nb149  1  0.39067614  0.60517616  0.20484702  1
  Pd  Pd150  1  0.80745801  0.59852200  0.39532838  1
  Pd  Pd151  1  0.19620273  0.19648658  0.40372437  1
  Pd  Pd152  1  0.00320139  0.40022798  -0.00728707  1
  Pd  Pd153  1  0.39231821  0.20571905  0.79819757  1
  Pd  Pd154  1  0.79709211  0.59589230  0.59742877  1
  Pd  Pd155  1  0.79787898  0.40657530  0.78872447  1
  Pd  Pd156  1  -0.00218954  0.58859873  0.21184870  1
  Pd  Pd157  1  -0.00311886  0.80147470  0.41138171  1
  Pd  Pd158  1  0.19660707  0.39908644  0.20031002  1
  Pd  Pd159  1  0.40901968  0.80317580  0.60235301  1
  Pd  Pd160  1  0.80455493  -0.00300990  0.60889552  1
  Pd  Pd161  1  0.01040133  0.40183888  0.21071003  1
  Pd  Pd162  1  0.80971090  -0.01068220  -0.00466450  1
  Pd  Pd163  1  0.59361703  0.19617562  0.39180937  1
  Pd  Pd164  1  0.79930572  0.00887978  0.39457007  1
  Pd  Pd165  1  0.60792671  0.00542227  0.20882115  1
  Pd  Pd166  1  0.59989797  0.20854228  0.81129796  1
  Pd  Pd167  1  0.19185491  0.59395195  -0.00456344  1
  Pd  Pd168  1  0.58953764  0.79197095  0.80170181  1
  Pd  Pd169  1  0.80664956  0.60360033  0.00415513  1
  Pd  Pd170  1  0.19959430  0.39187473  0.39717407  1
  Pd  Pd171  1  0.20824304  -0.00931331  0.20264328  1
  Pd  Pd172  1  0.40478797  0.59689852  0.00818330  1
  Pd  Pd173  1  -0.00322140  0.20318561  0.20651140  1
  Pd  Pd174  1  0.78670219  0.40158481  0.40979454  1
  Pd  Pd175  1  0.79465023  0.59492489  0.79389316  1
  Pd  Pd176  1  0.79721831  0.38767536  0.00174360  1
  Pd  Pd177  1  0.00162173  0.00645643  0.20107643  1
  Pd  Pd178  1  0.80834889  0.19310295  0.39736973  1
  Pd  Pd179  1  0.60961763  0.79545186  0.19985365  1
  Pd  Pd180  1  0.39616115  0.79528298  0.19221060  1
  Pd  Pd181  1  -0.00489061  -0.00736577  0.00108737  1
  Pd  Pd182  1  0.59904669  0.20963858  -0.00440734  1
  Pd  Pd183  1  0.38748734  0.38886096  0.60405138  1
  Pd  Pd184  1  0.20514716  0.20314778  0.19059875  1
  Pd  Pd185  1  0.40822152  0.79262433  0.39929678  1
  Pd  Pd186  1  0.59268858  0.80555998  0.59189568  1
  Pd  Pd187  1  0.59295084  -0.00584083  0.59044211  1
  Pd  Pd188  1  0.41173743  0.00486498  0.59790783  1
  Pd  Pd189  1  0.38928076  0.60513058  0.58451433  1
  Pd  Pd190  1  0.59697693  0.39607019  0.19345235  1
  Pd  Pd191  1  0.39657597  -0.00493629  0.19123509  1
  Pd  Pd192  1  0.60908832  0.40083732  0.59820564  1
  Pd  Pd193  1  0.80823703  0.19084053  0.79161498  1
  Pd  Pd194  1  0.59203317  0.20274403  0.59862014  1
  Pd  Pd195  1  -0.00154383  0.20757347  -0.00401049  1
  Pd  Pd196  1  0.00312937  0.59798938  -0.00888861  1
  Pd  Pd197  1  0.81315455  0.21227186  0.00397833  1
  Pd  Pd198  1  -0.00353398  0.59149446  0.80593716  1
  Pd  Pd199  1  0.40660396  0.61029860  0.81090028  1
  Rh  Rh200  1  0.19618640  0.80781858  0.38845380  1
  Rh  Rh201  1  0.81141561  0.21008109  0.19814942  1
  Rh  Rh202  1  0.40022338  0.40909723  0.20008063  1
  Rh  Rh203  1  0.20059869  0.60099714  0.79568450  1
  Rh  Rh204  1  0.40153519  0.39773191  0.79716250  1
  Rh  Rh205  1  0.79697659  0.40100271  0.20406034  1
  Rh  Rh206  1  -0.00057535  -0.01213412  0.58900036  1
  Rh  Rh207  1  0.59047573  0.58889786  -0.00839299  1
  Rh  Rh208  1  0.59873284  0.80879634  0.40497414  1
  Rh  Rh209  1  0.60854322  0.00863455  0.80909666  1
  Rh  Rh210  1  0.20172174  0.40547968  0.79905773  1
  Rh  Rh211  1  -0.00758308  0.39593743  0.60652974  1
  Rh  Rh212  1  0.18820948  0.79316208  0.61324212  1
  Rh  Rh213  1  -0.00221550  0.00398033  0.79957127  1
  Rh  Rh214  1  0.20191994  0.59926275  0.19865877  1
  Rh  Rh215  1  0.60557448  0.39767729  0.40231234  1
  Rh  Rh216  1  0.40521611  0.19846495  0.20597768  1
  Rh  Rh217  1  0.19527678  0.39522991  0.00075229  1
  Rh  Rh218  1  0.79954429  0.20501410  0.60486652  1
  Rh  Rh219  1  0.80424180  0.80276690  0.59658154  1
  Rh  Rh220  1  0.20409061  0.01317251  -0.01003883  1
  Rh  Rh221  1  0.59655966  0.60134197  0.20699293  1
  Rh  Rh222  1  0.19123164  0.00456724  0.60363851  1
  Rh  Rh223  1  0.60387607  0.60362792  0.60433323  1
  Rh  Rh224  1  0.01047204  0.79638941  0.79792304  1
  Rh  Rh225  1  0.20118191  0.20668818  0.60244911  1
  Rh  Rh226  1  0.40631280  0.00374925  0.00794165  1
  Rh  Rh227  1  0.59656980  0.20075631  0.20560508  1
  Rh  Rh228  1  0.40119267  0.00804633  0.40521963  1
  Rh  Rh229  1  0.00009997  0.20663292  0.59566962  1
  Rh  Rh230  1  0.79670572  0.79700485  0.39717499  1
  Rh  Rh231  1  0.59622556  0.00362642  0.00134762  1
  Rh  Rh232  1  0.00458154  0.60468550  0.59188569  1
  Rh  Rh233  1  -0.00365718  0.19549263  0.79750337  1
  Rh  Rh234  1  0.40651387  0.79891237  -0.00021887  1
  Rh  Rh235  1  0.58780897  0.60114362  0.39926961  1
  Rh  Rh236  1  -0.00626365  0.40333565  0.79892723  1
  Rh  Rh237  1  0.60349651  0.80311170  0.00288021  1
  Rh  Rh238  1  0.40885292  0.40516360  0.00740567  1
  Rh  Rh239  1  0.19866826  0.40478540  0.60507522  1
  Rh  Rh240  1  0.79598678  0.80381021  0.80428942  1
  Rh  Rh241  1  0.20129065  0.59686269  0.40708028  1
  Rh  Rh242  1  0.18855736  0.79857144  -0.00120928  1
  Rh  Rh243  1  0.00928053  0.39582699  0.39289948  1
  Rh  Rh244  1  0.79449481  -0.00630417  0.20181267  1
  Rh  Rh245  1  0.39487713  -0.00676562  0.79452044  1
  Rh  Rh246  1  0.39411305  0.39736449  0.39782538  1
  Rh  Rh247  1  0.39232514  0.19801909  0.00637857  1
  Rh  Rh248  1  0.20572756  0.18802342  0.81221628  1
  Rh  Rh249  1  0.00529624  0.80572812  0.18609330  1
