# generated using pymatgen
data_ZrScNbPdRh
_symmetry_space_group_name_H-M   'P 1'
_cell_length_a   16.55900307
_cell_length_b   16.56525165
_cell_length_c   16.55830077
_cell_angle_alpha   90.00599518
_cell_angle_beta   90.04362271
_cell_angle_gamma   90.00387173
_symmetry_Int_Tables_number   1
_chemical_formula_structural   ZrScNbPdRh
_chemical_formula_sum   'Zr50 Sc50 Nb50 Pd50 Rh50'
_cell_volume   4542.00765701
_cell_formula_units_Z   50
loop_
 _symmetry_equiv_pos_site_id
 _symmetry_equiv_pos_as_xyz
  1  'x, y, z'
loop_
 _atom_site_type_symbol
 _atom_site_label
 _atom_site_symmetry_multiplicity
 _atom_site_fract_x
 _atom_site_fract_y
 _atom_site_fract_z
 _atom_site_occupancy
  Zr  Zr0  1  0.30171264  0.90320424  0.50651952  1
  Zr  Zr1  1  0.49829404  0.90224940  0.29832286  1
  Zr  Zr2  1  0.29582385  0.50152539  0.29925422  1
  Zr  Zr3  1  0.49947403  0.10413687  0.09877580  1
  Zr  Zr4  1  0.90116832  0.89753499  0.70579000  1
  Zr  Zr5  1  0.69083161  0.29278808  0.29969805  1
  Zr  Zr6  1  0.70298487  0.29011079  0.09400431  1
  Zr  Zr7  1  0.49384107  0.50753328  0.09430771  1
  Zr  Zr8  1  0.90455510  0.50312517  0.50205700  1
  Zr  Zr9  1  0.09999612  0.10233661  0.88777098  1
  Zr  Zr10  1  0.28285212  0.30240786  0.89199114  1
  Zr  Zr11  1  0.50451705  0.10410693  0.30101410  1
  Zr  Zr12  1  0.49917655  0.09976912  0.89742744  1
  Zr  Zr13  1  0.70635840  0.29894055  0.89539312  1
  Zr  Zr14  1  0.09951435  0.48606939  0.90467897  1
  Zr  Zr15  1  0.90008267  0.50618472  0.70043051  1
  Zr  Zr16  1  0.10986818  0.70510665  0.70035799  1
  Zr  Zr17  1  0.09822867  0.29007609  0.71277213  1
  Zr  Zr18  1  0.30096347  0.49998545  0.10279554  1
  Zr  Zr19  1  0.70917897  0.49979420  0.89873260  1
  Zr  Zr20  1  0.09240882  0.50657065  0.10991265  1
  Zr  Zr21  1  0.89908083  0.90599186  0.09696864  1
  Zr  Zr22  1  0.89735289  0.29633463  0.69742437  1
  Zr  Zr23  1  0.49489100  0.10169546  0.70557375  1
  Zr  Zr24  1  0.68863621  0.48626941  0.50612884  1
  Zr  Zr25  1  0.70609526  0.49699716  0.70323531  1
  Zr  Zr26  1  0.90266023  0.69811719  0.09681161  1
  Zr  Zr27  1  0.30395494  0.69711939  0.10480743  1
  Zr  Zr28  1  0.50046107  0.90490105  0.90643976  1
  Zr  Zr29  1  0.70063301  0.89528794  0.50153473  1
  Zr  Zr30  1  0.29807056  0.70011857  0.30343360  1
  Zr  Zr31  1  0.29723428  0.70576610  0.50869722  1
  Zr  Zr32  1  0.69867309  0.50254746  0.29235093  1
  Zr  Zr33  1  0.90831845  0.10102561  0.69875883  1
  Zr  Zr34  1  0.49591257  0.09270955  0.50430585  1
  Zr  Zr35  1  0.89989636  0.90114092  0.29935212  1
  Zr  Zr36  1  0.30141152  0.89117962  0.30109927  1
  Zr  Zr37  1  0.70648468  0.29811502  0.69979996  1
  Zr  Zr38  1  0.30141351  0.90457310  0.89415544  1
  Zr  Zr39  1  0.70014633  0.70223852  0.10279403  1
  Zr  Zr40  1  0.49173280  0.70048770  0.90509688  1
  Zr  Zr41  1  0.30307691  0.69595257  0.70749833  1
  Zr  Zr42  1  0.49971643  0.50269448  0.69603495  1
  Zr  Zr43  1  0.69788755  0.90168442  0.89512345  1
  Zr  Zr44  1  0.50998450  0.31071638  0.49714657  1
  Zr  Zr45  1  0.70101983  0.71100508  0.70505335  1
  Zr  Zr46  1  0.50431739  0.70648201  0.09706496  1
  Zr  Zr47  1  0.11295044  0.69644522  0.29860589  1
  Zr  Zr48  1  0.89747852  0.50229403  0.89934578  1
  Zr  Zr49  1  0.89729650  0.89945703  0.49054699  1
  Sc  Sc50  1  0.29811685  0.30169698  0.11278004  1
  Sc  Sc51  1  0.50188976  0.70060492  0.51580000  1
  Sc  Sc52  1  0.49174002  0.48605214  0.30372543  1
  Sc  Sc53  1  0.09952084  0.90014411  0.89622226  1
  Sc  Sc54  1  0.90171362  0.69427509  0.70525959  1
  Sc  Sc55  1  0.70691386  0.09995269  0.09530653  1
  Sc  Sc56  1  0.90560607  0.09527267  0.90503921  1
  Sc  Sc57  1  0.10247629  0.90405331  0.70270697  1
  Sc  Sc58  1  0.89688262  0.69978791  0.50142864  1
  Sc  Sc59  1  0.88842039  0.70741778  0.29840391  1
  Sc  Sc60  1  0.69711528  0.09624727  0.90280997  1
  Sc  Sc61  1  0.69675722  0.70622151  0.50500554  1
  Sc  Sc62  1  0.49617931  0.29777533  0.29318386  1
  Sc  Sc63  1  0.89800505  0.09886805  0.10070763  1
  Sc  Sc64  1  0.50064839  0.89834129  0.09818251  1
  Sc  Sc65  1  0.49402066  0.89791290  0.71457133  1
  Sc  Sc66  1  0.69855700  0.09382577  0.49127922  1
  Sc  Sc67  1  0.90926636  0.90041235  0.89781026  1
  Sc  Sc68  1  0.49993464  0.71128267  0.29069153  1
  Sc  Sc69  1  0.09558678  0.90375396  0.50284909  1
  Sc  Sc70  1  0.90741045  0.28952184  0.29365853  1
  Sc  Sc71  1  0.71127248  0.89903570  0.30368420  1
  Sc  Sc72  1  0.91087991  0.49936407  0.29806669  1
  Sc  Sc73  1  0.09270315  0.30286746  0.09702913  1
  Sc  Sc74  1  0.09006134  0.10146631  0.09575750  1
  Sc  Sc75  1  0.30444748  0.10983259  0.28908846  1
  Sc  Sc76  1  0.69924779  0.70527463  0.28937229  1
  Sc  Sc77  1  0.70928820  0.50958749  0.09375836  1
  Sc  Sc78  1  0.10230830  0.51033242  0.69875249  1
  Sc  Sc79  1  0.29855422  0.49215388  0.50708426  1
  Sc  Sc80  1  0.09869504  0.89764437  0.08711880  1
  Sc  Sc81  1  0.10124063  0.68879239  0.49795592  1
  Sc  Sc82  1  0.29619936  0.29769601  0.69538106  1
  Sc  Sc83  1  0.09078890  0.11139636  0.30076907  1
  Sc  Sc84  1  0.30006761  0.09852706  0.51227668  1
  Sc  Sc85  1  0.10165060  0.30269413  0.29864876  1
  Sc  Sc86  1  0.49531178  0.49687836  0.50665522  1
  Sc  Sc87  1  0.49661990  0.90052364  0.49829651  1
  Sc  Sc88  1  0.90002316  0.50255413  0.09478629  1
  Sc  Sc89  1  0.30309706  0.90601693  0.09269246  1
  Sc  Sc90  1  0.69888960  0.90388789  0.09724595  1
  Sc  Sc91  1  0.29830594  0.09413446  0.70137500  1
  Sc  Sc92  1  0.29458337  0.50401100  0.89653897  1
  Sc  Sc93  1  0.09536244  0.70993362  0.89919432  1
  Sc  Sc94  1  0.30176772  0.30543309  0.30052610  1
  Sc  Sc95  1  0.91067566  0.09768615  0.50094491  1
  Sc  Sc96  1  0.90174877  0.29244234  0.09246169  1
  Sc  Sc97  1  0.10673338  0.29519266  0.49495527  1
  Sc  Sc98  1  0.89707147  0.09552639  0.29395954  1
  Sc  Sc99  1  0.29908340  0.30154172  0.50161878  1
  Nb  Nb100  1  0.09389195  0.29720634  0.90137036  1
  Nb  Nb101  1  0.50153953  0.29813817  0.09327265  1
  Nb  Nb102  1  0.10006287  0.70171727  0.09936113  1
  Nb  Nb103  1  0.10243127  0.50780307  0.31414148  1
  Nb  Nb104  1  0.70024384  0.70206280  0.90288215  1
  Nb  Nb105  1  0.09275470  0.49939164  0.49166581  1
  Nb  Nb106  1  0.49497472  0.69150397  0.70861741  1
  Nb  Nb107  1  0.30607881  0.50672018  0.70356963  1
  Nb  Nb108  1  0.29555080  0.89163493  0.69652614  1
  Nb  Nb109  1  0.50397147  0.29621219  0.89566705  1
  Nb  Nb110  1  0.70086682  0.09782417  0.70384778  1
  Nb  Nb111  1  0.91160442  0.30612145  0.89973893  1
  Nb  Nb112  1  0.89630548  0.70301730  0.89780252  1
  Nb  Nb113  1  0.70310782  0.10197641  0.29601000  1
  Nb  Nb114  1  0.30087007  0.09792410  0.90541927  1
  Nb  Nb115  1  0.70385185  0.30201756  0.50431049  1
  Nb  Nb116  1  0.89257618  0.30341243  0.50539958  1
  Nb  Nb117  1  0.10212614  0.89930666  0.29822485  1
  Nb  Nb118  1  0.70167195  0.90420550  0.70465589  1
  Nb  Nb119  1  0.10440896  0.09191377  0.50622493  1
  Nb  Nb120  1  0.29501086  0.69606705  0.89654574  1
  Nb  Nb121  1  0.49965731  0.49962603  0.89929988  1
  Nb  Nb122  1  0.30053951  0.10325967  0.09464808  1
  Nb  Nb123  1  0.09432975  0.09648358  0.68807073  1
  Nb  Nb124  1  0.50609700  0.29310001  0.70934718  1
  Nb  Nb125  1  0.60528050  0.00016415  0.61100926  1
  Nb  Nb126  1  0.19687583  -0.00085405  0.20276611  1
  Nb  Nb127  1  0.79593285  -0.00253498  0.60538568  1
  Nb  Nb128  1  0.79684010  0.39465878  0.20094920  1
  Nb  Nb129  1  0.19514006  0.60485874  0.00416651  1
  Nb  Nb130  1  0.59680808  0.59865522  0.39958829  1
  Nb  Nb131  1  0.20154897  0.19929581  -0.00406403  1
  Nb  Nb132  1  0.00738009  0.80058094  0.20006467  1
  Nb  Nb133  1  0.19694131  0.00235741  0.39404835  1
  Nb  Nb134  1  0.40500570  0.19982124  0.40486102  1
  Nb  Nb135  1  0.00029592  0.79844581  0.60128437  1
  Nb  Nb136  1  0.60234738  0.00646963  0.20573974  1
  Nb  Nb137  1  0.79859134  0.20506717  0.40353896  1
  Nb  Nb138  1  0.80032187  0.79670131  -0.00625103  1
  Nb  Nb139  1  0.40105389  0.60312891  0.40358295  1
  Nb  Nb140  1  0.60138352  0.39767928  0.18600348  1
  Nb  Nb141  1  0.79959478  0.39531941  0.39865245  1
  Nb  Nb142  1  0.40361071  0.39349118  -0.00831199  1
  Nb  Nb143  1  0.39391600  0.20525361  -0.00438268  1
  Nb  Nb144  1  0.60411391  0.19784400  0.60353764  1
  Nb  Nb145  1  0.59624606  0.39825206  -0.00390210  1
  Nb  Nb146  1  0.79095773  0.59206106  0.40154915  1
  Nb  Nb147  1  0.00232160  0.40012407  0.59575261  1
  Nb  Nb148  1  0.40522062  0.39791238  0.80083639  1
  Nb  Nb149  1  0.59801719  0.60319089  0.80302208  1
  Pd  Pd150  1  0.19987978  0.00156186  0.79327809  1
  Pd  Pd151  1  0.40834120  0.60104005  0.21201600  1
  Pd  Pd152  1  0.40813747  0.21001956  0.59458780  1
  Pd  Pd153  1  0.19189955  0.00755580  0.00450890  1
  Pd  Pd154  1  0.79201431  0.60118832  0.59447417  1
  Pd  Pd155  1  0.59973749  0.19898545  0.40999892  1
  Pd  Pd156  1  0.19738725  0.19872743  0.60224189  1
  Pd  Pd157  1  0.58833169  0.59455340  0.20547628  1
  Pd  Pd158  1  0.80901382  0.19675959  -0.00927179  1
  Pd  Pd159  1  0.59251832  0.79591255  0.80282839  1
  Pd  Pd160  1  0.20643099  0.79560649  -0.00376591  1
  Pd  Pd161  1  0.00609302  0.79170950  0.39932344  1
  Pd  Pd162  1  0.79435763  0.18414000  0.59070330  1
  Pd  Pd163  1  0.19834418  0.80963195  0.18815457  1
  Pd  Pd164  1  -0.00386463  0.20200789  0.40622095  1
  Pd  Pd165  1  0.40848722  0.79060764  0.40718247  1
  Pd  Pd166  1  -0.00175237  0.40354187  0.79072830  1
  Pd  Pd167  1  0.60415238  0.59719660  -0.00534342  1
  Pd  Pd168  1  0.18932213  0.40300917  0.60573726  1
  Pd  Pd169  1  0.20236510  0.59268226  0.59617477  1
  Pd  Pd170  1  0.40711275  0.80175441  0.60969894  1
  Pd  Pd171  1  0.20163724  0.40823301  0.78587855  1
  Pd  Pd172  1  0.80776656  0.19374439  0.80901999  1
  Pd  Pd173  1  -0.00377394  0.38897071  0.40297273  1
  Pd  Pd174  1  0.18996799  0.40418300  0.20373643  1
  Pd  Pd175  1  0.60461386  -0.00558208  0.39792751  1
  Pd  Pd176  1  -0.00391887  0.61084134  0.21065201  1
  Pd  Pd177  1  0.80654567  0.00486972  0.80215058  1
  Pd  Pd178  1  0.59891375  0.40595285  0.80078716  1
  Pd  Pd179  1  0.00750415  0.20778415  0.59056231  1
  Pd  Pd180  1  0.00563314  0.00532926  0.39631785  1
  Pd  Pd181  1  0.20170632  0.39819252  0.00960955  1
  Pd  Pd182  1  0.38753816  0.20404021  0.80405940  1
  Pd  Pd183  1  0.39124942  0.80143555  -0.00114427  1
  Pd  Pd184  1  0.00844973  0.60290794  0.80716019  1
  Pd  Pd185  1  0.21063154  0.19070878  0.40094469  1
  Pd  Pd186  1  0.58959077  0.81023773  0.61145402  1
  Pd  Pd187  1  0.00684840  0.60105331  -0.01039940  1
  Pd  Pd188  1  -0.00572314  0.39618443  0.19781042  1
  Pd  Pd189  1  0.80908033  0.80268344  0.60267606  1
  Pd  Pd190  1  0.38495485  0.00992783  0.39495081  1
  Pd  Pd191  1  0.39868106  -0.00104404  0.19787967  1
  Pd  Pd192  1  0.00760093  -0.00404187  0.19692857  1
  Pd  Pd193  1  0.20169278  0.40141587  0.39955701  1
  Pd  Pd194  1  0.60567982  0.60316824  0.60322182  1
  Pd  Pd195  1  -0.01027467  0.61260185  0.39297803  1
  Pd  Pd196  1  0.19160420  0.19504012  0.19166509  1
  Pd  Pd197  1  0.40145534  0.39346344  0.60956772  1
  Pd  Pd198  1  0.59910558  0.79402042  0.39661610  1
  Pd  Pd199  1  0.19198230  0.80738152  0.41119142  1
  Rh  Rh200  1  0.39309532  0.60157852  0.59427938  1
  Rh  Rh201  1  0.60829271  0.19440627  0.79893141  1
  Rh  Rh202  1  0.20111838  -0.00358204  0.59996353  1
  Rh  Rh203  1  0.80558176  0.80619509  0.18753612  1
  Rh  Rh204  1  0.79191115  0.78758673  0.40174376  1
  Rh  Rh205  1  0.80204006  0.60932198  -0.00330299  1
  Rh  Rh206  1  0.40059338  0.20505433  0.19812427  1
  Rh  Rh207  1  0.80131649  0.39569490  0.00312586  1
  Rh  Rh208  1  0.39276436  -0.00274667  0.79669789  1
  Rh  Rh209  1  0.19799195  0.59583999  0.19590098  1
  Rh  Rh210  1  0.00494015  0.00181316  0.79740443  1
  Rh  Rh211  1  0.80296310  0.79987648  0.80644601  1
  Rh  Rh212  1  0.80278864  0.20118987  0.20505492  1
  Rh  Rh213  1  0.59742293  0.00293285  0.79933723  1
  Rh  Rh214  1  0.21214659  0.59291865  0.41056672  1
  Rh  Rh215  1  0.81097908  0.59126381  0.20711530  1
  Rh  Rh216  1  0.39731433  0.80470837  0.19202568  1
  Rh  Rh217  1  0.39479079  0.39645693  0.40387357  1
  Rh  Rh218  1  0.60454960  0.81706988  0.20073334  1
  Rh  Rh219  1  0.40477312  -0.00981904  0.61031463  1
  Rh  Rh220  1  0.60352634  0.40420914  0.38859164  1
  Rh  Rh221  1  0.40397094  0.00523792  0.00058069  1
  Rh  Rh222  1  0.81159280  0.39419048  0.80051433  1
  Rh  Rh223  1  0.00370758  0.19824667  -0.00409886  1
  Rh  Rh224  1  -0.00643385  0.19725365  0.80347326  1
  Rh  Rh225  1  -0.00648560  -0.01105877  0.60073832  1
  Rh  Rh226  1  0.40741693  0.39713180  0.19036220  1
  Rh  Rh227  1  0.00079174  0.20005673  0.19532486  1
  Rh  Rh228  1  0.00460828  0.00095994  -0.00515255  1
  Rh  Rh229  1  0.59797905  0.19887562  -0.00601803  1
  Rh  Rh230  1  -0.00852461  0.80149261  0.00437693  1
  Rh  Rh231  1  0.59672197  0.38971952  0.61517370  1
  Rh  Rh232  1  0.40309345  0.59388567  0.80644082  1
  Rh  Rh233  1  0.80378318  0.01039459  0.40378251  1
  Rh  Rh234  1  0.80038392  -0.00758289  -0.00520361  1
  Rh  Rh235  1  0.00120437  0.79637141  0.79224496  1
  Rh  Rh236  1  0.38613280  0.59622983  -0.00677373  1
  Rh  Rh237  1  -0.00497683  0.40089543  0.00423446  1
  Rh  Rh238  1  0.20105376  0.18926517  0.79600973  1
  Rh  Rh239  1  0.20431848  0.80414763  0.80344181  1
  Rh  Rh240  1  0.80813553  0.40801458  0.59969380  1
  Rh  Rh241  1  0.39351231  0.79815654  0.80403414  1
  Rh  Rh242  1  0.79158427  0.00086014  0.19882453  1
  Rh  Rh243  1  0.79259129  0.60878895  0.80045631  1
  Rh  Rh244  1  0.18992872  0.80615569  0.59609375  1
  Rh  Rh245  1  0.59905397  0.00242122  0.00701787  1
  Rh  Rh246  1  0.60106702  0.19641604  0.19204343  1
  Rh  Rh247  1  0.60629190  0.80241063  -0.00077798  1
  Rh  Rh248  1  0.19369828  0.59932069  0.81018298  1
  Rh  Rh249  1  0.00551684  0.60253584  0.60017136  1
