# generated using pymatgen
data_ZrScNbPdRh
_symmetry_space_group_name_H-M   'P 1'
_cell_length_a   16.56131461
_cell_length_b   16.56246013
_cell_length_c   16.55747612
_cell_angle_alpha   89.98717563
_cell_angle_beta   90.00026567
_cell_angle_gamma   90.01399385
_symmetry_Int_Tables_number   1
_chemical_formula_structural   ZrScNbPdRh
_chemical_formula_sum   'Zr50 Sc50 Nb50 Pd50 Rh50'
_cell_volume   4541.65109176
_cell_formula_units_Z   50
loop_
 _symmetry_equiv_pos_site_id
 _symmetry_equiv_pos_as_xyz
  1  'x, y, z'
loop_
 _atom_site_type_symbol
 _atom_site_label
 _atom_site_symmetry_multiplicity
 _atom_site_fract_x
 _atom_site_fract_y
 _atom_site_fract_z
 _atom_site_occupancy
  Zr  Zr0  1  0.30356331  0.50237248  0.50606991  1
  Zr  Zr1  1  0.70001230  0.49567014  0.90573551  1
  Zr  Zr2  1  0.30570645  0.89816360  0.90398022  1
  Zr  Zr3  1  0.30379749  0.50123943  0.10385538  1
  Zr  Zr4  1  0.89949316  0.28809953  0.70409360  1
  Zr  Zr5  1  0.70219114  0.49752075  0.09620841  1
  Zr  Zr6  1  0.09533221  0.70981329  0.69830872  1
  Zr  Zr7  1  0.49574074  0.49763080  0.29258679  1
  Zr  Zr8  1  0.70463536  0.69540902  0.90395536  1
  Zr  Zr9  1  0.90561975  0.89871661  0.69774227  1
  Zr  Zr10  1  0.10454757  0.10099897  0.09763412  1
  Zr  Zr11  1  0.29794361  0.50309458  0.89883526  1
  Zr  Zr12  1  0.69493621  0.09403481  0.09747024  1
  Zr  Zr13  1  0.70821205  0.49756309  0.30068298  1
  Zr  Zr14  1  0.10163482  0.69783629  0.10233641  1
  Zr  Zr15  1  0.49973073  0.90451775  0.49904206  1
  Zr  Zr16  1  0.89744585  0.09681291  0.30543735  1
  Zr  Zr17  1  0.48504460  0.50070067  0.69838060  1
  Zr  Zr18  1  0.69311290  0.89279104  0.30040041  1
  Zr  Zr19  1  0.90345355  0.09584163  0.69709210  1
  Zr  Zr20  1  0.89170246  0.29577661  0.50226312  1
  Zr  Zr21  1  0.51279030  0.90272989  0.69572731  1
  Zr  Zr22  1  0.10001250  0.49317511  0.49532051  1
  Zr  Zr23  1  0.49821904  0.11002655  0.30775389  1
  Zr  Zr24  1  0.90280023  0.09467782  0.49893845  1
  Zr  Zr25  1  0.09980760  0.29453436  0.70451846  1
  Zr  Zr26  1  0.30243554  0.69835873  0.30100193  1
  Zr  Zr27  1  0.89688174  0.09921226  0.88779620  1
  Zr  Zr28  1  0.89569640  0.89800152  0.89278665  1
  Zr  Zr29  1  0.90127624  0.30321155  0.89455656  1
  Zr  Zr30  1  0.10903760  0.09297702  0.69323009  1
  Zr  Zr31  1  0.49830794  0.70381257  0.89795056  1
  Zr  Zr32  1  0.30111850  0.68841118  0.70339313  1
  Zr  Zr33  1  0.29860904  0.70284851  0.90358619  1
  Zr  Zr34  1  0.90241744  0.50859407  0.70389690  1
  Zr  Zr35  1  0.68795932  0.30061992  0.30386475  1
  Zr  Zr36  1  0.89792461  0.50096664  0.90006751  1
  Zr  Zr37  1  0.10477963  0.70030713  0.89893480  1
  Zr  Zr38  1  0.09973062  0.30114511  0.30178867  1
  Zr  Zr39  1  0.10275359  0.30332583  0.89708509  1
  Zr  Zr40  1  0.30362728  0.91065702  0.09201822  1
  Zr  Zr41  1  0.09812160  0.09780003  0.89381382  1
  Zr  Zr42  1  0.10768979  0.29727878  0.09751806  1
  Zr  Zr43  1  0.70176851  0.69459666  0.50088641  1
  Zr  Zr44  1  0.10025633  0.90310410  0.09441692  1
  Zr  Zr45  1  0.70389846  0.48938217  0.50231135  1
  Zr  Zr46  1  0.30278995  0.30152852  0.70326588  1
  Zr  Zr47  1  0.89245468  0.49649121  0.49896803  1
  Zr  Zr48  1  0.70166813  0.49657530  0.70024124  1
  Zr  Zr49  1  0.29911757  0.30994352  0.90257966  1
  Sc  Sc50  1  0.89739812  0.50340465  0.10730183  1
  Sc  Sc51  1  0.09954419  0.50747632  0.09903089  1
  Sc  Sc52  1  0.70448758  0.09466215  0.70421606  1
  Sc  Sc53  1  0.90112505  0.89595140  0.10192190  1
  Sc  Sc54  1  0.90447954  0.09152523  0.09776445  1
  Sc  Sc55  1  0.09779799  0.69890416  0.29644505  1
  Sc  Sc56  1  0.49852632  0.70387348  0.70626739  1
  Sc  Sc57  1  0.50337672  0.30386488  0.50546662  1
  Sc  Sc58  1  0.09751466  0.49971180  0.90128128  1
  Sc  Sc59  1  0.50116602  0.49825875  0.09823406  1
  Sc  Sc60  1  0.10191887  0.89169243  0.50276555  1
  Sc  Sc61  1  0.29756757  0.09429272  0.90362296  1
  Sc  Sc62  1  0.31590463  0.10162182  0.30122338  1
  Sc  Sc63  1  0.70251157  0.08960220  0.89450673  1
  Sc  Sc64  1  0.10179411  0.70433151  0.50220609  1
  Sc  Sc65  1  0.49917230  0.70571543  0.30159184  1
  Sc  Sc66  1  0.08589611  0.10326331  0.29811076  1
  Sc  Sc67  1  0.70129164  0.70603686  0.29752625  1
  Sc  Sc68  1  0.09719892  0.30503127  0.50297402  1
  Sc  Sc69  1  0.28829067  0.90519346  0.68964185  1
  Sc  Sc70  1  0.90277707  0.70161480  0.70441197  1
  Sc  Sc71  1  0.10204653  0.49743318  0.29894692  1
  Sc  Sc72  1  0.90096072  0.31030667  0.09981320  1
  Sc  Sc73  1  0.90202269  0.69479407  0.10395157  1
  Sc  Sc74  1  0.08627023  0.89345312  0.30553541  1
  Sc  Sc75  1  0.29900943  0.50910335  0.30052073  1
  Sc  Sc76  1  0.31152387  0.29098442  0.29488431  1
  Sc  Sc77  1  0.29796268  0.89637894  0.49491016  1
  Sc  Sc78  1  0.68894326  0.90442304  0.49784383  1
  Sc  Sc79  1  0.49237437  0.29760777  0.71245370  1
  Sc  Sc80  1  0.50446082  0.90571266  0.10074857  1
  Sc  Sc81  1  0.90445028  0.30371435  0.30319730  1
  Sc  Sc82  1  0.70611691  0.69819826  0.10015162  1
  Sc  Sc83  1  0.49984061  0.90235691  0.30901667  1
  Sc  Sc84  1  0.50428017  0.10225342  0.88959790  1
  Sc  Sc85  1  0.89760220  0.69794547  0.50781806  1
  Sc  Sc86  1  0.49436541  0.70509353  0.48976027  1
  Sc  Sc87  1  0.89960887  0.70749707  0.29164071  1
  Sc  Sc88  1  0.50165505  0.49161908  0.90817862  1
  Sc  Sc89  1  0.89599922  0.69816063  0.89213144  1
  Sc  Sc90  1  0.11083899  0.90394162  0.89188046  1
  Sc  Sc91  1  0.49139391  0.09535295  0.50575111  1
  Sc  Sc92  1  0.29493031  0.70278325  0.49269176  1
  Sc  Sc93  1  0.68837802  0.10199640  0.30548501  1
  Sc  Sc94  1  0.70394898  0.10133951  0.50190552  1
  Sc  Sc95  1  0.29809156  0.29907562  0.51199013  1
  Sc  Sc96  1  0.70317142  0.70248710  0.70373992  1
  Sc  Sc97  1  0.49737557  0.31352588  0.11055609  1
  Sc  Sc98  1  0.49759703  0.09651390  0.10735918  1
  Sc  Sc99  1  0.09777513  0.50306677  0.69661727  1
  Nb  Nb100  1  0.49962427  0.29867642  0.90571638  1
  Nb  Nb101  1  0.30230907  0.10680189  0.10393575  1
  Nb  Nb102  1  0.70180259  0.30093418  0.09742183  1
  Nb  Nb103  1  0.69677413  0.89886403  0.70371566  1
  Nb  Nb104  1  0.10580651  0.09721531  0.49730814  1
  Nb  Nb105  1  0.09735713  0.89455616  0.69730049  1
  Nb  Nb106  1  0.70071889  0.29657939  0.70109529  1
  Nb  Nb107  1  0.89514158  0.90300866  0.30486741  1
  Nb  Nb108  1  0.29986148  0.29758541  0.09871324  1
  Nb  Nb109  1  0.69733652  0.30291604  0.89937381  1
  Nb  Nb110  1  0.29913935  0.70152394  0.10014631  1
  Nb  Nb111  1  0.50439021  0.89769515  0.88886495  1
  Nb  Nb112  1  0.30651307  0.49955956  0.70072182  1
  Nb  Nb113  1  0.30907032  0.10427458  0.68054283  1
  Nb  Nb114  1  0.29692911  0.89803450  0.30178956  1
  Nb  Nb115  1  0.50492175  0.70080647  0.10081643  1
  Nb  Nb116  1  0.49649356  0.09871464  0.69508437  1
  Nb  Nb117  1  0.50003199  0.50027319  0.50078996  1
  Nb  Nb118  1  0.49897137  0.30260815  0.30190774  1
  Nb  Nb119  1  0.69668263  0.90127089  0.09583809  1
  Nb  Nb120  1  0.90113746  0.50086959  0.30217806  1
  Nb  Nb121  1  0.69732100  0.89788134  0.89422102  1
  Nb  Nb122  1  0.70150686  0.30107769  0.51067548  1
  Nb  Nb123  1  0.89945743  0.90195457  0.49167787  1
  Nb  Nb124  1  0.29637219  0.09668338  0.50870178  1
  Nb  Nb125  1  0.60083289  0.20739360  -0.00184455  1
  Nb  Nb126  1  0.79844379  0.80998764  0.59985346  1
  Nb  Nb127  1  -0.00644448  0.59437905  0.39891871  1
  Nb  Nb128  1  0.79658221  0.20337596  -0.00044875  1
  Nb  Nb129  1  0.60146391  0.59908575  0.20162493  1
  Nb  Nb130  1  0.40181685  0.20513100  0.00282141  1
  Nb  Nb131  1  0.39993374  0.80210508  0.60074269  1
  Nb  Nb132  1  0.20631056  0.80607094  0.19720595  1
  Nb  Nb133  1  0.60432717  0.80723812  -0.00272907  1
  Nb  Nb134  1  0.60367984  0.20345228  0.60866038  1
  Nb  Nb135  1  0.00282376  0.79939362  -0.00471832  1
  Nb  Nb136  1  0.20476970  0.39301509  0.19672135  1
  Nb  Nb137  1  0.19977720  0.00562089  0.39630224  1
  Nb  Nb138  1  0.79515250  -0.00305847  0.20361717  1
  Nb  Nb139  1  0.59906759  0.59208823  0.40032591  1
  Nb  Nb140  1  0.59619284  0.59504187  0.59851612  1
  Nb  Nb141  1  0.40410238  0.40145399  0.40035429  1
  Nb  Nb142  1  0.20399663  0.00054426  0.20495048  1
  Nb  Nb143  1  0.39896469  0.60811655  0.00396539  1
  Nb  Nb144  1  0.79486121  0.19649129  0.19506316  1
  Nb  Nb145  1  0.20141580  0.19237438  0.40512515  1
  Nb  Nb146  1  0.39534038  0.80118345  0.19553420  1
  Nb  Nb147  1  -0.00251326  0.20050344  -0.00526234  1
  Nb  Nb148  1  0.40308997  0.00019547  0.78955105  1
  Nb  Nb149  1  0.59917267  0.59490932  0.79961822  1
  Pd  Pd150  1  0.39066260  0.81244789  0.78547266  1
  Pd  Pd151  1  0.41167292  0.80064070  0.00741552  1
  Pd  Pd152  1  0.60505046  0.19717245  0.79968733  1
  Pd  Pd153  1  0.40058328  -0.00473544  0.20725195  1
  Pd  Pd154  1  0.00873614  0.40489692  0.19739588  1
  Pd  Pd155  1  0.59255338  0.40319200  0.79665867  1
  Pd  Pd156  1  0.19287796  0.59505351  0.79601520  1
  Pd  Pd157  1  0.41228867  0.01074929  -0.00986006  1
  Pd  Pd158  1  0.20071645  0.40176992  0.60815189  1
  Pd  Pd159  1  0.20682830  0.80246854  0.79430203  1
  Pd  Pd160  1  0.79435018  0.20366557  0.39367528  1
  Pd  Pd161  1  0.79885251  0.80585520  0.19377775  1
  Pd  Pd162  1  0.20333049  0.19599575  -0.00688712  1
  Pd  Pd163  1  0.80270410  0.79906706  0.00363109  1
  Pd  Pd164  1  0.59909876  -0.00285116  0.20902941  1
  Pd  Pd165  1  0.00747978  -0.00678722  0.59327911  1
  Pd  Pd166  1  -0.01314352  0.20150282  0.18945495  1
  Pd  Pd167  1  0.79356214  -0.00611624  0.59984314  1
  Pd  Pd168  1  0.00560665  0.19709196  0.59420279  1
  Pd  Pd169  1  0.80248125  0.00023256  0.00289536  1
  Pd  Pd170  1  -0.00584367  0.78930757  0.40397348  1
  Pd  Pd171  1  0.19654750  0.60126678  0.59861670  1
  Pd  Pd172  1  0.21136170  0.19165857  0.79702702  1
  Pd  Pd173  1  0.59560148  0.19946764  0.41869554  1
  Pd  Pd174  1  0.39625554  0.20807855  0.41485152  1
  Pd  Pd175  1  0.00490351  0.20307952  0.40859332  1
  Pd  Pd176  1  0.78880291  -0.00172101  0.39545897  1
  Pd  Pd177  1  0.00137267  0.39964934  0.00352661  1
  Pd  Pd178  1  -0.00578587  0.60702672  -0.00409131  1
  Pd  Pd179  1  0.00285558  0.60177764  0.59229103  1
  Pd  Pd180  1  -0.00317433  -0.00290312  -0.00945319  1
  Pd  Pd181  1  0.20328210  0.19445571  0.21388149  1
  Pd  Pd182  1  0.79923637  0.39141628  0.20538349  1
  Pd  Pd183  1  0.59680731  0.20463828  0.19195544  1
  Pd  Pd184  1  0.59174176  0.00066435  -0.00938921  1
  Pd  Pd185  1  0.21137496  0.00435646  0.79342122  1
  Pd  Pd186  1  0.80214929  0.39876921  0.79593583  1
  Pd  Pd187  1  0.21644472  0.38812663  0.39126934  1
  Pd  Pd188  1  0.59883775  0.78938088  0.59634771  1
  Pd  Pd189  1  0.59112979  0.39640801  0.61163001  1
  Pd  Pd190  1  -0.00142300  -0.00656393  0.20503202  1
  Pd  Pd191  1  0.39127117  0.19197735  0.80767175  1
  Pd  Pd192  1  0.80931803  0.39686487  0.61168935  1
  Pd  Pd193  1  -0.00661760  0.39793758  0.60484987  1
  Pd  Pd194  1  0.18889038  0.60329726  0.39965089  1
  Pd  Pd195  1  0.19649258  0.41028347  0.79239667  1
  Pd  Pd196  1  0.40465848  0.61345960  0.59181043  1
  Pd  Pd197  1  0.59498562  0.40223706  0.40163291  1
  Pd  Pd198  1  0.80361749  0.60849608  0.39154247  1
  Pd  Pd199  1  0.80008611  0.79838285  0.40757763  1
  Rh  Rh200  1  -0.01000442  0.80467120  0.59300950  1
  Rh  Rh201  1  0.00451954  0.80275882  0.80752768  1
  Rh  Rh202  1  0.39962148  0.39555536  0.59683295  1
  Rh  Rh203  1  0.19776858  0.59987777  0.19989957  1
  Rh  Rh204  1  0.79482066  0.60712278  0.60838504  1
  Rh  Rh205  1  0.79429194  0.19583494  0.60371217  1
  Rh  Rh206  1  0.41029033  0.20336833  0.19047283  1
  Rh  Rh207  1  0.39920931  -0.01129324  0.60141283  1
  Rh  Rh208  1  0.19904248  0.40803998  0.00857014  1
  Rh  Rh209  1  0.19510227  0.80362903  0.39051038  1
  Rh  Rh210  1  0.60981384  0.79049894  0.80720641  1
  Rh  Rh211  1  0.00464297  -0.00439589  0.79457402  1
  Rh  Rh212  1  0.40944281  0.61160519  0.19336021  1
  Rh  Rh213  1  0.39024981  0.39848846  0.20817956  1
  Rh  Rh214  1  0.19240916  0.79946282  0.00461173  1
  Rh  Rh215  1  0.41047679  0.20708036  0.59886430  1
  Rh  Rh216  1  0.79596530  0.60032630  0.20263313  1
  Rh  Rh217  1  0.80349764  0.39899989  -0.00142828  1
  Rh  Rh218  1  0.00524189  0.19463902  0.80059178  1
  Rh  Rh219  1  0.20742169  0.79323747  0.60416873  1
  Rh  Rh220  1  0.80134686  0.38791704  0.39571038  1
  Rh  Rh221  1  0.20679686  0.59718964  0.00214162  1
  Rh  Rh222  1  0.00466972  0.80356215  0.19144916  1
  Rh  Rh223  1  0.39860622  0.80600657  0.39971480  1
  Rh  Rh224  1  0.79948510  -0.00769659  0.79324073  1
  Rh  Rh225  1  0.79726450  0.80374415  0.79097890  1
  Rh  Rh226  1  0.79385507  0.59746234  0.79838518  1
  Rh  Rh227  1  0.60611488  0.40461815  0.19787054  1
  Rh  Rh228  1  0.39354727  -0.00007827  0.40283634  1
  Rh  Rh229  1  0.79139497  0.20082031  0.80507818  1
  Rh  Rh230  1  0.19466741  0.20431236  0.59793084  1
  Rh  Rh231  1  0.19548182  -0.00633427  0.59136074  1
  Rh  Rh232  1  0.59533045  0.79736687  0.19187966  1
  Rh  Rh233  1  -0.00202901  0.59669047  0.21058792  1
  Rh  Rh234  1  -0.00684771  0.40498795  0.40234298  1
  Rh  Rh235  1  0.40768569  0.59197348  0.81346519  1
  Rh  Rh236  1  0.59583879  0.00794817  0.40256855  1
  Rh  Rh237  1  0.20145485  0.00681272  0.00354794  1
  Rh  Rh238  1  0.00549166  -0.00433828  0.40495483  1
  Rh  Rh239  1  0.00204907  0.40430934  0.79488604  1
  Rh  Rh240  1  0.60549207  0.01388599  0.60133854  1
  Rh  Rh241  1  0.60029067  0.79247150  0.40187140  1
  Rh  Rh242  1  0.40490141  0.59133939  0.40343220  1
  Rh  Rh243  1  0.59775305  0.00213663  0.79823143  1
  Rh  Rh244  1  0.00438718  0.60137861  0.80266532  1
  Rh  Rh245  1  0.59906372  0.39198540  0.00550982  1
  Rh  Rh246  1  0.40149063  0.40288016  0.80639729  1
  Rh  Rh247  1  0.59273254  0.60942254  0.00010284  1
  Rh  Rh248  1  0.39830471  0.40067722  0.00055303  1
  Rh  Rh249  1  0.80871136  0.59594993  0.00291110  1
