# generated using pymatgen
data_ZrScNbPdRh
_symmetry_space_group_name_H-M   'P 1'
_cell_length_a   16.55761623
_cell_length_b   16.56296525
_cell_length_c   16.55744472
_cell_angle_alpha   89.97130242
_cell_angle_beta   89.96135840
_cell_angle_gamma   90.00330051
_symmetry_Int_Tables_number   1
_chemical_formula_structural   ZrScNbPdRh
_chemical_formula_sum   'Zr50 Sc50 Nb50 Pd50 Rh50'
_cell_volume   4540.76537952
_cell_formula_units_Z   50
loop_
 _symmetry_equiv_pos_site_id
 _symmetry_equiv_pos_as_xyz
  1  'x, y, z'
loop_
 _atom_site_type_symbol
 _atom_site_label
 _atom_site_symmetry_multiplicity
 _atom_site_fract_x
 _atom_site_fract_y
 _atom_site_fract_z
 _atom_site_occupancy
  Zr  Zr0  1  0.31460978  0.90084747  0.49292193  1
  Zr  Zr1  1  0.08646195  0.70731624  0.10934025  1
  Zr  Zr2  1  0.50525713  0.50538169  0.90674855  1
  Zr  Zr3  1  0.90399915  0.70205543  0.89787478  1
  Zr  Zr4  1  0.09034147  0.29291495  0.10211820  1
  Zr  Zr5  1  0.89444193  0.09540526  0.89594831  1
  Zr  Zr6  1  0.50173135  0.10717779  0.89708189  1
  Zr  Zr7  1  0.89278307  0.49898033  0.90014942  1
  Zr  Zr8  1  0.70141055  0.49687141  0.90694506  1
  Zr  Zr9  1  0.69922336  0.70128661  0.70014768  1
  Zr  Zr10  1  0.29451848  0.50427127  0.69350701  1
  Zr  Zr11  1  0.50129761  0.09837445  0.69995388  1
  Zr  Zr12  1  0.30086731  0.69661541  0.50561270  1
  Zr  Zr13  1  0.10836026  0.90471957  0.70441526  1
  Zr  Zr14  1  0.90358093  0.70087056  0.27373182  1
  Zr  Zr15  1  0.69665286  0.30305217  0.90475307  1
  Zr  Zr16  1  0.29028826  0.89080608  0.88646304  1
  Zr  Zr17  1  0.49397557  0.90080600  0.69323257  1
  Zr  Zr18  1  0.51011171  0.50163511  0.30086841  1
  Zr  Zr19  1  0.10462045  0.70274731  0.89561416  1
  Zr  Zr20  1  0.29601627  0.10011133  0.30030596  1
  Zr  Zr21  1  0.29703920  0.49575534  0.50678142  1
  Zr  Zr22  1  0.69541024  0.90330719  0.30131680  1
  Zr  Zr23  1  0.69987231  0.30178760  0.50414448  1
  Zr  Zr24  1  0.89972737  0.90947871  0.69401742  1
  Zr  Zr25  1  0.29500529  0.29063430  0.70522535  1
  Zr  Zr26  1  0.09794210  0.50590110  0.89382702  1
  Zr  Zr27  1  0.89043926  0.50506489  0.10946530  1
  Zr  Zr28  1  0.09845606  0.70074094  0.30150585  1
  Zr  Zr29  1  0.70312517  0.49844285  0.29618173  1
  Zr  Zr30  1  0.50926652  0.29833595  0.50375925  1
  Zr  Zr31  1  0.50506826  0.49638632  0.50313162  1
  Zr  Zr32  1  0.70614146  0.10314730  0.69813230  1
  Zr  Zr33  1  0.89146126  0.29709935  0.69892252  1
  Zr  Zr34  1  0.29990188  0.29506465  0.30587958  1
  Zr  Zr35  1  0.50322130  0.49970473  0.10381880  1
  Zr  Zr36  1  0.10539864  0.09884167  0.69138710  1
  Zr  Zr37  1  0.70083447  0.91482053  0.10523307  1
  Zr  Zr38  1  0.89996788  0.10264684  0.70031432  1
  Zr  Zr39  1  0.70416330  0.50454199  0.48792921  1
  Zr  Zr40  1  0.30327882  0.29734983  0.10791745  1
  Zr  Zr41  1  0.09925280  0.49032791  0.50521781  1
  Zr  Zr42  1  0.30091772  0.70098332  0.30257648  1
  Zr  Zr43  1  0.28663525  0.50471096  0.90537915  1
  Zr  Zr44  1  0.09274199  0.69661871  0.50769379  1
  Zr  Zr45  1  0.10187836  0.90965210  0.09979094  1
  Zr  Zr46  1  0.90998498  0.10781328  0.10128302  1
  Zr  Zr47  1  0.69783379  0.90655016  0.69901750  1
  Zr  Zr48  1  0.70471791  0.29989993  0.30892088  1
  Zr  Zr49  1  0.09380302  0.89628741  0.89731766  1
  Sc  Sc50  1  0.70550992  0.49814821  0.70822465  1
  Sc  Sc51  1  0.50760729  0.09836977  0.30855224  1
  Sc  Sc52  1  0.29306027  0.91080208  0.08785651  1
  Sc  Sc53  1  0.69749678  0.69039804  0.89428130  1
  Sc  Sc54  1  0.10039042  0.31034236  0.90426488  1
  Sc  Sc55  1  0.90107444  0.09116968  0.49789809  1
  Sc  Sc56  1  0.90044553  0.69587969  0.68845115  1
  Sc  Sc57  1  0.49897632  0.70208680  0.49528933  1
  Sc  Sc58  1  0.09395992  0.49588553  0.29982707  1
  Sc  Sc59  1  0.51244731  0.09906500  0.09986773  1
  Sc  Sc60  1  0.70781568  0.69691091  0.10652332  1
  Sc  Sc61  1  0.50433832  0.69893573  0.89409925  1
  Sc  Sc62  1  0.89606715  0.30869956  0.49692420  1
  Sc  Sc63  1  0.70291171  0.09630684  0.29550592  1
  Sc  Sc64  1  0.09701645  0.90492911  0.50113688  1
  Sc  Sc65  1  0.10103518  0.90989675  0.30542844  1
  Sc  Sc66  1  0.10262954  0.49458371  0.09338533  1
  Sc  Sc67  1  0.09623028  0.69292729  0.70348900  1
  Sc  Sc68  1  0.08777632  0.09505118  0.90106866  1
  Sc  Sc69  1  0.49858070  0.91060835  0.09510415  1
  Sc  Sc70  1  0.70277462  0.29735011  0.10228517  1
  Sc  Sc71  1  0.70057549  0.30006799  0.69519620  1
  Sc  Sc72  1  0.49564068  0.90295081  0.88903359  1
  Sc  Sc73  1  0.50099715  0.69441985  0.29797694  1
  Sc  Sc74  1  0.90141097  0.09993097  0.30228504  1
  Sc  Sc75  1  0.90618952  0.29490894  0.90030876  1
  Sc  Sc76  1  0.28955120  0.30020073  0.89778696  1
  Sc  Sc77  1  0.50089159  0.09490158  0.49860540  1
  Sc  Sc78  1  0.28701050  0.29738089  0.50109867  1
  Sc  Sc79  1  0.50302716  0.29359316  0.29805263  1
  Sc  Sc80  1  0.29701143  0.49919240  0.29331706  1
  Sc  Sc81  1  0.69577779  0.10513017  0.49788610  1
  Sc  Sc82  1  0.90196074  0.29914493  0.10456099  1
  Sc  Sc83  1  0.50791888  0.29833881  0.10297709  1
  Sc  Sc84  1  0.30263356  0.09874179  0.88991987  1
  Sc  Sc85  1  0.29423966  0.09052456  0.69766695  1
  Sc  Sc86  1  0.69483888  0.69643893  0.30195699  1
  Sc  Sc87  1  0.90323889  0.89290779  0.11209400  1
  Sc  Sc88  1  0.30081993  0.50916546  0.09991454  1
  Sc  Sc89  1  0.90154756  0.49823322  0.69932693  1
  Sc  Sc90  1  0.09930003  0.50250098  0.69979192  1
  Sc  Sc91  1  0.50831711  0.30008217  0.70121286  1
  Sc  Sc92  1  0.88849533  0.90566386  0.30099921  1
  Sc  Sc93  1  0.29624504  0.09838529  0.50335721  1
  Sc  Sc94  1  0.49699937  0.68657990  0.09942983  1
  Sc  Sc95  1  0.50082070  0.49804240  0.69210290  1
  Sc  Sc96  1  0.10114351  0.09776943  0.49025250  1
  Sc  Sc97  1  0.90283038  0.30168797  0.29657615  1
  Sc  Sc98  1  0.50507271  0.29758922  0.89671139  1
  Sc  Sc99  1  0.10356133  0.30457834  0.70190373  1
  Nb  Nb100  1  0.89635085  0.69902537  0.09689392  1
  Nb  Nb101  1  0.89913565  0.90262063  0.89211464  1
  Nb  Nb102  1  0.70465493  0.88677867  0.49471909  1
  Nb  Nb103  1  0.89551771  0.50152474  0.30241036  1
  Nb  Nb104  1  0.89325819  0.88824734  0.49890831  1
  Nb  Nb105  1  0.50206332  0.70158159  0.70059198  1
  Nb  Nb106  1  0.70317163  0.09742959  0.91361177  1
  Nb  Nb107  1  0.69963414  0.49664982  0.09739966  1
  Nb  Nb108  1  0.49538790  0.90305943  0.30755579  1
  Nb  Nb109  1  0.50483818  0.90456998  0.48821192  1
  Nb  Nb110  1  0.09784837  0.10163222  0.29648693  1
  Nb  Nb111  1  0.70828024  0.90513780  0.90356148  1
  Nb  Nb112  1  0.30101538  0.69678753  0.90067920  1
  Nb  Nb113  1  0.30931482  0.70369993  0.70081153  1
  Nb  Nb114  1  0.29732253  0.09879291  0.10265619  1
  Nb  Nb115  1  0.30173932  0.89522384  0.69623240  1
  Nb  Nb116  1  0.10397854  0.09647454  0.10844084  1
  Nb  Nb117  1  0.70816155  0.70359749  0.50407743  1
  Nb  Nb118  1  0.30305030  0.69942614  0.10257243  1
  Nb  Nb119  1  0.70461297  0.09912309  0.08860662  1
  Nb  Nb120  1  0.10317058  0.29679784  0.31399908  1
  Nb  Nb121  1  0.89750674  0.51057104  0.49855482  1
  Nb  Nb122  1  0.30496419  0.89783210  0.30212981  1
  Nb  Nb123  1  0.10089343  0.29868278  0.49571770  1
  Nb  Nb124  1  0.89184968  0.70100597  0.50439265  1
  Nb  Nb125  1  0.60179006  0.80267428  0.59287078  1
  Nb  Nb126  1  0.39569770  -0.00260640  0.20461191  1
  Nb  Nb127  1  0.39862680  0.80651317  0.19577805  1
  Nb  Nb128  1  0.40042364  0.40035338  0.40183660  1
  Nb  Nb129  1  0.39600860  0.40665619  0.80424418  1
  Nb  Nb130  1  0.60343896  0.80464953  0.00144163  1
  Nb  Nb131  1  0.19585678  0.38933691  0.20312424  1
  Nb  Nb132  1  0.80136759  0.80849687  0.80306639  1
  Nb  Nb133  1  0.40078297  0.19796567  0.60474601  1
  Nb  Nb134  1  0.39826471  0.79491713  0.00079638  1
  Nb  Nb135  1  -0.00824322  0.60152532  0.40172997  1
  Nb  Nb136  1  -0.01132890  0.79598681  0.40479937  1
  Nb  Nb137  1  0.60640402  0.60856216  0.59752753  1
  Nb  Nb138  1  0.39730189  0.60149362  0.79709536  1
  Nb  Nb139  1  0.39593095  0.59210258  0.40342805  1
  Nb  Nb140  1  0.19989434  0.19169963  0.00984818  1
  Nb  Nb141  1  0.19603324  0.59782680  0.40440427  1
  Nb  Nb142  1  0.00347817  0.20460221  0.59495080  1
  Nb  Nb143  1  -0.00627714  0.60341780  0.00253710  1
  Nb  Nb144  1  0.79847378  0.80412231  -0.00449749  1
  Nb  Nb145  1  0.20778064  0.80536396  0.20018212  1
  Nb  Nb146  1  0.39483109  0.19996580  0.00306774  1
  Nb  Nb147  1  0.20792333  0.80134850  0.60402402  1
  Nb  Nb148  1  0.39942667  0.39857441  -0.00250882  1
  Nb  Nb149  1  0.59176830  0.80753260  0.19584240  1
  Pd  Pd150  1  0.39496654  0.38469319  0.60311267  1
  Pd  Pd151  1  -0.00488815  0.19869348  0.40403894  1
  Pd  Pd152  1  0.00144678  0.00455469  0.59423283  1
  Pd  Pd153  1  0.60354097  -0.00405100  0.58907443  1
  Pd  Pd154  1  0.19257155  0.20307933  0.20249083  1
  Pd  Pd155  1  -0.00654045  0.80272194  0.00186908  1
  Pd  Pd156  1  -0.00674851  0.79967155  0.78575943  1
  Pd  Pd157  1  0.80533153  0.39068149  0.00507642  1
  Pd  Pd158  1  0.60523481  0.80613735  0.80220250  1
  Pd  Pd159  1  0.41148827  0.18636230  0.19596953  1
  Pd  Pd160  1  0.20207953  0.00077823  0.40089234  1
  Pd  Pd161  1  0.79490325  0.00256557  0.40525464  1
  Pd  Pd162  1  0.80459462  0.20697071  -0.00043000  1
  Pd  Pd163  1  0.40642322  0.80056720  0.59234535  1
  Pd  Pd164  1  0.19937278  0.00819459  -0.01359724  1
  Pd  Pd165  1  -0.00197581  0.39486538  0.60279337  1
  Pd  Pd166  1  0.20366814  0.79410644  0.00820078  1
  Pd  Pd167  1  0.80515914  0.78926974  0.38440008  1
  Pd  Pd168  1  0.18876631  0.61199741  0.01059772  1
  Pd  Pd169  1  0.79213631  0.20309174  0.80808804  1
  Pd  Pd170  1  0.79797257  0.40898858  0.59832175  1
  Pd  Pd171  1  -0.00255338  0.39869666  0.79700141  1
  Pd  Pd172  1  0.60846382  0.19462405  0.20153889  1
  Pd  Pd173  1  0.00327589  0.40097789  0.20315561  1
  Pd  Pd174  1  0.61095469  0.19687397  0.79987690  1
  Pd  Pd175  1  0.79410767  0.00136219  0.58705886  1
  Pd  Pd176  1  0.60774368  0.39455407  0.20007320  1
  Pd  Pd177  1  0.00568435  0.80528503  0.60174772  1
  Pd  Pd178  1  0.80640511  0.19885474  0.40443650  1
  Pd  Pd179  1  0.59634640  0.40564210  0.79660155  1
  Pd  Pd180  1  0.00815908  0.20238673  0.79394083  1
  Pd  Pd181  1  0.39726312  0.40433238  0.20128182  1
  Pd  Pd182  1  -0.00511699  -0.00195379  0.20777751  1
  Pd  Pd183  1  0.18887408  0.19343076  0.81248342  1
  Pd  Pd184  1  0.81719092  -0.00568657  0.01041987  1
  Pd  Pd185  1  0.80504267  0.60585019  0.79558868  1
  Pd  Pd186  1  -0.00682874  0.40493523  0.39957003  1
  Pd  Pd187  1  0.39462263  -0.00115564  0.79590157  1
  Pd  Pd188  1  0.39914704  0.00406382  -0.00093309  1
  Pd  Pd189  1  -0.00762666  0.40836603  0.00264824  1
  Pd  Pd190  1  0.40088011  0.20236770  0.41201231  1
  Pd  Pd191  1  0.79852557  0.19618113  0.19994753  1
  Pd  Pd192  1  -0.00665095  -0.00238760  0.00281959  1
  Pd  Pd193  1  0.60613260  0.00534353  0.80741766  1
  Pd  Pd194  1  0.19380664  0.59699681  0.20137308  1
  Pd  Pd195  1  0.59599901  0.79463170  0.39661521  1
  Pd  Pd196  1  0.19089392  0.79903663  0.40480421  1
  Pd  Pd197  1  0.59330030  -0.00435046  -0.01041027  1
  Pd  Pd198  1  0.60879121  0.60944189  0.00733437  1
  Pd  Pd199  1  0.80593940  0.61186909  0.38882615  1
  Rh  Rh200  1  0.00554179  0.19527491  -0.00232399  1
  Rh  Rh201  1  0.79987995  0.60461243  -0.00001540  1
  Rh  Rh202  1  0.80542793  0.40056004  0.39777262  1
  Rh  Rh203  1  0.01034352  0.81647467  0.21165825  1
  Rh  Rh204  1  0.20253449  0.40678375  0.79516927  1
  Rh  Rh205  1  0.40835528  0.79120287  0.39479935  1
  Rh  Rh206  1  0.00235316  0.00119331  0.79600511  1
  Rh  Rh207  1  0.79465742  0.00231986  0.79942956  1
  Rh  Rh208  1  0.40196822  0.60146529  0.20837736  1
  Rh  Rh209  1  0.00303608  0.19980599  0.21055841  1
  Rh  Rh210  1  0.79235920  0.59809406  0.20196296  1
  Rh  Rh211  1  0.78638283  0.80411742  0.19573681  1
  Rh  Rh212  1  0.59220446  -0.00080071  0.20631009  1
  Rh  Rh213  1  0.59591520  0.39660368  0.00683899  1
  Rh  Rh214  1  0.60552151  0.60216368  0.19423124  1
  Rh  Rh215  1  0.79481293  0.80473094  0.60988663  1
  Rh  Rh216  1  0.59814307  0.20162318  0.00035169  1
  Rh  Rh217  1  0.20621031  0.38736243  0.01314810  1
  Rh  Rh218  1  0.80165367  0.39257311  0.80378292  1
  Rh  Rh219  1  0.39930874  0.00921579  0.39610396  1
  Rh  Rh220  1  0.20069998  0.79021970  0.78940058  1
  Rh  Rh221  1  0.39979645  0.00398969  0.59870569  1
  Rh  Rh222  1  0.19543104  0.60918227  0.60315337  1
  Rh  Rh223  1  -0.00408943  0.59325390  0.59785577  1
  Rh  Rh224  1  0.80888305  0.19748795  0.59227856  1
  Rh  Rh225  1  0.39786087  0.59972843  -0.00779567  1
  Rh  Rh226  1  0.59039990  0.59205496  0.78937322  1
  Rh  Rh227  1  0.59453909  0.19501803  0.60265473  1
  Rh  Rh228  1  0.40176609  0.20950394  0.79909738  1
  Rh  Rh229  1  0.19807541  0.00275488  0.80342193  1
  Rh  Rh230  1  0.79509885  0.59327238  0.60335126  1
  Rh  Rh231  1  0.19607345  0.39319415  0.60533336  1
  Rh  Rh232  1  0.80579713  0.01143360  0.19492762  1
  Rh  Rh233  1  0.00267350  0.58795094  0.19549761  1
  Rh  Rh234  1  0.60778405  0.00022434  0.40294053  1
  Rh  Rh235  1  0.59699216  0.60514798  0.40832684  1
  Rh  Rh236  1  0.41433024  0.60476301  0.60183432  1
  Rh  Rh237  1  0.59600840  0.39213229  0.39527681  1
  Rh  Rh238  1  0.60428711  0.20013296  0.39886882  1
  Rh  Rh239  1  0.20717984  0.60655041  0.79216303  1
  Rh  Rh240  1  0.61530187  0.41088980  0.60102959  1
  Rh  Rh241  1  0.19598499  0.20055432  0.59554374  1
  Rh  Rh242  1  0.40088533  0.79327096  0.80804739  1
  Rh  Rh243  1  0.79805254  0.39844169  0.20157432  1
  Rh  Rh244  1  -0.00642758  -0.00959344  0.39841471  1
  Rh  Rh245  1  0.19713649  0.19185165  0.40151625  1
  Rh  Rh246  1  0.20477371  0.40599618  0.39214113  1
  Rh  Rh247  1  0.20667434  -0.01285212  0.59144591  1
  Rh  Rh248  1  0.20519806  -0.00435517  0.20664903  1
  Rh  Rh249  1  -0.00567665  0.59701830  0.80371471  1
