# generated using pymatgen
data_ZrScNbPdRh
_symmetry_space_group_name_H-M   'P 1'
_cell_length_a   16.56178002
_cell_length_b   16.56043966
_cell_length_c   16.55472361
_cell_angle_alpha   90.00577972
_cell_angle_beta   90.00636997
_cell_angle_gamma   89.98894123
_symmetry_Int_Tables_number   1
_chemical_formula_structural   ZrScNbPdRh
_chemical_formula_sum   'Zr50 Sc50 Nb50 Pd50 Rh50'
_cell_volume   4540.46984697
_cell_formula_units_Z   50
loop_
 _symmetry_equiv_pos_site_id
 _symmetry_equiv_pos_as_xyz
  1  'x, y, z'
loop_
 _atom_site_type_symbol
 _atom_site_label
 _atom_site_symmetry_multiplicity
 _atom_site_fract_x
 _atom_site_fract_y
 _atom_site_fract_z
 _atom_site_occupancy
  Zr  Zr0  1  0.69560611  0.30778927  0.10737493  1
  Zr  Zr1  1  0.09704815  0.28962336  0.90415166  1
  Zr  Zr2  1  0.50706726  0.89324177  0.71088561  1
  Zr  Zr3  1  0.70988072  0.89723260  0.30020144  1
  Zr  Zr4  1  0.50376331  0.70195509  0.30109354  1
  Zr  Zr5  1  0.29968089  0.50457312  0.70224272  1
  Zr  Zr6  1  0.10552332  0.29704691  0.10547772  1
  Zr  Zr7  1  0.49935016  0.89729776  0.09449160  1
  Zr  Zr8  1  0.50248682  0.50266955  0.50719076  1
  Zr  Zr9  1  0.70031944  0.70412747  0.10562424  1
  Zr  Zr10  1  0.69858618  0.50318868  0.10473678  1
  Zr  Zr11  1  0.89407265  0.49952095  0.30290385  1
  Zr  Zr12  1  0.10166774  0.89976680  0.89286533  1
  Zr  Zr13  1  0.90336840  0.89214093  0.30299241  1
  Zr  Zr14  1  0.89861349  0.10868318  0.90238683  1
  Zr  Zr15  1  0.09200216  0.89426624  0.70590419  1
  Zr  Zr16  1  0.29905630  0.09866451  0.90085304  1
  Zr  Zr17  1  0.10387162  0.50815319  0.49971126  1
  Zr  Zr18  1  0.90439315  0.29874571  0.89509795  1
  Zr  Zr19  1  0.49874882  0.29952122  0.50467975  1
  Zr  Zr20  1  0.50531284  0.70134536  0.69624925  1
  Zr  Zr21  1  0.29711627  0.90473132  0.48721438  1
  Zr  Zr22  1  0.29857964  0.69743028  0.09138447  1
  Zr  Zr23  1  0.30618109  0.49877799  0.49953422  1
  Zr  Zr24  1  0.70852061  0.50148179  0.49902669  1
  Zr  Zr25  1  0.50264213  0.90420803  0.90475644  1
  Zr  Zr26  1  0.69903763  0.50403538  0.69001536  1
  Zr  Zr27  1  0.49606097  0.49019300  0.90402286  1
  Zr  Zr28  1  0.29636772  0.50268334  0.08761053  1
  Zr  Zr29  1  0.70597024  0.10896134  0.49790216  1
  Zr  Zr30  1  0.69101468  0.91009819  0.89585380  1
  Zr  Zr31  1  0.09884272  0.49268635  0.10437523  1
  Zr  Zr32  1  0.49970479  0.30348480  0.09207127  1
  Zr  Zr33  1  0.09180036  0.29117425  0.49736974  1
  Zr  Zr34  1  0.09834110  0.70098171  0.69952825  1
  Zr  Zr35  1  0.89911853  0.70437707  0.69701094  1
  Zr  Zr36  1  0.90703148  0.29572824  0.69810173  1
  Zr  Zr37  1  0.50030539  0.49962198  0.09503165  1
  Zr  Zr38  1  0.70601321  0.50188047  0.29827262  1
  Zr  Zr39  1  0.89360703  0.90911633  0.11519085  1
  Zr  Zr40  1  0.70843952  0.09562191  0.70266972  1
  Zr  Zr41  1  0.29695614  0.30818365  0.89626239  1
  Zr  Zr42  1  0.29791503  0.69264734  0.50080704  1
  Zr  Zr43  1  0.30145186  0.09664124  0.69826879  1
  Zr  Zr44  1  0.69797583  0.90217056  0.09274126  1
  Zr  Zr45  1  0.49773971  0.29735231  0.90134400  1
  Zr  Zr46  1  0.30387096  0.71239259  0.29651806  1
  Zr  Zr47  1  0.89657798  0.09733392  0.29670488  1
  Zr  Zr48  1  0.09143366  0.69639816  0.30579468  1
  Zr  Zr49  1  0.30856355  0.29019121  0.70160168  1
  Sc  Sc50  1  0.30201620  0.08804090  0.29687890  1
  Sc  Sc51  1  0.10724149  0.08530114  0.70560200  1
  Sc  Sc52  1  0.89770548  0.10272251  0.09959390  1
  Sc  Sc53  1  0.70218044  0.09678931  0.90265691  1
  Sc  Sc54  1  0.50276693  0.69779888  0.49253936  1
  Sc  Sc55  1  0.09445596  0.69541068  0.49875412  1
  Sc  Sc56  1  0.09796396  0.30340753  0.71064965  1
  Sc  Sc57  1  0.10434188  0.89406157  0.29608348  1
  Sc  Sc58  1  0.51207036  0.28604122  0.29009855  1
  Sc  Sc59  1  0.89901110  0.30108027  0.29719499  1
  Sc  Sc60  1  0.30212053  0.69671450  0.71404999  1
  Sc  Sc61  1  0.70393369  0.70680787  0.68933050  1
  Sc  Sc62  1  0.50670169  0.88757602  0.49396407  1
  Sc  Sc63  1  0.28982170  0.29695193  0.29645085  1
  Sc  Sc64  1  0.48591973  0.89164804  0.30153981  1
  Sc  Sc65  1  0.70028773  0.11848645  0.30279296  1
  Sc  Sc66  1  0.89546690  0.69619616  0.90899449  1
  Sc  Sc67  1  0.09702234  0.49713590  0.69718221  1
  Sc  Sc68  1  0.89857750  0.89698583  0.89313124  1
  Sc  Sc69  1  0.49983653  0.10118815  0.50027923  1
  Sc  Sc70  1  0.10322577  0.90142243  0.49834751  1
  Sc  Sc71  1  0.10041388  0.09957886  0.49814473  1
  Sc  Sc72  1  0.89579897  0.29658896  0.50420129  1
  Sc  Sc73  1  0.49472747  0.11210980  0.70379969  1
  Sc  Sc74  1  0.09850849  0.49974849  0.29628838  1
  Sc  Sc75  1  0.69354695  0.29397905  0.90263636  1
  Sc  Sc76  1  0.29772023  0.88710392  0.90795404  1
  Sc  Sc77  1  0.88935859  0.89595590  0.69761011  1
  Sc  Sc78  1  0.48818245  0.10131612  0.09901230  1
  Sc  Sc79  1  0.50115300  0.50925406  0.31002670  1
  Sc  Sc80  1  0.28542445  0.90281086  0.70982534  1
  Sc  Sc81  1  0.10017583  0.11372138  0.29769652  1
  Sc  Sc82  1  0.10043668  0.70255469  0.89883475  1
  Sc  Sc83  1  0.09962314  0.68612207  0.10118378  1
  Sc  Sc84  1  0.30028559  0.49663407  0.30745134  1
  Sc  Sc85  1  0.09858536  0.30437250  0.29359562  1
  Sc  Sc86  1  0.29481044  0.09289789  0.10071902  1
  Sc  Sc87  1  0.89867233  0.50906266  0.10477402  1
  Sc  Sc88  1  0.69891836  0.69534621  0.30178336  1
  Sc  Sc89  1  0.50371546  0.30928142  0.70730388  1
  Sc  Sc90  1  0.70709715  0.89077222  0.49922592  1
  Sc  Sc91  1  0.30645286  0.30246014  0.49424206  1
  Sc  Sc92  1  0.48924428  0.71156114  0.89830761  1
  Sc  Sc93  1  0.90013679  0.29769484  0.10190526  1
  Sc  Sc94  1  0.10562944  0.49128125  0.89325394  1
  Sc  Sc95  1  0.89867393  0.11389618  0.50004593  1
  Sc  Sc96  1  0.50408452  0.09837556  0.90786153  1
  Sc  Sc97  1  0.71035523  0.70459663  0.90858599  1
  Sc  Sc98  1  0.89885069  0.70359602  0.49637992  1
  Sc  Sc99  1  0.71165846  0.09631244  0.09288071  1
  Nb  Nb100  1  0.29373984  0.89855763  0.11181191  1
  Nb  Nb101  1  0.10478367  0.90959805  0.09534709  1
  Nb  Nb102  1  0.69869009  0.30541666  0.69441680  1
  Nb  Nb103  1  0.70089780  0.29892262  0.49550847  1
  Nb  Nb104  1  0.70557050  0.50798207  0.90258030  1
  Nb  Nb105  1  0.70300388  0.30737800  0.30626524  1
  Nb  Nb106  1  0.90145088  0.70472420  0.29604521  1
  Nb  Nb107  1  0.50351600  0.09715309  0.30073810  1
  Nb  Nb108  1  0.10044740  0.09620287  0.91200901  1
  Nb  Nb109  1  0.89976984  0.10336270  0.69201384  1
  Nb  Nb110  1  0.29935598  0.89409139  0.29093135  1
  Nb  Nb111  1  0.50964847  0.50433175  0.69943798  1
  Nb  Nb112  1  0.50461899  0.69995311  0.10139419  1
  Nb  Nb113  1  0.10155118  0.10036255  0.08934978  1
  Nb  Nb114  1  0.29695312  0.68732181  0.90317844  1
  Nb  Nb115  1  0.69488857  0.70129163  0.49962319  1
  Nb  Nb116  1  0.89733807  0.49849625  0.69860596  1
  Nb  Nb117  1  0.89354478  0.50253957  0.90034959  1
  Nb  Nb118  1  0.89965208  0.70605930  0.10249937  1
  Nb  Nb119  1  0.69376389  0.90257643  0.69723766  1
  Nb  Nb120  1  0.30217720  0.51011138  0.90132945  1
  Nb  Nb121  1  0.90187265  0.49963719  0.50309802  1
  Nb  Nb122  1  0.29898915  0.30543318  0.10577123  1
  Nb  Nb123  1  0.90037548  0.90018766  0.49252121  1
  Nb  Nb124  1  0.29935094  0.09587675  0.50388891  1
  Nb  Nb125  1  0.79904942  0.40534271  0.79826740  1
  Nb  Nb126  1  -0.00875898  -0.00049392  0.59693147  1
  Nb  Nb127  1  0.60785986  0.20284499  0.60073044  1
  Nb  Nb128  1  0.20338202  0.79832961  0.60069603  1
  Nb  Nb129  1  0.59834324  0.00172939  0.20720919  1
  Nb  Nb130  1  0.60234037  0.59668741  0.80391417  1
  Nb  Nb131  1  0.60122361  0.00009274  0.60034191  1
  Nb  Nb132  1  0.59870149  0.60214792  -0.00346391  1
  Nb  Nb133  1  0.80179448  0.40476687  -0.00528940  1
  Nb  Nb134  1  0.60125500  0.00286300  0.39691284  1
  Nb  Nb135  1  0.40218120  0.19176679  0.39664383  1
  Nb  Nb136  1  -0.00435341  0.40118892  -0.00280963  1
  Nb  Nb137  1  0.00421702  -0.00104748  0.00117025  1
  Nb  Nb138  1  0.40130772  0.60081225  0.19408338  1
  Nb  Nb139  1  0.39309342  0.80518220  0.60248095  1
  Nb  Nb140  1  -0.01085511  0.59360808  0.79896153  1
  Nb  Nb141  1  0.00032710  0.80750786  0.01027951  1
  Nb  Nb142  1  0.40266176  -0.00787801  0.60230938  1
  Nb  Nb143  1  0.20278194  0.39447676  0.59828181  1
  Nb  Nb144  1  0.60659012  0.39593523  0.40295352  1
  Nb  Nb145  1  0.40088448  -0.00321951  0.80045391  1
  Nb  Nb146  1  -0.00441266  0.40556843  0.40638710  1
  Nb  Nb147  1  -0.00534371  -0.00087438  0.40043870  1
  Nb  Nb148  1  0.20334784  0.20088120  0.59875064  1
  Nb  Nb149  1  0.39995465  0.40198426  0.19509352  1
  Pd  Pd150  1  0.80568740  -0.00120082  0.80202795  1
  Pd  Pd151  1  0.40516089  -0.00541671  0.19696072  1
  Pd  Pd152  1  0.18886923  0.79310352  0.19119997  1
  Pd  Pd153  1  0.41459677  0.38402784  0.38176165  1
  Pd  Pd154  1  0.00250059  0.80726785  0.59076271  1
  Pd  Pd155  1  0.59031466  0.40805849  0.21345048  1
  Pd  Pd156  1  0.80111914  -0.00460601  0.59251313  1
  Pd  Pd157  1  0.79899826  0.00559669  0.40091590  1
  Pd  Pd158  1  0.19058508  0.00463095  0.38905417  1
  Pd  Pd159  1  0.80370215  0.60901062  0.40246016  1
  Pd  Pd160  1  0.60407395  0.19240987  0.00788870  1
  Pd  Pd161  1  0.39242639  0.20362782  0.20502918  1
  Pd  Pd162  1  0.20900738  0.59717997  0.20838203  1
  Pd  Pd163  1  0.79387976  0.20787120  0.79673222  1
  Pd  Pd164  1  0.79653731  0.20316680  0.19891425  1
  Pd  Pd165  1  0.20399722  0.60179443  0.39202991  1
  Pd  Pd166  1  0.19154897  0.79575142  0.00497661  1
  Pd  Pd167  1  0.60465632  0.18923310  0.18752666  1
  Pd  Pd168  1  0.20950437  0.19550491  0.40314822  1
  Pd  Pd169  1  0.59893252  0.81010301  0.20628823  1
  Pd  Pd170  1  0.21057905  0.20282549  0.00569809  1
  Pd  Pd171  1  0.19494508  0.79646655  0.40473381  1
  Pd  Pd172  1  0.39591954  0.80024233  0.00417000  1
  Pd  Pd173  1  0.01026838  0.00688752  0.20221505  1
  Pd  Pd174  1  0.19434949  0.39940381  -0.00334654  1
  Pd  Pd175  1  0.00376913  0.59777867  -0.00772463  1
  Pd  Pd176  1  0.60954802  0.40602072  0.80584553  1
  Pd  Pd177  1  0.79727183  0.60270067  0.79180893  1
  Pd  Pd178  1  0.00956003  0.79907370  0.19274318  1
  Pd  Pd179  1  0.19134524  0.00570916  0.20743916  1
  Pd  Pd180  1  0.80275145  0.39445867  0.60145069  1
  Pd  Pd181  1  0.18908776  0.39720613  0.40402236  1
  Pd  Pd182  1  0.41166278  0.59833941  0.80389012  1
  Pd  Pd183  1  -0.00052516  0.19828768  0.19594397  1
  Pd  Pd184  1  0.60293964  0.19595460  0.79545637  1
  Pd  Pd185  1  -0.00552714  0.59830550  0.20394928  1
  Pd  Pd186  1  0.39875996  0.40186802  0.61031312  1
  Pd  Pd187  1  -0.00578185  0.60061590  0.60305695  1
  Pd  Pd188  1  0.61220343  0.78683403  0.80757220  1
  Pd  Pd189  1  0.19343423  0.19498101  0.79554223  1
  Pd  Pd190  1  0.00676273  0.39936613  0.59535922  1
  Pd  Pd191  1  0.40233757  0.60725506  0.60301070  1
  Pd  Pd192  1  0.40770291  0.00053733  0.40379269  1
  Pd  Pd193  1  0.18799687  0.59860235  0.80129832  1
  Pd  Pd194  1  0.39072551  0.20239354  0.00060368  1
  Pd  Pd195  1  0.00967152  0.18534945  0.79317957  1
  Pd  Pd196  1  0.79351117  0.80094470  0.80033859  1
  Pd  Pd197  1  0.39796557  0.40512261  0.79490002  1
  Pd  Pd198  1  0.80770082  0.80996620  0.00257729  1
  Pd  Pd199  1  -0.01079161  0.00619833  0.79834970  1
  Rh  Rh200  1  0.59690763  0.00818462  0.01394720  1
  Rh  Rh201  1  -0.00893323  0.40957072  0.80581084  1
  Rh  Rh202  1  0.60735759  0.80259670  0.39559310  1
  Rh  Rh203  1  0.39601168  0.60854097  0.39202828  1
  Rh  Rh204  1  0.80841670  0.20839330  0.39423957  1
  Rh  Rh205  1  0.59746644  0.80258751  0.59504934  1
  Rh  Rh206  1  0.80378647  0.39579141  0.40484972  1
  Rh  Rh207  1  0.39018410  -0.00755309  -0.00140497  1
  Rh  Rh208  1  0.39010379  0.80500621  0.79813034  1
  Rh  Rh209  1  0.79620526  0.59869712  0.01365480  1
  Rh  Rh210  1  0.79453109  0.20733120  0.60738029  1
  Rh  Rh211  1  0.20938163  0.40661030  0.20179770  1
  Rh  Rh212  1  0.20883573  0.40246375  0.79242977  1
  Rh  Rh213  1  0.20634015  -0.00061939  0.81283047  1
  Rh  Rh214  1  0.39591816  0.79712750  0.40712403  1
  Rh  Rh215  1  0.59382849  0.20353044  0.40736612  1
  Rh  Rh216  1  -0.01039967  0.78476340  0.81212150  1
  Rh  Rh217  1  0.59313956  0.59810711  0.19607910  1
  Rh  Rh218  1  -0.00832137  0.59477695  0.39791164  1
  Rh  Rh219  1  0.60234870  0.60648004  0.59840434  1
  Rh  Rh220  1  0.81229614  -0.00357238  -0.00852273  1
  Rh  Rh221  1  0.20285886  0.19332840  0.19480565  1
  Rh  Rh222  1  0.39910535  0.79516831  0.18882440  1
  Rh  Rh223  1  0.39839843  0.19332428  0.58842725  1
  Rh  Rh224  1  0.20370596  0.79226402  0.79912543  1
  Rh  Rh225  1  0.80342078  0.60640090  0.59381093  1
  Rh  Rh226  1  0.80423630  0.39778353  0.19305569  1
  Rh  Rh227  1  0.19874812  -0.00312975  0.59591560  1
  Rh  Rh228  1  0.79943718  0.78958838  0.39985662  1
  Rh  Rh229  1  0.78824350  0.00753764  0.20667915  1
  Rh  Rh230  1  0.59931785  0.39506858  0.59346056  1
  Rh  Rh231  1  -0.00215907  0.19969568  0.00789412  1
  Rh  Rh232  1  0.20221166  -0.00571010  -0.00282865  1
  Rh  Rh233  1  0.79654126  0.21111652  0.00139412  1
  Rh  Rh234  1  -0.00622593  0.40222218  0.20026618  1
  Rh  Rh235  1  0.00276848  0.80278379  0.40228534  1
  Rh  Rh236  1  0.61329843  0.40572990  -0.00811180  1
  Rh  Rh237  1  0.18928028  0.59591950  -0.00894671  1
  Rh  Rh238  1  0.38962088  0.39446543  0.00176432  1
  Rh  Rh239  1  0.60105089  0.79218558  -0.00671571  1
  Rh  Rh240  1  0.80583481  0.60947556  0.20051199  1
  Rh  Rh241  1  0.20147359  0.60031102  0.60510039  1
  Rh  Rh242  1  0.40927401  0.60768198  -0.00123365  1
  Rh  Rh243  1  0.01580795  0.18560734  0.61069946  1
  Rh  Rh244  1  -0.00591245  0.20301190  0.39340200  1
  Rh  Rh245  1  0.59314351  0.01046625  0.79198631  1
  Rh  Rh246  1  0.40471570  0.19399356  0.81330724  1
  Rh  Rh247  1  0.79873866  0.79445012  0.20336648  1
  Rh  Rh248  1  0.79896896  0.80134539  0.59520321  1
  Rh  Rh249  1  0.60641700  0.59362729  0.40623492  1
