# generated using pymatgen
data_ZrScNbPdRh
_symmetry_space_group_name_H-M   'P 1'
_cell_length_a   16.54936615
_cell_length_b   16.55303685
_cell_length_c   16.55188613
_cell_angle_alpha   89.97225176
_cell_angle_beta   89.97289659
_cell_angle_gamma   90.00228762
_symmetry_Int_Tables_number   1
_chemical_formula_structural   ZrScNbPdRh
_chemical_formula_sum   'Zr50 Sc50 Nb50 Pd50 Rh50'
_cell_volume   4534.26017764
_cell_formula_units_Z   50
loop_
 _symmetry_equiv_pos_site_id
 _symmetry_equiv_pos_as_xyz
  1  'x, y, z'
loop_
 _atom_site_type_symbol
 _atom_site_label
 _atom_site_symmetry_multiplicity
 _atom_site_fract_x
 _atom_site_fract_y
 _atom_site_fract_z
 _atom_site_occupancy
  Zr  Zr0  1  0.69723065  0.49565924  0.09628261  1
  Zr  Zr1  1  0.90587566  0.70492803  0.70501478  1
  Zr  Zr2  1  0.09527230  0.50085066  0.09916473  1
  Zr  Zr3  1  0.69667073  0.30839375  0.70206303  1
  Zr  Zr4  1  0.09745943  0.30404422  0.10422503  1
  Zr  Zr5  1  0.50152618  0.30159494  0.70364300  1
  Zr  Zr6  1  0.70429030  0.09977478  0.30607166  1
  Zr  Zr7  1  0.29869262  0.30177393  0.90483882  1
  Zr  Zr8  1  0.69800480  0.50988675  0.89713340  1
  Zr  Zr9  1  0.09125916  0.30115792  0.89293505  1
  Zr  Zr10  1  0.90923474  0.30334793  0.49581511  1
  Zr  Zr11  1  0.29574257  0.29949784  0.29839527  1
  Zr  Zr12  1  0.69842188  0.89351413  0.29723549  1
  Zr  Zr13  1  0.71128616  0.09407516  0.50017072  1
  Zr  Zr14  1  0.90723907  0.10624112  0.90251282  1
  Zr  Zr15  1  0.49993141  0.30286040  0.09670309  1
  Zr  Zr16  1  0.90195199  0.89574198  0.10629687  1
  Zr  Zr17  1  0.10145067  0.68853857  0.29971396  1
  Zr  Zr18  1  0.70312725  0.10198668  0.69892185  1
  Zr  Zr19  1  0.49940341  0.90347109  0.09658258  1
  Zr  Zr20  1  0.69696951  0.30590446  0.10774575  1
  Zr  Zr21  1  0.71104721  0.50092779  0.30324222  1
  Zr  Zr22  1  0.09859792  0.89428711  0.70837239  1
  Zr  Zr23  1  0.09921486  0.09185407  0.90257986  1
  Zr  Zr24  1  0.10141657  0.90427456  0.09201267  1
  Zr  Zr25  1  0.49655554  0.09440394  0.09645986  1
  Zr  Zr26  1  0.49668871  0.49706908  0.29989933  1
  Zr  Zr27  1  0.50058181  0.50027171  0.49989973  1
  Zr  Zr28  1  0.49481036  0.09953638  0.90383818  1
  Zr  Zr29  1  0.89783020  0.50524086  0.69059642  1
  Zr  Zr30  1  0.30479166  0.69781675  0.50771460  1
  Zr  Zr31  1  0.30015649  0.10205111  0.49773512  1
  Zr  Zr32  1  0.10198629  0.10229721  0.69986484  1
  Zr  Zr33  1  0.49361810  0.09688215  0.70684231  1
  Zr  Zr34  1  0.69952343  0.10599627  0.10117451  1
  Zr  Zr35  1  0.49646271  0.30126354  0.49850918  1
  Zr  Zr36  1  0.09320840  0.09753283  0.09629489  1
  Zr  Zr37  1  0.69889917  0.89995396  0.50061469  1
  Zr  Zr38  1  0.30022290  0.09636667  0.70424987  1
  Zr  Zr39  1  0.10065358  0.49542372  0.90528103  1
  Zr  Zr40  1  0.50531485  0.89889205  0.29237855  1
  Zr  Zr41  1  0.69383113  0.69702574  0.89645012  1
  Zr  Zr42  1  0.29807152  0.09350592  0.30523078  1
  Zr  Zr43  1  0.10469566  0.69738937  0.49780912  1
  Zr  Zr44  1  0.69239816  0.30555951  0.90443164  1
  Zr  Zr45  1  0.29914626  0.30458135  0.10131397  1
  Zr  Zr46  1  0.09651949  0.89970670  0.30403647  1
  Zr  Zr47  1  0.50178387  0.09476658  0.49670166  1
  Zr  Zr48  1  0.90798337  0.09954906  0.10420140  1
  Zr  Zr49  1  0.50265170  0.49718715  0.10156950  1
  Sc  Sc50  1  0.10138166  0.69280727  0.10096919  1
  Sc  Sc51  1  0.30644286  0.89641460  0.29473251  1
  Sc  Sc52  1  0.29158312  0.49599455  0.30012041  1
  Sc  Sc53  1  0.89122080  0.69658587  0.90005843  1
  Sc  Sc54  1  0.70055697  0.10425912  0.90268609  1
  Sc  Sc55  1  0.29849730  0.49973609  0.50162977  1
  Sc  Sc56  1  0.50355924  0.70640356  0.31364630  1
  Sc  Sc57  1  0.70483743  0.89836464  0.89442441  1
  Sc  Sc58  1  0.10658282  0.30332333  0.69882531  1
  Sc  Sc59  1  0.29635599  0.70781146  0.09281797  1
  Sc  Sc60  1  0.90270554  0.30169899  0.89979560  1
  Sc  Sc61  1  0.50390386  0.49736258  0.69682184  1
  Sc  Sc62  1  0.49419380  0.09596352  0.30521681  1
  Sc  Sc63  1  0.50114086  0.51774180  0.90298562  1
  Sc  Sc64  1  0.30039650  0.50082552  0.69391501  1
  Sc  Sc65  1  0.89899482  0.09561596  0.69853740  1
  Sc  Sc66  1  0.70259146  0.71149148  0.10001325  1
  Sc  Sc67  1  0.29198813  0.30696866  0.50532091  1
  Sc  Sc68  1  0.30098182  0.89553969  0.09767015  1
  Sc  Sc69  1  0.89738523  0.30190102  0.10054118  1
  Sc  Sc70  1  0.09724897  0.49310519  0.50379779  1
  Sc  Sc71  1  0.29819528  0.09549492  0.09530151  1
  Sc  Sc72  1  0.49676654  0.70061289  0.09088672  1
  Sc  Sc73  1  0.29374088  0.89129349  0.89991318  1
  Sc  Sc74  1  0.10571249  0.70994358  0.69200842  1
  Sc  Sc75  1  0.09778815  0.08861564  0.49203049  1
  Sc  Sc76  1  0.48991251  0.89686883  0.69803562  1
  Sc  Sc77  1  0.09457327  0.30979853  0.29937891  1
  Sc  Sc78  1  0.29591750  0.49334603  0.09438618  1
  Sc  Sc79  1  0.90136541  0.89570614  0.88886765  1
  Sc  Sc80  1  0.90432079  0.68845024  0.50155288  1
  Sc  Sc81  1  0.30098805  0.90070018  0.49778234  1
  Sc  Sc82  1  0.50484708  0.89181083  0.50142966  1
  Sc  Sc83  1  0.70978379  0.89873875  0.69503131  1
  Sc  Sc84  1  0.10526452  0.70166925  0.90425619  1
  Sc  Sc85  1  0.91359872  0.69854944  0.30123461  1
  Sc  Sc86  1  0.69421472  0.90035073  0.10440976  1
  Sc  Sc87  1  0.90269599  0.50353294  0.90592037  1
  Sc  Sc88  1  0.08957061  0.10106027  0.30140657  1
  Sc  Sc89  1  0.71298207  0.30701631  0.50916007  1
  Sc  Sc90  1  0.90308924  0.49929677  0.09921687  1
  Sc  Sc91  1  0.49633029  0.30258427  0.29516134  1
  Sc  Sc92  1  0.70787123  0.70185290  0.70490958  1
  Sc  Sc93  1  0.90083500  0.91214202  0.50234897  1
  Sc  Sc94  1  0.09916327  0.89883660  0.50320928  1
  Sc  Sc95  1  0.90226465  0.89859445  0.69741543  1
  Sc  Sc96  1  0.48949613  0.70419117  0.70422079  1
  Sc  Sc97  1  0.30446573  0.09905502  0.89669968  1
  Sc  Sc98  1  0.90103200  0.30449292  0.30034370  1
  Sc  Sc99  1  0.90670040  0.29955134  0.70442099  1
  Nb  Nb100  1  0.88975225  0.49668020  0.49296296  1
  Nb  Nb101  1  0.49357036  0.29486759  0.89928198  1
  Nb  Nb102  1  0.29849036  0.70874189  0.70465095  1
  Nb  Nb103  1  0.31366069  0.69490407  0.89149511  1
  Nb  Nb104  1  0.89978780  0.09471681  0.31567126  1
  Nb  Nb105  1  0.69603992  0.70040433  0.48742604  1
  Nb  Nb106  1  0.29736333  0.29214060  0.69945059  1
  Nb  Nb107  1  0.29845668  0.69850626  0.29934845  1
  Nb  Nb108  1  0.49364292  0.70544427  0.89778868  1
  Nb  Nb109  1  0.90026920  0.70099343  0.10064855  1
  Nb  Nb110  1  0.10239913  0.29455132  0.50123802  1
  Nb  Nb111  1  0.09898511  0.89635240  0.90338565  1
  Nb  Nb112  1  0.71292517  0.50410785  0.50279013  1
  Nb  Nb113  1  0.50076958  0.90339668  0.89903289  1
  Nb  Nb114  1  0.90644521  0.50238939  0.30573820  1
  Nb  Nb115  1  0.90063641  0.89803084  0.29883722  1
  Nb  Nb116  1  0.70033116  0.49957084  0.69397409  1
  Nb  Nb117  1  0.09750567  0.49729027  0.70832481  1
  Nb  Nb118  1  0.50693024  0.69833910  0.50279784  1
  Nb  Nb119  1  0.29657879  0.88761078  0.69885823  1
  Nb  Nb120  1  0.29899194  0.50258712  0.89551121  1
  Nb  Nb121  1  0.69580778  0.30102527  0.29226830  1
  Nb  Nb122  1  0.70055663  0.70181865  0.29952540  1
  Nb  Nb123  1  0.08711506  0.50419951  0.29462498  1
  Nb  Nb124  1  0.90332347  0.10331117  0.49482846  1
  Nb  Nb125  1  0.59358374  0.80309495  -0.01025686  1
  Nb  Nb126  1  0.80488969  0.00138411  0.00692566  1
  Nb  Nb127  1  0.60698906  0.60344224  0.59185328  1
  Nb  Nb128  1  0.40020132  0.60312160  0.20365902  1
  Nb  Nb129  1  0.80116112  0.60486677  0.20375010  1
  Nb  Nb130  1  0.19399347  -0.00091745  0.19994995  1
  Nb  Nb131  1  0.79955013  0.79546667  0.39798066  1
  Nb  Nb132  1  0.00965566  0.59869262  0.79736339  1
  Nb  Nb133  1  0.60213097  0.60366235  0.20377368  1
  Nb  Nb134  1  0.00375264  0.19694024  0.59153673  1
  Nb  Nb135  1  0.39719131  0.39844329  0.80458613  1
  Nb  Nb136  1  0.39583715  0.19826455  0.19778136  1
  Nb  Nb137  1  0.60682014  0.20678939  0.40300760  1
  Nb  Nb138  1  0.19636107  0.20187352  0.40132764  1
  Nb  Nb139  1  0.79398151  0.40879073  0.79692834  1
  Nb  Nb140  1  0.20451003  0.60118745  0.79917612  1
  Nb  Nb141  1  0.20210652  -0.00351503  0.60730905  1
  Nb  Nb142  1  -0.00180746  0.79957416  0.00133987  1
  Nb  Nb143  1  0.60952727  0.39905603  0.40079575  1
  Nb  Nb144  1  0.20294427  0.79138211  0.39517134  1
  Nb  Nb145  1  0.59778556  0.19888470  0.59686605  1
  Nb  Nb146  1  0.80686352  0.00173902  0.20469823  1
  Nb  Nb147  1  0.19480861  0.20205270  0.00073790  1
  Nb  Nb148  1  0.40011276  0.19957092  0.60264367  1
  Nb  Nb149  1  0.59593739  -0.00082946  0.80181005  1
  Pd  Pd150  1  0.79919534  0.80669564  -0.00433739  1
  Pd  Pd151  1  0.60111731  0.19327186  0.79926293  1
  Pd  Pd152  1  0.20151658  0.19012948  0.20147109  1
  Pd  Pd153  1  0.58743506  0.19301026  0.20825445  1
  Pd  Pd154  1  0.79899906  0.39163519  0.39462195  1
  Pd  Pd155  1  0.80923577  0.19761356  0.20622555  1
  Pd  Pd156  1  0.59354607  0.41015782  0.80933796  1
  Pd  Pd157  1  0.20789972  0.60483856  -0.00532470  1
  Pd  Pd158  1  0.38818548  -0.00781488  -0.00623757  1
  Pd  Pd159  1  0.20143669  0.59560174  0.40232634  1
  Pd  Pd160  1  0.59726436  0.20245776  0.00033673  1
  Pd  Pd161  1  0.79694351  0.60249620  0.00943299  1
  Pd  Pd162  1  0.00807573  0.59822268  0.60160315  1
  Pd  Pd163  1  0.60575838  0.00751216  0.20348408  1
  Pd  Pd164  1  0.00256830  0.39538719  0.60176352  1
  Pd  Pd165  1  0.40509088  -0.01440602  0.40078925  1
  Pd  Pd166  1  0.60090542  0.79150182  0.60913943  1
  Pd  Pd167  1  0.20977523  0.59459978  0.19436745  1
  Pd  Pd168  1  0.79496069  0.61186534  0.59985346  1
  Pd  Pd169  1  0.19916647  0.19978525  0.80969179  1
  Pd  Pd170  1  0.39257364  0.39500560  0.60701954  1
  Pd  Pd171  1  0.39358576  0.59887453  0.00859742  1
  Pd  Pd172  1  0.40776704  0.40914609  -0.00947784  1
  Pd  Pd173  1  0.40585989  0.78958716  0.19752676  1
  Pd  Pd174  1  0.19571886  0.80429492  0.20331757  1
  Pd  Pd175  1  -0.00484244  0.80268124  0.59136788  1
  Pd  Pd176  1  0.59888765  0.80736705  0.79654719  1
  Pd  Pd177  1  0.19100960  0.40075990  0.39895825  1
  Pd  Pd178  1  0.80590774  0.79409314  0.58937302  1
  Pd  Pd179  1  0.80138903  0.20982241  0.80253848  1
  Pd  Pd180  1  0.79702348  0.21179617  0.39735826  1
  Pd  Pd181  1  0.80205726  0.20175767  0.00127401  1
  Pd  Pd182  1  0.20818978  0.40377801  0.79437237  1
  Pd  Pd183  1  0.80696246  0.20423807  0.60328684  1
  Pd  Pd184  1  0.60031162  0.00030671  0.60930096  1
  Pd  Pd185  1  0.39491743  0.60087060  0.39595513  1
  Pd  Pd186  1  0.39769861  0.39873000  0.39901996  1
  Pd  Pd187  1  0.40678332  0.60202623  0.60656497  1
  Pd  Pd188  1  -0.00646961  0.20271946  0.20888985  1
  Pd  Pd189  1  0.00895048  0.79422930  0.19482258  1
  Pd  Pd190  1  -0.00220438  0.80178354  0.40818439  1
  Pd  Pd191  1  -0.00255291  -0.00058393  0.79859518  1
  Pd  Pd192  1  0.60189827  0.59215500  0.39894615  1
  Pd  Pd193  1  0.19544806  0.59518066  0.60819519  1
  Pd  Pd194  1  0.20416072  -0.00799479  0.79996043  1
  Pd  Pd195  1  0.79685665  0.00195807  0.80524337  1
  Pd  Pd196  1  0.80334956  0.40034495  -0.00597585  1
  Pd  Pd197  1  0.39434849  -0.00283012  0.59872590  1
  Pd  Pd198  1  0.39787231  0.80091162  0.40404829  1
  Pd  Pd199  1  0.59231938  0.60397423  0.78590300  1
  Rh  Rh200  1  0.20303511  0.00336881  0.00099716  1
  Rh  Rh201  1  0.80438217  0.40663058  0.20188790  1
  Rh  Rh202  1  0.19851011  0.40245958  0.60502553  1
  Rh  Rh203  1  0.20454966  0.80740641  0.58958579  1
  Rh  Rh204  1  0.60292488  0.80537049  0.40184872  1
  Rh  Rh205  1  0.80235956  -0.01263683  0.39580073  1
  Rh  Rh206  1  0.00536841  0.00669788  0.60234921  1
  Rh  Rh207  1  0.00410489  0.40629113  0.40149076  1
  Rh  Rh208  1  0.19589871  0.79692231  -0.00379935  1
  Rh  Rh209  1  -0.01082535  -0.01363043  -0.01137962  1
  Rh  Rh210  1  -0.00181513  -0.00631856  0.40151041  1
  Rh  Rh211  1  0.39573552  0.59352828  0.79267180  1
  Rh  Rh212  1  0.39792260  0.80659327  0.80396841  1
  Rh  Rh213  1  0.39049447  0.00519531  0.19856789  1
  Rh  Rh214  1  0.80165034  0.79897449  0.79773691  1
  Rh  Rh215  1  0.59048814  0.78990631  0.19002367  1
  Rh  Rh216  1  0.80590638  0.79697403  0.21071516  1
  Rh  Rh217  1  0.80794651  0.39724694  0.60729852  1
  Rh  Rh218  1  -0.00901327  0.59830956  0.19429442  1
  Rh  Rh219  1  0.39608574  0.20808931  0.79738992  1
  Rh  Rh220  1  0.19284727  0.39354868  -0.00057154  1
  Rh  Rh221  1  0.39381786  0.40125376  0.20062121  1
  Rh  Rh222  1  0.39269237  0.20837181  0.39833664  1
  Rh  Rh223  1  0.19981403  0.79248367  0.80681715  1
  Rh  Rh224  1  0.00056821  0.19630818  0.79162102  1
  Rh  Rh225  1  0.59852919  -0.00132456  0.39844095  1
  Rh  Rh226  1  -0.01415576  0.41201030  0.79794638  1
  Rh  Rh227  1  0.00585768  0.20278747  0.40169445  1
  Rh  Rh228  1  0.19275010  0.41051160  0.20192338  1
  Rh  Rh229  1  0.00398559  0.78984125  0.80992729  1
  Rh  Rh230  1  -0.00215600  0.39656450  0.00320574  1
  Rh  Rh231  1  0.80870881  0.59369883  0.79625606  1
  Rh  Rh232  1  0.59112720  0.40106599  -0.00971856  1
  Rh  Rh233  1  -0.00139373  0.00078636  0.21175989  1
  Rh  Rh234  1  0.19759951  -0.00557870  0.39620681  1
  Rh  Rh235  1  0.80648411  0.00052570  0.60065212  1
  Rh  Rh236  1  0.39389980  0.19967254  0.00823470  1
  Rh  Rh237  1  0.00012868  0.58976896  0.40904498  1
  Rh  Rh238  1  0.39790300  -0.01226559  0.80349248  1
  Rh  Rh239  1  0.60747843  0.40659628  0.58810812  1
  Rh  Rh240  1  -0.00430713  0.61073259  -0.00477981  1
  Rh  Rh241  1  0.40019801  0.79667963  0.59627074  1
  Rh  Rh242  1  0.61382678  -0.00806286  -0.01038764  1
  Rh  Rh243  1  0.00488960  0.20925320  0.00144167  1
  Rh  Rh244  1  0.60418184  0.61384656  0.00822193  1
  Rh  Rh245  1  0.40345405  0.80340256  -0.00712133  1
  Rh  Rh246  1  0.80968149  0.60942230  0.39406862  1
  Rh  Rh247  1  0.19853764  0.19148745  0.59098767  1
  Rh  Rh248  1  -0.00615388  0.40413073  0.19984667  1
  Rh  Rh249  1  0.60368179  0.40963024  0.20755635  1
