# generated using pymatgen
data_ZrScNbPdRh
_symmetry_space_group_name_H-M   'P 1'
_cell_length_a   16.56216595
_cell_length_b   16.55367873
_cell_length_c   16.56543476
_cell_angle_alpha   89.97111147
_cell_angle_beta   90.01447202
_cell_angle_gamma   89.99066563
_symmetry_Int_Tables_number   1
_chemical_formula_structural   ZrScNbPdRh
_chemical_formula_sum   'Zr50 Sc50 Nb50 Pd50 Rh50'
_cell_volume   4541.65789823
_cell_formula_units_Z   50
loop_
 _symmetry_equiv_pos_site_id
 _symmetry_equiv_pos_as_xyz
  1  'x, y, z'
loop_
 _atom_site_type_symbol
 _atom_site_label
 _atom_site_symmetry_multiplicity
 _atom_site_fract_x
 _atom_site_fract_y
 _atom_site_fract_z
 _atom_site_occupancy
  Zr  Zr0  1  0.29826126  0.70372848  0.29543997  1
  Zr  Zr1  1  0.49024867  0.29315923  0.69386409  1
  Zr  Zr2  1  0.09377798  0.29319684  0.10916857  1
  Zr  Zr3  1  0.08948871  0.30672349  0.50171495  1
  Zr  Zr4  1  0.69966138  0.89696848  0.70015459  1
  Zr  Zr5  1  0.89547578  0.50711884  0.09895079  1
  Zr  Zr6  1  0.50144994  0.09866089  0.29247416  1
  Zr  Zr7  1  0.70239796  0.69880043  0.69623898  1
  Zr  Zr8  1  0.69807450  0.30172665  0.50083659  1
  Zr  Zr9  1  0.69910279  0.50706290  0.10520210  1
  Zr  Zr10  1  0.90478635  0.30115814  0.29922203  1
  Zr  Zr11  1  0.09787700  0.09314645  0.49908722  1
  Zr  Zr12  1  0.30346506  0.49734414  0.91627153  1
  Zr  Zr13  1  0.30096264  0.89402281  0.70335694  1
  Zr  Zr14  1  0.90138703  0.29887277  0.69560518  1
  Zr  Zr15  1  0.90534064  0.89283216  0.49813064  1
  Zr  Zr16  1  0.90042847  0.89859903  0.29830451  1
  Zr  Zr17  1  0.90154470  0.69423397  0.69366073  1
  Zr  Zr18  1  0.70167282  0.49443293  0.90837215  1
  Zr  Zr19  1  0.29533197  0.70372258  0.69579432  1
  Zr  Zr20  1  0.29891561  0.89995138  0.51371755  1
  Zr  Zr21  1  0.29579735  0.10405253  0.30589202  1
  Zr  Zr22  1  0.10796679  0.29647872  0.89818572  1
  Zr  Zr23  1  0.50357862  0.90235459  0.68638338  1
  Zr  Zr24  1  0.50088078  0.69705136  0.90242742  1
  Zr  Zr25  1  0.30206644  0.29128436  0.89231441  1
  Zr  Zr26  1  0.30207253  0.50620506  0.29861662  1
  Zr  Zr27  1  0.09707623  0.09514031  0.89318216  1
  Zr  Zr28  1  0.09631394  0.10026113  0.29857819  1
  Zr  Zr29  1  0.70644332  0.10158095  0.50279450  1
  Zr  Zr30  1  0.10148932  0.90380484  0.49658650  1
  Zr  Zr31  1  0.29598471  0.09770359  0.49777787  1
  Zr  Zr32  1  0.10068463  0.49748493  0.31542710  1
  Zr  Zr33  1  0.50274009  0.69451296  0.50168906  1
  Zr  Zr34  1  0.91086156  0.50372825  0.49694132  1
  Zr  Zr35  1  0.50299480  0.31092786  0.50324441  1
  Zr  Zr36  1  0.90362284  0.08947660  0.09993982  1
  Zr  Zr37  1  0.69496291  0.90113512  0.50673733  1
  Zr  Zr38  1  0.29893576  0.89839849  0.89844826  1
  Zr  Zr39  1  0.10652234  0.50755095  0.09456639  1
  Zr  Zr40  1  0.09652288  0.51064613  0.70021137  1
  Zr  Zr41  1  0.50123739  0.88911260  0.89521773  1
  Zr  Zr42  1  0.89691624  0.70225541  0.31070439  1
  Zr  Zr43  1  0.70057108  0.09808002  0.29471867  1
  Zr  Zr44  1  0.50408300  0.50302705  0.69096282  1
  Zr  Zr45  1  0.48784178  0.50136474  0.09176018  1
  Zr  Zr46  1  0.90191559  0.50357415  0.70046669  1
  Zr  Zr47  1  0.31019033  0.29627068  0.50227519  1
  Zr  Zr48  1  0.70295744  0.69649737  0.48816787  1
  Zr  Zr49  1  0.50292855  0.29853891  0.10215608  1
  Sc  Sc50  1  0.89243648  0.50985653  0.90357555  1
  Sc  Sc51  1  0.70392549  0.89485815  0.29844124  1
  Sc  Sc52  1  0.49919168  0.30477516  0.30191808  1
  Sc  Sc53  1  0.70519847  0.30135770  0.69260575  1
  Sc  Sc54  1  0.70969155  0.90020949  0.88805208  1
  Sc  Sc55  1  0.10100365  0.30235135  0.30136073  1
  Sc  Sc56  1  0.10504005  0.50983172  0.89851328  1
  Sc  Sc57  1  0.70337439  0.09871053  0.10576426  1
  Sc  Sc58  1  0.70189854  0.30111501  0.09964176  1
  Sc  Sc59  1  0.29947098  0.09900250  0.70215557  1
  Sc  Sc60  1  0.89807725  0.29955714  0.10307490  1
  Sc  Sc61  1  0.09362184  0.29892905  0.70573545  1
  Sc  Sc62  1  0.29400880  0.51103927  0.69596833  1
  Sc  Sc63  1  0.89386502  0.29601534  0.51052118  1
  Sc  Sc64  1  0.29922269  0.30242114  0.30949706  1
  Sc  Sc65  1  0.89943045  0.09564271  0.50755927  1
  Sc  Sc66  1  0.69662207  0.70162690  0.89912537  1
  Sc  Sc67  1  0.10593361  0.89827071  0.90026918  1
  Sc  Sc68  1  0.09702014  0.89635056  0.30279492  1
  Sc  Sc69  1  0.70406126  0.89647645  0.10546221  1
  Sc  Sc70  1  0.10044928  0.70572536  0.49939552  1
  Sc  Sc71  1  0.70215123  0.69432918  0.29610077  1
  Sc  Sc72  1  0.88581721  0.30529525  0.90764421  1
  Sc  Sc73  1  0.10581234  0.90065067  0.69787285  1
  Sc  Sc74  1  0.29909735  0.69814421  0.50592015  1
  Sc  Sc75  1  0.89657622  0.09223736  0.29684411  1
  Sc  Sc76  1  0.29979739  0.69776385  0.10430751  1
  Sc  Sc77  1  0.50206890  0.70126638  0.70072093  1
  Sc  Sc78  1  0.89640645  0.70496814  0.09403755  1
  Sc  Sc79  1  0.49600080  0.90137744  0.09998683  1
  Sc  Sc80  1  0.70371190  0.50269984  0.69723427  1
  Sc  Sc81  1  0.50149937  0.90038539  0.28527826  1
  Sc  Sc82  1  0.50354514  0.50168745  0.29793326  1
  Sc  Sc83  1  0.49197104  0.11145113  0.51178504  1
  Sc  Sc84  1  0.09297537  0.89516975  0.09625797  1
  Sc  Sc85  1  0.50141789  0.69999035  0.10027161  1
  Sc  Sc86  1  0.30341634  0.89979586  0.09968024  1
  Sc  Sc87  1  0.50009257  0.09039439  0.10284177  1
  Sc  Sc88  1  0.10346724  0.70272854  0.90550510  1
  Sc  Sc89  1  0.30257083  0.50731947  0.49657327  1
  Sc  Sc90  1  0.48612980  0.10122035  0.89877550  1
  Sc  Sc91  1  0.70505303  0.69789096  0.10439252  1
  Sc  Sc92  1  0.90497578  0.50977986  0.30617649  1
  Sc  Sc93  1  0.29942233  0.30150018  0.09045477  1
  Sc  Sc94  1  0.29363593  0.09776366  0.89856924  1
  Sc  Sc95  1  0.70007483  0.08525953  0.69816339  1
  Sc  Sc96  1  0.50150016  0.69820764  0.29225701  1
  Sc  Sc97  1  0.30557771  0.09376430  0.09116172  1
  Sc  Sc98  1  0.90169874  0.89726778  0.09474527  1
  Sc  Sc99  1  0.29737689  0.89799320  0.29179849  1
  Nb  Nb100  1  0.89778600  0.08764213  0.89966742  1
  Nb  Nb101  1  0.69735681  0.29688642  0.90022847  1
  Nb  Nb102  1  0.09205585  0.10831042  0.70227504  1
  Nb  Nb103  1  0.49817265  0.09779138  0.70330485  1
  Nb  Nb104  1  0.09935451  0.70440850  0.10512111  1
  Nb  Nb105  1  0.10117132  0.69699790  0.70680082  1
  Nb  Nb106  1  0.89545702  0.89695534  0.70634763  1
  Nb  Nb107  1  0.49836890  0.49731015  0.90099039  1
  Nb  Nb108  1  0.90588873  0.90086032  0.89836953  1
  Nb  Nb109  1  0.50971981  0.50148143  0.50073131  1
  Nb  Nb110  1  0.90982970  0.10213558  0.70877272  1
  Nb  Nb111  1  0.10305771  0.49476986  0.49996756  1
  Nb  Nb112  1  0.10295708  0.70578299  0.29451204  1
  Nb  Nb113  1  0.68133295  0.49876786  0.49114543  1
  Nb  Nb114  1  0.09266833  0.09871674  0.10286841  1
  Nb  Nb115  1  0.69767946  0.29923700  0.29946371  1
  Nb  Nb116  1  0.69996264  0.50387561  0.30244149  1
  Nb  Nb117  1  0.89958838  0.69954730  0.49344924  1
  Nb  Nb118  1  0.49798758  0.89955247  0.49936152  1
  Nb  Nb119  1  0.30955587  0.71145959  0.89047197  1
  Nb  Nb120  1  0.90409129  0.70581701  0.90057140  1
  Nb  Nb121  1  0.30246329  0.50046236  0.10198832  1
  Nb  Nb122  1  0.49843041  0.30071595  0.89730415  1
  Nb  Nb123  1  0.70401895  0.09744071  0.89896561  1
  Nb  Nb124  1  0.29427457  0.30206674  0.70133101  1
  Nb  Nb125  1  0.60355879  0.19890601  0.39803631  1
  Nb  Nb126  1  0.40110926  0.59751200  0.80720312  1
  Nb  Nb127  1  0.40219082  -0.00697397  0.79488006  1
  Nb  Nb128  1  0.40389376  0.80567659  0.40294197  1
  Nb  Nb129  1  0.60268851  0.19693189  -0.00914529  1
  Nb  Nb130  1  0.59461026  0.00259934  0.40441092  1
  Nb  Nb131  1  -0.00433374  0.79706394  0.79800031  1
  Nb  Nb132  1  0.60410199  0.00336011  -0.00856003  1
  Nb  Nb133  1  0.79616202  0.40553861  0.20989313  1
  Nb  Nb134  1  0.00303346  0.39840932  -0.00234719  1
  Nb  Nb135  1  0.20251106  0.40769290  0.19731401  1
  Nb  Nb136  1  -0.00339028  0.40382265  0.80701862  1
  Nb  Nb137  1  0.19777367  0.39862243  0.59922742  1
  Nb  Nb138  1  0.19228858  0.00582564  0.19663084  1
  Nb  Nb139  1  -0.00207392  0.19713959  0.40101006  1
  Nb  Nb140  1  -0.00261039  0.19459143  -0.00262998  1
  Nb  Nb141  1  0.60188767  0.19970737  0.80398792  1
  Nb  Nb142  1  0.40122845  0.40325197  0.80083522  1
  Nb  Nb143  1  0.59511195  0.39435431  0.80480108  1
  Nb  Nb144  1  0.79843804  0.19139802  0.80504667  1
  Nb  Nb145  1  0.19593407  0.20446774  0.60368641  1
  Nb  Nb146  1  0.40409051  -0.00522138  0.40298239  1
  Nb  Nb147  1  0.79215219  0.40300714  0.39643813  1
  Nb  Nb148  1  0.00899629  0.60907580  0.20165232  1
  Nb  Nb149  1  0.39862287  0.19958400  0.20111437  1
  Pd  Pd150  1  0.59108710  0.00356603  0.80650698  1
  Pd  Pd151  1  0.40558502  0.19886652  0.00570652  1
  Pd  Pd152  1  0.60264435  0.79792425  0.19760870  1
  Pd  Pd153  1  0.19642543  0.00874994  0.61088599  1
  Pd  Pd154  1  0.79567164  0.80246233  -0.00363444  1
  Pd  Pd155  1  0.00498046  0.79852696  0.60648567  1
  Pd  Pd156  1  0.60566662  0.19584242  0.60457195  1
  Pd  Pd157  1  0.79375721  -0.00953778  0.00242770  1
  Pd  Pd158  1  0.39884007  0.79742683  0.00893884  1
  Pd  Pd159  1  0.21081367  0.60481984  0.81007430  1
  Pd  Pd160  1  0.19743553  0.60711268  0.40536247  1
  Pd  Pd161  1  0.59934695  0.39521735  0.00090400  1
  Pd  Pd162  1  -0.00607825  0.79741450  0.19941864  1
  Pd  Pd163  1  -0.00465721  -0.00457765  0.60831451  1
  Pd  Pd164  1  0.60279068  0.40448975  0.20021889  1
  Pd  Pd165  1  0.40571987  0.60618349  0.39705190  1
  Pd  Pd166  1  0.60184577  0.60183451  0.00381628  1
  Pd  Pd167  1  0.20443444  0.79612814  0.00537718  1
  Pd  Pd168  1  0.00182482  0.41520384  0.19489219  1
  Pd  Pd169  1  0.80352771  0.20475264  0.39864059  1
  Pd  Pd170  1  0.59908680  0.59250514  0.80090209  1
  Pd  Pd171  1  0.00480864  -0.01263727  0.79539214  1
  Pd  Pd172  1  0.59481996  0.80483057  0.39053087  1
  Pd  Pd173  1  0.79875730  0.39524257  0.79838695  1
  Pd  Pd174  1  -0.01299484  0.21075039  0.81411581  1
  Pd  Pd175  1  0.60864940  0.80842138  0.00228467  1
  Pd  Pd176  1  0.80470755  0.79254493  0.80173226  1
  Pd  Pd177  1  0.80264633  0.20358390  0.19667773  1
  Pd  Pd178  1  -0.00010016  0.60189743  0.00213036  1
  Pd  Pd179  1  0.00692260  0.60698473  0.59008317  1
  Pd  Pd180  1  0.80089807  0.19486619  0.00060316  1
  Pd  Pd181  1  0.80171310  0.79799576  0.59346768  1
  Pd  Pd182  1  0.39209225  0.39293993  0.20093429  1
  Pd  Pd183  1  0.79755177  0.60444167  0.80583307  1
  Pd  Pd184  1  0.20858337  0.80407615  0.40136197  1
  Pd  Pd185  1  0.19995042  0.40905064  0.79431379  1
  Pd  Pd186  1  0.21070490  0.20100464  0.19374088  1
  Pd  Pd187  1  0.79414306  0.59258367  0.58743637  1
  Pd  Pd188  1  0.20990229  0.61490349  -0.00305530  1
  Pd  Pd189  1  0.19636277  0.59760394  0.20266663  1
  Pd  Pd190  1  0.19455159  0.39578269  0.00507615  1
  Pd  Pd191  1  0.79669776  0.41359308  0.58857473  1
  Pd  Pd192  1  0.18896737  0.20909800  0.40933445  1
  Pd  Pd193  1  0.40206901  0.40979716  0.40208555  1
  Pd  Pd194  1  0.19359580  0.19165957  0.00566181  1
  Pd  Pd195  1  0.39003514  0.41242482  0.60343038  1
  Pd  Pd196  1  0.79578593  -0.00704219  0.40045400  1
  Pd  Pd197  1  0.19340851  -0.00031691  0.00675357  1
  Pd  Pd198  1  0.60055642  0.79196065  0.59785655  1
  Pd  Pd199  1  0.81118469  -0.00181648  0.60667087  1
  Rh  Rh200  1  0.79462319  0.61032669  -0.00580485  1
  Rh  Rh201  1  0.60853101  -0.00448586  0.19462387  1
  Rh  Rh202  1  0.20858017  0.39966053  0.40323555  1
  Rh  Rh203  1  -0.00942393  0.19238777  0.20358163  1
  Rh  Rh204  1  0.19194531  0.59834980  0.59318593  1
  Rh  Rh205  1  0.00077061  0.79997180  -0.00847016  1
  Rh  Rh206  1  0.40778812  -0.00976255  -0.01353272  1
  Rh  Rh207  1  0.01207452  0.61228443  0.39851192  1
  Rh  Rh208  1  0.40290413  0.59999201  0.19633243  1
  Rh  Rh209  1  0.40369639  0.79164875  0.59523593  1
  Rh  Rh210  1  -0.00627026  0.00388163  0.39796103  1
  Rh  Rh211  1  0.38454626  0.00774418  0.20775047  1
  Rh  Rh212  1  0.00381042  0.19387934  0.59260193  1
  Rh  Rh213  1  0.20787188  -0.01090722  0.39103917  1
  Rh  Rh214  1  0.79652548  0.80539986  0.40333706  1
  Rh  Rh215  1  0.40256363  0.60075985  0.60441282  1
  Rh  Rh216  1  0.39969273  0.79661783  0.20268257  1
  Rh  Rh217  1  0.38725908  0.19405533  0.60790447  1
  Rh  Rh218  1  0.40730419  0.79872962  0.78945796  1
  Rh  Rh219  1  0.59475220  0.00861988  0.59061866  1
  Rh  Rh220  1  0.80252943  0.40179473  0.01246105  1
  Rh  Rh221  1  0.39480629  0.60986442  -0.00260848  1
  Rh  Rh222  1  0.39882259  0.39124513  -0.00288219  1
  Rh  Rh223  1  0.18954444  0.79652481  0.79913405  1
  Rh  Rh224  1  0.60436290  0.40096642  0.60931398  1
  Rh  Rh225  1  0.80234280  0.18748444  0.61711181  1
  Rh  Rh226  1  -0.01267023  0.39098612  0.40541556  1
  Rh  Rh227  1  0.20097099  0.19191345  0.79116932  1
  Rh  Rh228  1  0.19767518  0.81009119  0.19205978  1
  Rh  Rh229  1  0.81033420  0.59878196  0.20588745  1
  Rh  Rh230  1  0.19104974  0.79660858  0.60306239  1
  Rh  Rh231  1  0.79786356  0.59119966  0.40445386  1
  Rh  Rh232  1  0.59534562  0.59699328  0.19696375  1
  Rh  Rh233  1  0.59481552  0.20166560  0.19790140  1
  Rh  Rh234  1  0.00446461  -0.00886183  0.20156878  1
  Rh  Rh235  1  0.39987945  0.19710689  0.79498532  1
  Rh  Rh236  1  -0.00397391  0.60403811  0.80782375  1
  Rh  Rh237  1  0.00495038  0.40649680  0.61113187  1
  Rh  Rh238  1  0.00271122  0.79777366  0.40053893  1
  Rh  Rh239  1  0.00385945  0.00005912  -0.00382294  1
  Rh  Rh240  1  0.59493510  0.60406440  0.39242513  1
  Rh  Rh241  1  0.41315323  0.19325723  0.39168164  1
  Rh  Rh242  1  0.40175733  0.00635500  0.60152274  1
  Rh  Rh243  1  0.60688909  0.60405782  0.59847849  1
  Rh  Rh244  1  0.20291387  0.00295357  0.79545434  1
  Rh  Rh245  1  0.60028518  0.39468909  0.39367306  1
  Rh  Rh246  1  0.80495256  0.79575901  0.20076339  1
  Rh  Rh247  1  0.80753558  0.00308599  0.79326765  1
  Rh  Rh248  1  0.80317752  -0.00653702  0.19578184  1
  Rh  Rh249  1  0.60305080  0.79756948  0.79406819  1
