# generated using pymatgen
data_ZrScNbPdRh
_symmetry_space_group_name_H-M   'P 1'
_cell_length_a   16.56285980
_cell_length_b   16.55942395
_cell_length_c   16.56137901
_cell_angle_alpha   89.97239169
_cell_angle_beta   90.01906789
_cell_angle_gamma   90.00260754
_symmetry_Int_Tables_number   1
_chemical_formula_structural   ZrScNbPdRh
_chemical_formula_sum   'Zr50 Sc50 Nb50 Pd50 Rh50'
_cell_volume   4542.31210949
_cell_formula_units_Z   50
loop_
 _symmetry_equiv_pos_site_id
 _symmetry_equiv_pos_as_xyz
  1  'x, y, z'
loop_
 _atom_site_type_symbol
 _atom_site_label
 _atom_site_symmetry_multiplicity
 _atom_site_fract_x
 _atom_site_fract_y
 _atom_site_fract_z
 _atom_site_occupancy
  Zr  Zr0  1  0.90757315  0.50928127  0.69654390  1
  Zr  Zr1  1  0.09908291  0.29385412  0.91077756  1
  Zr  Zr2  1  0.91209773  0.49859741  0.10147160  1
  Zr  Zr3  1  0.30192298  0.29708987  0.70490310  1
  Zr  Zr4  1  0.70276968  0.90880589  0.49613760  1
  Zr  Zr5  1  0.49032714  0.09663229  0.30414349  1
  Zr  Zr6  1  0.29922263  0.50331995  0.70154409  1
  Zr  Zr7  1  0.30250215  0.89531078  0.49832191  1
  Zr  Zr8  1  0.09575187  0.50262878  0.70061093  1
  Zr  Zr9  1  0.70205564  0.69299371  0.90276250  1
  Zr  Zr10  1  0.69706295  0.49384123  0.90059533  1
  Zr  Zr11  1  0.29542622  0.09861234  0.29502355  1
  Zr  Zr12  1  0.50374521  0.09504601  0.49900561  1
  Zr  Zr13  1  0.69349697  0.89159781  0.30338536  1
  Zr  Zr14  1  0.10831945  0.10068149  0.70805023  1
  Zr  Zr15  1  0.69439048  0.29930518  0.10107383  1
  Zr  Zr16  1  0.89726964  0.89766647  0.50408778  1
  Zr  Zr17  1  0.10112242  0.89380039  0.30270011  1
  Zr  Zr18  1  0.50093064  0.29935136  0.29225212  1
  Zr  Zr19  1  0.70174965  0.50145315  0.30763146  1
  Zr  Zr20  1  0.89621321  0.09582924  0.49924583  1
  Zr  Zr21  1  0.90162962  0.90428744  0.70503309  1
  Zr  Zr22  1  0.69687884  0.29182573  0.70936471  1
  Zr  Zr23  1  0.89286694  0.50007251  0.29337908  1
  Zr  Zr24  1  0.49568443  0.89624426  0.90095703  1
  Zr  Zr25  1  0.70138591  0.09325988  0.69939955  1
  Zr  Zr26  1  0.29281815  0.70478468  0.10016294  1
  Zr  Zr27  1  0.51070266  0.30994953  0.89293882  1
  Zr  Zr28  1  0.29684363  0.89533973  0.90240222  1
  Zr  Zr29  1  0.30187604  0.30177943  0.10358419  1
  Zr  Zr30  1  0.70442399  0.70036795  0.28985525  1
  Zr  Zr31  1  0.50397690  0.70222759  0.90226727  1
  Zr  Zr32  1  0.49463494  0.70165379  0.69544937  1
  Zr  Zr33  1  0.29926166  0.49580143  0.29649855  1
  Zr  Zr34  1  0.29473020  0.10469196  0.10633963  1
  Zr  Zr35  1  0.69920081  0.89995608  0.11354192  1
  Zr  Zr36  1  0.50617666  0.50323058  0.29725230  1
  Zr  Zr37  1  0.70192185  0.31412101  0.29985057  1
  Zr  Zr38  1  0.50248802  0.49981003  0.49873807  1
  Zr  Zr39  1  0.89623014  0.71265697  0.91013085  1
  Zr  Zr40  1  0.49401878  0.49247747  0.70436733  1
  Zr  Zr41  1  0.70281889  0.29914828  0.90187151  1
  Zr  Zr42  1  0.10300193  0.29989256  0.69110606  1
  Zr  Zr43  1  0.10439033  0.10255811  0.30079659  1
  Zr  Zr44  1  0.50780664  0.10432135  0.70321702  1
  Zr  Zr45  1  0.89500711  0.10388585  0.70211161  1
  Zr  Zr46  1  0.49803468  0.29708974  0.09348553  1
  Zr  Zr47  1  0.90759527  0.29588321  0.49695182  1
  Zr  Zr48  1  0.09408827  0.90729055  0.89999957  1
  Zr  Zr49  1  0.09463797  0.89709783  0.50177738  1
  Sc  Sc50  1  0.50383762  0.88784500  0.70309432  1
  Sc  Sc51  1  0.90254382  0.30128524  0.90589523  1
  Sc  Sc52  1  0.10009614  0.90127080  0.09441751  1
  Sc  Sc53  1  0.30552851  0.29170773  0.90614937  1
  Sc  Sc54  1  0.10122993  0.70643706  0.90857795  1
  Sc  Sc55  1  0.50015857  0.89148437  0.49168037  1
  Sc  Sc56  1  0.09407574  0.11457364  0.50050986  1
  Sc  Sc57  1  0.08568055  0.69569796  0.69952928  1
  Sc  Sc58  1  0.09621729  0.70668345  0.49578263  1
  Sc  Sc59  1  0.29686386  0.89985404  0.10275420  1
  Sc  Sc60  1  0.49660409  0.89600911  0.30254965  1
  Sc  Sc61  1  0.90417472  0.70362684  0.50429804  1
  Sc  Sc62  1  0.30187922  0.50401680  0.10841064  1
  Sc  Sc63  1  0.10924443  0.50108853  0.49503689  1
  Sc  Sc64  1  0.30515348  0.70674206  0.50308197  1
  Sc  Sc65  1  0.09912626  0.09763875  0.09276125  1
  Sc  Sc66  1  0.50733135  0.70462362  0.29769529  1
  Sc  Sc67  1  0.49803772  0.09746219  0.10443549  1
  Sc  Sc68  1  0.89745388  0.30800311  0.29390177  1
  Sc  Sc69  1  0.29409638  0.70426813  0.29289013  1
  Sc  Sc70  1  0.88870249  0.90030773  0.29293983  1
  Sc  Sc71  1  0.09555044  0.30129819  0.10137278  1
  Sc  Sc72  1  0.90153079  0.09929684  0.89947459  1
  Sc  Sc73  1  0.50628200  0.09410324  0.90760675  1
  Sc  Sc74  1  0.09244877  0.51102852  0.89909072  1
  Sc  Sc75  1  0.71874528  0.49754412  0.69868923  1
  Sc  Sc76  1  0.69846696  0.50258118  0.09705128  1
  Sc  Sc77  1  0.29293912  0.29431977  0.29477661  1
  Sc  Sc78  1  0.90205556  0.30969746  0.69542487  1
  Sc  Sc79  1  0.69817677  0.89923924  0.89551418  1
  Sc  Sc80  1  0.90748009  0.30701331  0.09825028  1
  Sc  Sc81  1  0.30249776  0.09994341  0.48638230  1
  Sc  Sc82  1  0.70369241  0.70810187  0.49701089  1
  Sc  Sc83  1  0.68616222  0.08982875  0.10287190  1
  Sc  Sc84  1  0.29844469  0.90022081  0.29870931  1
  Sc  Sc85  1  0.11144472  0.50049161  0.28908510  1
  Sc  Sc86  1  0.70412352  0.09850539  0.88845125  1
  Sc  Sc87  1  0.10555894  0.30096037  0.49669901  1
  Sc  Sc88  1  0.70280721  0.89443158  0.69844009  1
  Sc  Sc89  1  0.28502550  0.10461500  0.89834822  1
  Sc  Sc90  1  0.30748203  0.51220611  0.90154127  1
  Sc  Sc91  1  0.29493458  0.49683638  0.49928368  1
  Sc  Sc92  1  0.30173492  0.70369164  0.90150424  1
  Sc  Sc93  1  0.89489688  0.50260450  0.89921623  1
  Sc  Sc94  1  0.88747174  0.69995489  0.70156951  1
  Sc  Sc95  1  0.50205625  0.90333837  0.09516383  1
  Sc  Sc96  1  0.69903570  0.07871860  0.30070070  1
  Sc  Sc97  1  0.89178450  0.50089621  0.50505682  1
  Sc  Sc98  1  0.29330411  0.30565467  0.49968790  1
  Sc  Sc99  1  0.49548483  0.50228192  0.09819949  1
  Nb  Nb100  1  0.30183443  0.10019641  0.70371371  1
  Nb  Nb101  1  0.50112558  0.30039485  0.69956386  1
  Nb  Nb102  1  0.30160311  0.70769574  0.69885758  1
  Nb  Nb103  1  0.69948647  0.09791526  0.50013455  1
  Nb  Nb104  1  0.69349052  0.69712474  0.70190737  1
  Nb  Nb105  1  0.10247780  0.90568536  0.70158343  1
  Nb  Nb106  1  0.90105992  0.09036925  0.10640758  1
  Nb  Nb107  1  0.69745660  0.48945260  0.49593679  1
  Nb  Nb108  1  0.89678804  0.70476961  0.10344796  1
  Nb  Nb109  1  0.10287441  0.49877216  0.09859347  1
  Nb  Nb110  1  0.09851311  0.29808427  0.30134561  1
  Nb  Nb111  1  0.70382258  0.30429107  0.49740352  1
  Nb  Nb112  1  0.49679731  0.69850244  0.49843775  1
  Nb  Nb113  1  0.30017841  0.89805052  0.69817728  1
  Nb  Nb114  1  0.90149128  0.09832671  0.30024535  1
  Nb  Nb115  1  0.90079362  0.69668377  0.29517597  1
  Nb  Nb116  1  0.69416947  0.70142956  0.09995072  1
  Nb  Nb117  1  0.90280929  0.89881568  0.09499607  1
  Nb  Nb118  1  0.09882889  0.10559431  0.90194386  1
  Nb  Nb119  1  0.51647390  0.69688863  0.09954396  1
  Nb  Nb120  1  0.90233612  0.89881101  0.90949114  1
  Nb  Nb121  1  0.50338299  0.29882516  0.49910181  1
  Nb  Nb122  1  0.09995654  0.69662801  0.10401753  1
  Nb  Nb123  1  0.50713835  0.50274306  0.89866815  1
  Nb  Nb124  1  0.09557039  0.70224963  0.29813449  1
  Nb  Nb125  1  0.40475376  0.40120646  0.39651466  1
  Nb  Nb126  1  -0.00544827  0.19382945  0.20245254  1
  Nb  Nb127  1  0.00246513  0.40591250  0.39165223  1
  Nb  Nb128  1  0.20399577  -0.00196192  0.60670821  1
  Nb  Nb129  1  0.19791485  0.80464207  0.78965432  1
  Nb  Nb130  1  0.60270916  0.59597239  0.59977462  1
  Nb  Nb131  1  0.79192379  0.20038096  0.59242746  1
  Nb  Nb132  1  0.39307547  -0.00122817  0.79548635  1
  Nb  Nb133  1  0.19917511  0.40570938  -0.00131212  1
  Nb  Nb134  1  0.39628091  0.00198615  0.60677192  1
  Nb  Nb135  1  0.80161782  0.19266840  0.19960825  1
  Nb  Nb136  1  0.80508142  -0.00293089  0.00486373  1
  Nb  Nb137  1  0.40181335  0.59905653  0.39816284  1
  Nb  Nb138  1  0.60736284  0.20060768  0.40385770  1
  Nb  Nb139  1  0.79499046  0.19750503  0.39719657  1
  Nb  Nb140  1  0.60058435  0.59760977  0.79377031  1
  Nb  Nb141  1  0.80232317  0.19106635  0.01202151  1
  Nb  Nb142  1  0.00610626  0.19955781  0.80067893  1
  Nb  Nb143  1  0.20328813  0.60694118  0.60603554  1
  Nb  Nb144  1  0.60289977  0.39705164  0.59846161  1
  Nb  Nb145  1  -0.00084387  0.60129115  0.38904703  1
  Nb  Nb146  1  0.19874575  0.40019993  0.80631753  1
  Nb  Nb147  1  0.40542876  0.20000781  0.60286790  1
  Nb  Nb148  1  -0.00426069  0.79334935  0.19658563  1
  Nb  Nb149  1  -0.00322684  -0.00000616  0.39723304  1
  Pd  Pd150  1  0.00763535  0.00793199  0.59582496  1
  Pd  Pd151  1  0.39534393  0.59980195  0.59280574  1
  Pd  Pd152  1  0.21229084  0.19168641  0.59134462  1
  Pd  Pd153  1  -0.00423550  0.79798388  0.61014332  1
  Pd  Pd154  1  0.40447096  0.60764574  0.80277862  1
  Pd  Pd155  1  0.40241627  0.79478069  0.01120129  1
  Pd  Pd156  1  0.40088192  0.39219839  0.59283850  1
  Pd  Pd157  1  0.80601269  0.79705503  0.39834325  1
  Pd  Pd158  1  -0.01051217  0.61279811  0.81114643  1
  Pd  Pd159  1  0.79692192  0.80280116  0.80047219  1
  Pd  Pd160  1  0.60783135  0.18960986  0.21299704  1
  Pd  Pd161  1  0.79508502  0.59632284  0.18943497  1
  Pd  Pd162  1  0.40347997  0.60556781  0.00567662  1
  Pd  Pd163  1  0.59360313  -0.01267232  0.60191228  1
  Pd  Pd164  1  0.39073191  0.39895364  0.81237279  1
  Pd  Pd165  1  0.59804653  0.40885704  0.19015840  1
  Pd  Pd166  1  0.00723374  -0.00547429  0.20538587  1
  Pd  Pd167  1  0.80758750  0.39811501  0.79882423  1
  Pd  Pd168  1  0.40228516  0.19061149  -0.00302802  1
  Pd  Pd169  1  0.20168975  0.60989837  0.40421730  1
  Pd  Pd170  1  0.40286347  0.61142460  0.20385242  1
  Pd  Pd171  1  0.60144694  0.61052271  0.40472192  1
  Pd  Pd172  1  0.19263570  0.79653250  0.60439553  1
  Pd  Pd173  1  -0.00420494  0.60429972  -0.00169787  1
  Pd  Pd174  1  0.00694571  0.60038143  0.20116609  1
  Pd  Pd175  1  0.19911492  0.60845468  0.79646555  1
  Pd  Pd176  1  0.80529343  0.60493240  0.40789710  1
  Pd  Pd177  1  0.00620614  0.40707793  0.58504624  1
  Pd  Pd178  1  0.60165068  0.79767566  0.59113144  1
  Pd  Pd179  1  0.59408777  -0.00786239  0.79919835  1
  Pd  Pd180  1  0.19100314  0.00234500  0.41065187  1
  Pd  Pd181  1  0.20214850  0.00108772  0.00182353  1
  Pd  Pd182  1  0.80455371  0.59780224  0.00756421  1
  Pd  Pd183  1  0.60268366  0.20552861  0.59533905  1
  Pd  Pd184  1  0.39841296  0.21030688  0.40395867  1
  Pd  Pd185  1  0.39587693  0.40627726  -0.00498384  1
  Pd  Pd186  1  0.60624751  0.80699979  0.00023236  1
  Pd  Pd187  1  0.40821039  0.19276813  0.80520125  1
  Pd  Pd188  1  0.00278201  0.79728057  0.79837753  1
  Pd  Pd189  1  0.39009231  0.00706771  -0.00602076  1
  Pd  Pd190  1  0.20557548  0.79358154  0.40012222  1
  Pd  Pd191  1  0.00416753  0.39466303  0.80861276  1
  Pd  Pd192  1  0.60665151  0.19223986  -0.00422772  1
  Pd  Pd193  1  -0.00394453  0.00608140  0.80439949  1
  Pd  Pd194  1  0.80232988  0.39511508  0.00577831  1
  Pd  Pd195  1  0.20111640  0.59634752  0.00333171  1
  Pd  Pd196  1  0.79180623  0.60410623  0.59234436  1
  Pd  Pd197  1  0.40650608  0.79813436  0.19507973  1
  Pd  Pd198  1  0.78831901  0.80734807  0.00608515  1
  Pd  Pd199  1  0.39918886  -0.00688819  0.19800869  1
  Rh  Rh200  1  0.80583305  -0.00998368  0.80825161  1
  Rh  Rh201  1  0.39975947  0.19827120  0.19815518  1
  Rh  Rh202  1  0.61013172  -0.00523500  -0.00347415  1
  Rh  Rh203  1  0.19532105  0.80143885  -0.00171611  1
  Rh  Rh204  1  0.60683243  0.40846599  0.78871919  1
  Rh  Rh205  1  0.59337992  0.39277444  0.40223880  1
  Rh  Rh206  1  0.79775600  -0.00036435  0.60485096  1
  Rh  Rh207  1  0.18983788  0.80264235  0.19497378  1
  Rh  Rh208  1  0.79763468  0.40115861  0.18891859  1
  Rh  Rh209  1  0.60519681  0.59764666  0.19725258  1
  Rh  Rh210  1  0.20060818  0.20568312  0.00862672  1
  Rh  Rh211  1  0.19852969  0.40983931  0.60968014  1
  Rh  Rh212  1  0.79917223  0.80116931  0.60421223  1
  Rh  Rh213  1  0.59387964  0.40395524  0.00509912  1
  Rh  Rh214  1  0.39348414  0.80250777  0.80262947  1
  Rh  Rh215  1  0.81211899  0.20831151  0.80214456  1
  Rh  Rh216  1  -0.00863891  0.19159653  0.00333332  1
  Rh  Rh217  1  0.60461020  0.79151779  0.80360224  1
  Rh  Rh218  1  0.19629508  0.39525644  0.19182138  1
  Rh  Rh219  1  0.40550591  0.80704172  0.59754333  1
  Rh  Rh220  1  0.79959529  0.60185118  0.80333855  1
  Rh  Rh221  1  0.59401858  0.80079609  0.19889296  1
  Rh  Rh222  1  0.80333684  0.79900357  0.19526558  1
  Rh  Rh223  1  0.59666103  0.19781168  0.80864002  1
  Rh  Rh224  1  0.39864503  0.79015217  0.39384106  1
  Rh  Rh225  1  0.00627057  0.79654962  0.01046860  1
  Rh  Rh226  1  -0.00545869  0.20393399  0.38886276  1
  Rh  Rh227  1  0.19613833  -0.00328012  0.19675184  1
  Rh  Rh228  1  0.58628541  -0.00339389  0.20770881  1
  Rh  Rh229  1  0.81358015  0.39763554  0.40422468  1
  Rh  Rh230  1  0.59471620  -0.00067565  0.39798528  1
  Rh  Rh231  1  0.60163714  0.79518806  0.40157419  1
  Rh  Rh232  1  0.20391137  -0.00677744  0.80137959  1
  Rh  Rh233  1  -0.00801183  0.19863262  0.61197824  1
  Rh  Rh234  1  0.01015223  0.59693501  0.58352860  1
  Rh  Rh235  1  -0.00948460  0.80093189  0.38810194  1
  Rh  Rh236  1  0.39835289  -0.00847156  0.40266660  1
  Rh  Rh237  1  0.20312266  0.20265352  0.40193467  1
  Rh  Rh238  1  0.40147696  0.39701025  0.20375688  1
  Rh  Rh239  1  0.20052432  0.39343903  0.39056397  1
  Rh  Rh240  1  0.19347185  0.21114851  0.80250550  1
  Rh  Rh241  1  0.00831385  0.39511383  0.20561214  1
  Rh  Rh242  1  0.80512670  -0.00115472  0.39786348  1
  Rh  Rh243  1  0.79634733  0.39239941  0.59991793  1
  Rh  Rh244  1  0.18735910  0.20237001  0.19515944  1
  Rh  Rh245  1  0.19973710  0.60381778  0.19781034  1
  Rh  Rh246  1  0.79873505  -0.00087144  0.19694584  1
  Rh  Rh247  1  0.59895287  0.59572740  -0.00320475  1
  Rh  Rh248  1  -0.00401115  0.00450958  -0.00424186  1
  Rh  Rh249  1  0.00764776  0.41105637  -0.00368181  1
