# generated using pymatgen
data_ZrScNbPdRh
_symmetry_space_group_name_H-M   'P 1'
_cell_length_a   16.55727811
_cell_length_b   16.55560570
_cell_length_c   16.55816905
_cell_angle_alpha   89.98602456
_cell_angle_beta   89.93296947
_cell_angle_gamma   89.99162664
_symmetry_Int_Tables_number   1
_chemical_formula_structural   ZrScNbPdRh
_chemical_formula_sum   'Zr50 Sc50 Nb50 Pd50 Rh50'
_cell_volume   4538.85193429
_cell_formula_units_Z   50
loop_
 _symmetry_equiv_pos_site_id
 _symmetry_equiv_pos_as_xyz
  1  'x, y, z'
loop_
 _atom_site_type_symbol
 _atom_site_label
 _atom_site_symmetry_multiplicity
 _atom_site_fract_x
 _atom_site_fract_y
 _atom_site_fract_z
 _atom_site_occupancy
  Zr  Zr0  1  0.09326271  0.10022543  0.49584861  1
  Zr  Zr1  1  0.70842876  0.70270296  0.29970266  1
  Zr  Zr2  1  0.49434332  0.30286423  0.70021488  1
  Zr  Zr3  1  0.50805952  0.29842671  0.09447617  1
  Zr  Zr4  1  0.89256020  0.09500986  0.10102250  1
  Zr  Zr5  1  0.48949737  0.49649255  0.10823174  1
  Zr  Zr6  1  0.70133325  0.29831067  0.49501541  1
  Zr  Zr7  1  0.69875952  0.11261308  0.10065283  1
  Zr  Zr8  1  0.69499573  0.90467934  0.70173390  1
  Zr  Zr9  1  0.29510752  0.49644500  0.70856766  1
  Zr  Zr10  1  0.69664390  0.49786027  0.69738049  1
  Zr  Zr11  1  0.10388348  0.10074600  0.30627314  1
  Zr  Zr12  1  0.10009655  0.09875300  0.09502411  1
  Zr  Zr13  1  0.50341984  0.50629548  0.70242177  1
  Zr  Zr14  1  0.49464248  0.70364610  0.50794641  1
  Zr  Zr15  1  0.69896764  0.69756409  0.90498042  1
  Zr  Zr16  1  0.70171578  0.89611460  0.91216231  1
  Zr  Zr17  1  0.09115347  0.30929934  0.89944751  1
  Zr  Zr18  1  0.09800731  0.89793405  0.30711242  1
  Zr  Zr19  1  0.08615583  0.70110500  0.09754490  1
  Zr  Zr20  1  0.10353866  0.50092095  0.89195842  1
  Zr  Zr21  1  0.69726001  0.49520317  0.30013719  1
  Zr  Zr22  1  0.29787523  0.29871005  0.69762756  1
  Zr  Zr23  1  0.51316338  0.49690183  0.50571711  1
  Zr  Zr24  1  0.89107431  0.29863576  0.08988386  1
  Zr  Zr25  1  0.30901655  0.30917696  0.08915077  1
  Zr  Zr26  1  0.30725524  0.10220960  0.70144188  1
  Zr  Zr27  1  0.10087313  0.29978804  0.50407317  1
  Zr  Zr28  1  0.30271379  0.50451525  0.29644131  1
  Zr  Zr29  1  0.90666980  0.69185744  0.28746362  1
  Zr  Zr30  1  0.70190883  0.09800943  0.50415239  1
  Zr  Zr31  1  0.30298529  0.09380750  0.49728636  1
  Zr  Zr32  1  0.10462649  0.49743375  0.08348526  1
  Zr  Zr33  1  0.10009198  0.30403898  0.30202197  1
  Zr  Zr34  1  0.08942761  0.71306954  0.69987254  1
  Zr  Zr35  1  0.50681711  0.89656759  0.10133109  1
  Zr  Zr36  1  0.89877541  0.28968078  0.50533663  1
  Zr  Zr37  1  0.29589628  0.90102472  0.89634096  1
  Zr  Zr38  1  0.88848070  0.89838361  0.30624788  1
  Zr  Zr39  1  0.70393886  0.29616526  0.71493011  1
  Zr  Zr40  1  0.50127235  0.09326162  0.69840528  1
  Zr  Zr41  1  0.29247522  0.70532500  0.89533415  1
  Zr  Zr42  1  0.28905200  0.50917863  0.50525319  1
  Zr  Zr43  1  0.30236210  0.30263233  0.50611438  1
  Zr  Zr44  1  0.69450512  0.29250626  0.29250101  1
  Zr  Zr45  1  0.69901766  0.91409926  0.10485785  1
  Zr  Zr46  1  0.71207462  0.90234730  0.49990822  1
  Zr  Zr47  1  0.70391334  0.49470941  0.49901661  1
  Zr  Zr48  1  0.90414058  0.51026131  0.69684389  1
  Zr  Zr49  1  0.29301234  0.50109548  0.90974557  1
  Sc  Sc50  1  0.69905232  0.49233833  0.89346450  1
  Sc  Sc51  1  0.69871719  0.68974383  0.70571185  1
  Sc  Sc52  1  0.08570045  0.31080015  0.09568812  1
  Sc  Sc53  1  0.69904092  0.71300872  0.10433663  1
  Sc  Sc54  1  0.89527519  0.89386262  0.09521409  1
  Sc  Sc55  1  0.30234156  0.70153579  0.68845076  1
  Sc  Sc56  1  0.89244411  0.30680107  0.29520926  1
  Sc  Sc57  1  0.10073625  0.89252752  0.89656367  1
  Sc  Sc58  1  0.90532241  0.50258836  0.88815990  1
  Sc  Sc59  1  0.90562893  0.49207387  0.11003124  1
  Sc  Sc60  1  0.70428085  0.09539372  0.70659644  1
  Sc  Sc61  1  0.49491696  0.49873922  0.89567748  1
  Sc  Sc62  1  0.09243280  0.09253679  0.89587493  1
  Sc  Sc63  1  0.30041162  0.09414166  0.08206937  1
  Sc  Sc64  1  0.09787827  0.30139196  0.69773311  1
  Sc  Sc65  1  0.90582978  0.69830713  0.51856335  1
  Sc  Sc66  1  0.49772549  0.91128896  0.49757930  1
  Sc  Sc67  1  0.29974774  0.29972906  0.30853135  1
  Sc  Sc68  1  0.30485320  0.69996627  0.09031463  1
  Sc  Sc69  1  0.09694337  0.50700085  0.50772412  1
  Sc  Sc70  1  0.50005177  0.70361469  0.10236405  1
  Sc  Sc71  1  0.50070549  0.10052799  0.31377200  1
  Sc  Sc72  1  0.90019125  0.10086757  0.89991935  1
  Sc  Sc73  1  0.09628489  0.70008084  0.90220535  1
  Sc  Sc74  1  0.48755591  0.09860497  0.89469728  1
  Sc  Sc75  1  0.09876140  0.89721175  0.08756419  1
  Sc  Sc76  1  0.71165314  0.70018732  0.50554441  1
  Sc  Sc77  1  0.50793623  0.90345912  0.90088968  1
  Sc  Sc78  1  0.90279780  0.10330999  0.70597058  1
  Sc  Sc79  1  0.50007815  0.10110293  0.49789962  1
  Sc  Sc80  1  0.29666944  0.89968325  0.68491222  1
  Sc  Sc81  1  0.30209224  0.89763838  0.31303816  1
  Sc  Sc82  1  0.90784638  0.89174771  0.69730436  1
  Sc  Sc83  1  0.49889316  0.29134066  0.30426577  1
  Sc  Sc84  1  0.10050242  0.10270873  0.69577567  1
  Sc  Sc85  1  0.50375147  0.10127781  0.08771245  1
  Sc  Sc86  1  0.29900491  0.70539993  0.31050375  1
  Sc  Sc87  1  0.29916078  0.89392010  0.08815150  1
  Sc  Sc88  1  0.09575948  0.50923944  0.31052143  1
  Sc  Sc89  1  0.90152231  0.90516389  0.90302649  1
  Sc  Sc90  1  0.49986749  0.29627490  0.50156211  1
  Sc  Sc91  1  0.50558850  0.69802433  0.89802812  1
  Sc  Sc92  1  0.30625821  0.30224771  0.89078510  1
  Sc  Sc93  1  0.50417737  0.90451116  0.30054240  1
  Sc  Sc94  1  0.69861928  0.09639624  0.29578659  1
  Sc  Sc95  1  0.10607376  0.69546203  0.49762631  1
  Sc  Sc96  1  0.11195370  0.89644646  0.50392952  1
  Sc  Sc97  1  0.70503775  0.09775915  0.90055923  1
  Sc  Sc98  1  0.50925057  0.70133226  0.29289992  1
  Sc  Sc99  1  0.49713561  0.29910696  0.90074336  1
  Nb  Nb100  1  0.89575069  0.69486341  0.70998524  1
  Nb  Nb101  1  0.09801334  0.69986738  0.29993929  1
  Nb  Nb102  1  0.50149355  0.70336221  0.70154915  1
  Nb  Nb103  1  0.89439032  0.30016365  0.89164953  1
  Nb  Nb104  1  0.10176855  0.90451421  0.69833101  1
  Nb  Nb105  1  0.30197084  0.70931775  0.49988275  1
  Nb  Nb106  1  0.69102165  0.48471195  0.09498698  1
  Nb  Nb107  1  0.89718609  0.69505258  0.09265251  1
  Nb  Nb108  1  0.29816856  0.50154626  0.10011546  1
  Nb  Nb109  1  0.69619817  0.30372300  0.09047359  1
  Nb  Nb110  1  0.89818734  0.49847121  0.30553801  1
  Nb  Nb111  1  0.70853771  0.30164281  0.91288793  1
  Nb  Nb112  1  0.69750477  0.89695350  0.30177298  1
  Nb  Nb113  1  0.49812786  0.50751481  0.30405529  1
  Nb  Nb114  1  0.09862658  0.49920627  0.70511664  1
  Nb  Nb115  1  0.30200352  0.10082916  0.29676274  1
  Nb  Nb116  1  0.30236559  0.88229515  0.49946982  1
  Nb  Nb117  1  0.89984998  0.89712094  0.49837777  1
  Nb  Nb118  1  0.50157484  0.90180140  0.70107152  1
  Nb  Nb119  1  0.90970015  0.09461568  0.30300324  1
  Nb  Nb120  1  0.29732960  0.09953067  0.89495346  1
  Nb  Nb121  1  0.90152933  0.29971127  0.70398980  1
  Nb  Nb122  1  0.90269934  0.09324351  0.49683284  1
  Nb  Nb123  1  0.90078994  0.50178686  0.50213226  1
  Nb  Nb124  1  0.89570755  0.69709653  0.90023389  1
  Nb  Nb125  1  0.60383266  0.19964682  0.60593328  1
  Nb  Nb126  1  0.00167849  0.00152914  0.20474429  1
  Nb  Nb127  1  0.40596225  0.80368529  0.79128079  1
  Nb  Nb128  1  0.80662626  0.39572197  0.60391162  1
  Nb  Nb129  1  -0.00232479  -0.00148479  0.59243326  1
  Nb  Nb130  1  0.20201039  0.20176314  0.19150377  1
  Nb  Nb131  1  0.60917607  0.80439233  0.40589524  1
  Nb  Nb132  1  0.20214090  0.40532029  0.19559088  1
  Nb  Nb133  1  0.79782803  0.59746216  0.00738758  1
  Nb  Nb134  1  0.20195510  -0.00041121  0.20003375  1
  Nb  Nb135  1  0.60524172  0.59127898  0.00757224  1
  Nb  Nb136  1  0.39309044  0.19279075  0.19607984  1
  Nb  Nb137  1  -0.00537035  0.79643694  0.40066929  1
  Nb  Nb138  1  0.80877978  0.59504015  0.39858414  1
  Nb  Nb139  1  0.19821071  0.20298924  -0.00380882  1
  Nb  Nb140  1  0.00000828  0.19543256  0.20071431  1
  Nb  Nb141  1  0.80169399  0.79508659  0.80263042  1
  Nb  Nb142  1  0.40460796  0.59831561  0.40452346  1
  Nb  Nb143  1  0.59676799  0.80493565  0.60314586  1
  Nb  Nb144  1  0.19457296  0.79767436  0.20188862  1
  Nb  Nb145  1  0.19842966  0.60266003  0.19642890  1
  Nb  Nb146  1  0.40228542  0.41239158  0.40239405  1
  Nb  Nb147  1  0.39351389  0.00468684  0.19989580  1
  Nb  Nb148  1  0.20218277  -0.00048308  0.79449444  1
  Nb  Nb149  1  -0.00932867  0.40486458  0.40619562  1
  Pd  Pd150  1  -0.00887060  0.59224995  -0.00426480  1
  Pd  Pd151  1  0.20669840  -0.00372672  0.40303205  1
  Pd  Pd152  1  0.40852155  0.80082015  -0.01331972  1
  Pd  Pd153  1  0.80178527  0.19207896  0.39055478  1
  Pd  Pd154  1  0.39103692  0.80643110  0.20507682  1
  Pd  Pd155  1  0.59117410  0.39525194  0.20615182  1
  Pd  Pd156  1  0.19638821  0.40846085  0.39956848  1
  Pd  Pd157  1  0.20641086  0.20073913  0.40206170  1
  Pd  Pd158  1  0.00343430  0.20015884  0.79864234  1
  Pd  Pd159  1  0.39291626  0.61496607  0.20505870  1
  Pd  Pd160  1  -0.00755377  0.21090098  0.39340688  1
  Pd  Pd161  1  0.60614147  0.60993389  0.59731543  1
  Pd  Pd162  1  0.58894622  0.01118471  0.20295797  1
  Pd  Pd163  1  0.79627132  0.79797708  0.61402659  1
  Pd  Pd164  1  0.19283443  0.19737809  0.80668618  1
  Pd  Pd165  1  -0.00025074  0.81006904  0.20078380  1
  Pd  Pd166  1  0.39912791  0.40982603  0.59674138  1
  Pd  Pd167  1  0.79614211  0.00852178  0.39486919  1
  Pd  Pd168  1  0.80803576  -0.00989521  0.79869674  1
  Pd  Pd169  1  0.59671466  0.39580093  0.80704269  1
  Pd  Pd170  1  0.39899342  0.59469519  0.59984164  1
  Pd  Pd171  1  0.81237284  0.00098673  0.61008683  1
  Pd  Pd172  1  0.59166528  0.39373844  0.39265574  1
  Pd  Pd173  1  0.39837696  -0.00431915  0.59571520  1
  Pd  Pd174  1  0.39671858  0.60880214  0.80121915  1
  Pd  Pd175  1  0.80587458  0.20021051  0.20414166  1
  Pd  Pd176  1  -0.00116465  0.40090502  0.59975613  1
  Pd  Pd177  1  0.60302866  0.79944996  0.79780334  1
  Pd  Pd178  1  -0.00241816  -0.00475990  0.00225869  1
  Pd  Pd179  1  0.80593060  0.40537447  0.79547651  1
  Pd  Pd180  1  0.79803087  0.19760305  0.60844138  1
  Pd  Pd181  1  0.40436876  -0.00587882  0.00121946  1
  Pd  Pd182  1  0.00801465  0.58721048  0.19606802  1
  Pd  Pd183  1  0.41573893  0.79734209  0.39348435  1
  Pd  Pd184  1  0.19989134  0.19426882  0.59758885  1
  Pd  Pd185  1  0.60759750  0.59909054  0.19205243  1
  Pd  Pd186  1  0.19504087  0.61102795  0.79116899  1
  Pd  Pd187  1  0.19315478  0.60708656  0.60987514  1
  Pd  Pd188  1  0.79466828  0.39957992  0.19683531  1
  Pd  Pd189  1  0.59989827  0.19596545  -0.01487253  1
  Pd  Pd190  1  0.60071041  0.00493279  0.80986961  1
  Pd  Pd191  1  0.59745313  0.19620940  0.80308554  1
  Pd  Pd192  1  -0.00784852  0.80373028  0.80839771  1
  Pd  Pd193  1  0.79178262  0.58929764  0.19428574  1
  Pd  Pd194  1  0.80812178  0.41192308  -0.00459288  1
  Pd  Pd195  1  0.39945955  0.38912599  0.21013889  1
  Pd  Pd196  1  0.40812811  0.60090718  -0.00303339  1
  Pd  Pd197  1  -0.00081648  0.20143329  0.00019632  1
  Pd  Pd198  1  0.80204379  0.80452883  0.19431420  1
  Pd  Pd199  1  0.60404013  0.61156914  0.40329282  1
  Rh  Rh200  1  0.00588394  0.80700603  0.59082816  1
  Rh  Rh201  1  0.39259397  0.19954264  -0.00198175  1
  Rh  Rh202  1  0.40194212  0.20146493  0.79878091  1
  Rh  Rh203  1  0.79788414  0.59324933  0.59794958  1
  Rh  Rh204  1  0.79709661  0.00376797  0.00156267  1
  Rh  Rh205  1  0.20160272  0.39162653  -0.00195208  1
  Rh  Rh206  1  0.19570995  0.00474791  0.60041220  1
  Rh  Rh207  1  0.00738586  0.60576752  0.79866922  1
  Rh  Rh208  1  0.80355466  -0.00207496  0.20371077  1
  Rh  Rh209  1  0.00673435  -0.00297608  0.79017905  1
  Rh  Rh210  1  0.00880152  0.40260365  0.21260043  1
  Rh  Rh211  1  0.40845653  0.19697820  0.59851757  1
  Rh  Rh212  1  -0.00700095  0.79930377  -0.00582654  1
  Rh  Rh213  1  0.80638698  0.78614327  0.40159257  1
  Rh  Rh214  1  0.39775193  0.40289409  0.79887372  1
  Rh  Rh215  1  0.61143488  0.38401275  0.60789799  1
  Rh  Rh216  1  0.40788871  0.80763794  0.60396457  1
  Rh  Rh217  1  0.60500881  0.19602169  0.40708624  1
  Rh  Rh218  1  0.00650517  0.60408587  0.60700685  1
  Rh  Rh219  1  -0.00210257  0.39966649  0.79458567  1
  Rh  Rh220  1  0.59000002  0.19784204  0.19938860  1
  Rh  Rh221  1  0.60034934  0.00273141  0.59791189  1
  Rh  Rh222  1  0.19774946  0.00372258  -0.01140027  1
  Rh  Rh223  1  0.39536912  -0.00236433  0.39867349  1
  Rh  Rh224  1  0.80604707  0.40320576  0.40753297  1
  Rh  Rh225  1  0.79989396  0.19750428  -0.00559939  1
  Rh  Rh226  1  0.21002326  0.80746674  0.78825797  1
  Rh  Rh227  1  0.19355633  0.40378897  0.60643394  1
  Rh  Rh228  1  0.19880519  0.39412305  0.79834997  1
  Rh  Rh229  1  0.40492338  0.40747875  -0.00558991  1
  Rh  Rh230  1  0.80251219  0.19837270  0.80769777  1
  Rh  Rh231  1  0.60798174  -0.00527352  0.40255334  1
  Rh  Rh232  1  0.59303923  0.40314164  -0.00628001  1
  Rh  Rh233  1  -0.00859645  0.60386979  0.40552304  1
  Rh  Rh234  1  -0.00171791  -0.01298499  0.40507430  1
  Rh  Rh235  1  0.60278148  0.80410636  0.20582847  1
  Rh  Rh236  1  0.39477057  0.20567287  0.40126899  1
  Rh  Rh237  1  -0.00365651  0.19112087  0.60393855  1
  Rh  Rh238  1  0.39117411  -0.00958286  0.79758358  1
  Rh  Rh239  1  -0.01266376  0.40544278  -0.01149355  1
  Rh  Rh240  1  0.19944972  0.60958619  0.00382210  1
  Rh  Rh241  1  0.20740061  0.60590997  0.39679076  1
  Rh  Rh242  1  0.59921794  0.59608058  0.80670455  1
  Rh  Rh243  1  0.19539379  0.79431919  0.59947865  1
  Rh  Rh244  1  0.19433082  0.79288245  0.00726466  1
  Rh  Rh245  1  0.19241956  0.79347817  0.39892252  1
  Rh  Rh246  1  0.59624675  0.79462661  0.00645017  1
  Rh  Rh247  1  0.60202071  0.00671020  -0.00317709  1
  Rh  Rh248  1  0.80443078  0.79486877  -0.00316917  1
  Rh  Rh249  1  0.79469037  0.60182201  0.80841993  1
