# generated using pymatgen
data_ZrScNbPdRh
_symmetry_space_group_name_H-M   'P 1'
_cell_length_a   16.56585376
_cell_length_b   16.56407381
_cell_length_c   16.56303705
_cell_angle_alpha   89.98530436
_cell_angle_beta   89.99475118
_cell_angle_gamma   90.04129087
_symmetry_Int_Tables_number   1
_chemical_formula_structural   ZrScNbPdRh
_chemical_formula_sum   'Zr50 Sc50 Nb50 Pd50 Rh50'
_cell_volume   4544.86329717
_cell_formula_units_Z   50
loop_
 _symmetry_equiv_pos_site_id
 _symmetry_equiv_pos_as_xyz
  1  'x, y, z'
loop_
 _atom_site_type_symbol
 _atom_site_label
 _atom_site_symmetry_multiplicity
 _atom_site_fract_x
 _atom_site_fract_y
 _atom_site_fract_z
 _atom_site_occupancy
  Zr  Zr0  1  0.50025095  0.29856453  0.90245699  1
  Zr  Zr1  1  0.50099791  0.30940388  0.50046394  1
  Zr  Zr2  1  0.09394570  0.09896010  0.29464089  1
  Zr  Zr3  1  0.50202021  0.30636773  0.70865842  1
  Zr  Zr4  1  0.70409370  0.10438041  0.50142354  1
  Zr  Zr5  1  0.70539379  0.29241386  0.69908270  1
  Zr  Zr6  1  0.89988578  0.70284910  0.49541512  1
  Zr  Zr7  1  0.10222180  0.30587814  0.89986398  1
  Zr  Zr8  1  0.69931045  0.50173202  0.70352200  1
  Zr  Zr9  1  0.69534653  0.69690341  0.90413581  1
  Zr  Zr10  1  0.29608171  0.30247755  0.09973629  1
  Zr  Zr11  1  0.68583939  0.69660504  0.10151972  1
  Zr  Zr12  1  0.50573481  0.10088530  0.49556840  1
  Zr  Zr13  1  0.09439238  0.29879618  0.09637819  1
  Zr  Zr14  1  0.70709325  0.29920207  0.31215322  1
  Zr  Zr15  1  0.29638893  0.31321825  0.50338453  1
  Zr  Zr16  1  0.91021055  0.89780930  0.49892211  1
  Zr  Zr17  1  0.90779335  0.50524144  0.90066511  1
  Zr  Zr18  1  0.89662718  0.70329376  0.29737229  1
  Zr  Zr19  1  0.10138132  0.89977936  0.69485967  1
  Zr  Zr20  1  0.90131906  0.69891385  0.09876487  1
  Zr  Zr21  1  0.69402356  0.69734368  0.70769077  1
  Zr  Zr22  1  0.70559996  0.09397519  0.70965957  1
  Zr  Zr23  1  0.90387394  0.29877658  0.69756619  1
  Zr  Zr24  1  0.88988409  0.29224957  0.49643129  1
  Zr  Zr25  1  0.50042392  0.48645752  0.90515802  1
  Zr  Zr26  1  0.30257138  0.49838348  0.69142412  1
  Zr  Zr27  1  0.30228425  0.29337416  0.90420986  1
  Zr  Zr28  1  0.51442381  0.70366779  0.29751152  1
  Zr  Zr29  1  0.09751354  0.29939486  0.29847213  1
  Zr  Zr30  1  0.50075578  0.90644352  0.90631732  1
  Zr  Zr31  1  0.90594646  0.10080789  0.10171241  1
  Zr  Zr32  1  0.69971504  0.88432340  0.30535770  1
  Zr  Zr33  1  0.29489965  0.70257835  0.89662531  1
  Zr  Zr34  1  0.70023870  0.69524906  0.29977816  1
  Zr  Zr35  1  0.30786808  0.70286348  0.69488654  1
  Zr  Zr36  1  0.69342355  0.29746974  0.89360323  1
  Zr  Zr37  1  0.90894914  0.29391252  0.89894698  1
  Zr  Zr38  1  0.69661173  0.50077912  0.90433832  1
  Zr  Zr39  1  0.10446598  0.10183641  0.69847690  1
  Zr  Zr40  1  0.90492968  0.89852892  0.10045427  1
  Zr  Zr41  1  0.29787619  0.49711955  0.10512836  1
  Zr  Zr42  1  0.70928050  0.30043138  0.11043678  1
  Zr  Zr43  1  0.09563284  0.29811950  0.50324720  1
  Zr  Zr44  1  0.70734501  0.90181518  0.50942805  1
  Zr  Zr45  1  0.10109810  0.89745650  0.89539302  1
  Zr  Zr46  1  0.29619198  0.69548334  0.49769538  1
  Zr  Zr47  1  0.50113376  0.09111031  0.09770837  1
  Zr  Zr48  1  0.90817190  0.49825883  0.11297126  1
  Zr  Zr49  1  0.09943547  0.69911286  0.89819041  1
  Sc  Sc50  1  0.90843679  0.69773728  0.90111383  1
  Sc  Sc51  1  0.08642211  0.09895068  0.49859536  1
  Sc  Sc52  1  0.70889362  0.50293729  0.30266103  1
  Sc  Sc53  1  0.10305176  0.49877136  0.09939284  1
  Sc  Sc54  1  0.49799431  0.89942444  0.50742158  1
  Sc  Sc55  1  0.49418211  0.09733911  0.89855475  1
  Sc  Sc56  1  0.29720800  0.89142490  0.51367172  1
  Sc  Sc57  1  0.28814668  0.89219634  0.28698723  1
  Sc  Sc58  1  0.89546023  0.30039075  0.29068229  1
  Sc  Sc59  1  0.50412842  0.50505625  0.30911371  1
  Sc  Sc60  1  0.10353282  0.70748554  0.49986269  1
  Sc  Sc61  1  0.10966218  0.50203893  0.50497334  1
  Sc  Sc62  1  0.50315602  0.49627446  0.09859917  1
  Sc  Sc63  1  0.30336357  0.50382363  0.50040326  1
  Sc  Sc64  1  0.09647352  0.69476668  0.09667257  1
  Sc  Sc65  1  0.69758812  0.49354226  0.49492419  1
  Sc  Sc66  1  0.50068710  0.09405416  0.70716356  1
  Sc  Sc67  1  0.49454409  0.90184057  0.70704544  1
  Sc  Sc68  1  0.89883812  0.10112315  0.69929176  1
  Sc  Sc69  1  0.29843489  0.09532346  0.51103015  1
  Sc  Sc70  1  0.68793862  0.90822959  0.09266852  1
  Sc  Sc71  1  0.30789252  0.89864812  0.89884464  1
  Sc  Sc72  1  0.09705321  0.10307930  0.09936287  1
  Sc  Sc73  1  0.29937739  0.11190922  0.09750996  1
  Sc  Sc74  1  0.90966228  0.69920784  0.70251074  1
  Sc  Sc75  1  0.09288285  0.89452579  0.29641684  1
  Sc  Sc76  1  0.29863608  0.90243331  0.70025020  1
  Sc  Sc77  1  0.69861024  0.70377148  0.48677456  1
  Sc  Sc78  1  0.09991256  0.49875991  0.70234757  1
  Sc  Sc79  1  0.48802260  0.30519760  0.09402618  1
  Sc  Sc80  1  0.69470633  0.50510793  0.09796972  1
  Sc  Sc81  1  0.29108808  0.49841433  0.89665528  1
  Sc  Sc82  1  0.49776832  0.89330392  0.09493529  1
  Sc  Sc83  1  0.49904085  0.69269589  0.49674385  1
  Sc  Sc84  1  0.90618538  0.90832046  0.90453861  1
  Sc  Sc85  1  0.30455670  0.89960718  0.09452788  1
  Sc  Sc86  1  0.90657393  0.50382698  0.69875288  1
  Sc  Sc87  1  0.09488685  0.90275032  0.09733318  1
  Sc  Sc88  1  0.29637184  0.71086551  0.09936977  1
  Sc  Sc89  1  0.49967318  0.50496911  0.69506934  1
  Sc  Sc90  1  0.69163045  0.10002976  0.30961887  1
  Sc  Sc91  1  0.10353078  0.50205813  0.28462265  1
  Sc  Sc92  1  0.49989659  0.70709506  0.89649834  1
  Sc  Sc93  1  0.09354296  0.10543243  0.89633245  1
  Sc  Sc94  1  0.49399819  0.30047733  0.30284320  1
  Sc  Sc95  1  0.29150081  0.49972848  0.30189975  1
  Sc  Sc96  1  0.89664875  0.90545791  0.69057271  1
  Sc  Sc97  1  0.90204341  0.09810070  0.89450089  1
  Sc  Sc98  1  0.89531883  0.49969577  0.50204866  1
  Sc  Sc99  1  0.50866858  0.89676301  0.29819407  1
  Nb  Nb100  1  0.30022340  0.10454302  0.70799723  1
  Nb  Nb101  1  0.90587598  0.09694497  0.30313670  1
  Nb  Nb102  1  0.70077183  0.09900421  0.10028583  1
  Nb  Nb103  1  0.49839254  0.69715427  0.09969331  1
  Nb  Nb104  1  0.29405370  0.69769987  0.30008673  1
  Nb  Nb105  1  0.90326365  0.50184717  0.30341013  1
  Nb  Nb106  1  0.89842279  0.29964164  0.09955049  1
  Nb  Nb107  1  0.10009969  0.90061895  0.49994195  1
  Nb  Nb108  1  0.49637892  0.49896603  0.50288284  1
  Nb  Nb109  1  0.49920019  0.70152082  0.69474701  1
  Nb  Nb110  1  0.70162766  0.29337280  0.49951153  1
  Nb  Nb111  1  0.10075547  0.50289838  0.90154045  1
  Nb  Nb112  1  0.89967564  0.09691497  0.49390809  1
  Nb  Nb113  1  0.70241312  0.09651826  0.90050352  1
  Nb  Nb114  1  0.70008002  0.90471391  0.89709709  1
  Nb  Nb115  1  0.29648215  0.29584453  0.29822991  1
  Nb  Nb116  1  0.49650687  0.10041944  0.30358811  1
  Nb  Nb117  1  0.30077016  0.09885786  0.90175044  1
  Nb  Nb118  1  0.10494901  0.29896794  0.69701570  1
  Nb  Nb119  1  0.29765635  0.10071243  0.29912249  1
  Nb  Nb120  1  0.10946623  0.69487526  0.30324759  1
  Nb  Nb121  1  0.89788454  0.89704197  0.29608563  1
  Nb  Nb122  1  0.70250005  0.90347736  0.70447970  1
  Nb  Nb123  1  0.10393579  0.70564220  0.70864361  1
  Nb  Nb124  1  0.29591180  0.29460113  0.69804576  1
  Nb  Nb125  1  0.59938267  0.20210049  0.60049386  1
  Nb  Nb126  1  0.79503140  0.80518056  0.80457389  1
  Nb  Nb127  1  0.59764017  0.19954194  0.19920305  1
  Nb  Nb128  1  0.39430617  0.79909534  0.39417817  1
  Nb  Nb129  1  0.39136556  0.19660099  0.40174347  1
  Nb  Nb130  1  0.80908440  -0.00260936  0.39611668  1
  Nb  Nb131  1  -0.00249146  0.40487756  0.39663271  1
  Nb  Nb132  1  0.60317328  0.39334250  0.20394522  1
  Nb  Nb133  1  0.79569054  0.60493771  0.60049166  1
  Nb  Nb134  1  0.80574968  0.39575307  -0.00050643  1
  Nb  Nb135  1  0.20416730  0.19673753  0.39790359  1
  Nb  Nb136  1  0.39972530  0.20351542  0.60383377  1
  Nb  Nb137  1  0.60708000  0.19515210  0.00510779  1
  Nb  Nb138  1  0.80165958  -0.00058199  0.20678382  1
  Nb  Nb139  1  0.39167005  -0.00206513  0.39348487  1
  Nb  Nb140  1  0.20143000  0.00109124  0.39879164  1
  Nb  Nb141  1  0.80343193  0.39976622  0.80553172  1
  Nb  Nb142  1  0.40012842  0.60889853  0.20021428  1
  Nb  Nb143  1  0.00262751  0.59808706  0.39372374  1
  Nb  Nb144  1  0.79427546  0.80143598  -0.00523842  1
  Nb  Nb145  1  0.39925564  0.00529561  0.20824834  1
  Nb  Nb146  1  0.39894388  0.60283396  0.00380410  1
  Nb  Nb147  1  0.60140723  0.79780790  0.60952186  1
  Nb  Nb148  1  0.20254055  0.00524556  -0.00660549  1
  Nb  Nb149  1  0.79798311  0.19870370  0.00184551  1
  Pd  Pd150  1  0.19206467  0.40184508  0.39674712  1
  Pd  Pd151  1  -0.01045447  0.80724409  0.79964245  1
  Pd  Pd152  1  0.80299618  -0.00039885  0.00507095  1
  Pd  Pd153  1  0.40087395  0.80328864  0.80036131  1
  Pd  Pd154  1  0.00085910  0.40400413  0.59251111  1
  Pd  Pd155  1  0.40593623  0.19774313  0.20101681  1
  Pd  Pd156  1  0.40111786  0.00543635  0.60189488  1
  Pd  Pd157  1  0.40461110  0.59607721  0.80693440  1
  Pd  Pd158  1  0.60498718  0.60463776  0.59012252  1
  Pd  Pd159  1  0.20513782  0.59976507  0.00464751  1
  Pd  Pd160  1  0.78929626  0.80686580  0.18419685  1
  Pd  Pd161  1  0.00579572  0.79591188  0.60177861  1
  Pd  Pd162  1  0.80787562  0.60223300  0.79597835  1
  Pd  Pd163  1  0.40340520  0.19778012  0.79763931  1
  Pd  Pd164  1  0.20282076  0.39818809  0.79587059  1
  Pd  Pd165  1  0.00418437  -0.00751976  0.39593627  1
  Pd  Pd166  1  0.19908794  0.59930085  0.79160995  1
  Pd  Pd167  1  -0.00296566  -0.00067415  0.79251150  1
  Pd  Pd168  1  0.40378610  0.80194177  0.20560256  1
  Pd  Pd169  1  0.19610287  0.20170086  0.80490495  1
  Pd  Pd170  1  0.79842030  0.40642901  0.60376564  1
  Pd  Pd171  1  0.19541539  0.20016705  0.19966171  1
  Pd  Pd172  1  -0.00484375  0.19436099  0.60106016  1
  Pd  Pd173  1  0.00828212  0.79220744  0.20101554  1
  Pd  Pd174  1  0.39066131  0.40194152  0.79936381  1
  Pd  Pd175  1  0.59848042  -0.00070218  0.60813753  1
  Pd  Pd176  1  0.60248412  -0.00986359  0.40025644  1
  Pd  Pd177  1  0.60162952  0.40129749  0.39575109  1
  Pd  Pd178  1  0.19519463  0.60663935  0.60674123  1
  Pd  Pd179  1  0.20271434  0.81015105  0.40173421  1
  Pd  Pd180  1  0.39553913  0.40124925  0.39288747  1
  Pd  Pd181  1  0.19655613  0.00180908  0.59466493  1
  Pd  Pd182  1  0.20397663  0.00116386  0.19104133  1
  Pd  Pd183  1  0.59961185  0.80764705  0.79839520  1
  Pd  Pd184  1  0.00062513  0.40190281  0.79616647  1
  Pd  Pd185  1  0.60120652  0.00103462  0.20679184  1
  Pd  Pd186  1  0.18921862  0.79732251  0.19103440  1
  Pd  Pd187  1  0.39996835  0.60483897  0.39319805  1
  Pd  Pd188  1  0.20283896  0.19727401  0.59278580  1
  Pd  Pd189  1  -0.00047198  0.40599024  0.00281516  1
  Pd  Pd190  1  0.79711703  0.59669887  0.19574299  1
  Pd  Pd191  1  0.20429017  -0.00061369  0.80515984  1
  Pd  Pd192  1  0.58529999  0.59491791  0.80627397  1
  Pd  Pd193  1  0.00096445  0.60382645  0.59306141  1
  Pd  Pd194  1  0.79489909  0.79087552  0.60949504  1
  Pd  Pd195  1  0.40589162  0.41086200  0.21034986  1
  Pd  Pd196  1  0.80449487  0.59873937  0.00624503  1
  Pd  Pd197  1  0.79777305  0.18665894  0.20574149  1
  Pd  Pd198  1  0.60454252  0.39734156  0.60223823  1
  Pd  Pd199  1  0.19707535  0.80882378  0.00191530  1
  Rh  Rh200  1  0.60173171  0.80448859  0.19046688  1
  Rh  Rh201  1  0.80561815  0.20235065  0.80631370  1
  Rh  Rh202  1  0.40092908  0.39894848  0.60469291  1
  Rh  Rh203  1  -0.00230899  0.20947054  0.39746809  1
  Rh  Rh204  1  -0.00324857  0.20350761  0.19965405  1
  Rh  Rh205  1  0.59896350  -0.00046071  0.80469440  1
  Rh  Rh206  1  0.20541952  0.80159475  0.79467479  1
  Rh  Rh207  1  0.40940482  0.79385068  0.59287063  1
  Rh  Rh208  1  0.19897015  0.40006674  -0.00132176  1
  Rh  Rh209  1  0.80586455  -0.00647141  0.80273696  1
  Rh  Rh210  1  0.20695357  0.60629908  0.19444587  1
  Rh  Rh211  1  -0.00367537  0.19705492  0.00026328  1
  Rh  Rh212  1  0.59934296  0.00637018  -0.00834421  1
  Rh  Rh213  1  0.00513345  0.59598788  0.00088437  1
  Rh  Rh214  1  0.01112240  0.00405088  -0.00213464  1
  Rh  Rh215  1  0.80547732  0.59898017  0.40628437  1
  Rh  Rh216  1  0.19302685  0.59425526  0.39851272  1
  Rh  Rh217  1  0.38973145  0.00522023  0.00781637  1
  Rh  Rh218  1  0.00683454  0.20111762  0.79112527  1
  Rh  Rh219  1  0.38632886  0.40783689  -0.00392977  1
  Rh  Rh220  1  0.58886222  0.80554340  0.41638491  1
  Rh  Rh221  1  0.01095087  0.59845596  0.79975495  1
  Rh  Rh222  1  0.00092190  0.00418810  0.60195248  1
  Rh  Rh223  1  0.60977646  0.38738182  0.01370247  1
  Rh  Rh224  1  0.00377703  0.60763901  0.20727874  1
  Rh  Rh225  1  0.80718333  0.00563649  0.59400009  1
  Rh  Rh226  1  0.79953089  0.19180090  0.60141282  1
  Rh  Rh227  1  0.19575271  0.79590508  0.60449220  1
  Rh  Rh228  1  0.59691801  0.18920304  0.80125586  1
  Rh  Rh229  1  0.40310756  0.60002205  0.59615511  1
  Rh  Rh230  1  0.19828929  0.39350088  0.19703186  1
  Rh  Rh231  1  0.60291592  0.59338780  0.40410475  1
  Rh  Rh232  1  -0.00505782  0.79821404  -0.00192065  1
  Rh  Rh233  1  0.59295555  0.58881217  0.20274818  1
  Rh  Rh234  1  0.00113118  0.39549228  0.20388296  1
  Rh  Rh235  1  0.79747300  0.41073095  0.19765010  1
  Rh  Rh236  1  0.80641368  0.80646149  0.40324161  1
  Rh  Rh237  1  0.40130382  0.79166267  -0.00484629  1
  Rh  Rh238  1  0.19741383  0.40194974  0.60637018  1
  Rh  Rh239  1  0.19584417  0.19527571  -0.00616378  1
  Rh  Rh240  1  0.60142197  0.79988699  0.00000833  1
  Rh  Rh241  1  -0.00416806  -0.00181488  0.19943503  1
  Rh  Rh242  1  0.00481571  0.79370609  0.39338876  1
  Rh  Rh243  1  0.39267087  0.00020607  0.79902432  1
  Rh  Rh244  1  0.80666372  0.19042013  0.39345411  1
  Rh  Rh245  1  0.80732203  0.40068514  0.40258173  1
  Rh  Rh246  1  0.59115206  0.20996017  0.40186811  1
  Rh  Rh247  1  0.58376190  0.60154111  -0.00576675  1
  Rh  Rh248  1  0.40605351  0.19669369  -0.00105825  1
  Rh  Rh249  1  0.60457186  0.40706510  0.79490012  1
