# generated using pymatgen
data_ZrScNbPdRh
_symmetry_space_group_name_H-M   'P 1'
_cell_length_a   16.55426215
_cell_length_b   16.55210013
_cell_length_c   16.55347195
_cell_angle_alpha   89.96124986
_cell_angle_beta   90.06324133
_cell_angle_gamma   90.01910259
_symmetry_Int_Tables_number   1
_chemical_formula_structural   ZrScNbPdRh
_chemical_formula_sum   'Zr50 Sc50 Nb50 Pd50 Rh50'
_cell_volume   4535.77645792
_cell_formula_units_Z   50
loop_
 _symmetry_equiv_pos_site_id
 _symmetry_equiv_pos_as_xyz
  1  'x, y, z'
loop_
 _atom_site_type_symbol
 _atom_site_label
 _atom_site_symmetry_multiplicity
 _atom_site_fract_x
 _atom_site_fract_y
 _atom_site_fract_z
 _atom_site_occupancy
  Zr  Zr0  1  0.90028512  0.70580258  0.50535159  1
  Zr  Zr1  1  0.89618180  0.90056320  0.30480290  1
  Zr  Zr2  1  0.89600033  0.70241154  0.29589633  1
  Zr  Zr3  1  0.30047816  0.30203880  0.08912724  1
  Zr  Zr4  1  0.49291450  0.70429880  0.09240578  1
  Zr  Zr5  1  0.09923939  0.49269715  0.70870597  1
  Zr  Zr6  1  0.30863103  0.29684720  0.29015585  1
  Zr  Zr7  1  0.69097313  0.90757017  0.11031884  1
  Zr  Zr8  1  0.49519747  0.51103315  0.90110292  1
  Zr  Zr9  1  0.29967515  0.49545455  0.49396030  1
  Zr  Zr10  1  0.50339089  0.08943347  0.10043739  1
  Zr  Zr11  1  0.10411351  0.09273047  0.89424660  1
  Zr  Zr12  1  0.89542073  0.50090422  0.50575724  1
  Zr  Zr13  1  0.69725042  0.28758979  0.49578940  1
  Zr  Zr14  1  0.50806384  0.49096765  0.29210659  1
  Zr  Zr15  1  0.90465986  0.69313455  0.09134686  1
  Zr  Zr16  1  0.30101220  0.10910674  0.90323991  1
  Zr  Zr17  1  0.50695888  0.89773968  0.29552242  1
  Zr  Zr18  1  0.70673547  0.70080292  0.50325020  1
  Zr  Zr19  1  0.29326490  0.90496459  0.29873369  1
  Zr  Zr20  1  0.70339544  0.70562124  0.70630790  1
  Zr  Zr21  1  0.10177688  0.09920454  0.49862532  1
  Zr  Zr22  1  0.49258270  0.90929961  0.69883459  1
  Zr  Zr23  1  0.69763572  0.30792419  0.30329003  1
  Zr  Zr24  1  0.29900665  0.09661302  0.09509570  1
  Zr  Zr25  1  0.70151128  0.90221859  0.30728886  1
  Zr  Zr26  1  0.10152471  0.48995495  0.49396920  1
  Zr  Zr27  1  0.90550186  0.49262640  0.29735074  1
  Zr  Zr28  1  0.29938689  0.69845070  0.49665805  1
  Zr  Zr29  1  0.88980906  0.10802497  0.10544537  1
  Zr  Zr30  1  0.09689910  0.11229362  0.70076526  1
  Zr  Zr31  1  0.69937509  0.71222365  0.29671106  1
  Zr  Zr32  1  0.50356124  0.70575644  0.90251703  1
  Zr  Zr33  1  0.50032297  0.09723063  0.69681656  1
  Zr  Zr34  1  0.50034533  0.90698629  0.50102070  1
  Zr  Zr35  1  0.70067606  0.70341728  0.90241059  1
  Zr  Zr36  1  0.70287256  0.29910380  0.69285938  1
  Zr  Zr37  1  0.29534783  0.90036980  0.10061517  1
  Zr  Zr38  1  0.29929820  0.69258535  0.90960019  1
  Zr  Zr39  1  0.10092678  0.70146314  0.09192243  1
  Zr  Zr40  1  0.10458148  0.69298587  0.28824181  1
  Zr  Zr41  1  0.29820873  0.89687614  0.50786903  1
  Zr  Zr42  1  0.89796264  0.29399398  0.29538792  1
  Zr  Zr43  1  0.70653642  0.49804068  0.90764557  1
  Zr  Zr44  1  0.29766401  0.49251921  0.90208950  1
  Zr  Zr45  1  0.49624570  0.10285065  0.89407779  1
  Zr  Zr46  1  0.09680036  0.91029112  0.71309485  1
  Zr  Zr47  1  0.09719459  0.70310590  0.50275144  1
  Zr  Zr48  1  0.09373349  0.69466254  0.70643532  1
  Zr  Zr49  1  0.10536874  0.49509068  0.29735862  1
  Sc  Sc50  1  0.70743669  0.47916353  0.50391112  1
  Sc  Sc51  1  0.90543972  0.10081432  0.29814852  1
  Sc  Sc52  1  0.49981604  0.50190905  0.10314216  1
  Sc  Sc53  1  0.50268862  0.28795470  0.68601423  1
  Sc  Sc54  1  0.09516411  0.09712706  0.30567079  1
  Sc  Sc55  1  0.89141841  0.90238143  0.10425320  1
  Sc  Sc56  1  0.29816243  0.49136688  0.70191471  1
  Sc  Sc57  1  0.29803846  0.70502192  0.69205174  1
  Sc  Sc58  1  0.89900796  0.89789037  0.89762473  1
  Sc  Sc59  1  0.10857615  0.29042862  0.50016430  1
  Sc  Sc60  1  0.50346945  0.49001750  0.49937589  1
  Sc  Sc61  1  0.70162476  0.89342993  0.89736501  1
  Sc  Sc62  1  0.90100935  0.69964039  0.69751161  1
  Sc  Sc63  1  0.71901601  0.29828840  0.09970081  1
  Sc  Sc64  1  0.89953937  0.29188125  0.70592644  1
  Sc  Sc65  1  0.09884397  0.90503206  0.30259987  1
  Sc  Sc66  1  0.89414070  0.90153895  0.70440044  1
  Sc  Sc67  1  0.30107269  0.29563371  0.50673216  1
  Sc  Sc68  1  0.50011023  0.10409844  0.50359241  1
  Sc  Sc69  1  0.71001094  0.29645781  0.89587557  1
  Sc  Sc70  1  0.70369932  0.10130415  0.69949627  1
  Sc  Sc71  1  0.90346959  0.49390908  0.09042221  1
  Sc  Sc72  1  0.49996675  0.69994350  0.49712961  1
  Sc  Sc73  1  0.29975295  0.49514743  0.09827930  1
  Sc  Sc74  1  0.89784983  0.09776557  0.70950905  1
  Sc  Sc75  1  0.48796169  0.30766018  0.11007009  1
  Sc  Sc76  1  0.09739897  0.50284175  0.10472550  1
  Sc  Sc77  1  0.89264604  0.10231592  0.49424393  1
  Sc  Sc78  1  0.29991563  0.10322492  0.49437866  1
  Sc  Sc79  1  0.09524724  0.30138338  0.30066773  1
  Sc  Sc80  1  0.10007735  0.30915696  0.10134558  1
  Sc  Sc81  1  0.49800718  0.69400190  0.29157565  1
  Sc  Sc82  1  0.30597456  0.10019597  0.70429630  1
  Sc  Sc83  1  0.50407415  0.29653885  0.29862055  1
  Sc  Sc84  1  0.49863166  0.89956355  0.09768776  1
  Sc  Sc85  1  0.50344889  0.70022386  0.71131415  1
  Sc  Sc86  1  0.09991984  0.50204028  0.89488882  1
  Sc  Sc87  1  0.49074962  0.10127829  0.30221641  1
  Sc  Sc88  1  0.10602851  0.30696169  0.89183272  1
  Sc  Sc89  1  0.09700659  0.89864201  0.49148171  1
  Sc  Sc90  1  0.09538180  0.89792971  0.90598022  1
  Sc  Sc91  1  0.50255077  0.90475278  0.90170129  1
  Sc  Sc92  1  0.89705491  0.30947145  0.90299000  1
  Sc  Sc93  1  0.29305787  0.70254348  0.10657826  1
  Sc  Sc94  1  0.90199968  0.49995110  0.70265380  1
  Sc  Sc95  1  0.70795213  0.09915564  0.89769057  1
  Sc  Sc96  1  0.70457368  0.90620852  0.70659231  1
  Sc  Sc97  1  0.10394357  0.89584399  0.09730080  1
  Sc  Sc98  1  0.69886417  0.70776377  0.09435854  1
  Sc  Sc99  1  0.29060584  0.91802691  0.90555396  1
  Nb  Nb100  1  0.09378375  0.70286468  0.90459334  1
  Nb  Nb101  1  0.30020893  0.50578010  0.30527516  1
  Nb  Nb102  1  0.09983269  0.29992974  0.69637344  1
  Nb  Nb103  1  0.70719363  0.90731953  0.49768423  1
  Nb  Nb104  1  0.70250844  0.09355574  0.49204226  1
  Nb  Nb105  1  0.31021106  0.30395256  0.90204269  1
  Nb  Nb106  1  0.09391022  0.10581155  0.09945594  1
  Nb  Nb107  1  0.90049782  0.50470392  0.90113731  1
  Nb  Nb108  1  0.70035926  0.50108426  0.70042584  1
  Nb  Nb109  1  0.29535986  0.09924307  0.29428379  1
  Nb  Nb110  1  0.50217268  0.30226286  0.90237007  1
  Nb  Nb111  1  0.29944599  0.90116535  0.69964833  1
  Nb  Nb112  1  0.69879122  0.49568056  0.10370383  1
  Nb  Nb113  1  0.50167536  0.49980405  0.70268627  1
  Nb  Nb114  1  0.90025331  0.10175375  0.90411771  1
  Nb  Nb115  1  0.88703029  0.30672033  0.49933928  1
  Nb  Nb116  1  0.29526712  0.29830225  0.69989564  1
  Nb  Nb117  1  0.90322412  0.69446429  0.90659043  1
  Nb  Nb118  1  0.69910032  0.10319903  0.09988450  1
  Nb  Nb119  1  0.50411106  0.29664907  0.49604624  1
  Nb  Nb120  1  0.29952588  0.69525566  0.30163313  1
  Nb  Nb121  1  0.90592286  0.29346385  0.10105322  1
  Nb  Nb122  1  0.69952910  0.10673295  0.30430257  1
  Nb  Nb123  1  0.69779962  0.49837407  0.29458303  1
  Nb  Nb124  1  0.89572157  0.90593063  0.49930999  1
  Nb  Nb125  1  0.39995959  0.39845877  0.39751816  1
  Nb  Nb126  1  0.19600839  0.00038633  0.60426703  1
  Nb  Nb127  1  0.79790844  0.59608316  0.39369255  1
  Nb  Nb128  1  0.79450724  0.59449272  0.19891577  1
  Nb  Nb129  1  0.40351188  0.59371403  0.60153914  1
  Nb  Nb130  1  0.39592174  0.79870235  0.39514441  1
  Nb  Nb131  1  0.38943770  0.80647599  0.80114860  1
  Nb  Nb132  1  -0.00106235  0.79719417  0.19790876  1
  Nb  Nb133  1  0.60146179  0.59738936  0.60119364  1
  Nb  Nb134  1  0.60365831  0.80394695  0.59867244  1
  Nb  Nb135  1  0.40661742  0.39260747  0.79826909  1
  Nb  Nb136  1  0.60057910  0.20368657  0.00358507  1
  Nb  Nb137  1  0.59627751  0.40112449  0.80008065  1
  Nb  Nb138  1  -0.00187917  0.19886768  0.00043138  1
  Nb  Nb139  1  0.20006812  0.59615008  0.59699505  1
  Nb  Nb140  1  0.61031092  0.59378124  0.39973204  1
  Nb  Nb141  1  0.00055781  0.38884822  0.60120877  1
  Nb  Nb142  1  -0.00094470  0.00191059  0.59801312  1
  Nb  Nb143  1  -0.00461117  0.01052974  0.00343305  1
  Nb  Nb144  1  0.80162764  0.59991116  0.80758118  1
  Nb  Nb145  1  0.60105512  0.39503103  -0.00177099  1
  Nb  Nb146  1  0.20157974  0.79887937  0.80408304  1
  Nb  Nb147  1  0.20191182  0.19439504  0.19668180  1
  Nb  Nb148  1  -0.00302855  0.59964825  0.39909780  1
  Nb  Nb149  1  0.60565332  0.19632225  0.19346890  1
  Pd  Pd150  1  0.00776378  0.58834254  0.59689201  1
  Pd  Pd151  1  0.20724633  0.60635326  0.79444053  1
  Pd  Pd152  1  -0.00334490  0.20791914  0.81179799  1
  Pd  Pd153  1  0.80047967  -0.00384586  -0.00248631  1
  Pd  Pd154  1  0.39084384  0.81043224  -0.00938221  1
  Pd  Pd155  1  0.59562394  0.00831150  0.39685086  1
  Pd  Pd156  1  0.60270251  0.59642970  0.00855697  1
  Pd  Pd157  1  0.61088336  0.00040878  0.59981205  1
  Pd  Pd158  1  0.00540912  0.39829082  -0.00421560  1
  Pd  Pd159  1  0.41128534  0.79136871  0.60337825  1
  Pd  Pd160  1  0.19607407  0.59276699  0.00504117  1
  Pd  Pd161  1  0.59427433  0.79562361  0.40587265  1
  Pd  Pd162  1  0.80670437  0.40245093  0.19413420  1
  Pd  Pd163  1  0.41439530  0.59601307  0.40254288  1
  Pd  Pd164  1  0.79520053  0.00698056  0.20821628  1
  Pd  Pd165  1  0.39458938  0.59563930  0.19476401  1
  Pd  Pd166  1  0.60522436  0.00053113  0.80299542  1
  Pd  Pd167  1  0.40379016  0.39809152  0.60047768  1
  Pd  Pd168  1  -0.00039732  0.79636716  0.39214724  1
  Pd  Pd169  1  0.39646816  0.80060395  0.20626135  1
  Pd  Pd170  1  -0.00355224  0.39295888  0.40711021  1
  Pd  Pd171  1  0.79619686  0.81155579  0.60330864  1
  Pd  Pd172  1  -0.00448410  0.20413493  0.40733024  1
  Pd  Pd173  1  0.20160828  0.20354398  0.38931214  1
  Pd  Pd174  1  0.41177836  0.19914835  0.00719864  1
  Pd  Pd175  1  0.20437954  0.39725551  0.20092348  1
  Pd  Pd176  1  0.60593830  0.00447211  -0.00973967  1
  Pd  Pd177  1  0.18944458  0.20803228  0.00114474  1
  Pd  Pd178  1  0.80289408  0.19100574  0.60026668  1
  Pd  Pd179  1  0.18593265  0.80349457  0.61058576  1
  Pd  Pd180  1  0.00297695  -0.00748995  0.19267519  1
  Pd  Pd181  1  0.18824216  0.00607915  0.19675291  1
  Pd  Pd182  1  0.00257758  0.81409394  0.60640219  1
  Pd  Pd183  1  -0.01192088  0.20071102  0.59242719  1
  Pd  Pd184  1  0.79989998  0.40481841  0.79536161  1
  Pd  Pd185  1  0.19494569  0.39909467  0.59992554  1
  Pd  Pd186  1  0.39593806  -0.00397180  0.40100925  1
  Pd  Pd187  1  0.60506237  0.60967454  0.19651775  1
  Pd  Pd188  1  0.20435577  0.20505272  0.80102566  1
  Pd  Pd189  1  0.19020558  0.60214508  0.40308561  1
  Pd  Pd190  1  0.60861643  0.59561512  0.79925781  1
  Pd  Pd191  1  0.59849983  0.40015938  0.60367832  1
  Pd  Pd192  1  0.40144088  0.20811656  0.79269954  1
  Pd  Pd193  1  0.80061148  0.80741290  0.00274838  1
  Pd  Pd194  1  0.60517761  0.20528498  0.80324590  1
  Pd  Pd195  1  -0.00209005  0.79878990  0.80330240  1
  Pd  Pd196  1  0.20167764  0.79912796  0.39265671  1
  Pd  Pd197  1  0.38919701  0.60316531  0.79106658  1
  Pd  Pd198  1  0.40063096  0.20473434  0.40133876  1
  Pd  Pd199  1  0.40116484  -0.00204823  0.20144795  1
  Rh  Rh200  1  -0.00802161  0.60189601  0.20210305  1
  Rh  Rh201  1  0.81026246  0.39592031  0.61215836  1
  Rh  Rh202  1  0.21328925  0.38713460  0.39230940  1
  Rh  Rh203  1  0.20322911  0.80055704  -0.00867251  1
  Rh  Rh204  1  0.79348465  0.19880207  0.20872670  1
  Rh  Rh205  1  0.80197092  0.20010254  0.39564509  1
  Rh  Rh206  1  0.80031291  0.40077240  0.39518819  1
  Rh  Rh207  1  0.80233312  0.19812880  0.80313334  1
  Rh  Rh208  1  0.38822395  0.00973040  0.59473339  1
  Rh  Rh209  1  0.00986737  0.20574452  0.19609900  1
  Rh  Rh210  1  -0.00829794  0.60103871  0.80619936  1
  Rh  Rh211  1  0.60018262  0.80750436  0.00216482  1
  Rh  Rh212  1  0.80480964  0.00256923  0.59847269  1
  Rh  Rh213  1  0.60287161  0.00906633  0.21151447  1
  Rh  Rh214  1  0.80274757  0.00660102  0.39396231  1
  Rh  Rh215  1  0.59473743  0.79771505  0.19271255  1
  Rh  Rh216  1  0.20662799  0.00097179  0.79397740  1
  Rh  Rh217  1  0.80982758  0.78935808  0.80558694  1
  Rh  Rh218  1  0.80519050  0.79439056  0.18915379  1
  Rh  Rh219  1  0.58693897  0.81301572  0.79282630  1
  Rh  Rh220  1  0.39916074  0.18960051  0.19318800  1
  Rh  Rh221  1  -0.00176083  0.39592095  0.19613091  1
  Rh  Rh222  1  0.60618560  0.38553414  0.18590264  1
  Rh  Rh223  1  0.00878973  0.59128194  -0.00617912  1
  Rh  Rh224  1  0.59551425  0.40025689  0.40305469  1
  Rh  Rh225  1  0.60538216  0.19059232  0.59273638  1
  Rh  Rh226  1  0.80254419  0.80090559  0.40795634  1
  Rh  Rh227  1  0.80176243  0.39956566  0.00387745  1
  Rh  Rh228  1  0.19562983  0.79998628  0.20386650  1
  Rh  Rh229  1  -0.00432591  0.39680009  0.79577449  1
  Rh  Rh230  1  0.20817299  0.19306350  0.60725680  1
  Rh  Rh231  1  0.39279790  0.40996632  0.20749644  1
  Rh  Rh232  1  0.79845541  0.59715228  0.00301666  1
  Rh  Rh233  1  0.80274130  0.20182431  -0.00499577  1
  Rh  Rh234  1  0.40212271  0.00032653  -0.00352736  1
  Rh  Rh235  1  0.20869685  0.59388508  0.19669397  1
  Rh  Rh236  1  0.20357584  0.00067462  0.40701540  1
  Rh  Rh237  1  0.18917104  0.00205210  0.00564624  1
  Rh  Rh238  1  0.59628764  0.19451326  0.39565937  1
  Rh  Rh239  1  0.19514899  0.40152493  -0.00414048  1
  Rh  Rh240  1  0.79232720  0.59565735  0.60487596  1
  Rh  Rh241  1  -0.00753751  0.00181461  0.80464210  1
  Rh  Rh242  1  0.40810768  0.40625280  -0.00557408  1
  Rh  Rh243  1  -0.00503130  0.80945158  0.00626687  1
  Rh  Rh244  1  -0.00642873  0.00082355  0.40695854  1
  Rh  Rh245  1  0.20864733  0.39166759  0.80117548  1
  Rh  Rh246  1  0.39558898  0.59825858  0.00879427  1
  Rh  Rh247  1  0.80149999  0.00173748  0.80535705  1
  Rh  Rh248  1  0.39795802  0.19847038  0.59875693  1
  Rh  Rh249  1  0.39624488  -0.00206795  0.80591913  1
