# generated using pymatgen
data_ZrScNbPdRh
_symmetry_space_group_name_H-M   'P 1'
_cell_length_a   16.56700632
_cell_length_b   16.55909856
_cell_length_c   16.55562746
_cell_angle_alpha   89.98148489
_cell_angle_beta   89.98406683
_cell_angle_gamma   89.99459224
_symmetry_Int_Tables_number   1
_chemical_formula_structural   ZrScNbPdRh
_chemical_formula_sum   'Zr50 Sc50 Nb50 Pd50 Rh50'
_cell_volume   4541.78250318
_cell_formula_units_Z   50
loop_
 _symmetry_equiv_pos_site_id
 _symmetry_equiv_pos_as_xyz
  1  'x, y, z'
loop_
 _atom_site_type_symbol
 _atom_site_label
 _atom_site_symmetry_multiplicity
 _atom_site_fract_x
 _atom_site_fract_y
 _atom_site_fract_z
 _atom_site_occupancy
  Zr  Zr0  1  0.69866477  0.70284727  0.29404395  1
  Zr  Zr1  1  0.51244941  0.29868723  0.91250745  1
  Zr  Zr2  1  0.29081092  0.30005800  0.30271357  1
  Zr  Zr3  1  0.49872293  0.89780294  0.69945494  1
  Zr  Zr4  1  0.09524053  0.50026533  0.69443735  1
  Zr  Zr5  1  0.29966806  0.88988749  0.69624981  1
  Zr  Zr6  1  0.69951006  0.09890940  0.69803489  1
  Zr  Zr7  1  0.89785462  0.51162747  0.09663150  1
  Zr  Zr8  1  0.50339850  0.90464427  0.30370968  1
  Zr  Zr9  1  0.09534471  0.29686190  0.90602527  1
  Zr  Zr10  1  0.89696075  0.69920432  0.09593843  1
  Zr  Zr11  1  0.29351145  0.90063413  0.10169304  1
  Zr  Zr12  1  0.09281574  0.11300083  0.09181981  1
  Zr  Zr13  1  0.69906963  0.49538120  0.70255073  1
  Zr  Zr14  1  0.89188911  0.09721157  0.69837550  1
  Zr  Zr15  1  0.70287222  0.09955315  0.29866679  1
  Zr  Zr16  1  0.89451494  0.90404725  0.30537757  1
  Zr  Zr17  1  0.30064947  0.09815572  0.30033716  1
  Zr  Zr18  1  0.91345300  0.28552109  0.10815629  1
  Zr  Zr19  1  0.09594254  0.90549363  0.89272590  1
  Zr  Zr20  1  0.10022443  0.09876087  0.71111272  1
  Zr  Zr21  1  0.50276384  0.70649861  0.90510771  1
  Zr  Zr22  1  0.50160162  0.69443594  0.29756794  1
  Zr  Zr23  1  0.50984014  0.70530356  0.70263354  1
  Zr  Zr24  1  0.09904571  0.70011318  0.29978328  1
  Zr  Zr25  1  0.30397325  0.09744905  0.70674474  1
  Zr  Zr26  1  0.70298304  0.49606888  0.90104876  1
  Zr  Zr27  1  0.10010707  0.89869446  0.70425839  1
  Zr  Zr28  1  0.10640427  0.50146014  0.30042668  1
  Zr  Zr29  1  0.69988952  0.30131460  0.89618414  1
  Zr  Zr30  1  0.08726882  0.30157174  0.70927490  1
  Zr  Zr31  1  0.49104326  0.10052021  0.29990756  1
  Zr  Zr32  1  0.49398883  0.30232615  0.10182250  1
  Zr  Zr33  1  0.69665795  0.89925801  0.29230036  1
  Zr  Zr34  1  0.70220045  0.10239759  0.50207021  1
  Zr  Zr35  1  0.31146023  0.29832062  0.69756320  1
  Zr  Zr36  1  0.10376852  0.90220247  0.09616179  1
  Zr  Zr37  1  0.90277571  0.30581430  0.88664358  1
  Zr  Zr38  1  0.11059685  0.30000803  0.10480295  1
  Zr  Zr39  1  0.69937562  0.09423015  0.89839138  1
  Zr  Zr40  1  0.90427762  0.30184304  0.49118337  1
  Zr  Zr41  1  0.89898114  0.69257742  0.89796431  1
  Zr  Zr42  1  0.89294027  0.11147930  0.29143168  1
  Zr  Zr43  1  0.49108496  0.09349358  0.49959275  1
  Zr  Zr44  1  0.89280699  0.69682199  0.50321969  1
  Zr  Zr45  1  0.50113575  0.49101466  0.69565797  1
  Zr  Zr46  1  0.30038205  0.90114331  0.50256204  1
  Zr  Zr47  1  0.30055572  0.30604389  0.10494870  1
  Zr  Zr48  1  0.09357861  0.49716785  0.89728693  1
  Zr  Zr49  1  0.30031852  0.49357268  0.70934578  1
  Sc  Sc50  1  0.90399771  0.09057020  0.90222952  1
  Sc  Sc51  1  0.70467699  0.30311804  0.30823634  1
  Sc  Sc52  1  0.69540886  0.50858116  0.10176652  1
  Sc  Sc53  1  0.50479059  0.49612838  0.49535097  1
  Sc  Sc54  1  0.69342560  0.49556414  0.49884898  1
  Sc  Sc55  1  0.89591729  0.09371902  0.48476751  1
  Sc  Sc56  1  0.69483980  0.90094720  0.10058523  1
  Sc  Sc57  1  0.49483926  0.09079182  0.90198180  1
  Sc  Sc58  1  0.49102522  0.10180535  0.69997744  1
  Sc  Sc59  1  0.70069792  0.69932069  0.50310601  1
  Sc  Sc60  1  0.50653198  0.69523865  0.10056009  1
  Sc  Sc61  1  0.30914694  0.49735070  0.30504425  1
  Sc  Sc62  1  0.29934765  0.69302914  0.30477735  1
  Sc  Sc63  1  0.50845006  0.50160238  0.90591143  1
  Sc  Sc64  1  0.10224387  0.70615425  0.70372118  1
  Sc  Sc65  1  0.50322942  0.50481907  0.30067560  1
  Sc  Sc66  1  0.50139829  0.29864289  0.70275784  1
  Sc  Sc67  1  0.48642365  0.10350689  0.09587205  1
  Sc  Sc68  1  0.50257274  0.89891782  0.09295161  1
  Sc  Sc69  1  0.09987252  0.09750742  0.48750911  1
  Sc  Sc70  1  0.30279192  0.89710405  0.90721558  1
  Sc  Sc71  1  0.49044153  0.31057300  0.29758071  1
  Sc  Sc72  1  0.69549306  0.30397706  0.49927690  1
  Sc  Sc73  1  0.90869799  0.50353158  0.30055188  1
  Sc  Sc74  1  0.10058858  0.70902389  0.10223991  1
  Sc  Sc75  1  0.90146961  0.50971821  0.69997447  1
  Sc  Sc76  1  0.70770596  0.89579315  0.48545447  1
  Sc  Sc77  1  0.68964824  0.30341781  0.09621137  1
  Sc  Sc78  1  0.50993347  0.69862201  0.50074867  1
  Sc  Sc79  1  0.69993631  0.29455766  0.70571152  1
  Sc  Sc80  1  0.10485170  0.90095901  0.49220455  1
  Sc  Sc81  1  0.10371783  0.09844695  0.30115553  1
  Sc  Sc82  1  0.49889170  0.50125270  0.10834528  1
  Sc  Sc83  1  0.70550399  0.89715022  0.71109199  1
  Sc  Sc84  1  0.30959677  0.70315079  0.09564064  1
  Sc  Sc85  1  0.30299171  0.10382860  0.49524785  1
  Sc  Sc86  1  0.10478923  0.10002195  0.89686671  1
  Sc  Sc87  1  0.71146770  0.09254427  0.10677293  1
  Sc  Sc88  1  0.09237170  0.50156984  0.49477480  1
  Sc  Sc89  1  0.69232850  0.69677227  0.89780405  1
  Sc  Sc90  1  0.09685484  0.49043469  0.09508073  1
  Sc  Sc91  1  0.10032726  0.30037263  0.30211869  1
  Sc  Sc92  1  0.90863274  0.50531051  0.50517944  1
  Sc  Sc93  1  0.29683580  0.10023224  0.09730141  1
  Sc  Sc94  1  0.89819158  0.69800747  0.28781656  1
  Sc  Sc95  1  0.10939237  0.90012564  0.29591787  1
  Sc  Sc96  1  0.09936698  0.69567760  0.49966691  1
  Sc  Sc97  1  0.09702092  0.69980213  0.89686653  1
  Sc  Sc98  1  0.30252090  0.30781559  0.90374824  1
  Sc  Sc99  1  0.49497825  0.30396682  0.51080367  1
  Nb  Nb100  1  0.70414439  0.69927936  0.10145244  1
  Nb  Nb101  1  0.29515289  0.50336512  0.90272065  1
  Nb  Nb102  1  0.89588103  0.91062931  0.09040718  1
  Nb  Nb103  1  0.30500161  0.69371055  0.89831866  1
  Nb  Nb104  1  0.29932716  0.89836285  0.29924247  1
  Nb  Nb105  1  0.30281593  0.70135205  0.69957788  1
  Nb  Nb106  1  0.29994354  0.49873422  0.50550421  1
  Nb  Nb107  1  0.29754098  0.70119754  0.50801401  1
  Nb  Nb108  1  0.89486811  0.89817754  0.89412809  1
  Nb  Nb109  1  0.71087833  0.69254308  0.69465578  1
  Nb  Nb110  1  0.29988544  0.08984578  0.89943947  1
  Nb  Nb111  1  0.89780993  0.09972472  0.10024610  1
  Nb  Nb112  1  0.10262529  0.30114342  0.50295307  1
  Nb  Nb113  1  0.90223143  0.89655427  0.70738247  1
  Nb  Nb114  1  0.69532238  0.90091531  0.90484869  1
  Nb  Nb115  1  0.69923650  0.49933960  0.30438148  1
  Nb  Nb116  1  0.29156975  0.30509105  0.49997449  1
  Nb  Nb117  1  0.89283758  0.29698705  0.29635300  1
  Nb  Nb118  1  0.29825722  0.49829037  0.09889630  1
  Nb  Nb119  1  0.51940846  0.89367977  0.90037316  1
  Nb  Nb120  1  0.89089603  0.70401152  0.69325988  1
  Nb  Nb121  1  0.90220140  0.89956226  0.49729023  1
  Nb  Nb122  1  0.49859974  0.90312006  0.50260219  1
  Nb  Nb123  1  0.90069762  0.50354622  0.90921585  1
  Nb  Nb124  1  0.89910286  0.30197778  0.69748489  1
  Nb  Nb125  1  0.19881447  0.39819418  0.59816549  1
  Nb  Nb126  1  -0.00222206  -0.00258773  0.59958944  1
  Nb  Nb127  1  0.39735488  0.60332498  0.80020433  1
  Nb  Nb128  1  0.19698953  0.00474792  0.60428853  1
  Nb  Nb129  1  0.20579756  0.59661402  -0.00216288  1
  Nb  Nb130  1  0.20849811  0.59860465  0.60281244  1
  Nb  Nb131  1  0.59598423  0.19931963  0.20560389  1
  Nb  Nb132  1  -0.00618920  0.80052043  0.40250848  1
  Nb  Nb133  1  -0.00693449  0.00278741  0.19276081  1
  Nb  Nb134  1  0.59327868  0.19854721  0.39667042  1
  Nb  Nb135  1  0.80461043  0.39992460  0.19976689  1
  Nb  Nb136  1  0.59886365  -0.00474401  0.59675091  1
  Nb  Nb137  1  0.39469922  0.60175654  0.60509376  1
  Nb  Nb138  1  0.39957595  0.80246074  0.40214820  1
  Nb  Nb139  1  -0.01004555  0.80750506  -0.00344165  1
  Nb  Nb140  1  0.79616478  0.59839764  0.39608047  1
  Nb  Nb141  1  0.19487040  0.20321242  0.59999716  1
  Nb  Nb142  1  -0.00851781  0.80535928  0.60039204  1
  Nb  Nb143  1  0.80627340  0.39725320  0.60328297  1
  Nb  Nb144  1  0.40045383  0.80401417  0.20905917  1
  Nb  Nb145  1  0.20584865  0.59572972  0.19131875  1
  Nb  Nb146  1  0.80406262  0.20231464  0.00057147  1
  Nb  Nb147  1  0.79946429  0.80499259  -0.00370685  1
  Nb  Nb148  1  0.80708392  0.39767965  0.00412199  1
  Nb  Nb149  1  0.00065531  0.19718526  0.59840102  1
  Pd  Pd150  1  0.01256598  0.59833271  0.19167923  1
  Pd  Pd151  1  0.59103691  0.00948435  0.19007277  1
  Pd  Pd152  1  0.80212587  0.80805035  0.19024527  1
  Pd  Pd153  1  -0.00572805  0.39404591  0.00502808  1
  Pd  Pd154  1  0.40514141  0.20386474  0.81422787  1
  Pd  Pd155  1  0.59593006  0.00193485  0.79134703  1
  Pd  Pd156  1  0.40445690  0.80419020  0.00432694  1
  Pd  Pd157  1  0.20124964  0.60374788  0.79958268  1
  Pd  Pd158  1  0.19458499  0.79197625  -0.00749646  1
  Pd  Pd159  1  0.80463509  0.19334351  0.80691760  1
  Pd  Pd160  1  0.40143185  0.59409829  -0.00154703  1
  Pd  Pd161  1  -0.00185380  0.60370344  0.79278568  1
  Pd  Pd162  1  0.79275652  0.79488040  0.80707261  1
  Pd  Pd163  1  0.79800105  -0.01083803  0.59816506  1
  Pd  Pd164  1  0.19169193  0.00928489  0.19525431  1
  Pd  Pd165  1  0.40768455  0.79213396  0.59163171  1
  Pd  Pd166  1  0.40460831  0.40841681  -0.00118410  1
  Pd  Pd167  1  0.59606597  0.59900762  0.79931305  1
  Pd  Pd168  1  0.20459592  0.79992010  0.80964767  1
  Pd  Pd169  1  0.59895263  0.00756515  0.00919004  1
  Pd  Pd170  1  0.19754252  0.39188524  0.79942709  1
  Pd  Pd171  1  0.59112738  0.19316589  0.80011380  1
  Pd  Pd172  1  0.40192276  0.39887809  0.40474792  1
  Pd  Pd173  1  0.20393539  0.59599740  0.40262807  1
  Pd  Pd174  1  -0.00342573  0.40086830  0.20382242  1
  Pd  Pd175  1  0.00369520  0.20105745  0.39765350  1
  Pd  Pd176  1  0.21028495  0.19915793  -0.00725603  1
  Pd  Pd177  1  0.80704112  0.20888885  0.59102971  1
  Pd  Pd178  1  0.40228344  0.80095854  0.80724137  1
  Pd  Pd179  1  -0.00534951  0.81332698  0.19870477  1
  Pd  Pd180  1  0.61389468  0.80882100  0.59986879  1
  Pd  Pd181  1  0.60519916  0.00456033  0.40554109  1
  Pd  Pd182  1  0.59667192  0.79818767  0.40180725  1
  Pd  Pd183  1  0.40272247  0.21237897  0.40380343  1
  Pd  Pd184  1  0.60799185  0.18632982  0.01178782  1
  Pd  Pd185  1  0.40118068  0.60563020  0.41190756  1
  Pd  Pd186  1  0.40107664  -0.00630839  0.19257461  1
  Pd  Pd187  1  0.80576841  0.41040748  0.40276289  1
  Pd  Pd188  1  0.39115112  0.19869958  -0.00583929  1
  Pd  Pd189  1  0.79994051  0.59716622  0.80076739  1
  Pd  Pd190  1  0.40101752  -0.01343891  0.80654766  1
  Pd  Pd191  1  0.59859142  0.59555819  0.59914166  1
  Pd  Pd192  1  0.59351268  0.19619680  0.59579920  1
  Pd  Pd193  1  0.41172188  0.40290922  0.81467532  1
  Pd  Pd194  1  0.20004669  0.79642951  0.40076500  1
  Pd  Pd195  1  0.60660273  0.39618722  0.20614492  1
  Pd  Pd196  1  0.20759160  0.20841795  0.80260845  1
  Pd  Pd197  1  0.79632912  0.81008438  0.59919772  1
  Pd  Pd198  1  0.00191675  0.39922187  0.39339376  1
  Pd  Pd199  1  0.00351859  -0.00002388  -0.00129624  1
  Rh  Rh200  1  0.40049599  -0.00689606  -0.00466696  1
  Rh  Rh201  1  0.79350671  0.58974708  0.20879922  1
  Rh  Rh202  1  0.39483834  0.40585506  0.20187020  1
  Rh  Rh203  1  0.19961364  0.00582762  -0.00257414  1
  Rh  Rh204  1  0.39359584  0.60415583  0.19801346  1
  Rh  Rh205  1  0.21422404  0.78771351  0.20186068  1
  Rh  Rh206  1  -0.00904786  0.19184546  0.79882147  1
  Rh  Rh207  1  0.21227923  -0.00882026  0.79989602  1
  Rh  Rh208  1  0.59617951  0.39471795  0.80045634  1
  Rh  Rh209  1  0.80502909  -0.00694572  0.20224867  1
  Rh  Rh210  1  0.60417490  0.60009977  0.20127424  1
  Rh  Rh211  1  0.79268189  0.58752835  0.59253190  1
  Rh  Rh212  1  0.80716150  0.40958172  0.79712793  1
  Rh  Rh213  1  0.61009259  0.39413440  0.60452298  1
  Rh  Rh214  1  0.01021085  0.19417309  0.21096622  1
  Rh  Rh215  1  0.79623945  0.00261329  0.39504901  1
  Rh  Rh216  1  0.79917733  -0.00036409  0.80361859  1
  Rh  Rh217  1  0.79471594  0.00000829  -0.00647253  1
  Rh  Rh218  1  0.20036460  0.19702841  0.20249363  1
  Rh  Rh219  1  0.60185141  0.60102786  0.00316077  1
  Rh  Rh220  1  0.39248484  -0.00881583  0.39908536  1
  Rh  Rh221  1  -0.00858365  0.41321387  0.79759126  1
  Rh  Rh222  1  0.59335698  0.79724600  0.19432676  1
  Rh  Rh223  1  0.78562172  0.21471356  0.18829471  1
  Rh  Rh224  1  0.60486702  0.40833295  0.00578687  1
  Rh  Rh225  1  0.60986753  0.79648243  0.79629701  1
  Rh  Rh226  1  0.80663855  0.78761799  0.39532403  1
  Rh  Rh227  1  0.79333653  0.20162157  0.40396975  1
  Rh  Rh228  1  0.39822029  0.20489329  0.19920977  1
  Rh  Rh229  1  -0.00778921  0.00329519  0.79658003  1
  Rh  Rh230  1  -0.00869777  0.79210630  0.79901752  1
  Rh  Rh231  1  0.59293318  0.39274714  0.39734593  1
  Rh  Rh232  1  0.19653987  0.40570443  0.40494369  1
  Rh  Rh233  1  0.01437563  0.60948799  0.00329817  1
  Rh  Rh234  1  0.19751782  0.40414447  -0.00361671  1
  Rh  Rh235  1  0.78963978  0.60232000  -0.00339100  1
  Rh  Rh236  1  0.39278232  0.19956234  0.59537124  1
  Rh  Rh237  1  0.60812242  0.60067498  0.39771282  1
  Rh  Rh238  1  0.00848300  0.61480406  0.60648316  1
  Rh  Rh239  1  0.20738363  0.00274542  0.40254450  1
  Rh  Rh240  1  0.00278685  -0.00925986  0.39080137  1
  Rh  Rh241  1  0.39645553  0.40389751  0.59660079  1
  Rh  Rh242  1  -0.01038228  0.61207200  0.39676764  1
  Rh  Rh243  1  0.61054983  0.79477114  0.00532626  1
  Rh  Rh244  1  0.20426598  0.40725528  0.20591796  1
  Rh  Rh245  1  -0.00292094  0.39221736  0.59966911  1
  Rh  Rh246  1  -0.00827679  0.19852102  -0.01211011  1
  Rh  Rh247  1  0.19914980  0.19894676  0.40242118  1
  Rh  Rh248  1  0.18836079  0.79884401  0.59771071  1
  Rh  Rh249  1  0.39686794  0.00103071  0.60394106  1
