# generated using pymatgen
data_ZrScNbPdRh
_symmetry_space_group_name_H-M   'P 1'
_cell_length_a   16.56074721
_cell_length_b   16.56025529
_cell_length_c   16.56260279
_cell_angle_alpha   89.97816672
_cell_angle_beta   90.01147714
_cell_angle_gamma   89.99517078
_symmetry_Int_Tables_number   1
_chemical_formula_structural   ZrScNbPdRh
_chemical_formula_sum   'Zr50 Sc50 Nb50 Pd50 Rh50'
_cell_volume   4542.29671826
_cell_formula_units_Z   50
loop_
 _symmetry_equiv_pos_site_id
 _symmetry_equiv_pos_as_xyz
  1  'x, y, z'
loop_
 _atom_site_type_symbol
 _atom_site_label
 _atom_site_symmetry_multiplicity
 _atom_site_fract_x
 _atom_site_fract_y
 _atom_site_fract_z
 _atom_site_occupancy
  Zr  Zr0  1  0.09676779  0.89956549  0.49347694  1
  Zr  Zr1  1  0.29795644  0.70235651  0.50036877  1
  Zr  Zr2  1  0.89305073  0.30676821  0.69122581  1
  Zr  Zr3  1  0.31321165  0.29895879  0.09890314  1
  Zr  Zr4  1  0.69708459  0.70306868  0.09112239  1
  Zr  Zr5  1  0.90108594  0.50237072  0.10199338  1
  Zr  Zr6  1  0.09881548  0.90219062  0.90149977  1
  Zr  Zr7  1  0.90787149  0.28713200  0.30093020  1
  Zr  Zr8  1  0.89864371  0.09167130  0.30282558  1
  Zr  Zr9  1  0.50001564  0.30007281  0.29377932  1
  Zr  Zr10  1  0.09928893  0.90252581  0.10061487  1
  Zr  Zr11  1  0.70693763  0.70152419  0.89957349  1
  Zr  Zr12  1  0.90552556  0.89397933  0.90599495  1
  Zr  Zr13  1  0.71206325  0.09690834  0.09034404  1
  Zr  Zr14  1  0.28684870  0.29325723  0.49813245  1
  Zr  Zr15  1  0.70509619  0.09424608  0.89439699  1
  Zr  Zr16  1  0.89791652  0.49664114  0.29219946  1
  Zr  Zr17  1  0.70728151  0.90050111  0.09447192  1
  Zr  Zr18  1  0.50700423  0.10797126  0.89048628  1
  Zr  Zr19  1  0.28591084  0.90225014  0.30042032  1
  Zr  Zr20  1  0.30529192  0.30176465  0.90679261  1
  Zr  Zr21  1  0.30643319  0.29253442  0.30386164  1
  Zr  Zr22  1  0.09601028  0.89925543  0.69897964  1
  Zr  Zr23  1  0.29888578  0.70201600  0.11581357  1
  Zr  Zr24  1  0.89588788  0.69810037  0.09206432  1
  Zr  Zr25  1  0.70136203  0.49670319  0.29522777  1
  Zr  Zr26  1  0.28822095  0.10075759  0.69240214  1
  Zr  Zr27  1  0.90303695  0.70289404  0.29803743  1
  Zr  Zr28  1  0.50685235  0.29326680  0.49262975  1
  Zr  Zr29  1  0.10414924  0.71647370  0.89556907  1
  Zr  Zr30  1  0.29566720  0.51192771  0.70857136  1
  Zr  Zr31  1  0.09810352  0.50068364  0.29481963  1
  Zr  Zr32  1  0.30265433  0.91055287  0.10823508  1
  Zr  Zr33  1  0.49803671  0.69616697  0.48864946  1
  Zr  Zr34  1  0.69670706  0.29572170  0.90912772  1
  Zr  Zr35  1  0.10227772  0.50659579  0.69931741  1
  Zr  Zr36  1  0.29198156  0.90667568  0.49834050  1
  Zr  Zr37  1  0.49620641  0.70176738  0.29559407  1
  Zr  Zr38  1  0.10045244  0.49262091  0.50440298  1
  Zr  Zr39  1  0.69931005  0.30586859  0.09701792  1
  Zr  Zr40  1  0.10035484  0.50279352  0.89886245  1
  Zr  Zr41  1  0.48777721  0.50135893  0.69660101  1
  Zr  Zr42  1  0.29073504  0.89855266  0.90353100  1
  Zr  Zr43  1  0.88550754  0.09715846  0.69605433  1
  Zr  Zr44  1  0.70453015  0.49632586  0.09632836  1
  Zr  Zr45  1  0.50780602  0.49816414  0.30693516  1
  Zr  Zr46  1  0.90406797  0.49132938  0.51284990  1
  Zr  Zr47  1  0.49934995  0.29321128  0.70914854  1
  Zr  Zr48  1  0.50375464  0.90425635  0.89561738  1
  Zr  Zr49  1  0.10039775  0.29149746  0.09771249  1
  Sc  Sc50  1  0.89642332  0.30359743  0.09836987  1
  Sc  Sc51  1  0.09250087  0.70328294  0.50372288  1
  Sc  Sc52  1  0.50026575  0.89740685  0.30087912  1
  Sc  Sc53  1  0.49735536  0.90333007  0.69893879  1
  Sc  Sc54  1  0.49100957  0.90149541  0.50036665  1
  Sc  Sc55  1  0.90132957  0.90105496  0.49912863  1
  Sc  Sc56  1  0.09999545  0.09715233  0.09437765  1
  Sc  Sc57  1  0.49358143  0.10497012  0.30644878  1
  Sc  Sc58  1  0.71032693  0.49871517  0.70249558  1
  Sc  Sc59  1  0.49972293  0.50196722  0.89927427  1
  Sc  Sc60  1  0.89085175  0.30647570  0.89556009  1
  Sc  Sc61  1  0.29940871  0.30727883  0.70621665  1
  Sc  Sc62  1  0.69720923  0.70252601  0.30872059  1
  Sc  Sc63  1  0.89618362  0.89731839  0.68785365  1
  Sc  Sc64  1  0.70336500  0.70214891  0.49505242  1
  Sc  Sc65  1  0.69737448  0.50492206  0.49059850  1
  Sc  Sc66  1  0.11013800  0.30561396  0.89881462  1
  Sc  Sc67  1  0.69918461  0.10084126  0.50355352  1
  Sc  Sc68  1  0.90323409  0.09201503  0.09998348  1
  Sc  Sc69  1  0.70252174  0.09419248  0.31230496  1
  Sc  Sc70  1  0.30677152  0.90146937  0.69424481  1
  Sc  Sc71  1  0.69159735  0.30315904  0.30410484  1
  Sc  Sc72  1  0.09218376  0.10004380  0.30185753  1
  Sc  Sc73  1  0.90128423  0.49636466  0.70269494  1
  Sc  Sc74  1  0.11102582  0.09597511  0.50371311  1
  Sc  Sc75  1  0.48491310  0.09367388  0.10090774  1
  Sc  Sc76  1  0.09726856  0.69336840  0.10611202  1
  Sc  Sc77  1  0.70091436  0.90028194  0.49570081  1
  Sc  Sc78  1  0.10796688  0.30086030  0.70193353  1
  Sc  Sc79  1  0.89682216  0.70745103  0.69582686  1
  Sc  Sc80  1  0.50244094  0.09573869  0.49895580  1
  Sc  Sc81  1  0.50178288  0.89601709  0.10400756  1
  Sc  Sc82  1  0.70415561  0.90567105  0.69864575  1
  Sc  Sc83  1  0.10012858  0.29481943  0.31190498  1
  Sc  Sc84  1  0.70727115  0.29422743  0.69698728  1
  Sc  Sc85  1  0.29807122  0.09609273  0.49234519  1
  Sc  Sc86  1  0.30216644  0.50272102  0.29403029  1
  Sc  Sc87  1  0.90275160  0.49908073  0.90192793  1
  Sc  Sc88  1  0.70907177  0.89863336  0.30191444  1
  Sc  Sc89  1  0.89674932  0.70575263  0.50438279  1
  Sc  Sc90  1  0.50919359  0.09719784  0.69849145  1
  Sc  Sc91  1  0.09277973  0.50205055  0.09836580  1
  Sc  Sc92  1  0.29730680  0.70324344  0.29921397  1
  Sc  Sc93  1  0.70556313  0.69933968  0.70548209  1
  Sc  Sc94  1  0.51222142  0.70289654  0.88989795  1
  Sc  Sc95  1  0.30191285  0.50156410  0.51649022  1
  Sc  Sc96  1  0.30488035  0.49520900  0.10077070  1
  Sc  Sc97  1  0.50024935  0.48975484  0.09938848  1
  Sc  Sc98  1  0.11454046  0.09643687  0.90160526  1
  Sc  Sc99  1  0.10404960  0.70825635  0.29646885  1
  Nb  Nb100  1  0.49991310  0.50038558  0.50124856  1
  Nb  Nb101  1  0.90908750  0.90369724  0.29732294  1
  Nb  Nb102  1  0.29958935  0.50471493  0.90233477  1
  Nb  Nb103  1  0.50367399  0.30337483  0.09778257  1
  Nb  Nb104  1  0.09557883  0.10145887  0.70030404  1
  Nb  Nb105  1  0.89979773  0.09987163  0.90117198  1
  Nb  Nb106  1  0.49666344  0.70172362  0.69581073  1
  Nb  Nb107  1  0.69696854  0.49706193  0.89882629  1
  Nb  Nb108  1  0.10599802  0.70359259  0.70314366  1
  Nb  Nb109  1  0.50495746  0.30016307  0.90336075  1
  Nb  Nb110  1  0.89847897  0.29596071  0.50412688  1
  Nb  Nb111  1  0.09519282  0.29805401  0.50228731  1
  Nb  Nb112  1  0.29776010  0.10069674  0.10044984  1
  Nb  Nb113  1  0.69851648  0.09613977  0.70285189  1
  Nb  Nb114  1  0.49780064  0.70230206  0.10170824  1
  Nb  Nb115  1  0.89482134  0.90321795  0.10797154  1
  Nb  Nb116  1  0.30335346  0.09962846  0.90970179  1
  Nb  Nb117  1  0.29743986  0.70274212  0.89518577  1
  Nb  Nb118  1  0.69758375  0.90077908  0.90377290  1
  Nb  Nb119  1  0.29694561  0.69875023  0.70399963  1
  Nb  Nb120  1  0.70250621  0.30155366  0.50059336  1
  Nb  Nb121  1  0.90735951  0.70213569  0.89851081  1
  Nb  Nb122  1  0.30242720  0.10103161  0.29234956  1
  Nb  Nb123  1  0.89350258  0.10187875  0.49864685  1
  Nb  Nb124  1  0.08867366  0.89786586  0.30834148  1
  Nb  Nb125  1  -0.00162893  0.19913409  0.60038877  1
  Nb  Nb126  1  0.40255519  0.39988324  0.40595490  1
  Nb  Nb127  1  0.39853144  0.20090333  0.59991258  1
  Nb  Nb128  1  0.59758419  0.40268205  0.60052023  1
  Nb  Nb129  1  0.59331314  0.60010124  0.60084829  1
  Nb  Nb130  1  0.59467539  0.79194202  0.60065506  1
  Nb  Nb131  1  0.20666358  0.19774326  0.19859243  1
  Nb  Nb132  1  0.39358928  0.00785836  0.80581544  1
  Nb  Nb133  1  0.60001874  0.39684723  0.79978700  1
  Nb  Nb134  1  -0.00237769  0.00768926  0.79878757  1
  Nb  Nb135  1  0.00334136  0.61271296  0.80032453  1
  Nb  Nb136  1  0.79560002  0.19694867  0.20118272  1
  Nb  Nb137  1  0.59862000  0.60404371  0.19473046  1
  Nb  Nb138  1  0.39788031  0.79307010  -0.00043707  1
  Nb  Nb139  1  0.60516095  0.00508184  0.19858011  1
  Nb  Nb140  1  0.19302358  0.59717650  0.40364544  1
  Nb  Nb141  1  0.20094358  0.39006322  0.20010161  1
  Nb  Nb142  1  0.60204113  0.19426037  0.19420806  1
  Nb  Nb143  1  -0.00203234  0.19405624  0.79773965  1
  Nb  Nb144  1  -0.00323992  0.19666553  -0.01181072  1
  Nb  Nb145  1  0.20873975  0.60507804  -0.00468656  1
  Nb  Nb146  1  0.80634934  0.39252175  0.40506296  1
  Nb  Nb147  1  0.20022678  0.79719650  0.60389161  1
  Nb  Nb148  1  0.00036531  0.59595699  0.40031753  1
  Nb  Nb149  1  0.39678464  0.61002313  -0.00210494  1
  Pd  Pd150  1  0.80134687  0.80764164  0.80099429  1
  Pd  Pd151  1  0.59449304  0.00543127  0.00608317  1
  Pd  Pd152  1  0.59344537  0.80237546  -0.00299355  1
  Pd  Pd153  1  0.20043953  0.20179998  0.80563707  1
  Pd  Pd154  1  0.60697330  0.80634025  0.78929302  1
  Pd  Pd155  1  0.40864303  0.19878127  0.00020360  1
  Pd  Pd156  1  0.80200806  0.59439087  -0.00971747  1
  Pd  Pd157  1  0.19988825  0.39819830  0.60679847  1
  Pd  Pd158  1  0.79004802  0.61095366  0.19948323  1
  Pd  Pd159  1  0.80752136  0.80659736  0.39991211  1
  Pd  Pd160  1  0.81083724  0.59188548  0.40471345  1
  Pd  Pd161  1  0.80649858  -0.01203745  0.80414461  1
  Pd  Pd162  1  0.20114174  -0.00222501  0.79579400  1
  Pd  Pd163  1  0.39780260  0.80578977  0.80350146  1
  Pd  Pd164  1  0.38761038  0.59078650  0.40213692  1
  Pd  Pd165  1  0.60703460  0.80327576  0.20352945  1
  Pd  Pd166  1  0.59213943  0.59542698  0.00407174  1
  Pd  Pd167  1  0.20527698  0.79524677  0.01407207  1
  Pd  Pd168  1  0.39912429  0.79700541  0.59807855  1
  Pd  Pd169  1  0.00621609  0.39037998  0.19871151  1
  Pd  Pd170  1  0.79309600  0.59987785  0.59717326  1
  Pd  Pd171  1  0.18843950  0.00702189  0.20583726  1
  Pd  Pd172  1  0.38879994  0.19231094  0.79440729  1
  Pd  Pd173  1  0.40249422  0.40157518  0.80896017  1
  Pd  Pd174  1  0.20075833  0.40812485  0.00797737  1
  Pd  Pd175  1  0.60082710  0.20269850  0.60234987  1
  Pd  Pd176  1  0.00208353  0.39608453  0.79616469  1
  Pd  Pd177  1  0.79256754  0.20478885  0.39664533  1
  Pd  Pd178  1  0.00512208  0.18891989  0.41405728  1
  Pd  Pd179  1  0.40231474  -0.00666324  -0.00527997  1
  Pd  Pd180  1  0.00499568  0.00324415  0.19849087  1
  Pd  Pd181  1  0.60224896  -0.01051051  0.59800994  1
  Pd  Pd182  1  0.60116564  0.59136103  0.79048979  1
  Pd  Pd183  1  -0.00615075  0.40217782  0.39985473  1
  Pd  Pd184  1  0.59728500  -0.00382594  0.39566302  1
  Pd  Pd185  1  0.59304184  0.18989727  0.00937400  1
  Pd  Pd186  1  -0.00213226  0.60771822  0.60433100  1
  Pd  Pd187  1  0.79792296  0.79658649  0.20209854  1
  Pd  Pd188  1  0.00011813  0.79847329  0.19316064  1
  Pd  Pd189  1  0.40294215  0.38692877  0.59365108  1
  Pd  Pd190  1  0.81219365  0.59799314  0.80466078  1
  Pd  Pd191  1  0.39412657  0.80694350  0.39374054  1
  Pd  Pd192  1  0.40905131  0.59063357  0.19480429  1
  Pd  Pd193  1  0.39832843  -0.00086933  0.39428297  1
  Pd  Pd194  1  0.00137127  0.79870837  0.01223332  1
  Pd  Pd195  1  -0.00304388  0.00769796  0.59806339  1
  Pd  Pd196  1  0.80011936  0.20362176  0.80088515  1
  Pd  Pd197  1  -0.00255561  0.39092792  -0.00318238  1
  Pd  Pd198  1  0.40358363  0.60766383  0.80700384  1
  Pd  Pd199  1  0.20912367  0.40770312  0.39537052  1
  Rh  Rh200  1  -0.00172209  0.00315349  -0.00627158  1
  Rh  Rh201  1  0.59565335  0.40586262  -0.00813011  1
  Rh  Rh202  1  0.79268400  0.00165670  0.59231660  1
  Rh  Rh203  1  0.19456635  0.79470364  0.40508028  1
  Rh  Rh204  1  0.80369210  0.80337833  -0.00311856  1
  Rh  Rh205  1  0.78705478  0.80060050  0.59758798  1
  Rh  Rh206  1  0.60239131  0.39984831  0.40937029  1
  Rh  Rh207  1  0.00794522  0.38868688  0.60798514  1
  Rh  Rh208  1  0.19946817  0.60969984  0.59517634  1
  Rh  Rh209  1  0.19617890  -0.00870973  0.60120552  1
  Rh  Rh210  1  0.20155789  0.00188973  0.00517311  1
  Rh  Rh211  1  0.19266198  0.80869010  0.20097936  1
  Rh  Rh212  1  -0.00198953  0.60514955  0.20546613  1
  Rh  Rh213  1  0.79024900  0.40111307  0.80640996  1
  Rh  Rh214  1  0.40154204  0.60873555  0.60016720  1
  Rh  Rh215  1  -0.00305261  0.19643876  0.18684394  1
  Rh  Rh216  1  0.80703293  -0.00475650  0.40406493  1
  Rh  Rh217  1  0.40065891  0.01503882  0.60717357  1
  Rh  Rh218  1  -0.00550315  0.79435036  0.39969674  1
  Rh  Rh219  1  0.19699393  0.20431499  0.60077809  1
  Rh  Rh220  1  0.59815009  0.80413881  0.40647598  1
  Rh  Rh221  1  0.39745534  0.80824255  0.20002114  1
  Rh  Rh222  1  0.40381512  0.19750131  0.19401885  1
  Rh  Rh223  1  0.39897198  0.40057488  0.20792855  1
  Rh  Rh224  1  0.79822582  0.19376817  0.59666652  1
  Rh  Rh225  1  0.60076209  0.60243888  0.39654972  1
  Rh  Rh226  1  0.80245555  0.38437412  0.21215023  1
  Rh  Rh227  1  0.19701184  0.58892862  0.19834948  1
  Rh  Rh228  1  0.61291969  0.20539482  0.79681184  1
  Rh  Rh229  1  0.59984225  -0.00386851  0.79698906  1
  Rh  Rh230  1  0.78754885  0.40628282  0.59044662  1
  Rh  Rh231  1  0.19650159  0.19114107  0.39358702  1
  Rh  Rh232  1  0.00498146  0.79942719  0.60084702  1
  Rh  Rh233  1  0.60055026  0.39990500  0.19461132  1
  Rh  Rh234  1  0.39707773  0.20048788  0.41037479  1
  Rh  Rh235  1  0.00870549  0.60852013  -0.01100840  1
  Rh  Rh236  1  0.60417228  0.19530969  0.39435646  1
  Rh  Rh237  1  0.81155914  0.20096036  0.00555251  1
  Rh  Rh238  1  0.80730647  -0.00827244  -0.00759607  1
  Rh  Rh239  1  0.20897294  0.81003839  0.78784167  1
  Rh  Rh240  1  0.19305570  0.60302876  0.80793032  1
  Rh  Rh241  1  0.79609541  0.00166996  0.20595916  1
  Rh  Rh242  1  0.19858887  0.19603715  0.00349032  1
  Rh  Rh243  1  -0.00215951  0.00379153  0.40690586  1
  Rh  Rh244  1  0.80324068  0.40725830  -0.00549815  1
  Rh  Rh245  1  0.19458773  0.00523365  0.39003584  1
  Rh  Rh246  1  0.40699250  0.40413991  -0.00665275  1
  Rh  Rh247  1  -0.00837849  0.80277748  0.79146222  1
  Rh  Rh248  1  0.40635525  -0.00191301  0.20824884  1
  Rh  Rh249  1  0.20632352  0.40394778  0.80276259  1
