# generated using pymatgen
data_ZrScNbPdRh
_symmetry_space_group_name_H-M   'P 1'
_cell_length_a   16.56110261
_cell_length_b   16.56354521
_cell_length_c   16.56105565
_cell_angle_alpha   90.01966912
_cell_angle_beta   89.98977676
_cell_angle_gamma   89.98696833
_symmetry_Int_Tables_number   1
_chemical_formula_structural   ZrScNbPdRh
_chemical_formula_sum   'Zr50 Sc50 Nb50 Pd50 Rh50'
_cell_volume   4542.87218725
_cell_formula_units_Z   50
loop_
 _symmetry_equiv_pos_site_id
 _symmetry_equiv_pos_as_xyz
  1  'x, y, z'
loop_
 _atom_site_type_symbol
 _atom_site_label
 _atom_site_symmetry_multiplicity
 _atom_site_fract_x
 _atom_site_fract_y
 _atom_site_fract_z
 _atom_site_occupancy
  Zr  Zr0  1  0.69815205  0.49866693  0.10372200  1
  Zr  Zr1  1  0.69106220  0.29274761  0.69288539  1
  Zr  Zr2  1  0.70546582  0.49986438  0.90784677  1
  Zr  Zr3  1  0.69999926  0.69962663  0.90929615  1
  Zr  Zr4  1  0.89805494  0.50842726  0.09743308  1
  Zr  Zr5  1  0.10212048  0.69701148  0.69551052  1
  Zr  Zr6  1  0.09847065  0.50841663  0.10548056  1
  Zr  Zr7  1  0.90128013  0.49179140  0.90318347  1
  Zr  Zr8  1  0.09446184  0.90966407  0.09613012  1
  Zr  Zr9  1  0.89864415  0.49173385  0.49976234  1
  Zr  Zr10  1  0.89770467  0.90534002  0.70326498  1
  Zr  Zr11  1  0.10157073  0.70936051  0.89146630  1
  Zr  Zr12  1  0.10232542  0.50221778  0.30305557  1
  Zr  Zr13  1  0.50241247  0.29664004  0.30417162  1
  Zr  Zr14  1  0.50365691  0.70160816  0.50321355  1
  Zr  Zr15  1  0.30220776  0.10695674  0.69605237  1
  Zr  Zr16  1  0.10595292  0.69799840  0.29640628  1
  Zr  Zr17  1  0.69980429  0.70440539  0.10506073  1
  Zr  Zr18  1  0.69759321  0.69743174  0.68572761  1
  Zr  Zr19  1  0.90132634  0.70421395  0.90649375  1
  Zr  Zr20  1  0.10145793  0.90416969  0.89703865  1
  Zr  Zr21  1  0.30712096  0.90650268  0.50298892  1
  Zr  Zr22  1  0.30952912  0.50521112  0.31377145  1
  Zr  Zr23  1  0.69843266  0.50094125  0.49498259  1
  Zr  Zr24  1  0.09683347  0.30074257  0.49579076  1
  Zr  Zr25  1  0.49825470  0.49200423  0.91075320  1
  Zr  Zr26  1  0.89291575  0.89606074  0.09737285  1
  Zr  Zr27  1  0.90221219  0.31001912  0.09343352  1
  Zr  Zr28  1  0.30016024  0.10045965  0.50538751  1
  Zr  Zr29  1  0.49539083  0.09745794  0.48948215  1
  Zr  Zr30  1  0.29727792  0.09964843  0.88767040  1
  Zr  Zr31  1  0.29984386  0.30412203  0.50358796  1
  Zr  Zr32  1  0.10318578  0.49846090  0.51016258  1
  Zr  Zr33  1  0.70549857  0.90326041  0.89675502  1
  Zr  Zr34  1  0.29332179  0.50230748  0.09930682  1
  Zr  Zr35  1  0.89793334  0.30088559  0.70416354  1
  Zr  Zr36  1  0.49559644  0.49846747  0.69598352  1
  Zr  Zr37  1  0.90047841  0.29587477  0.30877088  1
  Zr  Zr38  1  0.50063091  0.10103554  0.70529380  1
  Zr  Zr39  1  0.30113969  0.50061372  0.50256590  1
  Zr  Zr40  1  0.90702295  0.49512528  0.69852558  1
  Zr  Zr41  1  0.09788690  0.89192151  0.30599748  1
  Zr  Zr42  1  0.29985668  0.29697085  0.10717938  1
  Zr  Zr43  1  0.09843762  0.30043290  0.29752803  1
  Zr  Zr44  1  0.49470126  0.49787596  0.48634739  1
  Zr  Zr45  1  0.50106022  0.70529864  0.90680797  1
  Zr  Zr46  1  0.29884864  0.29973013  0.30143665  1
  Zr  Zr47  1  0.50522091  0.10436080  0.10254097  1
  Zr  Zr48  1  0.69845432  0.09784495  0.10114113  1
  Zr  Zr49  1  0.10973204  0.10291418  0.70855299  1
  Sc  Sc50  1  0.49189244  0.89820328  0.69293803  1
  Sc  Sc51  1  0.30193794  0.10262672  0.11093810  1
  Sc  Sc52  1  0.70297969  0.89742870  0.10673194  1
  Sc  Sc53  1  0.09608312  0.29618754  0.69837019  1
  Sc  Sc54  1  0.89474098  0.49680728  0.29835533  1
  Sc  Sc55  1  0.30504684  0.89954791  0.10491787  1
  Sc  Sc56  1  0.49188856  0.29189632  0.69999300  1
  Sc  Sc57  1  0.49875192  0.90450314  0.89282761  1
  Sc  Sc58  1  0.49578517  0.70081702  0.69074092  1
  Sc  Sc59  1  0.89925679  0.69631993  0.30117695  1
  Sc  Sc60  1  0.09220353  0.29540669  0.89507186  1
  Sc  Sc61  1  0.30070544  0.49601717  0.90158118  1
  Sc  Sc62  1  0.90696691  0.30650344  0.89857892  1
  Sc  Sc63  1  0.70475695  0.49115873  0.69091858  1
  Sc  Sc64  1  0.50334029  0.89281510  0.11073524  1
  Sc  Sc65  1  0.69360858  0.09601786  0.70430699  1
  Sc  Sc66  1  0.30197319  0.90828992  0.69997521  1
  Sc  Sc67  1  0.69457875  0.49376493  0.29839467  1
  Sc  Sc68  1  0.69897665  0.29686291  0.49935132  1
  Sc  Sc69  1  0.69826617  0.90060766  0.30125245  1
  Sc  Sc70  1  0.50440051  0.09833668  0.30285076  1
  Sc  Sc71  1  0.90381349  0.08915445  0.10186971  1
  Sc  Sc72  1  0.69491590  0.29842038  0.10512364  1
  Sc  Sc73  1  0.70199395  0.90556239  0.69585431  1
  Sc  Sc74  1  0.90197239  0.69804995  0.68984126  1
  Sc  Sc75  1  0.31454434  0.10855167  0.29727515  1
  Sc  Sc76  1  0.30138933  0.69767418  0.69753906  1
  Sc  Sc77  1  0.50284713  0.69136242  0.29087033  1
  Sc  Sc78  1  0.70280116  0.10543574  0.49462945  1
  Sc  Sc79  1  0.10262142  0.30453585  0.10444582  1
  Sc  Sc80  1  0.08392317  0.10940814  0.29415341  1
  Sc  Sc81  1  0.10002533  0.10281102  0.51557132  1
  Sc  Sc82  1  0.29901183  0.70694208  0.89716460  1
  Sc  Sc83  1  0.09577912  0.69849154  0.48912937  1
  Sc  Sc84  1  0.29875332  0.50148898  0.69016452  1
  Sc  Sc85  1  0.10434334  0.89842357  0.49740405  1
  Sc  Sc86  1  0.09584106  0.09808682  0.89869202  1
  Sc  Sc87  1  0.88836871  0.90239706  0.29711253  1
  Sc  Sc88  1  0.68570153  0.09145059  0.89961908  1
  Sc  Sc89  1  0.10310344  0.49989012  0.90587673  1
  Sc  Sc90  1  0.09670571  0.10230021  0.09692361  1
  Sc  Sc91  1  0.69554513  0.30335947  0.90972773  1
  Sc  Sc92  1  0.10009389  0.90084049  0.70780151  1
  Sc  Sc93  1  0.30028016  0.89334316  0.29975968  1
  Sc  Sc94  1  0.90734050  0.90389432  0.89967844  1
  Sc  Sc95  1  0.89127293  0.69453247  0.49573692  1
  Sc  Sc96  1  0.29878680  0.89977139  0.89587488  1
  Sc  Sc97  1  0.88937932  0.10300399  0.30101775  1
  Sc  Sc98  1  0.30878503  0.30639276  0.89296132  1
  Sc  Sc99  1  0.90426434  0.09564284  0.69585454  1
  Nb  Nb100  1  0.70279200  0.10397757  0.29943378  1
  Nb  Nb101  1  0.29801963  0.70340595  0.30384368  1
  Nb  Nb102  1  0.29691469  0.29744813  0.70116891  1
  Nb  Nb103  1  0.89175506  0.91068240  0.50310164  1
  Nb  Nb104  1  0.89743773  0.10293986  0.89460955  1
  Nb  Nb105  1  0.50261030  0.49696669  0.29509927  1
  Nb  Nb106  1  0.29926595  0.70258852  0.11001432  1
  Nb  Nb107  1  0.69845394  0.70518321  0.49353071  1
  Nb  Nb108  1  0.30498545  0.69848496  0.49657863  1
  Nb  Nb109  1  0.49970693  0.30064244  0.90284482  1
  Nb  Nb110  1  0.50062489  0.69741552  0.10251048  1
  Nb  Nb111  1  0.10155208  0.50456922  0.69686016  1
  Nb  Nb112  1  0.69725551  0.89879102  0.49403775  1
  Nb  Nb113  1  0.50534392  0.30575381  0.09332270  1
  Nb  Nb114  1  0.90149054  0.70055681  0.10210642  1
  Nb  Nb115  1  0.50616985  0.50224711  0.11324796  1
  Nb  Nb116  1  0.50062396  0.90447574  0.49113257  1
  Nb  Nb117  1  0.10245069  0.69402331  0.10322198  1
  Nb  Nb118  1  0.50103762  0.90399388  0.31242755  1
  Nb  Nb119  1  0.90067036  0.09915141  0.49662697  1
  Nb  Nb120  1  0.50237112  0.29060024  0.49917300  1
  Nb  Nb121  1  0.70210419  0.70638088  0.30115400  1
  Nb  Nb122  1  0.89907241  0.28722808  0.49685406  1
  Nb  Nb123  1  0.49812545  0.10326356  0.89985770  1
  Nb  Nb124  1  0.70617551  0.29172617  0.30297728  1
  Nb  Nb125  1  0.59671327  -0.00383283  0.58627201  1
  Nb  Nb126  1  0.40888643  0.40443492  0.20024627  1
  Nb  Nb127  1  0.19517580  0.00133679  0.20886167  1
  Nb  Nb128  1  0.80042687  0.60057727  0.79921223  1
  Nb  Nb129  1  0.40799982  0.59755712  0.80748878  1
  Nb  Nb130  1  -0.00146769  0.59726810  0.79757400  1
  Nb  Nb131  1  0.80243404  0.19556529  -0.00436915  1
  Nb  Nb132  1  0.79686931  0.79277473  0.79785678  1
  Nb  Nb133  1  0.59353962  0.40129783  0.80257163  1
  Nb  Nb134  1  0.20917349  0.19959138  -0.00228980  1
  Nb  Nb135  1  0.40472251  0.19983687  -0.00247163  1
  Nb  Nb136  1  0.79866211  0.19840755  0.80618371  1
  Nb  Nb137  1  -0.00188960  0.80597496  0.59337203  1
  Nb  Nb138  1  0.00046548  0.79362072  0.19336486  1
  Nb  Nb139  1  0.20007012  0.79795909  0.59585254  1
  Nb  Nb140  1  0.60113571  0.59768007  0.80048846  1
  Nb  Nb141  1  0.19781382  0.19692594  0.39916840  1
  Nb  Nb142  1  0.40332577  0.00928540  -0.00052465  1
  Nb  Nb143  1  0.19585456  0.00828868  0.39390392  1
  Nb  Nb144  1  0.19909653  0.40051528  0.79112822  1
  Nb  Nb145  1  0.40439529  0.79756005  0.39984821  1
  Nb  Nb146  1  0.60572292  0.79348452  0.79721232  1
  Nb  Nb147  1  0.19693240  0.79637053  0.01040521  1
  Nb  Nb148  1  0.40237594  0.60652201  0.01036736  1
  Nb  Nb149  1  -0.00472480  0.00165978  0.40683193  1
  Pd  Pd150  1  0.80363621  0.80208572  0.59857802  1
  Pd  Pd151  1  0.60202418  -0.00414368  0.20762856  1
  Pd  Pd152  1  0.19386495  0.80774755  0.19374115  1
  Pd  Pd153  1  0.59547958  0.59693531  0.00439818  1
  Pd  Pd154  1  0.39938327  -0.00252494  0.20138187  1
  Pd  Pd155  1  0.80767932  0.19954606  0.18908085  1
  Pd  Pd156  1  0.40247079  0.79508081  0.79349998  1
  Pd  Pd157  1  0.20687657  0.40906605  0.20844483  1
  Pd  Pd158  1  0.59977636  0.20278525  0.20445748  1
  Pd  Pd159  1  0.60249759  0.60454950  0.39327841  1
  Pd  Pd160  1  0.00723079  0.79951590  0.00643906  1
  Pd  Pd161  1  0.39748188  0.40030971  0.01142347  1
  Pd  Pd162  1  0.79526197  0.60274702  0.20669612  1
  Pd  Pd163  1  0.59156279  -0.01007095  0.00293649  1
  Pd  Pd164  1  0.80180954  0.00566791  -0.00263414  1
  Pd  Pd165  1  0.39330964  0.80402602  0.00350731  1
  Pd  Pd166  1  0.59854200  0.59228070  0.59704360  1
  Pd  Pd167  1  -0.00210177  0.40415382  0.39865531  1
  Pd  Pd168  1  0.80355070  0.80297633  0.39994853  1
  Pd  Pd169  1  0.59499487  0.79427629  0.39267719  1
  Pd  Pd170  1  -0.00132622  -0.00757447  0.21135080  1
  Pd  Pd171  1  -0.00028585  0.19818961  0.00180136  1
  Pd  Pd172  1  0.59983611  0.81222472  0.00081493  1
  Pd  Pd173  1  0.79408152  0.59594942  0.39265873  1
  Pd  Pd174  1  -0.01559001  0.80633362  0.40105393  1
  Pd  Pd175  1  0.40786201  0.79986258  0.21015029  1
  Pd  Pd176  1  -0.00241731  0.20026261  0.60457086  1
  Pd  Pd177  1  0.59124220  0.39680785  0.59923203  1
  Pd  Pd178  1  0.19545711  0.38707598  -0.00987908  1
  Pd  Pd179  1  -0.00392236  0.40487465  0.20160854  1
  Pd  Pd180  1  -0.00339763  0.59472313  0.39998863  1
  Pd  Pd181  1  0.19870367  0.60047383  0.40564793  1
  Pd  Pd182  1  -0.00920412  0.20310308  0.19136416  1
  Pd  Pd183  1  0.00869063  -0.00672959  0.59808397  1
  Pd  Pd184  1  0.21130472  0.00305901  0.00871830  1
  Pd  Pd185  1  0.60490563  0.20833478  0.80859515  1
  Pd  Pd186  1  0.78718856  0.39381407  0.79962513  1
  Pd  Pd187  1  0.78880494  0.00873882  0.59745155  1
  Pd  Pd188  1  0.60143504  0.81130341  0.60157817  1
  Pd  Pd189  1  0.80007606  0.39092947  0.59205586  1
  Pd  Pd190  1  0.79784397  0.39550931  0.20198931  1
  Pd  Pd191  1  0.80021195  0.19214871  0.60762131  1
  Pd  Pd192  1  0.60539116  0.39232261  0.39778209  1
  Pd  Pd193  1  0.20476916  0.59198034  0.80219515  1
  Pd  Pd194  1  0.00005993  0.39128555  0.60006868  1
  Pd  Pd195  1  0.40473552  0.39338141  0.59904445  1
  Pd  Pd196  1  0.39396785  0.59759535  0.19966437  1
  Pd  Pd197  1  0.20762542  0.61061708  -0.00538965  1
  Pd  Pd198  1  0.00278664  0.60057088  -0.00683345  1
  Pd  Pd199  1  0.80168074  0.59614991  0.59829911  1
  Rh  Rh200  1  0.60405115  0.40290467  0.00250337  1
  Rh  Rh201  1  0.79782852  0.39357895  0.40250376  1
  Rh  Rh202  1  0.40097989  0.00091647  0.80195895  1
  Rh  Rh203  1  0.19182841  0.18989722  0.20085076  1
  Rh  Rh204  1  0.40544958  0.39191829  0.39736521  1
  Rh  Rh205  1  0.39268087  0.79929592  0.59188205  1
  Rh  Rh206  1  0.60513226  0.19967852  0.39817164  1
  Rh  Rh207  1  -0.00581088  0.00521102  -0.00718131  1
  Rh  Rh208  1  0.00416780  0.19063483  0.40655845  1
  Rh  Rh209  1  0.00113220  0.00658813  0.80082012  1
  Rh  Rh210  1  0.00079416  0.60536508  0.59764986  1
  Rh  Rh211  1  0.01093632  0.40360702  0.00536096  1
  Rh  Rh212  1  0.59852259  0.39059336  0.20507076  1
  Rh  Rh213  1  0.19972168  0.20791670  0.59613144  1
  Rh  Rh214  1  0.38947645  -0.00518576  0.38934316  1
  Rh  Rh215  1  0.61034795  0.60521476  0.20394994  1
  Rh  Rh216  1  0.39885300  0.60008468  0.60134022  1
  Rh  Rh217  1  0.20796891  0.59739672  0.20851257  1
  Rh  Rh218  1  0.80108078  0.00285284  0.80223151  1
  Rh  Rh219  1  0.39968110  0.20250767  0.80377676  1
  Rh  Rh220  1  0.79209665  0.00289854  0.20245135  1
  Rh  Rh221  1  0.20622869  0.80546632  0.79446549  1
  Rh  Rh222  1  0.59264170  0.18883478  0.59243676  1
  Rh  Rh223  1  0.79780714  0.19921931  0.40137265  1
  Rh  Rh224  1  0.20111253  0.60894490  0.59089003  1
  Rh  Rh225  1  0.79866428  0.00258034  0.40035156  1
  Rh  Rh226  1  0.80371364  0.60367924  0.00277886  1
  Rh  Rh227  1  0.59221972  -0.01200961  0.78748354  1
  Rh  Rh228  1  0.19686721  -0.00868253  0.59974898  1
  Rh  Rh229  1  0.79393849  0.39143854  0.00756393  1
  Rh  Rh230  1  0.20208322  0.21186327  0.80669773  1
  Rh  Rh231  1  -0.00387358  0.60395210  0.20453257  1
  Rh  Rh232  1  0.79934544  0.80204346  -0.00236964  1
  Rh  Rh233  1  0.41039047  0.00786275  0.60331813  1
  Rh  Rh234  1  -0.00847460  0.19541689  0.79436669  1
  Rh  Rh235  1  0.39757227  0.40450386  0.79111847  1
  Rh  Rh236  1  0.41475450  0.21141835  0.19293402  1
  Rh  Rh237  1  0.40811632  0.61051570  0.39855093  1
  Rh  Rh238  1  0.19801560  0.39481851  0.60762378  1
  Rh  Rh239  1  0.01434508  0.40936195  0.79874601  1
  Rh  Rh240  1  0.60086393  0.20082588  -0.00141696  1
  Rh  Rh241  1  0.21513048  0.80414232  0.40967838  1
  Rh  Rh242  1  -0.01074398  0.79276446  0.78709936  1
  Rh  Rh243  1  0.39422943  0.20617096  0.40607205  1
  Rh  Rh244  1  0.59821536  0.79899985  0.20774245  1
  Rh  Rh245  1  0.19712559  0.39583576  0.39890604  1
  Rh  Rh246  1  0.61256741  0.00508366  0.39965333  1
  Rh  Rh247  1  0.20072412  -0.00317943  0.79586220  1
  Rh  Rh248  1  0.40339754  0.20055709  0.59692880  1
  Rh  Rh249  1  0.80448843  0.79402855  0.20406372  1
