# generated using pymatgen
data_ZrScNbPdRh
_symmetry_space_group_name_H-M   'P 1'
_cell_length_a   16.55884598
_cell_length_b   16.56286452
_cell_length_c   16.56102381
_cell_angle_alpha   90.02495539
_cell_angle_beta   90.03646638
_cell_angle_gamma   90.01727789
_symmetry_Int_Tables_number   1
_chemical_formula_structural   ZrScNbPdRh
_chemical_formula_sum   'Zr50 Sc50 Nb50 Pd50 Rh50'
_cell_volume   4542.05667272
_cell_formula_units_Z   50
loop_
 _symmetry_equiv_pos_site_id
 _symmetry_equiv_pos_as_xyz
  1  'x, y, z'
loop_
 _atom_site_type_symbol
 _atom_site_label
 _atom_site_symmetry_multiplicity
 _atom_site_fract_x
 _atom_site_fract_y
 _atom_site_fract_z
 _atom_site_occupancy
  Zr  Zr0  1  0.70208551  0.70210282  0.69374358  1
  Zr  Zr1  1  0.50214504  0.10754510  0.70312980  1
  Zr  Zr2  1  0.29594736  0.49277208  0.88938952  1
  Zr  Zr3  1  0.31241221  0.31006873  0.70886650  1
  Zr  Zr4  1  0.69323233  0.09901224  0.69917850  1
  Zr  Zr5  1  0.10499764  0.50082380  0.90386034  1
  Zr  Zr6  1  0.49756781  0.09961168  0.50372247  1
  Zr  Zr7  1  0.70214039  0.90226079  0.10464119  1
  Zr  Zr8  1  0.70147448  0.10715187  0.90005812  1
  Zr  Zr9  1  0.68786750  0.90430917  0.90019168  1
  Zr  Zr10  1  0.09709986  0.70006521  0.10303588  1
  Zr  Zr11  1  0.70116749  0.70333833  0.30046131  1
  Zr  Zr12  1  0.10131981  0.90013602  0.29210894  1
  Zr  Zr13  1  0.69502240  0.10272558  0.09671301  1
  Zr  Zr14  1  0.90254783  0.89757604  0.90504094  1
  Zr  Zr15  1  0.49589157  0.30107869  0.50141533  1
  Zr  Zr16  1  0.69809728  0.69521789  0.50280182  1
  Zr  Zr17  1  0.70014632  0.50469957  0.69456627  1
  Zr  Zr18  1  0.29813390  0.70413678  0.29723726  1
  Zr  Zr19  1  0.90018940  0.70711843  0.90555139  1
  Zr  Zr20  1  0.29856949  0.70212395  0.70066232  1
  Zr  Zr21  1  0.29051423  0.89481482  0.89783892  1
  Zr  Zr22  1  0.10146996  0.89869013  0.90977089  1
  Zr  Zr23  1  0.10060738  0.30162677  0.11057242  1
  Zr  Zr24  1  0.10407367  0.90696449  0.49828133  1
  Zr  Zr25  1  0.90335421  0.71172400  0.70072853  1
  Zr  Zr26  1  0.69056942  0.49341419  0.09624170  1
  Zr  Zr27  1  0.89944003  0.50503831  0.11091818  1
  Zr  Zr28  1  0.10103027  0.09159396  0.90294806  1
  Zr  Zr29  1  0.30100193  0.50339660  0.70424135  1
  Zr  Zr30  1  0.68545022  0.70276307  0.90291443  1
  Zr  Zr31  1  0.70315234  0.50197213  0.50008250  1
  Zr  Zr32  1  0.89653046  0.89691925  0.29653291  1
  Zr  Zr33  1  0.49550026  0.09791836  0.30624594  1
  Zr  Zr34  1  0.30377979  0.09973887  0.11087207  1
  Zr  Zr35  1  0.70420670  0.30119502  0.29064283  1
  Zr  Zr36  1  0.89288974  0.30174156  0.10558469  1
  Zr  Zr37  1  0.70102808  0.50515660  0.29973385  1
  Zr  Zr38  1  0.50843896  0.29802790  0.10069242  1
  Zr  Zr39  1  0.30277666  0.70288118  0.10382209  1
  Zr  Zr40  1  0.49815831  0.30008263  0.30754594  1
  Zr  Zr41  1  0.10807229  0.89753249  0.70135542  1
  Zr  Zr42  1  0.09974038  0.49975468  0.09978966  1
  Zr  Zr43  1  0.69495809  0.90355076  0.50837023  1
  Zr  Zr44  1  0.69161200  0.70024469  0.11117379  1
  Zr  Zr45  1  0.50289626  0.49624507  0.30571794  1
  Zr  Zr46  1  0.49722670  0.28928342  0.89405049  1
  Zr  Zr47  1  0.50039891  0.49406126  0.49572192  1
  Zr  Zr48  1  0.89833907  0.69311169  0.29065464  1
  Zr  Zr49  1  0.69331689  0.09913355  0.50359806  1
  Sc  Sc50  1  0.29341783  0.50180767  0.30249473  1
  Sc  Sc51  1  0.50396911  0.51575638  0.90426146  1
  Sc  Sc52  1  0.90126890  0.89587213  0.10283258  1
  Sc  Sc53  1  0.51016331  0.09738742  0.89815101  1
  Sc  Sc54  1  0.90435955  0.90059944  0.50907243  1
  Sc  Sc55  1  0.10119745  0.70236474  0.68852491  1
  Sc  Sc56  1  0.89479653  0.48835908  0.90803563  1
  Sc  Sc57  1  0.30961919  0.09636969  0.90465987  1
  Sc  Sc58  1  0.49241458  0.49575362  0.70634789  1
  Sc  Sc59  1  0.70555685  0.29295336  0.69847213  1
  Sc  Sc60  1  0.29280370  0.70177550  0.49248783  1
  Sc  Sc61  1  0.09818419  0.29341982  0.69269727  1
  Sc  Sc62  1  0.70406471  0.89434784  0.29547253  1
  Sc  Sc63  1  0.49695477  0.29625869  0.70163022  1
  Sc  Sc64  1  0.49748567  0.70148938  0.50133732  1
  Sc  Sc65  1  0.29808167  0.09879340  0.49874482  1
  Sc  Sc66  1  0.10292286  0.69530347  0.29932351  1
  Sc  Sc67  1  0.10658457  0.50602968  0.70207022  1
  Sc  Sc68  1  0.50669019  0.69306290  0.70212545  1
  Sc  Sc69  1  0.89340112  0.09085907  0.09588827  1
  Sc  Sc70  1  0.70505311  0.29383988  0.50062397  1
  Sc  Sc71  1  0.10594563  0.09350181  0.30008899  1
  Sc  Sc72  1  0.30041063  0.29257901  0.10989712  1
  Sc  Sc73  1  0.10380037  0.09818921  0.49977414  1
  Sc  Sc74  1  0.10205704  0.70624216  0.90990115  1
  Sc  Sc75  1  0.29725745  0.69517934  0.90263405  1
  Sc  Sc76  1  0.89380937  0.29623227  0.69083357  1
  Sc  Sc77  1  0.29477650  0.50884417  0.10001841  1
  Sc  Sc78  1  0.69784550  0.10175361  0.30332200  1
  Sc  Sc79  1  0.49011466  0.89114672  0.10209723  1
  Sc  Sc80  1  0.29826856  0.90067938  0.10570053  1
  Sc  Sc81  1  0.30327511  0.09887300  0.69194498  1
  Sc  Sc82  1  0.30685679  0.29804555  0.49666674  1
  Sc  Sc83  1  0.50038495  0.70207562  0.28531775  1
  Sc  Sc84  1  0.30318777  0.49945525  0.48998742  1
  Sc  Sc85  1  0.29974408  0.10009202  0.29863883  1
  Sc  Sc86  1  0.30390982  0.90096433  0.29747430  1
  Sc  Sc87  1  0.10626505  0.29486361  0.49660710  1
  Sc  Sc88  1  0.10436406  0.09987374  0.69006519  1
  Sc  Sc89  1  0.90542459  0.10419702  0.50146303  1
  Sc  Sc90  1  0.90398277  0.69245147  0.50146567  1
  Sc  Sc91  1  0.49306344  0.10452566  0.09768234  1
  Sc  Sc92  1  0.90124269  0.10632722  0.69212846  1
  Sc  Sc93  1  0.10422368  0.31523894  0.90617258  1
  Sc  Sc94  1  0.89618958  0.09870116  0.29369866  1
  Sc  Sc95  1  0.29162545  0.29658524  0.29855899  1
  Sc  Sc96  1  0.88953292  0.50034053  0.69055588  1
  Sc  Sc97  1  0.30846750  0.90024231  0.50448519  1
  Sc  Sc98  1  0.10022740  0.08961000  0.10505573  1
  Sc  Sc99  1  0.09795209  0.51463620  0.48812827  1
  Nb  Nb100  1  0.90093101  0.49610827  0.49830799  1
  Nb  Nb101  1  0.49969224  0.90329123  0.69181332  1
  Nb  Nb102  1  0.89394852  0.29458593  0.90161118  1
  Nb  Nb103  1  0.90587750  0.49744783  0.30264562  1
  Nb  Nb104  1  0.29964172  0.30302143  0.89640888  1
  Nb  Nb105  1  0.49951895  0.89609643  0.89276633  1
  Nb  Nb106  1  0.70089243  0.29908389  0.09192914  1
  Nb  Nb107  1  0.09349877  0.70555705  0.49458623  1
  Nb  Nb108  1  0.09403368  0.49243315  0.29814506  1
  Nb  Nb109  1  0.50243547  0.90811741  0.49525050  1
  Nb  Nb110  1  0.90011895  0.69566189  0.10172735  1
  Nb  Nb111  1  0.10044621  0.89547135  0.10055571  1
  Nb  Nb112  1  0.90279634  0.30044570  0.49967233  1
  Nb  Nb113  1  0.71164403  0.30703100  0.91078103  1
  Nb  Nb114  1  0.30495913  0.89823699  0.70115304  1
  Nb  Nb115  1  0.90040876  0.89838991  0.70612296  1
  Nb  Nb116  1  0.49708128  0.70726732  0.90379948  1
  Nb  Nb117  1  0.50154930  0.90261394  0.30263831  1
  Nb  Nb118  1  0.90084424  0.09934036  0.89934378  1
  Nb  Nb119  1  0.70368075  0.90263593  0.69769989  1
  Nb  Nb120  1  0.90491798  0.30527679  0.29538020  1
  Nb  Nb121  1  0.49658790  0.68914195  0.09239619  1
  Nb  Nb122  1  0.70330983  0.49941839  0.90180848  1
  Nb  Nb123  1  0.49709501  0.50235019  0.10092753  1
  Nb  Nb124  1  0.09701592  0.30478881  0.29361064  1
  Nb  Nb125  1  -0.00115765  0.21035502  0.38851154  1
  Nb  Nb126  1  0.81268928  0.39847183  0.39583720  1
  Nb  Nb127  1  0.20068036  0.40386701  0.59890151  1
  Nb  Nb128  1  0.79448523  0.60193799  0.00129894  1
  Nb  Nb129  1  -0.00752589  0.59719311  0.80332119  1
  Nb  Nb130  1  0.80279626  -0.00481131  0.79607393  1
  Nb  Nb131  1  0.40397795  -0.01072740  0.79560323  1
  Nb  Nb132  1  0.20124911  0.20376509  0.80813376  1
  Nb  Nb133  1  -0.00077732  0.20053208  -0.00379644  1
  Nb  Nb134  1  0.59644660  0.80742635  0.40157780  1
  Nb  Nb135  1  0.19750280  0.20093468  -0.00218755  1
  Nb  Nb136  1  0.00157447  0.40337249  0.59402723  1
  Nb  Nb137  1  0.79990589  0.60302470  0.80759766  1
  Nb  Nb138  1  0.40472832  0.40371316  0.19546366  1
  Nb  Nb139  1  0.39625474  0.59787636  0.60050007  1
  Nb  Nb140  1  0.00208688  0.79983486  0.39896558  1
  Nb  Nb141  1  0.60149773  0.40091359  0.60281281  1
  Nb  Nb142  1  0.00138105  0.20184117  0.80993051  1
  Nb  Nb143  1  -0.00461364  0.00045869  0.80025176  1
  Nb  Nb144  1  0.61066543  0.40035435  0.80515254  1
  Nb  Nb145  1  0.59394089  -0.00201497  0.20277610  1
  Nb  Nb146  1  0.79806430  -0.00181516  0.40462252  1
  Nb  Nb147  1  0.40524125  0.80259417  0.79954694  1
  Nb  Nb148  1  -0.00405442  0.39822365  0.79540676  1
  Nb  Nb149  1  0.40148883  0.40008275  0.00285048  1
  Pd  Pd150  1  0.79438388  0.79550616  0.00749576  1
  Pd  Pd151  1  0.79884211  -0.00216095  -0.00675588  1
  Pd  Pd152  1  0.18754386  0.61238974  0.80387520  1
  Pd  Pd153  1  -0.00144372  0.59428566  0.60692861  1
  Pd  Pd154  1  0.80561591  0.79836424  0.59257596  1
  Pd  Pd155  1  -0.00755674  0.00270316  0.39740375  1
  Pd  Pd156  1  -0.00655448  0.59714631  -0.00615023  1
  Pd  Pd157  1  0.59254607  0.80114886  0.59667441  1
  Pd  Pd158  1  0.80728331  0.59676580  0.40133026  1
  Pd  Pd159  1  0.80287103  0.19434794  0.79612730  1
  Pd  Pd160  1  0.40132380  0.60760456  0.40035050  1
  Pd  Pd161  1  0.40370389  -0.00668678  -0.00534847  1
  Pd  Pd162  1  0.20147423  0.80289688  0.59333120  1
  Pd  Pd163  1  0.00081540  0.18982737  0.19778391  1
  Pd  Pd164  1  0.39073051  0.00044783  0.40099038  1
  Pd  Pd165  1  0.60176489  0.20543094  0.40228164  1
  Pd  Pd166  1  0.01343116  0.79863220  0.80134343  1
  Pd  Pd167  1  0.00098318  -0.00143521  0.60833132  1
  Pd  Pd168  1  0.19573833  0.80623083  0.39770001  1
  Pd  Pd169  1  0.39991484  0.59381221  0.20585714  1
  Pd  Pd170  1  0.19498618  0.59623766  0.20492457  1
  Pd  Pd171  1  0.59311294  0.80230578  0.01146404  1
  Pd  Pd172  1  0.40476366  0.79255038  0.60316247  1
  Pd  Pd173  1  0.59004756  0.39695533  -0.01086642  1
  Pd  Pd174  1  0.21306877  0.39398981  0.01299399  1
  Pd  Pd175  1  0.80192775  0.40347716  0.79507399  1
  Pd  Pd176  1  0.59730328  0.40069110  0.20223845  1
  Pd  Pd177  1  0.19856244  0.39968196  0.40459463  1
  Pd  Pd178  1  0.59639356  0.80356631  0.78869422  1
  Pd  Pd179  1  0.80295380  0.80475129  0.40987916  1
  Pd  Pd180  1  0.39399652  0.80216559  -0.00386007  1
  Pd  Pd181  1  0.39311123  0.20548220  0.00058601  1
  Pd  Pd182  1  0.19453210  0.19718444  0.39414662  1
  Pd  Pd183  1  0.59655562  0.19247780  0.20198243  1
  Pd  Pd184  1  -0.00678759  0.39445126  0.00197517  1
  Pd  Pd185  1  0.80874620  0.19815928  0.39987726  1
  Pd  Pd186  1  0.59106240  0.61227946  0.39709231  1
  Pd  Pd187  1  0.78960399  0.80164673  0.80373547  1
  Pd  Pd188  1  0.00459098  0.39608882  0.40731272  1
  Pd  Pd189  1  0.39221684  0.59504974  -0.00545557  1
  Pd  Pd190  1  0.40691700  0.79836675  0.39671803  1
  Pd  Pd191  1  -0.00354484  0.00062738  0.19702529  1
  Pd  Pd192  1  0.60321753  0.59575221  0.79942584  1
  Pd  Pd193  1  0.79999332  0.19378962  0.19541056  1
  Pd  Pd194  1  0.20544060  0.59636056  0.58740232  1
  Pd  Pd195  1  0.21219939  0.20976000  0.60637426  1
  Pd  Pd196  1  0.80583680  0.00497345  0.60048146  1
  Pd  Pd197  1  0.20453112  0.00979101  0.79317759  1
  Pd  Pd198  1  0.20681118  0.00444583  0.01008532  1
  Pd  Pd199  1  0.58650590  -0.00268177  0.01110681  1
  Rh  Rh200  1  0.00043455  0.40528167  0.19645977  1
  Rh  Rh201  1  0.20261503  0.60244210  -0.00087098  1
  Rh  Rh202  1  0.40443482  0.20787928  0.20668462  1
  Rh  Rh203  1  0.20158571  0.79502661  0.79851272  1
  Rh  Rh204  1  0.40312310  0.00347273  0.60263213  1
  Rh  Rh205  1  0.61906640  0.39245856  0.40658954  1
  Rh  Rh206  1  0.80379286  0.40558496  0.01160874  1
  Rh  Rh207  1  0.19274845  0.19431646  0.19803192  1
  Rh  Rh208  1  0.19973749  0.80113476  0.19813483  1
  Rh  Rh209  1  0.20557699  0.40497347  0.20106937  1
  Rh  Rh210  1  0.80957446  0.60916206  0.60311426  1
  Rh  Rh211  1  0.40652481  -0.00056790  0.20269688  1
  Rh  Rh212  1  -0.00165366  -0.00213778  0.00158557  1
  Rh  Rh213  1  0.59514827  0.59634813  0.19955898  1
  Rh  Rh214  1  0.60208524  0.60248788  0.00353559  1
  Rh  Rh215  1  0.80439001  0.79534091  0.19247431  1
  Rh  Rh216  1  0.60045177  -0.00629611  0.79052944  1
  Rh  Rh217  1  -0.00145290  0.60546333  0.39207393  1
  Rh  Rh218  1  0.41666437  0.40704201  0.81712768  1
  Rh  Rh219  1  0.61404400  0.21366874  0.80637324  1
  Rh  Rh220  1  0.39541759  0.19701274  0.39906740  1
  Rh  Rh221  1  0.18713473  0.38887795  0.78534501  1
  Rh  Rh222  1  0.59599843  0.20918638  0.59895449  1
  Rh  Rh223  1  0.39812166  0.19862822  0.59920053  1
  Rh  Rh224  1  0.00039670  0.80187586  0.01161689  1
  Rh  Rh225  1  0.40200022  0.79820173  0.20028969  1
  Rh  Rh226  1  0.00253858  0.20621549  0.59064187  1
  Rh  Rh227  1  0.61126738  -0.00922882  0.39019400  1
  Rh  Rh228  1  0.40158790  0.61134995  0.79910881  1
  Rh  Rh229  1  0.00748959  0.59679358  0.20556056  1
  Rh  Rh230  1  0.19544042  0.60145498  0.39519984  1
  Rh  Rh231  1  0.79967561  0.19454620  0.59576157  1
  Rh  Rh232  1  0.20314145  0.79763868  0.01031006  1
  Rh  Rh233  1  0.79609694  0.40488679  0.20205456  1
  Rh  Rh234  1  -0.00040501  0.79674861  0.20133354  1
  Rh  Rh235  1  0.78904840  0.00417198  0.20779108  1
  Rh  Rh236  1  0.39906896  0.40791956  0.59544523  1
  Rh  Rh237  1  0.79319988  0.59634534  0.19540109  1
  Rh  Rh238  1  0.38950169  0.39517465  0.38744169  1
  Rh  Rh239  1  0.00378665  0.80518446  0.59362945  1
  Rh  Rh240  1  0.79887362  0.39471873  0.58885562  1
  Rh  Rh241  1  0.20645215  -0.00248231  0.40002366  1
  Rh  Rh242  1  0.20684974  -0.00477606  0.59759739  1
  Rh  Rh243  1  0.59308522  0.00193751  0.60590838  1
  Rh  Rh244  1  0.58606132  0.58847522  0.59937515  1
  Rh  Rh245  1  0.20300261  -0.00381340  0.20056052  1
  Rh  Rh246  1  0.60485019  0.20382499  -0.00473391  1
  Rh  Rh247  1  0.80401468  0.19824251  0.00655940  1
  Rh  Rh248  1  0.59221162  0.80691397  0.20115488  1
  Rh  Rh249  1  0.38989314  0.18573835  0.80064527  1
