# generated using pymatgen
data_ZrScNbPdRh
_symmetry_space_group_name_H-M   'P 1'
_cell_length_a   16.55816752
_cell_length_b   16.55708860
_cell_length_c   16.56310832
_cell_angle_alpha   90.00310591
_cell_angle_beta   90.02113757
_cell_angle_gamma   89.96730031
_symmetry_Int_Tables_number   1
_chemical_formula_structural   ZrScNbPdRh
_chemical_formula_sum   'Zr50 Sc50 Nb50 Pd50 Rh50'
_cell_volume   4540.85868047
_cell_formula_units_Z   50
loop_
 _symmetry_equiv_pos_site_id
 _symmetry_equiv_pos_as_xyz
  1  'x, y, z'
loop_
 _atom_site_type_symbol
 _atom_site_label
 _atom_site_symmetry_multiplicity
 _atom_site_fract_x
 _atom_site_fract_y
 _atom_site_fract_z
 _atom_site_occupancy
  Zr  Zr0  1  0.10037795  0.09435291  0.49868778  1
  Zr  Zr1  1  0.71034764  0.89771018  0.09763246  1
  Zr  Zr2  1  0.09768181  0.90325881  0.70025128  1
  Zr  Zr3  1  0.69717957  0.50996268  0.49635853  1
  Zr  Zr4  1  0.90709362  0.49732929  0.70714762  1
  Zr  Zr5  1  0.50521686  0.10289463  0.69952089  1
  Zr  Zr6  1  0.90307839  0.30059829  0.10379204  1
  Zr  Zr7  1  0.89671523  0.09182015  0.69990506  1
  Zr  Zr8  1  0.90065302  0.90349867  0.69704654  1
  Zr  Zr9  1  0.89588710  0.90029871  0.29341374  1
  Zr  Zr10  1  0.89849905  0.10033648  0.09430265  1
  Zr  Zr11  1  0.10986981  0.50080012  0.50498773  1
  Zr  Zr12  1  0.70306150  0.50399306  0.69974415  1
  Zr  Zr13  1  0.30718425  0.69113852  0.50704220  1
  Zr  Zr14  1  0.30404765  0.89211231  0.50128699  1
  Zr  Zr15  1  0.09878967  0.70155778  0.29342154  1
  Zr  Zr16  1  0.70336893  0.69957558  0.10910412  1
  Zr  Zr17  1  0.10041610  0.10126978  0.10219645  1
  Zr  Zr18  1  0.29490801  0.09436263  0.10059992  1
  Zr  Zr19  1  0.89863550  0.30415910  0.30348120  1
  Zr  Zr20  1  0.70822621  0.70117334  0.30772444  1
  Zr  Zr21  1  0.49328154  0.30346831  0.89944680  1
  Zr  Zr22  1  0.89284730  0.70098675  0.49073165  1
  Zr  Zr23  1  0.50242785  0.30088143  0.70693499  1
  Zr  Zr24  1  0.10264381  0.08767720  0.89568897  1
  Zr  Zr25  1  0.49921906  0.89412065  0.31104628  1
  Zr  Zr26  1  0.70052240  0.30905340  0.09849109  1
  Zr  Zr27  1  0.28774580  0.51461028  0.69091319  1
  Zr  Zr28  1  0.50250745  0.88714712  0.10061525  1
  Zr  Zr29  1  0.29356494  0.29567277  0.08878243  1
  Zr  Zr30  1  0.49800732  0.09313045  0.10289883  1
  Zr  Zr31  1  0.69483261  0.10563847  0.50681361  1
  Zr  Zr32  1  0.90473875  0.29533927  0.69230910  1
  Zr  Zr33  1  0.29904426  0.69718026  0.89932263  1
  Zr  Zr34  1  0.10152658  0.30078305  0.09750198  1
  Zr  Zr35  1  0.10297267  0.70673380  0.49399342  1
  Zr  Zr36  1  0.49771827  0.69799887  0.29680545  1
  Zr  Zr37  1  0.89378974  0.50282664  0.09384053  1
  Zr  Zr38  1  0.70310062  0.49331806  0.90700175  1
  Zr  Zr39  1  0.49564546  0.49901254  0.30128156  1
  Zr  Zr40  1  0.49750663  0.70385594  0.90509557  1
  Zr  Zr41  1  0.29186363  0.10062702  0.90290867  1
  Zr  Zr42  1  0.51181789  0.89744968  0.89766756  1
  Zr  Zr43  1  0.70182938  0.29945689  0.49417848  1
  Zr  Zr44  1  0.49528182  0.49760819  0.89988605  1
  Zr  Zr45  1  0.09160615  0.89801297  0.30244125  1
  Zr  Zr46  1  0.90058232  0.70254488  0.29496069  1
  Zr  Zr47  1  0.49686610  0.10229439  0.50204991  1
  Zr  Zr48  1  0.89353853  0.69557077  0.71041310  1
  Zr  Zr49  1  0.49864008  0.10060307  0.30446087  1
  Sc  Sc50  1  0.70053024  0.10211040  0.30918538  1
  Sc  Sc51  1  0.90400374  0.08805643  0.30003759  1
  Sc  Sc52  1  0.89663775  0.88718475  0.89177114  1
  Sc  Sc53  1  0.49798555  0.90478467  0.70030482  1
  Sc  Sc54  1  0.10680502  0.29795685  0.28383599  1
  Sc  Sc55  1  0.69506612  0.09814673  0.69983639  1
  Sc  Sc56  1  0.69978152  0.09397900  0.90174676  1
  Sc  Sc57  1  0.49598837  0.51737977  0.49359766  1
  Sc  Sc58  1  0.30977197  0.70512265  0.10128496  1
  Sc  Sc59  1  0.70804130  0.09363692  0.09469775  1
  Sc  Sc60  1  0.68733906  0.90072729  0.49437473  1
  Sc  Sc61  1  0.29923698  0.49341477  0.89943969  1
  Sc  Sc62  1  0.69093090  0.30022680  0.90083579  1
  Sc  Sc63  1  0.49804315  0.50014408  0.70011723  1
  Sc  Sc64  1  0.09318999  0.70495098  0.10030647  1
  Sc  Sc65  1  0.50644316  0.30564421  0.30000012  1
  Sc  Sc66  1  0.10547081  0.09209112  0.29543719  1
  Sc  Sc67  1  0.30282532  0.50363272  0.09830207  1
  Sc  Sc68  1  0.49686912  0.50104294  0.10737771  1
  Sc  Sc69  1  0.10150568  0.89635126  0.49831716  1
  Sc  Sc70  1  0.10076912  0.89241118  0.10052188  1
  Sc  Sc71  1  0.11177597  0.50767819  0.29537841  1
  Sc  Sc72  1  0.69127133  0.29125887  0.70338289  1
  Sc  Sc73  1  0.09559947  0.09704873  0.69999959  1
  Sc  Sc74  1  0.89608763  0.29723468  0.50484948  1
  Sc  Sc75  1  0.29971949  0.89902660  0.10358754  1
  Sc  Sc76  1  0.30882108  0.30663141  0.29849094  1
  Sc  Sc77  1  0.69851422  0.50077622  0.29787212  1
  Sc  Sc78  1  0.89648910  0.29544561  0.91585910  1
  Sc  Sc79  1  0.49941194  0.09439625  0.89945992  1
  Sc  Sc80  1  0.29945082  0.70139700  0.29951117  1
  Sc  Sc81  1  0.10504485  0.69759960  0.69828674  1
  Sc  Sc82  1  0.09853645  0.29860840  0.51933162  1
  Sc  Sc83  1  0.30104374  0.89818724  0.29915666  1
  Sc  Sc84  1  0.69645414  0.91119899  0.70358712  1
  Sc  Sc85  1  0.29616459  0.90908780  0.90050321  1
  Sc  Sc86  1  0.09705582  0.50600658  0.88161626  1
  Sc  Sc87  1  0.91077806  0.90480636  0.49489771  1
  Sc  Sc88  1  0.09643490  0.31065230  0.70227725  1
  Sc  Sc89  1  0.89403376  0.50311918  0.29612475  1
  Sc  Sc90  1  0.30661517  0.50874946  0.30292196  1
  Sc  Sc91  1  0.69458539  0.30187267  0.30270848  1
  Sc  Sc92  1  0.69712899  0.69359071  0.69460000  1
  Sc  Sc93  1  0.89909820  0.10249666  0.50790472  1
  Sc  Sc94  1  0.90599446  0.69789322  0.09700595  1
  Sc  Sc95  1  0.88934767  0.48854622  0.50216253  1
  Sc  Sc96  1  0.50055373  0.70360994  0.69061928  1
  Sc  Sc97  1  0.28952740  0.29884959  0.69761807  1
  Sc  Sc98  1  0.71224947  0.70868192  0.89499641  1
  Sc  Sc99  1  0.09828779  0.50606935  0.10538618  1
  Nb  Nb100  1  0.49541672  0.30178848  0.50091140  1
  Nb  Nb101  1  0.30112173  0.29934826  0.50163586  1
  Nb  Nb102  1  0.30044218  0.10353952  0.30100005  1
  Nb  Nb103  1  0.51301576  0.70754736  0.49489723  1
  Nb  Nb104  1  0.30157667  0.49993048  0.49726959  1
  Nb  Nb105  1  0.50109764  0.29452253  0.10619231  1
  Nb  Nb106  1  0.69249909  0.69792367  0.50229655  1
  Nb  Nb107  1  0.70097741  0.90354505  0.89985325  1
  Nb  Nb108  1  0.89694830  0.09897918  0.90381714  1
  Nb  Nb109  1  0.09631995  0.50266233  0.69383142  1
  Nb  Nb110  1  0.11164716  0.29789468  0.90102824  1
  Nb  Nb111  1  0.29820140  0.70567747  0.70034248  1
  Nb  Nb112  1  0.30418823  0.09213619  0.70090593  1
  Nb  Nb113  1  0.09432297  0.70554313  0.90570801  1
  Nb  Nb114  1  0.29271381  0.29693520  0.90067349  1
  Nb  Nb115  1  0.49979174  0.89278492  0.49669543  1
  Nb  Nb116  1  0.90285449  0.50714831  0.89866049  1
  Nb  Nb117  1  0.09756755  0.89700229  0.89908551  1
  Nb  Nb118  1  0.91409663  0.68723289  0.90141518  1
  Nb  Nb119  1  0.70414432  0.90152299  0.29265149  1
  Nb  Nb120  1  0.89986244  0.90723841  0.10167810  1
  Nb  Nb121  1  0.30280956  0.10762498  0.50299872  1
  Nb  Nb122  1  0.49847195  0.69645178  0.09742954  1
  Nb  Nb123  1  0.70066754  0.50159616  0.09779126  1
  Nb  Nb124  1  0.29961783  0.89722201  0.70000680  1
  Nb  Nb125  1  0.80577877  0.19903353  0.80421764  1
  Nb  Nb126  1  0.39805431  0.60450543  0.79703580  1
  Nb  Nb127  1  0.19925912  0.80161153  0.80116496  1
  Nb  Nb128  1  0.20304815  0.39427700  0.40667289  1
  Nb  Nb129  1  0.00298874  0.40323150  -0.00509816  1
  Nb  Nb130  1  0.60289006  -0.00725007  0.20428088  1
  Nb  Nb131  1  0.21288206  0.00158325  0.60096912  1
  Nb  Nb132  1  0.39968145  0.19736351  0.19636966  1
  Nb  Nb133  1  0.20495396  0.20181884  0.40369653  1
  Nb  Nb134  1  0.60075585  0.60206196  0.00299045  1
  Nb  Nb135  1  0.80236057  0.20113962  0.19829906  1
  Nb  Nb136  1  0.79685156  0.79905479  0.59554628  1
  Nb  Nb137  1  0.00071181  0.59528575  0.40361432  1
  Nb  Nb138  1  0.59224425  0.20222078  0.00783184  1
  Nb  Nb139  1  0.59320752  0.40009402  0.59337263  1
  Nb  Nb140  1  -0.00270950  -0.00606236  -0.00433147  1
  Nb  Nb141  1  0.00959662  0.39904562  0.39924731  1
  Nb  Nb142  1  -0.00326686  0.19878973  0.80828467  1
  Nb  Nb143  1  0.59630768  0.59988713  0.80909585  1
  Nb  Nb144  1  0.38941562  0.19990019  0.80310837  1
  Nb  Nb145  1  -0.00121729  0.59869285  0.59703544  1
  Nb  Nb146  1  0.00901735  0.20449761  0.39988679  1
  Nb  Nb147  1  0.19530096  0.60634672  -0.00613241  1
  Nb  Nb148  1  0.39692433  0.40093799  0.59244943  1
  Nb  Nb149  1  0.80672555  0.39643586  0.80337682  1
  Pd  Pd150  1  0.40136210  -0.00888081  -0.00232626  1
  Pd  Pd151  1  0.19690090  0.19317145  0.60396082  1
  Pd  Pd152  1  0.60661177  0.79481305  0.79097985  1
  Pd  Pd153  1  0.39669501  0.79955029  0.80043325  1
  Pd  Pd154  1  0.61051249  0.79205344  -0.00056732  1
  Pd  Pd155  1  0.20749680  0.60906519  0.18803510  1
  Pd  Pd156  1  0.39919794  0.20674485  0.61160013  1
  Pd  Pd157  1  -0.00827556  0.79198688  0.60208420  1
  Pd  Pd158  1  0.81010573  0.79519807  0.00033528  1
  Pd  Pd159  1  0.78816109  0.39112285  0.60913894  1
  Pd  Pd160  1  0.19734418  -0.00912722  0.20078451  1
  Pd  Pd161  1  0.60138026  0.00124608  0.39810048  1
  Pd  Pd162  1  -0.00482324  0.38688814  0.81210378  1
  Pd  Pd163  1  0.58908988  0.40197753  0.00964395  1
  Pd  Pd164  1  0.40014523  0.39981283  0.00799307  1
  Pd  Pd165  1  0.20962588  0.00257955  0.40500091  1
  Pd  Pd166  1  0.59692459  0.40498221  0.40597990  1
  Pd  Pd167  1  0.40022989  0.20736918  0.39262193  1
  Pd  Pd168  1  0.79405718  -0.01050963  0.58972193  1
  Pd  Pd169  1  0.40130720  0.00211075  0.80352675  1
  Pd  Pd170  1  0.79978305  -0.00043753  0.40701749  1
  Pd  Pd171  1  0.39586429  0.39547354  0.19337874  1
  Pd  Pd172  1  -0.00526375  0.19353860  0.21102476  1
  Pd  Pd173  1  0.40389681  -0.00300163  0.20569236  1
  Pd  Pd174  1  0.79111536  0.80542656  0.78819044  1
  Pd  Pd175  1  0.80718887  0.60476746  0.59662111  1
  Pd  Pd176  1  0.00529591  0.79411257  0.79502198  1
  Pd  Pd177  1  0.00236192  0.41022441  0.20221202  1
  Pd  Pd178  1  0.79400923  0.39852270  0.20564562  1
  Pd  Pd179  1  0.40602944  0.79857969  0.59876123  1
  Pd  Pd180  1  0.39332791  0.80896495  -0.00349258  1
  Pd  Pd181  1  0.01063643  0.19879894  -0.00736869  1
  Pd  Pd182  1  0.60127716  0.59601730  0.19957568  1
  Pd  Pd183  1  0.21058573  0.40396001  0.20420531  1
  Pd  Pd184  1  0.60688459  0.80886454  0.60738957  1
  Pd  Pd185  1  0.40365502  0.19731955  -0.00139377  1
  Pd  Pd186  1  0.39305637  -0.00092690  0.40422321  1
  Pd  Pd187  1  0.40245252  -0.00460378  0.59628776  1
  Pd  Pd188  1  0.18914858  0.41556319  -0.00395693  1
  Pd  Pd189  1  0.20603214  0.79840764  0.39514798  1
  Pd  Pd190  1  0.38397911  0.40117725  0.78788716  1
  Pd  Pd191  1  0.79472503  0.81207676  0.40826346  1
  Pd  Pd192  1  0.60188219  0.80125978  0.20612244  1
  Pd  Pd193  1  0.20406259  0.79795924  -0.00214081  1
  Pd  Pd194  1  0.19521057  0.19734572  0.79134898  1
  Pd  Pd195  1  0.81093895  0.19388094  0.39476828  1
  Pd  Pd196  1  0.60180090  0.00122552  0.00584316  1
  Pd  Pd197  1  0.60522596  0.19022251  0.19739536  1
  Pd  Pd198  1  0.20223977  0.40482220  0.79555448  1
  Pd  Pd199  1  0.79524396  0.60947800  -0.00414456  1
  Rh  Rh200  1  0.39876883  0.59656846  -0.00282137  1
  Rh  Rh201  1  0.00027676  0.41022409  0.59149113  1
  Rh  Rh202  1  -0.00993821  0.00151866  0.80819299  1
  Rh  Rh203  1  0.78326799  0.20375329  0.00052243  1
  Rh  Rh204  1  0.80756170  0.79846792  0.19419280  1
  Rh  Rh205  1  0.80091844  0.40205700  0.39630189  1
  Rh  Rh206  1  0.59973861  0.40693814  0.19856943  1
  Rh  Rh207  1  0.40108483  0.60886014  0.39985040  1
  Rh  Rh208  1  0.80102835  0.59896386  0.19826492  1
  Rh  Rh209  1  0.40569160  0.59934423  0.60436964  1
  Rh  Rh210  1  0.80858600  -0.01266570  -0.01093964  1
  Rh  Rh211  1  0.59967415  0.60500476  0.39161022  1
  Rh  Rh212  1  0.00056262  0.00522576  0.40065515  1
  Rh  Rh213  1  0.59335208  0.59450381  0.60419140  1
  Rh  Rh214  1  -0.00366747  0.59826752  0.20544802  1
  Rh  Rh215  1  0.61145449  0.40846404  0.79061048  1
  Rh  Rh216  1  0.80806853  0.40080461  -0.00411859  1
  Rh  Rh217  1  -0.00863258  0.80690701  0.00063832  1
  Rh  Rh218  1  0.00829149  -0.00031885  0.59558926  1
  Rh  Rh219  1  0.79325320  0.59266040  0.80963229  1
  Rh  Rh220  1  -0.00153880  0.79634331  0.39503747  1
  Rh  Rh221  1  0.59379913  0.20335613  0.40451971  1
  Rh  Rh222  1  0.20677803  0.40115100  0.60030759  1
  Rh  Rh223  1  0.01007060  0.59105182  -0.00139748  1
  Rh  Rh224  1  0.39714530  0.40168393  0.40612663  1
  Rh  Rh225  1  0.20268284  -0.00830606  0.79122417  1
  Rh  Rh226  1  0.00835600  0.60766896  0.79227513  1
  Rh  Rh227  1  0.19896048  0.59891089  0.40139782  1
  Rh  Rh228  1  0.79256747  0.20001574  0.60968481  1
  Rh  Rh229  1  0.79294611  0.00911742  0.20453169  1
  Rh  Rh230  1  0.21290905  0.20170858  0.20558114  1
  Rh  Rh231  1  0.39871115  0.79234903  0.40331805  1
  Rh  Rh232  1  0.00187719  0.19398869  0.60276225  1
  Rh  Rh233  1  0.19397254  0.61025855  0.59517056  1
  Rh  Rh234  1  0.40127508  0.79959387  0.20134952  1
  Rh  Rh235  1  0.39892887  0.60353869  0.19999981  1
  Rh  Rh236  1  0.20112365  0.80567357  0.60695055  1
  Rh  Rh237  1  0.19014050  -0.00513928  0.00782819  1
  Rh  Rh238  1  0.00464698  -0.00389647  0.19088624  1
  Rh  Rh239  1  0.59791158  0.19220786  0.81545730  1
  Rh  Rh240  1  0.79930065  0.00299197  0.80620502  1
  Rh  Rh241  1  0.60121284  0.00151723  0.80202078  1
  Rh  Rh242  1  0.59857460  0.20782264  0.59412175  1
  Rh  Rh243  1  -0.00437020  0.80417430  0.19512524  1
  Rh  Rh244  1  0.19380239  0.19419819  -0.00080463  1
  Rh  Rh245  1  0.59073802  -0.00300665  0.59456943  1
  Rh  Rh246  1  0.19938441  0.60826919  0.80451575  1
  Rh  Rh247  1  0.80255701  0.59542762  0.39925639  1
  Rh  Rh248  1  0.20104803  0.79980868  0.20211601  1
  Rh  Rh249  1  0.60609812  0.79717451  0.39406582  1
