# generated using pymatgen
data_ZrScNbPdRh
_symmetry_space_group_name_H-M   'P 1'
_cell_length_a   16.55635149
_cell_length_b   16.55358531
_cell_length_c   16.55198483
_cell_angle_alpha   90.01453232
_cell_angle_beta   89.99854463
_cell_angle_gamma   89.98263944
_symmetry_Int_Tables_number   1
_chemical_formula_structural   ZrScNbPdRh
_chemical_formula_sum   'Zr50 Sc50 Nb50 Pd50 Rh50'
_cell_volume   4536.35208703
_cell_formula_units_Z   50
loop_
 _symmetry_equiv_pos_site_id
 _symmetry_equiv_pos_as_xyz
  1  'x, y, z'
loop_
 _atom_site_type_symbol
 _atom_site_label
 _atom_site_symmetry_multiplicity
 _atom_site_fract_x
 _atom_site_fract_y
 _atom_site_fract_z
 _atom_site_occupancy
  Zr  Zr0  1  0.10101624  0.30217802  0.69837643  1
  Zr  Zr1  1  0.90129049  0.29548632  0.10568020  1
  Zr  Zr2  1  0.30759174  0.09168216  0.89778125  1
  Zr  Zr3  1  0.09840333  0.49807912  0.29795909  1
  Zr  Zr4  1  0.09475021  0.10346820  0.89220358  1
  Zr  Zr5  1  0.29931880  0.30033100  0.09480823  1
  Zr  Zr6  1  0.29812526  0.30259001  0.69613266  1
  Zr  Zr7  1  0.49083106  0.50261195  0.49417277  1
  Zr  Zr8  1  0.49839704  0.50252609  0.69559878  1
  Zr  Zr9  1  0.29390748  0.29302141  0.29623420  1
  Zr  Zr10  1  0.30122166  0.89965193  0.69477037  1
  Zr  Zr11  1  0.10569199  0.69789532  0.29603655  1
  Zr  Zr12  1  0.89853793  0.50683131  0.69414396  1
  Zr  Zr13  1  0.50717339  0.30032089  0.50073269  1
  Zr  Zr14  1  0.69721060  0.90924229  0.70064976  1
  Zr  Zr15  1  0.50251905  0.29287009  0.09615020  1
  Zr  Zr16  1  0.09181669  0.29682144  0.89199501  1
  Zr  Zr17  1  0.69687257  0.09422362  0.70480264  1
  Zr  Zr18  1  0.29577837  0.69932185  0.10645528  1
  Zr  Zr19  1  0.89968654  0.69868133  0.51019096  1
  Zr  Zr20  1  0.69730252  0.89586108  0.50835113  1
  Zr  Zr21  1  0.70269651  0.70451270  0.10688991  1
  Zr  Zr22  1  0.69665620  0.49921569  0.10296074  1
  Zr  Zr23  1  0.70368810  0.70749554  0.69051578  1
  Zr  Zr24  1  0.29389676  0.69963015  0.50183530  1
  Zr  Zr25  1  0.49112763  0.89924783  0.50235168  1
  Zr  Zr26  1  0.49815806  0.70488670  0.49941324  1
  Zr  Zr27  1  0.10386604  0.29874824  0.30409315  1
  Zr  Zr28  1  0.89364983  0.89816257  0.69657777  1
  Zr  Zr29  1  0.69137178  0.08576775  0.89899444  1
  Zr  Zr30  1  0.30416614  0.89952148  0.10003944  1
  Zr  Zr31  1  0.29893176  0.70193887  0.90006780  1
  Zr  Zr32  1  0.30049610  0.50196969  0.90989922  1
  Zr  Zr33  1  0.90395147  0.10079949  0.10975976  1
  Zr  Zr34  1  0.69633559  0.30242020  0.30627623  1
  Zr  Zr35  1  0.09730032  0.69591447  0.89296383  1
  Zr  Zr36  1  0.29276774  0.89898693  0.89013587  1
  Zr  Zr37  1  0.91226919  0.70658209  0.90524717  1
  Zr  Zr38  1  0.69516288  0.50224793  0.89847608  1
  Zr  Zr39  1  0.69474054  0.89351860  0.08822804  1
  Zr  Zr40  1  0.69946001  0.10435968  0.09993564  1
  Zr  Zr41  1  0.50175922  0.50181383  0.29825162  1
  Zr  Zr42  1  0.29854117  0.50314884  0.49649710  1
  Zr  Zr43  1  0.29834469  0.69545693  0.29322860  1
  Zr  Zr44  1  0.89786409  0.89144191  0.09534658  1
  Zr  Zr45  1  0.11241198  0.90344246  0.49865287  1
  Zr  Zr46  1  0.29980644  0.50490081  0.30212819  1
  Zr  Zr47  1  0.48922709  0.09758461  0.30340861  1
  Zr  Zr48  1  0.09307603  0.89151400  0.89557657  1
  Zr  Zr49  1  0.09643144  0.49672492  0.09584021  1
  Sc  Sc50  1  0.90235704  0.69456105  0.10294500  1
  Sc  Sc51  1  0.28940296  0.50203044  0.68701165  1
  Sc  Sc52  1  0.10450803  0.29361290  0.49738448  1
  Sc  Sc53  1  0.09979604  0.29703964  0.11257714  1
  Sc  Sc54  1  0.69881203  0.69477003  0.29604319  1
  Sc  Sc55  1  0.10181950  0.10477961  0.30204896  1
  Sc  Sc56  1  0.90984234  0.30298720  0.49839121  1
  Sc  Sc57  1  0.29889659  0.09266908  0.50083109  1
  Sc  Sc58  1  0.90046732  0.49915448  0.10959019  1
  Sc  Sc59  1  0.69212040  0.09778575  0.50520247  1
  Sc  Sc60  1  0.08980824  0.69668544  0.10221237  1
  Sc  Sc61  1  0.50443387  0.70165258  0.10109536  1
  Sc  Sc62  1  0.71210331  0.09678042  0.29961387  1
  Sc  Sc63  1  0.69908079  0.30948541  0.69634369  1
  Sc  Sc64  1  0.11161922  0.50577279  0.49737010  1
  Sc  Sc65  1  0.29733867  0.09766225  0.30513468  1
  Sc  Sc66  1  0.49197871  0.10758687  0.50621550  1
  Sc  Sc67  1  0.70134673  0.30690570  0.90451400  1
  Sc  Sc68  1  0.70572657  0.50368938  0.30062583  1
  Sc  Sc69  1  0.49724423  0.28521853  0.90313135  1
  Sc  Sc70  1  0.90328272  0.10339249  0.29838741  1
  Sc  Sc71  1  0.30824788  0.10217252  0.10569915  1
  Sc  Sc72  1  0.29836358  0.30128469  0.50148955  1
  Sc  Sc73  1  0.90083345  0.49061339  0.89077054  1
  Sc  Sc74  1  0.49662048  0.90493774  0.90583883  1
  Sc  Sc75  1  0.91626240  0.10010922  0.49916904  1
  Sc  Sc76  1  0.49572748  0.09812143  0.08391281  1
  Sc  Sc77  1  0.30354542  0.09858036  0.69863691  1
  Sc  Sc78  1  0.90163899  0.68724751  0.30132402  1
  Sc  Sc79  1  0.29273436  0.30559401  0.90319858  1
  Sc  Sc80  1  0.70737738  0.49698441  0.69700421  1
  Sc  Sc81  1  0.70244687  0.30388050  0.10178542  1
  Sc  Sc82  1  0.50334069  0.69498043  0.29870702  1
  Sc  Sc83  1  0.90825213  0.30181618  0.30040607  1
  Sc  Sc84  1  0.91108327  0.90266985  0.50022440  1
  Sc  Sc85  1  0.90327392  0.91036584  0.29766903  1
  Sc  Sc86  1  0.30155751  0.50284467  0.09847198  1
  Sc  Sc87  1  0.10848861  0.89684171  0.70255265  1
  Sc  Sc88  1  0.30234702  0.90274452  0.30280888  1
  Sc  Sc89  1  0.70293098  0.89472391  0.29427319  1
  Sc  Sc90  1  0.49388956  0.89410829  0.30025696  1
  Sc  Sc91  1  0.70175071  0.69693327  0.49498677  1
  Sc  Sc92  1  0.10152821  0.50129633  0.89722597  1
  Sc  Sc93  1  0.71224175  0.49523122  0.50260997  1
  Sc  Sc94  1  0.10209965  0.10543280  0.69411005  1
  Sc  Sc95  1  0.90412015  0.09750654  0.69243222  1
  Sc  Sc96  1  0.09988422  0.89499839  0.30167012  1
  Sc  Sc97  1  0.68993909  0.70483081  0.91108063  1
  Sc  Sc98  1  0.90275009  0.31051226  0.70596902  1
  Sc  Sc99  1  0.49685944  0.89910729  0.10102691  1
  Nb  Nb100  1  0.29986867  0.90492544  0.50374175  1
  Nb  Nb101  1  0.09515844  0.09885220  0.10002729  1
  Nb  Nb102  1  0.49975767  0.50912859  0.89966858  1
  Nb  Nb103  1  0.90288582  0.70010336  0.70288279  1
  Nb  Nb104  1  0.89857957  0.50403974  0.49662844  1
  Nb  Nb105  1  0.50162172  0.69614522  0.89291797  1
  Nb  Nb106  1  0.50005506  0.49777380  0.09942733  1
  Nb  Nb107  1  0.50135596  0.29927135  0.30389576  1
  Nb  Nb108  1  0.29895222  0.70340690  0.70388297  1
  Nb  Nb109  1  0.70281282  0.29652881  0.50315708  1
  Nb  Nb110  1  0.50324733  0.10006874  0.89551965  1
  Nb  Nb111  1  0.70201442  0.90016650  0.89807797  1
  Nb  Nb112  1  0.50254118  0.89211433  0.69300970  1
  Nb  Nb113  1  0.90281705  0.50198995  0.31000459  1
  Nb  Nb114  1  0.09547890  0.50187983  0.69947698  1
  Nb  Nb115  1  0.09232989  0.69164673  0.70291545  1
  Nb  Nb116  1  0.09607311  0.90043682  0.10278840  1
  Nb  Nb117  1  0.90255050  0.10196205  0.89960454  1
  Nb  Nb118  1  0.49642274  0.29844715  0.70088469  1
  Nb  Nb119  1  0.10359768  0.10077841  0.49737930  1
  Nb  Nb120  1  0.10118051  0.70720675  0.50032933  1
  Nb  Nb121  1  0.49801678  0.70546232  0.69877501  1
  Nb  Nb122  1  0.89448029  0.90162332  0.90143888  1
  Nb  Nb123  1  0.90382866  0.29372032  0.89672887  1
  Nb  Nb124  1  0.50226482  0.11153742  0.71798829  1
  Nb  Nb125  1  0.19272698  0.19105916  0.00167746  1
  Nb  Nb126  1  0.59680653  -0.00193672  0.39724936  1
  Nb  Nb127  1  0.59749973  0.00475060  0.20215063  1
  Nb  Nb128  1  0.40217992  0.60192089  0.79891594  1
  Nb  Nb129  1  0.79953625  0.59796281  -0.00367781  1
  Nb  Nb130  1  -0.00298363  0.38967292  -0.00168160  1
  Nb  Nb131  1  0.80730161  0.19689594  -0.00732421  1
  Nb  Nb132  1  0.19177328  -0.00060697  0.00262718  1
  Nb  Nb133  1  -0.00208812  0.00061077  -0.00154289  1
  Nb  Nb134  1  0.19480618  0.80373125  0.00349036  1
  Nb  Nb135  1  0.79813511  0.20300326  0.40904132  1
  Nb  Nb136  1  0.80459689  0.80023233  0.40293923  1
  Nb  Nb137  1  0.40511759  0.40657156  0.80093548  1
  Nb  Nb138  1  0.40760923  0.39692556  0.20138905  1
  Nb  Nb139  1  0.19480632  -0.00140033  0.19218774  1
  Nb  Nb140  1  0.59604990  0.60255054  0.59996288  1
  Nb  Nb141  1  -0.00621623  -0.00265038  0.80438333  1
  Nb  Nb142  1  0.00395037  0.41086587  0.59899485  1
  Nb  Nb143  1  0.59505641  0.19693058  0.20625333  1
  Nb  Nb144  1  0.58736301  0.40298730  0.80025515  1
  Nb  Nb145  1  0.59824220  0.80279170  0.79883995  1
  Nb  Nb146  1  0.79919823  0.20426122  0.59856305  1
  Nb  Nb147  1  0.79733093  0.80213122  0.80565664  1
  Nb  Nb148  1  0.80102415  0.61208055  0.80261204  1
  Nb  Nb149  1  0.80226554  0.19698783  0.80201930  1
  Pd  Pd150  1  0.80587977  0.01006127  0.58797812  1
  Pd  Pd151  1  0.00719794  0.40392844  0.40895524  1
  Pd  Pd152  1  0.20957156  0.19580899  0.80266608  1
  Pd  Pd153  1  0.00858200  0.80376518  0.60401176  1
  Pd  Pd154  1  -0.00704259  0.79582787  0.39579064  1
  Pd  Pd155  1  0.20459542  0.19627848  0.59545473  1
  Pd  Pd156  1  0.39256915  0.20400197  0.40737836  1
  Pd  Pd157  1  -0.00593863  0.79778449  0.20625104  1
  Pd  Pd158  1  0.60404573  0.60429670  0.78940753  1
  Pd  Pd159  1  0.39863486  0.60746431  0.60362687  1
  Pd  Pd160  1  0.39367464  0.39172368  0.39397463  1
  Pd  Pd161  1  0.58478186  0.00877863  0.59891757  1
  Pd  Pd162  1  0.19762358  0.79457515  0.60634251  1
  Pd  Pd163  1  0.60140046  0.60346652  0.00950709  1
  Pd  Pd164  1  0.80355860  0.39422838  0.40041988  1
  Pd  Pd165  1  0.80929093  0.40065140  -0.00191161  1
  Pd  Pd166  1  0.20680449  0.80183459  0.39565925  1
  Pd  Pd167  1  0.40741353  0.00783284  0.60988840  1
  Pd  Pd168  1  0.61254680  0.21232356  0.80306229  1
  Pd  Pd169  1  0.60426790  0.40948160  0.40738188  1
  Pd  Pd170  1  0.40599479  0.80106936  0.80001410  1
  Pd  Pd171  1  0.39138010  0.79594554  0.39792830  1
  Pd  Pd172  1  0.80583467  0.40159110  0.21097486  1
  Pd  Pd173  1  0.40876204  -0.00670636  0.79113759  1
  Pd  Pd174  1  0.00734125  0.60513856  0.40709700  1
  Pd  Pd175  1  0.39913403  0.79641972  -0.00188559  1
  Pd  Pd176  1  0.60597790  0.18844858  0.39542089  1
  Pd  Pd177  1  0.79612047  -0.00047693  0.40907010  1
  Pd  Pd178  1  0.59979825  0.40694167  0.59927577  1
  Pd  Pd179  1  0.60708832  0.80530489  0.39491670  1
  Pd  Pd180  1  0.39892955  0.39655221  0.60026249  1
  Pd  Pd181  1  0.60188967  0.19921496  0.60839888  1
  Pd  Pd182  1  0.60663726  0.59321769  0.40651775  1
  Pd  Pd183  1  0.40939750  0.39867537  -0.00140579  1
  Pd  Pd184  1  0.39051432  0.20873767  0.80342752  1
  Pd  Pd185  1  0.40502351  0.60847631  0.00300699  1
  Pd  Pd186  1  0.00833249  0.59711947  0.59071290  1
  Pd  Pd187  1  0.59603388  0.39505320  0.20053119  1
  Pd  Pd188  1  0.80525769  0.00656120  0.00471171  1
  Pd  Pd189  1  0.81015545  0.79631644  0.21206871  1
  Pd  Pd190  1  0.40460245  0.20234182  0.19992929  1
  Pd  Pd191  1  0.40341258  0.79615947  0.20309096  1
  Pd  Pd192  1  0.59124861  0.39705110  -0.00796216  1
  Pd  Pd193  1  0.20805033  0.40508832  0.19733324  1
  Pd  Pd194  1  0.20677024  0.59563433  0.79492686  1
  Pd  Pd195  1  0.79403994  -0.00781352  0.19437964  1
  Pd  Pd196  1  0.01170498  -0.00538674  0.60796156  1
  Pd  Pd197  1  0.20516183  0.40885133  0.79976399  1
  Pd  Pd198  1  0.00943889  0.00261216  0.39406736  1
  Pd  Pd199  1  0.19282251  0.60862681  0.00497151  1
  Rh  Rh200  1  0.39929561  0.00038640  0.19955015  1
  Rh  Rh201  1  0.80208961  0.60447875  0.40127472  1
  Rh  Rh202  1  0.19904394  0.80761937  0.19538964  1
  Rh  Rh203  1  0.80005145  0.78910247  -0.00525689  1
  Rh  Rh204  1  0.80811798  0.00088292  0.79997469  1
  Rh  Rh205  1  0.59095874  0.80260114  -0.00675634  1
  Rh  Rh206  1  0.19294378  0.00470392  0.79781481  1
  Rh  Rh207  1  0.59518282  -0.00353174  0.00377043  1
  Rh  Rh208  1  -0.00716729  0.80678061  0.78946724  1
  Rh  Rh209  1  -0.00893149  0.58472516  -0.00353380  1
  Rh  Rh210  1  0.39118710  0.79789301  0.59770498  1
  Rh  Rh211  1  -0.00163989  0.21223849  0.60122325  1
  Rh  Rh212  1  0.39700344  0.60859320  0.39645954  1
  Rh  Rh213  1  0.20229729  0.19516093  0.40571467  1
  Rh  Rh214  1  0.19257321  0.61072520  0.60372663  1
  Rh  Rh215  1  0.00400297  0.40534266  0.79735954  1
  Rh  Rh216  1  0.61032843  0.19856319  -0.00009037  1
  Rh  Rh217  1  0.81426371  0.39327658  0.59358188  1
  Rh  Rh218  1  0.59747808  0.80593816  0.20080341  1
  Rh  Rh219  1  0.40127627  -0.00306723  0.40495462  1
  Rh  Rh220  1  0.38925227  0.19687473  -0.00866800  1
  Rh  Rh221  1  0.19897114  -0.00085614  0.39439803  1
  Rh  Rh222  1  -0.00939804  0.19333521  0.78307295  1
  Rh  Rh223  1  0.19990318  0.18879143  0.19429139  1
  Rh  Rh224  1  -0.00097892  0.20153286  0.00816465  1
  Rh  Rh225  1  0.00551221  -0.00030648  0.20087901  1
  Rh  Rh226  1  0.78974971  0.39793385  0.80294607  1
  Rh  Rh227  1  0.19638236  0.60571661  0.39963690  1
  Rh  Rh228  1  0.18236123  0.38535097  -0.00005595  1
  Rh  Rh229  1  0.19618980  0.79052275  0.79667242  1
  Rh  Rh230  1  0.19874514  0.00423586  0.60009473  1
  Rh  Rh231  1  0.00430637  0.80287436  0.00619897  1
  Rh  Rh232  1  0.60037584  0.59874403  0.19720667  1
  Rh  Rh233  1  0.80087137  0.59492995  0.19679396  1
  Rh  Rh234  1  0.59783647  0.79480763  0.59973657  1
  Rh  Rh235  1  0.40607881  0.59343476  0.19422037  1
  Rh  Rh236  1  0.19096160  0.40006624  0.59587789  1
  Rh  Rh237  1  0.40147911  0.20141015  0.60343982  1
  Rh  Rh238  1  0.39751506  -0.00021889  -0.00241281  1
  Rh  Rh239  1  -0.00222077  0.19725214  0.39941857  1
  Rh  Rh240  1  0.19434907  0.59330080  0.19374546  1
  Rh  Rh241  1  0.58558048  -0.01012077  0.79818149  1
  Rh  Rh242  1  0.79535139  0.60112056  0.60234371  1
  Rh  Rh243  1  0.20387230  0.39865478  0.40064150  1
  Rh  Rh244  1  0.80393069  0.80188827  0.59595585  1
  Rh  Rh245  1  -0.00620893  0.59456790  0.80247907  1
  Rh  Rh246  1  0.00587792  0.20006938  0.20879973  1
  Rh  Rh247  1  -0.00278111  0.40296993  0.19975946  1
  Rh  Rh248  1  0.79197853  0.20999167  0.20717013  1
  Rh  Rh249  1  -0.00021205  0.59394451  0.20460496  1
