# generated using pymatgen
data_ZrScNbPdRh
_symmetry_space_group_name_H-M   'P 1'
_cell_length_a   16.56443228
_cell_length_b   16.55975150
_cell_length_c   16.55965021
_cell_angle_alpha   89.99577443
_cell_angle_beta   89.97382457
_cell_angle_gamma   90.00230851
_symmetry_Int_Tables_number   1
_chemical_formula_structural   ZrScNbPdRh
_chemical_formula_sum   'Zr50 Sc50 Nb50 Pd50 Rh50'
_cell_volume   4542.35929082
_cell_formula_units_Z   50
loop_
 _symmetry_equiv_pos_site_id
 _symmetry_equiv_pos_as_xyz
  1  'x, y, z'
loop_
 _atom_site_type_symbol
 _atom_site_label
 _atom_site_symmetry_multiplicity
 _atom_site_fract_x
 _atom_site_fract_y
 _atom_site_fract_z
 _atom_site_occupancy
  Zr  Zr0  1  0.09508556  0.90209913  0.90247194  1
  Zr  Zr1  1  0.30510168  0.10537997  0.89578307  1
  Zr  Zr2  1  0.28794654  0.50612507  0.69610784  1
  Zr  Zr3  1  0.70986869  0.30068913  0.50022838  1
  Zr  Zr4  1  0.10402896  0.09955152  0.10146262  1
  Zr  Zr5  1  0.69856048  0.29618276  0.10142556  1
  Zr  Zr6  1  0.70448774  0.89523652  0.08990465  1
  Zr  Zr7  1  0.30383743  0.09663496  0.69822510  1
  Zr  Zr8  1  0.90250374  0.70130057  0.31061692  1
  Zr  Zr9  1  0.29724866  0.70358828  0.71841516  1
  Zr  Zr10  1  0.50454474  0.30057653  0.88846583  1
  Zr  Zr11  1  0.69667512  0.29075331  0.29458862  1
  Zr  Zr12  1  0.70268648  0.49919328  0.30146391  1
  Zr  Zr13  1  0.09631894  0.88896550  0.30156799  1
  Zr  Zr14  1  0.49376144  0.51516493  0.29720370  1
  Zr  Zr15  1  0.29119156  0.50268686  0.90207257  1
  Zr  Zr16  1  0.88556078  0.29903178  0.29851943  1
  Zr  Zr17  1  0.49746357  0.90330252  0.30686898  1
  Zr  Zr18  1  0.70514274  0.10074033  0.30794152  1
  Zr  Zr19  1  0.29732603  0.49859378  0.30742171  1
  Zr  Zr20  1  0.90452060  0.08580754  0.10371649  1
  Zr  Zr21  1  0.50551048  0.69921403  0.69564412  1
  Zr  Zr22  1  0.10638968  0.30994177  0.90034824  1
  Zr  Zr23  1  0.29545996  0.69757412  0.09332734  1
  Zr  Zr24  1  0.69286240  0.70024790  0.69651487  1
  Zr  Zr25  1  0.30412324  0.90094455  0.31486680  1
  Zr  Zr26  1  0.89401347  0.29865706  0.09772319  1
  Zr  Zr27  1  0.28672258  0.70126237  0.50247162  1
  Zr  Zr28  1  0.49190849  0.29678544  0.10302033  1
  Zr  Zr29  1  0.89901328  0.29659099  0.69070097  1
  Zr  Zr30  1  0.50361072  0.50368097  0.49914337  1
  Zr  Zr31  1  0.50699173  0.10012377  0.50428886  1
  Zr  Zr32  1  0.10486361  0.09955156  0.30266309  1
  Zr  Zr33  1  0.69982549  0.69858831  0.10227901  1
  Zr  Zr34  1  0.30011275  0.09544581  0.49758132  1
  Zr  Zr35  1  0.49861118  0.29773115  0.30108157  1
  Zr  Zr36  1  0.30139984  0.89334359  0.89016165  1
  Zr  Zr37  1  0.10030239  0.91151766  0.70143518  1
  Zr  Zr38  1  0.11061359  0.50121078  0.50167133  1
  Zr  Zr39  1  0.10298680  0.30132656  0.09886889  1
  Zr  Zr40  1  0.10149808  0.10525905  0.70107799  1
  Zr  Zr41  1  0.50189113  0.90406029  0.70279682  1
  Zr  Zr42  1  0.30609833  0.10752556  0.10057899  1
  Zr  Zr43  1  0.49906485  0.68393919  0.10573549  1
  Zr  Zr44  1  0.89476639  0.30221998  0.89689011  1
  Zr  Zr45  1  0.49540849  0.09428062  0.09202160  1
  Zr  Zr46  1  0.51845009  0.50232463  0.69978141  1
  Zr  Zr47  1  0.08871164  0.90121400  0.10158228  1
  Zr  Zr48  1  0.50335365  0.10836096  0.69792539  1
  Zr  Zr49  1  0.90167769  0.09686121  0.69937192  1
  Sc  Sc50  1  0.89316595  0.10095344  0.90162406  1
  Sc  Sc51  1  0.10691141  0.69566140  0.90157019  1
  Sc  Sc52  1  0.29571210  0.69816925  0.30048787  1
  Sc  Sc53  1  0.49944373  0.90454942  0.49629245  1
  Sc  Sc54  1  0.49976684  0.49335281  0.90060092  1
  Sc  Sc55  1  0.49782890  0.69557801  0.89077812  1
  Sc  Sc56  1  0.90537431  0.49773302  0.09516604  1
  Sc  Sc57  1  0.69588876  0.90633599  0.49882399  1
  Sc  Sc58  1  0.90144728  0.71014549  0.69624821  1
  Sc  Sc59  1  0.10582773  0.10089778  0.50726782  1
  Sc  Sc60  1  0.49990266  0.10515374  0.30366637  1
  Sc  Sc61  1  0.90782342  0.49155836  0.70491759  1
  Sc  Sc62  1  0.10263796  0.69159570  0.70826707  1
  Sc  Sc63  1  0.70413725  0.71224864  0.49993630  1
  Sc  Sc64  1  0.90201751  0.49960939  0.29703982  1
  Sc  Sc65  1  0.30236574  0.29711872  0.70921615  1
  Sc  Sc66  1  0.30644574  0.49968353  0.09859612  1
  Sc  Sc67  1  0.30105674  0.28696544  0.30467483  1
  Sc  Sc68  1  0.30211042  0.29876720  0.50251212  1
  Sc  Sc69  1  0.29959128  0.30545456  0.90009572  1
  Sc  Sc70  1  0.69917916  0.10764399  0.09953477  1
  Sc  Sc71  1  0.88616549  0.10068651  0.50808386  1
  Sc  Sc72  1  0.89610380  0.90114066  0.28492412  1
  Sc  Sc73  1  0.50410988  0.09803102  0.89635735  1
  Sc  Sc74  1  0.70499478  0.90181138  0.30129967  1
  Sc  Sc75  1  0.10235670  0.09692955  0.89579444  1
  Sc  Sc76  1  0.69116383  0.50692510  0.09311233  1
  Sc  Sc77  1  0.50382857  0.70533143  0.49047462  1
  Sc  Sc78  1  0.10579244  0.89502541  0.50239375  1
  Sc  Sc79  1  0.69518003  0.69805357  0.90598196  1
  Sc  Sc80  1  0.10114628  0.50042151  0.09489562  1
  Sc  Sc81  1  0.09404530  0.70634570  0.48724096  1
  Sc  Sc82  1  0.09960174  0.49757286  0.70506044  1
  Sc  Sc83  1  0.50459834  0.29948228  0.69939170  1
  Sc  Sc84  1  0.90781884  0.68957040  0.89981268  1
  Sc  Sc85  1  0.69310501  0.89382037  0.69014930  1
  Sc  Sc86  1  0.69595378  0.49385676  0.89575672  1
  Sc  Sc87  1  0.70286690  0.70675145  0.30304708  1
  Sc  Sc88  1  0.69783213  0.49752813  0.50448766  1
  Sc  Sc89  1  0.89817741  0.70592257  0.09874929  1
  Sc  Sc90  1  0.10508450  0.29532129  0.50812581  1
  Sc  Sc91  1  0.50403306  0.29229856  0.50630895  1
  Sc  Sc92  1  0.89167613  0.49041187  0.49354989  1
  Sc  Sc93  1  0.29409769  0.50118886  0.49697498  1
  Sc  Sc94  1  0.10357213  0.70268330  0.10440132  1
  Sc  Sc95  1  0.90835458  0.49740573  0.89902156  1
  Sc  Sc96  1  0.69687733  0.10638070  0.89692970  1
  Sc  Sc97  1  0.70013191  0.30351497  0.70069899  1
  Sc  Sc98  1  0.10256966  0.30605153  0.69699294  1
  Sc  Sc99  1  0.70369425  0.29619228  0.89946484  1
  Nb  Nb100  1  0.09529688  0.69260541  0.30017017  1
  Nb  Nb101  1  0.09830326  0.29380459  0.29979651  1
  Nb  Nb102  1  0.30581393  0.90312173  0.09915182  1
  Nb  Nb103  1  0.70036232  0.50399586  0.69301444  1
  Nb  Nb104  1  0.90305921  0.29826805  0.49866347  1
  Nb  Nb105  1  0.90688745  0.88636543  0.51386004  1
  Nb  Nb106  1  0.09487557  0.49847645  0.89855986  1
  Nb  Nb107  1  0.29998413  0.89483721  0.50382384  1
  Nb  Nb108  1  0.29384492  0.29850569  0.10381876  1
  Nb  Nb109  1  0.69818960  0.90076953  0.89916610  1
  Nb  Nb110  1  0.51131175  0.90815193  0.91043713  1
  Nb  Nb111  1  0.90123300  0.70241046  0.50380610  1
  Nb  Nb112  1  0.09955717  0.49800035  0.29965262  1
  Nb  Nb113  1  0.90083491  0.90292061  0.09010549  1
  Nb  Nb114  1  0.49749661  0.90473191  0.09557627  1
  Nb  Nb115  1  0.89817245  0.90500840  0.90530244  1
  Nb  Nb116  1  0.29946111  0.69990226  0.90035791  1
  Nb  Nb117  1  0.69432240  0.10049214  0.50388409  1
  Nb  Nb118  1  0.49828458  0.49839146  0.10941205  1
  Nb  Nb119  1  0.90352110  0.90197848  0.70130118  1
  Nb  Nb120  1  0.29925683  0.89795303  0.69575356  1
  Nb  Nb121  1  0.70474380  0.10272293  0.69239300  1
  Nb  Nb122  1  0.29651724  0.09788284  0.30170064  1
  Nb  Nb123  1  0.49675108  0.70499829  0.29522285  1
  Nb  Nb124  1  0.90057329  0.09749978  0.30298572  1
  Nb  Nb125  1  0.19775749  0.39465883  0.20531291  1
  Nb  Nb126  1  -0.00562782  0.19909075  0.39976473  1
  Nb  Nb127  1  0.80000161  0.60339953  0.20064029  1
  Nb  Nb128  1  -0.00751336  0.00013873  0.40179644  1
  Nb  Nb129  1  -0.00196365  0.19943633  0.20407107  1
  Nb  Nb130  1  0.79765931  -0.00906115  0.79730707  1
  Nb  Nb131  1  0.39338394  0.80039228  0.60304450  1
  Nb  Nb132  1  -0.00150360  0.20363401  0.80223181  1
  Nb  Nb133  1  0.20773456  -0.00333939  0.20042044  1
  Nb  Nb134  1  0.39886651  0.60432114  0.60263029  1
  Nb  Nb135  1  -0.00611952  0.60171105  0.59398009  1
  Nb  Nb136  1  0.80200009  0.80530394  0.80353501  1
  Nb  Nb137  1  0.59900255  0.39768206  0.39343673  1
  Nb  Nb138  1  0.59018944  0.80389870  0.19695138  1
  Nb  Nb139  1  0.59645487  -0.00518146  0.19551683  1
  Nb  Nb140  1  0.40235621  0.80330012  0.19489935  1
  Nb  Nb141  1  0.80470781  0.60227969  0.60212148  1
  Nb  Nb142  1  -0.00002770  0.20191290  0.00096709  1
  Nb  Nb143  1  0.00547878  0.39175078  0.39546158  1
  Nb  Nb144  1  0.40291918  0.40973727  0.60335018  1
  Nb  Nb145  1  -0.00527554  0.81005403  0.80183696  1
  Nb  Nb146  1  0.40286742  0.80277053  0.00028453  1
  Nb  Nb147  1  0.20850018  -0.00380304  0.00528678  1
  Nb  Nb148  1  0.59233351  0.40390831  0.20085927  1
  Nb  Nb149  1  0.79786127  0.60221717  0.79133945  1
  Pd  Pd150  1  0.80683821  0.81260249  0.40281322  1
  Pd  Pd151  1  0.60309735  0.80351605  0.39546584  1
  Pd  Pd152  1  0.59696411  0.39658367  0.00544970  1
  Pd  Pd153  1  0.79078160  0.41273010  0.18884850  1
  Pd  Pd154  1  0.58979810  0.79286431  0.00262591  1
  Pd  Pd155  1  0.40164125  0.58997680  0.79613027  1
  Pd  Pd156  1  0.41175989  0.80485183  0.80247953  1
  Pd  Pd157  1  0.00085934  0.40746639  0.58980271  1
  Pd  Pd158  1  0.40142631  -0.00527828  0.59703577  1
  Pd  Pd159  1  0.19776161  0.19568723  -0.00852030  1
  Pd  Pd160  1  0.19546348  0.38865661  0.39778107  1
  Pd  Pd161  1  0.00383744  0.39608425  0.20334925  1
  Pd  Pd162  1  0.40632481  0.39608732  0.40975832  1
  Pd  Pd163  1  0.19171483  -0.00464354  0.40287663  1
  Pd  Pd164  1  0.61020489  0.00492801  0.79383162  1
  Pd  Pd165  1  0.60819096  0.60335083  0.39921884  1
  Pd  Pd166  1  0.20320886  0.80506540  -0.00171534  1
  Pd  Pd167  1  0.78930300  0.00118931  0.19548114  1
  Pd  Pd168  1  0.80939676  -0.00800036  0.41005037  1
  Pd  Pd169  1  0.79505682  -0.00888293  0.60269307  1
  Pd  Pd170  1  0.19477765  0.79551530  0.60935410  1
  Pd  Pd171  1  -0.00291679  0.79221505  -0.00577430  1
  Pd  Pd172  1  0.20696955  0.80462867  0.20499563  1
  Pd  Pd173  1  0.79656856  0.40642378  0.79440925  1
  Pd  Pd174  1  0.00678159  0.60381825  0.00552581  1
  Pd  Pd175  1  0.80657152  0.79239400  -0.00954299  1
  Pd  Pd176  1  0.01462204  0.79242613  0.60944295  1
  Pd  Pd177  1  0.80212521  0.59457026  -0.00351412  1
  Pd  Pd178  1  0.79615697  0.40814805  0.00070760  1
  Pd  Pd179  1  -0.00592873  0.60345443  0.19521469  1
  Pd  Pd180  1  0.59169960  0.59549284  -0.00759333  1
  Pd  Pd181  1  0.40230783  0.20944061  -0.00903217  1
  Pd  Pd182  1  0.39441434  0.61005686  0.40736808  1
  Pd  Pd183  1  -0.00796216  0.79353855  0.19945595  1
  Pd  Pd184  1  0.60230929  0.80004356  0.80554801  1
  Pd  Pd185  1  0.39305540  0.39719514  0.20412036  1
  Pd  Pd186  1  0.39784372  0.39703617  -0.00071129  1
  Pd  Pd187  1  0.40032211  0.19582308  0.40520394  1
  Pd  Pd188  1  0.00103433  0.58826415  0.40728019  1
  Pd  Pd189  1  0.39994108  0.00140081  0.20757618  1
  Pd  Pd190  1  0.79770421  0.59949880  0.40393443  1
  Pd  Pd191  1  0.20953394  0.20383936  0.60470648  1
  Pd  Pd192  1  0.00120444  0.00443109  0.58855323  1
  Pd  Pd193  1  0.79066099  0.00837880  -0.00556469  1
  Pd  Pd194  1  0.59542384  0.20142073  -0.00308657  1
  Pd  Pd195  1  0.40512893  -0.00028804  0.80233421  1
  Pd  Pd196  1  0.20044845  0.59049210  0.19912703  1
  Pd  Pd197  1  0.40398950  0.60018347  -0.00646247  1
  Pd  Pd198  1  0.20457644  0.00048725  0.80340971  1
  Pd  Pd199  1  0.39958539  0.40827120  0.79113907  1
  Rh  Rh200  1  0.21093807  0.39385937  0.60442678  1
  Rh  Rh201  1  -0.00989142  0.00497431  0.80800391  1
  Rh  Rh202  1  -0.00485684  0.60342230  0.79338184  1
  Rh  Rh203  1  0.39388129  -0.00614583  -0.01526194  1
  Rh  Rh204  1  0.19302539  0.60677077  0.59951280  1
  Rh  Rh205  1  0.79704040  0.20288291  0.59977911  1
  Rh  Rh206  1  0.60790981  0.59737856  0.80708846  1
  Rh  Rh207  1  0.39474923  0.79334034  0.40529124  1
  Rh  Rh208  1  0.19951259  0.79569651  0.39380600  1
  Rh  Rh209  1  0.59679857  0.39528473  0.59347760  1
  Rh  Rh210  1  0.40203886  0.00688107  0.40721571  1
  Rh  Rh211  1  -0.00793668  0.80917705  0.39820373  1
  Rh  Rh212  1  0.40370899  0.20065008  0.80060682  1
  Rh  Rh213  1  0.80323876  0.40519770  0.60266357  1
  Rh  Rh214  1  0.60931766  0.60098106  0.20862323  1
  Rh  Rh215  1  0.80464498  0.19679556  0.00314255  1
  Rh  Rh216  1  0.80168209  0.19673546  0.40706239  1
  Rh  Rh217  1  0.59008290  0.19452803  0.19543681  1
  Rh  Rh218  1  0.60561963  0.60846437  0.58694824  1
  Rh  Rh219  1  0.80810345  0.18781111  0.19447034  1
  Rh  Rh220  1  0.19434000  0.20284511  0.80059318  1
  Rh  Rh221  1  0.19800746  0.19967411  0.40645739  1
  Rh  Rh222  1  0.20258612  0.19973480  0.20447714  1
  Rh  Rh223  1  0.60087490  0.00622145  0.39388500  1
  Rh  Rh224  1  0.19398822  0.59513926  0.80957656  1
  Rh  Rh225  1  0.79790854  0.80065739  0.60202989  1
  Rh  Rh226  1  0.60612818  0.19982522  0.79571552  1
  Rh  Rh227  1  0.00497298  0.00828007  -0.00624008  1
  Rh  Rh228  1  0.60890807  0.20310730  0.60255600  1
  Rh  Rh229  1  0.00721193  0.00074867  0.21039188  1
  Rh  Rh230  1  0.20424753  -0.00120480  0.59886097  1
  Rh  Rh231  1  -0.00105607  0.39580493  -0.00360855  1
  Rh  Rh232  1  0.18766241  0.80398335  0.79838348  1
  Rh  Rh233  1  0.19971524  0.40418409  0.79867353  1
  Rh  Rh234  1  -0.00122368  0.19568886  0.60051898  1
  Rh  Rh235  1  0.60068530  0.00130407  0.60255331  1
  Rh  Rh236  1  0.58747002  0.80437481  0.59054573  1
  Rh  Rh237  1  0.19583912  0.59714344  -0.00121307  1
  Rh  Rh238  1  0.19339081  0.60530975  0.39465248  1
  Rh  Rh239  1  0.60517174  0.20252811  0.40733514  1
  Rh  Rh240  1  0.38681013  0.60427316  0.20136608  1
  Rh  Rh241  1  0.00252243  0.39155400  0.80258998  1
  Rh  Rh242  1  0.79763448  0.39779200  0.39837983  1
  Rh  Rh243  1  0.60756666  0.39801068  0.79738367  1
  Rh  Rh244  1  0.79922931  0.79640768  0.19599275  1
  Rh  Rh245  1  0.80248937  0.19169453  0.79178037  1
  Rh  Rh246  1  0.39779020  0.20744033  0.60457521  1
  Rh  Rh247  1  0.20536687  0.40649052  0.00910606  1
  Rh  Rh248  1  0.39836309  0.19645350  0.20321875  1
  Rh  Rh249  1  0.60884312  0.00518452  0.00421539  1
