# generated using pymatgen
data_ZrScNbPdRh
_symmetry_space_group_name_H-M   'P 1'
_cell_length_a   16.55733127
_cell_length_b   16.54868330
_cell_length_c   16.54998495
_cell_angle_alpha   90.01712462
_cell_angle_beta   90.01906172
_cell_angle_gamma   89.98991474
_symmetry_Int_Tables_number   1
_chemical_formula_structural   ZrScNbPdRh
_chemical_formula_sum   'Zr50 Sc50 Nb50 Pd50 Rh50'
_cell_volume   4534.72897553
_cell_formula_units_Z   50
loop_
 _symmetry_equiv_pos_site_id
 _symmetry_equiv_pos_as_xyz
  1  'x, y, z'
loop_
 _atom_site_type_symbol
 _atom_site_label
 _atom_site_symmetry_multiplicity
 _atom_site_fract_x
 _atom_site_fract_y
 _atom_site_fract_z
 _atom_site_occupancy
  Zr  Zr0  1  0.50984614  0.70701742  0.30780862  1
  Zr  Zr1  1  0.10090537  0.69715019  0.70094191  1
  Zr  Zr2  1  0.09869575  0.70468910  0.49803256  1
  Zr  Zr3  1  0.29533852  0.10939329  0.89711657  1
  Zr  Zr4  1  0.70600068  0.90342693  0.89270514  1
  Zr  Zr5  1  0.30381892  0.90966968  0.90600945  1
  Zr  Zr6  1  0.90779497  0.69580833  0.10128656  1
  Zr  Zr7  1  0.89971951  0.29532341  0.30592624  1
  Zr  Zr8  1  0.50439186  0.49859429  0.51054329  1
  Zr  Zr9  1  0.08967316  0.90080107  0.30789154  1
  Zr  Zr10  1  0.09746617  0.29116373  0.10183499  1
  Zr  Zr11  1  0.09948122  0.70163752  0.28578027  1
  Zr  Zr12  1  0.10138656  0.09651125  0.70089595  1
  Zr  Zr13  1  0.70334406  0.31051272  0.30375941  1
  Zr  Zr14  1  0.70743139  0.49946407  0.10546499  1
  Zr  Zr15  1  0.70488223  0.29770759  0.49869539  1
  Zr  Zr16  1  0.90040964  0.30294880  0.09310910  1
  Zr  Zr17  1  0.29824555  0.29964609  0.70673190  1
  Zr  Zr18  1  0.49193166  0.69605209  0.69826220  1
  Zr  Zr19  1  0.69514369  0.09258894  0.70331885  1
  Zr  Zr20  1  0.70573904  0.89238799  0.30335402  1
  Zr  Zr21  1  0.50198907  0.30151643  0.50902811  1
  Zr  Zr22  1  0.10792152  0.89173255  0.10219476  1
  Zr  Zr23  1  0.69413975  0.69747215  0.89859326  1
  Zr  Zr24  1  0.70551082  0.69774568  0.29720758  1
  Zr  Zr25  1  0.29918562  0.49600201  0.09971578  1
  Zr  Zr26  1  0.10319014  0.09744935  0.10128737  1
  Zr  Zr27  1  0.50395759  0.10968991  0.69929414  1
  Zr  Zr28  1  0.29747939  0.29755435  0.30439989  1
  Zr  Zr29  1  0.49635229  0.89156579  0.49838218  1
  Zr  Zr30  1  0.50127211  0.09811202  0.89963860  1
  Zr  Zr31  1  0.29331129  0.69664951  0.30264352  1
  Zr  Zr32  1  0.90672575  0.10599352  0.10236943  1
  Zr  Zr33  1  0.09600692  0.70140147  0.90299277  1
  Zr  Zr34  1  0.69362438  0.90108215  0.10603333  1
  Zr  Zr35  1  0.48930335  0.10138895  0.50396586  1
  Zr  Zr36  1  0.69978107  0.50051018  0.29916915  1
  Zr  Zr37  1  0.70174177  0.50072985  0.89789855  1
  Zr  Zr38  1  0.30058730  0.09366291  0.08801053  1
  Zr  Zr39  1  0.70111917  0.10292892  0.89169103  1
  Zr  Zr40  1  0.51408763  0.90018791  0.29501639  1
  Zr  Zr41  1  0.11065873  0.29635239  0.30392904  1
  Zr  Zr42  1  0.30248454  0.10384142  0.69714704  1
  Zr  Zr43  1  0.49947867  0.29417880  0.30013514  1
  Zr  Zr44  1  0.09612894  0.10136728  0.29860899  1
  Zr  Zr45  1  0.50409372  0.49331257  0.70296253  1
  Zr  Zr46  1  0.29818464  0.09080132  0.49994282  1
  Zr  Zr47  1  0.90177637  0.71344504  0.30702328  1
  Zr  Zr48  1  0.89778865  0.69577466  0.50801908  1
  Zr  Zr49  1  0.89658934  0.50439608  0.69600055  1
  Sc  Sc50  1  0.50628940  0.49943800  0.89773679  1
  Sc  Sc51  1  0.29825816  0.90280354  0.09614604  1
  Sc  Sc52  1  0.69950293  0.09051983  0.29043107  1
  Sc  Sc53  1  0.29526294  0.29631547  0.50426217  1
  Sc  Sc54  1  0.89061667  0.30396136  0.69862058  1
  Sc  Sc55  1  0.09594989  0.90244864  0.89874985  1
  Sc  Sc56  1  0.89460819  0.09993716  0.90171277  1
  Sc  Sc57  1  0.70158308  0.30370398  0.09873866  1
  Sc  Sc58  1  0.50209998  0.30177336  0.09974755  1
  Sc  Sc59  1  0.30287332  0.49472388  0.70590619  1
  Sc  Sc60  1  0.29824275  0.10668923  0.30992516  1
  Sc  Sc61  1  0.50706723  0.49447568  0.09491488  1
  Sc  Sc62  1  0.29908578  0.29237576  0.09921919  1
  Sc  Sc63  1  0.89357687  0.29711923  0.89928602  1
  Sc  Sc64  1  0.88984929  0.30054752  0.49999438  1
  Sc  Sc65  1  0.71013008  0.10274867  0.51079723  1
  Sc  Sc66  1  0.89547497  0.90209078  0.89814106  1
  Sc  Sc67  1  0.28029901  0.70522534  0.10936912  1
  Sc  Sc68  1  0.70420601  0.30134252  0.89487995  1
  Sc  Sc69  1  0.71385587  0.69822480  0.69465955  1
  Sc  Sc70  1  0.70680481  0.10135652  0.09546747  1
  Sc  Sc71  1  0.89878167  0.49758209  0.08972478  1
  Sc  Sc72  1  0.90019432  0.90795487  0.49215036  1
  Sc  Sc73  1  0.50750029  0.91066090  0.69026800  1
  Sc  Sc74  1  0.69972077  0.50078176  0.70605160  1
  Sc  Sc75  1  0.10002343  0.09671722  0.49604268  1
  Sc  Sc76  1  0.10146428  0.09901364  0.89571464  1
  Sc  Sc77  1  0.30330761  0.49073792  0.89363007  1
  Sc  Sc78  1  0.89810887  0.49621163  0.50830973  1
  Sc  Sc79  1  0.51611753  0.49836838  0.30307040  1
  Sc  Sc80  1  0.50702975  0.10679082  0.10359743  1
  Sc  Sc81  1  0.28180690  0.49986814  0.30266147  1
  Sc  Sc82  1  0.29880782  0.90288416  0.68739550  1
  Sc  Sc83  1  0.51128590  0.70485393  0.09158440  1
  Sc  Sc84  1  0.89442819  0.90692769  0.09437650  1
  Sc  Sc85  1  0.49704200  0.88974692  0.90427206  1
  Sc  Sc86  1  0.10093426  0.90890268  0.50570988  1
  Sc  Sc87  1  0.10565950  0.49434637  0.50553846  1
  Sc  Sc88  1  0.89552754  0.10066824  0.70171508  1
  Sc  Sc89  1  0.50176678  0.69844989  0.89983428  1
  Sc  Sc90  1  0.88706732  0.50144611  0.29162275  1
  Sc  Sc91  1  0.89282674  0.89874899  0.70636817  1
  Sc  Sc92  1  0.89390033  0.70823989  0.89817920  1
  Sc  Sc93  1  0.09848853  0.29245614  0.89407142  1
  Sc  Sc94  1  0.30622103  0.70274515  0.88932798  1
  Sc  Sc95  1  0.69842765  0.69934065  0.49915761  1
  Sc  Sc96  1  0.50154821  0.30464225  0.90208707  1
  Sc  Sc97  1  0.29640294  0.90553959  0.30578401  1
  Sc  Sc98  1  0.70353669  0.69586051  0.09481544  1
  Sc  Sc99  1  0.50000956  0.89729532  0.09356707  1
  Nb  Nb100  1  0.09818986  0.49706851  0.89799728  1
  Nb  Nb101  1  0.09478216  0.50116685  0.09782822  1
  Nb  Nb102  1  0.09967027  0.49819230  0.30053332  1
  Nb  Nb103  1  0.69090887  0.90435469  0.51339374  1
  Nb  Nb104  1  0.10257036  0.49554790  0.70419778  1
  Nb  Nb105  1  0.09788042  0.89943957  0.69762141  1
  Nb  Nb106  1  0.89878210  0.11128927  0.49406507  1
  Nb  Nb107  1  0.89856203  0.90565907  0.30583373  1
  Nb  Nb108  1  0.29814114  0.70580564  0.69410708  1
  Nb  Nb109  1  0.50065352  0.10014412  0.30368491  1
  Nb  Nb110  1  0.09666843  0.69508003  0.09844539  1
  Nb  Nb111  1  0.30633043  0.70768106  0.50845231  1
  Nb  Nb112  1  0.69823045  0.49395419  0.49128101  1
  Nb  Nb113  1  0.09686801  0.30553435  0.50628746  1
  Nb  Nb114  1  0.30363457  0.50298441  0.49755204  1
  Nb  Nb115  1  0.69403783  0.28744895  0.70075635  1
  Nb  Nb116  1  0.90256764  0.48691060  0.89407951  1
  Nb  Nb117  1  0.69624694  0.90395757  0.69788955  1
  Nb  Nb118  1  0.49126732  0.69999973  0.50053214  1
  Nb  Nb119  1  0.90218725  0.09798061  0.30974657  1
  Nb  Nb120  1  0.50461500  0.30066246  0.69469199  1
  Nb  Nb121  1  0.90206995  0.69703556  0.69602840  1
  Nb  Nb122  1  0.10048404  0.30557233  0.69124563  1
  Nb  Nb123  1  0.29754006  0.89630570  0.50299832  1
  Nb  Nb124  1  0.29429994  0.30123499  0.90493789  1
  Nb  Nb125  1  0.40557335  0.00123256  0.20322506  1
  Nb  Nb126  1  0.60030085  0.00130210  0.40605781  1
  Nb  Nb127  1  0.39808943  0.40639489  0.40122737  1
  Nb  Nb128  1  0.00331845  0.40337700  0.39642403  1
  Nb  Nb129  1  0.40022064  0.00457190  0.80024322  1
  Nb  Nb130  1  0.20233624  0.80004205  0.40752851  1
  Nb  Nb131  1  0.40134965  0.60105737  0.20319782  1
  Nb  Nb132  1  0.60421073  0.00020810  -0.00468044  1
  Nb  Nb133  1  0.00376124  0.40364050  0.79490581  1
  Nb  Nb134  1  0.80867061  0.19985100  0.20433568  1
  Nb  Nb135  1  0.59911902  0.19270519  0.39986223  1
  Nb  Nb136  1  -0.00117250  0.59398290  0.79892565  1
  Nb  Nb137  1  0.40070703  0.79860826  0.20368554  1
  Nb  Nb138  1  0.00580323  0.40132391  0.20230916  1
  Nb  Nb139  1  0.60604897  0.80221971  0.79115428  1
  Nb  Nb140  1  0.39250890  0.59842399  0.00679278  1
  Nb  Nb141  1  0.00014921  0.20369516  0.59814080  1
  Nb  Nb142  1  0.39846444  0.40401778  0.20827396  1
  Nb  Nb143  1  0.19407480  0.59559461  -0.00167970  1
  Nb  Nb144  1  0.19228422  0.40151468  -0.00288689  1
  Nb  Nb145  1  0.00370777  0.59494377  0.39563149  1
  Nb  Nb146  1  0.19974557  0.80299469  0.79139654  1
  Nb  Nb147  1  0.20839551  0.60358037  0.60177299  1
  Nb  Nb148  1  0.40045943  0.60072781  0.40460337  1
  Nb  Nb149  1  -0.00115195  0.80049477  0.60584386  1
  Pd  Pd150  1  0.40582789  0.20500203  0.80336411  1
  Pd  Pd151  1  -0.00356391  0.80810298  0.00308485  1
  Pd  Pd152  1  0.19304998  0.19567418  0.59726535  1
  Pd  Pd153  1  0.80777113  0.59717009  -0.00730321  1
  Pd  Pd154  1  -0.00279347  0.20738961  0.79001289  1
  Pd  Pd155  1  -0.00475264  0.59675602  -0.01012234  1
  Pd  Pd156  1  0.19790384  0.60486199  0.40982873  1
  Pd  Pd157  1  0.79828744  0.80017823  0.00406083  1
  Pd  Pd158  1  -0.00855692  0.00329392  0.59775767  1
  Pd  Pd159  1  0.59714980  0.78811057  0.60466926  1
  Pd  Pd160  1  0.40638447  0.39226841  0.80182004  1
  Pd  Pd161  1  -0.00883450  0.81142581  0.19322262  1
  Pd  Pd162  1  -0.00679624  0.59133808  0.20526209  1
  Pd  Pd163  1  0.19788044  0.39787099  0.19223330  1
  Pd  Pd164  1  0.20585003  0.79413119  -0.01135045  1
  Pd  Pd165  1  0.78960427  0.40091466  0.60506754  1
  Pd  Pd166  1  0.40111320  0.81436510  0.78837547  1
  Pd  Pd167  1  0.20142371  0.60392798  0.80094297  1
  Pd  Pd168  1  0.40475868  0.20435416  0.00154627  1
  Pd  Pd169  1  0.39468040  0.19612575  0.19651503  1
  Pd  Pd170  1  0.78976302  0.00313042  0.40456235  1
  Pd  Pd171  1  0.40463027  -0.00645612  0.39441929  1
  Pd  Pd172  1  0.60716945  0.40025711  -0.00180102  1
  Pd  Pd173  1  0.80921743  0.00032793  0.60063255  1
  Pd  Pd174  1  0.79608262  0.80448829  0.41376991  1
  Pd  Pd175  1  0.00093831  0.19707246  -0.01040658  1
  Pd  Pd176  1  0.20797876  0.00120716  0.20504284  1
  Pd  Pd177  1  0.39297064  0.79969360  0.39293767  1
  Pd  Pd178  1  0.40042359  0.59460480  0.80623389  1
  Pd  Pd179  1  0.60492870  0.19906997  -0.00359118  1
  Pd  Pd180  1  0.80665402  0.80924786  0.59661371  1
  Pd  Pd181  1  0.00242040  -0.00156045  -0.00214353  1
  Pd  Pd182  1  -0.00674969  0.00149158  0.80133833  1
  Pd  Pd183  1  0.80632426  0.79945135  0.19272778  1
  Pd  Pd184  1  0.59755402  0.60162743  0.40839413  1
  Pd  Pd185  1  0.80716882  0.60218616  0.80421679  1
  Pd  Pd186  1  0.21010500  0.40738016  0.59938790  1
  Pd  Pd187  1  0.61240570  0.20280552  0.20485285  1
  Pd  Pd188  1  0.00652042  0.20720917  0.40833049  1
  Pd  Pd189  1  0.59590553  0.60313283  0.19298926  1
  Pd  Pd190  1  0.60655985  0.60411661  0.60175278  1
  Pd  Pd191  1  0.01039057  0.59797176  0.59804403  1
  Pd  Pd192  1  0.80880161  0.00448820  0.20078658  1
  Pd  Pd193  1  0.80784461  0.59526546  0.40441588  1
  Pd  Pd194  1  0.38805862  0.78633947  0.01163240  1
  Pd  Pd195  1  0.39462619  0.59282617  0.60232997  1
  Pd  Pd196  1  0.20627055  -0.00749597  0.79672322  1
  Pd  Pd197  1  -0.00514642  -0.00602486  0.19929186  1
  Pd  Pd198  1  0.61341231  0.40008026  0.60574495  1
  Pd  Pd199  1  0.00025730  0.79734225  0.79563095  1
  Rh  Rh200  1  -0.00155469  0.00356187  0.40404149  1
  Rh  Rh201  1  0.39988689  -0.00262312  0.60341323  1
  Rh  Rh202  1  0.79387094  0.79747589  0.79447672  1
  Rh  Rh203  1  -0.00315978  0.39427031  0.60110735  1
  Rh  Rh204  1  -0.00440932  0.20276333  0.20693783  1
  Rh  Rh205  1  0.19605765  0.19807185  0.40973740  1
  Rh  Rh206  1  0.39410295  0.20692629  0.60096911  1
  Rh  Rh207  1  0.80442237  0.00223852  0.79603105  1
  Rh  Rh208  1  0.59727823  0.00973566  0.59143134  1
  Rh  Rh209  1  0.80588522  0.60773254  0.19748987  1
  Rh  Rh210  1  0.40556950  0.80694263  0.60639592  1
  Rh  Rh211  1  0.78640225  0.18719464  0.38886393  1
  Rh  Rh212  1  0.18965691  -0.00071859  -0.00391194  1
  Rh  Rh213  1  0.80806693  0.41047979  0.40366071  1
  Rh  Rh214  1  0.39173178  0.39929737  0.00429822  1
  Rh  Rh215  1  0.60422405  0.19607011  0.59494912  1
  Rh  Rh216  1  0.59574546  0.39863094  0.19748538  1
  Rh  Rh217  1  0.59548590  0.21001844  0.80270465  1
  Rh  Rh218  1  0.39433509  0.39729966  0.59970062  1
  Rh  Rh219  1  0.19544631  0.59398826  0.19132234  1
  Rh  Rh220  1  0.58893888  -0.01314869  0.80896082  1
  Rh  Rh221  1  0.61145732  0.80784284  -0.00952174  1
  Rh  Rh222  1  0.19869752  0.39658539  0.40956092  1
  Rh  Rh223  1  0.79868253  0.20026202  0.79575339  1
  Rh  Rh224  1  0.79515509  0.40129481  -0.00449777  1
  Rh  Rh225  1  0.80543890  0.19817304  0.60799670  1
  Rh  Rh226  1  0.79370703  0.00365569  -0.00151334  1
  Rh  Rh227  1  0.19690841  -0.00537250  0.40143874  1
  Rh  Rh228  1  0.40342627  0.20879181  0.40708618  1
  Rh  Rh229  1  0.60210134  0.39350571  0.79607146  1
  Rh  Rh230  1  0.19539863  0.20465708  0.79574057  1
  Rh  Rh231  1  0.79947664  0.20143831  0.00448219  1
  Rh  Rh232  1  0.19533232  0.20309241  -0.00267577  1
  Rh  Rh233  1  0.19926078  0.00259653  0.60069793  1
  Rh  Rh234  1  0.59394769  0.00365275  0.19275582  1
  Rh  Rh235  1  0.60151528  0.79110937  0.19542397  1
  Rh  Rh236  1  0.59363280  0.39142591  0.40281535  1
  Rh  Rh237  1  0.20247626  0.81182689  0.21118185  1
  Rh  Rh238  1  0.79928479  0.39662975  0.79614057  1
  Rh  Rh239  1  0.41257305  0.00373973  0.00327340  1
  Rh  Rh240  1  0.80780264  0.39265084  0.19624542  1
  Rh  Rh241  1  0.19390663  0.39045819  0.80554977  1
  Rh  Rh242  1  0.00497988  0.39435251  -0.00308794  1
  Rh  Rh243  1  0.59474557  0.59441668  -0.00071376  1
  Rh  Rh244  1  0.20762846  0.18784268  0.19693940  1
  Rh  Rh245  1  0.78808141  0.58953384  0.59230982  1
  Rh  Rh246  1  0.00142133  0.79987140  0.40758500  1
  Rh  Rh247  1  0.19208055  0.79875090  0.59954935  1
  Rh  Rh248  1  0.59826465  0.61000075  0.79290021  1
  Rh  Rh249  1  0.61090498  0.80401035  0.41075268  1
