# generated using pymatgen
data_ZrScNbPdRh
_symmetry_space_group_name_H-M   'P 1'
_cell_length_a   16.56012448
_cell_length_b   16.55592892
_cell_length_c   16.55843558
_cell_angle_alpha   89.97799601
_cell_angle_beta   90.00430008
_cell_angle_gamma   89.98892927
_symmetry_Int_Tables_number   1
_chemical_formula_structural   ZrScNbPdRh
_chemical_formula_sum   'Zr50 Sc50 Nb50 Pd50 Rh50'
_cell_volume   4539.79677000
_cell_formula_units_Z   50
loop_
 _symmetry_equiv_pos_site_id
 _symmetry_equiv_pos_as_xyz
  1  'x, y, z'
loop_
 _atom_site_type_symbol
 _atom_site_label
 _atom_site_symmetry_multiplicity
 _atom_site_fract_x
 _atom_site_fract_y
 _atom_site_fract_z
 _atom_site_occupancy
  Zr  Zr0  1  0.49743162  0.48504448  0.49530701  1
  Zr  Zr1  1  0.09814646  0.50036752  0.10468174  1
  Zr  Zr2  1  0.30146207  0.10427750  0.11473162  1
  Zr  Zr3  1  0.49794910  0.90856814  0.69268654  1
  Zr  Zr4  1  0.29755965  0.29903571  0.30121013  1
  Zr  Zr5  1  0.09685536  0.29810457  0.70372417  1
  Zr  Zr6  1  0.50159356  0.69952976  0.69909502  1
  Zr  Zr7  1  0.10151927  0.69926734  0.09839249  1
  Zr  Zr8  1  0.29415175  0.70574420  0.30041985  1
  Zr  Zr9  1  0.90955841  0.29998495  0.70333325  1
  Zr  Zr10  1  0.70899461  0.30165192  0.09774918  1
  Zr  Zr11  1  0.69559285  0.29940142  0.49831582  1
  Zr  Zr12  1  0.69547310  0.69859873  0.69613215  1
  Zr  Zr13  1  0.50521347  0.09046621  0.50141282  1
  Zr  Zr14  1  0.29974537  0.69386833  0.90608850  1
  Zr  Zr15  1  0.49898223  0.51068847  0.90237766  1
  Zr  Zr16  1  0.09586905  0.89442434  0.10944017  1
  Zr  Zr17  1  0.11505179  0.28989800  0.50562741  1
  Zr  Zr18  1  0.69391180  0.50147740  0.29386355  1
  Zr  Zr19  1  0.69908091  0.69687658  0.50173776  1
  Zr  Zr20  1  0.70184019  0.29986213  0.69378968  1
  Zr  Zr21  1  0.10167687  0.69609145  0.30132357  1
  Zr  Zr22  1  0.50423923  0.30477711  0.69390055  1
  Zr  Zr23  1  0.48889714  0.09725750  0.29594822  1
  Zr  Zr24  1  0.90480288  0.29661890  0.30374018  1
  Zr  Zr25  1  0.49913478  0.09904888  0.89656581  1
  Zr  Zr26  1  0.90433869  0.28766534  0.10124805  1
  Zr  Zr27  1  0.71097028  0.30585690  0.89868520  1
  Zr  Zr28  1  0.91191193  0.89527605  0.49472089  1
  Zr  Zr29  1  0.29925976  0.71349483  0.09454233  1
  Zr  Zr30  1  0.90970551  0.50304013  0.69760693  1
  Zr  Zr31  1  0.70117878  0.89616801  0.90113229  1
  Zr  Zr32  1  0.70578700  0.10459091  0.49935211  1
  Zr  Zr33  1  0.10857003  0.49863944  0.89655889  1
  Zr  Zr34  1  0.68547470  0.10029442  0.69671470  1
  Zr  Zr35  1  0.70073258  0.09455426  0.30631673  1
  Zr  Zr36  1  0.70263558  0.09756778  0.89927710  1
  Zr  Zr37  1  0.49529995  0.30380080  0.89955097  1
  Zr  Zr38  1  0.70252721  0.29805423  0.30312946  1
  Zr  Zr39  1  0.70616545  0.50679951  0.50784173  1
  Zr  Zr40  1  0.49086686  0.10620896  0.09730020  1
  Zr  Zr41  1  0.48940939  0.89981895  0.49788798  1
  Zr  Zr42  1  0.50845893  0.31401229  0.30994292  1
  Zr  Zr43  1  0.49647673  0.70449487  0.50310268  1
  Zr  Zr44  1  0.29473797  0.90958353  0.29798474  1
  Zr  Zr45  1  0.90188192  0.50030487  0.09603277  1
  Zr  Zr46  1  0.28174331  0.10165240  0.49520577  1
  Zr  Zr47  1  0.69917965  0.50853761  0.70491067  1
  Zr  Zr48  1  0.29669584  0.30899853  0.90009776  1
  Zr  Zr49  1  0.90195693  0.89733599  0.90116077  1
  Sc  Sc50  1  0.90034649  0.09894453  0.49686856  1
  Sc  Sc51  1  0.89915783  0.49685015  0.89054401  1
  Sc  Sc52  1  0.50124320  0.50204479  0.69737546  1
  Sc  Sc53  1  0.10731025  0.09435662  0.29984206  1
  Sc  Sc54  1  0.28276093  0.50024519  0.30101558  1
  Sc  Sc55  1  0.91347599  0.89210810  0.70661529  1
  Sc  Sc56  1  0.29929971  0.50184790  0.89832963  1
  Sc  Sc57  1  0.72058231  0.09400387  0.10475217  1
  Sc  Sc58  1  0.09653730  0.90504263  0.89406506  1
  Sc  Sc59  1  0.09887702  0.09499156  0.69936499  1
  Sc  Sc60  1  0.29747834  0.49331980  0.49993504  1
  Sc  Sc61  1  0.90603553  0.90211176  0.29634923  1
  Sc  Sc62  1  0.10224019  0.90194721  0.50102453  1
  Sc  Sc63  1  0.10301672  0.69873199  0.91214853  1
  Sc  Sc64  1  0.90163261  0.69333714  0.50058564  1
  Sc  Sc65  1  0.29734565  0.90220480  0.90734519  1
  Sc  Sc66  1  0.90703317  0.50180835  0.30467183  1
  Sc  Sc67  1  0.69712527  0.50406717  0.10188129  1
  Sc  Sc68  1  0.69839332  0.90100389  0.28718485  1
  Sc  Sc69  1  0.90711575  0.69957937  0.69881642  1
  Sc  Sc70  1  0.50010921  0.88918177  0.10117840  1
  Sc  Sc71  1  0.69013568  0.70018054  0.10784729  1
  Sc  Sc72  1  0.29529553  0.50117766  0.09535403  1
  Sc  Sc73  1  0.49265936  0.30120911  0.10145816  1
  Sc  Sc74  1  0.29999094  0.69477249  0.68981837  1
  Sc  Sc75  1  0.51200716  0.50746122  0.10242946  1
  Sc  Sc76  1  0.91099916  0.09211706  0.90490769  1
  Sc  Sc77  1  0.90998160  0.10710798  0.69415867  1
  Sc  Sc78  1  0.49837452  0.90149279  0.30427692  1
  Sc  Sc79  1  0.10400255  0.69503515  0.69232564  1
  Sc  Sc80  1  0.91161688  0.69844913  0.09931644  1
  Sc  Sc81  1  0.29290141  0.89750344  0.50034473  1
  Sc  Sc82  1  0.30592051  0.09564247  0.90678669  1
  Sc  Sc83  1  0.90260970  0.09407879  0.29945556  1
  Sc  Sc84  1  0.10167368  0.31061607  0.29195475  1
  Sc  Sc85  1  0.49995806  0.89710680  0.90556015  1
  Sc  Sc86  1  0.89297791  0.29663191  0.50642166  1
  Sc  Sc87  1  0.10042550  0.50195946  0.49420854  1
  Sc  Sc88  1  0.89891590  0.90661778  0.10449653  1
  Sc  Sc89  1  0.89889157  0.50033373  0.49921907  1
  Sc  Sc90  1  0.10383196  0.90299861  0.69716392  1
  Sc  Sc91  1  0.89892033  0.69386693  0.30066470  1
  Sc  Sc92  1  0.29653984  0.90725716  0.69363806  1
  Sc  Sc93  1  0.91264038  0.70095591  0.90059841  1
  Sc  Sc94  1  0.68372464  0.70080648  0.89314328  1
  Sc  Sc95  1  0.29799686  0.29657877  0.10112274  1
  Sc  Sc96  1  0.29338202  0.70222265  0.50080762  1
  Sc  Sc97  1  0.10203147  0.71200714  0.49635254  1
  Sc  Sc98  1  0.29028783  0.50186261  0.70550419  1
  Sc  Sc99  1  0.68572088  0.90852082  0.49222019  1
  Nb  Nb100  1  0.49711843  0.69729623  0.09104870  1
  Nb  Nb101  1  0.09577748  0.89513574  0.30829895  1
  Nb  Nb102  1  0.70304833  0.89784098  0.70326549  1
  Nb  Nb103  1  0.49489162  0.70185359  0.91145019  1
  Nb  Nb104  1  0.30352085  0.10248674  0.30223296  1
  Nb  Nb105  1  0.49207964  0.30339807  0.49779170  1
  Nb  Nb106  1  0.49951679  0.70026626  0.29738156  1
  Nb  Nb107  1  0.70312247  0.50188204  0.90216458  1
  Nb  Nb108  1  0.09750145  0.29276472  0.09548038  1
  Nb  Nb109  1  0.09162965  0.10879492  0.09697747  1
  Nb  Nb110  1  0.28945825  0.89774930  0.09887365  1
  Nb  Nb111  1  0.09889882  0.29379515  0.89887725  1
  Nb  Nb112  1  0.91317531  0.09564457  0.10740261  1
  Nb  Nb113  1  0.70372088  0.90004272  0.09562533  1
  Nb  Nb114  1  0.29759962  0.09915120  0.70387500  1
  Nb  Nb115  1  0.70014231  0.69690361  0.30310490  1
  Nb  Nb116  1  0.50246837  0.50024200  0.29877173  1
  Nb  Nb117  1  0.49220740  0.10075964  0.69994523  1
  Nb  Nb118  1  0.09979849  0.50326293  0.29542524  1
  Nb  Nb119  1  0.09591376  0.09875827  0.49760711  1
  Nb  Nb120  1  0.30195904  0.29703344  0.50300846  1
  Nb  Nb121  1  0.90205821  0.30177955  0.89712986  1
  Nb  Nb122  1  0.10614805  0.09914298  0.89784680  1
  Nb  Nb123  1  0.29245991  0.29379734  0.69419109  1
  Nb  Nb124  1  0.09761127  0.49641769  0.70524141  1
  Nb  Nb125  1  0.60179812  0.19831374  0.19761162  1
  Nb  Nb126  1  0.60418884  0.00316633  0.00565313  1
  Nb  Nb127  1  0.39675935  0.19917635  0.59891872  1
  Nb  Nb128  1  0.60494029  0.39837723  -0.00482274  1
  Nb  Nb129  1  0.40378997  0.59812879  0.39144434  1
  Nb  Nb130  1  0.20808543  0.79662302  0.80113509  1
  Nb  Nb131  1  0.20192218  0.19749026  0.80306021  1
  Nb  Nb132  1  0.39585382  0.20012787  0.79047110  1
  Nb  Nb133  1  0.79539822  0.79705023  0.40067615  1
  Nb  Nb134  1  0.79818643  -0.00801203  0.60590838  1
  Nb  Nb135  1  0.79607247  0.60422861  -0.00459089  1
  Nb  Nb136  1  0.80419469  0.39824822  0.19933701  1
  Nb  Nb137  1  0.40134913  0.41045156  0.20713848  1
  Nb  Nb138  1  0.79674798  0.79595613  0.00289961  1
  Nb  Nb139  1  0.19342465  0.00612095  0.01154943  1
  Nb  Nb140  1  0.40337773  0.60367016  0.20331009  1
  Nb  Nb141  1  0.80082156  0.00081664  0.79260785  1
  Nb  Nb142  1  0.39692473  0.20316845  0.40695269  1
  Nb  Nb143  1  0.80458779  0.19817310  0.80067198  1
  Nb  Nb144  1  0.60449122  0.19958552  0.00271494  1
  Nb  Nb145  1  0.00326150  0.38878128  -0.00414325  1
  Nb  Nb146  1  0.59466689  0.60258171  0.39629187  1
  Nb  Nb147  1  0.00829880  0.19942232  0.40171527  1
  Nb  Nb148  1  0.39725600  0.79690837  0.80105670  1
  Nb  Nb149  1  0.79708770  0.80684093  0.59749311  1
  Pd  Pd150  1  0.39903320  -0.00746210  0.00972235  1
  Pd  Pd151  1  0.80343993  0.40365888  0.60699408  1
  Pd  Pd152  1  0.00947098  0.60458608  0.80440576  1
  Pd  Pd153  1  0.59788783  0.00572718  0.19153414  1
  Pd  Pd154  1  0.80159639  0.19652368  0.20709255  1
  Pd  Pd155  1  -0.00433483  -0.00191098  0.60142679  1
  Pd  Pd156  1  0.38703974  0.00696275  0.59141615  1
  Pd  Pd157  1  0.00736726  -0.00614022  0.00334568  1
  Pd  Pd158  1  0.58742578  0.80444675  0.79930183  1
  Pd  Pd159  1  0.79899903  0.40574043  0.39518758  1
  Pd  Pd160  1  0.39411382  -0.00560175  0.80287270  1
  Pd  Pd161  1  0.01902874  0.79208647  0.79827975  1
  Pd  Pd162  1  0.59950740  -0.00757561  0.80424711  1
  Pd  Pd163  1  0.00308049  0.60234986  0.40315538  1
  Pd  Pd164  1  -0.00552814  0.79437727  0.20562458  1
  Pd  Pd165  1  0.59906780  0.20515591  0.80467352  1
  Pd  Pd166  1  0.00700449  0.60099284  0.59198610  1
  Pd  Pd167  1  0.59130875  0.20198065  0.59313881  1
  Pd  Pd168  1  0.80254123  0.61175576  0.80604687  1
  Pd  Pd169  1  0.20627586  0.60383432  0.19376252  1
  Pd  Pd170  1  0.39208343  0.79830132  0.39948884  1
  Pd  Pd171  1  0.80348639  0.79734944  0.19992304  1
  Pd  Pd172  1  0.59042264  0.19411752  0.39644023  1
  Pd  Pd173  1  0.59747908  0.79836550  0.19936413  1
  Pd  Pd174  1  0.19263856  0.00196112  0.19746706  1
  Pd  Pd175  1  0.80343886  0.39992792  0.79003498  1
  Pd  Pd176  1  0.40135523  -0.01217788  0.19276617  1
  Pd  Pd177  1  0.80371934  0.59841863  0.19436812  1
  Pd  Pd178  1  0.40711221  0.41028336  0.01189244  1
  Pd  Pd179  1  0.60051384  0.40691782  0.80362482  1
  Pd  Pd180  1  0.60441885  0.80007152  0.39359317  1
  Pd  Pd181  1  0.19452642  0.59512198  0.59359906  1
  Pd  Pd182  1  0.40064001  0.80197431  0.20117742  1
  Pd  Pd183  1  0.80251721  -0.01130332  0.40271094  1
  Pd  Pd184  1  0.19526794  0.39986323  0.40092432  1
  Pd  Pd185  1  0.39185232  0.40004871  0.60925585  1
  Pd  Pd186  1  0.20805640  0.19371076  -0.00352865  1
  Pd  Pd187  1  0.39396816  0.39926320  0.79000815  1
  Pd  Pd188  1  0.00731452  0.39189349  0.40917955  1
  Pd  Pd189  1  0.19347762  0.39847808  0.00676095  1
  Pd  Pd190  1  0.00566806  0.39815769  0.58978033  1
  Pd  Pd191  1  0.19104614  0.20140296  0.20446247  1
  Pd  Pd192  1  0.80300602  0.79599464  0.80032427  1
  Pd  Pd193  1  0.39898362  0.60614934  0.79741183  1
  Pd  Pd194  1  0.60336386  0.80913923  0.59871631  1
  Pd  Pd195  1  0.39867627  0.59383535  0.59099283  1
  Pd  Pd196  1  -0.00485999  0.19972754  -0.00901085  1
  Pd  Pd197  1  -0.00342470  0.39944143  0.19463256  1
  Pd  Pd198  1  0.80834771  0.18800913  -0.00549381  1
  Pd  Pd199  1  0.19548268  0.40716199  0.60386978  1
  Rh  Rh200  1  0.39703378  0.59629353  0.00964548  1
  Rh  Rh201  1  0.80034698  0.19187526  0.60809080  1
  Rh  Rh202  1  0.39547078  0.80149819  0.60625616  1
  Rh  Rh203  1  0.40910295  0.21708452  0.21606532  1
  Rh  Rh204  1  0.80542263  -0.00260587  0.20298211  1
  Rh  Rh205  1  0.19842384  0.39381480  0.79537820  1
  Rh  Rh206  1  0.60475727  0.40299442  0.59680914  1
  Rh  Rh207  1  0.00557507  0.40222859  0.80720026  1
  Rh  Rh208  1  0.20227822  0.39717571  0.19262720  1
  Rh  Rh209  1  0.59406466  0.59950949  0.80376589  1
  Rh  Rh210  1  0.00675718  0.00535948  0.39700226  1
  Rh  Rh211  1  -0.00228755  0.00374072  0.79602998  1
  Rh  Rh212  1  0.59950821  0.38917006  0.18789897  1
  Rh  Rh213  1  0.19600376  -0.00538974  0.39827504  1
  Rh  Rh214  1  0.61401958  0.41058783  0.40962451  1
  Rh  Rh215  1  0.00361879  0.20066979  0.58939829  1
  Rh  Rh216  1  0.81187716  0.19731429  0.39960742  1
  Rh  Rh217  1  0.00735613  0.19411045  0.21155431  1
  Rh  Rh218  1  0.39794117  0.80515140  -0.00432304  1
  Rh  Rh219  1  0.20177001  -0.00016478  0.80823525  1
  Rh  Rh220  1  0.19938440  0.80621479  0.39804860  1
  Rh  Rh221  1  0.19531007  0.80183344  0.20710845  1
  Rh  Rh222  1  0.20052140  0.59709732  0.00390606  1
  Rh  Rh223  1  -0.00508864  0.58593193  -0.00867142  1
  Rh  Rh224  1  0.79482567  0.60104713  0.39614140  1
  Rh  Rh225  1  0.38699466  0.40245924  0.39228557  1
  Rh  Rh226  1  0.80129276  -0.00664036  -0.00317810  1
  Rh  Rh227  1  0.19998483  0.80306519  0.60750628  1
  Rh  Rh228  1  0.20138944  0.60075474  0.40279172  1
  Rh  Rh229  1  0.81028668  0.60630523  0.60954116  1
  Rh  Rh230  1  0.19014407  0.81316041  -0.00812338  1
  Rh  Rh231  1  0.19752253  0.20233582  0.39099217  1
  Rh  Rh232  1  0.19753470  0.18955722  0.61018351  1
  Rh  Rh233  1  0.00715372  0.00340667  0.20388003  1
  Rh  Rh234  1  0.00168020  0.60104913  0.20524734  1
  Rh  Rh235  1  0.39148631  0.00546833  0.40416142  1
  Rh  Rh236  1  0.59357548  0.61103583  0.20338824  1
  Rh  Rh237  1  0.80351955  0.41252068  0.00408352  1
  Rh  Rh238  1  0.19585638  0.60671050  0.79903672  1
  Rh  Rh239  1  0.59612426  -0.00105400  0.39294336  1
  Rh  Rh240  1  0.19669685  0.00368621  0.59848316  1
  Rh  Rh241  1  0.39779400  0.20388437  -0.01068180  1
  Rh  Rh242  1  0.60667479  0.59867586  -0.00416598  1
  Rh  Rh243  1  -0.00532098  0.79471313  0.39482673  1
  Rh  Rh244  1  0.60313665  -0.00371789  0.59985497  1
  Rh  Rh245  1  0.00215985  0.19334214  0.80743276  1
  Rh  Rh246  1  -0.00411601  0.80736898  0.00388793  1
  Rh  Rh247  1  0.58861666  0.59208135  0.59104853  1
  Rh  Rh248  1  0.60501343  0.80233086  0.00611213  1
  Rh  Rh249  1  -0.00163974  0.79828674  0.59942797  1
