# generated using pymatgen
data_ZrScNbPdRh
_symmetry_space_group_name_H-M   'P 1'
_cell_length_a   16.55467002
_cell_length_b   16.55274723
_cell_length_c   16.55248244
_cell_angle_alpha   90.00820627
_cell_angle_beta   90.00554943
_cell_angle_gamma   89.95737209
_symmetry_Int_Tables_number   1
_chemical_formula_structural   ZrScNbPdRh
_chemical_formula_sum   'Zr50 Sc50 Nb50 Pd50 Rh50'
_cell_volume   4535.79711843
_cell_formula_units_Z   50
loop_
 _symmetry_equiv_pos_site_id
 _symmetry_equiv_pos_as_xyz
  1  'x, y, z'
loop_
 _atom_site_type_symbol
 _atom_site_label
 _atom_site_symmetry_multiplicity
 _atom_site_fract_x
 _atom_site_fract_y
 _atom_site_fract_z
 _atom_site_occupancy
  Zr  Zr0  1  0.49442099  0.69281327  0.09343506  1
  Zr  Zr1  1  0.50402167  0.50375687  0.89918580  1
  Zr  Zr2  1  0.90324855  0.09305141  0.10355948  1
  Zr  Zr3  1  0.69412121  0.30359858  0.30929313  1
  Zr  Zr4  1  0.50825152  0.30813637  0.70588294  1
  Zr  Zr5  1  0.69186167  0.50282414  0.29915020  1
  Zr  Zr6  1  0.90272991  0.89525649  0.90795357  1
  Zr  Zr7  1  0.50443443  0.69897337  0.89535150  1
  Zr  Zr8  1  0.89417487  0.89941310  0.70190167  1
  Zr  Zr9  1  0.10102236  0.30138852  0.89933958  1
  Zr  Zr10  1  0.10419838  0.90066090  0.90234005  1
  Zr  Zr11  1  0.90032669  0.49658755  0.30123837  1
  Zr  Zr12  1  0.90114867  0.49913698  0.69765659  1
  Zr  Zr13  1  0.49751414  0.10318298  0.49663436  1
  Zr  Zr14  1  0.70208935  0.49355124  0.50165744  1
  Zr  Zr15  1  0.89027013  0.69919076  0.90147696  1
  Zr  Zr16  1  0.29674416  0.29380264  0.09759626  1
  Zr  Zr17  1  0.49980843  0.29887213  0.30134081  1
  Zr  Zr18  1  0.29354736  0.49978631  0.69649695  1
  Zr  Zr19  1  0.49867378  0.91210832  0.29457609  1
  Zr  Zr20  1  0.69814812  0.89410306  0.28632113  1
  Zr  Zr21  1  0.10625248  0.69510093  0.89857157  1
  Zr  Zr22  1  0.70968872  0.09608722  0.09604371  1
  Zr  Zr23  1  0.50038746  0.90104317  0.90464882  1
  Zr  Zr24  1  0.89332484  0.49751855  0.89766572  1
  Zr  Zr25  1  0.49381943  0.50054551  0.30375959  1
  Zr  Zr26  1  0.50172174  0.10227914  0.30649518  1
  Zr  Zr27  1  0.90471244  0.49382062  0.10007479  1
  Zr  Zr28  1  0.09574428  0.29792567  0.10432219  1
  Zr  Zr29  1  0.10924427  0.69548178  0.69111881  1
  Zr  Zr30  1  0.89713362  0.09708340  0.90116511  1
  Zr  Zr31  1  0.09275471  0.70643885  0.30158992  1
  Zr  Zr32  1  0.49996180  0.90549618  0.49557295  1
  Zr  Zr33  1  0.89709850  0.29962907  0.70023718  1
  Zr  Zr34  1  0.70068257  0.69958600  0.71234268  1
  Zr  Zr35  1  0.49510841  0.29452156  0.49595863  1
  Zr  Zr36  1  0.69763069  0.29952197  0.10788253  1
  Zr  Zr37  1  0.90187225  0.89834949  0.50283547  1
  Zr  Zr38  1  0.09541662  0.90217774  0.10260152  1
  Zr  Zr39  1  0.29881259  0.69314011  0.09208161  1
  Zr  Zr40  1  0.29720938  0.09485553  0.70033479  1
  Zr  Zr41  1  0.49683735  0.69465272  0.50288604  1
  Zr  Zr42  1  0.70416458  0.89771798  0.69852951  1
  Zr  Zr43  1  0.91555956  0.70279821  0.49809628  1
  Zr  Zr44  1  0.30575625  0.49647570  0.49147283  1
  Zr  Zr45  1  0.70292606  0.89837484  0.90176100  1
  Zr  Zr46  1  0.29527495  0.29576269  0.69691870  1
  Zr  Zr47  1  0.09960441  0.29941115  0.30665685  1
  Zr  Zr48  1  0.09137192  0.48779319  0.29636816  1
  Zr  Zr49  1  0.90124994  0.70230943  0.29557539  1
  Sc  Sc50  1  0.10011863  0.49818947  0.70084568  1
  Sc  Sc51  1  0.28646762  0.70829150  0.30009753  1
  Sc  Sc52  1  0.90218861  0.29492007  0.09264015  1
  Sc  Sc53  1  0.09933621  0.49955061  0.89106190  1
  Sc  Sc54  1  0.70365890  0.90412499  0.10011178  1
  Sc  Sc55  1  0.29967833  0.90141172  0.88786162  1
  Sc  Sc56  1  0.30260879  0.70150705  0.89759503  1
  Sc  Sc57  1  0.89790417  0.09884975  0.49701151  1
  Sc  Sc58  1  0.29754518  0.29426432  0.49819601  1
  Sc  Sc59  1  0.29367399  0.10284723  0.90428593  1
  Sc  Sc60  1  0.09763066  0.09758283  0.30039525  1
  Sc  Sc61  1  0.09233162  0.70543723  0.10686802  1
  Sc  Sc62  1  0.30344999  0.10471529  0.50942550  1
  Sc  Sc63  1  0.50525425  0.51018541  0.50031198  1
  Sc  Sc64  1  0.10062133  0.10352137  0.49799492  1
  Sc  Sc65  1  0.29813573  0.69867333  0.51134618  1
  Sc  Sc66  1  0.50529792  0.69478664  0.29663914  1
  Sc  Sc67  1  0.90030964  0.09665391  0.30127738  1
  Sc  Sc68  1  0.11320927  0.90087849  0.70304705  1
  Sc  Sc69  1  0.70120774  0.49532590  0.69507095  1
  Sc  Sc70  1  0.71168158  0.90046902  0.49964141  1
  Sc  Sc71  1  0.10325227  0.10780654  0.70235322  1
  Sc  Sc72  1  0.49003247  0.90209152  0.71096018  1
  Sc  Sc73  1  0.70634248  0.10275643  0.49256097  1
  Sc  Sc74  1  0.10594654  0.09888927  0.89754298  1
  Sc  Sc75  1  0.29073484  0.51109055  0.89783406  1
  Sc  Sc76  1  0.90425804  0.30408264  0.30621745  1
  Sc  Sc77  1  0.90184504  0.71052580  0.10407338  1
  Sc  Sc78  1  0.29478697  0.10228478  0.09859354  1
  Sc  Sc79  1  0.49445443  0.09849653  0.69930453  1
  Sc  Sc80  1  0.70508490  0.09374419  0.70086236  1
  Sc  Sc81  1  0.90013918  0.69800321  0.69687273  1
  Sc  Sc82  1  0.90104681  0.89796928  0.30281978  1
  Sc  Sc83  1  0.90478169  0.30787151  0.89894186  1
  Sc  Sc84  1  0.10382850  0.89430563  0.49318515  1
  Sc  Sc85  1  0.29102335  0.90776971  0.10717803  1
  Sc  Sc86  1  0.51058847  0.90240626  0.10352426  1
  Sc  Sc87  1  0.49964514  0.29684108  0.10625029  1
  Sc  Sc88  1  0.69750313  0.69167560  0.50189614  1
  Sc  Sc89  1  0.70404369  0.09948128  0.29450237  1
  Sc  Sc90  1  0.50328447  0.09458616  0.89532893  1
  Sc  Sc91  1  0.70249732  0.30945429  0.89048299  1
  Sc  Sc92  1  0.29576610  0.29876241  0.89931161  1
  Sc  Sc93  1  0.09979502  0.30245693  0.69972606  1
  Sc  Sc94  1  0.49766575  0.09841473  0.10688701  1
  Sc  Sc95  1  0.29549298  0.30496817  0.31107327  1
  Sc  Sc96  1  0.89355040  0.30354333  0.50111491  1
  Sc  Sc97  1  0.30232917  0.08921724  0.29344757  1
  Sc  Sc98  1  0.50285316  0.30392744  0.89607411  1
  Sc  Sc99  1  0.09218054  0.49850839  0.50750550  1
  Nb  Nb100  1  0.69890033  0.70352382  0.10843767  1
  Nb  Nb101  1  0.89570639  0.50160295  0.49810192  1
  Nb  Nb102  1  0.10120375  0.69806838  0.49776218  1
  Nb  Nb103  1  0.29400803  0.49712516  0.30222530  1
  Nb  Nb104  1  0.90369703  0.89796087  0.09664094  1
  Nb  Nb105  1  0.70538458  0.51322286  0.90871414  1
  Nb  Nb106  1  0.70150779  0.30075902  0.69388900  1
  Nb  Nb107  1  0.29532110  0.89473028  0.69507736  1
  Nb  Nb108  1  0.90300088  0.09676383  0.70031361  1
  Nb  Nb109  1  0.09751534  0.49867246  0.10077220  1
  Nb  Nb110  1  0.29718817  0.89732584  0.49932134  1
  Nb  Nb111  1  0.30029105  0.50456349  0.09888611  1
  Nb  Nb112  1  0.69870922  0.09766029  0.90683202  1
  Nb  Nb113  1  0.29264282  0.89775838  0.29972068  1
  Nb  Nb114  1  0.30189029  0.70390823  0.69580823  1
  Nb  Nb115  1  0.49942868  0.50052315  0.69495520  1
  Nb  Nb116  1  0.10494278  0.09954537  0.09925332  1
  Nb  Nb117  1  0.70346087  0.70273847  0.29347276  1
  Nb  Nb118  1  0.69870512  0.30246193  0.50799606  1
  Nb  Nb119  1  0.70130957  0.69437225  0.90641874  1
  Nb  Nb120  1  0.10307302  0.29721985  0.49565563  1
  Nb  Nb121  1  0.12232798  0.89148361  0.29698909  1
  Nb  Nb122  1  0.49447316  0.50427769  0.10083576  1
  Nb  Nb123  1  0.49943091  0.69455803  0.69291799  1
  Nb  Nb124  1  0.69600786  0.50211119  0.09942524  1
  Nb  Nb125  1  0.39712995  0.80317043  0.20375849  1
  Nb  Nb126  1  0.39867927  0.80639475  0.39700166  1
  Nb  Nb127  1  0.39863859  0.40707463  0.00523687  1
  Nb  Nb128  1  0.79377993  0.40248186  0.19986673  1
  Nb  Nb129  1  0.40337871  0.40098378  0.60299160  1
  Nb  Nb130  1  0.59856769  0.79955643  0.39924675  1
  Nb  Nb131  1  0.19314480  0.59688294  0.39695627  1
  Nb  Nb132  1  0.60000094  0.40628800  0.00472655  1
  Nb  Nb133  1  0.19687245  0.59132972  0.20195682  1
  Nb  Nb134  1  0.80343833  0.59999386  0.39679894  1
  Nb  Nb135  1  0.60470700  0.20154707  0.60078974  1
  Nb  Nb136  1  0.79906077  0.19664636  0.79701687  1
  Nb  Nb137  1  0.60581483  0.79051575  -0.00013846  1
  Nb  Nb138  1  0.59540742  0.80142888  0.60094175  1
  Nb  Nb139  1  -0.00248172  0.00026863  0.60451610  1
  Nb  Nb140  1  0.39936570  0.20216610  0.79728118  1
  Nb  Nb141  1  0.39419806  0.40811142  0.19735828  1
  Nb  Nb142  1  0.60593253  0.20119825  -0.00308493  1
  Nb  Nb143  1  0.00268042  0.79870753  0.80158375  1
  Nb  Nb144  1  0.39976218  -0.00102657  -0.00010680  1
  Nb  Nb145  1  0.60042962  -0.00103115  0.59823359  1
  Nb  Nb146  1  0.19833869  0.80173067  0.00107791  1
  Nb  Nb147  1  0.20070338  0.40596334  0.00883251  1
  Nb  Nb148  1  -0.00117634  0.59720148  0.00093384  1
  Nb  Nb149  1  0.40396741  0.60175550  0.78706300  1
  Pd  Pd150  1  0.20436279  0.39990618  0.19636187  1
  Pd  Pd151  1  0.38690839  0.61452171  0.39234567  1
  Pd  Pd152  1  0.01128292  0.80862618  0.60903450  1
  Pd  Pd153  1  0.59811037  0.80256651  0.79988020  1
  Pd  Pd154  1  0.79440805  0.78781853  0.59562217  1
  Pd  Pd155  1  0.20307843  0.39761321  0.59142102  1
  Pd  Pd156  1  0.00616535  -0.00663681  0.40195536  1
  Pd  Pd157  1  -0.00492487  0.20137086  0.80348720  1
  Pd  Pd158  1  0.80132467  0.20445743  0.39649313  1
  Pd  Pd159  1  0.79410385  0.79110278  0.40224498  1
  Pd  Pd160  1  0.38717772  0.00082769  0.40270714  1
  Pd  Pd161  1  0.59243383  0.40240157  0.40927908  1
  Pd  Pd162  1  0.39230366  0.20577108  0.20762341  1
  Pd  Pd163  1  0.80187641  0.60436699  0.59626746  1
  Pd  Pd164  1  0.00506640  -0.00567569  0.20932172  1
  Pd  Pd165  1  0.60142259  0.19166997  0.19754361  1
  Pd  Pd166  1  -0.00260227  0.60543212  0.80203509  1
  Pd  Pd167  1  -0.00541933  0.20120119  0.40526042  1
  Pd  Pd168  1  0.79671828  0.19341708  0.60385787  1
  Pd  Pd169  1  -0.00520983  0.20030796  0.20357543  1
  Pd  Pd170  1  0.80284794  0.59657142  0.19814549  1
  Pd  Pd171  1  0.39670990  0.81228612  0.00976165  1
  Pd  Pd172  1  0.00734770  -0.00570545  0.79362659  1
  Pd  Pd173  1  0.20668250  0.18882117  0.39611051  1
  Pd  Pd174  1  0.20376194  0.00698332  0.40582221  1
  Pd  Pd175  1  0.20221973  0.19573774  0.20897422  1
  Pd  Pd176  1  0.00118192  0.59419312  0.40026845  1
  Pd  Pd177  1  0.80857874  0.20797023  0.20699046  1
  Pd  Pd178  1  0.00475360  0.00843576  -0.00091342  1
  Pd  Pd179  1  0.59714766  0.60037916  0.19730002  1
  Pd  Pd180  1  0.60377224  0.19246679  0.79895953  1
  Pd  Pd181  1  0.39775229  0.79417755  0.79597559  1
  Pd  Pd182  1  0.61239225  0.41331005  0.80473173  1
  Pd  Pd183  1  0.60216818  0.00054066  0.79431483  1
  Pd  Pd184  1  0.38976884  0.40296247  0.80264078  1
  Pd  Pd185  1  0.79195391  0.39514222  0.00409862  1
  Pd  Pd186  1  0.38891888  0.60510429  0.21204907  1
  Pd  Pd187  1  0.80719408  0.60692544  0.01638825  1
  Pd  Pd188  1  0.40205887  -0.00635555  0.60232409  1
  Pd  Pd189  1  -0.00276918  0.39488083  0.59653792  1
  Pd  Pd190  1  0.19180466  -0.00033111  0.59353623  1
  Pd  Pd191  1  0.00173593  0.19635466  0.59494172  1
  Pd  Pd192  1  0.41199199  0.19770540  -0.00982705  1
  Pd  Pd193  1  0.61427896  -0.00412598  0.40202104  1
  Pd  Pd194  1  0.79819462  0.00239598  0.80539600  1
  Pd  Pd195  1  0.40454926  0.80874135  0.59751591  1
  Pd  Pd196  1  0.60232980  0.59213414  0.79309205  1
  Pd  Pd197  1  0.79520889  0.21037808  -0.01168583  1
  Pd  Pd198  1  0.00377122  0.19237056  -0.00421920  1
  Pd  Pd199  1  0.79799740  -0.00288885  0.39290688  1
  Rh  Rh200  1  0.01008431  0.40692900  -0.00520426  1
  Rh  Rh201  1  0.19922483  0.39867036  0.80808813  1
  Rh  Rh202  1  0.20910958  0.60514621  0.78892132  1
  Rh  Rh203  1  0.79074906  0.79925394  0.00863084  1
  Rh  Rh204  1  0.79691752  0.40084689  0.79576562  1
  Rh  Rh205  1  0.19263311  0.00675616  0.20056693  1
  Rh  Rh206  1  0.60661542  0.60412028  0.60641290  1
  Rh  Rh207  1  0.19103092  0.20229521  0.59850611  1
  Rh  Rh208  1  -0.00039463  0.40051499  0.79627922  1
  Rh  Rh209  1  0.18632220  0.60138391  0.01003694  1
  Rh  Rh210  1  0.00257721  0.59958631  0.19408660  1
  Rh  Rh211  1  0.19911120  0.80134178  0.59601971  1
  Rh  Rh212  1  0.00118637  0.39574917  0.41162086  1
  Rh  Rh213  1  0.20491491  0.20083210  0.79867925  1
  Rh  Rh214  1  0.39870570  0.59351029  -0.01637294  1
  Rh  Rh215  1  0.60453377  0.60235143  0.00698868  1
  Rh  Rh216  1  0.80493254  0.00641351  0.59626771  1
  Rh  Rh217  1  0.60552142  0.00927949  0.19709204  1
  Rh  Rh218  1  0.38986711  0.00910400  0.80712001  1
  Rh  Rh219  1  -0.00869859  0.38826242  0.19655225  1
  Rh  Rh220  1  0.59413330  0.00327764  0.00362991  1
  Rh  Rh221  1  0.19951040  0.79488757  0.80261530  1
  Rh  Rh222  1  0.79692329  0.59431671  0.79614960  1
  Rh  Rh223  1  0.61122870  0.60755079  0.39668931  1
  Rh  Rh224  1  0.20588186  0.79101844  0.41183910  1
  Rh  Rh225  1  0.39307530  0.59026025  0.60480831  1
  Rh  Rh226  1  0.60681060  0.19875318  0.40565762  1
  Rh  Rh227  1  0.59259427  0.39511931  0.59419781  1
  Rh  Rh228  1  0.18972087  0.40543725  0.40853648  1
  Rh  Rh229  1  0.00495491  0.80829685  0.39652425  1
  Rh  Rh230  1  0.80640732  0.80673313  0.19420670  1
  Rh  Rh231  1  0.39104351  0.19448890  0.39187672  1
  Rh  Rh232  1  0.19992225  0.59708558  0.59230683  1
  Rh  Rh233  1  0.39765080  -0.00535188  0.19124122  1
  Rh  Rh234  1  0.00723841  0.78908233  -0.00935588  1
  Rh  Rh235  1  0.59389709  0.40664437  0.19384757  1
  Rh  Rh236  1  0.19002192  0.20396893  0.00147501  1
  Rh  Rh237  1  0.00027809  0.59838570  0.60046831  1
  Rh  Rh238  1  0.80490476  -0.00637740  0.00181386  1
  Rh  Rh239  1  0.80832368  -0.00618756  0.19880309  1
  Rh  Rh240  1  0.40461280  0.39743930  0.40089796  1
  Rh  Rh241  1  0.41031867  0.21160315  0.61198991  1
  Rh  Rh242  1  0.59168766  0.79331153  0.19789543  1
  Rh  Rh243  1  -0.00182618  0.81303759  0.20751198  1
  Rh  Rh244  1  0.79763962  0.40425329  0.39745239  1
  Rh  Rh245  1  0.20428194  -0.00334322  0.00115651  1
  Rh  Rh246  1  0.80467993  0.79856624  0.80329858  1
  Rh  Rh247  1  0.80539689  0.40093898  0.60135504  1
  Rh  Rh248  1  0.20311320  0.00196037  0.79810593  1
  Rh  Rh249  1  0.20612956  0.79137968  0.18747832  1
