# generated using pymatgen
data_ZrScNbPdRh
_symmetry_space_group_name_H-M   'P 1'
_cell_length_a   16.55205206
_cell_length_b   16.55789618
_cell_length_c   16.55447713
_cell_angle_alpha   90.00765310
_cell_angle_beta   89.96866240
_cell_angle_gamma   89.99961882
_symmetry_Int_Tables_number   1
_chemical_formula_structural   ZrScNbPdRh
_chemical_formula_sum   'Zr50 Sc50 Nb50 Pd50 Rh50'
_cell_volume   4537.03780552
_cell_formula_units_Z   50
loop_
 _symmetry_equiv_pos_site_id
 _symmetry_equiv_pos_as_xyz
  1  'x, y, z'
loop_
 _atom_site_type_symbol
 _atom_site_label
 _atom_site_symmetry_multiplicity
 _atom_site_fract_x
 _atom_site_fract_y
 _atom_site_fract_z
 _atom_site_occupancy
  Zr  Zr0  1  0.10533076  0.70031097  0.08529654  1
  Zr  Zr1  1  0.69235978  0.10016748  0.70383236  1
  Zr  Zr2  1  0.49628350  0.70389375  0.69870903  1
  Zr  Zr3  1  0.70339028  0.29631145  0.49312613  1
  Zr  Zr4  1  0.69957908  0.89592878  0.70484919  1
  Zr  Zr5  1  0.30943078  0.09686799  0.89879966  1
  Zr  Zr6  1  0.90031139  0.69700791  0.89638021  1
  Zr  Zr7  1  0.30065799  0.70090212  0.09362385  1
  Zr  Zr8  1  0.50459592  0.10450349  0.10026940  1
  Zr  Zr9  1  0.50319830  0.10290199  0.89116104  1
  Zr  Zr10  1  0.10180128  0.69982277  0.29830360  1
  Zr  Zr11  1  0.50903254  0.89544942  0.09559896  1
  Zr  Zr12  1  0.30479619  0.69779295  0.50710163  1
  Zr  Zr13  1  0.10214427  0.89966179  0.31043925  1
  Zr  Zr14  1  0.89209835  0.90617903  0.10973323  1
  Zr  Zr15  1  0.30820715  0.89203557  0.09544432  1
  Zr  Zr16  1  0.50872092  0.49172356  0.10141859  1
  Zr  Zr17  1  0.70117981  0.90318041  0.49157782  1
  Zr  Zr18  1  0.10095355  0.49694157  0.29102694  1
  Zr  Zr19  1  0.90063460  0.10607639  0.70323877  1
  Zr  Zr20  1  0.10724133  0.49978290  0.70377962  1
  Zr  Zr21  1  0.89898054  0.09339337  0.09875619  1
  Zr  Zr22  1  0.50443162  0.89896657  0.30090876  1
  Zr  Zr23  1  0.30743135  0.29486499  0.09830305  1
  Zr  Zr24  1  0.69748996  0.10294126  0.49784331  1
  Zr  Zr25  1  0.69756229  0.51231471  0.89799641  1
  Zr  Zr26  1  0.89597149  0.29673607  0.89892870  1
  Zr  Zr27  1  0.50066135  0.29900009  0.91142180  1
  Zr  Zr28  1  0.30087516  0.50135748  0.50790624  1
  Zr  Zr29  1  0.10007439  0.89479162  0.89381436  1
  Zr  Zr30  1  0.51427041  0.69854816  0.30035331  1
  Zr  Zr31  1  0.09794234  0.69675476  0.70490479  1
  Zr  Zr32  1  0.50587684  0.69928849  0.89699701  1
  Zr  Zr33  1  0.68619723  0.10069980  0.31063501  1
  Zr  Zr34  1  0.09549901  0.08791098  0.89562634  1
  Zr  Zr35  1  0.29525913  0.30009855  0.29452093  1
  Zr  Zr36  1  0.89515169  0.49691828  0.28925632  1
  Zr  Zr37  1  0.50506314  0.49449638  0.29733609  1
  Zr  Zr38  1  0.49991224  0.89587926  0.89306114  1
  Zr  Zr39  1  0.10399567  0.10454973  0.30790948  1
  Zr  Zr40  1  0.90547994  0.10698769  0.50236405  1
  Zr  Zr41  1  0.09722690  0.28505770  0.49624953  1
  Zr  Zr42  1  0.89490926  0.49989724  0.50106328  1
  Zr  Zr43  1  0.30284600  0.09658285  0.09773150  1
  Zr  Zr44  1  0.90005823  0.51121770  0.70047586  1
  Zr  Zr45  1  0.09670651  0.90062208  0.50637929  1
  Zr  Zr46  1  0.69980989  0.29332029  0.90251782  1
  Zr  Zr47  1  0.29613746  0.69697084  0.29819371  1
  Zr  Zr48  1  0.69510331  0.29536425  0.09710143  1
  Zr  Zr49  1  0.89758906  0.10024954  0.89807566  1
  Sc  Sc50  1  0.30255244  0.30430822  0.69618562  1
  Sc  Sc51  1  0.89658928  0.50653590  0.90494018  1
  Sc  Sc52  1  0.49818899  0.29639618  0.69947138  1
  Sc  Sc53  1  0.49041868  0.90317932  0.49819525  1
  Sc  Sc54  1  0.70393314  0.50234389  0.10377100  1
  Sc  Sc55  1  0.10938389  0.09792144  0.50447490  1
  Sc  Sc56  1  0.09621847  0.29355773  0.29630223  1
  Sc  Sc57  1  0.89576243  0.49935296  0.10294803  1
  Sc  Sc58  1  0.89276281  0.69890835  0.28543430  1
  Sc  Sc59  1  0.90949709  0.09302608  0.29794448  1
  Sc  Sc60  1  0.89580607  0.30921979  0.10039796  1
  Sc  Sc61  1  0.69835788  0.69995725  0.70862119  1
  Sc  Sc62  1  0.10024113  0.50904074  0.51022245  1
  Sc  Sc63  1  0.69454980  0.49647486  0.29302633  1
  Sc  Sc64  1  0.70243685  0.70646195  0.10574596  1
  Sc  Sc65  1  0.49656816  0.10234534  0.70216696  1
  Sc  Sc66  1  0.30314293  0.29413156  0.50748868  1
  Sc  Sc67  1  0.90981542  0.70781934  0.51137587  1
  Sc  Sc68  1  0.69369830  0.29683258  0.68588565  1
  Sc  Sc69  1  0.10720666  0.29412745  0.69505486  1
  Sc  Sc70  1  0.89670770  0.70278062  0.70511797  1
  Sc  Sc71  1  0.31124105  0.30168266  0.89395056  1
  Sc  Sc72  1  0.30793723  0.10386913  0.69648964  1
  Sc  Sc73  1  0.09625465  0.90419894  0.09124880  1
  Sc  Sc74  1  0.10362627  0.51115858  0.89791725  1
  Sc  Sc75  1  0.10062842  0.30530024  0.10788756  1
  Sc  Sc76  1  0.89905249  0.89684999  0.70257988  1
  Sc  Sc77  1  0.89096839  0.69958060  0.09621558  1
  Sc  Sc78  1  0.69055410  0.50613090  0.69493226  1
  Sc  Sc79  1  0.30892712  0.89400051  0.70006680  1
  Sc  Sc80  1  0.29584343  0.70314525  0.90044048  1
  Sc  Sc81  1  0.09595053  0.49983426  0.09807586  1
  Sc  Sc82  1  0.50054692  0.30652960  0.50517827  1
  Sc  Sc83  1  0.49746946  0.50349001  0.70009462  1
  Sc  Sc84  1  0.50210736  0.50279866  0.50528561  1
  Sc  Sc85  1  0.68905227  0.48972937  0.50121439  1
  Sc  Sc86  1  0.10065130  0.30767774  0.89330290  1
  Sc  Sc87  1  0.50664955  0.70597543  0.09839746  1
  Sc  Sc88  1  0.69669355  0.90045535  0.90014821  1
  Sc  Sc89  1  0.09550407  0.09557948  0.69586524  1
  Sc  Sc90  1  0.29494790  0.90074234  0.50781203  1
  Sc  Sc91  1  0.30338420  0.90097283  0.89762306  1
  Sc  Sc92  1  0.70305671  0.70231689  0.90216572  1
  Sc  Sc93  1  0.90030703  0.90241000  0.90176291  1
  Sc  Sc94  1  0.30440946  0.10835612  0.31307745  1
  Sc  Sc95  1  0.70032899  0.90200345  0.29606774  1
  Sc  Sc96  1  0.70288585  0.10204647  0.90408713  1
  Sc  Sc97  1  0.29341933  0.49558015  0.10491880  1
  Sc  Sc98  1  0.10464745  0.70405621  0.50866573  1
  Sc  Sc99  1  0.09392662  0.09314126  0.10768456  1
  Nb  Nb100  1  0.89832330  0.30025989  0.69407751  1
  Nb  Nb101  1  0.30216071  0.49562490  0.89352420  1
  Nb  Nb102  1  0.10695204  0.90112549  0.70173403  1
  Nb  Nb103  1  0.70208192  0.90927611  0.10004728  1
  Nb  Nb104  1  0.89752731  0.90281855  0.49472123  1
  Nb  Nb105  1  0.29651946  0.49873848  0.70571068  1
  Nb  Nb106  1  0.90245291  0.89799164  0.30552617  1
  Nb  Nb107  1  0.89390510  0.30223866  0.30449837  1
  Nb  Nb108  1  0.69739035  0.29952202  0.30378691  1
  Nb  Nb109  1  0.69943989  0.70263824  0.30313605  1
  Nb  Nb110  1  0.50383405  0.89809473  0.70197722  1
  Nb  Nb111  1  0.29849069  0.50126001  0.30400714  1
  Nb  Nb112  1  0.89545884  0.30045161  0.50201384  1
  Nb  Nb113  1  0.49881669  0.50033510  0.89959245  1
  Nb  Nb114  1  0.50290333  0.29751064  0.29665578  1
  Nb  Nb115  1  0.50400733  0.70214065  0.49758482  1
  Nb  Nb116  1  0.70557274  0.09631194  0.10098994  1
  Nb  Nb117  1  0.30046023  0.89049400  0.29514048  1
  Nb  Nb118  1  0.50001912  0.29896337  0.10399448  1
  Nb  Nb119  1  0.30310207  0.70120705  0.69461863  1
  Nb  Nb120  1  0.69149519  0.70216238  0.49580145  1
  Nb  Nb121  1  0.09970468  0.70291570  0.90484864  1
  Nb  Nb122  1  0.49077316  0.10009580  0.48654788  1
  Nb  Nb123  1  0.31023706  0.10652872  0.50183110  1
  Nb  Nb124  1  0.49729827  0.10064511  0.31212761  1
  Nb  Nb125  1  0.19921953  0.40230461  0.40037637  1
  Nb  Nb126  1  0.79356477  0.19927137  0.20505918  1
  Nb  Nb127  1  0.19621140  0.19980471  -0.00572033  1
  Nb  Nb128  1  0.60079137  0.40117315  0.80667442  1
  Nb  Nb129  1  -0.00538783  0.39489212  0.59931249  1
  Nb  Nb130  1  0.00329576  0.20004402  -0.00273145  1
  Nb  Nb131  1  0.39461834  0.40281105  0.39424172  1
  Nb  Nb132  1  0.79272823  0.60710137  0.59034949  1
  Nb  Nb133  1  0.80241590  0.79665409  0.40010863  1
  Nb  Nb134  1  0.59762944  -0.00286041  0.59873019  1
  Nb  Nb135  1  0.79792407  0.39969423  0.79578776  1
  Nb  Nb136  1  0.79800087  0.00034231  0.59665310  1
  Nb  Nb137  1  0.79713742  0.60658554  0.40262849  1
  Nb  Nb138  1  0.40151719  0.59750138  0.19903267  1
  Nb  Nb139  1  0.59734855  0.80225329  0.59636872  1
  Nb  Nb140  1  0.21030110  -0.00594971  0.20724656  1
  Nb  Nb141  1  0.20507136  0.39763618  -0.00615671  1
  Nb  Nb142  1  0.40054014  -0.00155987  0.20585174  1
  Nb  Nb143  1  0.20240621  0.19584244  0.80599980  1
  Nb  Nb144  1  0.39894531  0.79319735  0.39809582  1
  Nb  Nb145  1  -0.00722153  0.40043915  0.79221317  1
  Nb  Nb146  1  -0.00586338  0.59733081  0.39618550  1
  Nb  Nb147  1  -0.00257962  0.39928504  0.40333287  1
  Nb  Nb148  1  0.40200071  0.59068667  -0.00213705  1
  Nb  Nb149  1  -0.00070989  0.80408030  0.20053986  1
  Pd  Pd150  1  0.20816923  0.00420856  0.78928380  1
  Pd  Pd151  1  0.79419288  0.40655206  -0.00485965  1
  Pd  Pd152  1  0.60284288  0.00363495  -0.00638348  1
  Pd  Pd153  1  0.40814619  0.79347477  0.20405963  1
  Pd  Pd154  1  0.41065419  -0.00217588  0.00176711  1
  Pd  Pd155  1  0.20657504  0.79727770  0.41085263  1
  Pd  Pd156  1  0.40481128  0.00022990  0.60463981  1
  Pd  Pd157  1  0.40714640  0.59874319  0.39422605  1
  Pd  Pd158  1  0.79325043  0.79953718  0.59456684  1
  Pd  Pd159  1  0.38787987  -0.01131185  0.39514068  1
  Pd  Pd160  1  0.79699341  0.40806199  0.39545439  1
  Pd  Pd161  1  0.58857968  0.19245949  0.59135274  1
  Pd  Pd162  1  0.18804883  0.80649063  0.18982816  1
  Pd  Pd163  1  -0.00752065  0.78770690  0.39409550  1
  Pd  Pd164  1  0.39753136  0.40452574  0.20209239  1
  Pd  Pd165  1  -0.00915669  0.80366855  0.00604163  1
  Pd  Pd166  1  0.79768249  0.80615361  -0.00206966  1
  Pd  Pd167  1  0.00266762  0.80602978  0.61019023  1
  Pd  Pd168  1  0.60541349  0.58919089  0.40095811  1
  Pd  Pd169  1  0.00931766  0.20655427  0.79993950  1
  Pd  Pd170  1  0.00736566  0.39923671  -0.00736841  1
  Pd  Pd171  1  -0.00502265  0.59709655  0.00248228  1
  Pd  Pd172  1  0.80049668  -0.00265361  0.79844657  1
  Pd  Pd173  1  0.79078103  0.20754854  0.78945966  1
  Pd  Pd174  1  0.59529720  0.00225634  0.20148474  1
  Pd  Pd175  1  0.19046492  0.59665297  0.40468317  1
  Pd  Pd176  1  0.19900920  0.00006185  0.00381486  1
  Pd  Pd177  1  0.79607816  0.40671655  0.60732450  1
  Pd  Pd178  1  0.20194157  0.59900148  0.19150411  1
  Pd  Pd179  1  0.19923552  0.19014365  0.19268306  1
  Pd  Pd180  1  -0.00193792  0.80201151  0.79704052  1
  Pd  Pd181  1  0.20596193  0.60825988  0.80174384  1
  Pd  Pd182  1  0.20601235  0.79661599  0.79654948  1
  Pd  Pd183  1  0.00178603  0.00549182  0.40605502  1
  Pd  Pd184  1  0.80817609  0.19028256  0.39117603  1
  Pd  Pd185  1  0.79496324  0.00828209  0.21517809  1
  Pd  Pd186  1  0.40297706  0.59593590  0.60466214  1
  Pd  Pd187  1  0.60241454  0.19943249  0.20207286  1
  Pd  Pd188  1  0.60832598  0.40294536  -0.00269213  1
  Pd  Pd189  1  0.39521792  0.60431434  0.80309625  1
  Pd  Pd190  1  -0.01129845  0.20620162  0.19349310  1
  Pd  Pd191  1  0.19434194  0.39542922  0.59282997  1
  Pd  Pd192  1  0.21041405  0.00067574  0.40073266  1
  Pd  Pd193  1  0.39456690  0.40577339  0.00411129  1
  Pd  Pd194  1  0.59847450  0.60469770  0.00699408  1
  Pd  Pd195  1  0.40403483  0.19181112  0.20656908  1
  Pd  Pd196  1  -0.00756434  -0.00509305  0.60439220  1
  Pd  Pd197  1  -0.00048705  0.60920727  0.19396539  1
  Pd  Pd198  1  0.20767937  0.00299444  0.60683496  1
  Pd  Pd199  1  0.40925128  0.39755317  0.79246842  1
  Rh  Rh200  1  0.40280293  -0.00388938  0.79426937  1
  Rh  Rh201  1  0.61080662  0.80502485  0.19657161  1
  Rh  Rh202  1  0.59970798  0.20810164  0.80189969  1
  Rh  Rh203  1  -0.00742431  0.20371827  0.39572385  1
  Rh  Rh204  1  0.59792011  0.80745851  0.40367413  1
  Rh  Rh205  1  0.60597946  0.39018243  0.19898957  1
  Rh  Rh206  1  0.20898794  0.59025679  -0.00484145  1
  Rh  Rh207  1  0.20891218  0.20409118  0.40633467  1
  Rh  Rh208  1  0.19894028  0.39938457  0.19838451  1
  Rh  Rh209  1  0.58771927  0.21041988  0.40526981  1
  Rh  Rh210  1  0.20550623  0.19168591  0.60536859  1
  Rh  Rh211  1  0.40195131  0.19772357  -0.00021643  1
  Rh  Rh212  1  0.59465860  0.39927710  0.60844395  1
  Rh  Rh213  1  0.79086898  0.60102206  0.20250769  1
  Rh  Rh214  1  0.20536111  0.60401986  0.60995911  1
  Rh  Rh215  1  -0.00493238  0.00168840  -0.00404026  1
  Rh  Rh216  1  0.80880596  0.19628827  0.01262856  1
  Rh  Rh217  1  0.39988627  0.40526037  0.60036198  1
  Rh  Rh218  1  0.79745320  -0.00242815  -0.00432121  1
  Rh  Rh219  1  0.59604698  0.59694386  0.79694393  1
  Rh  Rh220  1  0.40368067  0.21481088  0.40078791  1
  Rh  Rh221  1  -0.00460392  0.59997699  0.59811012  1
  Rh  Rh222  1  0.79900057  0.19304102  0.60130510  1
  Rh  Rh223  1  0.19877587  0.39630661  0.80284333  1
  Rh  Rh224  1  0.40468086  0.20012404  0.59772051  1
  Rh  Rh225  1  0.79860719  0.60177300  0.00403959  1
  Rh  Rh226  1  0.19794625  0.79952256  0.60746218  1
  Rh  Rh227  1  0.80082169  0.79934896  0.80865552  1
  Rh  Rh228  1  0.60940267  0.80248981  0.00143056  1
  Rh  Rh229  1  0.60196767  0.61012208  0.60147024  1
  Rh  Rh230  1  0.79671837  0.59960553  0.79411868  1
  Rh  Rh231  1  0.20092103  0.80835037  -0.00648899  1
  Rh  Rh232  1  0.59275400  -0.00418708  0.40610918  1
  Rh  Rh233  1  -0.00181352  -0.00857728  0.79281752  1
  Rh  Rh234  1  0.60028425  0.60401591  0.19555104  1
  Rh  Rh235  1  0.40628981  0.79969355  0.59360884  1
  Rh  Rh236  1  0.79161606  0.39042105  0.20110238  1
  Rh  Rh237  1  0.59771713  0.00080579  0.79805534  1
  Rh  Rh238  1  0.00252272  0.59997064  0.80496402  1
  Rh  Rh239  1  0.01213441  -0.01162310  0.20765245  1
  Rh  Rh240  1  0.60106853  0.79736219  0.79765230  1
  Rh  Rh241  1  0.39650779  0.20414295  0.79732593  1
  Rh  Rh242  1  0.39752829  0.79755238  0.80155813  1
  Rh  Rh243  1  -0.00003426  0.20301537  0.60274758  1
  Rh  Rh244  1  0.59837032  0.19355900  0.00182517  1
  Rh  Rh245  1  0.40346598  0.79045964  -0.00852447  1
  Rh  Rh246  1  0.79941132  0.80676374  0.20531858  1
  Rh  Rh247  1  -0.00192015  0.39482720  0.20508565  1
  Rh  Rh248  1  0.80737786  -0.00021800  0.39940396  1
  Rh  Rh249  1  0.59255685  0.39494920  0.39860966  1
