# generated using pymatgen
data_ZrScNbPdRh
_symmetry_space_group_name_H-M   'P 1'
_cell_length_a   16.55998476
_cell_length_b   16.56116176
_cell_length_c   16.55685646
_cell_angle_alpha   89.99787959
_cell_angle_beta   90.02793829
_cell_angle_gamma   90.01854615
_symmetry_Int_Tables_number   1
_chemical_formula_structural   ZrScNbPdRh
_chemical_formula_sum   'Zr50 Sc50 Nb50 Pd50 Rh50'
_cell_volume   4540.75992413
_cell_formula_units_Z   50
loop_
 _symmetry_equiv_pos_site_id
 _symmetry_equiv_pos_as_xyz
  1  'x, y, z'
loop_
 _atom_site_type_symbol
 _atom_site_label
 _atom_site_symmetry_multiplicity
 _atom_site_fract_x
 _atom_site_fract_y
 _atom_site_fract_z
 _atom_site_occupancy
  Zr  Zr0  1  0.90303315  0.49995765  0.49441786  1
  Zr  Zr1  1  0.30278842  0.09804967  0.30036288  1
  Zr  Zr2  1  0.10378189  0.29319384  0.50259267  1
  Zr  Zr3  1  0.30153091  0.70080495  0.28498247  1
  Zr  Zr4  1  0.69930948  0.89811652  0.90138742  1
  Zr  Zr5  1  0.10082007  0.90237652  0.50144369  1
  Zr  Zr6  1  0.09822713  0.89973169  0.30301900  1
  Zr  Zr7  1  0.09970145  0.29715096  0.29671422  1
  Zr  Zr8  1  0.69682984  0.70160591  0.90412534  1
  Zr  Zr9  1  0.48133975  0.30149514  0.70409532  1
  Zr  Zr10  1  0.09822608  0.10121851  0.30677976  1
  Zr  Zr11  1  0.10836382  0.50163074  0.72041669  1
  Zr  Zr12  1  0.50466608  0.90837723  0.49740829  1
  Zr  Zr13  1  0.70133767  0.30219731  0.30114322  1
  Zr  Zr14  1  0.30735133  0.30783295  0.88714629  1
  Zr  Zr15  1  0.49889274  0.29520782  0.50058701  1
  Zr  Zr16  1  0.30358257  0.09223079  0.49846200  1
  Zr  Zr17  1  0.70654163  0.49613460  0.30059761  1
  Zr  Zr18  1  0.49804032  0.69974236  0.69785229  1
  Zr  Zr19  1  0.50114221  0.69847027  0.50703919  1
  Zr  Zr20  1  0.49956891  0.50884995  0.30117722  1
  Zr  Zr21  1  0.49951303  0.10637705  0.89568872  1
  Zr  Zr22  1  0.90234818  0.90247900  0.09703354  1
  Zr  Zr23  1  0.69317813  0.10085887  0.29669903  1
  Zr  Zr24  1  0.30134305  0.89068069  0.09549038  1
  Zr  Zr25  1  0.10034643  0.89844852  0.69784429  1
  Zr  Zr26  1  0.89762508  0.91081829  0.70122588  1
  Zr  Zr27  1  0.29915422  0.10487271  0.70458548  1
  Zr  Zr28  1  0.09751169  0.11360365  0.09765918  1
  Zr  Zr29  1  0.50046843  0.50471184  0.09620239  1
  Zr  Zr30  1  0.90214646  0.10352329  0.90148300  1
  Zr  Zr31  1  0.29327970  0.29894287  0.10092375  1
  Zr  Zr32  1  0.30446176  0.90153213  0.89705210  1
  Zr  Zr33  1  0.49779665  0.70605157  0.29926030  1
  Zr  Zr34  1  0.30121265  0.48330989  0.70069200  1
  Zr  Zr35  1  0.90212233  0.10411527  0.29738911  1
  Zr  Zr36  1  0.10727017  0.68125750  0.89329793  1
  Zr  Zr37  1  0.90465582  0.89543258  0.29962579  1
  Zr  Zr38  1  0.09618436  0.89607167  0.09978892  1
  Zr  Zr39  1  0.28630087  0.50696374  0.89873416  1
  Zr  Zr40  1  0.68992610  0.69433716  0.69958797  1
  Zr  Zr41  1  0.29710082  0.90395679  0.70013989  1
  Zr  Zr42  1  0.90514097  0.49813961  0.29592295  1
  Zr  Zr43  1  0.09965943  0.70177898  0.69720791  1
  Zr  Zr44  1  0.70381566  0.10317281  0.89971158  1
  Zr  Zr45  1  0.09787192  0.11052633  0.70250197  1
  Zr  Zr46  1  0.70133678  0.71042950  0.50131160  1
  Zr  Zr47  1  0.49238792  0.89255983  0.70987697  1
  Zr  Zr48  1  0.90588000  0.70233186  0.09968259  1
  Zr  Zr49  1  0.70244595  0.10681356  0.09872337  1
  Sc  Sc50  1  0.49843245  0.10506207  0.69300173  1
  Sc  Sc51  1  0.70309947  0.30200762  0.09791138  1
  Sc  Sc52  1  0.70190769  0.49507805  0.91088891  1
  Sc  Sc53  1  0.89437574  0.48803970  0.70749053  1
  Sc  Sc54  1  0.10202189  0.49061067  0.48534416  1
  Sc  Sc55  1  0.29721951  0.50817087  0.09801289  1
  Sc  Sc56  1  0.50426540  0.30258665  0.09087770  1
  Sc  Sc57  1  0.09121262  0.70840370  0.50082923  1
  Sc  Sc58  1  0.69968876  0.29770785  0.90322047  1
  Sc  Sc59  1  0.89874186  0.30371450  0.89560225  1
  Sc  Sc60  1  0.68515437  0.89002312  0.31010438  1
  Sc  Sc61  1  0.49294971  0.10478812  0.30203858  1
  Sc  Sc62  1  0.29883986  0.31032877  0.50204777  1
  Sc  Sc63  1  0.31261128  0.70267011  0.50387791  1
  Sc  Sc64  1  0.89508856  0.30344876  0.29740309  1
  Sc  Sc65  1  0.49951534  0.70028622  0.10104280  1
  Sc  Sc66  1  0.49888625  0.50669746  0.69030479  1
  Sc  Sc67  1  0.70918509  0.49435704  0.49829365  1
  Sc  Sc68  1  0.89813881  0.69527082  0.69186158  1
  Sc  Sc69  1  0.49758908  0.49612752  0.90727867  1
  Sc  Sc70  1  0.29933263  0.10035150  0.10024415  1
  Sc  Sc71  1  0.90356443  0.70463347  0.49851028  1
  Sc  Sc72  1  0.89682533  0.29716756  0.10126204  1
  Sc  Sc73  1  0.89943908  0.29699361  0.50437711  1
  Sc  Sc74  1  0.68624014  0.70099675  0.30286116  1
  Sc  Sc75  1  0.90533674  0.28992429  0.70264743  1
  Sc  Sc76  1  0.10040555  0.10685498  0.90190181  1
  Sc  Sc77  1  0.68131098  0.09269250  0.51346028  1
  Sc  Sc78  1  0.30552267  0.29551631  0.30462225  1
  Sc  Sc79  1  0.29823870  0.70034225  0.91128738  1
  Sc  Sc80  1  0.50441606  0.70686646  0.89507043  1
  Sc  Sc81  1  0.50635117  0.30253566  0.90017977  1
  Sc  Sc82  1  0.48819886  0.49846443  0.49825551  1
  Sc  Sc83  1  0.89803115  0.10114272  0.70601303  1
  Sc  Sc84  1  0.10756862  0.69895897  0.10507278  1
  Sc  Sc85  1  0.90134769  0.90890269  0.90601175  1
  Sc  Sc86  1  0.30183597  0.50410092  0.29891961  1
  Sc  Sc87  1  0.70241812  0.90704324  0.68853886  1
  Sc  Sc88  1  0.49803117  0.29726609  0.30849603  1
  Sc  Sc89  1  0.49624572  0.89472747  0.90212983  1
  Sc  Sc90  1  0.49465053  0.10653719  0.10547556  1
  Sc  Sc91  1  0.10118822  0.10175527  0.49683154  1
  Sc  Sc92  1  0.30619479  0.70872278  0.69467064  1
  Sc  Sc93  1  0.89877148  0.89649701  0.50543942  1
  Sc  Sc94  1  0.09603225  0.50114768  0.29169489  1
  Sc  Sc95  1  0.11122078  0.89924171  0.90157341  1
  Sc  Sc96  1  0.71659308  0.29283926  0.70247758  1
  Sc  Sc97  1  0.29472337  0.09265754  0.89759187  1
  Sc  Sc98  1  0.89878352  0.69552593  0.90677241  1
  Sc  Sc99  1  0.90629406  0.10417226  0.50770268  1
  Nb  Nb100  1  0.29764011  0.90414389  0.49484950  1
  Nb  Nb101  1  0.11065962  0.29921178  0.69883295  1
  Nb  Nb102  1  0.10587550  0.30246700  0.09141275  1
  Nb  Nb103  1  0.69956324  0.90735194  0.49630068  1
  Nb  Nb104  1  0.69939190  0.30009739  0.49636792  1
  Nb  Nb105  1  0.89854421  0.49768759  0.90197719  1
  Nb  Nb106  1  0.29906424  0.69353441  0.09847023  1
  Nb  Nb107  1  0.70037060  0.49777535  0.70079295  1
  Nb  Nb108  1  0.91003655  0.69665438  0.29956338  1
  Nb  Nb109  1  0.89651006  0.09670344  0.09893139  1
  Nb  Nb110  1  0.10373972  0.48592478  0.09448157  1
  Nb  Nb111  1  0.70360463  0.09282715  0.70515185  1
  Nb  Nb112  1  0.28789387  0.30224522  0.69675058  1
  Nb  Nb113  1  0.09635240  0.69885717  0.30270000  1
  Nb  Nb114  1  0.70321133  0.50456692  0.09833002  1
  Nb  Nb115  1  0.49903602  0.10116709  0.50113156  1
  Nb  Nb116  1  0.09883321  0.30101248  0.91458492  1
  Nb  Nb117  1  0.49595960  0.89413950  0.29142591  1
  Nb  Nb118  1  0.50332873  0.89816059  0.10203682  1
  Nb  Nb119  1  0.70405603  0.70075880  0.09585175  1
  Nb  Nb120  1  0.09463787  0.49297587  0.90670440  1
  Nb  Nb121  1  0.69894612  0.89511047  0.09894175  1
  Nb  Nb122  1  0.29803557  0.50218578  0.50154933  1
  Nb  Nb123  1  0.89233698  0.49811639  0.09802933  1
  Nb  Nb124  1  0.30395581  0.89990776  0.29904699  1
  Nb  Nb125  1  0.60157085  0.00268347  0.80154305  1
  Nb  Nb126  1  0.19893988  0.60995429  0.40017834  1
  Nb  Nb127  1  0.39880189  0.59909173  0.79983388  1
  Nb  Nb128  1  0.19862077  0.59390352  0.59429057  1
  Nb  Nb129  1  0.00221067  0.58421144  0.00170172  1
  Nb  Nb130  1  0.80108200  0.60541104  0.19775600  1
  Nb  Nb131  1  0.01038619  0.40095257  0.60649773  1
  Nb  Nb132  1  0.59926078  0.40751096  0.19951587  1
  Nb  Nb133  1  0.80118308  0.79671164  0.79837349  1
  Nb  Nb134  1  0.00697586  0.58698329  0.60173619  1
  Nb  Nb135  1  0.79398833  -0.00627605  0.20095633  1
  Nb  Nb136  1  0.79671674  0.79671668  0.19916899  1
  Nb  Nb137  1  0.79093053  0.19507724  0.40428579  1
  Nb  Nb138  1  0.59803065  -0.00881644  0.19660464  1
  Nb  Nb139  1  0.79298786  0.00177883  0.40018782  1
  Nb  Nb140  1  0.40652291  0.40278869  0.19849965  1
  Nb  Nb141  1  0.39522417  0.20300265  -0.00509843  1
  Nb  Nb142  1  0.80576895  0.60580266  0.39061092  1
  Nb  Nb143  1  0.60429717  0.40260223  0.78873436  1
  Nb  Nb144  1  0.20031569  -0.00363001  0.20347687  1
  Nb  Nb145  1  0.79364752  0.59817299  0.80213435  1
  Nb  Nb146  1  0.59983251  -0.00168985  0.00429010  1
  Nb  Nb147  1  0.60522913  0.39299547  0.60248220  1
  Nb  Nb148  1  0.20646798  0.80104805  0.39669228  1
  Nb  Nb149  1  -0.00378909  0.79886491  0.79977854  1
  Pd  Pd150  1  0.19756973  0.20418401  0.80977130  1
  Pd  Pd151  1  0.00861950  -0.00373596  0.80769196  1
  Pd  Pd152  1  0.20128469  0.19495484  0.20440049  1
  Pd  Pd153  1  0.39159437  0.39819193  0.00549108  1
  Pd  Pd154  1  0.40711844  0.00692396  0.00140045  1
  Pd  Pd155  1  0.80088522  0.79912680  0.39279099  1
  Pd  Pd156  1  0.80587352  0.59572261  0.59843104  1
  Pd  Pd157  1  0.00315235  0.00509516  0.19648775  1
  Pd  Pd158  1  0.20606847  0.79443296  0.58887690  1
  Pd  Pd159  1  0.59928999  0.80949577  0.60176056  1
  Pd  Pd160  1  0.20101240  0.79454689  0.80464988  1
  Pd  Pd161  1  0.60410059  0.20471960  0.78909358  1
  Pd  Pd162  1  0.40426651  0.79302819  0.00107716  1
  Pd  Pd163  1  -0.00236716  0.20751892  0.19576906  1
  Pd  Pd164  1  0.20850585  0.20064605  0.40440085  1
  Pd  Pd165  1  0.20789756  0.40380979  0.20562694  1
  Pd  Pd166  1  0.59246988  0.20909532  0.19688595  1
  Pd  Pd167  1  0.60615754  0.60077784  0.19675642  1
  Pd  Pd168  1  0.59562411  0.60337299  -0.00417540  1
  Pd  Pd169  1  0.40363249  -0.00201713  0.60604361  1
  Pd  Pd170  1  -0.01386848  0.60206027  0.80029700  1
  Pd  Pd171  1  0.40870230  -0.00067343  0.39499101  1
  Pd  Pd172  1  0.19812880  0.80354619  0.20223752  1
  Pd  Pd173  1  0.80131592  0.80228813  0.60564846  1
  Pd  Pd174  1  0.19664951  0.00355725  0.00834737  1
  Pd  Pd175  1  0.59451361  0.40573173  0.40390371  1
  Pd  Pd176  1  0.00157049  0.00541687  0.60030554  1
  Pd  Pd177  1  0.00397604  0.59595386  0.18840815  1
  Pd  Pd178  1  0.38820868  0.20399534  0.59437362  1
  Pd  Pd179  1  -0.01125975  0.39628876  0.00534523  1
  Pd  Pd180  1  0.39913931  -0.00258542  0.19595840  1
  Pd  Pd181  1  0.00918938  0.00552254  -0.00371249  1
  Pd  Pd182  1  0.19571612  0.00804777  0.60377935  1
  Pd  Pd183  1  0.60148693  0.19385693  0.40359022  1
  Pd  Pd184  1  0.20456617  0.40474273  0.38861910  1
  Pd  Pd185  1  -0.00228304  0.38801324  0.40255139  1
  Pd  Pd186  1  0.80617513  0.20710103  -0.00350194  1
  Pd  Pd187  1  -0.01065934  -0.00055709  0.40935595  1
  Pd  Pd188  1  0.39214370  0.60471599  0.39923211  1
  Pd  Pd189  1  0.80443017  0.39602594  0.60018936  1
  Pd  Pd190  1  0.60826874  0.59560040  0.41020299  1
  Pd  Pd191  1  0.60496428  0.58637261  0.58676788  1
  Pd  Pd192  1  0.59627222  0.58863789  0.80891290  1
  Pd  Pd193  1  0.80399071  0.80228745  -0.00267438  1
  Pd  Pd194  1  0.01240560  0.78892743  -0.01294759  1
  Pd  Pd195  1  0.79330275  0.19035537  0.59414734  1
  Pd  Pd196  1  0.60473359  0.20779703  0.61097396  1
  Pd  Pd197  1  0.00483951  0.38976890  0.79765526  1
  Pd  Pd198  1  0.40029952  0.80199903  0.40369505  1
  Pd  Pd199  1  0.00073691  0.39198745  0.19141952  1
  Rh  Rh200  1  0.19214196  0.40670464  0.59757073  1
  Rh  Rh201  1  0.19006373  0.59731551  0.01061860  1
  Rh  Rh202  1  0.19565245  0.00229143  0.79591915  1
  Rh  Rh203  1  0.39722705  0.40248753  0.39548053  1
  Rh  Rh204  1  0.20675296  0.39867518  -0.00496889  1
  Rh  Rh205  1  -0.00716675  0.20308358  0.00307657  1
  Rh  Rh206  1  0.59397325  0.00154691  0.39076234  1
  Rh  Rh207  1  0.58882871  0.80016354  0.40852146  1
  Rh  Rh208  1  0.40128245  0.81349058  0.59201062  1
  Rh  Rh209  1  0.21806234  0.60902373  0.78576869  1
  Rh  Rh210  1  0.80270654  0.19505790  0.20400260  1
  Rh  Rh211  1  0.41229650  0.41259816  0.80165063  1
  Rh  Rh212  1  0.19776604  0.79537239  -0.00067224  1
  Rh  Rh213  1  0.19454052  0.59550462  0.20096933  1
  Rh  Rh214  1  0.79308417  0.40461507  0.19247680  1
  Rh  Rh215  1  -0.00804183  0.20450067  0.39860211  1
  Rh  Rh216  1  -0.00062122  0.79724856  0.20050159  1
  Rh  Rh217  1  0.40006336  0.59771901  0.19358448  1
  Rh  Rh218  1  0.00258438  0.60476813  0.40832511  1
  Rh  Rh219  1  0.00527428  0.20672323  0.80495512  1
  Rh  Rh220  1  0.40665704  0.00445242  0.79777237  1
  Rh  Rh221  1  0.79516478  0.00331976  0.00698028  1
  Rh  Rh222  1  0.59481777  0.80090632  0.00614447  1
  Rh  Rh223  1  0.80371183  0.19636131  0.80318773  1
  Rh  Rh224  1  0.80103040  0.39635803  0.00080499  1
  Rh  Rh225  1  0.79140340  0.40498109  0.80708753  1
  Rh  Rh226  1  0.59011593  -0.00298021  0.61115791  1
  Rh  Rh227  1  0.39339040  0.19702692  0.80359043  1
  Rh  Rh228  1  0.40343440  0.39692842  0.59448217  1
  Rh  Rh229  1  0.39051770  0.79094294  0.80750653  1
  Rh  Rh230  1  0.61162886  0.81074793  0.79144416  1
  Rh  Rh231  1  0.20950881  0.20525338  -0.00830288  1
  Rh  Rh232  1  0.60225413  0.79896974  0.19373845  1
  Rh  Rh233  1  0.40174419  0.60564021  -0.00644099  1
  Rh  Rh234  1  0.80849732  0.39395724  0.40499636  1
  Rh  Rh235  1  -0.00791133  0.79998517  0.60871028  1
  Rh  Rh236  1  0.59280353  0.19456924  0.00419914  1
  Rh  Rh237  1  0.38879564  0.59433159  0.60891616  1
  Rh  Rh238  1  0.20299337  -0.00544333  0.39339773  1
  Rh  Rh239  1  0.18890434  0.38898416  0.81178033  1
  Rh  Rh240  1  0.39722674  0.19751894  0.40969232  1
  Rh  Rh241  1  0.40038306  0.79875867  0.19114714  1
  Rh  Rh242  1  0.80607149  0.59686512  -0.00020431  1
  Rh  Rh243  1  0.60875429  0.39984005  0.00236447  1
  Rh  Rh244  1  0.79440118  -0.00379886  0.80344667  1
  Rh  Rh245  1  0.00413450  0.80143158  0.40067026  1
  Rh  Rh246  1  0.20528263  0.19460594  0.59417246  1
  Rh  Rh247  1  0.80161644  0.00686157  0.58925581  1
  Rh  Rh248  1  0.40199440  0.21447140  0.19049902  1
  Rh  Rh249  1  0.00540680  0.20472405  0.60428093  1
