# generated using pymatgen
data_ZrScNbPdRh
_symmetry_space_group_name_H-M   'P 1'
_cell_length_a   16.55030308
_cell_length_b   16.55419978
_cell_length_c   16.55278643
_cell_angle_alpha   90.02160948
_cell_angle_beta   89.96890760
_cell_angle_gamma   89.97868979
_symmetry_Int_Tables_number   1
_chemical_formula_structural   ZrScNbPdRh
_chemical_formula_sum   'Zr50 Sc50 Nb50 Pd50 Rh50'
_cell_volume   4535.08185585
_cell_formula_units_Z   50
loop_
 _symmetry_equiv_pos_site_id
 _symmetry_equiv_pos_as_xyz
  1  'x, y, z'
loop_
 _atom_site_type_symbol
 _atom_site_label
 _atom_site_symmetry_multiplicity
 _atom_site_fract_x
 _atom_site_fract_y
 _atom_site_fract_z
 _atom_site_occupancy
  Zr  Zr0  1  0.10448718  0.70094317  0.30373017  1
  Zr  Zr1  1  0.49702741  0.89371545  0.70409673  1
  Zr  Zr2  1  0.70294738  0.70554265  0.50401959  1
  Zr  Zr3  1  0.29866104  0.90269017  0.49680777  1
  Zr  Zr4  1  0.10100244  0.49825915  0.09932136  1
  Zr  Zr5  1  0.90071002  0.69630311  0.90165248  1
  Zr  Zr6  1  0.10223847  0.30151359  0.90387549  1
  Zr  Zr7  1  0.09510302  0.29718302  0.49501450  1
  Zr  Zr8  1  0.29989961  0.69629015  0.10347310  1
  Zr  Zr9  1  0.49836115  0.50136479  0.10099815  1
  Zr  Zr10  1  0.89936643  0.10213317  0.69226860  1
  Zr  Zr11  1  0.10206364  0.70231633  0.69705589  1
  Zr  Zr12  1  0.70091771  0.09457272  0.30102736  1
  Zr  Zr13  1  0.10538135  0.10543932  0.90939385  1
  Zr  Zr14  1  0.69656948  0.10496102  0.50390501  1
  Zr  Zr15  1  0.69721042  0.10409441  0.89905580  1
  Zr  Zr16  1  0.09597864  0.89908259  0.69126238  1
  Zr  Zr17  1  0.49685308  0.90534559  0.50816063  1
  Zr  Zr18  1  0.50528072  0.88530897  0.10197784  1
  Zr  Zr19  1  0.09919481  0.70294343  0.50218600  1
  Zr  Zr20  1  0.29493280  0.09075087  0.30330567  1
  Zr  Zr21  1  0.90061563  0.70061633  0.09577080  1
  Zr  Zr22  1  0.10340005  0.90140590  0.30137598  1
  Zr  Zr23  1  0.69726094  0.89800310  0.89407580  1
  Zr  Zr24  1  0.69612666  0.29894821  0.10436127  1
  Zr  Zr25  1  0.29991748  0.90633424  0.69345871  1
  Zr  Zr26  1  0.89455357  0.89244874  0.89146666  1
  Zr  Zr27  1  0.89837896  0.49727814  0.09649389  1
  Zr  Zr28  1  0.70355275  0.49269004  0.90240014  1
  Zr  Zr29  1  0.50410083  0.29641009  0.90666074  1
  Zr  Zr30  1  0.50732843  0.90324644  0.29720496  1
  Zr  Zr31  1  0.09361128  0.69601529  0.89399052  1
  Zr  Zr32  1  0.89363927  0.50018431  0.49809615  1
  Zr  Zr33  1  0.30588192  0.49058565  0.69640722  1
  Zr  Zr34  1  0.69683960  0.30458649  0.69520350  1
  Zr  Zr35  1  0.88569553  0.89398836  0.49513717  1
  Zr  Zr36  1  0.09121743  0.50650224  0.50044944  1
  Zr  Zr37  1  0.30721025  0.90423734  0.89385848  1
  Zr  Zr38  1  0.10142342  0.10225635  0.69614720  1
  Zr  Zr39  1  0.29695528  0.09999430  0.89887108  1
  Zr  Zr40  1  0.69353519  0.69943475  0.10126092  1
  Zr  Zr41  1  0.89409971  0.10297967  0.91175267  1
  Zr  Zr42  1  0.10613356  0.89747420  0.10274565  1
  Zr  Zr43  1  0.49816383  0.30268207  0.11201918  1
  Zr  Zr44  1  0.50268723  0.10563851  0.30212941  1
  Zr  Zr45  1  0.69907089  0.48613029  0.49817727  1
  Zr  Zr46  1  0.30358724  0.10703386  0.70936639  1
  Zr  Zr47  1  0.70379618  0.50281948  0.11353726  1
  Zr  Zr48  1  0.70178025  0.70316713  0.90121424  1
  Zr  Zr49  1  0.29791368  0.30222188  0.30358663  1
  Sc  Sc50  1  0.90191265  0.90955097  0.09798788  1
  Sc  Sc51  1  0.89868932  0.11363890  0.50252775  1
  Sc  Sc52  1  0.49580535  0.49144349  0.30645617  1
  Sc  Sc53  1  0.51486701  0.11294792  0.10804009  1
  Sc  Sc54  1  0.29621104  0.49572296  0.30325643  1
  Sc  Sc55  1  0.30290871  0.49159468  0.49225214  1
  Sc  Sc56  1  0.69965888  0.10081494  0.69722289  1
  Sc  Sc57  1  0.68687943  0.70710387  0.70367319  1
  Sc  Sc58  1  0.89917783  0.48731859  0.70186042  1
  Sc  Sc59  1  0.50602925  0.69952695  0.29101693  1
  Sc  Sc60  1  0.10339043  0.50223269  0.30163331  1
  Sc  Sc61  1  0.50635883  0.70276923  0.90365655  1
  Sc  Sc62  1  0.90651422  0.69939906  0.49400713  1
  Sc  Sc63  1  0.50366058  0.50087623  0.90865837  1
  Sc  Sc64  1  0.90136634  0.29810279  0.30032976  1
  Sc  Sc65  1  0.30028252  0.29296421  0.89439381  1
  Sc  Sc66  1  0.70712460  0.09784303  0.09516292  1
  Sc  Sc67  1  0.29541857  0.89409845  0.09733967  1
  Sc  Sc68  1  0.90412168  0.30778892  0.09625139  1
  Sc  Sc69  1  0.09510786  0.50203732  0.89592010  1
  Sc  Sc70  1  0.70552588  0.69033150  0.29287143  1
  Sc  Sc71  1  0.29975864  0.50206193  0.90738518  1
  Sc  Sc72  1  0.10410951  0.90220375  0.90592428  1
  Sc  Sc73  1  0.50136003  0.10196569  0.88877731  1
  Sc  Sc74  1  0.09623762  0.30376636  0.69624943  1
  Sc  Sc75  1  0.29815394  0.49540390  0.10388247  1
  Sc  Sc76  1  0.29534323  0.69561897  0.69694080  1
  Sc  Sc77  1  0.69007700  0.49478140  0.70099557  1
  Sc  Sc78  1  0.49978878  0.10244359  0.69556312  1
  Sc  Sc79  1  0.09846807  0.29436938  0.30649275  1
  Sc  Sc80  1  0.50345712  0.70181263  0.50455980  1
  Sc  Sc81  1  0.69676179  0.30323296  0.30761829  1
  Sc  Sc82  1  0.10661086  0.89853539  0.50185737  1
  Sc  Sc83  1  0.09489975  0.30322407  0.09422076  1
  Sc  Sc84  1  0.89686949  0.90304359  0.69446940  1
  Sc  Sc85  1  0.29527752  0.90206757  0.30288221  1
  Sc  Sc86  1  0.29792595  0.30769015  0.10341404  1
  Sc  Sc87  1  0.88790013  0.50282337  0.29582457  1
  Sc  Sc88  1  0.69996975  0.90104394  0.69378389  1
  Sc  Sc89  1  0.29863298  0.69764494  0.49441732  1
  Sc  Sc90  1  0.09559792  0.10260176  0.49778787  1
  Sc  Sc91  1  0.50301815  0.09827165  0.50105375  1
  Sc  Sc92  1  0.10397950  0.51027787  0.69773786  1
  Sc  Sc93  1  0.70426222  0.29715032  0.90031636  1
  Sc  Sc94  1  0.30492581  0.08867951  0.50135394  1
  Sc  Sc95  1  0.90924432  0.71399978  0.70772587  1
  Sc  Sc96  1  0.89595621  0.29922113  0.69577808  1
  Sc  Sc97  1  0.50879904  0.30290152  0.49943372  1
  Sc  Sc98  1  0.50521158  0.69558387  0.09606921  1
  Sc  Sc99  1  0.30380211  0.69473816  0.89981578  1
  Nb  Nb100  1  0.49852639  0.29250063  0.29795853  1
  Nb  Nb101  1  0.09971564  0.70088066  0.10065459  1
  Nb  Nb102  1  0.89176089  0.90299192  0.30217854  1
  Nb  Nb103  1  0.70976173  0.90344473  0.30452837  1
  Nb  Nb104  1  0.29684616  0.09495225  0.09838897  1
  Nb  Nb105  1  0.70162827  0.50055361  0.30261493  1
  Nb  Nb106  1  0.69986945  0.89936890  0.49794412  1
  Nb  Nb107  1  0.90376110  0.09543975  0.29115396  1
  Nb  Nb108  1  0.09409333  0.09954103  0.29763495  1
  Nb  Nb109  1  0.89322334  0.30286786  0.50014828  1
  Nb  Nb110  1  0.90178999  0.31008112  0.89849397  1
  Nb  Nb111  1  0.90771051  0.10238330  0.10424368  1
  Nb  Nb112  1  0.89683753  0.49511168  0.90110793  1
  Nb  Nb113  1  0.70743402  0.29891167  0.49865353  1
  Nb  Nb114  1  0.50131161  0.49306987  0.69425053  1
  Nb  Nb115  1  0.30711201  0.30117290  0.69607074  1
  Nb  Nb116  1  0.49777286  0.90150749  0.90058369  1
  Nb  Nb117  1  0.09817307  0.09575496  0.09966026  1
  Nb  Nb118  1  0.50108856  0.69411891  0.69840077  1
  Nb  Nb119  1  0.30512981  0.69129544  0.30455327  1
  Nb  Nb120  1  0.29635353  0.30051854  0.50021379  1
  Nb  Nb121  1  0.69647913  0.89756037  0.10776747  1
  Nb  Nb122  1  0.90420859  0.70526565  0.30010235  1
  Nb  Nb123  1  0.48382694  0.31070552  0.70091129  1
  Nb  Nb124  1  0.50266694  0.50163997  0.50004623  1
  Nb  Nb125  1  0.39681718  0.59922113  0.20440986  1
  Nb  Nb126  1  0.19352310  0.18880061  0.19740384  1
  Nb  Nb127  1  0.60567754  0.80255073  0.39955299  1
  Nb  Nb128  1  0.60265224  0.59646926  0.40187102  1
  Nb  Nb129  1  0.39806265  0.20447116  0.39948906  1
  Nb  Nb130  1  0.40166930  0.00265937  0.19188587  1
  Nb  Nb131  1  -0.00737954  0.00171394  0.39164292  1
  Nb  Nb132  1  0.20540347  0.39898826  0.79434688  1
  Nb  Nb133  1  -0.00292072  0.19874198  0.80688425  1
  Nb  Nb134  1  0.19229287  0.60382650  0.00530801  1
  Nb  Nb135  1  0.79774822  0.60034603  0.60691840  1
  Nb  Nb136  1  0.19975764  0.80020342  0.79667450  1
  Nb  Nb137  1  0.80229754  0.80658355  0.20458190  1
  Nb  Nb138  1  0.40591408  0.80007664  0.39686311  1
  Nb  Nb139  1  0.39917120  0.19267326  0.00623172  1
  Nb  Nb140  1  0.80803493  0.19258297  0.19885036  1
  Nb  Nb141  1  0.40831475  0.59269320  0.60066132  1
  Nb  Nb142  1  0.79951257  0.59809505  0.79908513  1
  Nb  Nb143  1  -0.00640516  0.40163497  0.40515607  1
  Nb  Nb144  1  0.00168427  0.60774343  0.19747880  1
  Nb  Nb145  1  0.40963713  0.59534726  0.78984141  1
  Nb  Nb146  1  -0.00199971  0.00787571  0.80317778  1
  Nb  Nb147  1  0.20913994  0.20611047  0.59912351  1
  Nb  Nb148  1  0.40814649  0.00296494  0.00500700  1
  Nb  Nb149  1  0.59572656  -0.00652736  -0.00165959  1
  Pd  Pd150  1  0.59523683  0.39420771  0.80268163  1
  Pd  Pd151  1  0.19065047  -0.00697564  0.79777211  1
  Pd  Pd152  1  0.80321832  0.79278543  0.60812066  1
  Pd  Pd153  1  0.60419474  0.59732525  0.59495551  1
  Pd  Pd154  1  0.20251158  0.79299475  -0.01069599  1
  Pd  Pd155  1  -0.00563553  0.80252286  0.20042100  1
  Pd  Pd156  1  -0.01386104  0.60316421  0.61032770  1
  Pd  Pd157  1  0.59930851  0.59697994  0.80655117  1
  Pd  Pd158  1  0.39696045  0.78772920  0.79800331  1
  Pd  Pd159  1  0.60534169  0.40102644  0.00574271  1
  Pd  Pd160  1  0.39964063  0.79834833  -0.00284900  1
  Pd  Pd161  1  0.59446774  0.20722204  0.60401077  1
  Pd  Pd162  1  0.39887622  0.40538667  0.81426237  1
  Pd  Pd163  1  0.20679709  0.20646144  0.01216963  1
  Pd  Pd164  1  0.80478668  0.20968863  0.00847873  1
  Pd  Pd165  1  0.39440442  0.79014742  0.59456712  1
  Pd  Pd166  1  0.59579824  0.20712949  0.79039510  1
  Pd  Pd167  1  0.39253034  0.79946649  0.20711669  1
  Pd  Pd168  1  0.00064011  0.80670216  -0.00275749  1
  Pd  Pd169  1  0.20469407  0.19118237  0.40288084  1
  Pd  Pd170  1  0.00213131  0.81016111  0.40344796  1
  Pd  Pd171  1  -0.01098360  0.59212597  0.79169107  1
  Pd  Pd172  1  0.00235172  -0.00758819  0.20096914  1
  Pd  Pd173  1  0.80339687  0.00244053  0.79499546  1
  Pd  Pd174  1  0.80394623  0.20424978  0.79620985  1
  Pd  Pd175  1  0.79350967  -0.00650485  0.00217177  1
  Pd  Pd176  1  0.79730698  0.80781365  0.00904644  1
  Pd  Pd177  1  0.80630317  0.01386127  0.40908563  1
  Pd  Pd178  1  0.19603174  0.39807590  0.59920665  1
  Pd  Pd179  1  0.20129083  0.59518726  0.40549868  1
  Pd  Pd180  1  0.80342704  0.19771615  0.39153503  1
  Pd  Pd181  1  0.00098188  0.40628362  0.21145090  1
  Pd  Pd182  1  0.38736920  0.19491776  0.20076639  1
  Pd  Pd183  1  0.39533317  0.39235444  -0.00186182  1
  Pd  Pd184  1  0.39922575  0.19940361  0.58896519  1
  Pd  Pd185  1  -0.00617666  -0.00366014  0.58730654  1
  Pd  Pd186  1  0.79545802  0.59636335  -0.00271700  1
  Pd  Pd187  1  0.20694318  0.79639107  0.20833495  1
  Pd  Pd188  1  0.59998644  0.00201930  0.19324562  1
  Pd  Pd189  1  0.19109339  0.38940901  0.20457820  1
  Pd  Pd190  1  0.21118780  0.59538249  0.58995401  1
  Pd  Pd191  1  0.79697646  0.60635150  0.40491676  1
  Pd  Pd192  1  0.59944940  -0.00288197  0.40629315  1
  Pd  Pd193  1  0.59894963  0.40318859  0.21061665  1
  Pd  Pd194  1  0.40560271  0.39127895  0.40219911  1
  Pd  Pd195  1  0.00202826  0.20698917  0.19578183  1
  Pd  Pd196  1  0.00691760  0.39846956  0.79830462  1
  Pd  Pd197  1  0.00071596  -0.00433200  -0.00454462  1
  Pd  Pd198  1  0.59727949  -0.00104387  0.79723638  1
  Pd  Pd199  1  -0.00174460  0.39815970  0.59659011  1
  Rh  Rh200  1  0.79802389  0.40161813  0.79919140  1
  Rh  Rh201  1  0.40752285  0.20464504  0.80473776  1
  Rh  Rh202  1  0.60586806  0.59564341  -0.00010453  1
  Rh  Rh203  1  0.39972400  0.40727062  0.20486223  1
  Rh  Rh204  1  0.81029704  0.60865298  0.19826740  1
  Rh  Rh205  1  0.61598650  0.79840714  0.21254250  1
  Rh  Rh206  1  0.79701988  0.40263265  0.60393446  1
  Rh  Rh207  1  0.60324298  0.80436855  -0.00463440  1
  Rh  Rh208  1  0.59505158  0.80203921  0.79921457  1
  Rh  Rh209  1  0.39542934  0.60071771  0.00601876  1
  Rh  Rh210  1  -0.00472113  0.20343312  -0.00178527  1
  Rh  Rh211  1  0.59883149  0.39937649  0.39788820  1
  Rh  Rh212  1  0.19137219  0.21313510  0.78755486  1
  Rh  Rh213  1  0.79349212  0.79068217  0.39146175  1
  Rh  Rh214  1  0.18590483  0.00303540  0.40560919  1
  Rh  Rh215  1  0.59709379  0.20429023  0.40014464  1
  Rh  Rh216  1  0.20060029  0.00242464  0.19581814  1
  Rh  Rh217  1  0.59731695  0.80738840  0.59818718  1
  Rh  Rh218  1  0.19870883  0.40618381  -0.00931715  1
  Rh  Rh219  1  -0.00865517  0.19929971  0.39923371  1
  Rh  Rh220  1  0.20865431  0.59801684  0.81007565  1
  Rh  Rh221  1  0.79448729  0.79438181  0.79305132  1
  Rh  Rh222  1  0.61674531  0.20099934  0.20750112  1
  Rh  Rh223  1  0.00332392  0.20730165  0.60349316  1
  Rh  Rh224  1  0.40773589  -0.00066728  0.39013447  1
  Rh  Rh225  1  0.20083626  0.60296096  0.19660253  1
  Rh  Rh226  1  0.79701434  0.38971054  0.20295457  1
  Rh  Rh227  1  0.40587388  0.40125691  0.58740507  1
  Rh  Rh228  1  -0.00466591  0.59252431  0.38432237  1
  Rh  Rh229  1  0.80474647  0.39434025  0.39379366  1
  Rh  Rh230  1  0.20539026  -0.00469174  0.00378567  1
  Rh  Rh231  1  0.79551765  0.00479223  0.59333762  1
  Rh  Rh232  1  0.40109810  0.00567082  0.60813535  1
  Rh  Rh233  1  0.60273719  -0.00292543  0.60215707  1
  Rh  Rh234  1  0.18779483  0.40404468  0.40432966  1
  Rh  Rh235  1  0.40613089  0.00419208  0.79963896  1
  Rh  Rh236  1  0.00428411  0.59362436  0.00558233  1
  Rh  Rh237  1  0.79725438  0.39591856  0.00301800  1
  Rh  Rh238  1  0.20521793  0.79839018  0.60273647  1
  Rh  Rh239  1  0.79934992  0.00080499  0.19333689  1
  Rh  Rh240  1  0.58985928  0.58897290  0.20825753  1
  Rh  Rh241  1  0.20842233  0.79754701  0.39881502  1
  Rh  Rh242  1  0.59628605  0.19359922  -0.00317798  1
  Rh  Rh243  1  -0.00473039  0.80272537  0.59017051  1
  Rh  Rh244  1  0.41247983  0.60897850  0.39949504  1
  Rh  Rh245  1  -0.00026166  0.40510089  -0.00651522  1
  Rh  Rh246  1  0.79461372  0.20410454  0.60169782  1
  Rh  Rh247  1  0.20214044  0.01071544  0.59776507  1
  Rh  Rh248  1  0.01026861  0.81473203  0.80303607  1
  Rh  Rh249  1  0.59679998  0.39273752  0.59710168  1
