# generated using pymatgen
data_ZrScNbPdRh
_symmetry_space_group_name_H-M   'P 1'
_cell_length_a   16.55419673
_cell_length_b   16.55196426
_cell_length_c   16.55640876
_cell_angle_alpha   89.99934660
_cell_angle_beta   89.97314058
_cell_angle_gamma   89.99527291
_symmetry_Int_Tables_number   1
_chemical_formula_structural   ZrScNbPdRh
_chemical_formula_sum   'Zr50 Sc50 Nb50 Pd50 Rh50'
_cell_volume   4536.52953734
_cell_formula_units_Z   50
loop_
 _symmetry_equiv_pos_site_id
 _symmetry_equiv_pos_as_xyz
  1  'x, y, z'
loop_
 _atom_site_type_symbol
 _atom_site_label
 _atom_site_symmetry_multiplicity
 _atom_site_fract_x
 _atom_site_fract_y
 _atom_site_fract_z
 _atom_site_occupancy
  Zr  Zr0  1  0.30033612  0.90202175  0.70349808  1
  Zr  Zr1  1  0.29210716  0.69904573  0.50021422  1
  Zr  Zr2  1  0.49535191  0.70242582  0.09654939  1
  Zr  Zr3  1  0.11122880  0.50557907  0.28472976  1
  Zr  Zr4  1  0.50861679  0.48770732  0.49055662  1
  Zr  Zr5  1  0.30094078  0.10564774  0.29404006  1
  Zr  Zr6  1  0.89799653  0.10144553  0.50836790  1
  Zr  Zr7  1  0.69522239  0.30784101  0.70086591  1
  Zr  Zr8  1  0.10013548  0.69093878  0.10040816  1
  Zr  Zr9  1  0.89864991  0.30762200  0.49452763  1
  Zr  Zr10  1  0.89973998  0.69689536  0.30355908  1
  Zr  Zr11  1  0.30003303  0.50210604  0.70132893  1
  Zr  Zr12  1  0.90339900  0.89018900  0.29041906  1
  Zr  Zr13  1  0.50778523  0.30822231  0.91722879  1
  Zr  Zr14  1  0.09783753  0.89990460  0.29695233  1
  Zr  Zr15  1  0.90869528  0.89746986  0.70470381  1
  Zr  Zr16  1  0.29389847  0.50080299  0.50142039  1
  Zr  Zr17  1  0.29985988  0.70404657  0.90218064  1
  Zr  Zr18  1  0.29293127  0.69314280  0.29958709  1
  Zr  Zr19  1  0.69275907  0.90094970  0.50100865  1
  Zr  Zr20  1  0.10429974  0.10278420  0.50408267  1
  Zr  Zr21  1  0.50034576  0.50433961  0.89776517  1
  Zr  Zr22  1  0.70519115  0.70649105  0.90005855  1
  Zr  Zr23  1  0.89984123  0.29112774  0.70506590  1
  Zr  Zr24  1  0.10434101  0.89602849  0.50346261  1
  Zr  Zr25  1  0.89857213  0.89473579  0.50090474  1
  Zr  Zr26  1  0.89170996  0.49848787  0.49763571  1
  Zr  Zr27  1  0.50027764  0.89870771  0.09892039  1
  Zr  Zr28  1  0.09802549  0.49859911  0.08840109  1
  Zr  Zr29  1  0.88920075  0.90241925  0.89925222  1
  Zr  Zr30  1  0.70046415  0.10912919  0.70117754  1
  Zr  Zr31  1  0.71062962  0.10089259  0.90296282  1
  Zr  Zr32  1  0.50679463  0.90497390  0.49835558  1
  Zr  Zr33  1  0.69301378  0.10153331  0.50009137  1
  Zr  Zr34  1  0.69790682  0.89758414  0.90501798  1
  Zr  Zr35  1  0.30553107  0.29315099  0.49716709  1
  Zr  Zr36  1  0.90183026  0.30329288  0.29351711  1
  Zr  Zr37  1  0.69146898  0.50492903  0.30330582  1
  Zr  Zr38  1  0.50770415  0.69408270  0.29813719  1
  Zr  Zr39  1  0.08824549  0.70382467  0.71606950  1
  Zr  Zr40  1  0.09245391  0.70001395  0.29732016  1
  Zr  Zr41  1  0.30902777  0.30129889  0.29510245  1
  Zr  Zr42  1  0.29597412  0.50035684  0.90563057  1
  Zr  Zr43  1  0.49710387  0.90192876  0.29707625  1
  Zr  Zr44  1  0.89711617  0.69257774  0.49921330  1
  Zr  Zr45  1  0.09686253  0.49904187  0.50056527  1
  Zr  Zr46  1  0.30033504  0.09627705  0.90142633  1
  Zr  Zr47  1  0.49742058  0.70573234  0.90410573  1
  Zr  Zr48  1  0.30024158  0.29769700  0.90769046  1
  Zr  Zr49  1  0.29871398  0.90933916  0.89720332  1
  Sc  Sc50  1  0.10408088  0.29329208  0.28842849  1
  Sc  Sc51  1  0.70157285  0.69627822  0.10645621  1
  Sc  Sc52  1  0.69697788  0.90134547  0.69862289  1
  Sc  Sc53  1  0.89436392  0.49818951  0.29962577  1
  Sc  Sc54  1  0.69642751  0.90486244  0.29680389  1
  Sc  Sc55  1  0.50383172  0.10329239  0.69603580  1
  Sc  Sc56  1  0.89553131  0.70131923  0.70319276  1
  Sc  Sc57  1  0.10209030  0.28934566  0.70454877  1
  Sc  Sc58  1  0.30485972  0.90430439  0.09536581  1
  Sc  Sc59  1  0.30444737  0.09932332  0.69825848  1
  Sc  Sc60  1  0.10123687  0.29850461  0.90217263  1
  Sc  Sc61  1  0.30387823  0.70103268  0.09262118  1
  Sc  Sc62  1  0.49737308  0.49585345  0.08852023  1
  Sc  Sc63  1  0.50688112  0.10130890  0.29495749  1
  Sc  Sc64  1  0.10491710  0.90504885  0.09724155  1
  Sc  Sc65  1  0.10761210  0.50260550  0.70360432  1
  Sc  Sc66  1  0.70833772  0.89571003  0.10369892  1
  Sc  Sc67  1  0.29570827  0.29822431  0.69723749  1
  Sc  Sc68  1  0.30897982  0.10420953  0.50161259  1
  Sc  Sc69  1  0.49631787  0.89899962  0.89711126  1
  Sc  Sc70  1  0.70297690  0.70545518  0.49912767  1
  Sc  Sc71  1  0.50046294  0.10119135  0.90051249  1
  Sc  Sc72  1  0.49982521  0.10071084  0.49754723  1
  Sc  Sc73  1  0.90354270  0.09896576  0.70782520  1
  Sc  Sc74  1  0.70618485  0.50286678  0.09981649  1
  Sc  Sc75  1  0.09606564  0.69665747  0.49634315  1
  Sc  Sc76  1  0.51420022  0.70973611  0.49871948  1
  Sc  Sc77  1  0.89575717  0.49888281  0.91006296  1
  Sc  Sc78  1  0.89848678  0.49200775  0.10138435  1
  Sc  Sc79  1  0.50207060  0.90415425  0.70184626  1
  Sc  Sc80  1  0.10132554  0.10048727  0.89677572  1
  Sc  Sc81  1  0.88493132  0.50475600  0.69308551  1
  Sc  Sc82  1  0.29620660  0.70036005  0.70814939  1
  Sc  Sc83  1  0.69611118  0.30071910  0.29922655  1
  Sc  Sc84  1  0.50235922  0.70301706  0.70965292  1
  Sc  Sc85  1  0.09696584  0.30317715  0.09917742  1
  Sc  Sc86  1  0.29031233  0.49534586  0.09873167  1
  Sc  Sc87  1  0.70468517  0.30224265  0.90079954  1
  Sc  Sc88  1  0.10121045  0.10456269  0.10972638  1
  Sc  Sc89  1  0.89849398  0.29294821  0.90787716  1
  Sc  Sc90  1  0.70354550  0.49401482  0.89886494  1
  Sc  Sc91  1  0.10459161  0.90765893  0.89700577  1
  Sc  Sc92  1  0.89675537  0.69954485  0.11425988  1
  Sc  Sc93  1  0.70347951  0.69913337  0.70054462  1
  Sc  Sc94  1  0.50164616  0.29323169  0.49135875  1
  Sc  Sc95  1  0.70435063  0.69640146  0.30026593  1
  Sc  Sc96  1  0.90621816  0.09882295  0.28618938  1
  Sc  Sc97  1  0.10119813  0.90592580  0.70186566  1
  Sc  Sc98  1  0.30399131  0.10401474  0.09574021  1
  Sc  Sc99  1  0.30283330  0.29682538  0.10014759  1
  Nb  Nb100  1  0.09266400  0.50049823  0.90582602  1
  Nb  Nb101  1  0.51274580  0.11110625  0.10020803  1
  Nb  Nb102  1  0.89481427  0.10707418  0.09194221  1
  Nb  Nb103  1  0.10183587  0.09838510  0.30226496  1
  Nb  Nb104  1  0.09257856  0.09780375  0.70556298  1
  Nb  Nb105  1  0.89881383  0.10019100  0.90388210  1
  Nb  Nb106  1  0.50100115  0.30555532  0.70499354  1
  Nb  Nb107  1  0.69237050  0.10408785  0.10816210  1
  Nb  Nb108  1  0.69390729  0.49446803  0.69480033  1
  Nb  Nb109  1  0.10152536  0.30108198  0.49705000  1
  Nb  Nb110  1  0.08905570  0.69141871  0.90511185  1
  Nb  Nb111  1  0.30430583  0.89918978  0.29689333  1
  Nb  Nb112  1  0.70144994  0.09802709  0.29547101  1
  Nb  Nb113  1  0.30048631  0.89854120  0.49882810  1
  Nb  Nb114  1  0.49404500  0.30794929  0.29729243  1
  Nb  Nb115  1  0.70557447  0.48568761  0.50703590  1
  Nb  Nb116  1  0.68977438  0.29575466  0.09414510  1
  Nb  Nb117  1  0.90579499  0.70646745  0.89154674  1
  Nb  Nb118  1  0.49816572  0.49530128  0.29962755  1
  Nb  Nb119  1  0.50625152  0.49483245  0.70108192  1
  Nb  Nb120  1  0.90371457  0.89836163  0.10103944  1
  Nb  Nb121  1  0.70254278  0.30766392  0.49777915  1
  Nb  Nb122  1  0.89648846  0.29448659  0.09877152  1
  Nb  Nb123  1  0.50469253  0.29137185  0.10068490  1
  Nb  Nb124  1  0.30278314  0.49626878  0.30065833  1
  Nb  Nb125  1  0.40587140  0.40301174  0.60423444  1
  Nb  Nb126  1  0.39670115  0.79992620  0.59391724  1
  Nb  Nb127  1  0.60006546  0.60597449  -0.00516703  1
  Nb  Nb128  1  -0.00385743  0.80027560  -0.00294256  1
  Nb  Nb129  1  0.80432091  0.00581087  0.39658808  1
  Nb  Nb130  1  0.40286215  0.59857292  0.40051586  1
  Nb  Nb131  1  0.00015893  0.40278562  0.80057915  1
  Nb  Nb132  1  0.20346762  0.80120768  0.20201253  1
  Nb  Nb133  1  0.59142385  0.39760829  0.19724415  1
  Nb  Nb134  1  0.40104031  0.59112183  0.20608347  1
  Nb  Nb135  1  0.60545410  0.00459952  0.00721773  1
  Nb  Nb136  1  0.59497785  0.79864642  0.19891944  1
  Nb  Nb137  1  0.41051472  0.59904954  0.59669871  1
  Nb  Nb138  1  0.79504101  0.19920244  0.19388989  1
  Nb  Nb139  1  -0.01147268  0.00143556  0.00226225  1
  Nb  Nb140  1  0.20111033  0.39729825  0.39678226  1
  Nb  Nb141  1  0.20297546  -0.00190613  0.39674366  1
  Nb  Nb142  1  0.39510283  0.80021872  0.40084759  1
  Nb  Nb143  1  0.60073752  0.58861614  0.60248755  1
  Nb  Nb144  1  0.00200438  0.00336148  0.39957352  1
  Nb  Nb145  1  0.40299074  0.39897919  0.79913517  1
  Nb  Nb146  1  0.80089809  0.19481966  0.39449820  1
  Nb  Nb147  1  0.00149475  0.39685077  0.60349425  1
  Nb  Nb148  1  0.00079104  0.19671022  0.39909448  1
  Nb  Nb149  1  0.40387639  0.21036258  0.80231085  1
  Pd  Pd150  1  0.60501883  0.60003227  0.41221596  1
  Pd  Pd151  1  0.79910979  0.59695880  0.80352804  1
  Pd  Pd152  1  0.39570367  0.00225287  0.39856860  1
  Pd  Pd153  1  0.19335153  0.80037371  0.00407934  1
  Pd  Pd154  1  0.60136709  0.80342021  0.79611991  1
  Pd  Pd155  1  0.19394736  0.19635945  0.00666840  1
  Pd  Pd156  1  0.20424084  0.00658349  0.59972266  1
  Pd  Pd157  1  0.19557426  0.60128777  0.80934520  1
  Pd  Pd158  1  0.80835086  0.40103279  0.80053825  1
  Pd  Pd159  1  -0.00024741  0.59466348  0.60923532  1
  Pd  Pd160  1  0.20078774  0.80430311  0.39263011  1
  Pd  Pd161  1  0.59619512  0.20470011  0.80760741  1
  Pd  Pd162  1  0.00798697  0.19583453  -0.00032685  1
  Pd  Pd163  1  0.80788708  0.79060928  0.00699134  1
  Pd  Pd164  1  0.19229070  0.61133825  0.60703386  1
  Pd  Pd165  1  0.19365643  0.80070361  0.80653579  1
  Pd  Pd166  1  -0.00046549  0.00381598  0.19316401  1
  Pd  Pd167  1  0.40113679  0.59915649  0.79539120  1
  Pd  Pd168  1  0.40238487  0.40352765  0.18548236  1
  Pd  Pd169  1  0.60085350  0.20286907  0.39320318  1
  Pd  Pd170  1  0.00056803  0.59069961  0.39331272  1
  Pd  Pd171  1  0.80072147  0.60641736  -0.00063056  1
  Pd  Pd172  1  0.00313672  0.20683876  0.59711430  1
  Pd  Pd173  1  0.20652338  0.19453364  0.79783991  1
  Pd  Pd174  1  0.19674253  0.39869768  0.80543081  1
  Pd  Pd175  1  0.41070220  0.00601803  0.00363650  1
  Pd  Pd176  1  0.40355389  -0.00412775  0.60199525  1
  Pd  Pd177  1  0.00159004  0.79199927  0.59847654  1
  Pd  Pd178  1  0.79661774  0.00091760  0.01139865  1
  Pd  Pd179  1  0.79543725  0.20764650  0.59601266  1
  Pd  Pd180  1  0.79863212  -0.00007573  0.79046760  1
  Pd  Pd181  1  0.80284603  0.00294485  0.19847106  1
  Pd  Pd182  1  -0.01711153  0.60566060  0.00567342  1
  Pd  Pd183  1  0.79424135  0.80778926  0.39382585  1
  Pd  Pd184  1  -0.01100299  0.58634744  0.79623157  1
  Pd  Pd185  1  0.20660151  -0.00308233  0.19868613  1
  Pd  Pd186  1  0.01098716  0.39776258  0.39399535  1
  Pd  Pd187  1  0.79608869  -0.00266403  0.60308069  1
  Pd  Pd188  1  0.19949354  0.79406509  0.60987405  1
  Pd  Pd189  1  0.79883320  0.79949511  0.60561496  1
  Pd  Pd190  1  0.59960672  0.00212182  0.80629235  1
  Pd  Pd191  1  0.78760597  0.39523341  0.19708537  1
  Pd  Pd192  1  0.19815511  0.20110986  0.39587915  1
  Pd  Pd193  1  0.40326324  0.01088358  0.19309692  1
  Pd  Pd194  1  0.20054730  0.19534186  0.60540266  1
  Pd  Pd195  1  0.00306913  0.40260393  0.19552111  1
  Pd  Pd196  1  0.00224487  -0.00137970  0.59928707  1
  Pd  Pd197  1  0.59540070  0.20822512  0.59756864  1
  Pd  Pd198  1  0.60954861  0.59992237  0.80149990  1
  Pd  Pd199  1  0.19838925  0.39290654  0.59773859  1
  Rh  Rh200  1  -0.00487608  0.19988212  0.19975602  1
  Rh  Rh201  1  0.19546177  0.39659761  -0.00070771  1
  Rh  Rh202  1  0.79209499  0.39848652  0.39147881  1
  Rh  Rh203  1  0.40680850  0.19783206  0.19807400  1
  Rh  Rh204  1  0.60618433  0.00316031  0.39737092  1
  Rh  Rh205  1  0.19870451  0.00780152  0.79215930  1
  Rh  Rh206  1  0.39234574  0.81019957  -0.00959196  1
  Rh  Rh207  1  0.40343629  0.19781211  -0.00277245  1
  Rh  Rh208  1  -0.00393482  0.39400123  -0.00562389  1
  Rh  Rh209  1  -0.00120172  0.20105104  0.80769631  1
  Rh  Rh210  1  0.60595139  0.39318419  0.39233097  1
  Rh  Rh211  1  0.59614499  0.39420117  0.59442991  1
  Rh  Rh212  1  0.80129262  0.19865740  0.80281611  1
  Rh  Rh213  1  0.59010532  0.59522460  0.18412761  1
  Rh  Rh214  1  0.40342965  0.01012743  0.79704806  1
  Rh  Rh215  1  0.60093780  0.21027530  0.20909172  1
  Rh  Rh216  1  0.79333968  0.59457257  0.40471745  1
  Rh  Rh217  1  0.40596649  0.20873211  0.60810799  1
  Rh  Rh218  1  0.39401909  0.39904056  -0.00002767  1
  Rh  Rh219  1  0.39746666  0.78794792  0.20918472  1
  Rh  Rh220  1  0.59768068  -0.00746933  0.19278342  1
  Rh  Rh221  1  -0.00092035  0.00204778  0.80931994  1
  Rh  Rh222  1  0.20239742  0.60136175  -0.00413039  1
  Rh  Rh223  1  0.60079979  0.80495847  0.38846019  1
  Rh  Rh224  1  0.80668874  0.39172570  0.60787387  1
  Rh  Rh225  1  0.39191501  0.40212840  0.40778051  1
  Rh  Rh226  1  0.39791012  0.80446231  0.79622824  1
  Rh  Rh227  1  0.79988893  0.39213471  0.00581990  1
  Rh  Rh228  1  0.40795575  0.19321893  0.39090773  1
  Rh  Rh229  1  0.61067291  0.41078126  0.00715423  1
  Rh  Rh230  1  0.78757765  0.60244900  0.59412987  1
  Rh  Rh231  1  0.21012622  0.60433055  0.18961756  1
  Rh  Rh232  1  0.60633428  0.19213657  -0.00882187  1
  Rh  Rh233  1  0.20187565  0.39368900  0.20159433  1
  Rh  Rh234  1  0.39913069  0.59603871  0.00609224  1
  Rh  Rh235  1  0.59523163  0.79316282  0.60924251  1
  Rh  Rh236  1  0.19583822  0.59018124  0.40032057  1
  Rh  Rh237  1  -0.00157541  0.80273275  0.40868103  1
  Rh  Rh238  1  0.80372788  0.59536485  0.20556033  1
  Rh  Rh239  1  -0.00719171  0.59113822  0.19888474  1
  Rh  Rh240  1  0.01169326  0.79938943  0.18586756  1
  Rh  Rh241  1  0.60409570  0.80152205  0.00865329  1
  Rh  Rh242  1  0.19200235  0.00776880  0.00266603  1
  Rh  Rh243  1  0.60013972  0.00531980  0.60360014  1
  Rh  Rh244  1  0.59940623  0.39938289  0.80851914  1
  Rh  Rh245  1  0.00432993  0.80962381  0.81039685  1
  Rh  Rh246  1  0.20281325  0.20159737  0.19637004  1
  Rh  Rh247  1  0.79796902  0.80436632  0.79449898  1
  Rh  Rh248  1  0.79261878  0.79847439  0.20462975  1
  Rh  Rh249  1  0.79271592  0.20415498  0.00476109  1
