# generated using pymatgen
data_ZrScNbPdRh
_symmetry_space_group_name_H-M   'P 1'
_cell_length_a   16.55666309
_cell_length_b   16.55778547
_cell_length_c   16.56250459
_cell_angle_alpha   89.99632946
_cell_angle_beta   90.01783561
_cell_angle_gamma   90.00088368
_symmetry_Int_Tables_number   1
_chemical_formula_structural   ZrScNbPdRh
_chemical_formula_sum   'Zr50 Sc50 Nb50 Pd50 Rh50'
_cell_volume   4540.47253089
_cell_formula_units_Z   50
loop_
 _symmetry_equiv_pos_site_id
 _symmetry_equiv_pos_as_xyz
  1  'x, y, z'
loop_
 _atom_site_type_symbol
 _atom_site_label
 _atom_site_symmetry_multiplicity
 _atom_site_fract_x
 _atom_site_fract_y
 _atom_site_fract_z
 _atom_site_occupancy
  Zr  Zr0  1  0.29555787  0.50415917  0.29947005  1
  Zr  Zr1  1  0.68775154  0.90292470  0.49957515  1
  Zr  Zr2  1  0.90350324  0.29447209  0.30528245  1
  Zr  Zr3  1  0.69441929  0.69092799  0.90340065  1
  Zr  Zr4  1  0.89129551  0.69174685  0.88863884  1
  Zr  Zr5  1  0.11015550  0.90412555  0.30007315  1
  Zr  Zr6  1  0.30673909  0.70227568  0.90037227  1
  Zr  Zr7  1  0.10212011  0.10265827  0.90193208  1
  Zr  Zr8  1  0.09378184  0.68788083  0.69732620  1
  Zr  Zr9  1  0.10265134  0.09404248  0.49607981  1
  Zr  Zr10  1  0.30141844  0.70004186  0.49992648  1
  Zr  Zr11  1  0.50342729  0.09397919  0.90414806  1
  Zr  Zr12  1  0.70957440  0.50463715  0.29249385  1
  Zr  Zr13  1  0.29876057  0.49648358  0.11244810  1
  Zr  Zr14  1  0.70018179  0.50329687  0.90072180  1
  Zr  Zr15  1  0.10320315  0.89695955  0.09796606  1
  Zr  Zr16  1  0.50746272  0.70297489  0.29621669  1
  Zr  Zr17  1  0.70368524  0.69399815  0.70616930  1
  Zr  Zr18  1  0.49827032  0.71232318  0.49509574  1
  Zr  Zr19  1  0.70591648  0.29704522  0.49959816  1
  Zr  Zr20  1  0.89580638  0.69964261  0.30086886  1
  Zr  Zr21  1  0.70089664  0.10709269  0.30089778  1
  Zr  Zr22  1  0.69370429  0.90620657  0.89722543  1
  Zr  Zr23  1  0.69631384  0.49159487  0.09860927  1
  Zr  Zr24  1  0.30697840  0.70464235  0.30186470  1
  Zr  Zr25  1  0.70524649  0.90453653  0.10331503  1
  Zr  Zr26  1  0.09918081  0.49584870  0.09904448  1
  Zr  Zr27  1  0.30538913  0.89803644  0.70573601  1
  Zr  Zr28  1  0.10014172  0.90151225  0.91131244  1
  Zr  Zr29  1  0.49615783  0.69857277  0.90617912  1
  Zr  Zr30  1  0.30685449  0.89772691  0.49507651  1
  Zr  Zr31  1  0.29103822  0.69945628  0.70022652  1
  Zr  Zr32  1  0.09381561  0.10001062  0.30522335  1
  Zr  Zr33  1  0.49307543  0.90018562  0.89992365  1
  Zr  Zr34  1  0.50820346  0.29592884  0.10098633  1
  Zr  Zr35  1  0.10096866  0.30290971  0.90137479  1
  Zr  Zr36  1  0.49941469  0.50087811  0.29111571  1
  Zr  Zr37  1  0.89474415  0.49482933  0.10105216  1
  Zr  Zr38  1  0.89362858  0.89977812  0.50128298  1
  Zr  Zr39  1  0.50012276  0.29987460  0.89672157  1
  Zr  Zr40  1  0.69917617  0.29470159  0.69509477  1
  Zr  Zr41  1  0.69813657  0.90651616  0.69624500  1
  Zr  Zr42  1  0.50513330  0.49815073  0.90074214  1
  Zr  Zr43  1  0.70043980  0.29713034  0.29446428  1
  Zr  Zr44  1  0.30536262  0.29920203  0.10293993  1
  Zr  Zr45  1  0.89788650  0.89885878  0.90342461  1
  Zr  Zr46  1  0.30925536  0.29064866  0.69741503  1
  Zr  Zr47  1  0.30082771  0.09822152  0.69684489  1
  Zr  Zr48  1  0.09707982  0.49519220  0.89517065  1
  Zr  Zr49  1  0.69372936  0.69820669  0.10308831  1
  Sc  Sc50  1  0.89604605  0.10854682  0.90965732  1
  Sc  Sc51  1  0.49980013  0.10317119  0.30695450  1
  Sc  Sc52  1  0.91080522  0.50680594  0.70450958  1
  Sc  Sc53  1  0.10285678  0.89369132  0.48639242  1
  Sc  Sc54  1  0.50043021  0.70435953  0.09924354  1
  Sc  Sc55  1  0.30311945  0.70925177  0.10298624  1
  Sc  Sc56  1  0.10625398  0.88884072  0.70861533  1
  Sc  Sc57  1  0.30502653  0.30903092  0.29485125  1
  Sc  Sc58  1  0.90170043  0.50089493  0.90360287  1
  Sc  Sc59  1  0.50568364  0.89627580  0.30870536  1
  Sc  Sc60  1  0.08568593  0.10585220  0.09654714  1
  Sc  Sc61  1  0.30194481  0.09674995  0.89442215  1
  Sc  Sc62  1  0.90884570  0.69246070  0.48725927  1
  Sc  Sc63  1  0.90365131  0.70123985  0.09535878  1
  Sc  Sc64  1  0.31632392  0.10231426  0.50160878  1
  Sc  Sc65  1  0.89780631  0.29679211  0.69775824  1
  Sc  Sc66  1  0.10525609  0.11086227  0.70246703  1
  Sc  Sc67  1  0.49786522  0.90700752  0.70096200  1
  Sc  Sc68  1  0.89680701  0.90156259  0.10187328  1
  Sc  Sc69  1  0.70105844  0.89433704  0.29620068  1
  Sc  Sc70  1  0.90594296  0.11113527  0.49536097  1
  Sc  Sc71  1  0.10286017  0.50761179  0.49094945  1
  Sc  Sc72  1  0.29833606  0.50370476  0.70062624  1
  Sc  Sc73  1  0.10210018  0.50177980  0.70189423  1
  Sc  Sc74  1  0.89448366  0.89534733  0.70300967  1
  Sc  Sc75  1  0.09735502  0.30031670  0.70749865  1
  Sc  Sc76  1  0.88834825  0.10241096  0.10178384  1
  Sc  Sc77  1  0.29826913  0.90050536  0.90596629  1
  Sc  Sc78  1  0.29477177  0.50919416  0.49596368  1
  Sc  Sc79  1  0.69859440  0.29800385  0.90953457  1
  Sc  Sc80  1  0.49866803  0.50421903  0.51477554  1
  Sc  Sc81  1  0.10633520  0.69753737  0.49746789  1
  Sc  Sc82  1  0.50621291  0.29571677  0.29691099  1
  Sc  Sc83  1  0.09604491  0.29468164  0.48992234  1
  Sc  Sc84  1  0.49286477  0.69487045  0.69585873  1
  Sc  Sc85  1  0.69917427  0.70511069  0.29392844  1
  Sc  Sc86  1  0.09476259  0.70522217  0.90276157  1
  Sc  Sc87  1  0.31709213  0.09094268  0.10574536  1
  Sc  Sc88  1  0.50112099  0.28916446  0.50869579  1
  Sc  Sc89  1  0.09138919  0.30591602  0.10140940  1
  Sc  Sc90  1  0.68866566  0.49554397  0.69661196  1
  Sc  Sc91  1  0.90075527  0.29720749  0.10000349  1
  Sc  Sc92  1  0.89770858  0.10926081  0.69822269  1
  Sc  Sc93  1  0.89339828  0.89310250  0.30072252  1
  Sc  Sc94  1  0.70248796  0.10562425  0.90749221  1
  Sc  Sc95  1  0.09956760  0.70890594  0.10001909  1
  Sc  Sc96  1  0.49300669  0.10014248  0.69481112  1
  Sc  Sc97  1  0.90248393  0.29812201  0.89911860  1
  Sc  Sc98  1  0.10199321  0.71005253  0.30326475  1
  Sc  Sc99  1  0.29785863  0.50185997  0.89533880  1
  Nb  Nb100  1  0.89659777  0.49837211  0.48995607  1
  Nb  Nb101  1  0.90068522  0.50280347  0.30513499  1
  Nb  Nb102  1  0.68908023  0.10271774  0.50152372  1
  Nb  Nb103  1  0.89693214  0.10051927  0.29862115  1
  Nb  Nb104  1  0.29212845  0.09487450  0.29943542  1
  Nb  Nb105  1  0.50300208  0.30672325  0.70207719  1
  Nb  Nb106  1  0.69533470  0.69573432  0.50331223  1
  Nb  Nb107  1  0.89922937  0.30853154  0.49951704  1
  Nb  Nb108  1  0.29929395  0.29599757  0.90347570  1
  Nb  Nb109  1  0.70630577  0.50073581  0.49578694  1
  Nb  Nb110  1  0.30035907  0.89935267  0.10608978  1
  Nb  Nb111  1  0.30241346  0.29988553  0.49990574  1
  Nb  Nb112  1  0.49333411  0.90985330  0.09594317  1
  Nb  Nb113  1  0.29191746  0.90668039  0.29333734  1
  Nb  Nb114  1  0.69954295  0.29510930  0.10481557  1
  Nb  Nb115  1  0.89998940  0.69519045  0.69542032  1
  Nb  Nb116  1  0.50844060  0.09389711  0.49418813  1
  Nb  Nb117  1  0.50422100  0.09754238  0.09991181  1
  Nb  Nb118  1  0.69965564  0.10266417  0.70249584  1
  Nb  Nb119  1  0.10220982  0.29602212  0.29632507  1
  Nb  Nb120  1  0.50194974  0.90852178  0.49666945  1
  Nb  Nb121  1  0.50002789  0.47741849  0.70734765  1
  Nb  Nb122  1  0.70151929  0.10674000  0.10329318  1
  Nb  Nb123  1  0.10540220  0.49126190  0.29456109  1
  Nb  Nb124  1  0.50056685  0.49321459  0.09950871  1
  Nb  Nb125  1  0.19890797  0.39318651  0.59411772  1
  Nb  Nb126  1  0.60096613  0.40650165  0.40287564  1
  Nb  Nb127  1  0.80276631  0.59746993  0.59244034  1
  Nb  Nb128  1  -0.00256978  0.40233228  0.58909698  1
  Nb  Nb129  1  0.79376470  0.00836861  0.40402792  1
  Nb  Nb130  1  0.79974025  0.00622737  0.79852491  1
  Nb  Nb131  1  0.00504761  -0.00552992  0.60533803  1
  Nb  Nb132  1  0.19994168  -0.00354372  0.59891389  1
  Nb  Nb133  1  0.20533532  0.20279317  0.00505207  1
  Nb  Nb134  1  -0.00321380  0.00043262  0.79952068  1
  Nb  Nb135  1  -0.00570989  0.79772422  0.60035765  1
  Nb  Nb136  1  0.00152264  0.59142747  0.20742113  1
  Nb  Nb137  1  0.79340823  0.79736514  -0.00543469  1
  Nb  Nb138  1  0.20685586  0.19983610  0.39262199  1
  Nb  Nb139  1  0.59885826  0.00512005  0.19426521  1
  Nb  Nb140  1  0.20069550  0.59881655  0.00228809  1
  Nb  Nb141  1  0.40490451  0.40076763  0.40378382  1
  Nb  Nb142  1  0.19960513  0.19902462  0.20154669  1
  Nb  Nb143  1  0.59796478  0.79776700  0.80199010  1
  Nb  Nb144  1  0.60538765  0.59687612  0.40460034  1
  Nb  Nb145  1  0.40115261  0.39891872  0.00117758  1
  Nb  Nb146  1  -0.00368171  0.00157935  0.20604304  1
  Nb  Nb147  1  0.79662601  0.39939304  0.79802990  1
  Nb  Nb148  1  0.59853670  0.20003895  0.79469860  1
  Nb  Nb149  1  0.79940604  0.78829024  0.59752770  1
  Pd  Pd150  1  0.79573201  0.39648943  0.39192593  1
  Pd  Pd151  1  0.00530607  0.60236696  0.00456884  1
  Pd  Pd152  1  0.00632639  0.40060258  0.40011811  1
  Pd  Pd153  1  0.19111721  0.61208643  0.19851076  1
  Pd  Pd154  1  0.41107270  0.59361782  0.40249339  1
  Pd  Pd155  1  0.59226026  0.00627017  0.60551838  1
  Pd  Pd156  1  0.38969247  0.39963160  0.80650881  1
  Pd  Pd157  1  0.40603928  0.19452241  0.80027036  1
  Pd  Pd158  1  -0.00107643  0.80086342  0.79717589  1
  Pd  Pd159  1  -0.01229659  -0.00748582  0.39829854  1
  Pd  Pd160  1  0.80718476  0.00879325  0.59891473  1
  Pd  Pd161  1  0.39809710  0.19857888  -0.00080915  1
  Pd  Pd162  1  0.39152673  0.40305634  0.59374255  1
  Pd  Pd163  1  0.19246860  0.00081320  0.79405516  1
  Pd  Pd164  1  0.80995763  0.41126931  0.60914509  1
  Pd  Pd165  1  0.19152514  0.80420660  0.59557538  1
  Pd  Pd166  1  0.18969693  0.01228835  0.18597950  1
  Pd  Pd167  1  -0.00199951  0.80381675  0.20361606  1
  Pd  Pd168  1  0.59805857  0.79964672  0.60875670  1
  Pd  Pd169  1  0.19841323  0.20095302  0.59032759  1
  Pd  Pd170  1  0.39786892  0.59487704  0.60587901  1
  Pd  Pd171  1  0.60607095  0.00325249  0.00630327  1
  Pd  Pd172  1  0.60061337  0.80452732  0.00073575  1
  Pd  Pd173  1  0.20556276  0.39416271  0.40342614  1
  Pd  Pd174  1  0.39369909  0.59159404  0.00945664  1
  Pd  Pd175  1  0.40397591  0.60567849  0.19155492  1
  Pd  Pd176  1  -0.01048816  0.00330368  0.00496157  1
  Pd  Pd177  1  0.20744324  0.39346337  0.78861603  1
  Pd  Pd178  1  0.20676233  0.40099525  0.00183277  1
  Pd  Pd179  1  0.40450575  0.59544398  0.79354612  1
  Pd  Pd180  1  0.80353669  0.39359367  -0.00577019  1
  Pd  Pd181  1  0.19810858  0.79476259  0.80855336  1
  Pd  Pd182  1  0.79129551  0.79930253  0.40717969  1
  Pd  Pd183  1  0.39837133  0.20679524  0.39506333  1
  Pd  Pd184  1  0.01007327  0.59960307  0.39101125  1
  Pd  Pd185  1  0.80261725  0.19340026  0.59228386  1
  Pd  Pd186  1  0.40517067  0.80560456  0.60353318  1
  Pd  Pd187  1  0.79186332  0.80447808  0.79977283  1
  Pd  Pd188  1  0.40588689  0.81043263  0.20337827  1
  Pd  Pd189  1  -0.00407099  0.19520914  0.80357606  1
  Pd  Pd190  1  0.80663407  0.60508552  0.19346567  1
  Pd  Pd191  1  0.59998264  0.59721576  0.60135637  1
  Pd  Pd192  1  0.00516324  0.20409192  0.59735816  1
  Pd  Pd193  1  -0.00642767  0.40102457  0.20556111  1
  Pd  Pd194  1  0.60042628  0.39753183  0.58966104  1
  Pd  Pd195  1  0.40000563  0.19643703  0.20776460  1
  Pd  Pd196  1  0.39988685  -0.00177430  0.39182899  1
  Pd  Pd197  1  0.41091360  -0.00525762  0.21253108  1
  Pd  Pd198  1  0.58821460  0.60074705  0.79227196  1
  Pd  Pd199  1  0.20782727  0.01153886  0.01110682  1
  Rh  Rh200  1  0.00268621  0.59997213  0.80655408  1
  Rh  Rh201  1  0.79790516  0.00287279  0.21197557  1
  Rh  Rh202  1  0.80513515  0.39288281  0.20396028  1
  Rh  Rh203  1  0.79858864  0.58348580  0.78927443  1
  Rh  Rh204  1  0.80536038  0.20614767  0.19767856  1
  Rh  Rh205  1  0.59268008  0.81494842  0.19037252  1
  Rh  Rh206  1  0.59921354  0.20797313  0.40532113  1
  Rh  Rh207  1  -0.00015078  0.80173909  0.40200848  1
  Rh  Rh208  1  0.19946364  0.59282400  0.60066183  1
  Rh  Rh209  1  0.60343619  0.00713989  0.79633403  1
  Rh  Rh210  1  -0.01123273  0.79732961  -0.00373592  1
  Rh  Rh211  1  0.00532604  0.20644589  -0.00095741  1
  Rh  Rh212  1  0.59736110  0.59659023  0.19864576  1
  Rh  Rh213  1  0.40819991  0.19756729  0.59878318  1
  Rh  Rh214  1  -0.00344852  0.59702698  0.58978931  1
  Rh  Rh215  1  0.59589401  0.59330139  0.00943409  1
  Rh  Rh216  1  0.39424115  -0.00109050  -0.00208990  1
  Rh  Rh217  1  0.60146450  0.19801388  -0.00064994  1
  Rh  Rh218  1  0.79810544  0.60482687  0.00770897  1
  Rh  Rh219  1  -0.00150501  0.19414327  0.20245366  1
  Rh  Rh220  1  0.40793013  0.39717285  0.20090094  1
  Rh  Rh221  1  0.20427705  0.20410798  0.80873578  1
  Rh  Rh222  1  0.79033507  0.20277151  0.80208002  1
  Rh  Rh223  1  0.79780077  0.20627215  0.00694312  1
  Rh  Rh224  1  0.79823164  -0.00146449  -0.00597157  1
  Rh  Rh225  1  0.61132232  0.38967686  0.80314131  1
  Rh  Rh226  1  0.00023759  0.20288035  0.39945486  1
  Rh  Rh227  1  0.40575830  0.79849932  0.79809021  1
  Rh  Rh228  1  0.39620355  0.80850153  0.00677678  1
  Rh  Rh229  1  0.19588586  0.38956402  0.19997881  1
  Rh  Rh230  1  0.19582322  0.60619288  0.81076230  1
  Rh  Rh231  1  0.19745084  0.60546855  0.38868071  1
  Rh  Rh232  1  0.59794654  0.19154831  0.19706233  1
  Rh  Rh233  1  0.39858436  0.00103132  0.80198789  1
  Rh  Rh234  1  0.59463899  0.19461954  0.60513152  1
  Rh  Rh235  1  0.79329004  0.60678348  0.40211091  1
  Rh  Rh236  1  0.60689871  0.00178941  0.39085640  1
  Rh  Rh237  1  0.39960118  -0.00278815  0.59552918  1
  Rh  Rh238  1  0.80010900  0.19653345  0.40603608  1
  Rh  Rh239  1  0.60478121  0.79487443  0.40186358  1
  Rh  Rh240  1  0.20936340  0.79637314  0.39743253  1
  Rh  Rh241  1  0.80245134  0.79407130  0.18892365  1
  Rh  Rh242  1  0.59714740  0.39776956  0.00155866  1
  Rh  Rh243  1  0.20693420  0.79416506  0.00120298  1
  Rh  Rh244  1  0.39860286  0.80796569  0.39385155  1
  Rh  Rh245  1  0.60286922  0.40011470  0.20425590  1
  Rh  Rh246  1  0.21415601  0.00705875  0.41128529  1
  Rh  Rh247  1  -0.00670303  0.39935770  -0.00249011  1
  Rh  Rh248  1  0.20391236  0.80016734  0.20069035  1
  Rh  Rh249  1  -0.00972196  0.39741862  0.79159858  1
