# generated using pymatgen
data_ZrScNbPdRh
_symmetry_space_group_name_H-M   'P 1'
_cell_length_a   16.55636000
_cell_length_b   16.56012358
_cell_length_c   16.56361876
_cell_angle_alpha   89.97594463
_cell_angle_beta   90.00389396
_cell_angle_gamma   89.96899201
_symmetry_Int_Tables_number   1
_chemical_formula_structural   ZrScNbPdRh
_chemical_formula_sum   'Zr50 Sc50 Nb50 Pd50 Rh50'
_cell_volume   4541.33518597
_cell_formula_units_Z   50
loop_
 _symmetry_equiv_pos_site_id
 _symmetry_equiv_pos_as_xyz
  1  'x, y, z'
loop_
 _atom_site_type_symbol
 _atom_site_label
 _atom_site_symmetry_multiplicity
 _atom_site_fract_x
 _atom_site_fract_y
 _atom_site_fract_z
 _atom_site_occupancy
  Zr  Zr0  1  0.69167386  0.50029656  0.49199779  1
  Zr  Zr1  1  0.29546108  0.09591406  0.69926948  1
  Zr  Zr2  1  0.49736788  0.30432264  0.49945588  1
  Zr  Zr3  1  0.49683198  0.10808557  0.70089570  1
  Zr  Zr4  1  0.90214636  0.30910880  0.30335856  1
  Zr  Zr5  1  0.09562508  0.49159885  0.09481009  1
  Zr  Zr6  1  0.69945575  0.90667906  0.49397066  1
  Zr  Zr7  1  0.49515327  0.69253665  0.10750418  1
  Zr  Zr8  1  0.09814608  0.30007487  0.49565435  1
  Zr  Zr9  1  0.50545769  0.70402008  0.29676523  1
  Zr  Zr10  1  0.89183498  0.89730974  0.30039036  1
  Zr  Zr11  1  0.10164525  0.90180000  0.10085545  1
  Zr  Zr12  1  0.09678651  0.09563851  0.69854736  1
  Zr  Zr13  1  0.91300605  0.90482177  0.69514246  1
  Zr  Zr14  1  0.51194730  0.89611713  0.90210694  1
  Zr  Zr15  1  0.09714104  0.30438671  0.09822398  1
  Zr  Zr16  1  0.09244623  0.09755553  0.90233859  1
  Zr  Zr17  1  0.90514694  0.70520358  0.49926614  1
  Zr  Zr18  1  0.89569051  0.50708285  0.70784943  1
  Zr  Zr19  1  0.30281437  0.29868067  0.69444927  1
  Zr  Zr20  1  0.89490264  0.09965164  0.30287509  1
  Zr  Zr21  1  0.31127261  0.10753132  0.10810091  1
  Zr  Zr22  1  0.30140238  0.70321128  0.90289455  1
  Zr  Zr23  1  0.69848202  0.08489613  0.30301445  1
  Zr  Zr24  1  0.49891774  0.50110931  0.71090966  1
  Zr  Zr25  1  0.09741582  0.09836022  0.10444036  1
  Zr  Zr26  1  0.49157533  0.29135965  0.09917914  1
  Zr  Zr27  1  0.50020023  0.29999129  0.69801059  1
  Zr  Zr28  1  0.11248281  0.50027471  0.49534650  1
  Zr  Zr29  1  0.90198265  0.69766014  0.29470497  1
  Zr  Zr30  1  0.49302566  0.89558223  0.10977406  1
  Zr  Zr31  1  0.29733281  0.30266199  0.49898201  1
  Zr  Zr32  1  0.49586512  0.09707298  0.28999555  1
  Zr  Zr33  1  0.29882253  0.89207161  0.50223352  1
  Zr  Zr34  1  0.29521213  0.30444502  0.10303312  1
  Zr  Zr35  1  0.90010182  0.10230707  0.68550572  1
  Zr  Zr36  1  0.89485089  0.09685327  0.90321761  1
  Zr  Zr37  1  0.29882954  0.49809608  0.50897317  1
  Zr  Zr38  1  0.89888651  0.29253261  0.70054906  1
  Zr  Zr39  1  0.89775984  0.69907390  0.08685710  1
  Zr  Zr40  1  0.69945784  0.50813375  0.69396279  1
  Zr  Zr41  1  0.10006533  0.30001239  0.29830379  1
  Zr  Zr42  1  0.30418546  0.89873357  0.90117939  1
  Zr  Zr43  1  0.30536382  0.71148689  0.10203499  1
  Zr  Zr44  1  0.29653144  0.90446647  0.69417369  1
  Zr  Zr45  1  0.08820149  0.69582427  0.90085154  1
  Zr  Zr46  1  0.90184101  0.89995050  0.50119396  1
  Zr  Zr47  1  0.09905107  0.49227331  0.88820578  1
  Zr  Zr48  1  0.70727508  0.69407397  0.70158541  1
  Zr  Zr49  1  0.70445247  0.69252494  0.50974648  1
  Sc  Sc50  1  0.69908078  0.30834934  0.30267943  1
  Sc  Sc51  1  0.69967855  0.70673228  0.90762187  1
  Sc  Sc52  1  0.90485512  0.49572362  0.48589720  1
  Sc  Sc53  1  0.49362894  0.90062148  0.69744856  1
  Sc  Sc54  1  0.10002788  0.89206546  0.50456268  1
  Sc  Sc55  1  0.49382079  0.69990320  0.49841153  1
  Sc  Sc56  1  0.09633428  0.70340300  0.09570739  1
  Sc  Sc57  1  0.70365282  0.10095148  0.69764576  1
  Sc  Sc58  1  0.50036621  0.50975964  0.50135783  1
  Sc  Sc59  1  0.69998074  0.29749813  0.70726951  1
  Sc  Sc60  1  0.90649947  0.29849753  0.89719799  1
  Sc  Sc61  1  0.90029717  0.08548311  0.09918803  1
  Sc  Sc62  1  0.89457767  0.50229146  0.10182996  1
  Sc  Sc63  1  0.51165563  0.51414595  0.30652368  1
  Sc  Sc64  1  0.08805391  0.49772628  0.30110510  1
  Sc  Sc65  1  0.51154602  0.90001674  0.30419160  1
  Sc  Sc66  1  0.49946502  0.89930851  0.50163246  1
  Sc  Sc67  1  0.30877955  0.10082033  0.89470139  1
  Sc  Sc68  1  0.90527882  0.51002921  0.90074493  1
  Sc  Sc69  1  0.28686624  0.50517981  0.31220351  1
  Sc  Sc70  1  0.70217638  0.09219578  0.10191379  1
  Sc  Sc71  1  0.89749332  0.69928381  0.69880494  1
  Sc  Sc72  1  0.30504893  0.49787415  0.89254561  1
  Sc  Sc73  1  0.50072433  0.10217441  0.90024794  1
  Sc  Sc74  1  0.49384603  0.69959056  0.89783147  1
  Sc  Sc75  1  0.10736411  0.69501979  0.69910135  1
  Sc  Sc76  1  0.49887148  0.29884964  0.89126674  1
  Sc  Sc77  1  0.89567638  0.31269299  0.09273626  1
  Sc  Sc78  1  0.70340777  0.89458971  0.09693824  1
  Sc  Sc79  1  0.49919257  0.69790990  0.70267038  1
  Sc  Sc80  1  0.29347971  0.10424520  0.30119610  1
  Sc  Sc81  1  0.29557956  0.29249330  0.30106533  1
  Sc  Sc82  1  0.10879204  0.90072570  0.30185073  1
  Sc  Sc83  1  0.09343666  0.30073695  0.70975684  1
  Sc  Sc84  1  0.29190872  0.10887869  0.49959266  1
  Sc  Sc85  1  0.09784449  0.10991781  0.50205612  1
  Sc  Sc86  1  0.30682296  0.30242174  0.90002187  1
  Sc  Sc87  1  0.10560667  0.70415820  0.49352787  1
  Sc  Sc88  1  0.29656541  0.70688901  0.30490805  1
  Sc  Sc89  1  0.69747330  0.90925509  0.70418818  1
  Sc  Sc90  1  0.90123014  0.28660637  0.49603092  1
  Sc  Sc91  1  0.69606783  0.29636366  0.49427371  1
  Sc  Sc92  1  0.70920282  0.29570559  0.89985855  1
  Sc  Sc93  1  0.70158994  0.49861586  0.88565389  1
  Sc  Sc94  1  0.29585011  0.69815023  0.50321114  1
  Sc  Sc95  1  0.70597208  0.69718933  0.10393217  1
  Sc  Sc96  1  0.29779330  0.89897000  0.29314423  1
  Sc  Sc97  1  0.51080256  0.10468476  0.49567241  1
  Sc  Sc98  1  0.30339173  0.69866023  0.69789760  1
  Sc  Sc99  1  0.50336261  0.29088711  0.30522224  1
  Nb  Nb100  1  0.10565459  0.90616881  0.70588130  1
  Nb  Nb101  1  0.09900351  0.70322236  0.29699222  1
  Nb  Nb102  1  0.70322298  0.90666262  0.89898112  1
  Nb  Nb103  1  0.09906065  0.29836305  0.90055293  1
  Nb  Nb104  1  0.90149878  0.89190219  0.10196504  1
  Nb  Nb105  1  0.89835614  0.09801041  0.50080256  1
  Nb  Nb106  1  0.09604502  0.90306902  0.89547120  1
  Nb  Nb107  1  0.49740976  0.10124560  0.10319121  1
  Nb  Nb108  1  0.70087431  0.30429242  0.09979821  1
  Nb  Nb109  1  0.29972292  0.89813939  0.09812866  1
  Nb  Nb110  1  0.90117084  0.70662432  0.90254581  1
  Nb  Nb111  1  0.90641787  0.89386732  0.90664474  1
  Nb  Nb112  1  0.70307211  0.50494765  0.29398786  1
  Nb  Nb113  1  0.30130949  0.50413700  0.10117875  1
  Nb  Nb114  1  0.70073008  0.69956429  0.29768438  1
  Nb  Nb115  1  0.09798899  0.10239715  0.30004150  1
  Nb  Nb116  1  0.70451674  0.89300730  0.30058929  1
  Nb  Nb117  1  0.49507644  0.50083883  0.10362125  1
  Nb  Nb118  1  0.09955538  0.50035452  0.70196213  1
  Nb  Nb119  1  0.50333719  0.49648881  0.90300852  1
  Nb  Nb120  1  0.28855866  0.49855880  0.69851483  1
  Nb  Nb121  1  0.71344819  0.09545714  0.50237612  1
  Nb  Nb122  1  0.69901058  0.49511712  0.10475841  1
  Nb  Nb123  1  0.89445122  0.49980875  0.29316700  1
  Nb  Nb124  1  0.69909225  0.08561054  0.90631307  1
  Nb  Nb125  1  -0.00292911  0.80107922  0.19960229  1
  Nb  Nb126  1  0.80547775  0.80962476  0.80891288  1
  Nb  Nb127  1  0.80103811  0.20301435  0.19878175  1
  Nb  Nb128  1  0.80024810  0.40169448  0.59840218  1
  Nb  Nb129  1  0.19816180  0.60102909  0.19342254  1
  Nb  Nb130  1  0.80006056  0.59968113  0.38981592  1
  Nb  Nb131  1  0.59542051  0.58694774  0.00526508  1
  Nb  Nb132  1  0.19841104  0.19829776  -0.00276543  1
  Nb  Nb133  1  0.59934671  0.40018726  0.00438655  1
  Nb  Nb134  1  0.40175816  0.40775067  0.20482567  1
  Nb  Nb135  1  -0.00138276  0.00443332  0.40088798  1
  Nb  Nb136  1  0.59632728  0.40479938  0.19445434  1
  Nb  Nb137  1  0.20579737  0.00081265  0.00035696  1
  Nb  Nb138  1  -0.00601295  0.19986118  0.20178343  1
  Nb  Nb139  1  0.19407433  0.80900099  0.80199241  1
  Nb  Nb140  1  0.60408453  0.19909260  0.00512087  1
  Nb  Nb141  1  0.20354860  0.59546242  0.00354830  1
  Nb  Nb142  1  0.40080491  -0.00277908  0.00824944  1
  Nb  Nb143  1  -0.00262503  0.40529617  0.60320779  1
  Nb  Nb144  1  0.60458714  0.79761869  0.60135057  1
  Nb  Nb145  1  0.00565709  0.59092581  0.59943645  1
  Nb  Nb146  1  0.39802746  0.00230071  0.39894196  1
  Nb  Nb147  1  0.60163317  0.40321950  0.60365805  1
  Nb  Nb148  1  0.19536567  0.19953381  0.80622820  1
  Nb  Nb149  1  0.40039879  0.40172588  0.39851025  1
  Pd  Pd150  1  -0.01019856  0.00578402  0.80112437  1
  Pd  Pd151  1  0.40296155  0.40080089  0.00308786  1
  Pd  Pd152  1  0.60736683  0.80016688  0.19514715  1
  Pd  Pd153  1  0.00044695  0.60028347  0.40191530  1
  Pd  Pd154  1  0.59661376  0.78894227  0.00878211  1
  Pd  Pd155  1  0.80337792  0.39842667  0.79849889  1
  Pd  Pd156  1  0.79368083  0.81176622  0.61163511  1
  Pd  Pd157  1  -0.00450645  0.20247683  0.00858676  1
  Pd  Pd158  1  0.19105908  0.79991265  -0.00633056  1
  Pd  Pd159  1  0.00439732  0.60360137  0.19217103  1
  Pd  Pd160  1  0.20709494  0.00412682  0.19790281  1
  Pd  Pd161  1  0.79789954  0.18985003  0.80351765  1
  Pd  Pd162  1  0.20476585  0.40106844  -0.01022293  1
  Pd  Pd163  1  0.60122868  0.60860304  0.81108428  1
  Pd  Pd164  1  0.78963413  0.59206147  -0.00644682  1
  Pd  Pd165  1  0.39528281  0.80210178  0.79409805  1
  Pd  Pd166  1  0.80898508  -0.00324892  0.79577689  1
  Pd  Pd167  1  0.79826876  0.40306466  0.40404495  1
  Pd  Pd168  1  0.60547089  -0.00879584  0.19517493  1
  Pd  Pd169  1  0.38868028  0.59614126  0.21527670  1
  Pd  Pd170  1  0.01074452  0.79079380  0.60760165  1
  Pd  Pd171  1  0.39979467  0.59879614  0.60627370  1
  Pd  Pd172  1  0.39556082  0.59761011  0.39684896  1
  Pd  Pd173  1  0.39638699  0.40059002  0.79601247  1
  Pd  Pd174  1  0.59253385  0.00352839  0.00923125  1
  Pd  Pd175  1  0.20513351  0.60686213  0.80491485  1
  Pd  Pd176  1  0.79477609  0.79138546  0.40106955  1
  Pd  Pd177  1  0.19344855  0.00143667  0.58675810  1
  Pd  Pd178  1  0.39988531  0.19235752  0.59177880  1
  Pd  Pd179  1  0.60660567  0.19212655  0.39672736  1
  Pd  Pd180  1  0.79790467  0.40784646  -0.01024777  1
  Pd  Pd181  1  0.19905766  0.00089400  0.40564589  1
  Pd  Pd182  1  0.00058932  0.79477118  0.79065436  1
  Pd  Pd183  1  0.60903745  0.19390798  0.81110661  1
  Pd  Pd184  1  0.18886461  0.39199335  0.60802648  1
  Pd  Pd185  1  0.59683247  -0.00194633  0.60088566  1
  Pd  Pd186  1  0.40400765  0.00879450  0.58662982  1
  Pd  Pd187  1  0.80412773  -0.01065396  0.00422210  1
  Pd  Pd188  1  0.60946020  0.20423301  0.59896637  1
  Pd  Pd189  1  0.40010776  0.80774770  0.39590397  1
  Pd  Pd190  1  0.79671960  0.19632987  0.00783751  1
  Pd  Pd191  1  0.60360933  0.79423739  0.40961792  1
  Pd  Pd192  1  0.59503334  0.00664267  0.79513398  1
  Pd  Pd193  1  0.40927717  -0.00230052  0.80585290  1
  Pd  Pd194  1  0.61010684  0.20458729  0.19703868  1
  Pd  Pd195  1  0.20490750  0.40941627  0.20833845  1
  Pd  Pd196  1  0.79252330  0.19989996  0.39446463  1
  Pd  Pd197  1  0.60879222  0.79754974  0.79338911  1
  Pd  Pd198  1  0.39907204  0.59777715  -0.00567134  1
  Pd  Pd199  1  -0.00200035  -0.00490224  0.21135242  1
  Rh  Rh200  1  0.80478856  -0.00201510  0.40330295  1
  Rh  Rh201  1  0.00052313  -0.00803657  -0.00007142  1
  Rh  Rh202  1  0.20389531  0.39472992  0.39453314  1
  Rh  Rh203  1  0.80024467  -0.00411716  0.60176227  1
  Rh  Rh204  1  -0.00322912  0.60632862  0.79371605  1
  Rh  Rh205  1  0.00631744  0.81016139  0.38835159  1
  Rh  Rh206  1  0.39353088  0.20101973  0.79651032  1
  Rh  Rh207  1  0.39611002  -0.00452467  0.20460993  1
  Rh  Rh208  1  -0.00639255  0.40431779  -0.00800711  1
  Rh  Rh209  1  0.40192292  0.19294809  -0.00608714  1
  Rh  Rh210  1  0.39669726  0.19812136  0.39970053  1
  Rh  Rh211  1  0.19108438  0.19870324  0.19394376  1
  Rh  Rh212  1  0.19388357  0.79279872  0.19879887  1
  Rh  Rh213  1  0.20030345  0.00124470  0.80990468  1
  Rh  Rh214  1  0.00485076  0.59291570  0.00110093  1
  Rh  Rh215  1  0.79754023  0.80554303  -0.00515351  1
  Rh  Rh216  1  0.39974315  0.20914237  0.21034207  1
  Rh  Rh217  1  0.19361579  0.60960185  0.39173385  1
  Rh  Rh218  1  0.19593590  0.20108716  0.39835639  1
  Rh  Rh219  1  0.00168846  0.19223745  0.39347758  1
  Rh  Rh220  1  0.59619021  0.00181954  0.40103224  1
  Rh  Rh221  1  0.80179309  0.61545762  0.81323234  1
  Rh  Rh222  1  0.79970610  0.60229648  0.20097434  1
  Rh  Rh223  1  0.80320020  0.79708345  0.19633468  1
  Rh  Rh224  1  0.40904505  0.41031603  0.59787460  1
  Rh  Rh225  1  0.19957985  0.79844820  0.60939317  1
  Rh  Rh226  1  0.20430546  0.39100254  0.79776595  1
  Rh  Rh227  1  0.58986308  0.60302397  0.60301094  1
  Rh  Rh228  1  -0.00800449  0.39752653  0.19742001  1
  Rh  Rh229  1  0.39476571  0.59475752  0.79899443  1
  Rh  Rh230  1  0.40588520  0.79645089  0.60104582  1
  Rh  Rh231  1  0.41234058  0.80509721  -0.00019254  1
  Rh  Rh232  1  0.00795442  -0.00027309  0.58884604  1
  Rh  Rh233  1  0.19693602  0.60180573  0.60041562  1
  Rh  Rh234  1  0.58976917  0.40249317  0.39723558  1
  Rh  Rh235  1  0.39960335  0.80258865  0.21049889  1
  Rh  Rh236  1  0.00258690  0.20710201  0.60053346  1
  Rh  Rh237  1  0.19263757  0.20361731  0.61276925  1
  Rh  Rh238  1  0.60103425  0.39483856  0.80023075  1
  Rh  Rh239  1  0.79556757  -0.00440824  0.19655880  1
  Rh  Rh240  1  0.20145713  0.80048500  0.39985272  1
  Rh  Rh241  1  0.00144365  0.40069118  0.40293714  1
  Rh  Rh242  1  0.79468794  0.20682454  0.59373915  1
  Rh  Rh243  1  0.00070620  0.19379291  0.80086573  1
  Rh  Rh244  1  0.81958990  0.58801205  0.58201996  1
  Rh  Rh245  1  0.60813289  0.61149758  0.39914213  1
  Rh  Rh246  1  -0.00521223  0.39971536  0.79824725  1
  Rh  Rh247  1  0.00440029  0.80560929  0.00625966  1
  Rh  Rh248  1  0.60675798  0.59838399  0.19381807  1
  Rh  Rh249  1  0.79640433  0.39612600  0.20286999  1
