# generated using pymatgen
data_ZrScNbPdRh
_symmetry_space_group_name_H-M   'P 1'
_cell_length_a   16.56121800
_cell_length_b   16.56086477
_cell_length_c   16.56420409
_cell_angle_alpha   89.96055184
_cell_angle_beta   89.97573031
_cell_angle_gamma   90.02159770
_symmetry_Int_Tables_number   1
_chemical_formula_structural   ZrScNbPdRh
_chemical_formula_sum   'Zr50 Sc50 Nb50 Pd50 Rh50'
_cell_volume   4543.03083866
_cell_formula_units_Z   50
loop_
 _symmetry_equiv_pos_site_id
 _symmetry_equiv_pos_as_xyz
  1  'x, y, z'
loop_
 _atom_site_type_symbol
 _atom_site_label
 _atom_site_symmetry_multiplicity
 _atom_site_fract_x
 _atom_site_fract_y
 _atom_site_fract_z
 _atom_site_occupancy
  Zr  Zr0  1  0.09836795  0.08457653  0.90010853  1
  Zr  Zr1  1  0.50044090  0.89379519  0.90094385  1
  Zr  Zr2  1  0.50652801  0.09884961  0.50279121  1
  Zr  Zr3  1  0.89367642  0.90234319  0.10637237  1
  Zr  Zr4  1  0.90085664  0.89192462  0.69313406  1
  Zr  Zr5  1  0.30465309  0.89908868  0.29884221  1
  Zr  Zr6  1  0.90168214  0.70318381  0.89933270  1
  Zr  Zr7  1  0.50678211  0.09827623  0.10325539  1
  Zr  Zr8  1  0.30210879  0.89761150  0.50754265  1
  Zr  Zr9  1  0.69264573  0.09906659  0.69760920  1
  Zr  Zr10  1  0.29703034  0.30407427  0.29966815  1
  Zr  Zr11  1  0.70162391  0.70604277  0.09976085  1
  Zr  Zr12  1  0.30008956  0.70338529  0.69767019  1
  Zr  Zr13  1  0.10419896  0.50459936  0.08553806  1
  Zr  Zr14  1  0.50947281  0.10902035  0.90195794  1
  Zr  Zr15  1  0.30320149  0.29938522  0.10423707  1
  Zr  Zr16  1  0.69690664  0.90203219  0.29629590  1
  Zr  Zr17  1  0.50104556  0.70229535  0.09203825  1
  Zr  Zr18  1  0.90389541  0.90214736  0.50361649  1
  Zr  Zr19  1  0.10259830  0.90837356  0.09788731  1
  Zr  Zr20  1  0.91588440  0.50528521  0.90235683  1
  Zr  Zr21  1  0.90373662  0.70483337  0.10032149  1
  Zr  Zr22  1  0.49338929  0.50221714  0.49238984  1
  Zr  Zr23  1  0.69787595  0.49990849  0.70258573  1
  Zr  Zr24  1  0.30335951  0.90285882  0.10690560  1
  Zr  Zr25  1  0.50608585  0.49241970  0.29993629  1
  Zr  Zr26  1  0.09513854  0.30379727  0.50019778  1
  Zr  Zr27  1  0.90036210  0.29769949  0.69089294  1
  Zr  Zr28  1  0.89331264  0.49147955  0.69247466  1
  Zr  Zr29  1  0.29764478  0.49475383  0.50011368  1
  Zr  Zr30  1  0.89991185  0.09589205  0.09910142  1
  Zr  Zr31  1  0.69474051  0.49942545  0.89414259  1
  Zr  Zr32  1  0.89545820  0.68834929  0.50426222  1
  Zr  Zr33  1  0.69808197  0.90308028  0.50563136  1
  Zr  Zr34  1  0.49882552  0.29928913  0.09099343  1
  Zr  Zr35  1  0.49850365  0.49622704  0.89811414  1
  Zr  Zr36  1  0.49128594  0.30248365  0.50361549  1
  Zr  Zr37  1  0.49339106  0.10539792  0.69574855  1
  Zr  Zr38  1  0.30040153  0.10111487  0.50369908  1
  Zr  Zr39  1  0.49613747  0.90148197  0.49692017  1
  Zr  Zr40  1  0.70184777  0.70313977  0.89799356  1
  Zr  Zr41  1  0.69425229  0.50278539  0.10775104  1
  Zr  Zr42  1  0.91029097  0.69420523  0.29802312  1
  Zr  Zr43  1  0.29519534  0.49780118  0.70227665  1
  Zr  Zr44  1  0.71142175  0.50928135  0.49763704  1
  Zr  Zr45  1  0.09457582  0.09701526  0.49106383  1
  Zr  Zr46  1  0.09701456  0.90322963  0.29868626  1
  Zr  Zr47  1  0.09306423  0.30670700  0.70595316  1
  Zr  Zr48  1  0.30087220  0.30113129  0.69547414  1
  Zr  Zr49  1  0.90662886  0.30130252  0.29915986  1
  Sc  Sc50  1  0.90404813  0.90396092  0.29135939  1
  Sc  Sc51  1  0.28556297  0.09991339  0.29544552  1
  Sc  Sc52  1  0.69851194  0.09896136  0.09049250  1
  Sc  Sc53  1  0.90065551  0.09713861  0.69363362  1
  Sc  Sc54  1  0.70541874  0.29190784  0.49912459  1
  Sc  Sc55  1  0.51332618  0.30122614  0.29659354  1
  Sc  Sc56  1  0.91122702  0.49862939  0.10943079  1
  Sc  Sc57  1  0.09887734  0.68885995  0.89960677  1
  Sc  Sc58  1  0.29428180  0.69569046  0.09586009  1
  Sc  Sc59  1  0.30111385  0.69993749  0.89573020  1
  Sc  Sc60  1  0.69401441  0.10317620  0.50313266  1
  Sc  Sc61  1  0.49293722  0.30212729  0.70462479  1
  Sc  Sc62  1  0.90995378  0.09889896  0.30297349  1
  Sc  Sc63  1  0.68948785  0.30187082  0.90066668  1
  Sc  Sc64  1  0.90661197  0.30054920  0.89497017  1
  Sc  Sc65  1  0.50268848  0.90457464  0.28680754  1
  Sc  Sc66  1  0.69796721  0.90332692  0.89614362  1
  Sc  Sc67  1  0.29916020  0.70179745  0.29281861  1
  Sc  Sc68  1  0.10545601  0.69754414  0.10811798  1
  Sc  Sc69  1  0.70452436  0.89936386  0.70121600  1
  Sc  Sc70  1  0.89496196  0.09274098  0.90719069  1
  Sc  Sc71  1  0.29148162  0.89233432  0.89780067  1
  Sc  Sc72  1  0.09464549  0.09008552  0.70356855  1
  Sc  Sc73  1  0.89682206  0.90297066  0.89830090  1
  Sc  Sc74  1  0.10210469  0.89823441  0.70454773  1
  Sc  Sc75  1  0.90235350  0.30143239  0.10056866  1
  Sc  Sc76  1  0.29282706  0.89678956  0.70417416  1
  Sc  Sc77  1  0.30650134  0.10475508  0.90039127  1
  Sc  Sc78  1  0.10299513  0.29172577  0.30156410  1
  Sc  Sc79  1  0.09300482  0.50300837  0.29613041  1
  Sc  Sc80  1  0.68439043  0.10915437  0.30965537  1
  Sc  Sc81  1  0.49226892  0.69970584  0.30866441  1
  Sc  Sc82  1  0.31121453  0.30074147  0.89962772  1
  Sc  Sc83  1  0.09455321  0.69424716  0.51206282  1
  Sc  Sc84  1  0.30220559  0.09723984  0.70292641  1
  Sc  Sc85  1  0.29298242  0.49617654  0.10020272  1
  Sc  Sc86  1  0.09905400  0.10130480  0.29778715  1
  Sc  Sc87  1  0.70692644  0.30885478  0.69823433  1
  Sc  Sc88  1  0.29456124  0.30740553  0.49724924  1
  Sc  Sc89  1  0.10205497  0.30886628  0.10954874  1
  Sc  Sc90  1  0.49276579  0.69801403  0.89429880  1
  Sc  Sc91  1  0.71244292  0.69992839  0.70280931  1
  Sc  Sc92  1  0.50047897  0.49294919  0.09682443  1
  Sc  Sc93  1  0.09959493  0.90254306  0.51119710  1
  Sc  Sc94  1  0.90633441  0.70126486  0.70191675  1
  Sc  Sc95  1  0.10486850  0.49910352  0.69911123  1
  Sc  Sc96  1  0.49750197  0.89904838  0.69798982  1
  Sc  Sc97  1  0.70406658  0.68276914  0.29839251  1
  Sc  Sc98  1  0.49363924  0.50309050  0.70740265  1
  Sc  Sc99  1  0.69372434  0.30140566  0.09930301  1
  Nb  Nb100  1  0.29013192  0.50650332  0.89510350  1
  Nb  Nb101  1  0.10667207  0.09971830  0.09859328  1
  Nb  Nb102  1  0.89720750  0.50193998  0.30591401  1
  Nb  Nb103  1  0.49959040  0.29882437  0.90414513  1
  Nb  Nb104  1  0.09734976  0.50132382  0.49997471  1
  Nb  Nb105  1  0.89922890  0.10669372  0.49737416  1
  Nb  Nb106  1  0.10683524  0.48799771  0.89638200  1
  Nb  Nb107  1  0.10033186  0.89981557  0.90255187  1
  Nb  Nb108  1  0.10298762  0.70913745  0.69807794  1
  Nb  Nb109  1  0.70008765  0.10371723  0.89624736  1
  Nb  Nb110  1  0.10001788  0.30046010  0.89758103  1
  Nb  Nb111  1  0.70267913  0.30220684  0.29727408  1
  Nb  Nb112  1  0.30132213  0.10010116  0.10167743  1
  Nb  Nb113  1  0.10305016  0.70014672  0.30547529  1
  Nb  Nb114  1  0.90754637  0.49626750  0.49573539  1
  Nb  Nb115  1  0.70132092  0.70053741  0.49981422  1
  Nb  Nb116  1  0.49963466  0.10188957  0.30138538  1
  Nb  Nb117  1  0.70332517  0.48875854  0.30021259  1
  Nb  Nb118  1  0.89967935  0.29891506  0.50294574  1
  Nb  Nb119  1  0.49102119  0.70120016  0.69616287  1
  Nb  Nb120  1  0.30576095  0.49811120  0.29838984  1
  Nb  Nb121  1  0.30822545  0.70528431  0.49616020  1
  Nb  Nb122  1  0.50840167  0.90541531  0.10054978  1
  Nb  Nb123  1  0.49104881  0.70335688  0.50258224  1
  Nb  Nb124  1  0.68670931  0.90014031  0.10654805  1
  Nb  Nb125  1  0.39920206  0.59362847  0.19996211  1
  Nb  Nb126  1  0.01151562  0.19638433  -0.00067493  1
  Nb  Nb127  1  0.59621050  0.78918936  0.59616172  1
  Nb  Nb128  1  0.60367354  0.79483934  0.40657522  1
  Nb  Nb129  1  0.19390033  0.20157794  0.60475990  1
  Nb  Nb130  1  0.40573923  -0.00211449  0.00357369  1
  Nb  Nb131  1  0.80059278  -0.00013431  0.40295951  1
  Nb  Nb132  1  0.19789504  0.79399188  0.40436772  1
  Nb  Nb133  1  0.40202852  0.19597642  0.20297788  1
  Nb  Nb134  1  0.80017823  0.40957893  -0.00082240  1
  Nb  Nb135  1  0.59948322  0.41090638  0.59720051  1
  Nb  Nb136  1  0.20061129  0.60196079  0.40261303  1
  Nb  Nb137  1  0.19588199  0.19944062  -0.00036697  1
  Nb  Nb138  1  0.40170090  0.00654642  0.39438998  1
  Nb  Nb139  1  0.80118594  0.80017869  0.40116149  1
  Nb  Nb140  1  0.80608735  0.40045879  0.39638683  1
  Nb  Nb141  1  0.19363446  0.20252944  0.80361444  1
  Nb  Nb142  1  0.40430640  -0.00119458  0.80846496  1
  Nb  Nb143  1  0.59507813  0.60657238  0.59585579  1
  Nb  Nb144  1  0.80083540  0.59595751  0.00124300  1
  Nb  Nb145  1  0.00432252  0.80647277  0.00098124  1
  Nb  Nb146  1  0.79583938  0.19481966  0.80280254  1
  Nb  Nb147  1  0.00166894  0.79540143  0.40057418  1
  Nb  Nb148  1  0.40091503  0.19566852  0.39399339  1
  Nb  Nb149  1  0.79687536  0.20255362  0.20451758  1
  Pd  Pd150  1  0.40579092  0.79094724  0.19452428  1
  Pd  Pd151  1  0.80096377  0.80700288  -0.00125571  1
  Pd  Pd152  1  0.19761904  0.80124228  0.20340948  1
  Pd  Pd153  1  0.20457426  -0.00703815  0.39965043  1
  Pd  Pd154  1  0.39367510  0.59278378  0.00422894  1
  Pd  Pd155  1  0.80371634  0.21167390  -0.00226987  1
  Pd  Pd156  1  0.39804093  0.59404315  0.60261812  1
  Pd  Pd157  1  0.80403430  0.59751430  0.19480856  1
  Pd  Pd158  1  0.00689354  0.59790988  0.19681990  1
  Pd  Pd159  1  0.21410093  0.00305529  -0.00512493  1
  Pd  Pd160  1  0.80366033  0.00387401  0.79592272  1
  Pd  Pd161  1  0.79728963  0.79632742  0.20970648  1
  Pd  Pd162  1  0.78760428  -0.00991728  0.00234517  1
  Pd  Pd163  1  0.60439726  0.21100041  0.79208589  1
  Pd  Pd164  1  0.80452947  0.39230723  0.80993880  1
  Pd  Pd165  1  0.60290249  0.60008158  -0.00328548  1
  Pd  Pd166  1  -0.00017381  0.59436257  0.60967513  1
  Pd  Pd167  1  -0.00178108  0.39168860  0.00198126  1
  Pd  Pd168  1  0.80224962  0.39541911  0.19732993  1
  Pd  Pd169  1  0.39566859  0.80536605  0.00374038  1
  Pd  Pd170  1  -0.00257236  0.19725123  0.19324817  1
  Pd  Pd171  1  0.59322191  -0.00190672  0.79642483  1
  Pd  Pd172  1  0.00753213  0.59438023  0.78936498  1
  Pd  Pd173  1  -0.00456667  0.18983405  0.80763645  1
  Pd  Pd174  1  0.00108905  0.39886067  0.39590421  1
  Pd  Pd175  1  0.59528107  0.78702858  0.21091380  1
  Pd  Pd176  1  0.59952256  0.60464579  0.40114261  1
  Pd  Pd177  1  -0.00905241  -0.00651693  0.79701719  1
  Pd  Pd178  1  0.61108623  0.39456246  0.41030301  1
  Pd  Pd179  1  0.19879169  0.00654957  0.60710582  1
  Pd  Pd180  1  0.19315764  0.79185548  -0.00286105  1
  Pd  Pd181  1  0.80302360  0.19787255  0.39360743  1
  Pd  Pd182  1  0.00580880  0.80357067  0.80669375  1
  Pd  Pd183  1  0.60196164  0.21578598  0.60600895  1
  Pd  Pd184  1  0.80041069  0.00926092  0.59480765  1
  Pd  Pd185  1  0.19114097  0.40930498  0.39416192  1
  Pd  Pd186  1  0.20748900  0.39106569  -0.00649049  1
  Pd  Pd187  1  0.39119651  0.60005363  0.39294501  1
  Pd  Pd188  1  0.39692889  0.40061164  0.80261061  1
  Pd  Pd189  1  0.19494763  0.60485131  0.79779889  1
  Pd  Pd190  1  0.60318368  0.80137587  -0.00349660  1
  Pd  Pd191  1  0.39141044  0.40932864  -0.00450050  1
  Pd  Pd192  1  0.60005814  0.79441511  0.78968194  1
  Pd  Pd193  1  0.20385784  0.60431128  0.59504722  1
  Pd  Pd194  1  0.19291760  0.40802037  0.20520068  1
  Pd  Pd195  1  0.78872412  0.01609006  0.21062815  1
  Pd  Pd196  1  0.58851748  0.60475654  0.20343163  1
  Pd  Pd197  1  0.00554419  0.19424684  0.59806595  1
  Pd  Pd198  1  0.59404207  0.61030083  0.79255597  1
  Pd  Pd199  1  0.80770257  0.59885236  0.80384301  1
  Rh  Rh200  1  0.00243249  0.40642541  0.59896006  1
  Rh  Rh201  1  0.59782800  -0.00757383  0.60781657  1
  Rh  Rh202  1  0.00738407  0.80169945  0.19815983  1
  Rh  Rh203  1  0.60180457  0.20018635  0.19613297  1
  Rh  Rh204  1  -0.00631354  -0.00506571  0.40187033  1
  Rh  Rh205  1  0.79597018  0.39851461  0.58484960  1
  Rh  Rh206  1  0.39022284  0.20442091  0.59312883  1
  Rh  Rh207  1  0.19354965  0.79462672  0.80258825  1
  Rh  Rh208  1  0.39778334  0.19386238  0.00745056  1
  Rh  Rh209  1  0.39688254  0.80463797  0.79628113  1
  Rh  Rh210  1  0.20711399  0.59376893  0.20877722  1
  Rh  Rh211  1  0.20374187  0.19867765  0.19253078  1
  Rh  Rh212  1  0.79818884  0.79317903  0.59846399  1
  Rh  Rh213  1  0.20075024  0.60049789  -0.00665965  1
  Rh  Rh214  1  0.60192142  -0.00347821  -0.00404481  1
  Rh  Rh215  1  0.80408797  0.59811314  0.39476951  1
  Rh  Rh216  1  0.00513264  0.40369983  0.20368543  1
  Rh  Rh217  1  -0.00315176  0.40749704  0.79696374  1
  Rh  Rh218  1  0.39996832  0.00808853  0.19910463  1
  Rh  Rh219  1  -0.00381684  -0.00378057  0.00513363  1
  Rh  Rh220  1  0.39793037  0.19518476  0.80158747  1
  Rh  Rh221  1  0.40492500  0.40746094  0.60374506  1
  Rh  Rh222  1  0.00652660  0.60171462  0.40354805  1
  Rh  Rh223  1  0.39924451  0.80513271  0.60720464  1
  Rh  Rh224  1  0.80234040  0.80528862  0.79857251  1
  Rh  Rh225  1  0.60486287  0.20304441  0.00087563  1
  Rh  Rh226  1  0.39880203  -0.00430715  0.60545621  1
  Rh  Rh227  1  0.00040957  0.61003794  0.00578317  1
  Rh  Rh228  1  0.19608966  0.00094967  0.20222640  1
  Rh  Rh229  1  0.59126245  0.39455820  0.79483863  1
  Rh  Rh230  1  0.00360113  0.79864537  0.59804907  1
  Rh  Rh231  1  0.00536880  0.00627535  0.19509403  1
  Rh  Rh232  1  0.59936445  0.39639109  0.19491637  1
  Rh  Rh233  1  0.40195377  0.38977311  0.39183469  1
  Rh  Rh234  1  0.80006172  0.19647749  0.60698040  1
  Rh  Rh235  1  0.19343647  0.39562541  0.59987609  1
  Rh  Rh236  1  0.40076119  0.80949072  0.39535176  1
  Rh  Rh237  1  0.60739213  0.00986835  0.20152103  1
  Rh  Rh238  1  0.40499324  0.39857712  0.20367965  1
  Rh  Rh239  1  -0.00021640  0.00316783  0.59984997  1
  Rh  Rh240  1  0.19893422  0.79414771  0.59602511  1
  Rh  Rh241  1  0.20606997  0.39415295  0.80526447  1
  Rh  Rh242  1  0.59818154  -0.00778207  0.39695910  1
  Rh  Rh243  1  0.39528628  0.59991337  0.80112976  1
  Rh  Rh244  1  0.80008868  0.60019926  0.60654935  1
  Rh  Rh245  1  0.00089185  0.20213416  0.40182798  1
  Rh  Rh246  1  0.59258099  0.20972774  0.40466680  1
  Rh  Rh247  1  0.20874880  0.00341883  0.80564028  1
  Rh  Rh248  1  0.60395942  0.40149943  -0.00265283  1
  Rh  Rh249  1  0.20137869  0.19930745  0.41064085  1
