# generated using pymatgen
data_ZrScNbPdRh
_symmetry_space_group_name_H-M   'P 1'
_cell_length_a   16.55165211
_cell_length_b   16.55257834
_cell_length_c   16.55198451
_cell_angle_alpha   89.99416858
_cell_angle_beta   90.00324796
_cell_angle_gamma   89.99462939
_symmetry_Int_Tables_number   1
_chemical_formula_structural   ZrScNbPdRh
_chemical_formula_sum   'Zr50 Sc50 Nb50 Pd50 Rh50'
_cell_volume   4534.78882619
_cell_formula_units_Z   50
loop_
 _symmetry_equiv_pos_site_id
 _symmetry_equiv_pos_as_xyz
  1  'x, y, z'
loop_
 _atom_site_type_symbol
 _atom_site_label
 _atom_site_symmetry_multiplicity
 _atom_site_fract_x
 _atom_site_fract_y
 _atom_site_fract_z
 _atom_site_occupancy
  Zr  Zr0  1  0.30388103  0.29963477  0.50401961  1
  Zr  Zr1  1  0.70761766  0.89647731  0.69796827  1
  Zr  Zr2  1  0.90330322  0.29347817  0.29429028  1
  Zr  Zr3  1  0.09675095  0.29964651  0.10956957  1
  Zr  Zr4  1  0.30609388  0.69401037  0.09997968  1
  Zr  Zr5  1  0.89420612  0.09703362  0.30516190  1
  Zr  Zr6  1  0.69375134  0.49051956  0.49864941  1
  Zr  Zr7  1  0.70207141  0.69400532  0.89627626  1
  Zr  Zr8  1  0.10473263  0.69106481  0.70862364  1
  Zr  Zr9  1  0.68665015  0.89898940  0.49981914  1
  Zr  Zr10  1  0.49572093  0.50945726  0.09644784  1
  Zr  Zr11  1  0.49734416  0.09914718  0.69455402  1
  Zr  Zr12  1  0.29339294  0.90347872  0.10676003  1
  Zr  Zr13  1  0.89719085  0.30023397  0.69589577  1
  Zr  Zr14  1  0.69457628  0.29469415  0.90648405  1
  Zr  Zr15  1  0.11081691  0.89581474  0.29265902  1
  Zr  Zr16  1  0.10317841  0.49227707  0.50820900  1
  Zr  Zr17  1  0.10055941  0.09446977  0.50383281  1
  Zr  Zr18  1  0.10665279  0.50182871  0.10119099  1
  Zr  Zr19  1  0.90303415  0.69456862  0.49093979  1
  Zr  Zr20  1  0.70646537  0.10207133  0.49327508  1
  Zr  Zr21  1  0.89670318  0.70132929  0.69172705  1
  Zr  Zr22  1  0.69133583  0.49991834  0.90067890  1
  Zr  Zr23  1  0.90022014  0.90268111  0.30030349  1
  Zr  Zr24  1  0.50386982  0.69643588  0.90488933  1
  Zr  Zr25  1  0.09200545  0.70685735  0.08825824  1
  Zr  Zr26  1  0.50275580  0.50549351  0.30636023  1
  Zr  Zr27  1  0.50171255  0.89825677  0.30498624  1
  Zr  Zr28  1  0.69983654  0.29966802  0.49963551  1
  Zr  Zr29  1  0.69570841  0.89419313  0.90029599  1
  Zr  Zr30  1  0.29599005  0.50344066  0.10458431  1
  Zr  Zr31  1  0.10658210  0.29909410  0.89382750  1
  Zr  Zr32  1  0.09786917  0.70769835  0.30753434  1
  Zr  Zr33  1  0.51273101  0.89905398  0.10118364  1
  Zr  Zr34  1  0.30467715  0.90275856  0.50295548  1
  Zr  Zr35  1  0.10643136  0.89854653  0.49974370  1
  Zr  Zr36  1  0.69848910  0.49984191  0.30067650  1
  Zr  Zr37  1  0.50217999  0.69970881  0.10188085  1
  Zr  Zr38  1  0.90458230  0.70067469  0.91082157  1
  Zr  Zr39  1  0.90074591  0.29300353  0.90475269  1
  Zr  Zr40  1  0.29944971  0.30220937  0.71000202  1
  Zr  Zr41  1  0.09502248  0.10460206  0.90675319  1
  Zr  Zr42  1  0.30001600  0.70576786  0.89381691  1
  Zr  Zr43  1  0.88786792  0.09329143  0.70335500  1
  Zr  Zr44  1  0.10189883  0.51543481  0.89534426  1
  Zr  Zr45  1  0.90117837  0.10146780  0.09171224  1
  Zr  Zr46  1  0.30013355  0.50230452  0.69639711  1
  Zr  Zr47  1  0.89373900  0.90699554  0.89188648  1
  Zr  Zr48  1  0.10446129  0.31127612  0.69421644  1
  Zr  Zr49  1  0.50882028  0.10751877  0.29395487  1
  Sc  Sc50  1  0.30161424  0.50358936  0.49084893  1
  Sc  Sc51  1  0.30514865  0.10588651  0.69454514  1
  Sc  Sc52  1  0.09284372  0.90837440  0.90386313  1
  Sc  Sc53  1  0.68778116  0.69853594  0.30545885  1
  Sc  Sc54  1  0.50378689  0.89586278  0.68633216  1
  Sc  Sc55  1  0.89979034  0.10398457  0.89520083  1
  Sc  Sc56  1  0.09466464  0.11300740  0.30348002  1
  Sc  Sc57  1  0.50021949  0.69792652  0.50041527  1
  Sc  Sc58  1  0.89678896  0.50696990  0.90592698  1
  Sc  Sc59  1  0.69566676  0.90815138  0.29775414  1
  Sc  Sc60  1  0.49477115  0.09192569  0.49632234  1
  Sc  Sc61  1  0.29925625  0.49355290  0.90733137  1
  Sc  Sc62  1  0.69701697  0.49680723  0.10129252  1
  Sc  Sc63  1  0.30914096  0.10594273  0.30562931  1
  Sc  Sc64  1  0.29497666  0.30129029  0.09526482  1
  Sc  Sc65  1  0.90503424  0.89366998  0.08903971  1
  Sc  Sc66  1  0.10589778  0.10090296  0.70376476  1
  Sc  Sc67  1  0.89425365  0.49272172  0.10128117  1
  Sc  Sc68  1  0.29476040  0.11015195  0.09872705  1
  Sc  Sc69  1  0.10191689  0.89980017  0.68846375  1
  Sc  Sc70  1  0.10454085  0.50256395  0.69999997  1
  Sc  Sc71  1  0.50119014  0.29248180  0.09921608  1
  Sc  Sc72  1  0.29213554  0.30272643  0.30772042  1
  Sc  Sc73  1  0.69804850  0.30699321  0.10311433  1
  Sc  Sc74  1  0.30746855  0.09864626  0.50560307  1
  Sc  Sc75  1  0.50353326  0.88806516  0.90456163  1
  Sc  Sc76  1  0.30270165  0.69313444  0.50564160  1
  Sc  Sc77  1  0.50871510  0.11453994  0.90964732  1
  Sc  Sc78  1  0.49538559  0.30550052  0.90279067  1
  Sc  Sc79  1  0.90598674  0.90173658  0.50914177  1
  Sc  Sc80  1  0.89163046  0.29728227  0.50149183  1
  Sc  Sc81  1  0.49549998  0.29570423  0.70673691  1
  Sc  Sc82  1  0.50345434  0.69807091  0.29470087  1
  Sc  Sc83  1  0.70099848  0.30162830  0.69173485  1
  Sc  Sc84  1  0.10889694  0.29778292  0.49868820  1
  Sc  Sc85  1  0.89854214  0.30425487  0.09891126  1
  Sc  Sc86  1  0.69326352  0.29872594  0.30075486  1
  Sc  Sc87  1  0.69903120  0.69580503  0.49915261  1
  Sc  Sc88  1  0.69507159  0.69880067  0.09450205  1
  Sc  Sc89  1  0.11495751  0.49723395  0.29725532  1
  Sc  Sc90  1  0.89866259  0.09927939  0.49150957  1
  Sc  Sc91  1  0.89511018  0.49890843  0.49950464  1
  Sc  Sc92  1  0.30235456  0.70000350  0.69559650  1
  Sc  Sc93  1  0.30530850  0.89278028  0.69553577  1
  Sc  Sc94  1  0.09935817  0.70159446  0.50140179  1
  Sc  Sc95  1  0.29413532  0.11531523  0.90752684  1
  Sc  Sc96  1  0.50395653  0.48710326  0.70832330  1
  Sc  Sc97  1  0.90532183  0.50384215  0.69177549  1
  Sc  Sc98  1  0.89443373  0.50029981  0.30669075  1
  Sc  Sc99  1  0.50212233  0.29712422  0.30388351  1
  Nb  Nb100  1  0.70282838  0.10074391  0.29682116  1
  Nb  Nb101  1  0.50136901  0.49643346  0.50350508  1
  Nb  Nb102  1  0.10066433  0.09401232  0.09454802  1
  Nb  Nb103  1  0.50923652  0.30682409  0.50287383  1
  Nb  Nb104  1  0.69814597  0.09833606  0.89963212  1
  Nb  Nb105  1  0.70416436  0.49906933  0.70138763  1
  Nb  Nb106  1  0.29840178  0.89595729  0.29991631  1
  Nb  Nb107  1  0.10029941  0.70150086  0.89713304  1
  Nb  Nb108  1  0.90063938  0.70108323  0.30159812  1
  Nb  Nb109  1  0.09665304  0.30254745  0.30335738  1
  Nb  Nb110  1  0.49526767  0.89959459  0.49717697  1
  Nb  Nb111  1  0.49795132  0.09744674  0.10041007  1
  Nb  Nb112  1  0.69712051  0.90410626  0.10017074  1
  Nb  Nb113  1  0.49548381  0.69202241  0.69788847  1
  Nb  Nb114  1  0.49766136  0.49854696  0.90247959  1
  Nb  Nb115  1  0.30467657  0.90064129  0.89830531  1
  Nb  Nb116  1  0.90013269  0.89485321  0.70351875  1
  Nb  Nb117  1  0.30167714  0.50636734  0.29633209  1
  Nb  Nb118  1  0.29838783  0.30034095  0.89805861  1
  Nb  Nb119  1  0.68156057  0.09065190  0.10169149  1
  Nb  Nb120  1  0.69632231  0.69287232  0.69953328  1
  Nb  Nb121  1  0.29714840  0.70274385  0.30208905  1
  Nb  Nb122  1  0.89777574  0.69882120  0.10132804  1
  Nb  Nb123  1  0.69512017  0.09452348  0.69678320  1
  Nb  Nb124  1  0.10238230  0.90933415  0.09738506  1
  Nb  Nb125  1  0.59947652  0.00257643  0.79894792  1
  Nb  Nb126  1  0.40198492  0.00068960  0.19736258  1
  Nb  Nb127  1  0.00545239  0.39423670  0.39772493  1
  Nb  Nb128  1  -0.00354103  0.40082215  0.80241640  1
  Nb  Nb129  1  0.78724518  0.00270269  0.00067811  1
  Nb  Nb130  1  0.39689013  0.80243213  0.39754395  1
  Nb  Nb131  1  0.20445287  -0.00406467  0.39735041  1
  Nb  Nb132  1  -0.00474804  0.60721793  0.20170241  1
  Nb  Nb133  1  0.60075293  0.19615677  0.59614293  1
  Nb  Nb134  1  0.80070473  0.79708072  0.20111071  1
  Nb  Nb135  1  0.40251609  -0.00047238  0.80945849  1
  Nb  Nb136  1  -0.00236272  0.19865470  0.60188718  1
  Nb  Nb137  1  0.79274856  0.18863301  0.19730256  1
  Nb  Nb138  1  0.80146722  0.40098930  0.80071385  1
  Nb  Nb139  1  -0.00206567  0.79836442  0.79774793  1
  Nb  Nb140  1  0.60033703  0.59296819  0.60860600  1
  Nb  Nb141  1  0.80406647  0.60953377  0.20244598  1
  Nb  Nb142  1  0.00709378  0.00109016  0.19285427  1
  Nb  Nb143  1  0.39549420  0.40711143  0.20427644  1
  Nb  Nb144  1  0.40464856  0.40020951  0.59605870  1
  Nb  Nb145  1  0.40205449  0.00162526  0.00157367  1
  Nb  Nb146  1  0.80132061  0.80016066  0.39537075  1
  Nb  Nb147  1  0.19879785  0.80587621  -0.00320371  1
  Nb  Nb148  1  0.40615129  0.59688857  0.80193711  1
  Nb  Nb149  1  0.21009083  -0.00126164  0.80490972  1
  Pd  Pd150  1  0.40307649  0.60995112  0.39743916  1
  Pd  Pd151  1  0.59283161  0.59702924  0.79568901  1
  Pd  Pd152  1  0.40163411  0.39557201  0.00903924  1
  Pd  Pd153  1  0.19704995  0.19755666  0.60233489  1
  Pd  Pd154  1  0.59732351  0.78894626  0.60059529  1
  Pd  Pd155  1  0.58762474  0.39956612  0.19940854  1
  Pd  Pd156  1  0.78751573  0.19330612  0.01039746  1
  Pd  Pd157  1  0.59512020  0.80222320  0.78995584  1
  Pd  Pd158  1  0.80771105  0.59539104  0.79883135  1
  Pd  Pd159  1  -0.00163123  0.41411856  0.20820907  1
  Pd  Pd160  1  0.80128267  -0.00331622  0.59303680  1
  Pd  Pd161  1  0.60594957  0.39101098  0.79923189  1
  Pd  Pd162  1  -0.00476441  0.19215744  0.19435723  1
  Pd  Pd163  1  0.00932456  0.58593698  0.39315731  1
  Pd  Pd164  1  0.79847705  0.79868234  0.58888292  1
  Pd  Pd165  1  0.00442231  0.60213537  0.59763950  1
  Pd  Pd166  1  0.01021639  -0.00489101  0.79053885  1
  Pd  Pd167  1  0.79345216  0.80361565  0.00550522  1
  Pd  Pd168  1  0.00401217  0.20492372  0.79002555  1
  Pd  Pd169  1  0.40271360  0.80225355  0.20424256  1
  Pd  Pd170  1  0.39950070  0.19299622  0.81012825  1
  Pd  Pd171  1  -0.00328147  0.80420082  0.19616941  1
  Pd  Pd172  1  0.60413157  0.19957473  0.79213963  1
  Pd  Pd173  1  0.40990726  0.80068277  0.79240047  1
  Pd  Pd174  1  0.20155971  0.19212580  0.40275636  1
  Pd  Pd175  1  0.79318436  0.59586765  0.59271517  1
  Pd  Pd176  1  0.18899640  0.81360850  0.80401682  1
  Pd  Pd177  1  0.39592311  0.80569862  0.00761043  1
  Pd  Pd178  1  0.01096440  -0.00430225  0.39196380  1
  Pd  Pd179  1  0.40756690  0.20321131  0.40518165  1
  Pd  Pd180  1  -0.00445379  0.59058065  0.00918039  1
  Pd  Pd181  1  0.19378269  0.39835841  -0.00188210  1
  Pd  Pd182  1  0.80679461  -0.00232280  0.18808132  1
  Pd  Pd183  1  0.19595533  0.60124851  0.40387217  1
  Pd  Pd184  1  0.20152693  0.01749414  0.21050248  1
  Pd  Pd185  1  0.79644837  0.40275911  -0.00573136  1
  Pd  Pd186  1  0.40032692  0.39843837  0.39917472  1
  Pd  Pd187  1  0.59981635  0.00686561  0.39851139  1
  Pd  Pd188  1  -0.00331117  0.00682852  0.60776576  1
  Pd  Pd189  1  0.80452187  0.39177785  0.39419071  1
  Pd  Pd190  1  0.00633229  0.40341037  -0.00664322  1
  Pd  Pd191  1  0.39489897  0.20639647  0.19795948  1
  Pd  Pd192  1  0.19816795  0.78979787  0.18921713  1
  Pd  Pd193  1  0.20084667  0.19995091  0.20385224  1
  Pd  Pd194  1  0.79006117  0.20543086  0.79609488  1
  Pd  Pd195  1  0.20906511  -0.00033908  -0.00790422  1
  Pd  Pd196  1  0.20170221  0.79193638  0.59868833  1
  Pd  Pd197  1  -0.00377634  0.80935653  0.40539172  1
  Pd  Pd198  1  0.19096600  0.61313642  0.20164117  1
  Pd  Pd199  1  0.80366558  0.79054666  0.79975146  1
  Rh  Rh200  1  0.20976512  0.00318520  0.60266898  1
  Rh  Rh201  1  0.59609271  0.39730984  0.60786028  1
  Rh  Rh202  1  0.59639047  0.79827351  0.40194290  1
  Rh  Rh203  1  0.19225679  0.20936159  0.00378546  1
  Rh  Rh204  1  0.20243366  0.19423142  0.79787281  1
  Rh  Rh205  1  0.40117103  0.59871170  0.20822694  1
  Rh  Rh206  1  0.60580181  0.79334641  0.00213419  1
  Rh  Rh207  1  0.59333179  -0.00169821  0.20726877  1
  Rh  Rh208  1  0.60246363  0.20296915  0.00757005  1
  Rh  Rh209  1  0.39515917  0.59951545  -0.01062446  1
  Rh  Rh210  1  0.79903350  0.39762246  0.20521715  1
  Rh  Rh211  1  -0.00444645  0.39060772  0.59362309  1
  Rh  Rh212  1  0.39343903  0.40620847  0.79969894  1
  Rh  Rh213  1  0.59209353  0.39980517  0.00147006  1
  Rh  Rh214  1  0.60954293  0.80016240  0.20047192  1
  Rh  Rh215  1  0.39465266  -0.00634749  0.39075662  1
  Rh  Rh216  1  0.79746097  0.20516042  0.38931114  1
  Rh  Rh217  1  -0.00708251  0.60347852  0.79858469  1
  Rh  Rh218  1  0.79856923  0.19055469  0.60287184  1
  Rh  Rh219  1  0.41118585  0.21063489  0.59273799  1
  Rh  Rh220  1  0.19908922  0.40289013  0.39921392  1
  Rh  Rh221  1  0.19722450  0.40805952  0.80485911  1
  Rh  Rh222  1  0.80172509  0.40768778  0.60460837  1
  Rh  Rh223  1  0.79170177  0.60667110  0.39574613  1
  Rh  Rh224  1  0.21094526  0.80017531  0.40848513  1
  Rh  Rh225  1  0.41029814  0.58766461  0.60755500  1
  Rh  Rh226  1  0.79370350  -0.01262482  0.40736958  1
  Rh  Rh227  1  0.00006605  0.21026477  0.41415789  1
  Rh  Rh228  1  0.20524803  0.61144597  -0.00539875  1
  Rh  Rh229  1  0.20867439  0.39388696  0.20405561  1
  Rh  Rh230  1  0.00647557  0.20710449  0.00489311  1
  Rh  Rh231  1  0.19753067  0.60097204  0.59580289  1
  Rh  Rh232  1  0.60237064  0.59702182  0.00219996  1
  Rh  Rh233  1  0.00547297  0.80800540  -0.01005212  1
  Rh  Rh234  1  0.59782741  0.59901314  0.41102131  1
  Rh  Rh235  1  0.60664096  0.20239596  0.19534902  1
  Rh  Rh236  1  0.59833134  0.39884206  0.39405622  1
  Rh  Rh237  1  0.39937810  0.20147691  0.00019214  1
  Rh  Rh238  1  0.79452306  0.59579593  0.00911383  1
  Rh  Rh239  1  0.40482016  0.79676912  0.59135044  1
  Rh  Rh240  1  0.60731355  0.59935461  0.19565283  1
  Rh  Rh241  1  0.21390724  0.40341976  0.59566421  1
  Rh  Rh242  1  0.21441578  0.59719612  0.80326216  1
  Rh  Rh243  1  0.59780119  0.00480378  0.59915395  1
  Rh  Rh244  1  0.78864199  0.00135876  0.80344969  1
  Rh  Rh245  1  0.59912161  0.19666140  0.40714760  1
  Rh  Rh246  1  -0.01019836  -0.00001653  0.00060972  1
  Rh  Rh247  1  0.59634179  0.00034910  -0.01129254  1
  Rh  Rh248  1  0.00201241  0.79485318  0.60607349  1
  Rh  Rh249  1  0.39989894  -0.00507970  0.60889769  1
