# generated using pymatgen
data_ZrScNbPdRh
_symmetry_space_group_name_H-M   'P 1'
_cell_length_a   16.55787756
_cell_length_b   16.55990125
_cell_length_c   16.56654927
_cell_angle_alpha   89.98024425
_cell_angle_beta   90.01785950
_cell_angle_gamma   90.00846925
_symmetry_Int_Tables_number   1
_chemical_formula_structural   ZrScNbPdRh
_chemical_formula_sum   'Zr50 Sc50 Nb50 Pd50 Rh50'
_cell_volume   4542.49454427
_cell_formula_units_Z   50
loop_
 _symmetry_equiv_pos_site_id
 _symmetry_equiv_pos_as_xyz
  1  'x, y, z'
loop_
 _atom_site_type_symbol
 _atom_site_label
 _atom_site_symmetry_multiplicity
 _atom_site_fract_x
 _atom_site_fract_y
 _atom_site_fract_z
 _atom_site_occupancy
  Zr  Zr0  1  0.08633985  0.49463508  0.09673212  1
  Zr  Zr1  1  0.90189398  0.30111388  0.30583663  1
  Zr  Zr2  1  0.28631279  0.49513287  0.70193064  1
  Zr  Zr3  1  0.69375461  0.69447175  0.89704314  1
  Zr  Zr4  1  0.29879828  0.50768427  0.89252308  1
  Zr  Zr5  1  0.90227177  0.70043947  0.89662824  1
  Zr  Zr6  1  0.70458478  0.30722888  0.69970582  1
  Zr  Zr7  1  0.90240057  0.89883737  0.89835894  1
  Zr  Zr8  1  0.89778582  0.08837649  0.30210482  1
  Zr  Zr9  1  0.70170297  0.30706774  0.49794005  1
  Zr  Zr10  1  0.29953902  0.30022223  0.10894109  1
  Zr  Zr11  1  0.70826924  0.50954662  0.69867602  1
  Zr  Zr12  1  0.09164829  0.90331484  0.29296496  1
  Zr  Zr13  1  0.90317181  0.49687306  0.90549906  1
  Zr  Zr14  1  0.49680990  0.89511281  0.09665110  1
  Zr  Zr15  1  0.89374041  0.09710344  0.69182494  1
  Zr  Zr16  1  0.50722797  0.49424870  0.10542518  1
  Zr  Zr17  1  0.49893524  0.09254327  0.69903499  1
  Zr  Zr18  1  0.49667864  0.91284567  0.30220093  1
  Zr  Zr19  1  0.29746390  0.30307802  0.29061368  1
  Zr  Zr20  1  0.09407864  0.09849390  0.30158474  1
  Zr  Zr21  1  0.30237181  0.30274355  0.50740353  1
  Zr  Zr22  1  0.10709386  0.29832614  0.10611530  1
  Zr  Zr23  1  0.89621383  0.69732461  0.69545032  1
  Zr  Zr24  1  0.10131330  0.49428403  0.88306637  1
  Zr  Zr25  1  0.70067985  0.10008280  0.90613042  1
  Zr  Zr26  1  0.70497942  0.09879754  0.49771280  1
  Zr  Zr27  1  0.89225325  0.29844935  0.50061394  1
  Zr  Zr28  1  0.50940484  0.09800901  0.30321094  1
  Zr  Zr29  1  0.10326471  0.11100291  0.89513063  1
  Zr  Zr30  1  0.29848716  0.89243867  0.89382039  1
  Zr  Zr31  1  0.90089988  0.49712627  0.70801131  1
  Zr  Zr32  1  0.89766996  0.10292909  0.90040688  1
  Zr  Zr33  1  0.29368401  0.08893460  0.89998719  1
  Zr  Zr34  1  0.69775787  0.09445890  0.69857139  1
  Zr  Zr35  1  0.10435869  0.69638438  0.49080891  1
  Zr  Zr36  1  0.89572877  0.90017900  0.49871147  1
  Zr  Zr37  1  0.90089686  0.10203475  0.49525768  1
  Zr  Zr38  1  0.90848229  0.31423618  0.10385195  1
  Zr  Zr39  1  0.89276435  0.50355858  0.10608576  1
  Zr  Zr40  1  0.50552640  0.50525581  0.90834515  1
  Zr  Zr41  1  0.10646736  0.90306020  0.89624808  1
  Zr  Zr42  1  0.69366571  0.30038689  0.90044680  1
  Zr  Zr43  1  0.10598375  0.49795668  0.50504716  1
  Zr  Zr44  1  0.50747958  0.30149173  0.90258295  1
  Zr  Zr45  1  0.89826098  0.49934226  0.49880734  1
  Zr  Zr46  1  0.69683226  0.89544567  0.68977039  1
  Zr  Zr47  1  0.49623780  0.68965645  0.49930133  1
  Zr  Zr48  1  0.51209130  0.70514653  0.69664883  1
  Zr  Zr49  1  0.29757584  0.69251618  0.30434322  1
  Sc  Sc50  1  0.29886892  0.10011331  0.51484841  1
  Sc  Sc51  1  0.89324248  0.10253506  0.09929626  1
  Sc  Sc52  1  0.49920387  0.89803964  0.70197519  1
  Sc  Sc53  1  0.29216239  0.28823560  0.89460594  1
  Sc  Sc54  1  0.90548732  0.29896208  0.90398154  1
  Sc  Sc55  1  0.70351887  0.49617990  0.89929726  1
  Sc  Sc56  1  0.10248753  0.88944537  0.50625073  1
  Sc  Sc57  1  0.70607001  0.10027703  0.10682521  1
  Sc  Sc58  1  0.10731340  0.09667705  0.10125629  1
  Sc  Sc59  1  0.30736219  0.50275812  0.29113160  1
  Sc  Sc60  1  0.09983613  0.51423024  0.29602829  1
  Sc  Sc61  1  0.50220276  0.90291919  0.50631018  1
  Sc  Sc62  1  0.69905152  0.30316093  0.30244358  1
  Sc  Sc63  1  0.30357353  0.50356705  0.50997846  1
  Sc  Sc64  1  0.49907589  0.50412036  0.69385375  1
  Sc  Sc65  1  0.29836387  0.29455470  0.69378977  1
  Sc  Sc66  1  0.70380468  0.69868814  0.50854326  1
  Sc  Sc67  1  0.30209442  0.70177980  0.09443452  1
  Sc  Sc68  1  0.89799660  0.30686883  0.70095861  1
  Sc  Sc69  1  0.89841194  0.70090977  0.10044975  1
  Sc  Sc70  1  0.70590745  0.69441111  0.10208880  1
  Sc  Sc71  1  0.50347052  0.50140417  0.50331173  1
  Sc  Sc72  1  0.29595240  0.90982350  0.09145506  1
  Sc  Sc73  1  0.09776452  0.90448076  0.10348627  1
  Sc  Sc74  1  0.10042087  0.09873197  0.50360714  1
  Sc  Sc75  1  0.49861280  0.09584245  0.11248758  1
  Sc  Sc76  1  0.50309423  0.69752837  0.08469100  1
  Sc  Sc77  1  0.49539877  0.30281286  0.69675995  1
  Sc  Sc78  1  0.70877030  0.89500015  0.10142414  1
  Sc  Sc79  1  0.49111833  0.70204851  0.89731242  1
  Sc  Sc80  1  0.70043892  0.50141428  0.49441527  1
  Sc  Sc81  1  0.69855293  0.89722474  0.49807825  1
  Sc  Sc82  1  0.29789594  0.89754959  0.69821863  1
  Sc  Sc83  1  0.50801277  0.30404531  0.28933811  1
  Sc  Sc84  1  0.30956244  0.09410964  0.28427476  1
  Sc  Sc85  1  0.10131667  0.89087410  0.69872503  1
  Sc  Sc86  1  0.09348173  0.70178674  0.10202057  1
  Sc  Sc87  1  0.89823056  0.89919088  0.10911281  1
  Sc  Sc88  1  0.49949253  0.09938436  0.89212050  1
  Sc  Sc89  1  0.71004239  0.90415476  0.30004934  1
  Sc  Sc90  1  0.29577258  0.09759900  0.70431549  1
  Sc  Sc91  1  0.10031339  0.29558544  0.50646205  1
  Sc  Sc92  1  0.50511152  0.09231051  0.49686333  1
  Sc  Sc93  1  0.09792114  0.71253398  0.89135556  1
  Sc  Sc94  1  0.90010889  0.70172533  0.49226275  1
  Sc  Sc95  1  0.69381486  0.30619843  0.10310935  1
  Sc  Sc96  1  0.29800192  0.49855219  0.10797865  1
  Sc  Sc97  1  0.30149636  0.70097214  0.70202638  1
  Sc  Sc98  1  0.70620085  0.90242626  0.90174964  1
  Sc  Sc99  1  0.48992199  0.89536609  0.89856328  1
  Nb  Nb100  1  0.69485334  0.69056996  0.30160678  1
  Nb  Nb101  1  0.09901710  0.30113814  0.71074620  1
  Nb  Nb102  1  0.90897899  0.70252910  0.30424803  1
  Nb  Nb103  1  0.10000835  0.49383040  0.69917284  1
  Nb  Nb104  1  0.30097233  0.90043716  0.29939988  1
  Nb  Nb105  1  0.29564438  0.69969005  0.89776980  1
  Nb  Nb106  1  0.90487051  0.89564708  0.30088385  1
  Nb  Nb107  1  0.69820553  0.51029452  0.29154914  1
  Nb  Nb108  1  0.89872767  0.89900204  0.69640629  1
  Nb  Nb109  1  0.69737537  0.09593611  0.30180545  1
  Nb  Nb110  1  0.70203244  0.50472557  0.10913350  1
  Nb  Nb111  1  0.09761804  0.69847970  0.69734572  1
  Nb  Nb112  1  0.09424848  0.70473563  0.30371575  1
  Nb  Nb113  1  0.10238232  0.29915511  0.30080256  1
  Nb  Nb114  1  0.29912077  0.70752383  0.49890776  1
  Nb  Nb115  1  0.09938151  0.29566255  0.89753990  1
  Nb  Nb116  1  0.49913599  0.30673786  0.09514559  1
  Nb  Nb117  1  0.29615634  0.10522073  0.09545131  1
  Nb  Nb118  1  0.89868323  0.50284405  0.30183730  1
  Nb  Nb119  1  0.29644733  0.89329634  0.49786152  1
  Nb  Nb120  1  0.50233743  0.51335411  0.30603668  1
  Nb  Nb121  1  0.70295255  0.70078663  0.69899021  1
  Nb  Nb122  1  0.49620634  0.69452170  0.30633564  1
  Nb  Nb123  1  0.49898990  0.30415558  0.49905884  1
  Nb  Nb124  1  0.09738236  0.10714862  0.70311538  1
  Nb  Nb125  1  -0.00052785  0.00301812  0.79607011  1
  Nb  Nb126  1  0.20318042  0.79983160  0.20831416  1
  Nb  Nb127  1  0.00453104  0.40226220  0.39733890  1
  Nb  Nb128  1  0.60105076  0.20374707  0.59505186  1
  Nb  Nb129  1  0.79976304  0.79776691  0.79215369  1
  Nb  Nb130  1  0.39737264  0.80018036  0.39936924  1
  Nb  Nb131  1  0.59411618  0.79310318  0.39196177  1
  Nb  Nb132  1  0.79620181  0.19866947  0.80081958  1
  Nb  Nb133  1  0.40047875  0.79965339  0.20734930  1
  Nb  Nb134  1  0.20668512  -0.00323813  0.39903307  1
  Nb  Nb135  1  0.20006795  0.40045977  -0.00488477  1
  Nb  Nb136  1  0.60037107  -0.00115299  0.00197864  1
  Nb  Nb137  1  0.19675903  0.59808718  -0.00744087  1
  Nb  Nb138  1  0.00605410  0.59649345  0.60351065  1
  Nb  Nb139  1  0.20171738  0.39650055  0.39652169  1
  Nb  Nb140  1  0.40051946  0.20556965  0.40020435  1
  Nb  Nb141  1  -0.00149022  0.00250257  -0.00843857  1
  Nb  Nb142  1  0.39855524  0.40220271  0.80673584  1
  Nb  Nb143  1  0.59473088  0.79452852  0.21014387  1
  Nb  Nb144  1  0.39938186  0.20219086  0.00599882  1
  Nb  Nb145  1  0.39600619  0.39528583  -0.00209407  1
  Nb  Nb146  1  0.40277064  0.39817169  0.39869590  1
  Nb  Nb147  1  0.00000745  0.20224889  0.20647677  1
  Nb  Nb148  1  -0.00105304  0.19965183  0.60654533  1
  Nb  Nb149  1  0.20727987  0.19840424  0.39601413  1
  Pd  Pd150  1  0.80177997  -0.00331069  0.79686993  1
  Pd  Pd151  1  0.79757448  0.59870724  -0.00240470  1
  Pd  Pd152  1  0.19839558  0.80613830  0.39296043  1
  Pd  Pd153  1  0.40660088  0.60770423  0.18945780  1
  Pd  Pd154  1  0.00122567  0.39634894  0.59693138  1
  Pd  Pd155  1  0.40865569  0.20042186  0.20098039  1
  Pd  Pd156  1  0.19502474  -0.00342299  0.60001346  1
  Pd  Pd157  1  0.39896382  0.20228843  0.80411261  1
  Pd  Pd158  1  0.00702344  0.00194862  0.60306557  1
  Pd  Pd159  1  0.19871993  0.79579353  0.00897704  1
  Pd  Pd160  1  0.40481953  0.60016108  0.79176497  1
  Pd  Pd161  1  0.59512833  0.40868378  0.39300118  1
  Pd  Pd162  1  0.19944103  0.60868500  0.60449760  1
  Pd  Pd163  1  0.60328377  0.20139119  0.19522282  1
  Pd  Pd164  1  0.79926085  0.60183545  0.39891419  1
  Pd  Pd165  1  0.19501378  0.60594156  0.18950276  1
  Pd  Pd166  1  0.40182764  0.80244094  0.59754526  1
  Pd  Pd167  1  -0.00550967  0.60545070  0.20081434  1
  Pd  Pd168  1  0.39675773  -0.00506123  0.60073041  1
  Pd  Pd169  1  0.39530959  0.60096409  0.60681695  1
  Pd  Pd170  1  0.59314671  0.40926990  0.79288840  1
  Pd  Pd171  1  0.40787942  0.00890494  0.00057674  1
  Pd  Pd172  1  0.39229408  0.59439001  0.00539848  1
  Pd  Pd173  1  0.79398923  0.40039275  0.20714405  1
  Pd  Pd174  1  0.60096316  0.40163045  0.60283252  1
  Pd  Pd175  1  0.79961327  0.79771551  -0.00528458  1
  Pd  Pd176  1  0.79368826  0.19774809  0.39072893  1
  Pd  Pd177  1  0.20873672  0.58761752  0.40019432  1
  Pd  Pd178  1  0.59241965  0.60842362  0.19296506  1
  Pd  Pd179  1  0.00284233  0.19614473  0.01356993  1
  Pd  Pd180  1  0.80388170  0.20340605  0.20515707  1
  Pd  Pd181  1  0.79769117  0.79133828  0.21065790  1
  Pd  Pd182  1  0.79834539  0.21293064  0.00165822  1
  Pd  Pd183  1  0.60446646  0.80680505  0.80634929  1
  Pd  Pd184  1  0.41152265  0.19395306  0.59520121  1
  Pd  Pd185  1  0.61011553  -0.00965452  0.19338808  1
  Pd  Pd186  1  0.59671324  0.59643702  0.79833946  1
  Pd  Pd187  1  0.00817123  0.60446355  -0.00736513  1
  Pd  Pd188  1  0.39052318  0.00578831  0.41023753  1
  Pd  Pd189  1  0.00910529  -0.00971680  0.41126442  1
  Pd  Pd190  1  0.00444663  0.60233627  0.79621115  1
  Pd  Pd191  1  -0.00202478  0.79111419  0.59533926  1
  Pd  Pd192  1  0.59192450  0.18856371  0.01299358  1
  Pd  Pd193  1  0.59759278  -0.01081132  0.80892928  1
  Pd  Pd194  1  0.60199831  0.20109524  0.78819700  1
  Pd  Pd195  1  0.00154008  0.80738853  0.00738889  1
  Pd  Pd196  1  0.59574808  0.20263287  0.40473650  1
  Pd  Pd197  1  0.79436294  0.39692982  0.00111680  1
  Pd  Pd198  1  0.79250287  0.79605960  0.39436932  1
  Pd  Pd199  1  0.60604699  0.80479486  0.00159137  1
  Rh  Rh200  1  0.00048837  0.80534910  0.40182795  1
  Rh  Rh201  1  0.00909355  0.39554461  -0.00997609  1
  Rh  Rh202  1  0.60931256  -0.00760822  0.39992021  1
  Rh  Rh203  1  0.79809110  0.40874552  0.59911539  1
  Rh  Rh204  1  0.60072340  0.00382595  0.59762543  1
  Rh  Rh205  1  0.60679211  0.60048112  0.59863572  1
  Rh  Rh206  1  0.39432562  -0.00596402  0.18820625  1
  Rh  Rh207  1  0.39601513  -0.00442564  0.79583173  1
  Rh  Rh208  1  0.80620532  0.59751696  0.59692839  1
  Rh  Rh209  1  0.20446486  0.20067893  0.79230750  1
  Rh  Rh210  1  0.41329945  0.40673866  0.20560919  1
  Rh  Rh211  1  0.39831893  0.79561990  0.79741265  1
  Rh  Rh212  1  -0.00091763  0.59520516  0.40324122  1
  Rh  Rh213  1  0.00257133  0.39995329  0.21266266  1
  Rh  Rh214  1  0.18950809  0.19990360  0.60248259  1
  Rh  Rh215  1  0.00684955  0.20819366  0.40484779  1
  Rh  Rh216  1  0.79941550  0.60567998  0.80612912  1
  Rh  Rh217  1  0.18825687  0.41533759  0.20102054  1
  Rh  Rh218  1  0.80089206  0.40945633  0.39130818  1
  Rh  Rh219  1  0.60595068  0.60151350  0.40711357  1
  Rh  Rh220  1  0.19146793  0.61111803  0.79993210  1
  Rh  Rh221  1  0.20508352  0.38730639  0.80055787  1
  Rh  Rh222  1  0.79558455  -0.00726170  0.59137441  1
  Rh  Rh223  1  0.79938246  -0.00285649  0.00910179  1
  Rh  Rh224  1  0.20223469  0.79253457  0.60304346  1
  Rh  Rh225  1  0.39207361  0.59414964  0.40644088  1
  Rh  Rh226  1  0.80168653  -0.00089773  0.20308078  1
  Rh  Rh227  1  0.19656149  0.39231205  0.60124689  1
  Rh  Rh228  1  0.39100814  0.79828911  -0.00019842  1
  Rh  Rh229  1  0.79749890  0.20406335  0.60737435  1
  Rh  Rh230  1  0.61053612  0.59624499  0.00467977  1
  Rh  Rh231  1  0.39986138  0.40586553  0.60416072  1
  Rh  Rh232  1  -0.01034317  0.00882502  0.18800727  1
  Rh  Rh233  1  0.19233801  0.00109706  -0.00082630  1
  Rh  Rh234  1  0.80243517  0.80213562  0.60149547  1
  Rh  Rh235  1  -0.01146527  0.19890765  0.79050297  1
  Rh  Rh236  1  0.80894518  0.60608781  0.20886685  1
  Rh  Rh237  1  0.20280364  0.79505440  0.79235297  1
  Rh  Rh238  1  -0.00691959  0.80636784  0.79072077  1
  Rh  Rh239  1  0.59733134  0.79583452  0.59028913  1
  Rh  Rh240  1  -0.00418901  0.39335776  0.80284171  1
  Rh  Rh241  1  0.20658443  -0.00263293  0.20240895  1
  Rh  Rh242  1  0.19296626  -0.00157577  0.79096228  1
  Rh  Rh243  1  0.79917511  -0.00373886  0.40009315  1
  Rh  Rh244  1  0.00185047  0.79508176  0.20094235  1
  Rh  Rh245  1  0.80414789  0.39275045  0.81058701  1
  Rh  Rh246  1  0.19394174  0.18609584  0.20699926  1
  Rh  Rh247  1  0.60196912  0.40631587  0.20623886  1
  Rh  Rh248  1  0.60660213  0.40853614  0.00504112  1
  Rh  Rh249  1  0.20522503  0.20508379  0.00255576  1
