# generated using pymatgen
data_ZrScNbPdRh
_symmetry_space_group_name_H-M   'P 1'
_cell_length_a   16.56006730
_cell_length_b   16.56215873
_cell_length_c   16.55522765
_cell_angle_alpha   90.02977724
_cell_angle_beta   89.97577078
_cell_angle_gamma   90.00256386
_symmetry_Int_Tables_number   1
_chemical_formula_structural   ZrScNbPdRh
_chemical_formula_sum   'Zr50 Sc50 Nb50 Pd50 Rh50'
_cell_volume   4540.60893294
_cell_formula_units_Z   50
loop_
 _symmetry_equiv_pos_site_id
 _symmetry_equiv_pos_as_xyz
  1  'x, y, z'
loop_
 _atom_site_type_symbol
 _atom_site_label
 _atom_site_symmetry_multiplicity
 _atom_site_fract_x
 _atom_site_fract_y
 _atom_site_fract_z
 _atom_site_occupancy
  Zr  Zr0  1  0.29744430  0.09886262  0.90860496  1
  Zr  Zr1  1  0.50014523  0.49823411  0.49684063  1
  Zr  Zr2  1  0.70706846  0.30464726  0.50055813  1
  Zr  Zr3  1  0.90353422  0.90490238  0.50049029  1
  Zr  Zr4  1  0.50810199  0.30141368  0.29577267  1
  Zr  Zr5  1  0.69976440  0.10693858  0.09720391  1
  Zr  Zr6  1  0.10094551  0.70255625  0.70800710  1
  Zr  Zr7  1  0.10188049  0.50085910  0.30625581  1
  Zr  Zr8  1  0.69909279  0.70082930  0.09783541  1
  Zr  Zr9  1  0.70108528  0.68512857  0.70058466  1
  Zr  Zr10  1  0.49520455  0.89520573  0.70003997  1
  Zr  Zr11  1  0.30290950  0.50058251  0.69137363  1
  Zr  Zr12  1  0.69381507  0.49952499  0.31172259  1
  Zr  Zr13  1  0.10051841  0.70476850  0.09637838  1
  Zr  Zr14  1  0.88937175  0.49535883  0.69982004  1
  Zr  Zr15  1  0.30628358  0.10210534  0.28404969  1
  Zr  Zr16  1  0.70548138  0.89174792  0.10564499  1
  Zr  Zr17  1  0.49995701  0.49881528  0.29392155  1
  Zr  Zr18  1  0.30465591  0.30121132  0.29528771  1
  Zr  Zr19  1  0.50082268  0.10370066  0.50152701  1
  Zr  Zr20  1  0.70003290  0.68775700  0.49470782  1
  Zr  Zr21  1  0.10884602  0.30477261  0.49944175  1
  Zr  Zr22  1  0.09914054  0.89799683  0.10369334  1
  Zr  Zr23  1  0.70384645  0.30491095  0.29735954  1
  Zr  Zr24  1  0.69687957  0.70578344  0.29947885  1
  Zr  Zr25  1  0.30044205  0.29251460  0.09190282  1
  Zr  Zr26  1  0.29686327  0.70432497  0.30319423  1
  Zr  Zr27  1  0.29860243  0.50246058  0.29901260  1
  Zr  Zr28  1  0.89070455  0.90818710  0.30089432  1
  Zr  Zr29  1  0.48757191  0.09933949  0.10149479  1
  Zr  Zr30  1  0.09602198  0.49707188  0.09252089  1
  Zr  Zr31  1  0.50004699  0.10761374  0.29817785  1
  Zr  Zr32  1  0.49384003  0.89196095  0.89544479  1
  Zr  Zr33  1  0.89747399  0.30295156  0.29823359  1
  Zr  Zr34  1  0.30343170  0.31044418  0.50358190  1
  Zr  Zr35  1  0.69791129  0.88826498  0.49066813  1
  Zr  Zr36  1  0.69754366  0.69579490  0.90347234  1
  Zr  Zr37  1  0.10432221  0.50374755  0.70012647  1
  Zr  Zr38  1  0.90036573  0.10875089  0.29220654  1
  Zr  Zr39  1  0.29103288  0.69434845  0.70441979  1
  Zr  Zr40  1  0.90225564  0.90033069  0.10215983  1
  Zr  Zr41  1  0.70023798  0.50036241  0.89015007  1
  Zr  Zr42  1  0.10734451  0.70232886  0.30068863  1
  Zr  Zr43  1  0.49616041  0.89393206  0.50074797  1
  Zr  Zr44  1  0.49416922  0.69925034  0.71584347  1
  Zr  Zr45  1  0.29131951  0.70356302  0.90197558  1
  Zr  Zr46  1  0.89570749  0.69509731  0.10080646  1
  Zr  Zr47  1  0.29919377  0.90130194  0.50856419  1
  Zr  Zr48  1  0.50003935  0.50320618  0.70620908  1
  Zr  Zr49  1  0.10273711  0.69417235  0.90194262  1
  Sc  Sc50  1  0.70593030  0.10396520  0.89962341  1
  Sc  Sc51  1  0.89483280  0.50232094  0.49708474  1
  Sc  Sc52  1  0.50426519  0.29885499  0.49516552  1
  Sc  Sc53  1  0.70192512  0.11113222  0.29786676  1
  Sc  Sc54  1  0.89948586  0.90265468  0.89853251  1
  Sc  Sc55  1  0.49255874  0.89413373  0.10527805  1
  Sc  Sc56  1  0.50605463  0.70331436  0.49861119  1
  Sc  Sc57  1  0.09737356  0.30509454  0.29075602  1
  Sc  Sc58  1  0.09710287  0.30630713  0.09794308  1
  Sc  Sc59  1  0.10509830  0.89076154  0.90439446  1
  Sc  Sc60  1  0.29957796  0.69506353  0.10583961  1
  Sc  Sc61  1  0.70923110  0.89341864  0.90168019  1
  Sc  Sc62  1  0.09921328  0.49171007  0.90470724  1
  Sc  Sc63  1  0.70625037  0.88901971  0.71147762  1
  Sc  Sc64  1  0.89696307  0.49313648  0.29717524  1
  Sc  Sc65  1  0.90673543  0.69728592  0.90015186  1
  Sc  Sc66  1  0.10366659  0.09509736  0.10051676  1
  Sc  Sc67  1  0.10363328  0.90378756  0.69873762  1
  Sc  Sc68  1  0.90500748  0.49883089  0.90278836  1
  Sc  Sc69  1  0.70117652  0.29686320  0.09983475  1
  Sc  Sc70  1  0.89690575  0.10107117  0.70699333  1
  Sc  Sc71  1  0.10473098  0.09852827  0.69632645  1
  Sc  Sc72  1  0.70048974  0.10852571  0.70535702  1
  Sc  Sc73  1  0.90232775  0.49612883  0.09700800  1
  Sc  Sc74  1  0.90356114  0.09137739  0.49844511  1
  Sc  Sc75  1  0.69492324  0.11192465  0.50261402  1
  Sc  Sc76  1  0.29228699  0.08882950  0.70488591  1
  Sc  Sc77  1  0.29971625  0.89470841  0.70863178  1
  Sc  Sc78  1  0.89170297  0.10142462  0.89916559  1
  Sc  Sc79  1  0.50399879  0.30460053  0.09168719  1
  Sc  Sc80  1  0.10025381  0.10019413  0.29009973  1
  Sc  Sc81  1  0.90148699  0.29933641  0.88987341  1
  Sc  Sc82  1  0.50672696  0.10496710  0.70135467  1
  Sc  Sc83  1  0.09835378  0.69168679  0.50514299  1
  Sc  Sc84  1  0.30345738  0.49993769  0.09889969  1
  Sc  Sc85  1  0.89796362  0.69699869  0.30374731  1
  Sc  Sc86  1  0.91259114  0.69532501  0.69887664  1
  Sc  Sc87  1  0.49742307  0.10451801  0.90300774  1
  Sc  Sc88  1  0.10129466  0.29584141  0.71363130  1
  Sc  Sc89  1  0.89173581  0.29978566  0.70148258  1
  Sc  Sc90  1  0.69416936  0.29409556  0.89849316  1
  Sc  Sc91  1  0.90417987  0.30075091  0.10394193  1
  Sc  Sc92  1  0.48683491  0.71084575  0.29410882  1
  Sc  Sc93  1  0.29143979  0.49921184  0.90533655  1
  Sc  Sc94  1  0.29386170  0.70004655  0.50425473  1
  Sc  Sc95  1  0.70690596  0.50343197  0.09975077  1
  Sc  Sc96  1  0.90077487  0.10139790  0.09711042  1
  Sc  Sc97  1  0.90810762  0.89925936  0.70354988  1
  Sc  Sc98  1  0.70004576  0.29753135  0.70415447  1
  Sc  Sc99  1  0.29066122  0.31063962  0.69889622  1
  Nb  Nb100  1  0.10324312  0.09766774  0.50254262  1
  Nb  Nb101  1  0.70346379  0.49928946  0.69292932  1
  Nb  Nb102  1  0.49878784  0.68873554  0.90958693  1
  Nb  Nb103  1  0.11035658  0.49621191  0.49639195  1
  Nb  Nb104  1  0.30616109  0.89312724  0.30269002  1
  Nb  Nb105  1  0.29333879  0.29790985  0.89775384  1
  Nb  Nb106  1  0.49582101  0.51436405  0.09003576  1
  Nb  Nb107  1  0.10803267  0.29696391  0.89862016  1
  Nb  Nb108  1  0.30234661  0.91310386  0.09282282  1
  Nb  Nb109  1  0.29644777  0.10075245  0.50164244  1
  Nb  Nb110  1  0.49318462  0.89938408  0.30378472  1
  Nb  Nb111  1  0.10403265  0.11045698  0.88648515  1
  Nb  Nb112  1  0.09354577  0.91793557  0.50192769  1
  Nb  Nb113  1  0.49538339  0.69324230  0.09258792  1
  Nb  Nb114  1  0.50150184  0.50324436  0.90971829  1
  Nb  Nb115  1  0.90243858  0.30197915  0.50045179  1
  Nb  Nb116  1  0.30669004  0.09247876  0.09672950  1
  Nb  Nb117  1  0.49783187  0.30485213  0.89615071  1
  Nb  Nb118  1  0.10458825  0.89597408  0.30426067  1
  Nb  Nb119  1  0.69679507  0.50232581  0.50817968  1
  Nb  Nb120  1  0.90129557  0.70449555  0.50189353  1
  Nb  Nb121  1  0.29473192  0.49627809  0.50131867  1
  Nb  Nb122  1  0.69346073  0.90056212  0.29850667  1
  Nb  Nb123  1  0.50098359  0.30019101  0.70109139  1
  Nb  Nb124  1  0.30038667  0.90186810  0.90349554  1
  Nb  Nb125  1  0.60459222  -0.00802273  0.60169122  1
  Nb  Nb126  1  0.39640434  0.20265908  0.60479613  1
  Nb  Nb127  1  0.00711020  0.00594035  0.80656514  1
  Nb  Nb128  1  0.00132026  0.39763818  0.59618524  1
  Nb  Nb129  1  0.40366063  0.39819415  0.80703553  1
  Nb  Nb130  1  0.39617554  0.79733508  -0.00137949  1
  Nb  Nb131  1  0.20120579  0.19452675  0.40192803  1
  Nb  Nb132  1  0.59862127  -0.00413479  0.20254682  1
  Nb  Nb133  1  0.79962195  0.39720836  -0.00540210  1
  Nb  Nb134  1  0.00462470  0.80803742  0.40305822  1
  Nb  Nb135  1  0.20312424  0.00067462  0.39884564  1
  Nb  Nb136  1  0.00188248  0.20396549  0.59324039  1
  Nb  Nb137  1  0.39630898  0.00066494  0.39850611  1
  Nb  Nb138  1  0.00811065  0.20034579  -0.01163014  1
  Nb  Nb139  1  0.60053807  -0.00415880  0.80320097  1
  Nb  Nb140  1  0.00541387  0.60125719  0.20037252  1
  Nb  Nb141  1  0.79252495  -0.00754488  0.59955369  1
  Nb  Nb142  1  0.60263286  0.40501211  0.60376887  1
  Nb  Nb143  1  0.59526441  -0.00381408  0.39648528  1
  Nb  Nb144  1  0.39483282  0.59659756  0.40087743  1
  Nb  Nb145  1  0.39725025  0.20968106  0.79947885  1
  Nb  Nb146  1  0.80367997  0.79507370  0.59514679  1
  Nb  Nb147  1  0.59257272  0.60366624  0.19382995  1
  Nb  Nb148  1  0.00598632  0.20114521  0.40585266  1
  Nb  Nb149  1  0.59934387  -0.00486379  0.00295196  1
  Pd  Pd150  1  0.80715146  0.79729383  0.39844462  1
  Pd  Pd151  1  0.79940978  0.59542458  0.20501019  1
  Pd  Pd152  1  0.00133531  -0.00026634  0.20304395  1
  Pd  Pd153  1  0.81004432  0.79721836  -0.00391218  1
  Pd  Pd154  1  0.19454619  0.59522489  0.19372460  1
  Pd  Pd155  1  -0.00153690  0.39730473  0.40299449  1
  Pd  Pd156  1  -0.00169826  0.58839094  0.59542991  1
  Pd  Pd157  1  0.81120368  0.78850764  0.79463110  1
  Pd  Pd158  1  0.21010432  0.80870655  0.19225337  1
  Pd  Pd159  1  0.19218830  0.80674943  0.41562513  1
  Pd  Pd160  1  0.20067473  0.40121847  0.19451028  1
  Pd  Pd161  1  0.59081961  0.79835889  0.19954484  1
  Pd  Pd162  1  0.80894210  0.60356040  0.80311246  1
  Pd  Pd163  1  0.39241376  0.19875959  0.40608342  1
  Pd  Pd164  1  0.18979532  0.80410498  0.59875851  1
  Pd  Pd165  1  0.80705351  0.19673819  0.40482665  1
  Pd  Pd166  1  0.18888675  0.00162280  -0.00581451  1
  Pd  Pd167  1  0.60943487  0.79773350  0.60819316  1
  Pd  Pd168  1  0.00084962  0.59125831  0.80340715  1
  Pd  Pd169  1  0.80372543  0.59528808  0.39827623  1
  Pd  Pd170  1  -0.00590246  0.80054345  -0.00455626  1
  Pd  Pd171  1  0.39562879  0.40037931  -0.00388991  1
  Pd  Pd172  1  0.20446489  -0.00791753  0.20512928  1
  Pd  Pd173  1  0.00451667  0.80230297  0.59552207  1
  Pd  Pd174  1  0.19664538  0.20170942  0.19588384  1
  Pd  Pd175  1  -0.00682104  0.79576220  0.21035426  1
  Pd  Pd176  1  0.20202274  0.20149927  0.60391999  1
  Pd  Pd177  1  0.39520144  0.78832454  0.60356257  1
  Pd  Pd178  1  0.80833874  0.19177237  0.59898592  1
  Pd  Pd179  1  0.79261919  0.00676255  0.19737902  1
  Pd  Pd180  1  0.59183077  0.80457561  0.00018438  1
  Pd  Pd181  1  0.79448605  -0.00065094  0.00121780  1
  Pd  Pd182  1  0.00142993  0.40063087  0.79471172  1
  Pd  Pd183  1  0.78586380  0.01103701  0.40504401  1
  Pd  Pd184  1  0.00649020  0.00935128  -0.00972500  1
  Pd  Pd185  1  0.40301417  0.60742753  0.59190557  1
  Pd  Pd186  1  0.59454735  0.19604823  -0.00229715  1
  Pd  Pd187  1  0.60193687  0.41010519  0.18612750  1
  Pd  Pd188  1  0.19342828  0.19616483  0.00763413  1
  Pd  Pd189  1  0.40459711  0.01073024  0.80049461  1
  Pd  Pd190  1  0.60004240  0.40164370  0.79586529  1
  Pd  Pd191  1  -0.00094997  0.60419618  0.39806579  1
  Pd  Pd192  1  0.40388560  0.39799678  0.18775541  1
  Pd  Pd193  1  0.58994361  0.59974379  0.60313979  1
  Pd  Pd194  1  0.00669367  0.00607697  0.38709574  1
  Pd  Pd195  1  0.40482149  0.00835166  0.60414010  1
  Pd  Pd196  1  0.60846428  0.40580316  0.00288695  1
  Pd  Pd197  1  0.60201851  0.79638466  0.80485986  1
  Pd  Pd198  1  0.39184111  0.59113436  0.81260351  1
  Pd  Pd199  1  0.40089640  0.40295089  0.39745887  1
  Rh  Rh200  1  0.39218300  0.79232899  0.80757207  1
  Rh  Rh201  1  0.00264206  0.19915236  0.19361029  1
  Rh  Rh202  1  0.20241235  -0.00547289  0.60069388  1
  Rh  Rh203  1  0.20665290  0.59912310  0.40791590  1
  Rh  Rh204  1  0.80088577  0.59255490  -0.00713387  1
  Rh  Rh205  1  0.19729642  0.59776783  0.59686117  1
  Rh  Rh206  1  0.40713016  -0.00698452  -0.00590657  1
  Rh  Rh207  1  0.40145729  -0.00847476  0.20590296  1
  Rh  Rh208  1  0.59530806  0.20919575  0.60128018  1
  Rh  Rh209  1  0.20439820  0.40542454  0.80127392  1
  Rh  Rh210  1  0.20125614  0.39725500  0.00107791  1
  Rh  Rh211  1  0.39114049  0.80347777  0.18853457  1
  Rh  Rh212  1  0.20490251  0.39396191  0.39168484  1
  Rh  Rh213  1  -0.00679870  0.01188803  0.61438976  1
  Rh  Rh214  1  0.80620133  0.79992156  0.20610348  1
  Rh  Rh215  1  0.40297203  0.60008285  0.20597945  1
  Rh  Rh216  1  0.60433587  0.39459723  0.40839375  1
  Rh  Rh217  1  0.79932908  0.40012556  0.59888171  1
  Rh  Rh218  1  0.19857955  0.59686639  0.00371799  1
  Rh  Rh219  1  0.79801315  0.40608689  0.40462418  1
  Rh  Rh220  1  0.80797002  0.60585699  0.59767222  1
  Rh  Rh221  1  0.80146054  0.20336574  0.19445767  1
  Rh  Rh222  1  0.21169425  0.19936197  0.79397571  1
  Rh  Rh223  1  0.39574886  0.79682120  0.40785054  1
  Rh  Rh224  1  0.20992492  0.80469783  0.00867589  1
  Rh  Rh225  1  0.60957328  0.59473863  0.00346689  1
  Rh  Rh226  1  0.00399208  0.80787797  0.80347451  1
  Rh  Rh227  1  -0.00719843  0.38550970  -0.00681125  1
  Rh  Rh228  1  0.19044911  0.40318367  0.60658490  1
  Rh  Rh229  1  0.41043294  0.39531774  0.60621937  1
  Rh  Rh230  1  0.00075027  0.41031122  0.20162565  1
  Rh  Rh231  1  -0.00132840  0.19595662  0.79683475  1
  Rh  Rh232  1  0.79392489  0.39766365  0.80488572  1
  Rh  Rh233  1  0.81314287  0.21164497  -0.00069404  1
  Rh  Rh234  1  0.79763090  0.39892849  0.19191458  1
  Rh  Rh235  1  0.19850072  0.59386963  0.80419975  1
  Rh  Rh236  1  0.59366327  0.79734109  0.39242418  1
  Rh  Rh237  1  0.59776049  0.19781933  0.19609213  1
  Rh  Rh238  1  0.38765702  0.60469555  -0.00538629  1
  Rh  Rh239  1  0.19852227  0.80417846  0.79986242  1
  Rh  Rh240  1  0.58557762  0.60952835  0.38614425  1
  Rh  Rh241  1  0.39982547  0.20408159  -0.00561451  1
  Rh  Rh242  1  0.59523167  0.19338412  0.80471317  1
  Rh  Rh243  1  0.00070069  0.60275070  0.00612390  1
  Rh  Rh244  1  0.79724532  0.20309412  0.80158006  1
  Rh  Rh245  1  0.79970372  -0.00057448  0.79399277  1
  Rh  Rh246  1  0.19464138  -0.00593284  0.80745134  1
  Rh  Rh247  1  0.40453915  0.21238485  0.18935370  1
  Rh  Rh248  1  0.59904164  0.59901009  0.80316941  1
  Rh  Rh249  1  0.60676873  0.20412972  0.39556482  1
