# generated using pymatgen
data_ZrScNbPdRh
_symmetry_space_group_name_H-M   'P 1'
_cell_length_a   16.56324287
_cell_length_b   16.56005980
_cell_length_c   16.56191115
_cell_angle_alpha   89.98299135
_cell_angle_beta   89.96049909
_cell_angle_gamma   89.99604033
_symmetry_Int_Tables_number   1
_chemical_formula_structural   ZrScNbPdRh
_chemical_formula_sum   'Zr50 Sc50 Nb50 Pd50 Rh50'
_cell_volume   4542.73703688
_cell_formula_units_Z   50
loop_
 _symmetry_equiv_pos_site_id
 _symmetry_equiv_pos_as_xyz
  1  'x, y, z'
loop_
 _atom_site_type_symbol
 _atom_site_label
 _atom_site_symmetry_multiplicity
 _atom_site_fract_x
 _atom_site_fract_y
 _atom_site_fract_z
 _atom_site_occupancy
  Zr  Zr0  1  0.10131484  0.10491354  0.29782698  1
  Zr  Zr1  1  0.10798686  0.90103476  0.90589798  1
  Zr  Zr2  1  0.89902298  0.49887303  0.29313822  1
  Zr  Zr3  1  0.10174618  0.30770782  0.49324404  1
  Zr  Zr4  1  0.10674616  0.90152513  0.69601939  1
  Zr  Zr5  1  0.90415707  0.10188652  0.69219965  1
  Zr  Zr6  1  0.30671788  0.90315773  0.69766250  1
  Zr  Zr7  1  0.89870532  0.50043420  0.89086674  1
  Zr  Zr8  1  0.88941031  0.30456208  0.70573092  1
  Zr  Zr9  1  0.70275530  0.29629589  0.89424216  1
  Zr  Zr10  1  0.70077120  0.69700661  0.70186947  1
  Zr  Zr11  1  0.69632032  0.29989574  0.50446794  1
  Zr  Zr12  1  0.30306780  0.70713293  0.10215847  1
  Zr  Zr13  1  0.49706330  0.69900784  0.49419575  1
  Zr  Zr14  1  0.69248885  0.69768021  0.10005809  1
  Zr  Zr15  1  0.50498546  0.09760868  0.90824008  1
  Zr  Zr16  1  0.70211776  0.70837790  0.89469340  1
  Zr  Zr17  1  0.70000941  0.29935715  0.10188196  1
  Zr  Zr18  1  0.30050777  0.30569749  0.11848967  1
  Zr  Zr19  1  0.11372281  0.70330576  0.89830010  1
  Zr  Zr20  1  0.69659535  0.10270225  0.10097726  1
  Zr  Zr21  1  0.10691384  0.51338607  0.90593371  1
  Zr  Zr22  1  0.90406671  0.30067176  0.30421385  1
  Zr  Zr23  1  0.69902406  0.10485798  0.49731924  1
  Zr  Zr24  1  0.49703421  0.50377948  0.30055444  1
  Zr  Zr25  1  0.50052416  0.69922212  0.30084361  1
  Zr  Zr26  1  0.89653137  0.29728382  0.10780561  1
  Zr  Zr27  1  0.29974458  0.70571016  0.49091414  1
  Zr  Zr28  1  0.29789389  0.89082863  0.90760044  1
  Zr  Zr29  1  0.51041492  0.89838322  0.89577815  1
  Zr  Zr30  1  0.49993388  0.09162746  0.10173651  1
  Zr  Zr31  1  0.90345940  0.88023734  0.29772378  1
  Zr  Zr32  1  0.69094891  0.08446479  0.30555138  1
  Zr  Zr33  1  0.89655062  0.50208983  0.69153123  1
  Zr  Zr34  1  0.70775807  0.29618892  0.30117710  1
  Zr  Zr35  1  0.89395703  0.10126051  0.50383014  1
  Zr  Zr36  1  0.09687507  0.49948952  0.49775814  1
  Zr  Zr37  1  0.10044051  0.90144841  0.10500628  1
  Zr  Zr38  1  0.49978452  0.69924118  0.10058466  1
  Zr  Zr39  1  0.48712809  0.09255386  0.69810974  1
  Zr  Zr40  1  0.90304191  0.09868462  0.10083856  1
  Zr  Zr41  1  0.69484797  0.50424152  0.90480048  1
  Zr  Zr42  1  0.51364048  0.90820513  0.29565483  1
  Zr  Zr43  1  0.10997510  0.71086028  0.30380117  1
  Zr  Zr44  1  0.90354482  0.30051679  0.89839110  1
  Zr  Zr45  1  0.70024951  0.49876428  0.10597987  1
  Zr  Zr46  1  0.49503380  0.69947510  0.69391797  1
  Zr  Zr47  1  0.90519976  0.70071135  0.10271307  1
  Zr  Zr48  1  0.09947538  0.50664513  0.69050397  1
  Zr  Zr49  1  0.29406161  0.09719522  0.70429115  1
  Sc  Sc50  1  0.10305334  0.68941751  0.09290830  1
  Sc  Sc51  1  0.48547652  0.30332864  0.30404934  1
  Sc  Sc52  1  0.89035043  0.69964565  0.69959901  1
  Sc  Sc53  1  0.50287109  0.29614511  0.89723244  1
  Sc  Sc54  1  0.70185136  0.91105112  0.47849936  1
  Sc  Sc55  1  0.29254386  0.89032638  0.28571337  1
  Sc  Sc56  1  0.29474594  0.69760601  0.69647229  1
  Sc  Sc57  1  0.10896968  0.69989721  0.50430507  1
  Sc  Sc58  1  0.08450514  0.09920174  0.50256562  1
  Sc  Sc59  1  0.30287848  0.50155848  0.70004038  1
  Sc  Sc60  1  0.50704897  0.30333096  0.10565629  1
  Sc  Sc61  1  0.11021362  0.09734600  0.90425334  1
  Sc  Sc62  1  0.90456042  0.10460097  0.30639848  1
  Sc  Sc63  1  0.89309163  0.70547751  0.49672815  1
  Sc  Sc64  1  0.30290662  0.90470633  0.09618880  1
  Sc  Sc65  1  0.69883417  0.30171859  0.69487861  1
  Sc  Sc66  1  0.90256537  0.90425362  0.49936274  1
  Sc  Sc67  1  0.70309562  0.50921069  0.30267174  1
  Sc  Sc68  1  0.09948161  0.89433927  0.50093470  1
  Sc  Sc69  1  0.30239433  0.29973134  0.49178913  1
  Sc  Sc70  1  0.49676065  0.89930204  0.09591344  1
  Sc  Sc71  1  0.89672759  0.29931583  0.49591247  1
  Sc  Sc72  1  0.70919628  0.10421731  0.70218052  1
  Sc  Sc73  1  0.09775401  0.29499312  0.11133454  1
  Sc  Sc74  1  0.09466247  0.30858471  0.69981889  1
  Sc  Sc75  1  0.70337258  0.70691264  0.30069800  1
  Sc  Sc76  1  0.10019807  0.09703642  0.10428962  1
  Sc  Sc77  1  0.70355698  0.50175997  0.50390957  1
  Sc  Sc78  1  0.49832022  0.49871157  0.50002303  1
  Sc  Sc79  1  0.49264861  0.29917086  0.69646797  1
  Sc  Sc80  1  0.70711070  0.49855949  0.69319782  1
  Sc  Sc81  1  0.30425273  0.10429433  0.50483780  1
  Sc  Sc82  1  0.49504749  0.29692263  0.50431783  1
  Sc  Sc83  1  0.29160668  0.49592186  0.49622953  1
  Sc  Sc84  1  0.10237865  0.29852884  0.30351108  1
  Sc  Sc85  1  0.30637428  0.29818555  0.88910123  1
  Sc  Sc86  1  0.48829040  0.89664351  0.49789139  1
  Sc  Sc87  1  0.89332298  0.90638529  0.69748946  1
  Sc  Sc88  1  0.89353672  0.09784239  0.90670434  1
  Sc  Sc89  1  0.29887170  0.08944319  0.89983891  1
  Sc  Sc90  1  0.50045448  0.09919935  0.29574471  1
  Sc  Sc91  1  0.49134000  0.49599503  0.69089939  1
  Sc  Sc92  1  0.30114850  0.49167446  0.29877261  1
  Sc  Sc93  1  0.49738990  0.10449191  0.49789069  1
  Sc  Sc94  1  0.69798130  0.69052269  0.49056797  1
  Sc  Sc95  1  0.29733445  0.89826825  0.50501264  1
  Sc  Sc96  1  0.10606920  0.70517726  0.69564795  1
  Sc  Sc97  1  0.69741062  0.09950638  0.90173837  1
  Sc  Sc98  1  0.50877201  0.50280766  0.10375777  1
  Sc  Sc99  1  0.29667243  0.50587170  0.11279692  1
  Nb  Nb100  1  0.89869604  0.89477300  0.90506905  1
  Nb  Nb101  1  0.29950638  0.29478746  0.70213995  1
  Nb  Nb102  1  0.70359812  0.89626045  0.28855709  1
  Nb  Nb103  1  0.30464895  0.10221606  0.10352844  1
  Nb  Nb104  1  0.50029650  0.89778943  0.69958253  1
  Nb  Nb105  1  0.09872188  0.09878895  0.70333039  1
  Nb  Nb106  1  0.70693289  0.89101747  0.10432239  1
  Nb  Nb107  1  0.90135933  0.69620792  0.30401283  1
  Nb  Nb108  1  0.49379784  0.49846008  0.89687594  1
  Nb  Nb109  1  0.29625845  0.29514608  0.30342833  1
  Nb  Nb110  1  0.90258071  0.70036985  0.89943324  1
  Nb  Nb111  1  0.50057714  0.69837820  0.90410065  1
  Nb  Nb112  1  0.70987383  0.89665890  0.89350813  1
  Nb  Nb113  1  0.10396134  0.90229305  0.30159567  1
  Nb  Nb114  1  0.90000058  0.89961706  0.09630662  1
  Nb  Nb115  1  0.89971722  0.50538899  0.49551496  1
  Nb  Nb116  1  0.09766777  0.49913351  0.10086801  1
  Nb  Nb117  1  0.10271016  0.30444367  0.90508334  1
  Nb  Nb118  1  0.90488185  0.50339695  0.10004984  1
  Nb  Nb119  1  0.69208747  0.89369370  0.71711126  1
  Nb  Nb120  1  0.29705770  0.69507246  0.89984151  1
  Nb  Nb121  1  0.30337255  0.69685857  0.29494763  1
  Nb  Nb122  1  0.30216987  0.10807680  0.29568230  1
  Nb  Nb123  1  0.09912952  0.49602777  0.29906351  1
  Nb  Nb124  1  0.30066116  0.50221278  0.89671276  1
  Nb  Nb125  1  0.38843622  0.00221764  0.38863391  1
  Nb  Nb126  1  -0.00100799  0.59936288  0.39498776  1
  Nb  Nb127  1  0.80347115  -0.01052797  0.19635341  1
  Nb  Nb128  1  0.59169460  0.59722966  0.80227259  1
  Nb  Nb129  1  0.00521694  0.19678592  0.80152410  1
  Nb  Nb130  1  0.20113403  0.39984142  0.00022341  1
  Nb  Nb131  1  0.59565238  0.40729004  0.79902795  1
  Nb  Nb132  1  0.00180377  -0.00080036  0.80243745  1
  Nb  Nb133  1  0.40160047  0.79512034  0.80447389  1
  Nb  Nb134  1  0.00049552  0.60757732  0.80107588  1
  Nb  Nb135  1  0.20112104  0.00129358  0.39261675  1
  Nb  Nb136  1  -0.00337475  0.80342965  0.80570798  1
  Nb  Nb137  1  0.20166923  0.40279547  0.80485672  1
  Nb  Nb138  1  0.78314352  0.80734420  0.59997205  1
  Nb  Nb139  1  0.80631410  0.40495913  0.00342771  1
  Nb  Nb140  1  0.39927620  0.59733447  -0.00687034  1
  Nb  Nb141  1  0.39504898  0.40346461  -0.00195746  1
  Nb  Nb142  1  0.19612543  0.20125572  0.60793904  1
  Nb  Nb143  1  0.00242425  0.40488147  0.00433094  1
  Nb  Nb144  1  0.60089785  0.39805078  0.40155935  1
  Nb  Nb145  1  0.39516858  0.20202899  0.00661501  1
  Nb  Nb146  1  0.60055969  -0.00952940  0.60588168  1
  Nb  Nb147  1  0.80542964  0.59956602  0.00092738  1
  Nb  Nb148  1  0.20907668  0.20720424  0.00441360  1
  Nb  Nb149  1  0.60333724  0.80652099  0.60077243  1
  Pd  Pd150  1  0.59999225  0.59934073  0.60254587  1
  Pd  Pd151  1  0.00895416  0.79330172  0.19598678  1
  Pd  Pd152  1  -0.00583378  0.61383311  0.59663464  1
  Pd  Pd153  1  0.19481869  0.00919073  0.58626654  1
  Pd  Pd154  1  0.00378629  0.21102792  0.60395373  1
  Pd  Pd155  1  0.60373996  0.80324057  0.40471837  1
  Pd  Pd156  1  0.40453722  0.19484852  0.80650744  1
  Pd  Pd157  1  0.39028952  0.59835775  0.58937570  1
  Pd  Pd158  1  0.79857155  0.20402047  -0.00103159  1
  Pd  Pd159  1  0.80581115  0.00235645  0.80201159  1
  Pd  Pd160  1  0.60297546  0.80707283  0.00187003  1
  Pd  Pd161  1  0.59588132  0.19067183  0.60849061  1
  Pd  Pd162  1  0.00331780  0.00267487  -0.00504257  1
  Pd  Pd163  1  0.40142831  0.60532502  0.80011724  1
  Pd  Pd164  1  0.00481691  0.79309026  0.40895152  1
  Pd  Pd165  1  0.81359917  -0.00493092  0.38672612  1
  Pd  Pd166  1  0.19752546  0.60151991  0.20486799  1
  Pd  Pd167  1  0.59153557  0.20719482  0.39384666  1
  Pd  Pd168  1  0.80138134  0.79285495  0.00344365  1
  Pd  Pd169  1  0.61141375  -0.01212236  0.00301164  1
  Pd  Pd170  1  0.78572651  -0.00810777  0.60119074  1
  Pd  Pd171  1  0.40735163  0.80685306  0.20403551  1
  Pd  Pd172  1  0.20767389  0.39351191  0.60670067  1
  Pd  Pd173  1  0.00983227  0.20018572  -0.00221520  1
  Pd  Pd174  1  -0.00828991  -0.00249747  0.20796001  1
  Pd  Pd175  1  0.60310191  0.01166443  0.79518359  1
  Pd  Pd176  1  0.59518471  0.20153764  0.79082896  1
  Pd  Pd177  1  0.19338692  0.20693352  0.80177049  1
  Pd  Pd178  1  -0.01174481  0.80029915  0.60630551  1
  Pd  Pd179  1  0.39238056  0.39625947  0.59556108  1
  Pd  Pd180  1  0.60108885  0.39883722  0.21473656  1
  Pd  Pd181  1  0.19875251  0.19181661  0.41106196  1
  Pd  Pd182  1  0.79277374  -0.00373765  0.00485040  1
  Pd  Pd183  1  0.00174218  -0.00396422  0.39623464  1
  Pd  Pd184  1  0.01060713  0.40690381  0.80414944  1
  Pd  Pd185  1  0.19708722  0.59534026  0.39402430  1
  Pd  Pd186  1  0.39406251  0.81117716  0.38708040  1
  Pd  Pd187  1  0.39182714  0.59323979  0.40090850  1
  Pd  Pd188  1  0.01063205  0.60652494  0.20867815  1
  Pd  Pd189  1  0.79785436  0.60809630  0.19754866  1
  Pd  Pd190  1  0.00408052  0.39658557  0.19859963  1
  Pd  Pd191  1  0.59474112  0.20287438  0.20786557  1
  Pd  Pd192  1  -0.00959294  0.39517987  0.59412991  1
  Pd  Pd193  1  0.79448979  0.40488827  0.40304221  1
  Pd  Pd194  1  0.20571236  0.00328721  0.20102043  1
  Pd  Pd195  1  0.59732235  0.39411280  -0.00579468  1
  Pd  Pd196  1  0.40896612  0.20105870  0.19851880  1
  Pd  Pd197  1  0.79965219  0.18541493  0.21003130  1
  Pd  Pd198  1  0.00720605  0.79883489  -0.00104236  1
  Pd  Pd199  1  0.39899838  -0.00836529  0.81045455  1
  Rh  Rh200  1  0.00131413  0.20410556  0.40401784  1
  Rh  Rh201  1  0.20684272  0.79858438  0.59944180  1
  Rh  Rh202  1  -0.00035848  0.19916777  0.20350156  1
  Rh  Rh203  1  0.79677966  0.80087587  0.40381635  1
  Rh  Rh204  1  0.39965109  0.00439618  -0.00195516  1
  Rh  Rh205  1  0.79872106  0.19578100  0.39937638  1
  Rh  Rh206  1  0.19299910  0.39971444  0.20482473  1
  Rh  Rh207  1  0.40030471  0.79883021  0.60520304  1
  Rh  Rh208  1  0.59360544  0.20312411  0.00303211  1
  Rh  Rh209  1  0.20344652  0.00845696  0.01093637  1
  Rh  Rh210  1  0.78468589  0.40313509  0.80153871  1
  Rh  Rh211  1  -0.00700620  0.59688646  -0.00717336  1
  Rh  Rh212  1  0.20781259  0.80425608  0.79578592  1
  Rh  Rh213  1  0.00294111  -0.00643973  0.60507904  1
  Rh  Rh214  1  0.59719112  0.60091356  -0.00369048  1
  Rh  Rh215  1  0.38933115  0.20230001  0.60088895  1
  Rh  Rh216  1  0.58431736  -0.00041178  0.41229943  1
  Rh  Rh217  1  0.19620550  0.79738055  0.19285865  1
  Rh  Rh218  1  0.60142485  0.60506467  0.20866892  1
  Rh  Rh219  1  0.19606284  0.59535839  0.78887353  1
  Rh  Rh220  1  0.80436333  0.79562041  0.19682309  1
  Rh  Rh221  1  0.19636135  -0.00718300  0.80031053  1
  Rh  Rh222  1  0.58937319  0.78877820  0.79640131  1
  Rh  Rh223  1  0.39985370  0.79303516  -0.00582575  1
  Rh  Rh224  1  0.39987495  0.39712154  0.79899182  1
  Rh  Rh225  1  0.19828525  0.19905692  0.19671983  1
  Rh  Rh226  1  0.20526213  0.60037058  0.59597049  1
  Rh  Rh227  1  0.40490130  0.40659041  0.19656374  1
  Rh  Rh228  1  0.80223885  0.60861949  0.59236143  1
  Rh  Rh229  1  0.39628415  -0.00327060  0.20489386  1
  Rh  Rh230  1  0.40630912  0.00021788  0.58833279  1
  Rh  Rh231  1  0.60835965  -0.00688931  0.18756123  1
  Rh  Rh232  1  -0.00188595  0.40754801  0.39841804  1
  Rh  Rh233  1  0.80417803  0.39965385  0.59267715  1
  Rh  Rh234  1  0.21403232  0.59650730  0.01044879  1
  Rh  Rh235  1  0.80710832  0.59975266  0.39814689  1
  Rh  Rh236  1  0.79926460  0.20541697  0.59851539  1
  Rh  Rh237  1  0.81179453  0.80643731  0.79490301  1
  Rh  Rh238  1  0.20531582  0.80882097  0.39998225  1
  Rh  Rh239  1  0.59900393  0.59153131  0.39930189  1
  Rh  Rh240  1  0.79969870  0.40197835  0.19833869  1
  Rh  Rh241  1  0.59602160  0.79919211  0.19821643  1
  Rh  Rh242  1  0.59816234  0.40102937  0.59900903  1
  Rh  Rh243  1  0.40172492  0.39990208  0.40153417  1
  Rh  Rh244  1  0.79907765  0.59868395  0.80436369  1
  Rh  Rh245  1  0.39868495  0.19451017  0.39771790  1
  Rh  Rh246  1  0.19846324  0.79817970  0.01054796  1
  Rh  Rh247  1  0.80859078  0.19301801  0.80114847  1
  Rh  Rh248  1  0.20154993  0.40005586  0.39088107  1
  Rh  Rh249  1  0.40107772  0.59952710  0.19711051  1
