# generated using pymatgen
data_ZrScNbPdRh
_symmetry_space_group_name_H-M   'P 1'
_cell_length_a   16.55889623
_cell_length_b   16.56308262
_cell_length_c   16.56370946
_cell_angle_alpha   90.03361549
_cell_angle_beta   90.00717689
_cell_angle_gamma   90.00911392
_symmetry_Int_Tables_number   1
_chemical_formula_structural   ZrScNbPdRh
_chemical_formula_sum   'Zr50 Sc50 Nb50 Pd50 Rh50'
_cell_volume   4542.86753107
_cell_formula_units_Z   50
loop_
 _symmetry_equiv_pos_site_id
 _symmetry_equiv_pos_as_xyz
  1  'x, y, z'
loop_
 _atom_site_type_symbol
 _atom_site_label
 _atom_site_symmetry_multiplicity
 _atom_site_fract_x
 _atom_site_fract_y
 _atom_site_fract_z
 _atom_site_occupancy
  Zr  Zr0  1  0.09597479  0.31205036  0.10209910  1
  Zr  Zr1  1  0.89689880  0.31392257  0.30984424  1
  Zr  Zr2  1  0.90781017  0.90713889  0.30346721  1
  Zr  Zr3  1  0.30100104  0.30709671  0.10108626  1
  Zr  Zr4  1  0.29661175  0.49848304  0.50518033  1
  Zr  Zr5  1  0.89849353  0.49667439  0.90568095  1
  Zr  Zr6  1  0.89625771  0.70683355  0.50870613  1
  Zr  Zr7  1  0.69467448  0.91565884  0.29599715  1
  Zr  Zr8  1  0.30781277  0.10962330  0.89543590  1
  Zr  Zr9  1  0.08584716  0.30406367  0.50589925  1
  Zr  Zr10  1  0.30053961  0.89846534  0.69803015  1
  Zr  Zr11  1  0.09502961  0.30335743  0.29887065  1
  Zr  Zr12  1  0.09669717  0.10892219  0.70161136  1
  Zr  Zr13  1  0.69858348  0.70136571  0.51185672  1
  Zr  Zr14  1  0.89925162  0.09484796  0.90112045  1
  Zr  Zr15  1  0.70257077  0.09595059  0.10604335  1
  Zr  Zr16  1  0.29876878  0.48893639  0.30270763  1
  Zr  Zr17  1  0.50213224  0.69245408  0.09749603  1
  Zr  Zr18  1  0.69392241  0.29384878  0.10533555  1
  Zr  Zr19  1  0.30673132  0.49773634  0.90119635  1
  Zr  Zr20  1  0.90360923  0.70237968  0.29990606  1
  Zr  Zr21  1  0.30690102  0.09511719  0.09170069  1
  Zr  Zr22  1  0.29568985  0.10247125  0.70264491  1
  Zr  Zr23  1  0.10604699  0.69084568  0.10060921  1
  Zr  Zr24  1  0.70658306  0.70382907  0.90043418  1
  Zr  Zr25  1  0.70330082  0.10628157  0.70370257  1
  Zr  Zr26  1  0.09995548  0.89993289  0.31185722  1
  Zr  Zr27  1  0.10165997  0.70682022  0.71021179  1
  Zr  Zr28  1  0.89605740  0.09708944  0.69908251  1
  Zr  Zr29  1  0.70209994  0.49667741  0.89135350  1
  Zr  Zr30  1  0.69968958  0.89453946  0.89647196  1
  Zr  Zr31  1  0.70588199  0.69183056  0.69683231  1
  Zr  Zr32  1  0.10097679  0.90374704  0.09371319  1
  Zr  Zr33  1  0.49656684  0.90415120  0.09559122  1
  Zr  Zr34  1  0.10107853  0.90323138  0.70240624  1
  Zr  Zr35  1  0.50743455  0.90328212  0.70664208  1
  Zr  Zr36  1  0.29528011  0.89753737  0.48913059  1
  Zr  Zr37  1  0.90110104  0.90397888  0.50402933  1
  Zr  Zr38  1  0.10396097  0.49870484  0.50616167  1
  Zr  Zr39  1  0.30066262  0.70143911  0.50801267  1
  Zr  Zr40  1  0.49957194  0.69598428  0.29366126  1
  Zr  Zr41  1  0.90331975  0.89294515  0.70035847  1
  Zr  Zr42  1  0.49689849  0.50014606  0.89159213  1
  Zr  Zr43  1  0.89988915  0.69359103  0.89020587  1
  Zr  Zr44  1  0.89677492  0.91683907  0.09233669  1
  Zr  Zr45  1  0.30366798  0.09723265  0.30304042  1
  Zr  Zr46  1  0.90324235  0.28862730  0.70306842  1
  Zr  Zr47  1  0.91129007  0.49730125  0.10049388  1
  Zr  Zr48  1  0.50326049  0.69956000  0.50563735  1
  Zr  Zr49  1  0.49872889  0.29057649  0.50288288  1
  Sc  Sc50  1  0.10314811  0.49101922  0.70664588  1
  Sc  Sc51  1  0.69780430  0.29463095  0.49765556  1
  Sc  Sc52  1  0.89438347  0.68789427  0.09377973  1
  Sc  Sc53  1  0.10067708  0.29979792  0.70209330  1
  Sc  Sc54  1  0.49803722  0.48257012  0.50282752  1
  Sc  Sc55  1  0.49790166  0.29734992  0.10518763  1
  Sc  Sc56  1  0.10335017  0.70104960  0.30240520  1
  Sc  Sc57  1  0.50615159  0.49553752  0.29028708  1
  Sc  Sc58  1  0.70088137  0.49058918  0.29409503  1
  Sc  Sc59  1  0.51320808  0.69887967  0.70182819  1
  Sc  Sc60  1  0.70024947  0.10548062  0.29524996  1
  Sc  Sc61  1  0.50599714  0.09911368  0.30263559  1
  Sc  Sc62  1  0.09502383  0.49665865  0.89865333  1
  Sc  Sc63  1  0.30613111  0.30744868  0.50108811  1
  Sc  Sc64  1  0.48904697  0.90423507  0.29903137  1
  Sc  Sc65  1  0.08106295  0.10093434  0.09652816  1
  Sc  Sc66  1  0.50319092  0.30019351  0.69560319  1
  Sc  Sc67  1  0.89857627  0.50647593  0.71553114  1
  Sc  Sc68  1  0.31115965  0.10677509  0.50258458  1
  Sc  Sc69  1  0.70058293  0.30051819  0.29622666  1
  Sc  Sc70  1  0.50156149  0.10660581  0.09823566  1
  Sc  Sc71  1  0.69876027  0.69822328  0.09026633  1
  Sc  Sc72  1  0.90466438  0.30124740  0.10300913  1
  Sc  Sc73  1  0.29375932  0.29643261  0.70348790  1
  Sc  Sc74  1  0.70117439  0.89574288  0.70395768  1
  Sc  Sc75  1  0.49372989  0.89590658  0.50489893  1
  Sc  Sc76  1  0.69795010  0.49742901  0.50647779  1
  Sc  Sc77  1  0.10124305  0.90033930  0.89436841  1
  Sc  Sc78  1  0.49949982  0.30295403  0.29968030  1
  Sc  Sc79  1  0.09323697  0.10407738  0.49790814  1
  Sc  Sc80  1  0.09526253  0.30276221  0.89241225  1
  Sc  Sc81  1  0.70277284  0.10155237  0.49726687  1
  Sc  Sc82  1  0.49280536  0.10427186  0.70394730  1
  Sc  Sc83  1  0.70132107  0.49999978  0.10088390  1
  Sc  Sc84  1  0.70204188  0.90114165  0.08923227  1
  Sc  Sc85  1  0.90048494  0.48590976  0.49900786  1
  Sc  Sc86  1  0.10078416  0.10042992  0.89367535  1
  Sc  Sc87  1  0.30078007  0.70007362  0.29850020  1
  Sc  Sc88  1  0.89475940  0.10382680  0.29172316  1
  Sc  Sc89  1  0.10891097  0.70729904  0.49691998  1
  Sc  Sc90  1  0.29824104  0.49539664  0.70892479  1
  Sc  Sc91  1  0.50877093  0.69288320  0.90189870  1
  Sc  Sc92  1  0.08694257  0.09498652  0.30099431  1
  Sc  Sc93  1  0.10816841  0.70283138  0.89614589  1
  Sc  Sc94  1  0.69924673  0.69203728  0.28990347  1
  Sc  Sc95  1  0.89408541  0.10393023  0.50512353  1
  Sc  Sc96  1  0.29222243  0.91347501  0.90374475  1
  Sc  Sc97  1  0.69950319  0.29593047  0.89082179  1
  Sc  Sc98  1  0.30128581  0.68929017  0.09564651  1
  Sc  Sc99  1  0.10354436  0.49986609  0.29613296  1
  Nb  Nb100  1  0.29173529  0.50028791  0.09964321  1
  Nb  Nb101  1  0.29663059  0.90246412  0.29526367  1
  Nb  Nb102  1  0.69614355  0.10099597  0.89552310  1
  Nb  Nb103  1  0.50715629  0.89771228  0.89696581  1
  Nb  Nb104  1  0.50816585  0.50417798  0.70360283  1
  Nb  Nb105  1  0.30746480  0.69680328  0.89308740  1
  Nb  Nb106  1  0.69100963  0.49480300  0.70230500  1
  Nb  Nb107  1  0.49777736  0.50361909  0.09332748  1
  Nb  Nb108  1  0.89967153  0.30238116  0.90284699  1
  Nb  Nb109  1  0.09852925  0.90376094  0.49447398  1
  Nb  Nb110  1  0.89721738  0.30372646  0.50368538  1
  Nb  Nb111  1  0.89280399  0.89248067  0.90336414  1
  Nb  Nb112  1  0.29666313  0.29842613  0.29711157  1
  Nb  Nb113  1  0.30072743  0.90309218  0.09757666  1
  Nb  Nb114  1  0.50565095  0.10564160  0.50907982  1
  Nb  Nb115  1  0.70068511  0.90166785  0.50149624  1
  Nb  Nb116  1  0.70506119  0.29702975  0.69915084  1
  Nb  Nb117  1  0.89368100  0.10053730  0.09487104  1
  Nb  Nb118  1  0.30246199  0.29964735  0.90141975  1
  Nb  Nb119  1  0.49942575  0.10118475  0.89844246  1
  Nb  Nb120  1  0.30034040  0.69933970  0.70907056  1
  Nb  Nb121  1  0.10988069  0.49982713  0.10170579  1
  Nb  Nb122  1  0.48973552  0.29028084  0.90489001  1
  Nb  Nb123  1  0.90290694  0.69927847  0.69908152  1
  Nb  Nb124  1  0.89662261  0.50329093  0.30547075  1
  Nb  Nb125  1  0.00086997  0.60369417  0.60211030  1
  Nb  Nb126  1  0.19730541  -0.00116431  0.59480401  1
  Nb  Nb127  1  0.59306510  0.39738608  -0.00473821  1
  Nb  Nb128  1  0.40035765  0.79873151  0.80671031  1
  Nb  Nb129  1  0.40061536  0.59792053  0.60556969  1
  Nb  Nb130  1  0.00062964  0.80209358  0.19104458  1
  Nb  Nb131  1  0.39746574  0.80134576  -0.00619777  1
  Nb  Nb132  1  0.80190418  0.80537272  0.20181115  1
  Nb  Nb133  1  0.40316340  0.59565429  0.40612877  1
  Nb  Nb134  1  0.60047290  0.00373249  0.59913902  1
  Nb  Nb135  1  0.20266827  0.80964236  0.19590140  1
  Nb  Nb136  1  0.80112921  0.19631689  -0.00108593  1
  Nb  Nb137  1  0.59788984  0.00546760  -0.01200621  1
  Nb  Nb138  1  0.60495477  0.79928688  0.39570788  1
  Nb  Nb139  1  -0.00372062  0.79977946  0.00028103  1
  Nb  Nb140  1  0.20036282  0.19765251  0.19917584  1
  Nb  Nb141  1  0.79237427  0.80182559  0.39684819  1
  Nb  Nb142  1  0.20247827  -0.00017132  0.19902044  1
  Nb  Nb143  1  0.59959830  0.60170639  0.40143096  1
  Nb  Nb144  1  0.20026546  0.20569927  0.39307819  1
  Nb  Nb145  1  0.20154226  0.20622732  0.00370071  1
  Nb  Nb146  1  0.80041870  0.60098300  0.40196776  1
  Nb  Nb147  1  0.60122965  0.80358512  0.20029692  1
  Nb  Nb148  1  -0.00488162  0.59854510  0.40591258  1
  Nb  Nb149  1  0.79778328  0.39352484  0.60917219  1
  Pd  Pd150  1  0.60713162  0.58944038  -0.00445445  1
  Pd  Pd151  1  0.80059537  0.20212074  0.39914985  1
  Pd  Pd152  1  0.19897714  0.01358084  0.40338644  1
  Pd  Pd153  1  0.60248140  0.20152446  0.39506123  1
  Pd  Pd154  1  0.40542229  0.79151486  0.61452702  1
  Pd  Pd155  1  0.20451785  0.79630012  -0.00145262  1
  Pd  Pd156  1  0.40348011  0.40515251  0.19755087  1
  Pd  Pd157  1  0.60398113  0.20056304  -0.00260287  1
  Pd  Pd158  1  0.00697491  0.60344064  -0.00634574  1
  Pd  Pd159  1  0.80954163  0.58296797  0.59913696  1
  Pd  Pd160  1  0.79195775  0.39022780  0.00525567  1
  Pd  Pd161  1  0.79797305  0.59906940  0.19985560  1
  Pd  Pd162  1  0.19832501  0.60048914  0.61462861  1
  Pd  Pd163  1  0.20234014  0.60320295  0.39549247  1
  Pd  Pd164  1  0.39874418  -0.00516985  0.80553816  1
  Pd  Pd165  1  0.01177810  0.79638660  0.59682147  1
  Pd  Pd166  1  0.59039844  -0.00383414  0.41147682  1
  Pd  Pd167  1  -0.00538589  0.19824306  0.40016529  1
  Pd  Pd168  1  -0.00348587  -0.00348868  0.80463763  1
  Pd  Pd169  1  0.39749502  0.79845415  0.18989748  1
  Pd  Pd170  1  0.39271583  0.58881687  0.20316412  1
  Pd  Pd171  1  0.80438802  0.39582008  0.79433506  1
  Pd  Pd172  1  0.19113959  0.01421643  0.00171355  1
  Pd  Pd173  1  0.40032907  0.19709199  0.20218461  1
  Pd  Pd174  1  0.60545705  0.39400014  0.60023280  1
  Pd  Pd175  1  0.00537569  0.60032868  0.20658606  1
  Pd  Pd176  1  0.00564046  0.00488604  0.59764483  1
  Pd  Pd177  1  -0.00978706  0.40821120  0.61556319  1
  Pd  Pd178  1  0.20042407  0.19974705  0.58733424  1
  Pd  Pd179  1  0.80326251  0.39862681  0.19389350  1
  Pd  Pd180  1  0.19487551  0.39739424  -0.00850251  1
  Pd  Pd181  1  0.59185001  0.38737991  0.80498135  1
  Pd  Pd182  1  0.40746531  0.00109394  0.40733685  1
  Pd  Pd183  1  -0.00028604  0.20512223  -0.00562622  1
  Pd  Pd184  1  0.40283880  0.39121846  0.79322307  1
  Pd  Pd185  1  0.39962008  0.20376184  0.39716738  1
  Pd  Pd186  1  0.19708643  0.59203792  0.80387341  1
  Pd  Pd187  1  0.79961009  -0.00576441  0.79937570  1
  Pd  Pd188  1  0.39698181  0.40279813  0.61324476  1
  Pd  Pd189  1  0.19492020  0.80573065  0.60040003  1
  Pd  Pd190  1  0.40059031  0.00217392  0.59668699  1
  Pd  Pd191  1  0.80315977  0.00287032  0.39929709  1
  Pd  Pd192  1  0.40605198  0.40089709  0.00384661  1
  Pd  Pd193  1  0.40210177  0.00655586  0.20024874  1
  Pd  Pd194  1  0.60319456  0.40212266  0.39947722  1
  Pd  Pd195  1  0.20289251  0.59627595  -0.01034996  1
  Pd  Pd196  1  0.59204737  0.20455767  0.79591059  1
  Pd  Pd197  1  -0.00366820  0.20114219  0.20102949  1
  Pd  Pd198  1  0.40236599  0.79464750  0.39508002  1
  Pd  Pd199  1  0.19466118  0.39171519  0.40560965  1
  Rh  Rh200  1  -0.00107352  0.41048590  0.20625552  1
  Rh  Rh201  1  0.60102806  0.79004792  0.79982637  1
  Rh  Rh202  1  0.59019894  0.58550315  0.59345841  1
  Rh  Rh203  1  0.59193371  0.80598947  0.00639707  1
  Rh  Rh204  1  0.78835760  0.00875108  -0.00979909  1
  Rh  Rh205  1  0.60111914  0.00811438  0.79818862  1
  Rh  Rh206  1  0.00071944  -0.00091130  0.19842141  1
  Rh  Rh207  1  0.00168474  -0.00590922  -0.01227138  1
  Rh  Rh208  1  0.81058737  0.79558196  0.00813376  1
  Rh  Rh209  1  0.59588881  0.19863976  0.20752460  1
  Rh  Rh210  1  0.19932220  0.20527216  0.81082130  1
  Rh  Rh211  1  0.60257844  0.59918048  0.19789676  1
  Rh  Rh212  1  0.40991859  -0.00382742  -0.01063889  1
  Rh  Rh213  1  0.79664253  0.80820094  0.60401645  1
  Rh  Rh214  1  0.20581152  0.60126574  0.20428322  1
  Rh  Rh215  1  0.80216884  0.79575083  0.79267212  1
  Rh  Rh216  1  0.59461665  -0.00167675  0.18854328  1
  Rh  Rh217  1  0.79175755  -0.00192897  0.60497566  1
  Rh  Rh218  1  -0.00290997  0.79476584  0.40312931  1
  Rh  Rh219  1  0.80232630  -0.00126736  0.20185616  1
  Rh  Rh220  1  -0.00901102  0.00947976  0.40798431  1
  Rh  Rh221  1  0.59535156  0.40136655  0.18703139  1
  Rh  Rh222  1  0.80546070  0.20687942  0.19426211  1
  Rh  Rh223  1  0.00349935  0.40924308  0.39700070  1
  Rh  Rh224  1  0.60267736  0.81418863  0.59954239  1
  Rh  Rh225  1  -0.00532418  0.80169111  0.80889572  1
  Rh  Rh226  1  0.40790802  0.60616276  0.79111798  1
  Rh  Rh227  1  0.21273504  0.80577225  0.80592041  1
  Rh  Rh228  1  0.39790669  0.20425286  0.60495828  1
  Rh  Rh229  1  0.20503730  0.79686973  0.39313246  1
  Rh  Rh230  1  -0.00662662  0.39684804  0.80127690  1
  Rh  Rh231  1  -0.00383292  0.20012789  0.80502083  1
  Rh  Rh232  1  0.39710349  0.60000032  -0.00122685  1
  Rh  Rh233  1  0.20041499  0.39344420  0.60280098  1
  Rh  Rh234  1  0.79784432  0.59273767  -0.00254128  1
  Rh  Rh235  1  0.40325715  0.39990449  0.39517733  1
  Rh  Rh236  1  0.40242449  0.20665124  0.79490350  1
  Rh  Rh237  1  0.20011889  0.00414702  0.79237966  1
  Rh  Rh238  1  -0.00413247  0.19749039  0.59917077  1
  Rh  Rh239  1  0.79495746  0.59912858  0.79824701  1
  Rh  Rh240  1  0.20392307  0.39680189  0.80700833  1
  Rh  Rh241  1  0.20035137  0.39979132  0.19940302  1
  Rh  Rh242  1  0.80655587  0.20114078  0.80989047  1
  Rh  Rh243  1  0.60733240  0.60359302  0.80246513  1
  Rh  Rh244  1  0.00747280  0.60106278  0.79497205  1
  Rh  Rh245  1  0.79177234  0.40328704  0.40841214  1
  Rh  Rh246  1  0.39640887  0.20253699  0.00333434  1
  Rh  Rh247  1  0.00403366  0.40230405  -0.00142669  1
  Rh  Rh248  1  0.79801029  0.20617532  0.59450175  1
  Rh  Rh249  1  0.60418621  0.19381090  0.60419695  1
