# generated using pymatgen
data_ZrScNbPdRh
_symmetry_space_group_name_H-M   'P 1'
_cell_length_a   16.56176760
_cell_length_b   16.56797537
_cell_length_c   16.56086709
_cell_angle_alpha   89.99150763
_cell_angle_beta   90.03323050
_cell_angle_gamma   89.97280286
_symmetry_Int_Tables_number   1
_chemical_formula_structural   ZrScNbPdRh
_chemical_formula_sum   'Zr50 Sc50 Nb50 Pd50 Rh50'
_cell_volume   4544.21709686
_cell_formula_units_Z   50
loop_
 _symmetry_equiv_pos_site_id
 _symmetry_equiv_pos_as_xyz
  1  'x, y, z'
loop_
 _atom_site_type_symbol
 _atom_site_label
 _atom_site_symmetry_multiplicity
 _atom_site_fract_x
 _atom_site_fract_y
 _atom_site_fract_z
 _atom_site_occupancy
  Zr  Zr0  1  0.30509644  0.89250548  0.70348797  1
  Zr  Zr1  1  0.70594668  0.70188286  0.70446966  1
  Zr  Zr2  1  0.89670475  0.10436528  0.90666424  1
  Zr  Zr3  1  0.29910272  0.70809811  0.88658128  1
  Zr  Zr4  1  0.49721507  0.89502101  0.49958788  1
  Zr  Zr5  1  0.69658383  0.69617651  0.10013594  1
  Zr  Zr6  1  0.89851525  0.28565722  0.69620319  1
  Zr  Zr7  1  0.69707494  0.30498154  0.29653440  1
  Zr  Zr8  1  0.30691430  0.29940761  0.10790745  1
  Zr  Zr9  1  0.50402127  0.30386212  0.49709067  1
  Zr  Zr10  1  0.09317775  0.70321361  0.49171376  1
  Zr  Zr11  1  0.50219921  0.30028606  0.09826592  1
  Zr  Zr12  1  0.89786204  0.89403936  0.70099109  1
  Zr  Zr13  1  0.70531849  0.29913665  0.70508258  1
  Zr  Zr14  1  0.89993837  0.49543824  0.90022689  1
  Zr  Zr15  1  0.69772845  0.50513278  0.70300382  1
  Zr  Zr16  1  0.89960057  0.50341494  0.29834892  1
  Zr  Zr17  1  0.09143992  0.50194085  0.90265023  1
  Zr  Zr18  1  0.10027533  0.50505949  0.09796264  1
  Zr  Zr19  1  0.69743168  0.50161087  0.50260290  1
  Zr  Zr20  1  0.10238145  0.90224608  0.10627650  1
  Zr  Zr21  1  0.30194907  0.50045055  0.70127256  1
  Zr  Zr22  1  0.50116251  0.69587613  0.70045497  1
  Zr  Zr23  1  0.70173415  0.89744058  0.29714634  1
  Zr  Zr24  1  0.49118642  0.89882990  0.09576698  1
  Zr  Zr25  1  0.10500759  0.70282041  0.09928571  1
  Zr  Zr26  1  0.09825760  0.30420298  0.30387171  1
  Zr  Zr27  1  0.10556816  0.89313500  0.90990799  1
  Zr  Zr28  1  0.51197386  0.49684686  0.89650478  1
  Zr  Zr29  1  0.30937239  0.90472852  0.90376546  1
  Zr  Zr30  1  0.30181614  0.28909214  0.90190052  1
  Zr  Zr31  1  0.30218873  0.70421494  0.10600038  1
  Zr  Zr32  1  0.09878008  0.30369207  0.50668752  1
  Zr  Zr33  1  0.09972774  0.49295474  0.69534389  1
  Zr  Zr34  1  0.70048138  0.90061254  0.50127531  1
  Zr  Zr35  1  0.29589969  0.90199432  0.28929823  1
  Zr  Zr36  1  0.50093508  0.70507502  0.50167883  1
  Zr  Zr37  1  0.90162302  0.29349313  0.09864714  1
  Zr  Zr38  1  0.50313496  0.29592791  0.90298080  1
  Zr  Zr39  1  0.29504887  0.10497923  0.69626869  1
  Zr  Zr40  1  0.89522840  0.50144285  0.49753626  1
  Zr  Zr41  1  0.89772433  0.90194409  0.30067263  1
  Zr  Zr42  1  0.30465797  0.10118641  0.89485484  1
  Zr  Zr43  1  0.50915830  0.10480413  0.10537810  1
  Zr  Zr44  1  0.89949649  0.69921263  0.69134255  1
  Zr  Zr45  1  0.30329687  0.50458387  0.11496378  1
  Zr  Zr46  1  0.29903646  0.30334080  0.49601323  1
  Zr  Zr47  1  0.10132823  0.69741989  0.90713317  1
  Zr  Zr48  1  0.10669899  0.09516498  0.51125631  1
  Zr  Zr49  1  0.09945094  0.90434273  0.30399082  1
  Sc  Sc50  1  0.70243421  0.31532668  0.50370565  1
  Sc  Sc51  1  0.69565444  0.30145156  0.89918100  1
  Sc  Sc52  1  0.30281766  0.09902685  0.09882200  1
  Sc  Sc53  1  0.89948340  0.89724028  0.91100783  1
  Sc  Sc54  1  0.90402422  0.90333133  0.50489788  1
  Sc  Sc55  1  0.50208993  0.90491361  0.69710809  1
  Sc  Sc56  1  0.10062618  0.48780631  0.49416087  1
  Sc  Sc57  1  0.89861566  0.50418736  0.70967020  1
  Sc  Sc58  1  0.49491641  0.89774865  0.29443957  1
  Sc  Sc59  1  0.49004361  0.29757985  0.30012634  1
  Sc  Sc60  1  0.69957191  0.29152677  0.10081562  1
  Sc  Sc61  1  0.09757730  0.50122589  0.29549146  1
  Sc  Sc62  1  0.49378393  0.09726795  0.70375514  1
  Sc  Sc63  1  0.49324575  0.10135435  0.50775028  1
  Sc  Sc64  1  0.29581391  0.90120683  0.09913820  1
  Sc  Sc65  1  0.70018159  0.49918700  0.30081761  1
  Sc  Sc66  1  0.10588451  0.09675545  0.29983306  1
  Sc  Sc67  1  0.50182453  0.30439527  0.70476647  1
  Sc  Sc68  1  0.90272369  0.09218219  0.30192039  1
  Sc  Sc69  1  0.30048281  0.89993144  0.49726062  1
  Sc  Sc70  1  0.09156222  0.90037904  0.68677196  1
  Sc  Sc71  1  0.50425164  0.49836997  0.70330337  1
  Sc  Sc72  1  0.70043659  0.69389123  0.51197483  1
  Sc  Sc73  1  0.30546658  0.70389713  0.48707333  1
  Sc  Sc74  1  0.69842424  0.69673286  0.29811317  1
  Sc  Sc75  1  0.49237860  0.69991565  0.30003494  1
  Sc  Sc76  1  0.90265861  0.48539878  0.10081265  1
  Sc  Sc77  1  0.69250292  0.70551546  0.89363963  1
  Sc  Sc78  1  0.90564471  0.70059556  0.88872210  1
  Sc  Sc79  1  0.49433429  0.10169710  0.89992357  1
  Sc  Sc80  1  0.30434787  0.51292426  0.89151047  1
  Sc  Sc81  1  0.10501335  0.10990585  0.90460243  1
  Sc  Sc82  1  0.08985464  0.69873064  0.70387388  1
  Sc  Sc83  1  0.71190015  0.88962345  0.08982398  1
  Sc  Sc84  1  0.89846504  0.30422332  0.89943530  1
  Sc  Sc85  1  0.49300879  0.50110935  0.29843103  1
  Sc  Sc86  1  0.50050883  0.49041803  0.50194254  1
  Sc  Sc87  1  0.29882767  0.29754485  0.69814184  1
  Sc  Sc88  1  0.69710190  0.10069894  0.28621211  1
  Sc  Sc89  1  0.69038785  0.49867636  0.09619551  1
  Sc  Sc90  1  0.89477920  0.71457637  0.09564676  1
  Sc  Sc91  1  0.29892993  0.70003171  0.29979038  1
  Sc  Sc92  1  0.70981606  0.08784712  0.50207743  1
  Sc  Sc93  1  0.10018608  0.29026244  0.69592083  1
  Sc  Sc94  1  0.89903701  0.31234609  0.28918373  1
  Sc  Sc95  1  0.09405959  0.29693131  0.90658006  1
  Sc  Sc96  1  0.09792978  0.29753444  0.10630989  1
  Sc  Sc97  1  0.89840665  0.09332758  0.50942342  1
  Sc  Sc98  1  0.30143446  0.29828963  0.30240625  1
  Sc  Sc99  1  0.09139526  0.10006494  0.10470683  1
  Nb  Nb100  1  0.50430222  0.69252452  0.10280661  1
  Nb  Nb101  1  0.90491990  0.90352317  0.10124451  1
  Nb  Nb102  1  0.89462543  0.09420327  0.09506451  1
  Nb  Nb103  1  0.70151645  0.09773081  0.90229027  1
  Nb  Nb104  1  0.30182200  0.49769921  0.30896586  1
  Nb  Nb105  1  0.70441265  0.09814317  0.09119960  1
  Nb  Nb106  1  0.10119158  0.89859267  0.50339083  1
  Nb  Nb107  1  0.50198577  0.10147296  0.29972133  1
  Nb  Nb108  1  0.29473593  0.49858080  0.49845224  1
  Nb  Nb109  1  0.50320243  0.90305864  0.90111423  1
  Nb  Nb110  1  0.09024264  0.70419683  0.29779438  1
  Nb  Nb111  1  0.30055088  0.69692729  0.69899236  1
  Nb  Nb112  1  0.49907615  0.70176519  0.90344459  1
  Nb  Nb113  1  0.69732993  0.90342108  0.89000245  1
  Nb  Nb114  1  0.90363939  0.29873286  0.49781334  1
  Nb  Nb115  1  0.70822927  0.09979665  0.70193708  1
  Nb  Nb116  1  0.89940981  0.69612048  0.30416506  1
  Nb  Nb117  1  0.70331725  0.90551620  0.70476988  1
  Nb  Nb118  1  0.50037667  0.50528954  0.10190868  1
  Nb  Nb119  1  0.89961267  0.09817743  0.70336991  1
  Nb  Nb120  1  0.89585931  0.69183384  0.49404461  1
  Nb  Nb121  1  0.09764243  0.09811333  0.70043425  1
  Nb  Nb122  1  0.70654062  0.49891667  0.89351878  1
  Nb  Nb123  1  0.30136998  0.10770891  0.49518912  1
  Nb  Nb124  1  0.30542809  0.10572290  0.30636304  1
  Nb  Nb125  1  0.60415023  0.19547662  0.40421711  1
  Nb  Nb126  1  0.59243308  0.40131109  0.19636621  1
  Nb  Nb127  1  0.19844249  0.39841857  0.80695511  1
  Nb  Nb128  1  0.79740905  0.59718238  -0.00294119  1
  Nb  Nb129  1  0.59368379  0.00442488  0.39668109  1
  Nb  Nb130  1  -0.00190669  0.80022504  0.20643994  1
  Nb  Nb131  1  0.59781632  0.79657316  0.19237870  1
  Nb  Nb132  1  0.40828217  0.60398540  0.00008544  1
  Nb  Nb133  1  0.60791169  0.19703303  0.60003642  1
  Nb  Nb134  1  0.20787518  0.40358706  -0.00163760  1
  Nb  Nb135  1  0.39934037  0.00865060  0.39638086  1
  Nb  Nb136  1  0.59855389  0.59920342  0.40373539  1
  Nb  Nb137  1  -0.00474509  0.20341495  0.40628027  1
  Nb  Nb138  1  0.20427539  0.60304265  0.59467582  1
  Nb  Nb139  1  0.80261223  -0.00052575  0.18695848  1
  Nb  Nb140  1  0.80127218  0.20304499  0.40091012  1
  Nb  Nb141  1  0.19388216  0.00022922  0.79628529  1
  Nb  Nb142  1  0.00076258  0.00479104  0.79970216  1
  Nb  Nb143  1  0.19997124  0.79265349  0.59749687  1
  Nb  Nb144  1  0.39241812  0.60027884  0.59890922  1
  Nb  Nb145  1  0.79947403  0.00266737  0.80179340  1
  Nb  Nb146  1  0.40024590  0.40903300  0.00264645  1
  Nb  Nb147  1  0.60583138  -0.00243189  -0.00525124  1
  Nb  Nb148  1  0.80224264  0.60191656  0.19514393  1
  Nb  Nb149  1  0.80425802  0.79216777  0.40230212  1
  Pd  Pd150  1  0.21471275  0.59774905  -0.00157336  1
  Pd  Pd151  1  -0.01579339  0.60601181  0.00763022  1
  Pd  Pd152  1  0.18728112  0.80740492  0.78891220  1
  Pd  Pd153  1  0.40674906  0.59333104  0.40722865  1
  Pd  Pd154  1  0.39627253  0.00711775  0.20101489  1
  Pd  Pd155  1  0.60524008  0.80332013  0.60975203  1
  Pd  Pd156  1  0.19879597  0.40009553  0.20141954  1
  Pd  Pd157  1  0.79152522  0.39998329  0.00441325  1
  Pd  Pd158  1  0.20843535  -0.00904359  0.60462948  1
  Pd  Pd159  1  0.59314782  0.80183457  0.79418580  1
  Pd  Pd160  1  0.00364542  0.38985585  0.79452016  1
  Pd  Pd161  1  0.20242749  0.19462888  0.20108831  1
  Pd  Pd162  1  0.39447676  0.39654752  0.80916878  1
  Pd  Pd163  1  0.39188010  -0.00018152  0.59488026  1
  Pd  Pd164  1  0.20776732  -0.00028671  0.40186605  1
  Pd  Pd165  1  0.80727803  0.19164690  0.20624790  1
  Pd  Pd166  1  0.19400975  0.59728547  0.39747536  1
  Pd  Pd167  1  0.18881860  0.59687017  0.79288584  1
  Pd  Pd168  1  0.39796667  0.40196298  0.59996769  1
  Pd  Pd169  1  0.79449082  0.19923652  0.58901581  1
  Pd  Pd170  1  0.00539653  0.59510396  0.59441597  1
  Pd  Pd171  1  0.00607914  0.59016815  0.40238572  1
  Pd  Pd172  1  0.60543834  0.79620614  0.39275694  1
  Pd  Pd173  1  0.59919690  0.19306484  0.79471524  1
  Pd  Pd174  1  0.60824797  -0.01186494  0.19134031  1
  Pd  Pd175  1  -0.00687365  0.19545407  0.20980205  1
  Pd  Pd176  1  0.19818981  0.20418629  0.01125353  1
  Pd  Pd177  1  0.60004517  0.00656949  0.59594057  1
  Pd  Pd178  1  0.80435599  0.39647700  0.39832095  1
  Pd  Pd179  1  -0.01054070  0.60861528  0.18880722  1
  Pd  Pd180  1  0.19973522  0.60384537  0.21308186  1
  Pd  Pd181  1  0.19836074  0.00728224  -0.00190244  1
  Pd  Pd182  1  0.59953267  0.80693590  0.00160096  1
  Pd  Pd183  1  0.00181271  0.19811852  0.80362087  1
  Pd  Pd184  1  -0.00883456  0.80540159  0.40140137  1
  Pd  Pd185  1  0.60002225  0.00852443  0.80219746  1
  Pd  Pd186  1  0.79628651  0.20938566  -0.00517235  1
  Pd  Pd187  1  0.00662691  0.00333883  -0.00539210  1
  Pd  Pd188  1  0.19053662  0.20248268  0.40272402  1
  Pd  Pd189  1  0.20204716  0.80257641  0.40007889  1
  Pd  Pd190  1  0.00278008  0.00852928  0.40900837  1
  Pd  Pd191  1  0.40705271  0.20712429  0.60377651  1
  Pd  Pd192  1  0.41352514  0.80364032  0.79801684  1
  Pd  Pd193  1  0.79822841  0.79144901  -0.01378677  1
  Pd  Pd194  1  0.80788763  0.40609023  0.60866715  1
  Pd  Pd195  1  0.60365508  0.59812672  -0.00945334  1
  Pd  Pd196  1  0.80063621  0.80169776  0.59199859  1
  Pd  Pd197  1  -0.01173856  0.40158967  0.60506317  1
  Pd  Pd198  1  0.39767852  0.79358366  0.00093215  1
  Pd  Pd199  1  0.00452206  0.80775862  0.80304509  1
  Rh  Rh200  1  0.20528177  0.40098881  0.60738167  1
  Rh  Rh201  1  0.40821816  0.00652398  0.00105675  1
  Rh  Rh202  1  0.79953856  0.19690978  0.80729998  1
  Rh  Rh203  1  0.20224388  0.39988704  0.39363564  1
  Rh  Rh204  1  -0.00376231  0.19961662  0.00364311  1
  Rh  Rh205  1  0.39850490  0.60370087  0.20286539  1
  Rh  Rh206  1  0.79546374  -0.00529321  -0.00204378  1
  Rh  Rh207  1  0.19715670  0.20056191  0.79713969  1
  Rh  Rh208  1  0.39955373  0.19489508  0.20070061  1
  Rh  Rh209  1  0.39614135  -0.00275908  0.79948547  1
  Rh  Rh210  1  0.39290394  0.79167924  0.60036948  1
  Rh  Rh211  1  0.78940792  0.00264187  0.38553771  1
  Rh  Rh212  1  0.00940627  0.39318679  0.00619236  1
  Rh  Rh213  1  0.40749144  0.19628062  0.40295816  1
  Rh  Rh214  1  0.20983794  0.79861202  0.00104805  1
  Rh  Rh215  1  -0.00393006  0.00236594  0.60393108  1
  Rh  Rh216  1  0.59365268  0.40120652  0.38760300  1
  Rh  Rh217  1  -0.00393369  -0.00246802  0.19852479  1
  Rh  Rh218  1  0.79993560  0.60461423  0.80621182  1
  Rh  Rh219  1  0.40380516  0.19984670  0.00573813  1
  Rh  Rh220  1  0.59829680  0.20973084  0.20635407  1
  Rh  Rh221  1  -0.00506998  0.39861246  0.39677517  1
  Rh  Rh222  1  0.78716025  0.41000210  0.19255224  1
  Rh  Rh223  1  0.80410531  0.79974497  0.20881179  1
  Rh  Rh224  1  0.39468754  0.81331134  0.39102308  1
  Rh  Rh225  1  0.40353777  0.40294385  0.20081890  1
  Rh  Rh226  1  0.00101250  0.59910392  0.80000125  1
  Rh  Rh227  1  0.39651040  0.40066520  0.39936035  1
  Rh  Rh228  1  0.00683804  0.40132850  0.19657804  1
  Rh  Rh229  1  0.40282663  0.20216036  0.79373147  1
  Rh  Rh230  1  0.19164406  0.79837950  0.20541974  1
  Rh  Rh231  1  0.58761357  0.59497855  0.59308552  1
  Rh  Rh232  1  0.80224076  0.39629647  0.79806251  1
  Rh  Rh233  1  0.60117618  0.60326298  0.80306380  1
  Rh  Rh234  1  0.60186859  0.59759154  0.21150747  1
  Rh  Rh235  1  0.20318585  0.00911710  0.19998871  1
  Rh  Rh236  1  0.40517906  0.79564451  0.19819950  1
  Rh  Rh237  1  0.00203699  0.79745939  0.00749549  1
  Rh  Rh238  1  0.41139203  0.60340381  0.80116311  1
  Rh  Rh239  1  0.80380459  -0.00486818  0.61256503  1
  Rh  Rh240  1  0.80346082  0.59529509  0.60445271  1
  Rh  Rh241  1  0.60211163  0.19172300  -0.00435017  1
  Rh  Rh242  1  0.60694810  0.39903357  0.79821481  1
  Rh  Rh243  1  0.60240663  0.39430923  0.61042935  1
  Rh  Rh244  1  0.80126532  0.80457242  0.80227535  1
  Rh  Rh245  1  0.78972967  0.60460959  0.39469671  1
  Rh  Rh246  1  -0.00127665  0.19198646  0.59469878  1
  Rh  Rh247  1  0.00074569  0.79515442  0.59029890  1
  Rh  Rh248  1  0.20067108  0.20256765  0.59725842  1
  Rh  Rh249  1  0.59882570  0.39953652  0.00342735  1
