# generated using pymatgen
data_ZrScNbPdRh
_symmetry_space_group_name_H-M   'P 1'
_cell_length_a   16.55976390
_cell_length_b   16.55672982
_cell_length_c   16.56415119
_cell_angle_alpha   90.02569589
_cell_angle_beta   90.02338071
_cell_angle_gamma   90.01290524
_symmetry_Int_Tables_number   1
_chemical_formula_structural   ZrScNbPdRh
_chemical_formula_sum   'Zr50 Sc50 Nb50 Pd50 Rh50'
_cell_volume   4541.48409472
_cell_formula_units_Z   50
loop_
 _symmetry_equiv_pos_site_id
 _symmetry_equiv_pos_as_xyz
  1  'x, y, z'
loop_
 _atom_site_type_symbol
 _atom_site_label
 _atom_site_symmetry_multiplicity
 _atom_site_fract_x
 _atom_site_fract_y
 _atom_site_fract_z
 _atom_site_occupancy
  Zr  Zr0  1  0.30565996  0.91294916  0.30653807  1
  Zr  Zr1  1  0.50322364  0.50601432  0.89538822  1
  Zr  Zr2  1  0.28948645  0.70499391  0.50615436  1
  Zr  Zr3  1  0.89587284  0.30514071  0.11096442  1
  Zr  Zr4  1  0.30276613  0.30410563  0.09732367  1
  Zr  Zr5  1  0.49344553  0.69960559  0.69965457  1
  Zr  Zr6  1  0.10359777  0.10217261  0.50353874  1
  Zr  Zr7  1  0.90442027  0.29626182  0.89218760  1
  Zr  Zr8  1  0.49942291  0.29443599  0.69476920  1
  Zr  Zr9  1  0.90537363  0.09625100  0.10354036  1
  Zr  Zr10  1  0.48922389  0.30130504  0.89590588  1
  Zr  Zr11  1  0.69264584  0.69701229  0.50355794  1
  Zr  Zr12  1  0.68486071  0.90086886  0.31005468  1
  Zr  Zr13  1  0.89849587  0.10059723  0.90255725  1
  Zr  Zr14  1  0.70074482  0.09645827  0.50248096  1
  Zr  Zr15  1  0.90723547  0.90274984  0.30678357  1
  Zr  Zr16  1  0.49729989  0.69348594  0.09316105  1
  Zr  Zr17  1  0.49946597  0.09865894  0.09425205  1
  Zr  Zr18  1  0.09086601  0.10020879  0.30612032  1
  Zr  Zr19  1  0.50079529  0.09533319  0.89724757  1
  Zr  Zr20  1  0.49907463  0.90634052  0.10719793  1
  Zr  Zr21  1  0.09671599  0.29949484  0.50181129  1
  Zr  Zr22  1  0.09119208  0.30339011  0.30509678  1
  Zr  Zr23  1  0.90079390  0.50086287  0.90015983  1
  Zr  Zr24  1  0.89982146  0.50448768  0.10228514  1
  Zr  Zr25  1  0.49642675  0.08559648  0.30383380  1
  Zr  Zr26  1  0.10786480  0.70277863  0.30906718  1
  Zr  Zr27  1  0.90701332  0.89437693  0.10581816  1
  Zr  Zr28  1  0.29951529  0.10238668  0.31936225  1
  Zr  Zr29  1  0.71050201  0.69130900  0.10372636  1
  Zr  Zr30  1  0.10373539  0.70357754  0.68547524  1
  Zr  Zr31  1  0.09455762  0.29795986  0.69899625  1
  Zr  Zr32  1  0.29864814  0.50372476  0.50183317  1
  Zr  Zr33  1  0.49227279  0.49729109  0.09544429  1
  Zr  Zr34  1  0.70351686  0.70022675  0.69936029  1
  Zr  Zr35  1  0.49704122  0.30059362  0.09440075  1
  Zr  Zr36  1  0.89477820  0.70520847  0.70033941  1
  Zr  Zr37  1  0.69601017  0.29763247  0.69329483  1
  Zr  Zr38  1  0.71006405  0.49258558  0.10491692  1
  Zr  Zr39  1  0.10332607  0.49814697  0.30490119  1
  Zr  Zr40  1  0.29126575  0.50249181  0.89001623  1
  Zr  Zr41  1  0.09797588  0.11666535  0.90041700  1
  Zr  Zr42  1  0.69790195  0.09864589  0.89843349  1
  Zr  Zr43  1  0.10312047  0.49741065  0.89318421  1
  Zr  Zr44  1  0.29296999  0.50351798  0.29706974  1
  Zr  Zr45  1  0.69819080  0.49346926  0.30887830  1
  Zr  Zr46  1  0.10096727  0.70237045  0.10172189  1
  Zr  Zr47  1  0.89457374  0.69763290  0.89799963  1
  Zr  Zr48  1  0.10181320  0.29643053  0.09276850  1
  Zr  Zr49  1  0.49947266  0.30363496  0.30945469  1
  Sc  Sc50  1  0.29608550  0.09999607  0.89534765  1
  Sc  Sc51  1  0.50842552  0.49908051  0.49999462  1
  Sc  Sc52  1  0.10294775  0.50366368  0.10527789  1
  Sc  Sc53  1  0.70175000  0.50708901  0.89524298  1
  Sc  Sc54  1  0.89872809  0.10103567  0.68191032  1
  Sc  Sc55  1  0.90400329  0.70645313  0.29267445  1
  Sc  Sc56  1  0.10379055  0.69991072  0.90362303  1
  Sc  Sc57  1  0.31159627  0.29599163  0.69973274  1
  Sc  Sc58  1  0.30273665  0.89520467  0.69563953  1
  Sc  Sc59  1  0.90477020  0.30255019  0.49946172  1
  Sc  Sc60  1  0.70690616  0.30350773  0.89045034  1
  Sc  Sc61  1  0.29763144  0.90095169  0.89667416  1
  Sc  Sc62  1  0.29255290  0.29967288  0.89832922  1
  Sc  Sc63  1  0.70140643  0.69902087  0.30022005  1
  Sc  Sc64  1  0.51187973  0.70068354  0.30679891  1
  Sc  Sc65  1  0.29988355  0.09869820  0.09411560  1
  Sc  Sc66  1  0.49682169  0.10583867  0.50423307  1
  Sc  Sc67  1  0.49601614  0.49827661  0.69582591  1
  Sc  Sc68  1  0.70172214  0.10583203  0.31230922  1
  Sc  Sc69  1  0.29817788  0.50017136  0.09806738  1
  Sc  Sc70  1  0.69619505  0.90701089  0.89983211  1
  Sc  Sc71  1  0.90438372  0.48900466  0.29761751  1
  Sc  Sc72  1  0.49900248  0.30095852  0.50614366  1
  Sc  Sc73  1  0.90050238  0.89774072  0.90890846  1
  Sc  Sc74  1  0.50685925  0.89664589  0.49862841  1
  Sc  Sc75  1  0.50317509  0.69697635  0.50666213  1
  Sc  Sc76  1  0.09579230  0.89836509  0.09845585  1
  Sc  Sc77  1  0.49951935  0.49784091  0.30518935  1
  Sc  Sc78  1  0.70630495  0.10574069  0.69822766  1
  Sc  Sc79  1  0.09631584  0.10113962  0.09535508  1
  Sc  Sc80  1  0.49322479  0.90475539  0.90097090  1
  Sc  Sc81  1  0.10563817  0.90532021  0.69084747  1
  Sc  Sc82  1  0.30127545  0.70324166  0.89362621  1
  Sc  Sc83  1  0.89961039  0.49022752  0.50535486  1
  Sc  Sc84  1  0.90540712  0.70524421  0.51410143  1
  Sc  Sc85  1  0.30426528  0.09405727  0.69150457  1
  Sc  Sc86  1  0.09555968  0.89509631  0.30841324  1
  Sc  Sc87  1  0.10598607  0.89489393  0.90268693  1
  Sc  Sc88  1  0.69665411  0.90175093  0.10759067  1
  Sc  Sc89  1  0.69452508  0.50010121  0.69266304  1
  Sc  Sc90  1  0.10255745  0.10069723  0.69218330  1
  Sc  Sc91  1  0.90609759  0.69719251  0.10109217  1
  Sc  Sc92  1  0.30455600  0.90696865  0.09176041  1
  Sc  Sc93  1  0.09781034  0.89279853  0.50146780  1
  Sc  Sc94  1  0.90190453  0.50449529  0.69663311  1
  Sc  Sc95  1  0.10228394  0.50438203  0.70118672  1
  Sc  Sc96  1  0.69650956  0.09773147  0.09470254  1
  Sc  Sc97  1  0.89671634  0.29994195  0.69567795  1
  Sc  Sc98  1  0.69783386  0.30485627  0.49429413  1
  Sc  Sc99  1  0.29936243  0.68954584  0.09741104  1
  Nb  Nb100  1  0.89477511  0.90463755  0.51113676  1
  Nb  Nb101  1  0.69858589  0.70118627  0.89573415  1
  Nb  Nb102  1  0.30012194  0.29700112  0.30401938  1
  Nb  Nb103  1  0.09858708  0.49398434  0.49732200  1
  Nb  Nb104  1  0.90114198  0.09285330  0.49358894  1
  Nb  Nb105  1  0.89583575  0.29309822  0.30209356  1
  Nb  Nb106  1  0.70729407  0.89659530  0.70074109  1
  Nb  Nb107  1  0.30315769  0.28552093  0.49343226  1
  Nb  Nb108  1  0.69929969  0.30137563  0.10532422  1
  Nb  Nb109  1  0.70386337  0.30278895  0.29580371  1
  Nb  Nb110  1  0.89758553  0.89671171  0.69386410  1
  Nb  Nb111  1  0.90119840  0.10243869  0.30302363  1
  Nb  Nb112  1  0.49744509  0.89862253  0.30037313  1
  Nb  Nb113  1  0.29637565  0.91092526  0.49758110  1
  Nb  Nb114  1  0.70169389  0.50432247  0.49831284  1
  Nb  Nb115  1  0.29843884  0.09802518  0.49762123  1
  Nb  Nb116  1  0.29496960  0.51455581  0.69368056  1
  Nb  Nb117  1  0.09687253  0.29794945  0.89765498  1
  Nb  Nb118  1  0.70333855  0.89931694  0.50641569  1
  Nb  Nb119  1  0.10003333  0.70186403  0.49550642  1
  Nb  Nb120  1  0.29654144  0.70090721  0.30442256  1
  Nb  Nb121  1  0.50256738  0.09721211  0.70231280  1
  Nb  Nb122  1  0.29818349  0.68909882  0.69148776  1
  Nb  Nb123  1  0.50592378  0.90555129  0.70647117  1
  Nb  Nb124  1  0.50969865  0.69930058  0.89856359  1
  Nb  Nb125  1  0.20535021  0.19968573  0.20711311  1
  Nb  Nb126  1  0.80587504  0.60157175  0.40550736  1
  Nb  Nb127  1  0.21039363  0.80455821  0.20486003  1
  Nb  Nb128  1  0.00165959  0.39681072  -0.00512940  1
  Nb  Nb129  1  0.80089793  0.20487680  0.00486122  1
  Nb  Nb130  1  -0.00468209  -0.00364524  0.79540949  1
  Nb  Nb131  1  0.60201506  0.39811044  0.00049329  1
  Nb  Nb132  1  0.39971365  0.20021676  0.20666056  1
  Nb  Nb133  1  0.60111198  0.79332610  -0.00374231  1
  Nb  Nb134  1  0.80704866  -0.00519005  0.79260736  1
  Nb  Nb135  1  0.79927949  0.80271213  0.40875550  1
  Nb  Nb136  1  0.00177889  0.60033880  0.40711645  1
  Nb  Nb137  1  0.59793770  0.20637048  0.20225449  1
  Nb  Nb138  1  0.80675075  0.00385164  0.21061986  1
  Nb  Nb139  1  0.79253456  0.79566610  0.00024992  1
  Nb  Nb140  1  0.60400556  -0.00456392  0.60905010  1
  Nb  Nb141  1  0.19883076  0.00298684  0.20571215  1
  Nb  Nb142  1  0.39870956  0.79929449  0.20775112  1
  Nb  Nb143  1  0.20434736  0.39985156  0.59725352  1
  Nb  Nb144  1  0.60144032  0.59338494  0.19612507  1
  Nb  Nb145  1  0.59513605  0.19785346  0.79763071  1
  Nb  Nb146  1  0.39302793  0.60747618  0.40064979  1
  Nb  Nb147  1  0.59964998  0.80075891  0.80051451  1
  Nb  Nb148  1  -0.00400043  0.80537098  0.79309592  1
  Nb  Nb149  1  0.39683826  0.80075184  0.39836536  1
  Pd  Pd150  1  0.39482057  0.40172892  0.59708459  1
  Pd  Pd151  1  0.59347993  0.79035362  0.19337320  1
  Pd  Pd152  1  0.60933738  0.21054485  -0.00537524  1
  Pd  Pd153  1  0.19577613  0.79764906  0.79200134  1
  Pd  Pd154  1  0.80025782  0.40705714  0.78919934  1
  Pd  Pd155  1  0.61039275  0.01246441  0.20375295  1
  Pd  Pd156  1  0.00967985  -0.00346501  -0.00938985  1
  Pd  Pd157  1  0.79699871  0.40002239  0.60071154  1
  Pd  Pd158  1  0.59978796  0.39566525  0.80179743  1
  Pd  Pd159  1  0.19405506  0.00305344  0.00163973  1
  Pd  Pd160  1  0.20475479  0.39237673  0.78524051  1
  Pd  Pd161  1  0.79705168  0.59195297  0.79319489  1
  Pd  Pd162  1  0.19263621  0.00361350  0.79738774  1
  Pd  Pd163  1  0.80080071  0.39558957  -0.00573315  1
  Pd  Pd164  1  0.79656127  -0.00504883  0.00650822  1
  Pd  Pd165  1  0.59781338  0.80494112  0.60782252  1
  Pd  Pd166  1  0.60992576  0.59406464  0.00519783  1
  Pd  Pd167  1  0.40848699  -0.00411342  0.59670865  1
  Pd  Pd168  1  0.80383107  0.20568094  0.40733780  1
  Pd  Pd169  1  0.40316904  0.80065393  0.79958735  1
  Pd  Pd170  1  0.39319630  0.40714212  0.79531695  1
  Pd  Pd171  1  0.00212273  0.59412441  0.59457472  1
  Pd  Pd172  1  0.79049497  0.19056106  0.19707763  1
  Pd  Pd173  1  0.19570228  0.40347633  -0.00109742  1
  Pd  Pd174  1  0.39716006  0.39731251  0.20621988  1
  Pd  Pd175  1  0.59709365  0.20157822  0.39849192  1
  Pd  Pd176  1  0.39901316  0.80638339  0.59443229  1
  Pd  Pd177  1  0.80362514  0.20559881  0.58773517  1
  Pd  Pd178  1  0.79749005  0.81032261  0.20540360  1
  Pd  Pd179  1  0.39082617  0.59790026  -0.01261447  1
  Pd  Pd180  1  0.00447159  -0.00333848  0.41086530  1
  Pd  Pd181  1  0.00590484  0.20192525  0.19916232  1
  Pd  Pd182  1  -0.00200911  0.40218691  0.79620794  1
  Pd  Pd183  1  0.00634651  0.59534938  -0.00235228  1
  Pd  Pd184  1  0.20620661  0.19956366  0.79054377  1
  Pd  Pd185  1  -0.00542540  0.18935675  0.78559930  1
  Pd  Pd186  1  0.79842537  -0.00535375  0.39748947  1
  Pd  Pd187  1  0.00474837  0.60182804  0.21180719  1
  Pd  Pd188  1  0.39630957  0.40730475  0.40504461  1
  Pd  Pd189  1  0.20868026  0.20583314  0.60476254  1
  Pd  Pd190  1  0.00642110  0.61131581  0.79702470  1
  Pd  Pd191  1  0.20844010  0.79913433  0.00798586  1
  Pd  Pd192  1  0.40165033  0.80007478  0.00252464  1
  Pd  Pd193  1  0.39886469  0.60134765  0.80058987  1
  Pd  Pd194  1  0.59465786  0.40081654  0.19700215  1
  Pd  Pd195  1  0.20652972  0.39251967  0.40705715  1
  Pd  Pd196  1  0.39103296  0.19494258  -0.00339802  1
  Pd  Pd197  1  0.39016032  -0.00045291  0.79888161  1
  Pd  Pd198  1  0.40786178  0.60682371  0.21167792  1
  Pd  Pd199  1  0.19747610  0.39367923  0.19919544  1
  Rh  Rh200  1  0.00720549  0.40297445  0.60718520  1
  Rh  Rh201  1  0.20423115  0.20005705  0.00187605  1
  Rh  Rh202  1  0.19729301  0.59865672  0.40750545  1
  Rh  Rh203  1  0.19752141  0.60664144  0.19708392  1
  Rh  Rh204  1  0.20363058  0.80601381  0.59990542  1
  Rh  Rh205  1  -0.01361640  0.79364896  0.40887541  1
  Rh  Rh206  1  0.80282879  0.40054624  0.39873087  1
  Rh  Rh207  1  0.79468141  0.00196891  0.60351427  1
  Rh  Rh208  1  0.39886499  0.41001584  -0.01511852  1
  Rh  Rh209  1  0.59625780  -0.01206058  0.00202585  1
  Rh  Rh210  1  0.00156092  -0.00066873  0.20369828  1
  Rh  Rh211  1  0.40770083  0.19969101  0.40183899  1
  Rh  Rh212  1  0.60132232  0.59797126  0.39603152  1
  Rh  Rh213  1  0.79702003  0.59038070  0.21641785  1
  Rh  Rh214  1  0.00355169  0.80604330  0.60215982  1
  Rh  Rh215  1  0.19195946  0.20452325  0.39908417  1
  Rh  Rh216  1  0.79935177  0.59804168  0.59432367  1
  Rh  Rh217  1  0.00298569  0.39785545  0.19543315  1
  Rh  Rh218  1  0.60150489  0.40164724  0.59461791  1
  Rh  Rh219  1  0.61123488  0.00089329  0.79212501  1
  Rh  Rh220  1  0.39889207  0.00222395  -0.00789432  1
  Rh  Rh221  1  0.40321102  0.19104101  0.79866279  1
  Rh  Rh222  1  -0.00747374  0.40172005  0.39876025  1
  Rh  Rh223  1  0.59981522  0.79840565  0.40509737  1
  Rh  Rh224  1  0.20203337  -0.00020896  0.59421896  1
  Rh  Rh225  1  0.59622540  0.00043507  0.41226133  1
  Rh  Rh226  1  -0.00579983  0.19656428  0.59369781  1
  Rh  Rh227  1  0.39785722  0.19349326  0.59718628  1
  Rh  Rh228  1  0.40437681  0.59950964  0.59229661  1
  Rh  Rh229  1  0.60158185  0.39642116  0.40537918  1
  Rh  Rh230  1  0.59905492  0.19268575  0.60502512  1
  Rh  Rh231  1  0.19696398  0.61184358  0.79818049  1
  Rh  Rh232  1  0.79737339  0.19148152  0.80465651  1
  Rh  Rh233  1  -0.00607187  0.19953852  0.40700746  1
  Rh  Rh234  1  0.59944260  0.60617492  0.78991707  1
  Rh  Rh235  1  0.40994050  -0.00576422  0.41677960  1
  Rh  Rh236  1  0.00101436  -0.00131323  0.59886326  1
  Rh  Rh237  1  0.80366286  0.39995116  0.21042178  1
  Rh  Rh238  1  0.20116953  0.59832206  -0.00283216  1
  Rh  Rh239  1  -0.01029736  0.21008359  0.00591680  1
  Rh  Rh240  1  0.18888143  -0.00276179  0.40324179  1
  Rh  Rh241  1  0.20780962  0.81134026  0.40054186  1
  Rh  Rh242  1  0.39174322  0.00415424  0.19541725  1
  Rh  Rh243  1  0.79994034  0.60334025  -0.00382257  1
  Rh  Rh244  1  0.79718654  0.79573931  0.59269823  1
  Rh  Rh245  1  0.80056813  0.81015964  0.81230713  1
  Rh  Rh246  1  0.59711217  0.59513816  0.60529492  1
  Rh  Rh247  1  0.18902092  0.59302437  0.59292391  1
  Rh  Rh248  1  0.01299448  0.79893840  0.20108980  1
  Rh  Rh249  1  -0.00727986  0.79396543  -0.00670349  1
