# generated using pymatgen
data_ZrScNbPdRh
_symmetry_space_group_name_H-M   'P 1'
_cell_length_a   16.55568361
_cell_length_b   16.54989793
_cell_length_c   16.55443069
_cell_angle_alpha   89.98771914
_cell_angle_beta   90.01492523
_cell_angle_gamma   90.00705812
_symmetry_Int_Tables_number   1
_chemical_formula_structural   ZrScNbPdRh
_chemical_formula_sum   'Zr50 Sc50 Nb50 Pd50 Rh50'
_cell_volume   4535.82885957
_cell_formula_units_Z   50
loop_
 _symmetry_equiv_pos_site_id
 _symmetry_equiv_pos_as_xyz
  1  'x, y, z'
loop_
 _atom_site_type_symbol
 _atom_site_label
 _atom_site_symmetry_multiplicity
 _atom_site_fract_x
 _atom_site_fract_y
 _atom_site_fract_z
 _atom_site_occupancy
  Zr  Zr0  1  0.69965096  0.10257129  0.29434136  1
  Zr  Zr1  1  0.10203835  0.50498421  0.10059717  1
  Zr  Zr2  1  0.49085561  0.90720828  0.30501045  1
  Zr  Zr3  1  0.50068330  0.89527836  0.50373060  1
  Zr  Zr4  1  0.70023278  0.29635911  0.49159546  1
  Zr  Zr5  1  0.10102796  0.90376878  0.90319215  1
  Zr  Zr6  1  0.49959822  0.70961063  0.10256494  1
  Zr  Zr7  1  0.90910073  0.91042796  0.49481230  1
  Zr  Zr8  1  0.49711339  0.49398987  0.28622723  1
  Zr  Zr9  1  0.09848958  0.70192597  0.70123361  1
  Zr  Zr10  1  0.69984479  0.09849898  0.70143580  1
  Zr  Zr11  1  0.89693264  0.49753828  0.09686351  1
  Zr  Zr12  1  0.69817063  0.70130424  0.29571951  1
  Zr  Zr13  1  0.49704541  0.29827470  0.69771839  1
  Zr  Zr14  1  0.49555786  0.49682454  0.70501769  1
  Zr  Zr15  1  0.48711398  0.09466270  0.49619269  1
  Zr  Zr16  1  0.29326569  0.90100288  0.50081457  1
  Zr  Zr17  1  0.30699988  0.09284589  0.29758320  1
  Zr  Zr18  1  0.10544365  0.09318497  0.50177548  1
  Zr  Zr19  1  0.90542916  0.50067470  0.90592086  1
  Zr  Zr20  1  0.10227283  0.09434442  0.89864754  1
  Zr  Zr21  1  0.90700612  0.70284255  0.89990783  1
  Zr  Zr22  1  0.49865576  0.10021184  0.69939621  1
  Zr  Zr23  1  0.69622504  0.50357642  0.49873408  1
  Zr  Zr24  1  0.90143670  0.90072655  0.89210543  1
  Zr  Zr25  1  0.69239424  0.49694509  0.69991470  1
  Zr  Zr26  1  0.49812643  0.90705282  0.90479649  1
  Zr  Zr27  1  0.11022652  0.50386927  0.90413266  1
  Zr  Zr28  1  0.30440387  0.09317970  0.09907513  1
  Zr  Zr29  1  0.11043191  0.29634485  0.50338244  1
  Zr  Zr30  1  0.69358986  0.09610191  0.90425305  1
  Zr  Zr31  1  0.69547398  0.70532496  0.49525029  1
  Zr  Zr32  1  0.69770546  0.49531298  0.10280838  1
  Zr  Zr33  1  0.49806585  0.50145421  0.90117006  1
  Zr  Zr34  1  0.91092173  0.50299352  0.70038163  1
  Zr  Zr35  1  0.90680534  0.09523868  0.90524582  1
  Zr  Zr36  1  0.10951234  0.09632250  0.29999700  1
  Zr  Zr37  1  0.69944346  0.29552230  0.30099678  1
  Zr  Zr38  1  0.90104743  0.30821372  0.29797266  1
  Zr  Zr39  1  0.49312869  0.70255864  0.89876100  1
  Zr  Zr40  1  0.29649171  0.29519084  0.90436559  1
  Zr  Zr41  1  0.10304555  0.30342489  0.10701550  1
  Zr  Zr42  1  0.49655690  0.09698813  0.90765342  1
  Zr  Zr43  1  0.49710386  0.70220718  0.69366467  1
  Zr  Zr44  1  0.70415405  0.70736885  0.90108234  1
  Zr  Zr45  1  0.90275442  0.69721816  0.49963900  1
  Zr  Zr46  1  0.69876498  0.90005297  0.49360429  1
  Zr  Zr47  1  0.29587977  0.09644241  0.90458704  1
  Zr  Zr48  1  0.29504527  0.70671106  0.70476770  1
  Zr  Zr49  1  0.89681821  0.70534990  0.09553258  1
  Sc  Sc50  1  0.70069381  0.89917908  0.89610443  1
  Sc  Sc51  1  0.90614068  0.29976693  0.90975273  1
  Sc  Sc52  1  0.49672122  0.90137216  0.10016322  1
  Sc  Sc53  1  0.49887530  0.10195142  0.29696525  1
  Sc  Sc54  1  0.10401433  0.70377262  0.09177217  1
  Sc  Sc55  1  0.70657090  0.90734156  0.29846329  1
  Sc  Sc56  1  0.70061082  0.49124642  0.90958137  1
  Sc  Sc57  1  0.69635331  0.71054583  0.69956788  1
  Sc  Sc58  1  0.10587483  0.29776356  0.90292281  1
  Sc  Sc59  1  0.29712380  0.30203356  0.69970883  1
  Sc  Sc60  1  0.10674830  0.49852284  0.70557259  1
  Sc  Sc61  1  0.90630117  0.50749548  0.48407806  1
  Sc  Sc62  1  0.50578236  0.29780335  0.90755239  1
  Sc  Sc63  1  0.29701114  0.10111807  0.50497476  1
  Sc  Sc64  1  0.70766561  0.90292574  0.70527058  1
  Sc  Sc65  1  0.29139891  0.70300893  0.29661539  1
  Sc  Sc66  1  0.09884248  0.89904647  0.69823184  1
  Sc  Sc67  1  0.49878056  0.09686502  0.09789696  1
  Sc  Sc68  1  0.09933158  0.70345872  0.30205959  1
  Sc  Sc69  1  0.91374753  0.70522484  0.70100245  1
  Sc  Sc70  1  0.89265737  0.29686435  0.49162372  1
  Sc  Sc71  1  0.89439828  0.69836663  0.30519787  1
  Sc  Sc72  1  0.30242993  0.29420483  0.51106663  1
  Sc  Sc73  1  0.49620083  0.29312136  0.28977709  1
  Sc  Sc74  1  0.90949485  0.10018109  0.10415067  1
  Sc  Sc75  1  0.29357717  0.50296548  0.28830836  1
  Sc  Sc76  1  0.89640590  0.08349246  0.69561155  1
  Sc  Sc77  1  0.49648479  0.28893584  0.50115774  1
  Sc  Sc78  1  0.29577385  0.69952573  0.90037972  1
  Sc  Sc79  1  0.29364296  0.90181937  0.90045676  1
  Sc  Sc80  1  0.11222580  0.30227877  0.70534273  1
  Sc  Sc81  1  0.08946670  0.70950883  0.49849285  1
  Sc  Sc82  1  0.29757092  0.29272860  0.28913232  1
  Sc  Sc83  1  0.09829419  0.90104731  0.10499759  1
  Sc  Sc84  1  0.09635126  0.49857048  0.29739179  1
  Sc  Sc85  1  0.90433190  0.29733422  0.09946085  1
  Sc  Sc86  1  0.70164544  0.29754907  0.91181311  1
  Sc  Sc87  1  0.30111398  0.49497900  0.70775241  1
  Sc  Sc88  1  0.70765573  0.49998039  0.29273330  1
  Sc  Sc89  1  0.69246515  0.29478589  0.69164470  1
  Sc  Sc90  1  0.71182135  0.10335039  0.48889548  1
  Sc  Sc91  1  0.09797912  0.09465357  0.09608986  1
  Sc  Sc92  1  0.49183233  0.50665455  0.51011804  1
  Sc  Sc93  1  0.89751490  0.09558887  0.29537944  1
  Sc  Sc94  1  0.49125730  0.89767570  0.70021194  1
  Sc  Sc95  1  0.70228631  0.29871931  0.10155157  1
  Sc  Sc96  1  0.30047495  0.29795805  0.10165350  1
  Sc  Sc97  1  0.29393001  0.09440553  0.69654844  1
  Sc  Sc98  1  0.30427408  0.49358573  0.51217562  1
  Sc  Sc99  1  0.28871699  0.50150197  0.10020418  1
  Nb  Nb100  1  0.49454593  0.70019037  0.49634424  1
  Nb  Nb101  1  0.10345200  0.29690534  0.30416914  1
  Nb  Nb102  1  0.89940871  0.89679174  0.70133158  1
  Nb  Nb103  1  0.49483787  0.31389221  0.10382137  1
  Nb  Nb104  1  0.10511539  0.90285441  0.31360189  1
  Nb  Nb105  1  0.30339543  0.50161953  0.89775027  1
  Nb  Nb106  1  0.10003466  0.50091815  0.50158087  1
  Nb  Nb107  1  0.29935808  0.70544661  0.10397528  1
  Nb  Nb108  1  0.10132823  0.90322578  0.48529964  1
  Nb  Nb109  1  0.30171922  0.69578659  0.49839545  1
  Nb  Nb110  1  0.90160242  0.29975846  0.69948996  1
  Nb  Nb111  1  0.50111159  0.49789558  0.10013641  1
  Nb  Nb112  1  0.91069412  0.90727358  0.29012594  1
  Nb  Nb113  1  0.28925439  0.90045516  0.29979734  1
  Nb  Nb114  1  0.69670502  0.70646128  0.10041367  1
  Nb  Nb115  1  0.70198344  0.08973281  0.10175758  1
  Nb  Nb116  1  0.29597363  0.89472063  0.10729074  1
  Nb  Nb117  1  0.10257014  0.10116844  0.70350022  1
  Nb  Nb118  1  0.49483022  0.69770570  0.30082676  1
  Nb  Nb119  1  0.10451158  0.70688144  0.89636578  1
  Nb  Nb120  1  0.70274930  0.89548609  0.10217392  1
  Nb  Nb121  1  0.89992794  0.90440821  0.10848168  1
  Nb  Nb122  1  0.90161844  0.50568912  0.29612288  1
  Nb  Nb123  1  0.90644618  0.10208454  0.49584071  1
  Nb  Nb124  1  0.29267367  0.90070663  0.69753150  1
  Nb  Nb125  1  -0.00152054  0.19882786  0.60122068  1
  Nb  Nb126  1  0.59118367  0.40378499  0.39620727  1
  Nb  Nb127  1  0.60108104  0.60198776  0.80613464  1
  Nb  Nb128  1  0.40027866  0.60664874  0.19268037  1
  Nb  Nb129  1  -0.00098079  0.39491902  0.59687623  1
  Nb  Nb130  1  0.80574233  0.40452018  0.60154958  1
  Nb  Nb131  1  0.39687239  0.79335472  0.40122388  1
  Nb  Nb132  1  0.59892309  0.60603620  0.00485481  1
  Nb  Nb133  1  0.80576464  0.20113174  0.79891134  1
  Nb  Nb134  1  0.79899161  -0.00385881  0.00966914  1
  Nb  Nb135  1  0.80170644  0.60159854  0.60331740  1
  Nb  Nb136  1  0.39903260  0.40659269  0.00167742  1
  Nb  Nb137  1  0.00452345  0.19814771  0.40127550  1
  Nb  Nb138  1  -0.00541474  0.60021008  0.19620464  1
  Nb  Nb139  1  0.39977709  0.19434467  0.80587592  1
  Nb  Nb140  1  0.58909640  0.60102363  0.39526149  1
  Nb  Nb141  1  -0.00120393  0.19614417  0.79266027  1
  Nb  Nb142  1  0.79815726  0.59615394  0.79763079  1
  Nb  Nb143  1  0.20011710  0.59588314  0.40898986  1
  Nb  Nb144  1  0.80498666  0.39662824  0.79523483  1
  Nb  Nb145  1  0.60021892  0.00091900  0.59668298  1
  Nb  Nb146  1  0.20264445  0.40024246  0.40043584  1
  Nb  Nb147  1  0.80874757  0.80162201  0.59640344  1
  Nb  Nb148  1  0.39749492  0.40103405  0.39554658  1
  Nb  Nb149  1  0.19840209  0.60420542  0.59542397  1
  Pd  Pd150  1  0.39597328  0.80118903  0.20941637  1
  Pd  Pd151  1  0.39344620  0.59510098  0.39050523  1
  Pd  Pd152  1  0.59778254  -0.00779280  0.79311170  1
  Pd  Pd153  1  0.00271557  0.19690990  0.20740372  1
  Pd  Pd154  1  0.79493751  -0.00523357  0.59326008  1
  Pd  Pd155  1  0.39166466  0.00249700  0.79675437  1
  Pd  Pd156  1  0.60218630  0.20621088  0.80555220  1
  Pd  Pd157  1  0.59641858  0.60251750  0.19800612  1
  Pd  Pd158  1  0.00451051  0.39090200  0.80003882  1
  Pd  Pd159  1  0.20472788  0.60761023  -0.00060329  1
  Pd  Pd160  1  0.80318701  0.80967266  -0.00018986  1
  Pd  Pd161  1  0.80533199  0.20175533  0.60304946  1
  Pd  Pd162  1  0.79115050  0.60057072  -0.00208801  1
  Pd  Pd163  1  0.00389956  0.79487898  0.20370609  1
  Pd  Pd164  1  0.39257638  0.20810506  0.39553545  1
  Pd  Pd165  1  0.20166093  0.19333275  0.19393690  1
  Pd  Pd166  1  0.59620473  -0.00562184  0.19817532  1
  Pd  Pd167  1  0.19186405  0.79775315  0.59230707  1
  Pd  Pd168  1  0.19443747  0.19690622  0.00934309  1
  Pd  Pd169  1  0.80563362  0.20029868  0.19670793  1
  Pd  Pd170  1  0.00142787  0.40540830  0.19961787  1
  Pd  Pd171  1  0.80394097  0.60377037  0.19542477  1
  Pd  Pd172  1  0.18894660  0.79948022  0.19977633  1
  Pd  Pd173  1  0.60828736  0.39445033  0.80733659  1
  Pd  Pd174  1  0.60218202  0.60684465  0.60097804  1
  Pd  Pd175  1  0.80930274  0.80890419  0.39773794  1
  Pd  Pd176  1  0.00273013  0.80663790  0.00192346  1
  Pd  Pd177  1  0.38988767  0.60044073  0.60998274  1
  Pd  Pd178  1  0.59495557  0.20228970  0.18982723  1
  Pd  Pd179  1  0.39297420  0.80218468  0.59592829  1
  Pd  Pd180  1  0.59833247  0.81121766  0.20838088  1
  Pd  Pd181  1  0.60022301  0.80341884  -0.00121898  1
  Pd  Pd182  1  0.80238074  0.80263929  0.20698693  1
  Pd  Pd183  1  0.39763373  0.59728334  0.00898611  1
  Pd  Pd184  1  0.60083681  0.00998038  0.40270032  1
  Pd  Pd185  1  0.59517908  0.80373152  0.79633311  1
  Pd  Pd186  1  0.79678210  0.40915641  0.40069959  1
  Pd  Pd187  1  0.38960711  0.80525290  -0.00349589  1
  Pd  Pd188  1  0.60169081  0.18689531  0.58630256  1
  Pd  Pd189  1  0.80230277  0.19109932  0.00028816  1
  Pd  Pd190  1  0.59596496  0.20099961  0.01304608  1
  Pd  Pd191  1  0.00693948  -0.00066457  0.60381577  1
  Pd  Pd192  1  0.59485714  0.39413854  0.58778816  1
  Pd  Pd193  1  0.00634860  0.39474624  0.40525075  1
  Pd  Pd194  1  0.39771268  0.38790199  0.80862282  1
  Pd  Pd195  1  -0.00707548  0.80040778  0.39207842  1
  Pd  Pd196  1  0.00806457  0.39604557  0.00097872  1
  Pd  Pd197  1  0.00495124  0.60081763  0.80741413  1
  Pd  Pd198  1  0.39339806  0.80529984  0.80489876  1
  Pd  Pd199  1  0.59230958  0.79804741  0.38929992  1
  Rh  Rh200  1  0.00648332  0.60608586  0.00226901  1
  Rh  Rh201  1  -0.00145702  0.81324090  0.59609882  1
  Rh  Rh202  1  0.00890323  0.60069528  0.38841395  1
  Rh  Rh203  1  0.80731606  0.00004659  0.39342563  1
  Rh  Rh204  1  0.79018631  0.59713890  0.40105856  1
  Rh  Rh205  1  0.39376835  0.19699633  0.61290343  1
  Rh  Rh206  1  0.39034005  -0.00731329  0.40269615  1
  Rh  Rh207  1  0.60801695  0.39188462  0.20293363  1
  Rh  Rh208  1  -0.00674106  -0.00758419  0.00693566  1
  Rh  Rh209  1  0.38823514  0.40571503  0.19414922  1
  Rh  Rh210  1  0.80049641  0.00812843  0.81070934  1
  Rh  Rh211  1  0.20331568  -0.00662831  0.00931899  1
  Rh  Rh212  1  0.20367514  0.40282354  0.80790598  1
  Rh  Rh213  1  0.00623801  0.80555691  0.80165805  1
  Rh  Rh214  1  0.20735718  0.40163550  -0.00231560  1
  Rh  Rh215  1  0.40068623  0.60524023  0.79439871  1
  Rh  Rh216  1  0.00331073  0.00115870  0.79295656  1
  Rh  Rh217  1  0.40334662  0.19494025  0.19176511  1
  Rh  Rh218  1  0.19728313  0.80613545  0.80255273  1
  Rh  Rh219  1  0.19888289  -0.00458154  0.79442417  1
  Rh  Rh220  1  0.19793614  0.39679759  0.20684780  1
  Rh  Rh221  1  0.40487479  0.39470096  0.59692167  1
  Rh  Rh222  1  0.19488772  0.40837219  0.59788578  1
  Rh  Rh223  1  0.19465568  0.60760054  0.20276417  1
  Rh  Rh224  1  0.80265367  0.39646281  0.19804143  1
  Rh  Rh225  1  0.19764116  0.19462418  0.60700117  1
  Rh  Rh226  1  0.59525598  0.20097948  0.39786883  1
  Rh  Rh227  1  0.80285043  0.39533409  -0.00043056  1
  Rh  Rh228  1  0.39831327  -0.00444585  0.19781485  1
  Rh  Rh229  1  0.81096531  0.19516924  0.39003725  1
  Rh  Rh230  1  0.20292003  0.20340873  0.39852161  1
  Rh  Rh231  1  0.59491535  0.40153809  0.00468001  1
  Rh  Rh232  1  0.20161666  0.60045425  0.79669276  1
  Rh  Rh233  1  0.00519602  0.59316101  0.59769393  1
  Rh  Rh234  1  0.00859103  0.20180489  -0.00395146  1
  Rh  Rh235  1  0.01040478  0.00015511  0.20429644  1
  Rh  Rh236  1  0.60809232  0.81104278  0.60396700  1
  Rh  Rh237  1  0.80816259  0.79036416  0.79080265  1
  Rh  Rh238  1  0.40023794  -0.00387963  0.60170725  1
  Rh  Rh239  1  0.20532172  0.79292724  0.40469318  1
  Rh  Rh240  1  0.19471965  -0.00547566  0.60223798  1
  Rh  Rh241  1  0.80016099  -0.00118960  0.19665201  1
  Rh  Rh242  1  0.20252046  0.80220747  0.00129068  1
  Rh  Rh243  1  0.60788574  -0.00774399  0.00731540  1
  Rh  Rh244  1  0.39276761  -0.01050895  0.00571518  1
  Rh  Rh245  1  0.20878362  0.00567721  0.40118116  1
  Rh  Rh246  1  0.20270798  0.19592600  0.79923287  1
  Rh  Rh247  1  -0.00105282  0.00816631  0.39067719  1
  Rh  Rh248  1  0.40526851  0.20985599  0.00085628  1
  Rh  Rh249  1  0.19830260  -0.00415509  0.19827067  1
