# generated using pymatgen
data_ZrScNbPdRh
_symmetry_space_group_name_H-M   'P 1'
_cell_length_a   16.55741987
_cell_length_b   16.55433446
_cell_length_c   16.55546926
_cell_angle_alpha   90.03282209
_cell_angle_beta   89.99445285
_cell_angle_gamma   90.02761303
_symmetry_Int_Tables_number   1
_chemical_formula_structural   ZrScNbPdRh
_chemical_formula_sum   'Zr50 Sc50 Nb50 Pd50 Rh50'
_cell_volume   4537.80426399
_cell_formula_units_Z   50
loop_
 _symmetry_equiv_pos_site_id
 _symmetry_equiv_pos_as_xyz
  1  'x, y, z'
loop_
 _atom_site_type_symbol
 _atom_site_label
 _atom_site_symmetry_multiplicity
 _atom_site_fract_x
 _atom_site_fract_y
 _atom_site_fract_z
 _atom_site_occupancy
  Zr  Zr0  1  0.09955773  0.50845634  0.29555611  1
  Zr  Zr1  1  0.70091755  0.29669131  0.09776261  1
  Zr  Zr2  1  0.50187324  0.30278616  0.28777852  1
  Zr  Zr3  1  0.69891675  0.69768778  0.69857489  1
  Zr  Zr4  1  0.30658195  0.09186862  0.30721456  1
  Zr  Zr5  1  0.09554750  0.69987521  0.49706831  1
  Zr  Zr6  1  0.89902371  0.90224990  0.29081345  1
  Zr  Zr7  1  0.30441333  0.29828872  0.50443081  1
  Zr  Zr8  1  0.50089213  0.29542291  0.89257071  1
  Zr  Zr9  1  0.69154717  0.10077538  0.70288934  1
  Zr  Zr10  1  0.10440818  0.70081589  0.10023931  1
  Zr  Zr11  1  0.30687319  0.90526711  0.48713263  1
  Zr  Zr12  1  0.09273467  0.50386590  0.09790488  1
  Zr  Zr13  1  0.29897724  0.70228736  0.10629504  1
  Zr  Zr14  1  0.50140521  0.89967593  0.49627947  1
  Zr  Zr15  1  0.89690134  0.29713325  0.28948340  1
  Zr  Zr16  1  0.30484927  0.10028663  0.49888526  1
  Zr  Zr17  1  0.69550674  0.30663381  0.70075159  1
  Zr  Zr18  1  0.70085768  0.70484881  0.90628391  1
  Zr  Zr19  1  0.70070253  0.10183777  0.29061214  1
  Zr  Zr20  1  0.88931080  0.10346277  0.11161601  1
  Zr  Zr21  1  0.89838867  0.89753166  0.50035792  1
  Zr  Zr22  1  0.50040483  0.29635096  0.50982244  1
  Zr  Zr23  1  0.30362001  0.70151015  0.70324028  1
  Zr  Zr24  1  0.10233709  0.09582120  0.49707912  1
  Zr  Zr25  1  0.50716184  0.70354786  0.89655695  1
  Zr  Zr26  1  0.10940249  0.10247716  0.09970034  1
  Zr  Zr27  1  0.29562266  0.29646178  0.29935156  1
  Zr  Zr28  1  0.09771192  0.29801306  0.11029919  1
  Zr  Zr29  1  0.30025749  0.09621931  0.71549666  1
  Zr  Zr30  1  0.90608393  0.09346165  0.49801563  1
  Zr  Zr31  1  0.29253937  0.29439348  0.09576411  1
  Zr  Zr32  1  0.70989659  0.90036663  0.09212662  1
  Zr  Zr33  1  0.29597834  0.49467559  0.70756736  1
  Zr  Zr34  1  0.50762031  0.69387528  0.10087001  1
  Zr  Zr35  1  0.10929295  0.09176044  0.89967395  1
  Zr  Zr36  1  0.09515915  0.50152723  0.50063560  1
  Zr  Zr37  1  0.09410657  0.70116395  0.70519236  1
  Zr  Zr38  1  0.49751203  0.09693247  0.50342736  1
  Zr  Zr39  1  0.89884502  0.70439679  0.88961183  1
  Zr  Zr40  1  0.49858826  0.90067900  0.71361561  1
  Zr  Zr41  1  0.89802431  0.70422378  0.49891879  1
  Zr  Zr42  1  0.69119566  0.09462259  0.50910523  1
  Zr  Zr43  1  0.69886528  0.49699418  0.69438574  1
  Zr  Zr44  1  0.30676010  0.70870759  0.49665572  1
  Zr  Zr45  1  0.50254788  0.50051457  0.29911461  1
  Zr  Zr46  1  0.69809160  0.89187885  0.30023105  1
  Zr  Zr47  1  0.49877011  0.29967384  0.10148912  1
  Zr  Zr48  1  0.09741139  0.49975642  0.70329442  1
  Zr  Zr49  1  0.50285814  0.69591968  0.29375601  1
  Sc  Sc50  1  0.49935420  0.69842873  0.69794459  1
  Sc  Sc51  1  0.10876051  0.30690577  0.49826570  1
  Sc  Sc52  1  0.70176153  0.49234516  0.89756538  1
  Sc  Sc53  1  0.51285532  0.50476764  0.50358096  1
  Sc  Sc54  1  0.90243739  0.09153907  0.70244009  1
  Sc  Sc55  1  0.29881843  0.49746411  0.50299494  1
  Sc  Sc56  1  0.30731795  0.89923484  0.71167620  1
  Sc  Sc57  1  0.69813677  0.09982891  0.09368298  1
  Sc  Sc58  1  0.10691309  0.28780519  0.89982446  1
  Sc  Sc59  1  0.89264948  0.69605495  0.29658009  1
  Sc  Sc60  1  0.10153461  0.50858849  0.89984858  1
  Sc  Sc61  1  0.50420948  0.09981948  0.70565215  1
  Sc  Sc62  1  0.89421731  0.09772235  0.90088689  1
  Sc  Sc63  1  0.50762653  0.50015600  0.69601431  1
  Sc  Sc64  1  0.28438679  0.50377435  0.09810393  1
  Sc  Sc65  1  0.69988245  0.31129764  0.29590422  1
  Sc  Sc66  1  0.90593702  0.70524730  0.69667273  1
  Sc  Sc67  1  0.89885459  0.89368249  0.70557053  1
  Sc  Sc68  1  0.89499153  0.69230682  0.10350648  1
  Sc  Sc69  1  0.50255671  0.90641209  0.10131835  1
  Sc  Sc70  1  0.50227014  0.90001691  0.29609093  1
  Sc  Sc71  1  0.89892949  0.31524233  0.50366577  1
  Sc  Sc72  1  0.89585992  0.30527756  0.09666726  1
  Sc  Sc73  1  0.51016559  0.49780320  0.90058280  1
  Sc  Sc74  1  0.29837080  0.51009460  0.29291229  1
  Sc  Sc75  1  0.70533232  0.69526722  0.49054106  1
  Sc  Sc76  1  0.09877193  0.09809312  0.71391740  1
  Sc  Sc77  1  0.69634446  0.09806679  0.90267752  1
  Sc  Sc78  1  0.50156514  0.09823102  0.10207694  1
  Sc  Sc79  1  0.69940799  0.30422668  0.90362071  1
  Sc  Sc80  1  0.89615784  0.49101711  0.69246003  1
  Sc  Sc81  1  0.30002076  0.90128893  0.10521258  1
  Sc  Sc82  1  0.70345581  0.50132527  0.08992786  1
  Sc  Sc83  1  0.30267221  0.09697420  0.09707853  1
  Sc  Sc84  1  0.29646012  0.90662184  0.90227411  1
  Sc  Sc85  1  0.70199516  0.90738645  0.70097905  1
  Sc  Sc86  1  0.09669881  0.70064326  0.89486721  1
  Sc  Sc87  1  0.09313342  0.90585416  0.49480140  1
  Sc  Sc88  1  0.10044267  0.10044383  0.29721283  1
  Sc  Sc89  1  0.10848381  0.89950031  0.10610140  1
  Sc  Sc90  1  0.89261507  0.50335338  0.29377884  1
  Sc  Sc91  1  0.09418573  0.89934984  0.71000583  1
  Sc  Sc92  1  0.90195745  0.49624085  0.90582240  1
  Sc  Sc93  1  0.50016652  0.09510556  0.89984195  1
  Sc  Sc94  1  0.89381453  0.50338731  0.49636150  1
  Sc  Sc95  1  0.28405526  0.70444907  0.90264784  1
  Sc  Sc96  1  0.10543604  0.90483076  0.29652497  1
  Sc  Sc97  1  0.49974303  0.49948890  0.10840305  1
  Sc  Sc98  1  0.69851119  0.49999260  0.31074899  1
  Sc  Sc99  1  0.69916386  0.69768719  0.29702515  1
  Nb  Nb100  1  0.88453514  0.89487332  0.90981717  1
  Nb  Nb101  1  0.10415198  0.70020656  0.29892423  1
  Nb  Nb102  1  0.89664808  0.29786058  0.89926663  1
  Nb  Nb103  1  0.30745711  0.89277602  0.30184512  1
  Nb  Nb104  1  0.89584715  0.10132615  0.30275222  1
  Nb  Nb105  1  0.89981088  0.30110440  0.69933353  1
  Nb  Nb106  1  0.90555568  0.50000940  0.09583384  1
  Nb  Nb107  1  0.49852519  0.29726947  0.70352473  1
  Nb  Nb108  1  0.29794843  0.49933818  0.90068674  1
  Nb  Nb109  1  0.70024893  0.30063405  0.49889062  1
  Nb  Nb110  1  0.09627261  0.89806764  0.91014370  1
  Nb  Nb111  1  0.09878025  0.29906232  0.69834878  1
  Nb  Nb112  1  0.09758856  0.29823745  0.29799215  1
  Nb  Nb113  1  0.69848582  0.89942213  0.49733382  1
  Nb  Nb114  1  0.30531548  0.29815040  0.89388558  1
  Nb  Nb115  1  0.69337522  0.70024145  0.09414795  1
  Nb  Nb116  1  0.29478347  0.10864900  0.90259763  1
  Nb  Nb117  1  0.89916490  0.90350151  0.09824844  1
  Nb  Nb118  1  0.70059666  0.49262835  0.49931095  1
  Nb  Nb119  1  0.49884865  0.69893154  0.50250266  1
  Nb  Nb120  1  0.30002621  0.70780079  0.30112763  1
  Nb  Nb121  1  0.50416387  0.10373901  0.29683548  1
  Nb  Nb122  1  0.50182667  0.89880565  0.89978955  1
  Nb  Nb123  1  0.70468085  0.89916394  0.90240713  1
  Nb  Nb124  1  0.30416394  0.30113683  0.70779051  1
  Nb  Nb125  1  0.80206053  0.20677385  0.79460936  1
  Nb  Nb126  1  0.00192294  0.20525265  0.60085584  1
  Nb  Nb127  1  0.00377675  0.39693334  0.38968485  1
  Nb  Nb128  1  0.20120069  0.80389145  0.59810293  1
  Nb  Nb129  1  0.80242964  0.20287490  0.60069986  1
  Nb  Nb130  1  0.39578962  0.59702928  0.80931578  1
  Nb  Nb131  1  0.60004865  0.80192411  0.59330842  1
  Nb  Nb132  1  0.79601961  0.00096703  0.39976251  1
  Nb  Nb133  1  -0.00111233  0.38862243  0.79761638  1
  Nb  Nb134  1  0.40386971  0.60386134  0.39983117  1
  Nb  Nb135  1  -0.00353142  0.20566989  0.40015554  1
  Nb  Nb136  1  0.39732077  0.59941976  -0.00427389  1
  Nb  Nb137  1  -0.00617148  0.80725409  0.00288040  1
  Nb  Nb138  1  0.79933926  0.59917624  0.79753609  1
  Nb  Nb139  1  0.19901848  0.60819874  0.60152483  1
  Nb  Nb140  1  -0.00463995  -0.00316456  0.00428929  1
  Nb  Nb141  1  -0.00087422  0.79688608  0.39186164  1
  Nb  Nb142  1  0.60218895  0.20015476  0.39928287  1
  Nb  Nb143  1  0.20104639  0.19984778  0.60894519  1
  Nb  Nb144  1  0.20416782  -0.00066774  0.60198640  1
  Nb  Nb145  1  0.79876877  0.19877554  0.40549372  1
  Nb  Nb146  1  0.40366097  0.79683666  -0.00231065  1
  Nb  Nb147  1  0.39196364  0.40143634  -0.00616376  1
  Nb  Nb148  1  -0.00152763  0.19435914  0.00201181  1
  Nb  Nb149  1  0.40278175  0.40201172  0.39686092  1
  Pd  Pd150  1  0.41076742  0.20724885  0.39427627  1
  Pd  Pd151  1  -0.00420875  0.40647128  0.20246613  1
  Pd  Pd152  1  0.39663077  0.59158420  0.60187105  1
  Pd  Pd153  1  0.80135928  0.00138841  0.59980557  1
  Pd  Pd154  1  0.79164315  0.59536902  0.19583214  1
  Pd  Pd155  1  0.40580575  0.40760297  0.59795102  1
  Pd  Pd156  1  0.40260256  0.20163732  -0.00117798  1
  Pd  Pd157  1  -0.00309712  0.59897967  0.60478552  1
  Pd  Pd158  1  0.59693646  0.19573661  -0.00280750  1
  Pd  Pd159  1  0.39503391  0.19210677  0.19714868  1
  Pd  Pd160  1  0.40578545  0.80345828  0.19335142  1
  Pd  Pd161  1  0.39829533  -0.00419038  0.60819144  1
  Pd  Pd162  1  0.20938931  0.00163869  0.20448731  1
  Pd  Pd163  1  0.60452302  -0.00274357  0.19404840  1
  Pd  Pd164  1  0.00902236  0.00021613  0.61035139  1
  Pd  Pd165  1  0.60954360  0.80528031  0.79348108  1
  Pd  Pd166  1  0.19404728  0.19933970  0.40186288  1
  Pd  Pd167  1  0.00313114  0.00684268  0.19603528  1
  Pd  Pd168  1  0.60304103  0.59546456  0.80217767  1
  Pd  Pd169  1  0.00192464  0.79426073  0.19909346  1
  Pd  Pd170  1  0.19072779  0.80741057  0.40072791  1
  Pd  Pd171  1  0.39508769  0.19438949  0.61493002  1
  Pd  Pd172  1  0.79591011  0.41015754  0.19310681  1
  Pd  Pd173  1  -0.00961247  0.60014907  0.39189958  1
  Pd  Pd174  1  0.59263764  0.40210652  0.00547360  1
  Pd  Pd175  1  0.39897404  -0.00539730  -0.00246708  1
  Pd  Pd176  1  0.38692016  0.40762759  0.19399810  1
  Pd  Pd177  1  0.19603827  0.39569528  -0.00684449  1
  Pd  Pd178  1  0.40958913  0.40771526  0.80294575  1
  Pd  Pd179  1  0.59520893  0.80945526  0.00563940  1
  Pd  Pd180  1  0.80156950  0.59961313  -0.00712585  1
  Pd  Pd181  1  0.19783966  0.80648158  0.79821444  1
  Pd  Pd182  1  0.80032776  0.59828026  0.60077549  1
  Pd  Pd183  1  0.79784709  0.00445049  0.80288223  1
  Pd  Pd184  1  0.60121895  0.00548437  0.39434452  1
  Pd  Pd185  1  0.00636253  0.38985434  -0.00881481  1
  Pd  Pd186  1  0.59332001  0.39313897  0.40342384  1
  Pd  Pd187  1  0.61365446  0.59114627  0.19867525  1
  Pd  Pd188  1  0.19965835  0.39927028  0.60346509  1
  Pd  Pd189  1  -0.00641285  0.20027355  0.80215399  1
  Pd  Pd190  1  0.21018544  0.59939471  0.40550707  1
  Pd  Pd191  1  0.59698612  0.79053828  0.40303688  1
  Pd  Pd192  1  0.40256148  0.80964588  0.60363674  1
  Pd  Pd193  1  0.79117597  0.80234446  0.60264920  1
  Pd  Pd194  1  -0.00877661  -0.00839657  0.81302795  1
  Pd  Pd195  1  0.79624516  0.79381599  0.19294710  1
  Pd  Pd196  1  0.20225372  0.40684071  0.39296813  1
  Pd  Pd197  1  0.19096960  0.39386509  0.80839619  1
  Pd  Pd198  1  -0.00249800  0.61140728  -0.00224430  1
  Pd  Pd199  1  0.20068476  0.40202599  0.20327946  1
  Rh  Rh200  1  0.80041947  0.00817426  0.00012326  1
  Rh  Rh201  1  0.41344756  -0.00054392  0.39046444  1
  Rh  Rh202  1  0.20037937  -0.00820436  0.80181667  1
  Rh  Rh203  1  0.79219209  0.20538230  0.20127522  1
  Rh  Rh204  1  0.41109514  0.79338225  0.38973002  1
  Rh  Rh205  1  0.20530663  0.20659036  0.79592654  1
  Rh  Rh206  1  0.00507351  0.39705202  0.59725220  1
  Rh  Rh207  1  0.80666119  0.80548145  0.39622066  1
  Rh  Rh208  1  0.39672687  0.79112463  0.81479746  1
  Rh  Rh209  1  0.20136235  -0.00398219  0.39900221  1
  Rh  Rh210  1  0.39412039  0.60120638  0.19846514  1
  Rh  Rh211  1  0.40282054  0.19435777  0.80091127  1
  Rh  Rh212  1  0.00018300  0.19479165  0.19849754  1
  Rh  Rh213  1  0.80482296  0.78898429  0.00863530  1
  Rh  Rh214  1  0.20157230  -0.00241974  0.00130427  1
  Rh  Rh215  1  0.19879590  0.60651994  0.19991781  1
  Rh  Rh216  1  0.20400743  0.60304497  0.79551596  1
  Rh  Rh217  1  0.59810451  0.39626115  0.60010898  1
  Rh  Rh218  1  0.80776466  0.40235463  0.80610898  1
  Rh  Rh219  1  0.60541297  0.20257114  0.80323307  1
  Rh  Rh220  1  0.59799194  0.59402489  -0.00012957  1
  Rh  Rh221  1  0.19903861  0.60341167  -0.00147360  1
  Rh  Rh222  1  0.61043608  0.40452400  0.19212959  1
  Rh  Rh223  1  0.60288365  0.20568384  0.60057339  1
  Rh  Rh224  1  -0.00131160  0.60322677  0.19873575  1
  Rh  Rh225  1  0.60637110  0.80194184  0.19173244  1
  Rh  Rh226  1  -0.01455413  0.58395775  0.79557143  1
  Rh  Rh227  1  0.60779730  0.60842830  0.59113222  1
  Rh  Rh228  1  0.00651093  0.80567402  0.59162805  1
  Rh  Rh229  1  0.60116465  -0.00420283  -0.00332551  1
  Rh  Rh230  1  0.60269270  0.20203931  0.19998203  1
  Rh  Rh231  1  0.59501895  0.39844749  0.79644688  1
  Rh  Rh232  1  0.80362383  0.19943542  -0.00728769  1
  Rh  Rh233  1  0.19845603  0.80434507  0.00463314  1
  Rh  Rh234  1  0.40068157  0.00519677  0.81221394  1
  Rh  Rh235  1  0.20146373  0.80093432  0.20709574  1
  Rh  Rh236  1  0.59060438  -0.01376749  0.60654022  1
  Rh  Rh237  1  0.79446676  0.39775091  0.59478095  1
  Rh  Rh238  1  0.80344946  0.39991214  0.00154160  1
  Rh  Rh239  1  -0.00622588  -0.00356522  0.38599435  1
  Rh  Rh240  1  0.79524358  0.79630290  0.79461214  1
  Rh  Rh241  1  0.20632841  0.19311993  0.20681595  1
  Rh  Rh242  1  0.60265253  -0.00467991  0.80889773  1
  Rh  Rh243  1  0.59826026  0.60275878  0.40417038  1
  Rh  Rh244  1  -0.00321333  0.81044779  0.81176695  1
  Rh  Rh245  1  0.79716495  0.59632673  0.39997507  1
  Rh  Rh246  1  0.19879935  0.20107202  -0.00132802  1
  Rh  Rh247  1  0.80664699  0.39885596  0.40052750  1
  Rh  Rh248  1  0.79291985  -0.00321666  0.20267213  1
  Rh  Rh249  1  0.40097719  0.00143059  0.20466380  1
