# generated using pymatgen
data_ZrScNbPdRh
_symmetry_space_group_name_H-M   'P 1'
_cell_length_a   16.56152393
_cell_length_b   16.56354922
_cell_length_c   16.55450173
_cell_angle_alpha   89.99185742
_cell_angle_beta   89.97923975
_cell_angle_gamma   89.96648103
_symmetry_Int_Tables_number   1
_chemical_formula_structural   ZrScNbPdRh
_chemical_formula_sum   'Zr50 Sc50 Nb50 Pd50 Rh50'
_cell_volume   4541.19033870
_cell_formula_units_Z   50
loop_
 _symmetry_equiv_pos_site_id
 _symmetry_equiv_pos_as_xyz
  1  'x, y, z'
loop_
 _atom_site_type_symbol
 _atom_site_label
 _atom_site_symmetry_multiplicity
 _atom_site_fract_x
 _atom_site_fract_y
 _atom_site_fract_z
 _atom_site_occupancy
  Zr  Zr0  1  0.10164128  0.69549036  0.29777183  1
  Zr  Zr1  1  0.30335570  0.30097375  0.90614492  1
  Zr  Zr2  1  0.09310771  0.10414268  0.70085964  1
  Zr  Zr3  1  0.69373625  0.50208254  0.70063103  1
  Zr  Zr4  1  0.90940504  0.30175685  0.10685795  1
  Zr  Zr5  1  0.29533073  0.10382244  0.09987503  1
  Zr  Zr6  1  0.69893370  0.69889186  0.89611867  1
  Zr  Zr7  1  0.69371760  0.10419376  0.70216269  1
  Zr  Zr8  1  0.89676347  0.90277407  0.49579180  1
  Zr  Zr9  1  0.90373408  0.09861500  0.49466848  1
  Zr  Zr10  1  0.88535220  0.70151973  0.90110086  1
  Zr  Zr11  1  0.49905471  0.09614332  0.70747409  1
  Zr  Zr12  1  0.09877694  0.90030071  0.90556540  1
  Zr  Zr13  1  0.50239956  0.89501925  0.50421175  1
  Zr  Zr14  1  0.49773119  0.49885982  0.89277508  1
  Zr  Zr15  1  0.49614584  0.89644863  0.30006434  1
  Zr  Zr16  1  0.30031288  0.49926872  0.10003591  1
  Zr  Zr17  1  0.89526343  0.71142274  0.10128389  1
  Zr  Zr18  1  0.70386110  0.69476362  0.29467410  1
  Zr  Zr19  1  0.30084337  0.29433857  0.49838587  1
  Zr  Zr20  1  0.90458505  0.09571188  0.10632469  1
  Zr  Zr21  1  0.29691996  0.69726672  0.49929527  1
  Zr  Zr22  1  0.89394378  0.70229398  0.29937518  1
  Zr  Zr23  1  0.29468228  0.29900054  0.09446298  1
  Zr  Zr24  1  0.49931875  0.69192281  0.90290059  1
  Zr  Zr25  1  0.70037753  0.70025613  0.09507558  1
  Zr  Zr26  1  0.10225036  0.91226253  0.70941441  1
  Zr  Zr27  1  0.70649217  0.70108235  0.49666464  1
  Zr  Zr28  1  0.50000952  0.70122591  0.10060595  1
  Zr  Zr29  1  0.29023511  0.90488511  0.10114026  1
  Zr  Zr30  1  0.30344530  0.30766875  0.69561314  1
  Zr  Zr31  1  0.30112797  0.29873985  0.30233635  1
  Zr  Zr32  1  0.90017231  0.29824250  0.90259371  1
  Zr  Zr33  1  0.69437144  0.49225824  0.11378487  1
  Zr  Zr34  1  0.90828347  0.10469947  0.70503592  1
  Zr  Zr35  1  0.30431436  0.90884649  0.29818860  1
  Zr  Zr36  1  0.10096410  0.10786365  0.30177625  1
  Zr  Zr37  1  0.30460507  0.89751849  0.49512254  1
  Zr  Zr38  1  0.71230401  0.10449835  0.30512372  1
  Zr  Zr39  1  0.29009632  0.70618302  0.29896294  1
  Zr  Zr40  1  0.69821818  0.90895726  0.10215769  1
  Zr  Zr41  1  0.10785831  0.69772359  0.90470868  1
  Zr  Zr42  1  0.70840708  0.89932643  0.30396611  1
  Zr  Zr43  1  0.90790020  0.49684412  0.70190779  1
  Zr  Zr44  1  0.10460186  0.49371731  0.69570949  1
  Zr  Zr45  1  0.30199489  0.10049568  0.70436866  1
  Zr  Zr46  1  0.70767120  0.30243028  0.30092241  1
  Zr  Zr47  1  0.89885833  0.89865357  0.91027809  1
  Zr  Zr48  1  0.09628825  0.10764565  0.50115479  1
  Zr  Zr49  1  0.50060594  0.49353604  0.69606227  1
  Sc  Sc50  1  0.50875960  0.09067178  0.09533226  1
  Sc  Sc51  1  0.50128297  0.90428456  0.10870123  1
  Sc  Sc52  1  0.49669580  0.50133362  0.08940929  1
  Sc  Sc53  1  0.09660547  0.29999179  0.69872110  1
  Sc  Sc54  1  0.50476483  0.90268567  0.88838154  1
  Sc  Sc55  1  0.70641859  0.49387325  0.50200621  1
  Sc  Sc56  1  0.89990356  0.90311255  0.70309687  1
  Sc  Sc57  1  0.89864694  0.48541904  0.09976920  1
  Sc  Sc58  1  0.29732756  0.49068000  0.50377252  1
  Sc  Sc59  1  0.49832797  0.31507891  0.10035921  1
  Sc  Sc60  1  0.69861194  0.88873367  0.89870376  1
  Sc  Sc61  1  0.10298741  0.89896968  0.28899227  1
  Sc  Sc62  1  0.90034931  0.30713563  0.49395949  1
  Sc  Sc63  1  0.30550223  0.69936273  0.69582644  1
  Sc  Sc64  1  0.29726033  0.49859891  0.90512338  1
  Sc  Sc65  1  0.28916155  0.69741923  0.09412310  1
  Sc  Sc66  1  0.49809311  0.48707246  0.28116536  1
  Sc  Sc67  1  0.09758446  0.50332099  0.30440321  1
  Sc  Sc68  1  0.10603931  0.70848346  0.10235036  1
  Sc  Sc69  1  0.89547360  0.49171820  0.30382264  1
  Sc  Sc70  1  0.49943361  0.69529229  0.70003139  1
  Sc  Sc71  1  0.09867001  0.29162529  0.09928946  1
  Sc  Sc72  1  0.90285097  0.29882177  0.70707412  1
  Sc  Sc73  1  0.90059762  0.69568994  0.70287647  1
  Sc  Sc74  1  0.09203770  0.29786673  0.29959248  1
  Sc  Sc75  1  0.29836852  0.69664797  0.90103721  1
  Sc  Sc76  1  0.70247434  0.50105836  0.90097379  1
  Sc  Sc77  1  0.29392646  0.50054212  0.30357748  1
  Sc  Sc78  1  0.50039841  0.70614464  0.50920169  1
  Sc  Sc79  1  0.70474732  0.30268759  0.09272206  1
  Sc  Sc80  1  0.50750875  0.11224308  0.50188430  1
  Sc  Sc81  1  0.30676794  0.89839115  0.70658383  1
  Sc  Sc82  1  0.09150525  0.09384364  0.89676929  1
  Sc  Sc83  1  0.09445768  0.91416050  0.49499840  1
  Sc  Sc84  1  0.09903607  0.68649015  0.49439887  1
  Sc  Sc85  1  0.09651738  0.50222027  0.50117857  1
  Sc  Sc86  1  0.49507407  0.29962022  0.50096769  1
  Sc  Sc87  1  0.10727114  0.49633330  0.89353140  1
  Sc  Sc88  1  0.70384564  0.30819768  0.70262599  1
  Sc  Sc89  1  0.10235411  0.68327517  0.69479209  1
  Sc  Sc90  1  0.49772239  0.29582553  0.30555742  1
  Sc  Sc91  1  0.90072238  0.69543942  0.49695024  1
  Sc  Sc92  1  0.69862921  0.29337285  0.49451107  1
  Sc  Sc93  1  0.09991471  0.29795574  0.49837254  1
  Sc  Sc94  1  0.09988689  0.49553083  0.10004856  1
  Sc  Sc95  1  0.28948642  0.89909610  0.89021541  1
  Sc  Sc96  1  0.49738253  0.09696622  0.30313008  1
  Sc  Sc97  1  0.69863206  0.88879767  0.50685519  1
  Sc  Sc98  1  0.10015950  0.09904065  0.09908992  1
  Sc  Sc99  1  0.29883157  0.49562306  0.69671344  1
  Nb  Nb100  1  0.50573449  0.50369902  0.49870182  1
  Nb  Nb101  1  0.89997266  0.50664341  0.49983458  1
  Nb  Nb102  1  0.70271863  0.10169814  0.49835951  1
  Nb  Nb103  1  0.89941622  0.29263608  0.29723749  1
  Nb  Nb104  1  0.90779377  0.90249905  0.10807216  1
  Nb  Nb105  1  0.90499971  0.50347535  0.90161555  1
  Nb  Nb106  1  0.49874922  0.30547132  0.70777256  1
  Nb  Nb107  1  0.70024000  0.49870304  0.30238376  1
  Nb  Nb108  1  0.30845703  0.10288400  0.89902880  1
  Nb  Nb109  1  0.70329389  0.28696390  0.89971686  1
  Nb  Nb110  1  0.08631047  0.90289746  0.09546861  1
  Nb  Nb111  1  0.89859386  0.90526614  0.28818844  1
  Nb  Nb112  1  0.89140820  0.10450266  0.89512791  1
  Nb  Nb113  1  0.11076747  0.29873086  0.90314084  1
  Nb  Nb114  1  0.70537284  0.70695910  0.70129443  1
  Nb  Nb115  1  0.69610496  0.10703597  0.91044335  1
  Nb  Nb116  1  0.50459911  0.90156704  0.69361277  1
  Nb  Nb117  1  0.49755281  0.69974065  0.29747341  1
  Nb  Nb118  1  0.89762600  0.09951975  0.30124462  1
  Nb  Nb119  1  0.29882240  0.10177033  0.49556387  1
  Nb  Nb120  1  0.49760864  0.30197602  0.89875309  1
  Nb  Nb121  1  0.49775784  0.10100223  0.90137225  1
  Nb  Nb122  1  0.69595413  0.09986405  0.09582638  1
  Nb  Nb123  1  0.30156126  0.10156286  0.30053010  1
  Nb  Nb124  1  0.69572032  0.89896640  0.70234677  1
  Nb  Nb125  1  0.59601814  0.59575057  0.39466459  1
  Nb  Nb126  1  0.60626352  0.00007000  0.40440612  1
  Nb  Nb127  1  0.60081579  0.40800097  0.39742393  1
  Nb  Nb128  1  0.19987963  0.39493785  0.20031252  1
  Nb  Nb129  1  0.80087111  0.59609536  0.60354404  1
  Nb  Nb130  1  0.00298867  0.79698452  0.80040034  1
  Nb  Nb131  1  0.79740275  0.00833637  -0.00078407  1
  Nb  Nb132  1  0.39731700  0.60583847  0.20411657  1
  Nb  Nb133  1  -0.00320054  0.80282152  0.39660526  1
  Nb  Nb134  1  0.79310297  0.00464138  0.60487811  1
  Nb  Nb135  1  0.40937668  0.59909972  0.39531371  1
  Nb  Nb136  1  -0.00570195  0.59945746  0.00003983  1
  Nb  Nb137  1  0.59564482  0.20383333  0.81000821  1
  Nb  Nb138  1  0.00672337  0.80127142  0.59955427  1
  Nb  Nb139  1  0.40036956  0.19623028  0.19780272  1
  Nb  Nb140  1  0.39871697  0.00057673  -0.00776851  1
  Nb  Nb141  1  0.39896143  0.80687316  -0.00142834  1
  Nb  Nb142  1  0.79376444  0.00610965  0.80401512  1
  Nb  Nb143  1  -0.00420612  0.60230361  0.19430910  1
  Nb  Nb144  1  0.20461846  0.20064485  0.80567069  1
  Nb  Nb145  1  0.40083048  0.00213618  0.59869423  1
  Nb  Nb146  1  0.80089047  0.19351438  0.59972171  1
  Nb  Nb147  1  0.60192180  0.19884633  0.19725457  1
  Nb  Nb148  1  0.19388804  0.80704232  0.59768767  1
  Nb  Nb149  1  0.20719006  0.00329382  0.59730866  1
  Pd  Pd150  1  0.80906609  0.58974481  0.19352881  1
  Pd  Pd151  1  0.58910721  0.20939550  0.00468736  1
  Pd  Pd152  1  0.79822352  0.59409972  0.79354266  1
  Pd  Pd153  1  0.41192588  0.19607950  0.01097070  1
  Pd  Pd154  1  0.19178268  0.39720969  0.39718468  1
  Pd  Pd155  1  0.59998368  0.79673291  0.39668023  1
  Pd  Pd156  1  0.60592751  0.39388596  0.80907978  1
  Pd  Pd157  1  0.39647302  0.59313050  0.59328978  1
  Pd  Pd158  1  0.41151307  0.00801134  0.41020184  1
  Pd  Pd159  1  0.80417062  0.39739572  0.59820010  1
  Pd  Pd160  1  0.20224774  0.00483906  -0.00758276  1
  Pd  Pd161  1  0.40551949  0.79946073  0.80421860  1
  Pd  Pd162  1  0.20929646  0.59914633  0.79540966  1
  Pd  Pd163  1  0.39315043  0.59423013  0.79696911  1
  Pd  Pd164  1  0.60347404  0.00822451  0.21460080  1
  Pd  Pd165  1  0.00947881  0.40362924  -0.00640883  1
  Pd  Pd166  1  0.59382241  0.79255029  0.79362760  1
  Pd  Pd167  1  0.40416063  0.19726379  0.60138801  1
  Pd  Pd168  1  0.60399468  0.59258983  0.00089313  1
  Pd  Pd169  1  0.00163889  0.79036815  -0.00309196  1
  Pd  Pd170  1  0.80844466  0.19828022  0.01185528  1
  Pd  Pd171  1  0.60282711  0.21263029  0.60895717  1
  Pd  Pd172  1  -0.00048339  0.39574912  0.59529258  1
  Pd  Pd173  1  0.38930511  0.79566292  0.19072197  1
  Pd  Pd174  1  0.19231194  0.00260583  0.20024085  1
  Pd  Pd175  1  0.00527652  0.39475983  0.80703872  1
  Pd  Pd176  1  0.59144206  0.80818700  0.00030633  1
  Pd  Pd177  1  0.80248738  0.58844973  0.01072058  1
  Pd  Pd178  1  -0.00028888  0.40150536  0.39808676  1
  Pd  Pd179  1  0.19972856  0.19941335  0.60621324  1
  Pd  Pd180  1  0.80982944  0.79961589  0.60691452  1
  Pd  Pd181  1  0.40709155  0.40878166  0.40120822  1
  Pd  Pd182  1  0.60717531  0.00411650  0.80913187  1
  Pd  Pd183  1  0.59898408  0.39125519  0.59075078  1
  Pd  Pd184  1  0.00158059  0.60562671  0.80872388  1
  Pd  Pd185  1  0.40040641  0.20774813  0.79932917  1
  Pd  Pd186  1  0.19797810  0.00299683  0.40032838  1
  Pd  Pd187  1  0.60083382  0.00040125  0.59182802  1
  Pd  Pd188  1  0.79673711  0.40101067  -0.00515707  1
  Pd  Pd189  1  0.80067702  0.40176484  0.80672116  1
  Pd  Pd190  1  0.60446834  0.40014210  -0.00849677  1
  Pd  Pd191  1  0.00085550  -0.00400132  0.38569386  1
  Pd  Pd192  1  0.40246109  0.79121620  0.40033936  1
  Pd  Pd193  1  0.79630965  0.20169075  0.19060887  1
  Pd  Pd194  1  0.18635200  0.80602147  0.40665415  1
  Pd  Pd195  1  0.60874031  0.60663852  0.59593302  1
  Pd  Pd196  1  0.59143301  0.59732795  0.20203793  1
  Pd  Pd197  1  0.60648589  0.80094233  0.20185698  1
  Pd  Pd198  1  0.00171259  0.19491752  -0.00378745  1
  Pd  Pd199  1  0.19404266  0.78829846  0.78800271  1
  Rh  Rh200  1  -0.00906938  0.00625836  -0.00213885  1
  Rh  Rh201  1  0.40715809  0.39999240  0.59665493  1
  Rh  Rh202  1  0.19571485  0.40169184  0.00725810  1
  Rh  Rh203  1  0.39504780  0.40426781  0.80262297  1
  Rh  Rh204  1  0.79345150  0.80664321  0.19480260  1
  Rh  Rh205  1  0.39708792  0.60780692  0.00614143  1
  Rh  Rh206  1  0.39883301  0.19456591  0.39569050  1
  Rh  Rh207  1  0.19142295  0.59392425  0.00074335  1
  Rh  Rh208  1  0.59972373  -0.00579161  -0.00856366  1
  Rh  Rh209  1  -0.00717817  0.60292256  0.38915231  1
  Rh  Rh210  1  0.01053612  0.21029235  0.81170288  1
  Rh  Rh211  1  0.00642314  0.00551839  0.20520461  1
  Rh  Rh212  1  0.19717867  0.58940761  0.19738040  1
  Rh  Rh213  1  0.60137445  0.79305185  0.60948346  1
  Rh  Rh214  1  0.40210113  0.40361408  -0.00575935  1
  Rh  Rh215  1  0.19255563  0.18985771  -0.01103428  1
  Rh  Rh216  1  -0.00224991  0.19540078  0.20420076  1
  Rh  Rh217  1  0.60419711  0.38704360  0.20662684  1
  Rh  Rh218  1  -0.01028408  0.20796791  0.59397110  1
  Rh  Rh219  1  0.19577494  0.39642832  0.59574816  1
  Rh  Rh220  1  0.20507658  0.59952642  0.59779939  1
  Rh  Rh221  1  0.79956338  0.00294517  0.19332057  1
  Rh  Rh222  1  0.20310412  0.39084319  0.79923508  1
  Rh  Rh223  1  0.79950422  0.39984153  0.40048664  1
  Rh  Rh224  1  0.00578157  0.40245274  0.20663561  1
  Rh  Rh225  1  0.79491834  -0.00565572  0.40643438  1
  Rh  Rh226  1  0.60285512  0.60437057  0.79632067  1
  Rh  Rh227  1  0.80304442  0.39672047  0.20294293  1
  Rh  Rh228  1  0.38787357  0.39722603  0.19840015  1
  Rh  Rh229  1  -0.01253504  -0.00713586  0.80985942  1
  Rh  Rh230  1  0.80990131  0.20473339  0.40704492  1
  Rh  Rh231  1  0.79533839  0.59279827  0.40637145  1
  Rh  Rh232  1  0.39547318  0.80766190  0.60606439  1
  Rh  Rh233  1  0.39828005  0.00884306  0.19090144  1
  Rh  Rh234  1  0.19776145  0.80841134  0.19522359  1
  Rh  Rh235  1  0.40218254  -0.00607321  0.80071774  1
  Rh  Rh236  1  0.79370786  0.81250639  0.01069916  1
  Rh  Rh237  1  0.79149440  0.19899502  0.79391182  1
  Rh  Rh238  1  0.60180155  0.20000256  0.39015855  1
  Rh  Rh239  1  0.20937770  0.59285349  0.40570301  1
  Rh  Rh240  1  0.00090251  -0.00432138  0.60282077  1
  Rh  Rh241  1  0.00214375  0.79584280  0.20565236  1
  Rh  Rh242  1  -0.00864535  0.60152551  0.59920705  1
  Rh  Rh243  1  -0.00579231  0.20314723  0.39793917  1
  Rh  Rh244  1  0.20512092  0.20529566  0.20601428  1
  Rh  Rh245  1  0.80803881  0.80470232  0.39705123  1
  Rh  Rh246  1  0.20434913  0.80789016  0.00234323  1
  Rh  Rh247  1  0.20370462  0.01216077  0.80068600  1
  Rh  Rh248  1  0.20091858  0.20136286  0.39907493  1
  Rh  Rh249  1  0.80383218  0.80784383  0.79372968  1
