# generated using pymatgen
data_ZrScNbPdRh
_symmetry_space_group_name_H-M   'P 1'
_cell_length_a   16.55997109
_cell_length_b   16.55878813
_cell_length_c   16.56542893
_cell_angle_alpha   89.99634226
_cell_angle_beta   89.99622808
_cell_angle_gamma   89.96623100
_symmetry_Int_Tables_number   1
_chemical_formula_structural   ZrScNbPdRh
_chemical_formula_sum   'Zr50 Sc50 Nb50 Pd50 Rh50'
_cell_volume   4542.45602923
_cell_formula_units_Z   50
loop_
 _symmetry_equiv_pos_site_id
 _symmetry_equiv_pos_as_xyz
  1  'x, y, z'
loop_
 _atom_site_type_symbol
 _atom_site_label
 _atom_site_symmetry_multiplicity
 _atom_site_fract_x
 _atom_site_fract_y
 _atom_site_fract_z
 _atom_site_occupancy
  Zr  Zr0  1  0.50629250  0.70244308  0.10747886  1
  Zr  Zr1  1  0.89298513  0.30025517  0.69872319  1
  Zr  Zr2  1  0.30214760  0.88714115  0.31127642  1
  Zr  Zr3  1  0.10534826  0.30539848  0.70645535  1
  Zr  Zr4  1  0.49614256  0.88969287  0.49962051  1
  Zr  Zr5  1  0.90116481  0.10371441  0.29528057  1
  Zr  Zr6  1  0.91289512  0.50422125  0.30104119  1
  Zr  Zr7  1  0.30062919  0.50654496  0.89539162  1
  Zr  Zr8  1  0.69658705  0.70170106  0.49846887  1
  Zr  Zr9  1  0.70545700  0.09985368  0.30379135  1
  Zr  Zr10  1  0.29971622  0.70040506  0.10673229  1
  Zr  Zr11  1  0.29207234  0.29478629  0.09744046  1
  Zr  Zr12  1  0.29962502  0.89732719  0.90129849  1
  Zr  Zr13  1  0.69936529  0.29963975  0.70587700  1
  Zr  Zr14  1  0.69372955  0.89794250  0.49991634  1
  Zr  Zr15  1  0.69514029  0.70172718  0.69775500  1
  Zr  Zr16  1  0.50069577  0.31136848  0.09962782  1
  Zr  Zr17  1  0.50405217  0.09915876  0.50144742  1
  Zr  Zr18  1  0.49198603  0.09317280  0.10214485  1
  Zr  Zr19  1  0.89719460  0.11029890  0.49653488  1
  Zr  Zr20  1  0.90231238  0.50730286  0.49359475  1
  Zr  Zr21  1  0.30644654  0.10323987  0.28978636  1
  Zr  Zr22  1  0.69851272  0.88599098  0.09087445  1
  Zr  Zr23  1  0.29581396  0.10289289  0.90769036  1
  Zr  Zr24  1  0.50413200  0.90271219  0.91172560  1
  Zr  Zr25  1  0.49956768  0.69629520  0.50512260  1
  Zr  Zr26  1  0.69967936  0.90005585  0.90169716  1
  Zr  Zr27  1  0.30085403  0.89151355  0.51001798  1
  Zr  Zr28  1  0.10132195  0.10240491  0.50193271  1
  Zr  Zr29  1  0.90191160  0.70148426  0.70300106  1
  Zr  Zr30  1  0.31388691  0.90258778  0.09028712  1
  Zr  Zr31  1  0.70487505  0.89729904  0.30314726  1
  Zr  Zr32  1  0.29640638  0.50388158  0.09676669  1
  Zr  Zr33  1  0.88457774  0.10377713  0.69790328  1
  Zr  Zr34  1  0.90848562  0.69459490  0.29467090  1
  Zr  Zr35  1  0.70014133  0.70043945  0.29479023  1
  Zr  Zr36  1  0.30097085  0.50850689  0.50107287  1
  Zr  Zr37  1  0.89448717  0.29389718  0.10073475  1
  Zr  Zr38  1  0.10491849  0.50426699  0.70826204  1
  Zr  Zr39  1  0.10327579  0.29707983  0.89788086  1
  Zr  Zr40  1  0.49099370  0.30353526  0.70136549  1
  Zr  Zr41  1  0.10414272  0.88606329  0.29865606  1
  Zr  Zr42  1  0.10161755  0.10166478  0.29560077  1
  Zr  Zr43  1  0.29945424  0.49444728  0.69847182  1
  Zr  Zr44  1  0.49932450  0.49610947  0.50421858  1
  Zr  Zr45  1  0.10722887  0.69894127  0.10629650  1
  Zr  Zr46  1  0.70085411  0.30706359  0.09994154  1
  Zr  Zr47  1  0.10056087  0.89488187  0.89916219  1
  Zr  Zr48  1  0.70717138  0.09242963  0.50111839  1
  Zr  Zr49  1  0.49635507  0.69891292  0.30317511  1
  Sc  Sc50  1  0.89406378  0.30682754  0.89509404  1
  Sc  Sc51  1  0.71392711  0.10786615  0.09285965  1
  Sc  Sc52  1  0.09723223  0.70016129  0.70601758  1
  Sc  Sc53  1  0.90406015  0.29713906  0.29552128  1
  Sc  Sc54  1  0.30325969  0.09472818  0.51396910  1
  Sc  Sc55  1  0.89972491  0.49760181  0.10256894  1
  Sc  Sc56  1  0.10868506  0.89345163  0.50536025  1
  Sc  Sc57  1  0.69704029  0.30690424  0.29834784  1
  Sc  Sc58  1  0.49624458  0.49722099  0.90275388  1
  Sc  Sc59  1  0.29655905  0.29445724  0.28401253  1
  Sc  Sc60  1  0.49746688  0.69457418  0.69468427  1
  Sc  Sc61  1  0.89265970  0.08817828  0.90542572  1
  Sc  Sc62  1  0.69108708  0.49257904  0.70090521  1
  Sc  Sc63  1  0.90297511  0.70003669  0.49488663  1
  Sc  Sc64  1  0.51030755  0.50431741  0.30036704  1
  Sc  Sc65  1  0.69465742  0.30423791  0.50284888  1
  Sc  Sc66  1  0.10106637  0.09484080  0.09281248  1
  Sc  Sc67  1  0.70085554  0.69665059  0.09514960  1
  Sc  Sc68  1  0.09784447  0.30310031  0.28279911  1
  Sc  Sc69  1  0.10478176  0.70137881  0.51042033  1
  Sc  Sc70  1  0.69828085  0.09655942  0.88827358  1
  Sc  Sc71  1  0.50111695  0.89335349  0.30304832  1
  Sc  Sc72  1  0.09795392  0.50479405  0.49698595  1
  Sc  Sc73  1  0.29998698  0.30200682  0.89730589  1
  Sc  Sc74  1  0.30260459  0.69730758  0.50006376  1
  Sc  Sc75  1  0.89320742  0.69510578  0.09872842  1
  Sc  Sc76  1  0.09767308  0.89766664  0.10278753  1
  Sc  Sc77  1  0.10569191  0.11735036  0.70075214  1
  Sc  Sc78  1  0.90898580  0.88942346  0.29400651  1
  Sc  Sc79  1  0.49712411  0.50163229  0.70443705  1
  Sc  Sc80  1  0.70245790  0.50423575  0.30056613  1
  Sc  Sc81  1  0.69425076  0.49894957  0.10023429  1
  Sc  Sc82  1  0.89397968  0.89924768  0.89833765  1
  Sc  Sc83  1  0.50181937  0.09688278  0.89063135  1
  Sc  Sc84  1  0.70256401  0.90606039  0.69650084  1
  Sc  Sc85  1  0.89335797  0.50253710  0.89951154  1
  Sc  Sc86  1  0.89651615  0.89651338  0.70334085  1
  Sc  Sc87  1  0.30274525  0.30917368  0.51680929  1
  Sc  Sc88  1  0.49886232  0.09823075  0.30090111  1
  Sc  Sc89  1  0.29840126  0.69176020  0.69689600  1
  Sc  Sc90  1  0.50111954  0.90544135  0.69890121  1
  Sc  Sc91  1  0.89524096  0.49911926  0.70786616  1
  Sc  Sc92  1  0.49430913  0.31087303  0.89717302  1
  Sc  Sc93  1  0.88805842  0.90512091  0.49836088  1
  Sc  Sc94  1  0.49881355  0.68689281  0.89853912  1
  Sc  Sc95  1  0.89002328  0.69652306  0.89638304  1
  Sc  Sc96  1  0.10156044  0.88681276  0.69766185  1
  Sc  Sc97  1  0.69072691  0.49796580  0.50151401  1
  Sc  Sc98  1  0.09749192  0.29806155  0.50352352  1
  Sc  Sc99  1  0.28946017  0.69800948  0.90753494  1
  Nb  Nb100  1  0.50234530  0.30441374  0.49501414  1
  Nb  Nb101  1  0.90309292  0.90651209  0.08800080  1
  Nb  Nb102  1  0.50876203  0.89782568  0.09700899  1
  Nb  Nb103  1  0.09678963  0.30486368  0.09097911  1
  Nb  Nb104  1  0.90273075  0.09337688  0.09636135  1
  Nb  Nb105  1  0.69957093  0.69846905  0.90511762  1
  Nb  Nb106  1  0.30203127  0.10155713  0.10259041  1
  Nb  Nb107  1  0.30116968  0.90297096  0.70062594  1
  Nb  Nb108  1  0.69690745  0.50179579  0.90145352  1
  Nb  Nb109  1  0.69357768  0.31121039  0.90231733  1
  Nb  Nb110  1  0.09902150  0.50372226  0.29102250  1
  Nb  Nb111  1  0.89900209  0.30407631  0.50311927  1
  Nb  Nb112  1  0.09678188  0.49255523  0.09926027  1
  Nb  Nb113  1  0.09933849  0.70107631  0.90347607  1
  Nb  Nb114  1  0.29222217  0.69360941  0.29980394  1
  Nb  Nb115  1  0.10936517  0.70439822  0.29079981  1
  Nb  Nb116  1  0.09972839  0.09996559  0.89684191  1
  Nb  Nb117  1  0.49762788  0.49784477  0.10165033  1
  Nb  Nb118  1  0.10510697  0.50429239  0.90345921  1
  Nb  Nb119  1  0.50119517  0.10469188  0.70450097  1
  Nb  Nb120  1  0.31253959  0.10492042  0.70844380  1
  Nb  Nb121  1  0.69235620  0.10188091  0.69926560  1
  Nb  Nb122  1  0.29910071  0.50670604  0.30401826  1
  Nb  Nb123  1  0.29995317  0.29824013  0.70758308  1
  Nb  Nb124  1  0.50050177  0.30137445  0.30022183  1
  Nb  Nb125  1  0.20157793  0.00351680  0.79535485  1
  Nb  Nb126  1  0.59643919  0.19684096  0.60562309  1
  Nb  Nb127  1  0.59915267  0.19864888  0.19528878  1
  Nb  Nb128  1  0.39613032  0.39801168  0.39300741  1
  Nb  Nb129  1  0.60660054  -0.00185030  0.19370300  1
  Nb  Nb130  1  -0.00528289  0.39980782  0.60164564  1
  Nb  Nb131  1  -0.00075161  0.00564645  0.60174702  1
  Nb  Nb132  1  0.20944141  -0.00210162  0.20111558  1
  Nb  Nb133  1  -0.00030303  0.79341441  -0.00204117  1
  Nb  Nb134  1  0.00590456  0.00089482  0.40339833  1
  Nb  Nb135  1  0.00867284  0.59830046  -0.00152925  1
  Nb  Nb136  1  0.00722807  0.00402823  0.79547620  1
  Nb  Nb137  1  0.20396330  0.40122781  0.39219364  1
  Nb  Nb138  1  0.59803525  0.20661347  0.00012184  1
  Nb  Nb139  1  0.39881877  0.40668418  0.20298439  1
  Nb  Nb140  1  0.80418824  -0.00362219  0.19110861  1
  Nb  Nb141  1  0.40306325  0.19922383  0.00495132  1
  Nb  Nb142  1  0.20797496  0.20262729  0.40005369  1
  Nb  Nb143  1  0.59771830  0.79826264  0.80475126  1
  Nb  Nb144  1  0.39951784  0.20922242  0.40258970  1
  Nb  Nb145  1  0.40066498  0.80138098  0.80017499  1
  Nb  Nb146  1  0.20082497  0.00323017  0.39671722  1
  Nb  Nb147  1  0.79846323  0.60219929  0.60057907  1
  Nb  Nb148  1  0.80888320  0.40235584  0.40404975  1
  Nb  Nb149  1  -0.00048214  0.19801454  -0.00213027  1
  Pd  Pd150  1  0.59581567  -0.00375040  0.39276194  1
  Pd  Pd151  1  0.19447778  0.00139308  0.60880877  1
  Pd  Pd152  1  0.20425364  0.40199424  -0.00702350  1
  Pd  Pd153  1  0.00591587  0.39280502  0.40154416  1
  Pd  Pd154  1  -0.01252699  0.19325953  0.80888388  1
  Pd  Pd155  1  0.18999130  0.40465875  0.59279486  1
  Pd  Pd156  1  0.19118748  0.60166161  0.39920866  1
  Pd  Pd157  1  0.20776826  0.79706250  0.79431424  1
  Pd  Pd158  1  0.80329812  0.79627168  0.59758488  1
  Pd  Pd159  1  0.00557678  0.80027862  0.40884367  1
  Pd  Pd160  1  0.00512539  0.19922230  0.18542989  1
  Pd  Pd161  1  0.40380937  0.20293084  0.59667292  1
  Pd  Pd162  1  0.60094045  0.59981152  0.79977628  1
  Pd  Pd163  1  0.40024252  0.80344596  0.20170211  1
  Pd  Pd164  1  -0.00446660  0.59430559  0.60624179  1
  Pd  Pd165  1  0.00251772  -0.00489637  0.20369318  1
  Pd  Pd166  1  0.80680300  0.80304735  0.19237060  1
  Pd  Pd167  1  0.00849130  0.20670354  0.39643771  1
  Pd  Pd168  1  0.80233769  0.41086041  0.59437897  1
  Pd  Pd169  1  -0.00100005  0.60013352  0.80891956  1
  Pd  Pd170  1  0.80491276  0.40558017  0.21046924  1
  Pd  Pd171  1  0.80570798  0.79586284  0.39817690  1
  Pd  Pd172  1  0.40382208  -0.01477544  0.20441177  1
  Pd  Pd173  1  0.40149988  0.60435727  0.00229924  1
  Pd  Pd174  1  0.20324734  0.40656569  0.20212386  1
  Pd  Pd175  1  0.79739694  0.59362404  0.19603408  1
  Pd  Pd176  1  0.39477533  0.00640366  0.40390919  1
  Pd  Pd177  1  0.79991632  0.20131350  -0.01237957  1
  Pd  Pd178  1  0.59887661  0.20152754  0.39958565  1
  Pd  Pd179  1  0.79452084  0.21561266  0.40068242  1
  Pd  Pd180  1  0.40354881  0.59520425  0.20396974  1
  Pd  Pd181  1  0.60911476  0.01460584  0.00541800  1
  Pd  Pd182  1  -0.00182292  0.20396361  0.60624651  1
  Pd  Pd183  1  0.40678472  0.78686673  -0.00626426  1
  Pd  Pd184  1  0.59818412  0.59567479  0.00434139  1
  Pd  Pd185  1  0.60138817  0.59911459  0.40071876  1
  Pd  Pd186  1  -0.00083976  0.40417561  0.80012529  1
  Pd  Pd187  1  0.59648953  0.00103871  0.60357232  1
  Pd  Pd188  1  0.01646650  0.61390593  0.39706478  1
  Pd  Pd189  1  0.20883573  0.20240923  0.59978394  1
  Pd  Pd190  1  -0.00828405  0.81000675  0.59401557  1
  Pd  Pd191  1  0.79809272  0.20027857  0.81002114  1
  Pd  Pd192  1  0.19659283  -0.00444528  0.00288417  1
  Pd  Pd193  1  0.79171288  0.80009637  0.80219296  1
  Pd  Pd194  1  -0.00596300  0.39999681  -0.00380568  1
  Pd  Pd195  1  0.59431087  0.20747938  0.80386336  1
  Pd  Pd196  1  0.78926584  0.59550878  0.79396351  1
  Pd  Pd197  1  0.80063772  0.40776268  -0.00070262  1
  Pd  Pd198  1  0.40595029  -0.00154583  0.60340136  1
  Pd  Pd199  1  0.39777053  -0.00393430  0.80465842  1
  Rh  Rh200  1  0.80198728  0.00075833  0.60300474  1
  Rh  Rh201  1  0.60387350  0.59681078  0.60267930  1
  Rh  Rh202  1  0.41172952  0.21136164  0.19626154  1
  Rh  Rh203  1  0.60324253  0.40316284  0.39617456  1
  Rh  Rh204  1  0.39235306  0.39858305  0.00635722  1
  Rh  Rh205  1  0.39859202  0.79785200  0.61087460  1
  Rh  Rh206  1  0.18796734  0.19271021  0.18989972  1
  Rh  Rh207  1  0.79027494  0.40375111  0.80475158  1
  Rh  Rh208  1  0.59600656  0.40132971  0.20504614  1
  Rh  Rh209  1  0.79305905  0.59585981  0.40612735  1
  Rh  Rh210  1  0.00705799  0.60031314  0.19225964  1
  Rh  Rh211  1  0.39462284  0.40368920  0.79852387  1
  Rh  Rh212  1  0.19514622  0.80192939  0.00856401  1
  Rh  Rh213  1  0.20039769  0.60518137  0.80084375  1
  Rh  Rh214  1  0.81634427  -0.00587454  0.38386098  1
  Rh  Rh215  1  0.20941731  0.19689167  0.79867580  1
  Rh  Rh216  1  0.59620314  0.80452216  0.60729022  1
  Rh  Rh217  1  0.39829659  0.78700078  0.40308813  1
  Rh  Rh218  1  0.19692111  0.59228573  0.19965061  1
  Rh  Rh219  1  0.78651904  0.20305642  0.59499973  1
  Rh  Rh220  1  -0.00418835  0.80349949  0.80852225  1
  Rh  Rh221  1  0.59325727  0.39191346  0.60584759  1
  Rh  Rh222  1  0.60095695  0.80251334  0.20408127  1
  Rh  Rh223  1  0.40081536  0.59609619  0.60210228  1
  Rh  Rh224  1  0.39927779  0.20147142  0.81029221  1
  Rh  Rh225  1  0.20759211  0.79282666  0.60694507  1
  Rh  Rh226  1  0.00406333  -0.00185673  -0.01131008  1
  Rh  Rh227  1  0.60145943  -0.00862953  0.79508861  1
  Rh  Rh228  1  -0.00391660  0.39913242  0.19481560  1
  Rh  Rh229  1  0.59743339  0.40402812  0.80360799  1
  Rh  Rh230  1  0.80872570  0.79526770  -0.00208154  1
  Rh  Rh231  1  0.80015080  0.59502678  -0.00098698  1
  Rh  Rh232  1  0.20397553  0.40139747  0.80661562  1
  Rh  Rh233  1  0.40294305  0.59840322  0.39773654  1
  Rh  Rh234  1  0.59935342  0.40512034  -0.00561636  1
  Rh  Rh235  1  0.59346804  0.78600253  -0.00851619  1
  Rh  Rh236  1  0.40244139  0.00817387  -0.00585008  1
  Rh  Rh237  1  0.60192778  0.60021944  0.19667944  1
  Rh  Rh238  1  0.79206636  -0.00267709  0.00269055  1
  Rh  Rh239  1  -0.00701322  0.79287598  0.18607647  1
  Rh  Rh240  1  0.21322343  0.80971641  0.19350820  1
  Rh  Rh241  1  0.19585261  0.19983121  0.00371463  1
  Rh  Rh242  1  0.40211938  0.40182154  0.60120484  1
  Rh  Rh243  1  0.19434711  0.59831795  0.00378001  1
  Rh  Rh244  1  0.19671843  0.59928403  0.60360683  1
  Rh  Rh245  1  0.19988896  0.79248822  0.40657399  1
  Rh  Rh246  1  0.59899865  0.79698955  0.39758383  1
  Rh  Rh247  1  0.80006699  -0.00065024  0.79434255  1
  Rh  Rh248  1  0.39480656  0.60462313  0.80041373  1
  Rh  Rh249  1  0.79605195  0.19430637  0.20195255  1
