# generated using pymatgen
data_ZrScNbPdRh
_symmetry_space_group_name_H-M   'P 1'
_cell_length_a   16.56492247
_cell_length_b   16.55755769
_cell_length_c   16.55878924
_cell_angle_alpha   89.97903582
_cell_angle_beta   89.98527597
_cell_angle_gamma   89.96767800
_symmetry_Int_Tables_number   1
_chemical_formula_structural   ZrScNbPdRh
_chemical_formula_sum   'Zr50 Sc50 Nb50 Pd50 Rh50'
_cell_volume   4541.65510271
_cell_formula_units_Z   50
loop_
 _symmetry_equiv_pos_site_id
 _symmetry_equiv_pos_as_xyz
  1  'x, y, z'
loop_
 _atom_site_type_symbol
 _atom_site_label
 _atom_site_symmetry_multiplicity
 _atom_site_fract_x
 _atom_site_fract_y
 _atom_site_fract_z
 _atom_site_occupancy
  Zr  Zr0  1  0.89914624  0.10332571  0.50081788  1
  Zr  Zr1  1  0.70877976  0.69650239  0.29694574  1
  Zr  Zr2  1  0.29603162  0.90300925  0.30348378  1
  Zr  Zr3  1  0.49558075  0.70684437  0.09895755  1
  Zr  Zr4  1  0.29745408  0.89172865  0.10604596  1
  Zr  Zr5  1  0.90486811  0.30273294  0.69049525  1
  Zr  Zr6  1  0.49994445  0.09877515  0.70706573  1
  Zr  Zr7  1  0.70704031  0.90100366  0.90477844  1
  Zr  Zr8  1  0.29615185  0.30106740  0.90937261  1
  Zr  Zr9  1  0.09371772  0.49963227  0.69346368  1
  Zr  Zr10  1  0.10194705  0.90002470  0.70355199  1
  Zr  Zr11  1  0.30562957  0.49935001  0.10296827  1
  Zr  Zr12  1  0.30439541  0.09653456  0.89560700  1
  Zr  Zr13  1  0.69928406  0.48921954  0.89786954  1
  Zr  Zr14  1  0.70415638  0.50339206  0.31042688  1
  Zr  Zr15  1  0.90671269  0.70098201  0.49621544  1
  Zr  Zr16  1  0.90462286  0.70127956  0.90075364  1
  Zr  Zr17  1  0.50315016  0.30503421  0.70401709  1
  Zr  Zr18  1  0.30011631  0.10061534  0.49436882  1
  Zr  Zr19  1  0.70083305  0.08527919  0.10274010  1
  Zr  Zr20  1  0.70593565  0.30339293  0.49495925  1
  Zr  Zr21  1  0.30192590  0.49745997  0.49044591  1
  Zr  Zr22  1  0.90070745  0.51458193  0.29704059  1
  Zr  Zr23  1  0.90327179  0.89516490  0.90149795  1
  Zr  Zr24  1  0.49163596  0.29848593  0.48555749  1
  Zr  Zr25  1  0.29137779  0.30562325  0.10249079  1
  Zr  Zr26  1  0.69545420  0.30065925  0.10056490  1
  Zr  Zr27  1  0.29887550  0.68977668  0.50210059  1
  Zr  Zr28  1  0.30132753  0.69922042  0.09734221  1
  Zr  Zr29  1  0.30921156  0.50612167  0.69606337  1
  Zr  Zr30  1  0.89558389  0.09557023  0.09787723  1
  Zr  Zr31  1  0.90680476  0.89073309  0.29093104  1
  Zr  Zr32  1  0.49717442  0.89224876  0.30957701  1
  Zr  Zr33  1  0.90827967  0.10761132  0.69911314  1
  Zr  Zr34  1  0.50292582  0.89957879  0.50313976  1
  Zr  Zr35  1  0.69429014  0.29799034  0.30001975  1
  Zr  Zr36  1  0.50705386  0.09107715  0.89999671  1
  Zr  Zr37  1  0.70209339  0.90109503  0.29289762  1
  Zr  Zr38  1  0.10571513  0.90242807  0.29672666  1
  Zr  Zr39  1  0.70519874  0.09955241  0.50328640  1
  Zr  Zr40  1  0.31748493  0.70497782  0.30169334  1
  Zr  Zr41  1  0.07805656  0.69887774  0.30649046  1
  Zr  Zr42  1  0.10235206  0.89474478  0.09623126  1
  Zr  Zr43  1  0.10192316  0.69908042  0.69123733  1
  Zr  Zr44  1  0.09407196  0.89801320  0.90172752  1
  Zr  Zr45  1  0.30615399  0.30408877  0.70631847  1
  Zr  Zr46  1  0.28648778  0.09709167  0.30667352  1
  Zr  Zr47  1  0.50438112  0.89709242  0.69651733  1
  Zr  Zr48  1  0.50910293  0.90013773  0.09439798  1
  Zr  Zr49  1  0.50386111  0.70207839  0.71234036  1
  Sc  Sc50  1  0.09282485  0.30120148  0.49896113  1
  Sc  Sc51  1  0.10426562  0.10281196  0.49342747  1
  Sc  Sc52  1  0.09899088  0.50841590  0.49677387  1
  Sc  Sc53  1  0.89269944  0.29412618  0.50088855  1
  Sc  Sc54  1  0.90239733  0.50258536  0.10495180  1
  Sc  Sc55  1  0.50377754  0.50567744  0.89628806  1
  Sc  Sc56  1  0.70085170  0.89377460  0.69405946  1
  Sc  Sc57  1  0.50486608  0.31068515  0.10850739  1
  Sc  Sc58  1  0.70027063  0.71090338  0.89203781  1
  Sc  Sc59  1  0.09727569  0.50095693  0.29763035  1
  Sc  Sc60  1  0.50421169  0.50593873  0.70689829  1
  Sc  Sc61  1  0.09124628  0.51467938  0.90333229  1
  Sc  Sc62  1  0.49772061  0.50905517  0.49413492  1
  Sc  Sc63  1  0.69787141  0.09911494  0.70508436  1
  Sc  Sc64  1  0.49902710  0.09277698  0.49372294  1
  Sc  Sc65  1  0.89974843  0.70029912  0.70039774  1
  Sc  Sc66  1  0.69877700  0.10077963  0.29575520  1
  Sc  Sc67  1  0.70016903  0.90392584  0.50491794  1
  Sc  Sc68  1  0.51272763  0.30057450  0.89883763  1
  Sc  Sc69  1  0.09602788  0.70551585  0.90058369  1
  Sc  Sc70  1  0.30926933  0.50543631  0.90819150  1
  Sc  Sc71  1  0.70026161  0.69930821  0.69461551  1
  Sc  Sc72  1  0.30318358  0.70498782  0.69752913  1
  Sc  Sc73  1  0.89649449  0.89911679  0.09097660  1
  Sc  Sc74  1  0.29967088  0.90258653  0.50543086  1
  Sc  Sc75  1  0.89543924  0.49922264  0.70063966  1
  Sc  Sc76  1  0.29021497  0.09576344  0.09781460  1
  Sc  Sc77  1  0.69444148  0.49039981  0.10128551  1
  Sc  Sc78  1  0.89768350  0.50263003  0.89570681  1
  Sc  Sc79  1  0.49781225  0.49722905  0.09987596  1
  Sc  Sc80  1  0.29522504  0.90079017  0.90342807  1
  Sc  Sc81  1  0.89612496  0.90581745  0.50972029  1
  Sc  Sc82  1  0.90094700  0.09055996  0.89854301  1
  Sc  Sc83  1  0.29633633  0.90383703  0.69917941  1
  Sc  Sc84  1  0.49257568  0.49169180  0.29624399  1
  Sc  Sc85  1  0.88726093  0.10590684  0.29702338  1
  Sc  Sc86  1  0.69552644  0.68728688  0.49680143  1
  Sc  Sc87  1  0.50731125  0.09389283  0.09755143  1
  Sc  Sc88  1  0.90363629  0.90394382  0.70015134  1
  Sc  Sc89  1  0.10816223  0.30185484  0.29431409  1
  Sc  Sc90  1  0.30805795  0.69827195  0.90252170  1
  Sc  Sc91  1  0.70127945  0.50401140  0.70054328  1
  Sc  Sc92  1  0.29955456  0.30578095  0.30891268  1
  Sc  Sc93  1  0.89904819  0.70275829  0.11399552  1
  Sc  Sc94  1  0.89575333  0.29786449  0.10173008  1
  Sc  Sc95  1  0.10077692  0.49802042  0.10605524  1
  Sc  Sc96  1  0.09661888  0.90070512  0.51220109  1
  Sc  Sc97  1  0.89216265  0.29712112  0.89125073  1
  Sc  Sc98  1  0.89037783  0.49086263  0.50612181  1
  Sc  Sc99  1  0.70656774  0.30217075  0.70899018  1
  Nb  Nb100  1  0.29903099  0.10434545  0.70167834  1
  Nb  Nb101  1  0.69878559  0.30077175  0.90242400  1
  Nb  Nb102  1  0.69390917  0.10665241  0.90153729  1
  Nb  Nb103  1  0.50730824  0.89090318  0.89780664  1
  Nb  Nb104  1  0.89697059  0.69844473  0.30095155  1
  Nb  Nb105  1  0.50528432  0.70262661  0.89995661  1
  Nb  Nb106  1  0.70056225  0.70616305  0.10026293  1
  Nb  Nb107  1  0.10000714  0.10334902  0.70495877  1
  Nb  Nb108  1  0.49794950  0.29267035  0.29724450  1
  Nb  Nb109  1  0.50548145  0.70069693  0.30660864  1
  Nb  Nb110  1  0.10144693  0.29484629  0.90532802  1
  Nb  Nb111  1  0.10335996  0.69940848  0.50253614  1
  Nb  Nb112  1  0.10346875  0.29403596  0.08955666  1
  Nb  Nb113  1  0.09626067  0.10565932  0.09522271  1
  Nb  Nb114  1  0.29410081  0.49909719  0.29508874  1
  Nb  Nb115  1  0.09667471  0.10629482  0.90621869  1
  Nb  Nb116  1  0.29767533  0.30008253  0.50341075  1
  Nb  Nb117  1  0.89480046  0.29950159  0.30076722  1
  Nb  Nb118  1  0.10398411  0.70077295  0.09839996  1
  Nb  Nb119  1  0.10203672  0.09799231  0.29772756  1
  Nb  Nb120  1  0.48846960  0.10202842  0.30400826  1
  Nb  Nb121  1  0.09920907  0.29903175  0.70317737  1
  Nb  Nb122  1  0.70479113  0.89327741  0.09792672  1
  Nb  Nb123  1  0.69798690  0.49604890  0.49914531  1
  Nb  Nb124  1  0.49422543  0.70261167  0.48061617  1
  Nb  Nb125  1  0.39983171  0.00180023  0.20462031  1
  Nb  Nb126  1  0.60108055  0.39955400  0.59311103  1
  Nb  Nb127  1  0.59500209  0.20600550  0.59793281  1
  Nb  Nb128  1  0.00608230  0.00722595  0.19839283  1
  Nb  Nb129  1  0.39927625  0.19645801  0.20158032  1
  Nb  Nb130  1  0.40164730  0.19980997  0.00545454  1
  Nb  Nb131  1  0.80444797  0.79655104  0.39690954  1
  Nb  Nb132  1  0.19436258  0.79231421  0.40601451  1
  Nb  Nb133  1  0.00036097  0.00425435  0.39154093  1
  Nb  Nb134  1  -0.00914964  0.39802103  0.39266172  1
  Nb  Nb135  1  0.39765095  0.20060103  0.60165148  1
  Nb  Nb136  1  0.20046817  0.59569380  0.79497169  1
  Nb  Nb137  1  0.19408932  0.20022646  0.80046548  1
  Nb  Nb138  1  0.60038494  0.60637309  0.19992936  1
  Nb  Nb139  1  0.00807330  0.39361534  0.80306802  1
  Nb  Nb140  1  0.79151158  0.60461550  0.00371220  1
  Nb  Nb141  1  0.80053126  0.39825022  0.20847474  1
  Nb  Nb142  1  0.20237537  0.39617528  0.60388202  1
  Nb  Nb143  1  0.19490702  0.40185292  0.80146973  1
  Nb  Nb144  1  0.20419803  0.20335877  0.60822751  1
  Nb  Nb145  1  0.60467338  0.60890906  0.00284286  1
  Nb  Nb146  1  0.20383414  0.60452820  0.20335468  1
  Nb  Nb147  1  0.00414607  0.39102450  -0.00266642  1
  Nb  Nb148  1  0.78850582  0.19859429  -0.00428169  1
  Nb  Nb149  1  0.00572809  0.19831877  0.19603190  1
  Pd  Pd150  1  0.41313904  0.60853462  0.60004636  1
  Pd  Pd151  1  0.00903471  0.19769475  0.59418895  1
  Pd  Pd152  1  0.80921558  0.40000976  0.00476731  1
  Pd  Pd153  1  0.60105374  0.78792826  0.59157495  1
  Pd  Pd154  1  0.59281377  0.19366989  0.19671350  1
  Pd  Pd155  1  0.59830915  0.79737967  0.20226747  1
  Pd  Pd156  1  0.59191420  0.40500717  0.39988221  1
  Pd  Pd157  1  0.40070790  0.79476169  0.59633420  1
  Pd  Pd158  1  0.40677282  0.40026560  0.59355853  1
  Pd  Pd159  1  0.40169253  0.00657606  0.60240493  1
  Pd  Pd160  1  0.41143097  0.39322431  -0.00243035  1
  Pd  Pd161  1  0.40071739  -0.00001711  0.00661516  1
  Pd  Pd162  1  -0.00035335  0.81295785  0.41013024  1
  Pd  Pd163  1  -0.00917698  0.59581683  0.59540623  1
  Pd  Pd164  1  0.80797185  -0.00686669  0.39431983  1
  Pd  Pd165  1  0.60317674  0.19080938  0.40348673  1
  Pd  Pd166  1  -0.00850429  0.59953159  0.00868426  1
  Pd  Pd167  1  0.20264295  0.79122839  0.80246275  1
  Pd  Pd168  1  0.40267080  0.20277390  0.80821373  1
  Pd  Pd169  1  0.40434548  0.59836687  0.20251072  1
  Pd  Pd170  1  0.59045426  -0.00109091  0.21015706  1
  Pd  Pd171  1  0.61537020  0.79968195  0.40710145  1
  Pd  Pd172  1  0.00161124  0.20165550  0.38874853  1
  Pd  Pd173  1  0.20212614  0.20082096  0.20144470  1
  Pd  Pd174  1  -0.00300483  0.38968932  0.19807131  1
  Pd  Pd175  1  -0.01621628  0.20400208  -0.00184927  1
  Pd  Pd176  1  0.19569671  0.00064518  -0.00100445  1
  Pd  Pd177  1  0.40064334  -0.01329152  0.79762921  1
  Pd  Pd178  1  0.00251200  0.00167268  0.80032789  1
  Pd  Pd179  1  0.19512301  0.00784240  0.59931025  1
  Pd  Pd180  1  0.19063533  0.41697152  -0.00578712  1
  Pd  Pd181  1  0.80346417  0.80122473  0.79295766  1
  Pd  Pd182  1  0.80193035  0.60146109  0.59659032  1
  Pd  Pd183  1  0.19959731  0.59931308  -0.00080847  1
  Pd  Pd184  1  0.19470820  0.00502405  0.80493589  1
  Pd  Pd185  1  0.19886544  0.60638741  0.38833580  1
  Pd  Pd186  1  0.59713845  0.20118819  0.00715305  1
  Pd  Pd187  1  0.40027208  0.40596057  0.81204266  1
  Pd  Pd188  1  0.18904084  0.39834966  0.40573964  1
  Pd  Pd189  1  0.59225619  0.59864620  0.59742174  1
  Pd  Pd190  1  0.80081472  0.00369027  0.61194937  1
  Pd  Pd191  1  0.60836151  -0.00958395  0.79883884  1
  Pd  Pd192  1  0.79843636  0.00128860  0.79756609  1
  Pd  Pd193  1  0.79980074  0.19586309  0.80181857  1
  Pd  Pd194  1  0.19483648  0.78542031  0.21144148  1
  Pd  Pd195  1  -0.00386188  0.80186233  0.60460615  1
  Pd  Pd196  1  0.39513362  0.80720523  0.80408431  1
  Pd  Pd197  1  0.60271178  0.00323474  0.39639218  1
  Pd  Pd198  1  0.39782716  0.80661294  -0.00616235  1
  Pd  Pd199  1  0.79497783  0.60302570  0.80606031  1
  Rh  Rh200  1  0.79423644  0.19636326  0.39830264  1
  Rh  Rh201  1  0.20501471  0.79963579  0.59492803  1
  Rh  Rh202  1  0.79908892  0.20707247  0.19319215  1
  Rh  Rh203  1  0.18773445  -0.01199344  0.41165506  1
  Rh  Rh204  1  0.39887226  -0.00636713  0.39801342  1
  Rh  Rh205  1  0.60486467  0.80425508  0.79731568  1
  Rh  Rh206  1  0.80471374  0.79159249  0.00145931  1
  Rh  Rh207  1  0.39818100  0.40233390  0.39455722  1
  Rh  Rh208  1  0.20877404  0.19026173  -0.00595881  1
  Rh  Rh209  1  0.60661298  0.60393168  0.80758635  1
  Rh  Rh210  1  0.40855469  0.80881610  0.20025218  1
  Rh  Rh211  1  0.39648887  0.60490312  0.80199224  1
  Rh  Rh212  1  0.19772143  0.00266444  0.18873281  1
  Rh  Rh213  1  0.60305098  0.20343503  0.79580644  1
  Rh  Rh214  1  0.79849526  0.79456665  0.58903577  1
  Rh  Rh215  1  0.78881959  0.39965020  0.60484387  1
  Rh  Rh216  1  0.00299705  0.01053552  0.59618209  1
  Rh  Rh217  1  0.41348326  0.60134224  -0.00148535  1
  Rh  Rh218  1  0.80723848  -0.00940119  0.19940669  1
  Rh  Rh219  1  0.00983194  0.60708314  0.19162437  1
  Rh  Rh220  1  0.80743628  0.40024928  0.79760799  1
  Rh  Rh221  1  0.00158975  0.20184841  0.80781072  1
  Rh  Rh222  1  0.60377656  0.79902232  -0.00373793  1
  Rh  Rh223  1  0.59886349  0.00759392  0.60331652  1
  Rh  Rh224  1  0.39398549  0.38937491  0.20417402  1
  Rh  Rh225  1  0.00297277  0.80100808  0.19060376  1
  Rh  Rh226  1  0.40205430  0.59179900  0.39128785  1
  Rh  Rh227  1  0.79450433  0.00496954  -0.00589295  1
  Rh  Rh228  1  0.59430141  0.59567453  0.39280246  1
  Rh  Rh229  1  -0.00629867  0.59021722  0.40866260  1
  Rh  Rh230  1  -0.00341170  0.79363606  0.00776924  1
  Rh  Rh231  1  0.39085556  0.19995833  0.39734454  1
  Rh  Rh232  1  0.80096595  0.80425735  0.19974089  1
  Rh  Rh233  1  0.79153976  0.19893407  0.60578773  1
  Rh  Rh234  1  0.60655695  -0.00742503  -0.00547696  1
  Rh  Rh235  1  0.59486546  0.40767868  -0.00446543  1
  Rh  Rh236  1  0.00022730  0.79856139  0.79409986  1
  Rh  Rh237  1  0.60604313  0.40807808  0.21146754  1
  Rh  Rh238  1  0.19734701  0.20850519  0.40433316  1
  Rh  Rh239  1  0.00559208  0.59875693  0.79335056  1
  Rh  Rh240  1  0.00302806  0.39858545  0.59416006  1
  Rh  Rh241  1  0.19968687  0.40525774  0.19935607  1
  Rh  Rh242  1  0.38967594  0.80675574  0.41175347  1
  Rh  Rh243  1  0.80709044  0.60348727  0.41181914  1
  Rh  Rh244  1  0.20267188  0.59333881  0.60452852  1
  Rh  Rh245  1  0.80746058  0.40301282  0.39501564  1
  Rh  Rh246  1  0.20202940  0.79521625  -0.00742737  1
  Rh  Rh247  1  0.78887269  0.58959478  0.18876578  1
  Rh  Rh248  1  0.00573938  -0.00116855  0.00302379  1
  Rh  Rh249  1  0.60476299  0.40215368  0.79307721  1
