# generated using pymatgen
data_ZrScNbPdRh
_symmetry_space_group_name_H-M   'P 1'
_cell_length_a   16.55983346
_cell_length_b   16.56559253
_cell_length_c   16.56726741
_cell_angle_alpha   90.01179010
_cell_angle_beta   90.02577215
_cell_angle_gamma   90.03065124
_symmetry_Int_Tables_number   1
_chemical_formula_structural   ZrScNbPdRh
_chemical_formula_sum   'Zr50 Sc50 Nb50 Pd50 Rh50'
_cell_volume   4544.78880372
_cell_formula_units_Z   50
loop_
 _symmetry_equiv_pos_site_id
 _symmetry_equiv_pos_as_xyz
  1  'x, y, z'
loop_
 _atom_site_type_symbol
 _atom_site_label
 _atom_site_symmetry_multiplicity
 _atom_site_fract_x
 _atom_site_fract_y
 _atom_site_fract_z
 _atom_site_occupancy
  Zr  Zr0  1  0.89432681  0.90960300  0.90212165  1
  Zr  Zr1  1  0.90510029  0.10444041  0.08821136  1
  Zr  Zr2  1  0.10401086  0.70336541  0.70283800  1
  Zr  Zr3  1  0.71087511  0.11161929  0.89605518  1
  Zr  Zr4  1  0.30219466  0.89593973  0.71231706  1
  Zr  Zr5  1  0.09525779  0.29345630  0.10399241  1
  Zr  Zr6  1  0.09366958  0.69929164  0.50119886  1
  Zr  Zr7  1  0.10143759  0.69371849  0.29152399  1
  Zr  Zr8  1  0.49253900  0.90139898  0.90411817  1
  Zr  Zr9  1  0.29881446  0.10489508  0.49964454  1
  Zr  Zr10  1  0.09470924  0.89519389  0.50964490  1
  Zr  Zr11  1  0.88593220  0.50176323  0.30063405  1
  Zr  Zr12  1  0.30373691  0.09341833  0.30184119  1
  Zr  Zr13  1  0.48767211  0.90214957  0.29425064  1
  Zr  Zr14  1  0.89996942  0.90203432  0.30154942  1
  Zr  Zr15  1  0.89386334  0.10466690  0.29819871  1
  Zr  Zr16  1  0.10642544  0.08986007  0.51703205  1
  Zr  Zr17  1  0.10884666  0.88887817  0.31977941  1
  Zr  Zr18  1  0.90714902  0.50058485  0.51377267  1
  Zr  Zr19  1  0.49231848  0.29877588  0.69987262  1
  Zr  Zr20  1  0.69896210  0.10568784  0.10729707  1
  Zr  Zr21  1  0.69993275  0.68554532  0.29955756  1
  Zr  Zr22  1  0.50460032  0.10434816  0.70262106  1
  Zr  Zr23  1  0.71143498  0.50607960  0.70633511  1
  Zr  Zr24  1  0.69650106  0.69821295  0.49793899  1
  Zr  Zr25  1  0.49571201  0.29904380  0.89631867  1
  Zr  Zr26  1  0.90482148  0.70514534  0.90608716  1
  Zr  Zr27  1  0.09620358  0.89600795  0.89042666  1
  Zr  Zr28  1  0.89448470  0.30045096  0.90543216  1
  Zr  Zr29  1  0.70431795  0.90544438  0.29357447  1
  Zr  Zr30  1  0.28916117  0.49711563  0.29795426  1
  Zr  Zr31  1  0.31378499  0.50110245  0.90175330  1
  Zr  Zr32  1  0.68701995  0.69764786  0.69777324  1
  Zr  Zr33  1  0.28515929  0.91188768  0.48482352  1
  Zr  Zr34  1  0.51028872  0.30076452  0.29971142  1
  Zr  Zr35  1  0.10308386  0.51133648  0.10581554  1
  Zr  Zr36  1  0.30022060  0.49609385  0.09073981  1
  Zr  Zr37  1  0.50590861  0.69926610  0.50893332  1
  Zr  Zr38  1  0.30052183  0.49557788  0.50307291  1
  Zr  Zr39  1  0.09903930  0.30073460  0.29780471  1
  Zr  Zr40  1  0.49107773  0.30420730  0.50668065  1
  Zr  Zr41  1  0.29120260  0.28910863  0.29659474  1
  Zr  Zr42  1  0.49931931  0.88932680  0.69680004  1
  Zr  Zr43  1  0.09230127  0.69806729  0.08856827  1
  Zr  Zr44  1  0.69680539  0.49065514  0.30011945  1
  Zr  Zr45  1  0.90238656  0.69676613  0.09858980  1
  Zr  Zr46  1  0.29338076  0.90701765  0.90326391  1
  Zr  Zr47  1  0.90596194  0.69896331  0.50241720  1
  Zr  Zr48  1  0.49591259  0.69713962  0.31145867  1
  Zr  Zr49  1  0.50448611  0.50201938  0.29790836  1
  Sc  Sc50  1  0.70813753  0.29480889  0.70642827  1
  Sc  Sc51  1  0.69765830  0.30150270  0.49445227  1
  Sc  Sc52  1  0.89946526  0.30043795  0.50949427  1
  Sc  Sc53  1  0.29779858  0.09551583  0.89804153  1
  Sc  Sc54  1  0.69820599  0.50168088  0.10814851  1
  Sc  Sc55  1  0.70771505  0.11026309  0.49866222  1
  Sc  Sc56  1  0.49757058  0.69995250  0.09772032  1
  Sc  Sc57  1  0.09401819  0.29064588  0.50593361  1
  Sc  Sc58  1  0.89981459  0.49627791  0.09440649  1
  Sc  Sc59  1  0.30570882  0.09840933  0.10073647  1
  Sc  Sc60  1  0.70449374  0.10846106  0.70387267  1
  Sc  Sc61  1  0.89536299  0.90090864  0.09042625  1
  Sc  Sc62  1  0.89940158  0.48831419  0.89568906  1
  Sc  Sc63  1  0.30766657  0.69112416  0.50309836  1
  Sc  Sc64  1  0.70740174  0.50005089  0.49973662  1
  Sc  Sc65  1  0.50268807  0.11285373  0.49933172  1
  Sc  Sc66  1  0.49577001  0.50783443  0.49911632  1
  Sc  Sc67  1  0.09836684  0.11360958  0.29857868  1
  Sc  Sc68  1  0.49915737  0.28772791  0.09884482  1
  Sc  Sc69  1  0.90978195  0.90013047  0.49541108  1
  Sc  Sc70  1  0.29940066  0.31052831  0.89279652  1
  Sc  Sc71  1  0.89253377  0.69961112  0.30045375  1
  Sc  Sc72  1  0.50133815  0.68770976  0.90730159  1
  Sc  Sc73  1  0.70860794  0.50218817  0.89742252  1
  Sc  Sc74  1  0.69816836  0.89077986  0.70813270  1
  Sc  Sc75  1  0.29904366  0.69804219  0.88831913  1
  Sc  Sc76  1  0.10952650  0.49811251  0.90497345  1
  Sc  Sc77  1  0.10026788  0.09498850  0.89754808  1
  Sc  Sc78  1  0.90980417  0.90196618  0.70737522  1
  Sc  Sc79  1  0.90567345  0.10420537  0.50096410  1
  Sc  Sc80  1  0.50093743  0.89308018  0.49496085  1
  Sc  Sc81  1  0.09767783  0.49388554  0.69888778  1
  Sc  Sc82  1  0.49584630  0.90016713  0.09928147  1
  Sc  Sc83  1  0.70109999  0.89601529  0.49560839  1
  Sc  Sc84  1  0.29372785  0.70067812  0.10156804  1
  Sc  Sc85  1  0.30104911  0.50721188  0.70593351  1
  Sc  Sc86  1  0.30715061  0.89799897  0.09798494  1
  Sc  Sc87  1  0.49362630  0.10797011  0.90068672  1
  Sc  Sc88  1  0.29656756  0.71166329  0.29955375  1
  Sc  Sc89  1  0.69885385  0.70374302  0.89562795  1
  Sc  Sc90  1  0.28279460  0.10223998  0.70187692  1
  Sc  Sc91  1  0.50136895  0.50626271  0.08838647  1
  Sc  Sc92  1  0.49903986  0.09782108  0.10291762  1
  Sc  Sc93  1  0.50189095  0.10327671  0.28713843  1
  Sc  Sc94  1  0.09808998  0.30463451  0.88870868  1
  Sc  Sc95  1  0.10769358  0.90249645  0.08061563  1
  Sc  Sc96  1  0.89753114  0.69244443  0.69992553  1
  Sc  Sc97  1  0.09943623  0.10015070  0.09638637  1
  Sc  Sc98  1  0.69248490  0.69374236  0.09838788  1
  Sc  Sc99  1  0.70284692  0.90437059  0.09943499  1
  Nb  Nb100  1  0.30410596  0.70405178  0.69965522  1
  Nb  Nb101  1  0.29779628  0.90336199  0.29716291  1
  Nb  Nb102  1  0.30327291  0.30050194  0.50501802  1
  Nb  Nb103  1  0.70886976  0.29709042  0.28601330  1
  Nb  Nb104  1  0.10392563  0.29275539  0.70248246  1
  Nb  Nb105  1  0.70094582  0.30320540  0.90092920  1
  Nb  Nb106  1  0.89647857  0.30088478  0.10115277  1
  Nb  Nb107  1  0.29159102  0.30460152  0.69564352  1
  Nb  Nb108  1  0.90251275  0.49501053  0.70398390  1
  Nb  Nb109  1  0.90275834  0.09762870  0.89293404  1
  Nb  Nb110  1  0.09829271  0.49677431  0.30068704  1
  Nb  Nb111  1  0.29933006  0.29787416  0.10047606  1
  Nb  Nb112  1  0.90371313  0.10761759  0.71062438  1
  Nb  Nb113  1  0.91747978  0.30899295  0.70579416  1
  Nb  Nb114  1  0.09273476  0.69947769  0.90078142  1
  Nb  Nb115  1  0.90038386  0.30232966  0.29277060  1
  Nb  Nb116  1  0.49866904  0.49529249  0.90173658  1
  Nb  Nb117  1  0.69861569  0.09971389  0.29553410  1
  Nb  Nb118  1  0.69998641  0.90555610  0.90157069  1
  Nb  Nb119  1  0.71093600  0.29939635  0.09281478  1
  Nb  Nb120  1  0.09504309  0.10750802  0.70423732  1
  Nb  Nb121  1  0.49812503  0.69670365  0.69547262  1
  Nb  Nb122  1  0.09761124  0.49920206  0.49989426  1
  Nb  Nb123  1  0.10447956  0.90573151  0.69896027  1
  Nb  Nb124  1  0.50649395  0.50430025  0.70339543  1
  Nb  Nb125  1  0.80121182  0.80239454  0.60104154  1
  Nb  Nb126  1  0.59858242  0.40067554  0.80152922  1
  Nb  Nb127  1  0.60113694  -0.00038869  0.80356967  1
  Nb  Nb128  1  0.00552380  -0.00701836  0.20192256  1
  Nb  Nb129  1  -0.00251482  0.39958551  0.20423266  1
  Nb  Nb130  1  0.80376926  0.60125549  -0.00216967  1
  Nb  Nb131  1  0.20387347  0.80022703  0.60633468  1
  Nb  Nb132  1  0.59832021  0.79995313  0.20645405  1
  Nb  Nb133  1  0.00243980  0.59873845  0.80379619  1
  Nb  Nb134  1  0.60319168  0.39476512  -0.00745698  1
  Nb  Nb135  1  0.19740727  -0.00596180  0.20551351  1
  Nb  Nb136  1  0.40099954  0.00023284  0.60017298  1
  Nb  Nb137  1  0.20045736  0.39464669  0.59877077  1
  Nb  Nb138  1  0.79940633  -0.00194981  0.60500110  1
  Nb  Nb139  1  0.39747861  0.39817801  0.19978962  1
  Nb  Nb140  1  0.00111829  0.40340457  0.39647918  1
  Nb  Nb141  1  0.20241438  0.20596756  0.00025206  1
  Nb  Nb142  1  0.39404665  0.39563276  0.39485696  1
  Nb  Nb143  1  0.60257963  0.00045797  0.60052453  1
  Nb  Nb144  1  0.60497194  0.00227823  -0.00878004  1
  Nb  Nb145  1  0.39629828  0.59423391  0.20203797  1
  Nb  Nb146  1  0.59776993  0.40447879  0.61054222  1
  Nb  Nb147  1  0.19147925  0.59353563  0.40117879  1
  Nb  Nb148  1  0.60483012  0.00598514  0.39529527  1
  Nb  Nb149  1  0.00297638  0.80755547  0.19789443  1
  Pd  Pd150  1  0.19165417  0.80867216  0.19053729  1
  Pd  Pd151  1  0.00753272  0.20167438  -0.01273251  1
  Pd  Pd152  1  0.60291405  0.80734437  0.00649967  1
  Pd  Pd153  1  0.19445961  0.39138034  0.00084428  1
  Pd  Pd154  1  0.20471632  0.79326454  -0.00844561  1
  Pd  Pd155  1  0.79443922  0.39368926  0.60677582  1
  Pd  Pd156  1  0.59065236  0.79968169  0.80863693  1
  Pd  Pd157  1  0.40390720  0.20344070  0.39213644  1
  Pd  Pd158  1  0.81041795  0.00525564  0.19044840  1
  Pd  Pd159  1  0.60555819  0.19742626  0.39406686  1
  Pd  Pd160  1  0.39255491  0.79169029  -0.00339201  1
  Pd  Pd161  1  0.00664662  0.40223104  0.00566718  1
  Pd  Pd162  1  -0.00358386  0.20491145  0.40324281  1
  Pd  Pd163  1  0.19567466  0.59621494  0.80263127  1
  Pd  Pd164  1  0.80656658  0.39233322  0.40456706  1
  Pd  Pd165  1  0.40185827  0.59430136  0.60830722  1
  Pd  Pd166  1  -0.01018289  0.59692452  0.20489517  1
  Pd  Pd167  1  0.79419957  -0.00083945  0.79085431  1
  Pd  Pd168  1  0.79014538  0.79366994  0.00326632  1
  Pd  Pd169  1  0.80794530  0.20000258  0.60682358  1
  Pd  Pd170  1  0.40961110  0.78845013  0.80893104  1
  Pd  Pd171  1  0.40063559  0.40548218  0.79104969  1
  Pd  Pd172  1  -0.01078329  0.00463909  0.60819027  1
  Pd  Pd173  1  0.80335768  0.79640072  0.79476035  1
  Pd  Pd174  1  0.19384174  0.19817135  0.40943941  1
  Pd  Pd175  1  0.59509462  0.39234292  0.18313455  1
  Pd  Pd176  1  0.60712965  0.20570543  0.60140360  1
  Pd  Pd177  1  0.38997895  0.20098949  -0.00387564  1
  Pd  Pd178  1  0.60239630  0.80789003  0.39128324  1
  Pd  Pd179  1  0.40402877  0.00655092  0.79444435  1
  Pd  Pd180  1  0.41413572  0.00673513  0.40754227  1
  Pd  Pd181  1  0.38406910  0.19707011  0.79510518  1
  Pd  Pd182  1  -0.00390511  0.79583337  0.79548325  1
  Pd  Pd183  1  0.79723170  0.79522437  0.19309757  1
  Pd  Pd184  1  0.39121670  0.80002120  0.40806957  1
  Pd  Pd185  1  0.79940176  0.60585701  0.59971053  1
  Pd  Pd186  1  0.19609939  0.39658387  0.41056871  1
  Pd  Pd187  1  0.80084608  0.20917793  0.39652083  1
  Pd  Pd188  1  0.20629130  0.60715953  -0.00863348  1
  Pd  Pd189  1  -0.00139934  0.59590553  0.39326461  1
  Pd  Pd190  1  0.59699666  0.59637416  0.80788514  1
  Pd  Pd191  1  0.19707765  0.59927684  0.59863414  1
  Pd  Pd192  1  0.59447417  0.40395453  0.41255966  1
  Pd  Pd193  1  0.39081132  0.19030527  0.61080735  1
  Pd  Pd194  1  0.80334490  0.79876185  0.40603775  1
  Pd  Pd195  1  0.60080904  0.19757511  -0.00083330  1
  Pd  Pd196  1  0.79633517  0.00373712  0.41074741  1
  Pd  Pd197  1  0.19692424  0.39864868  0.19134598  1
  Pd  Pd198  1  0.00719053  0.00999393  0.39441647  1
  Pd  Pd199  1  0.38834464  0.80944538  0.58836446  1
  Rh  Rh200  1  0.79916614  0.39256273  0.79587434  1
  Rh  Rh201  1  -0.01029792  0.19828163  0.19780887  1
  Rh  Rh202  1  0.19877976  0.20677218  0.59936614  1
  Rh  Rh203  1  0.60568313  0.20723840  0.19734493  1
  Rh  Rh204  1  0.39885079  0.20340952  0.20295489  1
  Rh  Rh205  1  0.60750487  0.80517162  0.59928327  1
  Rh  Rh206  1  0.00595270  0.40585678  0.80023060  1
  Rh  Rh207  1  0.00862808  0.39647255  0.59906679  1
  Rh  Rh208  1  0.41069311  0.39160115  0.00910860  1
  Rh  Rh209  1  0.19773461  0.79907406  0.80045082  1
  Rh  Rh210  1  0.81389692  0.60397773  0.80924468  1
  Rh  Rh211  1  0.18860078  0.01358985  0.39127946  1
  Rh  Rh212  1  0.20472987  0.78367969  0.41551294  1
  Rh  Rh213  1  0.79134535  0.40905293  0.00617440  1
  Rh  Rh214  1  -0.00663457  0.58734836  -0.01357018  1
  Rh  Rh215  1  0.19243672  0.00258676  0.79807638  1
  Rh  Rh216  1  0.40487805  0.79108026  0.20024608  1
  Rh  Rh217  1  0.80437750  0.19897375  0.19626240  1
  Rh  Rh218  1  -0.00638185  0.79108318  0.38896308  1
  Rh  Rh219  1  0.20703730  0.60322719  0.20347836  1
  Rh  Rh220  1  0.20930585  -0.00949966  0.61078100  1
  Rh  Rh221  1  0.40573113  0.00388562  0.00131515  1
  Rh  Rh222  1  0.20088792  0.40377390  0.79139827  1
  Rh  Rh223  1  0.59733635  -0.00803065  0.19902379  1
  Rh  Rh224  1  0.20584971  0.01027022  0.00569037  1
  Rh  Rh225  1  0.39360101  0.60494283  0.00398268  1
  Rh  Rh226  1  0.61213518  0.58792774  -0.00593331  1
  Rh  Rh227  1  0.60095093  0.59153763  0.59708252  1
  Rh  Rh228  1  0.79407872  0.01070378  -0.00013891  1
  Rh  Rh229  1  0.39333783  -0.00068680  0.19486364  1
  Rh  Rh230  1  0.81276479  0.21006223  0.79921593  1
  Rh  Rh231  1  0.19873256  0.20173425  0.80814038  1
  Rh  Rh232  1  0.58883828  0.60953583  0.20077192  1
  Rh  Rh233  1  0.38662184  0.59293524  0.38960413  1
  Rh  Rh234  1  0.00511668  0.00457375  0.79825922  1
  Rh  Rh235  1  0.40736593  0.60405689  0.79631350  1
  Rh  Rh236  1  -0.00119340  -0.00210558  -0.00238303  1
  Rh  Rh237  1  0.60007569  0.20316051  0.80266932  1
  Rh  Rh238  1  0.00246606  0.59607319  0.61386519  1
  Rh  Rh239  1  0.80270965  0.39859646  0.19375925  1
  Rh  Rh240  1  0.60557389  0.59125444  0.40646440  1
  Rh  Rh241  1  -0.00075433  0.80035613  0.60944096  1
  Rh  Rh242  1  0.39901331  0.40635060  0.60299782  1
  Rh  Rh243  1  0.20463575  0.18659462  0.18921924  1
  Rh  Rh244  1  0.80395975  0.19794011  -0.00115422  1
  Rh  Rh245  1  0.80136390  0.59916506  0.19003220  1
  Rh  Rh246  1  -0.00195033  0.20248912  0.80477498  1
  Rh  Rh247  1  -0.00343083  0.19624955  0.60704005  1
  Rh  Rh248  1  0.00000101  0.81122465  0.00229683  1
  Rh  Rh249  1  0.80120623  0.59761548  0.40759869  1
