# generated using pymatgen
data_ZrScNbPdRh
_symmetry_space_group_name_H-M   'P 1'
_cell_length_a   16.55643927
_cell_length_b   16.55865985
_cell_length_c   16.55675393
_cell_angle_alpha   89.98643202
_cell_angle_beta   90.00862267
_cell_angle_gamma   90.02395367
_symmetry_Int_Tables_number   1
_chemical_formula_structural   ZrScNbPdRh
_chemical_formula_sum   'Zr50 Sc50 Nb50 Pd50 Rh50'
_cell_volume   4539.07401542
_cell_formula_units_Z   50
loop_
 _symmetry_equiv_pos_site_id
 _symmetry_equiv_pos_as_xyz
  1  'x, y, z'
loop_
 _atom_site_type_symbol
 _atom_site_label
 _atom_site_symmetry_multiplicity
 _atom_site_fract_x
 _atom_site_fract_y
 _atom_site_fract_z
 _atom_site_occupancy
  Zr  Zr0  1  0.09617109  0.30375497  0.70899638  1
  Zr  Zr1  1  0.50010589  0.10524005  0.50329388  1
  Zr  Zr2  1  0.49281258  0.90205582  0.29321105  1
  Zr  Zr3  1  0.70548566  0.88981371  0.09508526  1
  Zr  Zr4  1  0.90106031  0.30189123  0.30402290  1
  Zr  Zr5  1  0.50331480  0.50805650  0.69545782  1
  Zr  Zr6  1  0.30394248  0.69935858  0.30126556  1
  Zr  Zr7  1  0.29693890  0.69697005  0.08582054  1
  Zr  Zr8  1  0.90050740  0.50001719  0.29906558  1
  Zr  Zr9  1  0.89718171  0.10360092  0.30311336  1
  Zr  Zr10  1  0.70947203  0.30425923  0.28830790  1
  Zr  Zr11  1  0.30850648  0.30455363  0.10275321  1
  Zr  Zr12  1  0.29488310  0.30390151  0.70798340  1
  Zr  Zr13  1  0.10398210  0.69951465  0.90332878  1
  Zr  Zr14  1  0.50217211  0.29656499  0.30229740  1
  Zr  Zr15  1  0.90458976  0.89734987  0.90894526  1
  Zr  Zr16  1  0.30239494  0.30442150  0.50074498  1
  Zr  Zr17  1  0.90761390  0.30120966  0.89606386  1
  Zr  Zr18  1  0.09822036  0.89455242  0.89583534  1
  Zr  Zr19  1  0.89803331  0.69517132  0.70149293  1
  Zr  Zr20  1  0.29774034  0.49727236  0.30189722  1
  Zr  Zr21  1  0.69080978  0.50637456  0.89971576  1
  Zr  Zr22  1  0.90011951  0.50345356  0.89821020  1
  Zr  Zr23  1  0.70286498  0.69926628  0.90324367  1
  Zr  Zr24  1  0.09917395  0.30557630  0.49981255  1
  Zr  Zr25  1  0.30260397  0.10047182  0.29604286  1
  Zr  Zr26  1  0.91034024  0.89952076  0.70811700  1
  Zr  Zr27  1  0.30487957  0.50367187  0.91014735  1
  Zr  Zr28  1  0.09651793  0.69645054  0.70212241  1
  Zr  Zr29  1  0.69851960  0.10432963  0.69554342  1
  Zr  Zr30  1  0.49520571  0.70098497  0.29915828  1
  Zr  Zr31  1  0.10985265  0.29740489  0.09181810  1
  Zr  Zr32  1  0.90355584  0.69745815  0.50383995  1
  Zr  Zr33  1  0.09634518  0.90228404  0.09513139  1
  Zr  Zr34  1  0.69562601  0.68690816  0.29071178  1
  Zr  Zr35  1  0.30157265  0.70532784  0.69793212  1
  Zr  Zr36  1  0.30573367  0.29796745  0.29672375  1
  Zr  Zr37  1  0.89348822  0.29782266  0.11031073  1
  Zr  Zr38  1  0.29952077  0.09972549  0.70695592  1
  Zr  Zr39  1  0.89957603  0.89571715  0.29245311  1
  Zr  Zr40  1  0.10319873  0.70060977  0.50216282  1
  Zr  Zr41  1  0.69887529  0.69524670  0.09335800  1
  Zr  Zr42  1  0.30227562  0.70107955  0.89085087  1
  Zr  Zr43  1  0.30240279  0.89928361  0.30039532  1
  Zr  Zr44  1  0.29741574  0.30093495  0.89636517  1
  Zr  Zr45  1  0.90170380  0.10632788  0.69847517  1
  Zr  Zr46  1  0.09815958  0.68972700  0.30082493  1
  Zr  Zr47  1  0.30315847  0.09833151  0.50026889  1
  Zr  Zr48  1  0.89266430  0.89429261  0.48980728  1
  Zr  Zr49  1  0.09950686  0.09082758  0.70171864  1
  Sc  Sc50  1  0.90006962  0.50934808  0.09967970  1
  Sc  Sc51  1  0.49589783  0.90082227  0.10306473  1
  Sc  Sc52  1  0.69540398  0.49877046  0.50269436  1
  Sc  Sc53  1  0.71700684  0.69585058  0.50236875  1
  Sc  Sc54  1  0.70229727  0.49758517  0.30502464  1
  Sc  Sc55  1  0.29087990  0.89553770  0.50821240  1
  Sc  Sc56  1  0.90420831  0.09999129  0.89885537  1
  Sc  Sc57  1  0.49176148  0.10292968  0.89962180  1
  Sc  Sc58  1  0.30360346  0.90817388  0.10127750  1
  Sc  Sc59  1  0.70480249  0.09833975  0.29866761  1
  Sc  Sc60  1  0.09728363  0.09529228  0.50760249  1
  Sc  Sc61  1  0.48810348  0.69207493  0.50405078  1
  Sc  Sc62  1  0.09441219  0.69781000  0.09292209  1
  Sc  Sc63  1  0.90198564  0.29494968  0.49562405  1
  Sc  Sc64  1  0.30044906  0.50662375  0.50157547  1
  Sc  Sc65  1  0.69770061  0.49777077  0.69601365  1
  Sc  Sc66  1  0.50528671  0.29704769  0.50282935  1
  Sc  Sc67  1  0.90246802  0.50554704  0.70031482  1
  Sc  Sc68  1  0.51336586  0.50944513  0.30312890  1
  Sc  Sc69  1  0.89206626  0.50525753  0.50204436  1
  Sc  Sc70  1  0.70134956  0.90864377  0.70231358  1
  Sc  Sc71  1  0.89992423  0.69470843  0.29747080  1
  Sc  Sc72  1  0.10068173  0.10192719  0.91088873  1
  Sc  Sc73  1  0.70633612  0.89622863  0.90314787  1
  Sc  Sc74  1  0.09891870  0.50368514  0.70703216  1
  Sc  Sc75  1  0.50530061  0.69031581  0.89859842  1
  Sc  Sc76  1  0.49019979  0.69835496  0.69999066  1
  Sc  Sc77  1  0.69705087  0.10628982  0.50208872  1
  Sc  Sc78  1  0.10212527  0.90048462  0.29761336  1
  Sc  Sc79  1  0.29202652  0.89403156  0.89604857  1
  Sc  Sc80  1  0.48248311  0.09568519  0.10147080  1
  Sc  Sc81  1  0.29871811  0.10303267  0.90566863  1
  Sc  Sc82  1  0.90914387  0.09221559  0.09645922  1
  Sc  Sc83  1  0.10215033  0.31051874  0.31170612  1
  Sc  Sc84  1  0.30044381  0.50095041  0.70539440  1
  Sc  Sc85  1  0.49182896  0.30254949  0.69732019  1
  Sc  Sc86  1  0.70348588  0.09491353  0.10567294  1
  Sc  Sc87  1  0.09869845  0.30533237  0.89999071  1
  Sc  Sc88  1  0.89512216  0.70052198  0.10254704  1
  Sc  Sc89  1  0.10462569  0.50303935  0.49051820  1
  Sc  Sc90  1  0.49115856  0.90349289  0.50652860  1
  Sc  Sc91  1  0.89457608  0.30008990  0.70498998  1
  Sc  Sc92  1  0.29778562  0.69836692  0.49849524  1
  Sc  Sc93  1  0.49247543  0.30576450  0.90037805  1
  Sc  Sc94  1  0.49553837  0.89736463  0.69650863  1
  Sc  Sc95  1  0.69303359  0.30509898  0.50264321  1
  Sc  Sc96  1  0.70271121  0.09280136  0.89384700  1
  Sc  Sc97  1  0.71005957  0.90413159  0.29434468  1
  Sc  Sc98  1  0.69614903  0.30902738  0.89035136  1
  Sc  Sc99  1  0.69510880  0.50218453  0.10646603  1
  Nb  Nb100  1  0.49972667  0.50383826  0.90020512  1
  Nb  Nb101  1  0.28232001  0.11067793  0.10785088  1
  Nb  Nb102  1  0.49289747  0.49738097  0.08589679  1
  Nb  Nb103  1  0.50465274  0.30289362  0.10153524  1
  Nb  Nb104  1  0.90224508  0.70100437  0.89445813  1
  Nb  Nb105  1  0.89943115  0.09748671  0.49748213  1
  Nb  Nb106  1  0.30210806  0.49827208  0.09932503  1
  Nb  Nb107  1  0.50113173  0.49651659  0.49852607  1
  Nb  Nb108  1  0.10313572  0.49765514  0.09544416  1
  Nb  Nb109  1  0.29389563  0.89714607  0.70584571  1
  Nb  Nb110  1  0.50217821  0.89608908  0.89964662  1
  Nb  Nb111  1  0.69660930  0.70170064  0.70178310  1
  Nb  Nb112  1  0.10795350  0.09821316  0.29358468  1
  Nb  Nb113  1  0.50254987  0.70166191  0.09773583  1
  Nb  Nb114  1  0.49831692  0.10119492  0.30260468  1
  Nb  Nb115  1  0.70149896  0.89913507  0.49373687  1
  Nb  Nb116  1  0.09886920  0.89968473  0.50675408  1
  Nb  Nb117  1  0.50280510  0.09664266  0.69965055  1
  Nb  Nb118  1  0.09678117  0.49533492  0.90822023  1
  Nb  Nb119  1  0.09893942  0.49919605  0.29566310  1
  Nb  Nb120  1  0.11026709  0.90230998  0.69640756  1
  Nb  Nb121  1  0.69446338  0.29937612  0.69698420  1
  Nb  Nb122  1  0.69969877  0.30019225  0.10095880  1
  Nb  Nb123  1  0.11208245  0.10071990  0.10779073  1
  Nb  Nb124  1  0.90155203  0.89354316  0.09832705  1
  Nb  Nb125  1  0.19976461  0.20239206  0.60189903  1
  Nb  Nb126  1  0.20303398  0.79250520  0.19757573  1
  Nb  Nb127  1  0.59601899  0.20079555  0.19410671  1
  Nb  Nb128  1  0.00428791  0.80500193  0.60128002  1
  Nb  Nb129  1  0.59678730  0.00071587  0.00020417  1
  Nb  Nb130  1  0.59784329  0.19911609  0.79658674  1
  Nb  Nb131  1  0.60100020  0.79799850  0.79650844  1
  Nb  Nb132  1  0.00059957  0.40157530  0.59898629  1
  Nb  Nb133  1  0.79730316  0.39700598  0.00051340  1
  Nb  Nb134  1  0.01063887  0.20031811  0.20265316  1
  Nb  Nb135  1  0.60667085  0.79881275  0.59790316  1
  Nb  Nb136  1  0.60215004  0.80419496  0.40192303  1
  Nb  Nb137  1  0.40491962  0.79829616  -0.00481731  1
  Nb  Nb138  1  0.59763082  0.79785527  0.20225869  1
  Nb  Nb139  1  0.39929100  -0.00486832  0.79812473  1
  Nb  Nb140  1  0.39883776  0.59563950  0.18846516  1
  Nb  Nb141  1  0.00519968  0.40092935  0.19804222  1
  Nb  Nb142  1  0.59774426  -0.00289496  0.39844581  1
  Nb  Nb143  1  0.60231193  0.20037714  0.00271422  1
  Nb  Nb144  1  0.40737597  0.40342089  0.40110515  1
  Nb  Nb145  1  0.79359434  0.20691627  0.00046552  1
  Nb  Nb146  1  0.20124240  0.59391941  0.19354131  1
  Nb  Nb147  1  0.80532884  0.00106739  0.59378620  1
  Nb  Nb148  1  -0.00131089  0.00124432  0.40043846  1
  Nb  Nb149  1  0.20065027  0.19673516  0.40265026  1
  Pd  Pd150  1  -0.00287100  0.59439127  0.40481488  1
  Pd  Pd151  1  0.80162001  0.80780510  0.60872426  1
  Pd  Pd152  1  0.40147116  0.40621145  0.59612575  1
  Pd  Pd153  1  -0.00533146  0.60561456  -0.00083000  1
  Pd  Pd154  1  0.39663248  0.20173823  0.60690598  1
  Pd  Pd155  1  0.00645836  0.79482514  0.19609570  1
  Pd  Pd156  1  0.40401018  0.40852836  0.80074874  1
  Pd  Pd157  1  -0.00841949  -0.00760960  0.59338796  1
  Pd  Pd158  1  0.19620880  0.80164465  0.39501689  1
  Pd  Pd159  1  0.80768553  0.00041975  0.19187497  1
  Pd  Pd160  1  0.19489112  0.39900588  0.19934225  1
  Pd  Pd161  1  0.79748476  0.00601827  0.00237895  1
  Pd  Pd162  1  0.19955971  0.59408367  0.80465239  1
  Pd  Pd163  1  0.59716440  0.00042297  0.19812242  1
  Pd  Pd164  1  0.80562757  -0.00020094  0.79619623  1
  Pd  Pd165  1  0.79793033  0.39991919  0.40897661  1
  Pd  Pd166  1  0.19086028  0.19468243  0.80261811  1
  Pd  Pd167  1  0.40405009  -0.00122904  0.40175489  1
  Pd  Pd168  1  0.79366690  0.59526163  0.79567062  1
  Pd  Pd169  1  0.60849052  0.19606464  0.39151877  1
  Pd  Pd170  1  0.00689993  0.80414118  0.40154335  1
  Pd  Pd171  1  0.00398498  0.00435873  0.80910333  1
  Pd  Pd172  1  0.59548515  0.40305505  0.20135300  1
  Pd  Pd173  1  0.80581999  0.39816546  0.59908066  1
  Pd  Pd174  1  0.79247074  0.20268528  0.80832280  1
  Pd  Pd175  1  0.20215125  -0.00201257  -0.00322784  1
  Pd  Pd176  1  0.80039627  0.20238040  0.59304087  1
  Pd  Pd177  1  0.60617499  -0.00717596  0.59193030  1
  Pd  Pd178  1  0.79530168  0.80321011  0.79934280  1
  Pd  Pd179  1  0.20173702  0.59585573  0.60253641  1
  Pd  Pd180  1  0.59183420  0.39678038  0.79305623  1
  Pd  Pd181  1  0.40388200  0.80330870  0.41166825  1
  Pd  Pd182  1  0.39835673  -0.00639292  -0.00769995  1
  Pd  Pd183  1  0.60327423  0.39773215  -0.00085688  1
  Pd  Pd184  1  0.39224107  -0.00368360  0.60842720  1
  Pd  Pd185  1  0.60357290  0.61024539  0.41356781  1
  Pd  Pd186  1  0.01201383  0.18989940  0.39528965  1
  Pd  Pd187  1  0.41527126  0.41140187  0.20807102  1
  Pd  Pd188  1  0.79219754  0.78865735  0.38602120  1
  Pd  Pd189  1  0.39999422  0.20382885  0.00471617  1
  Pd  Pd190  1  -0.00273884  0.19782133  0.00709190  1
  Pd  Pd191  1  0.19313681  0.00248392  0.40424643  1
  Pd  Pd192  1  0.79026801  0.20373725  0.40559983  1
  Pd  Pd193  1  -0.00031669  0.00417991  0.20381705  1
  Pd  Pd194  1  0.59245926  -0.00021327  0.80688040  1
  Pd  Pd195  1  0.60290154  0.60940113  0.59393938  1
  Pd  Pd196  1  0.19369225  0.40438238  0.60327471  1
  Pd  Pd197  1  -0.00909697  0.40028113  0.00830949  1
  Pd  Pd198  1  0.79929370  0.40527019  0.80094231  1
  Pd  Pd199  1  0.00331044  0.20773270  0.60275672  1
  Rh  Rh200  1  0.79453984  0.79493361  0.20001370  1
  Rh  Rh201  1  0.59631826  0.39875378  0.60268469  1
  Rh  Rh202  1  0.79583142  0.59678146  0.60670889  1
  Rh  Rh203  1  0.81039982  0.79159325  -0.00238246  1
  Rh  Rh204  1  0.79896063  0.59917195  0.39684725  1
  Rh  Rh205  1  0.19309433  0.21353891  0.21106960  1
  Rh  Rh206  1  0.20547501  0.80810049  0.00632785  1
  Rh  Rh207  1  0.79747908  0.00672617  0.40507760  1
  Rh  Rh208  1  0.19536949  0.59163404  -0.00126493  1
  Rh  Rh209  1  0.20312075  0.00030518  0.80688174  1
  Rh  Rh210  1  0.20979799  0.39862687  0.40057339  1
  Rh  Rh211  1  0.20378755  -0.01219004  0.19865128  1
  Rh  Rh212  1  0.19791263  0.40993195  0.81073661  1
  Rh  Rh213  1  0.00664415  0.59301252  0.19476159  1
  Rh  Rh214  1  0.00333842  0.19507637  0.80121437  1
  Rh  Rh215  1  0.00605345  0.79676283  0.79597978  1
  Rh  Rh216  1  -0.00167556  0.40686876  0.79341238  1
  Rh  Rh217  1  0.00417383  0.59861697  0.81011191  1
  Rh  Rh218  1  0.19717766  0.79672101  0.60479775  1
  Rh  Rh219  1  0.40702643  0.60698535  -0.00082029  1
  Rh  Rh220  1  0.40152253  0.59622990  0.79983442  1
  Rh  Rh221  1  0.40001287  0.59025738  0.39531916  1
  Rh  Rh222  1  0.80550695  0.41199772  0.19263925  1
  Rh  Rh223  1  0.40756168  0.80496071  0.80365896  1
  Rh  Rh224  1  0.59269910  0.80797806  0.00134295  1
  Rh  Rh225  1  -0.00625192  0.40982950  0.40350663  1
  Rh  Rh226  1  0.40771873  0.19209043  0.79494791  1
  Rh  Rh227  1  0.20726369  0.39988525  -0.00389807  1
  Rh  Rh228  1  -0.00568022  0.79380044  0.00141227  1
  Rh  Rh229  1  0.39187102  0.00805181  0.19877646  1
  Rh  Rh230  1  0.80047419  0.59683713  0.20027363  1
  Rh  Rh231  1  0.39563459  0.78890485  0.18522969  1
  Rh  Rh232  1  0.20527371  0.20368390  -0.00405933  1
  Rh  Rh233  1  0.59024757  0.59959293  0.18828145  1
  Rh  Rh234  1  0.59908998  0.60513426  0.79571374  1
  Rh  Rh235  1  0.00431206  0.00027785  0.00119922  1
  Rh  Rh236  1  0.19316305  0.79782284  0.79499850  1
  Rh  Rh237  1  0.59753892  0.39919215  0.40063474  1
  Rh  Rh238  1  0.39938444  0.39502348  -0.00376680  1
  Rh  Rh239  1  0.40621660  0.19586475  0.19522402  1
  Rh  Rh240  1  0.20588768  0.00341550  0.60056325  1
  Rh  Rh241  1  0.39704615  0.20518310  0.40180146  1
  Rh  Rh242  1  0.39473203  0.59543584  0.60127031  1
  Rh  Rh243  1  0.00247419  0.59703305  0.59546606  1
  Rh  Rh244  1  0.59499905  0.20583132  0.60933868  1
  Rh  Rh245  1  0.80031104  0.18947142  0.19414589  1
  Rh  Rh246  1  0.59734214  0.59457271  0.00324458  1
  Rh  Rh247  1  0.39773360  0.79970489  0.59949318  1
  Rh  Rh248  1  0.80199815  0.59731799  -0.00397674  1
  Rh  Rh249  1  0.20184775  0.59878899  0.39471650  1
