# generated using pymatgen
data_ZrScNbPdRh
_symmetry_space_group_name_H-M   'P 1'
_cell_length_a   16.55030929
_cell_length_b   16.55161232
_cell_length_c   16.55337616
_cell_angle_alpha   90.01713359
_cell_angle_beta   90.00508639
_cell_angle_gamma   89.98089471
_symmetry_Int_Tables_number   1
_chemical_formula_structural   ZrScNbPdRh
_chemical_formula_sum   'Zr50 Sc50 Nb50 Pd50 Rh50'
_cell_volume   4534.53708910
_cell_formula_units_Z   50
loop_
 _symmetry_equiv_pos_site_id
 _symmetry_equiv_pos_as_xyz
  1  'x, y, z'
loop_
 _atom_site_type_symbol
 _atom_site_label
 _atom_site_symmetry_multiplicity
 _atom_site_fract_x
 _atom_site_fract_y
 _atom_site_fract_z
 _atom_site_occupancy
  Zr  Zr0  1  0.69783349  0.88975400  0.09870106  1
  Zr  Zr1  1  0.69311912  0.90116368  0.30595328  1
  Zr  Zr2  1  0.09677561  0.09870111  0.29100586  1
  Zr  Zr3  1  0.89914131  0.09640771  0.89673088  1
  Zr  Zr4  1  0.70090238  0.70917530  0.49755930  1
  Zr  Zr5  1  0.30640817  0.29782926  0.69658634  1
  Zr  Zr6  1  0.10891512  0.50012570  0.50394831  1
  Zr  Zr7  1  0.90202316  0.10326803  0.29751224  1
  Zr  Zr8  1  0.50125552  0.50545265  0.70899344  1
  Zr  Zr9  1  0.70069113  0.29890283  0.70418018  1
  Zr  Zr10  1  0.48931202  0.50110715  0.10751132  1
  Zr  Zr11  1  0.71072413  0.69551961  0.91268667  1
  Zr  Zr12  1  0.29379965  0.50150978  0.69792337  1
  Zr  Zr13  1  0.70023341  0.29263923  0.08805643  1
  Zr  Zr14  1  0.30078496  0.70946402  0.49479849  1
  Zr  Zr15  1  0.70739423  0.89925385  0.69580053  1
  Zr  Zr16  1  0.30236716  0.49099491  0.50359231  1
  Zr  Zr17  1  0.69931604  0.49737826  0.30068023  1
  Zr  Zr18  1  0.90220590  0.89386167  0.50166375  1
  Zr  Zr19  1  0.29722593  0.70436869  0.69657230  1
  Zr  Zr20  1  0.90089926  0.49954922  0.30548746  1
  Zr  Zr21  1  0.49609480  0.30213002  0.29805384  1
  Zr  Zr22  1  0.10251661  0.29394229  0.29345708  1
  Zr  Zr23  1  0.49722651  0.70045188  0.09774461  1
  Zr  Zr24  1  0.10074558  0.29067476  0.70346678  1
  Zr  Zr25  1  0.50196575  0.30181628  0.90279330  1
  Zr  Zr26  1  0.49409039  0.69868694  0.90021930  1
  Zr  Zr27  1  0.90513141  0.70167348  0.89650472  1
  Zr  Zr28  1  0.09487908  0.29965159  0.09298040  1
  Zr  Zr29  1  0.51183440  0.90248561  0.71341248  1
  Zr  Zr30  1  0.30348189  0.91322625  0.90051545  1
  Zr  Zr31  1  0.09886994  0.70046568  0.30284249  1
  Zr  Zr32  1  0.10996465  0.69462575  0.10140881  1
  Zr  Zr33  1  0.49086548  0.30355128  0.50212208  1
  Zr  Zr34  1  0.50031898  0.10461899  0.09929401  1
  Zr  Zr35  1  0.89976971  0.10391821  0.70630291  1
  Zr  Zr36  1  0.09694190  0.50433365  0.29526461  1
  Zr  Zr37  1  0.91297825  0.89962765  0.90531703  1
  Zr  Zr38  1  0.49877845  0.50016174  0.90186332  1
  Zr  Zr39  1  0.30700281  0.89956123  0.30566441  1
  Zr  Zr40  1  0.50298270  0.70211657  0.70006145  1
  Zr  Zr41  1  0.09583029  0.50487480  0.68894073  1
  Zr  Zr42  1  0.10786722  0.49553071  0.90637358  1
  Zr  Zr43  1  0.50399092  0.49758345  0.29841842  1
  Zr  Zr44  1  0.69474732  0.29466023  0.50068040  1
  Zr  Zr45  1  0.30663291  0.50611063  0.89762605  1
  Zr  Zr46  1  0.70750499  0.29890183  0.29695833  1
  Zr  Zr47  1  0.30199049  0.30468475  0.49852996  1
  Zr  Zr48  1  0.48836735  0.09349740  0.29916499  1
  Zr  Zr49  1  0.09943114  0.10105501  0.50004278  1
  Sc  Sc50  1  0.91465109  0.49590087  0.49915942  1
  Sc  Sc51  1  0.29988185  0.09754564  0.11558634  1
  Sc  Sc52  1  0.29531375  0.50393082  0.10119330  1
  Sc  Sc53  1  0.88376109  0.50555070  0.89068051  1
  Sc  Sc54  1  0.10391159  0.49422841  0.10447851  1
  Sc  Sc55  1  0.30854188  0.09889878  0.49355574  1
  Sc  Sc56  1  0.49551825  0.89335428  0.10351786  1
  Sc  Sc57  1  0.29731099  0.30174316  0.11264815  1
  Sc  Sc58  1  0.70665864  0.09621168  0.70394501  1
  Sc  Sc59  1  0.49703733  0.70104723  0.29456148  1
  Sc  Sc60  1  0.70053364  0.10056911  0.49233079  1
  Sc  Sc61  1  0.90533352  0.90594074  0.30646848  1
  Sc  Sc62  1  0.10023207  0.69698783  0.69506104  1
  Sc  Sc63  1  0.89550429  0.29527123  0.90281781  1
  Sc  Sc64  1  0.69571598  0.50711411  0.48811224  1
  Sc  Sc65  1  0.29934411  0.49601513  0.29567203  1
  Sc  Sc66  1  0.29286632  0.30340732  0.88442986  1
  Sc  Sc67  1  0.69505987  0.90089620  0.89028381  1
  Sc  Sc68  1  0.90263002  0.90378595  0.69486326  1
  Sc  Sc69  1  0.90462326  0.29229298  0.49815597  1
  Sc  Sc70  1  0.30065150  0.29396317  0.30114711  1
  Sc  Sc71  1  0.69631409  0.70569961  0.69118466  1
  Sc  Sc72  1  0.10030890  0.29978379  0.49826419  1
  Sc  Sc73  1  0.70157941  0.10609881  0.09548911  1
  Sc  Sc74  1  0.10041549  0.70469899  0.49836338  1
  Sc  Sc75  1  0.70124680  0.10735171  0.89950159  1
  Sc  Sc76  1  0.89649745  0.29341687  0.09907518  1
  Sc  Sc77  1  0.49113989  0.09221124  0.89051653  1
  Sc  Sc78  1  0.29822209  0.89424061  0.10255924  1
  Sc  Sc79  1  0.69854233  0.49188121  0.10665503  1
  Sc  Sc80  1  0.88525631  0.70892523  0.08864191  1
  Sc  Sc81  1  0.90833276  0.10430288  0.09858169  1
  Sc  Sc82  1  0.91034433  0.69673045  0.69856766  1
  Sc  Sc83  1  0.08705193  0.10272443  0.89334088  1
  Sc  Sc84  1  0.29638536  0.70571796  0.29850515  1
  Sc  Sc85  1  0.09927835  0.09560224  0.69899432  1
  Sc  Sc86  1  0.09368406  0.90436874  0.09991581  1
  Sc  Sc87  1  0.89753642  0.29421458  0.70150027  1
  Sc  Sc88  1  0.49691495  0.90171865  0.30027038  1
  Sc  Sc89  1  0.09412042  0.90014208  0.30304236  1
  Sc  Sc90  1  0.90492460  0.49540902  0.10503234  1
  Sc  Sc91  1  0.29886057  0.89549783  0.50368683  1
  Sc  Sc92  1  0.69745558  0.70481614  0.10411326  1
  Sc  Sc93  1  0.90515416  0.09921417  0.49701261  1
  Sc  Sc94  1  0.70032134  0.49808853  0.71668647  1
  Sc  Sc95  1  0.49672668  0.30122397  0.10255535  1
  Sc  Sc96  1  0.50164542  0.10900472  0.49559299  1
  Sc  Sc97  1  0.29224211  0.69925763  0.90988226  1
  Sc  Sc98  1  0.30011470  0.69775346  0.10455288  1
  Sc  Sc99  1  0.10072429  0.70800235  0.90094024  1
  Nb  Nb100  1  0.49904219  0.49991107  0.50125065  1
  Nb  Nb101  1  0.09654548  0.29877836  0.89818424  1
  Nb  Nb102  1  0.10235361  0.90193496  0.90461130  1
  Nb  Nb103  1  0.69878794  0.09759517  0.29616014  1
  Nb  Nb104  1  0.50256869  0.29289328  0.69382917  1
  Nb  Nb105  1  0.50084039  0.70086124  0.50495096  1
  Nb  Nb106  1  0.29479895  0.90822352  0.69714191  1
  Nb  Nb107  1  0.50166077  0.90056495  0.90302389  1
  Nb  Nb108  1  0.50228873  0.10363650  0.69863844  1
  Nb  Nb109  1  0.30002444  0.09505958  0.30030005  1
  Nb  Nb110  1  0.71055055  0.69444335  0.30721359  1
  Nb  Nb111  1  0.90096490  0.49970609  0.69755283  1
  Nb  Nb112  1  0.29886603  0.10427910  0.89460012  1
  Nb  Nb113  1  0.89529242  0.69935222  0.49570291  1
  Nb  Nb114  1  0.90005460  0.29605985  0.29880650  1
  Nb  Nb115  1  0.69364505  0.48763719  0.90048111  1
  Nb  Nb116  1  0.69685599  0.30809011  0.89946993  1
  Nb  Nb117  1  0.11435144  0.90443918  0.68460864  1
  Nb  Nb118  1  0.69701815  0.89779884  0.50538844  1
  Nb  Nb119  1  0.90212040  0.70106485  0.31031832  1
  Nb  Nb120  1  0.10271293  0.90575194  0.50335776  1
  Nb  Nb121  1  0.49945566  0.89531828  0.49826094  1
  Nb  Nb122  1  0.89670818  0.90159772  0.10231845  1
  Nb  Nb123  1  0.30432284  0.09801026  0.71071492  1
  Nb  Nb124  1  0.09949644  0.10345341  0.10026441  1
  Nb  Nb125  1  0.00104928  0.40187800  0.80057897  1
  Nb  Nb126  1  0.19919562  0.19574216  -0.00329661  1
  Nb  Nb127  1  0.60303598  0.19680276  0.20543695  1
  Nb  Nb128  1  0.79930510  -0.00497869  0.00438516  1
  Nb  Nb129  1  0.59755924  -0.00328186  -0.00297454  1
  Nb  Nb130  1  0.59723943  -0.00265149  0.59713189  1
  Nb  Nb131  1  0.38814692  0.19726488  -0.00502838  1
  Nb  Nb132  1  -0.00876755  0.79465528  0.20069001  1
  Nb  Nb133  1  0.40464754  0.60194368  0.59559986  1
  Nb  Nb134  1  -0.00076557  0.59991220  -0.00168019  1
  Nb  Nb135  1  0.80266534  0.60625241  0.21094103  1
  Nb  Nb136  1  0.40582562  -0.00123673  0.60759338  1
  Nb  Nb137  1  0.79764022  -0.00049964  0.19867504  1
  Nb  Nb138  1  0.20010458  0.00129305  0.39858295  1
  Nb  Nb139  1  0.79710091  0.40600301  0.60091195  1
  Nb  Nb140  1  0.80519327  0.59543100  0.59697157  1
  Nb  Nb141  1  0.19698148  0.00990712  -0.00193971  1
  Nb  Nb142  1  0.40540701  0.59892352  0.40777102  1
  Nb  Nb143  1  0.59605031  0.20334140  0.79793687  1
  Nb  Nb144  1  0.59980597  0.59303343  -0.00100115  1
  Nb  Nb145  1  0.59865953  0.40054518  0.60192290  1
  Nb  Nb146  1  0.20805180  0.19504431  0.60291782  1
  Nb  Nb147  1  0.39388496  0.80883367  0.80053587  1
  Nb  Nb148  1  0.80616524  0.79967989  0.80010639  1
  Nb  Nb149  1  0.19939192  0.81470668  0.79683548  1
  Pd  Pd150  1  0.61165718  0.60785392  0.80930208  1
  Pd  Pd151  1  0.60616955  0.59147235  0.59923658  1
  Pd  Pd152  1  0.40380219  0.39708475  0.79490112  1
  Pd  Pd153  1  0.79922193  0.19794021  0.59718295  1
  Pd  Pd154  1  0.80484201  0.39913963  0.41114705  1
  Pd  Pd155  1  0.00859240  0.59109579  0.80796615  1
  Pd  Pd156  1  0.59564603  0.19914711  0.39061043  1
  Pd  Pd157  1  0.60758216  0.60436205  0.19606875  1
  Pd  Pd158  1  0.60662889  0.78920089  0.80900439  1
  Pd  Pd159  1  -0.00522158  0.38937782  0.60593689  1
  Pd  Pd160  1  0.59476110  0.00141642  0.40777115  1
  Pd  Pd161  1  0.00770775  0.80972140  0.78816384  1
  Pd  Pd162  1  -0.00476366  0.00476581  0.60175994  1
  Pd  Pd163  1  0.19844976  -0.00723134  0.20041755  1
  Pd  Pd164  1  -0.01154006  0.61254211  0.18817364  1
  Pd  Pd165  1  0.00708385  0.79330349  0.01212663  1
  Pd  Pd166  1  0.79426743  0.61072904  0.78862514  1
  Pd  Pd167  1  0.80597401  0.40406185  -0.00041743  1
  Pd  Pd168  1  0.80077976  -0.00240675  0.39955806  1
  Pd  Pd169  1  -0.00335601  0.39226077  0.20138332  1
  Pd  Pd170  1  0.21086301  0.39023478  0.00159336  1
  Pd  Pd171  1  0.39279719  0.80034973  -0.00350169  1
  Pd  Pd172  1  0.59218740  0.60968004  0.39760226  1
  Pd  Pd173  1  0.80375452  0.19745874  0.40059865  1
  Pd  Pd174  1  0.60396249  0.00384768  0.18944475  1
  Pd  Pd175  1  0.18902895  0.00348431  0.80584435  1
  Pd  Pd176  1  0.80084748  0.81033257  0.39679178  1
  Pd  Pd177  1  0.20324820  0.19359338  0.40302854  1
  Pd  Pd178  1  0.00695294  -0.00930503  0.79027879  1
  Pd  Pd179  1  -0.01196815  0.40828183  -0.01150771  1
  Pd  Pd180  1  0.00304316  0.79701485  0.59934849  1
  Pd  Pd181  1  0.80369100  0.40002757  0.19680485  1
  Pd  Pd182  1  0.00439001  0.60089656  0.40808522  1
  Pd  Pd183  1  0.59361736  0.79522104  0.39603570  1
  Pd  Pd184  1  0.79738453  0.58584207  0.01329402  1
  Pd  Pd185  1  0.19712614  0.40011582  0.39162816  1
  Pd  Pd186  1  0.38901797  0.39055808  0.00220431  1
  Pd  Pd187  1  0.59470748  0.40493382  0.01151468  1
  Pd  Pd188  1  0.80562124  0.80200682  0.21307578  1
  Pd  Pd189  1  0.59815057  0.39528216  0.40543403  1
  Pd  Pd190  1  0.20974431  0.59848618  0.39849654  1
  Pd  Pd191  1  0.39749362  0.00637274  0.00942436  1
  Pd  Pd192  1  0.19485498  0.60973335  0.80334588  1
  Pd  Pd193  1  0.79762905  0.00701360  0.59074416  1
  Pd  Pd194  1  0.39449863  0.18996543  0.59828047  1
  Pd  Pd195  1  0.19247053  0.40319355  0.79168021  1
  Pd  Pd196  1  0.40526770  0.80615680  0.60795887  1
  Pd  Pd197  1  0.00507507  0.39261808  0.39661820  1
  Pd  Pd198  1  0.19218106  0.80759373  0.20191464  1
  Pd  Pd199  1  0.59962258  0.79488551  0.20921609  1
  Rh  Rh200  1  0.00778105  -0.00052349  0.40449349  1
  Rh  Rh201  1  0.00618293  0.19691513  0.60097020  1
  Rh  Rh202  1  0.59859043  0.79860539  -0.00446740  1
  Rh  Rh203  1  0.58763787  0.19278411  -0.00760172  1
  Rh  Rh204  1  -0.00684447  -0.00511654  0.19504331  1
  Rh  Rh205  1  0.80589030  0.59558472  0.40376538  1
  Rh  Rh206  1  0.79761819  0.81399227  -0.01324097  1
  Rh  Rh207  1  0.40071572  0.59998779  0.00553245  1
  Rh  Rh208  1  0.19599470  0.19303562  0.79807526  1
  Rh  Rh209  1  0.20345231  0.59759765  0.20568210  1
  Rh  Rh210  1  0.19255698  0.81184484  0.40182430  1
  Rh  Rh211  1  0.60714625  0.19604527  0.60597899  1
  Rh  Rh212  1  0.60379384  0.38634316  0.19548203  1
  Rh  Rh213  1  0.19592950  0.79625794  0.59952675  1
  Rh  Rh214  1  0.39704024  -0.00537790  0.40865511  1
  Rh  Rh215  1  0.21260150  0.01135468  0.58989694  1
  Rh  Rh216  1  0.80859802  0.79017578  0.60479259  1
  Rh  Rh217  1  0.39134001  0.61065796  0.79429527  1
  Rh  Rh218  1  0.40742729  0.79559075  0.39857017  1
  Rh  Rh219  1  0.40288066  0.19884667  0.19920210  1
  Rh  Rh220  1  0.40221407  -0.00411496  0.79350907  1
  Rh  Rh221  1  -0.00227044  0.20594254  0.19781668  1
  Rh  Rh222  1  0.80477600  0.19429666  -0.00549546  1
  Rh  Rh223  1  0.59573218  0.80886929  0.59633494  1
  Rh  Rh224  1  0.19419287  0.38675095  0.60408318  1
  Rh  Rh225  1  0.60480760  0.01337311  0.80179696  1
  Rh  Rh226  1  0.39379079  0.60180067  0.20906245  1
  Rh  Rh227  1  0.19908266  0.19941254  0.19523276  1
  Rh  Rh228  1  0.39860282  -0.00652428  0.19610146  1
  Rh  Rh229  1  0.20043154  0.81171644  -0.00312204  1
  Rh  Rh230  1  0.39476662  0.40144513  0.20268168  1
  Rh  Rh231  1  -0.00010509  0.20257870  0.39453798  1
  Rh  Rh232  1  0.40027759  0.40570472  0.39239786  1
  Rh  Rh233  1  0.40802386  0.20468211  0.80439622  1
  Rh  Rh234  1  0.00214671  0.80197406  0.40174280  1
  Rh  Rh235  1  0.20778788  0.60760326  0.59123716  1
  Rh  Rh236  1  -0.00583106  0.60604263  0.59032631  1
  Rh  Rh237  1  0.80413685  -0.01019101  0.80947463  1
  Rh  Rh238  1  0.00307577  0.19795932  -0.00263391  1
  Rh  Rh239  1  0.39806767  0.20199863  0.39516190  1
  Rh  Rh240  1  0.79273323  0.20674610  0.80779897  1
  Rh  Rh241  1  -0.00500573  0.20636565  0.80213535  1
  Rh  Rh242  1  0.19687054  0.39873025  0.20296145  1
  Rh  Rh243  1  0.79701858  0.19410334  0.20004320  1
  Rh  Rh244  1  0.41014077  0.41014049  0.61081091  1
  Rh  Rh245  1  0.39900140  0.79970707  0.20145557  1
  Rh  Rh246  1  0.59265293  0.39145619  0.79404020  1
  Rh  Rh247  1  0.19636363  0.59684791  0.00132435  1
  Rh  Rh248  1  0.80791058  0.39487966  0.79758461  1
  Rh  Rh249  1  0.00127570  0.00458305  0.00611487  1
