# generated using pymatgen
data_ZrScNbPdRh
_symmetry_space_group_name_H-M   'P 1'
_cell_length_a   16.56392640
_cell_length_b   16.56234618
_cell_length_c   16.56218640
_cell_angle_alpha   89.98917025
_cell_angle_beta   90.01029678
_cell_angle_gamma   89.94761975
_symmetry_Int_Tables_number   1
_chemical_formula_structural   ZrScNbPdRh
_chemical_formula_sum   'Zr50 Sc50 Nb50 Pd50 Rh50'
_cell_volume   4543.62647903
_cell_formula_units_Z   50
loop_
 _symmetry_equiv_pos_site_id
 _symmetry_equiv_pos_as_xyz
  1  'x, y, z'
loop_
 _atom_site_type_symbol
 _atom_site_label
 _atom_site_symmetry_multiplicity
 _atom_site_fract_x
 _atom_site_fract_y
 _atom_site_fract_z
 _atom_site_occupancy
  Zr  Zr0  1  0.69756626  0.09918996  0.11201717  1
  Zr  Zr1  1  0.29304028  0.89519294  0.30570905  1
  Zr  Zr2  1  0.49924440  0.49989608  0.49236398  1
  Zr  Zr3  1  0.30661009  0.30149289  0.49299117  1
  Zr  Zr4  1  0.70557426  0.09671816  0.69825124  1
  Zr  Zr5  1  0.89764519  0.49744740  0.29826364  1
  Zr  Zr6  1  0.09107772  0.48857000  0.90587640  1
  Zr  Zr7  1  0.29015409  0.10079513  0.10033931  1
  Zr  Zr8  1  0.69956513  0.09175607  0.90215430  1
  Zr  Zr9  1  0.90066568  0.48948394  0.70704151  1
  Zr  Zr10  1  0.10361333  0.90206576  0.10524507  1
  Zr  Zr11  1  0.90022322  0.70235716  0.49272637  1
  Zr  Zr12  1  0.90268211  0.89619258  0.10343666  1
  Zr  Zr13  1  0.70800527  0.89585678  0.69810018  1
  Zr  Zr14  1  0.50797867  0.10055405  0.70464117  1
  Zr  Zr15  1  0.10234479  0.10422018  0.90900946  1
  Zr  Zr16  1  0.49991455  0.08918321  0.90104055  1
  Zr  Zr17  1  0.70127701  0.89380465  0.89608726  1
  Zr  Zr18  1  0.10208383  0.50973803  0.49367816  1
  Zr  Zr19  1  0.09911925  0.89861875  0.49542069  1
  Zr  Zr20  1  0.29629086  0.30770654  0.90353683  1
  Zr  Zr21  1  0.49683880  0.89662834  0.09381669  1
  Zr  Zr22  1  0.69329857  0.50588077  0.89973521  1
  Zr  Zr23  1  0.09975328  0.68788281  0.30378632  1
  Zr  Zr24  1  0.10062207  0.70179062  0.50601999  1
  Zr  Zr25  1  0.29963867  0.09913100  0.90127492  1
  Zr  Zr26  1  0.30404574  0.70239608  0.90179641  1
  Zr  Zr27  1  0.50412546  0.30935124  0.49883164  1
  Zr  Zr28  1  0.89561169  0.70925606  0.90612215  1
  Zr  Zr29  1  0.29848713  0.90066962  0.49559077  1
  Zr  Zr30  1  0.29830570  0.69979827  0.49653831  1
  Zr  Zr31  1  0.70240891  0.89387461  0.50344579  1
  Zr  Zr32  1  0.49445451  0.50946934  0.90362946  1
  Zr  Zr33  1  0.49588866  0.90303576  0.89764747  1
  Zr  Zr34  1  0.69489719  0.71232821  0.09892849  1
  Zr  Zr35  1  0.90341196  0.89399285  0.50183327  1
  Zr  Zr36  1  0.70669024  0.50044811  0.70157589  1
  Zr  Zr37  1  0.69093286  0.50132017  0.49390315  1
  Zr  Zr38  1  0.90513542  0.70239058  0.10213641  1
  Zr  Zr39  1  0.29820795  0.89663821  0.70697996  1
  Zr  Zr40  1  0.30502598  0.09613418  0.49551514  1
  Zr  Zr41  1  0.30706744  0.30048921  0.70399750  1
  Zr  Zr42  1  0.50143928  0.30392598  0.30027435  1
  Zr  Zr43  1  0.49521958  0.29751633  0.89109070  1
  Zr  Zr44  1  0.69456991  0.09182976  0.50084903  1
  Zr  Zr45  1  0.30585719  0.69644366  0.10361370  1
  Zr  Zr46  1  0.90034394  0.10056571  0.90585206  1
  Zr  Zr47  1  0.50559907  0.89709378  0.70510416  1
  Zr  Zr48  1  0.70156568  0.30022177  0.69443080  1
  Zr  Zr49  1  0.09717380  0.89598172  0.69628523  1
  Sc  Sc50  1  0.09442218  0.29219817  0.50350664  1
  Sc  Sc51  1  0.90013124  0.29822549  0.29685087  1
  Sc  Sc52  1  0.90090455  0.29910288  0.50116900  1
  Sc  Sc53  1  0.48900697  0.69627033  0.30063058  1
  Sc  Sc54  1  0.69617574  0.90436460  0.29172068  1
  Sc  Sc55  1  0.69063520  0.49181785  0.09913324  1
  Sc  Sc56  1  0.49601895  0.90399162  0.30022039  1
  Sc  Sc57  1  0.90548309  0.09975407  0.10665650  1
  Sc  Sc58  1  0.90517771  0.30832085  0.90435294  1
  Sc  Sc59  1  0.30146578  0.89967417  0.90723696  1
  Sc  Sc60  1  0.91277428  0.90324822  0.29684908  1
  Sc  Sc61  1  0.69358162  0.70716691  0.69920087  1
  Sc  Sc62  1  0.50222614  0.09460565  0.29581300  1
  Sc  Sc63  1  0.10110310  0.70988398  0.91286675  1
  Sc  Sc64  1  0.29400483  0.70390582  0.70016308  1
  Sc  Sc65  1  0.69964625  0.48890961  0.30066146  1
  Sc  Sc66  1  0.30665484  0.50477687  0.49508329  1
  Sc  Sc67  1  0.49492904  0.50087410  0.09575417  1
  Sc  Sc68  1  0.29258528  0.50026707  0.29674497  1
  Sc  Sc69  1  0.69777300  0.90294489  0.10145018  1
  Sc  Sc70  1  0.09790878  0.70335499  0.10504772  1
  Sc  Sc71  1  0.89864929  0.50301113  0.50252092  1
  Sc  Sc72  1  0.69760575  0.30225782  0.10594625  1
  Sc  Sc73  1  0.89909015  0.29592852  0.09972565  1
  Sc  Sc74  1  0.29743631  0.69960480  0.29862120  1
  Sc  Sc75  1  0.49928473  0.50842800  0.68838903  1
  Sc  Sc76  1  0.30213086  0.30331749  0.29200563  1
  Sc  Sc77  1  0.09953577  0.29448138  0.10066272  1
  Sc  Sc78  1  0.91637620  0.10271868  0.50318158  1
  Sc  Sc79  1  0.30455049  0.09870672  0.29718339  1
  Sc  Sc80  1  0.49805541  0.09029695  0.10446132  1
  Sc  Sc81  1  0.89751563  0.49442536  0.90015435  1
  Sc  Sc82  1  0.90451408  0.49656984  0.10044788  1
  Sc  Sc83  1  0.90792049  0.70694429  0.29740958  1
  Sc  Sc84  1  0.09411921  0.50136832  0.69237091  1
  Sc  Sc85  1  0.89255843  0.90506253  0.90050811  1
  Sc  Sc86  1  0.30773029  0.50660649  0.69815675  1
  Sc  Sc87  1  0.09731235  0.29490275  0.69652384  1
  Sc  Sc88  1  0.88784712  0.69680730  0.69610121  1
  Sc  Sc89  1  0.30046046  0.10348282  0.69933955  1
  Sc  Sc90  1  0.50215184  0.30712208  0.10888693  1
  Sc  Sc91  1  0.09512964  0.49694966  0.10812185  1
  Sc  Sc92  1  0.50254763  0.68632657  0.49926669  1
  Sc  Sc93  1  0.70598054  0.30447423  0.90400027  1
  Sc  Sc94  1  0.70239881  0.30375047  0.29325647  1
  Sc  Sc95  1  0.29539243  0.89625027  0.10150642  1
  Sc  Sc96  1  0.70357414  0.30661188  0.50004806  1
  Sc  Sc97  1  0.50135979  0.91197021  0.49695756  1
  Sc  Sc98  1  0.08697572  0.10055448  0.29584377  1
  Sc  Sc99  1  0.10567904  0.89801797  0.90980677  1
  Nb  Nb100  1  0.89847928  0.29697891  0.70413127  1
  Nb  Nb101  1  0.30155010  0.48871391  0.08588496  1
  Nb  Nb102  1  0.49773593  0.70580730  0.69822890  1
  Nb  Nb103  1  0.70251093  0.70620920  0.49611486  1
  Nb  Nb104  1  0.49996526  0.10016407  0.49639015  1
  Nb  Nb105  1  0.50559840  0.30080301  0.69872474  1
  Nb  Nb106  1  0.50775797  0.69787872  0.90301009  1
  Nb  Nb107  1  0.69652414  0.70091097  0.29838011  1
  Nb  Nb108  1  0.69856918  0.69922940  0.89945175  1
  Nb  Nb109  1  0.29802232  0.49736344  0.90491315  1
  Nb  Nb110  1  0.49845315  0.69591644  0.09187401  1
  Nb  Nb111  1  0.09403491  0.09756936  0.69394131  1
  Nb  Nb112  1  0.09684450  0.10108937  0.09835927  1
  Nb  Nb113  1  0.10484582  0.70392832  0.70619242  1
  Nb  Nb114  1  0.90035484  0.90659977  0.70296790  1
  Nb  Nb115  1  0.10085387  0.10515537  0.50468181  1
  Nb  Nb116  1  0.50666767  0.50250308  0.30806153  1
  Nb  Nb117  1  0.30584517  0.30771056  0.09765669  1
  Nb  Nb118  1  0.09671171  0.30032560  0.89823484  1
  Nb  Nb119  1  0.90724531  0.09289274  0.70472713  1
  Nb  Nb120  1  0.09754479  0.49783639  0.30201070  1
  Nb  Nb121  1  0.69951899  0.09702285  0.29811890  1
  Nb  Nb122  1  0.89694151  0.09980894  0.29972623  1
  Nb  Nb123  1  0.10312098  0.89314058  0.29895074  1
  Nb  Nb124  1  0.09987482  0.29962868  0.30373677  1
  Nb  Nb125  1  0.79254691  0.60722027  0.39421720  1
  Nb  Nb126  1  -0.00245475  0.80004730  0.79676709  1
  Nb  Nb127  1  0.40038796  0.20356654  0.00377006  1
  Nb  Nb128  1  0.20412939  0.59090870  -0.00068933  1
  Nb  Nb129  1  -0.00145994  0.19568702  0.79908902  1
  Nb  Nb130  1  0.79706602  0.18969692  0.39678727  1
  Nb  Nb131  1  0.20400881  0.39859488  0.59976067  1
  Nb  Nb132  1  0.59576843  0.40137543  0.79487179  1
  Nb  Nb133  1  0.80285942  0.00467162  0.39598749  1
  Nb  Nb134  1  0.79275481  0.60391531  0.19881076  1
  Nb  Nb135  1  0.00460225  0.60895791  0.80126383  1
  Nb  Nb136  1  0.60464867  0.79422341  0.40002671  1
  Nb  Nb137  1  0.60380343  0.19432921  0.39879511  1
  Nb  Nb138  1  0.00710083  0.40201369  0.39532467  1
  Nb  Nb139  1  0.59478928  0.19647288  0.00102739  1
  Nb  Nb140  1  0.80859778  0.19768529  0.79617904  1
  Nb  Nb141  1  0.19824615  0.40391532  0.79939725  1
  Nb  Nb142  1  0.41158512  0.20043337  0.59815122  1
  Nb  Nb143  1  0.19457344  0.19957201  0.39875039  1
  Nb  Nb144  1  0.79282586  0.60551090  0.00388197  1
  Nb  Nb145  1  0.19285349  0.00392245  0.79552197  1
  Nb  Nb146  1  0.19435530  0.59558302  0.80839240  1
  Nb  Nb147  1  0.59963489  0.60391262  0.20106649  1
  Nb  Nb148  1  0.19411257  0.00324925  0.59965806  1
  Nb  Nb149  1  0.40408080  0.80023421  0.60038391  1
  Pd  Pd150  1  0.00035669  0.39185890  0.20188959  1
  Pd  Pd151  1  0.61333411  0.20629026  0.80763642  1
  Pd  Pd152  1  0.80692600  0.60314516  0.80836510  1
  Pd  Pd153  1  0.39740209  0.00055590  0.60759254  1
  Pd  Pd154  1  0.79353170  0.60049925  0.59174179  1
  Pd  Pd155  1  0.41238496  0.79923459  0.40941329  1
  Pd  Pd156  1  0.80040366  0.40771997  0.00558135  1
  Pd  Pd157  1  0.80280618  0.80281557  0.20678099  1
  Pd  Pd158  1  0.40233474  0.41182966  0.20497064  1
  Pd  Pd159  1  0.40402293  0.58938413  0.20149990  1
  Pd  Pd160  1  0.00761914  -0.00373370  0.81036177  1
  Pd  Pd161  1  0.20368942  0.20923272  0.00508563  1
  Pd  Pd162  1  0.79923253  -0.00108437  0.01160377  1
  Pd  Pd163  1  0.20964589  0.20154605  0.59409644  1
  Pd  Pd164  1  0.59782439  -0.00543081  0.60413116  1
  Pd  Pd165  1  0.79750276  0.80692604  0.38582894  1
  Pd  Pd166  1  0.19140170  0.20110515  0.79765148  1
  Pd  Pd167  1  0.39288919  -0.00742879  0.19863447  1
  Pd  Pd168  1  0.59648985  0.60016336  0.79090699  1
  Pd  Pd169  1  -0.00073483  0.59912558  -0.00319660  1
  Pd  Pd170  1  0.80859704  0.19370877  0.59583107  1
  Pd  Pd171  1  0.00064474  -0.00371371  0.00378360  1
  Pd  Pd172  1  0.40041763  0.19296656  0.79874356  1
  Pd  Pd173  1  0.39647201  0.60452326  0.79841073  1
  Pd  Pd174  1  0.19648287  0.39435959  0.40591118  1
  Pd  Pd175  1  0.79354495  0.20039213  -0.00024401  1
  Pd  Pd176  1  0.19449332  0.00445049  0.20773904  1
  Pd  Pd177  1  0.39789579  0.39869297  0.60040554  1
  Pd  Pd178  1  0.59712026  0.80421107  -0.00653181  1
  Pd  Pd179  1  0.40359430  0.41168227  0.79643957  1
  Pd  Pd180  1  -0.00777767  0.79204790  0.60864250  1
  Pd  Pd181  1  0.60614464  0.60463296  0.60214501  1
  Pd  Pd182  1  -0.00401571  0.60613713  0.60814152  1
  Pd  Pd183  1  0.59247236  0.39086413  -0.00647908  1
  Pd  Pd184  1  0.00456419  0.39656537  0.59373333  1
  Pd  Pd185  1  0.40419535  0.19981682  0.19213893  1
  Pd  Pd186  1  0.40178306  0.80208107  0.20049735  1
  Pd  Pd187  1  0.58568897  0.79711535  0.20769934  1
  Pd  Pd188  1  0.19686871  0.20194692  0.20562482  1
  Pd  Pd189  1  0.19761767  0.39830434  0.19378473  1
  Pd  Pd190  1  0.00063454  0.00123576  0.39941365  1
  Pd  Pd191  1  0.20034849  0.59343979  0.19085103  1
  Pd  Pd192  1  0.20400799  0.59471324  0.60658545  1
  Pd  Pd193  1  0.81208380  0.00408518  0.59214394  1
  Pd  Pd194  1  0.19075114  0.01112328  0.39773189  1
  Pd  Pd195  1  0.80275855  0.40309390  0.59305763  1
  Pd  Pd196  1  0.40282782  0.79471985  0.80041366  1
  Pd  Pd197  1  0.80157920  0.20273019  0.20268671  1
  Pd  Pd198  1  0.59758323  0.20180596  0.59086697  1
  Pd  Pd199  1  0.40440790  0.19790013  0.39779701  1
  Rh  Rh200  1  0.59584246  -0.00493687  0.19796979  1
  Rh  Rh201  1  0.60438785  -0.00268571  0.39557856  1
  Rh  Rh202  1  0.39665666  0.61292791  0.60020361  1
  Rh  Rh203  1  0.80614596  0.79937485  0.60400718  1
  Rh  Rh204  1  0.60541282  0.60528496  0.39188466  1
  Rh  Rh205  1  0.59853027  0.79611481  0.80579422  1
  Rh  Rh206  1  -0.01055350  0.59308825  0.39563115  1
  Rh  Rh207  1  -0.00111947  0.20667975  0.39430910  1
  Rh  Rh208  1  0.00273680  -0.00262295  0.59467323  1
  Rh  Rh209  1  0.00932485  0.80046809  0.20355906  1
  Rh  Rh210  1  0.60549323  0.38972996  0.39469779  1
  Rh  Rh211  1  0.58828154  0.79709430  0.58908871  1
  Rh  Rh212  1  0.19022322  0.39846705  0.00261813  1
  Rh  Rh213  1  0.40993847  0.39250432  -0.00139916  1
  Rh  Rh214  1  0.79186220  0.39207897  0.80129844  1
  Rh  Rh215  1  0.60906370  -0.00720270  0.79535705  1
  Rh  Rh216  1  0.00418807  0.00091079  0.19825192  1
  Rh  Rh217  1  0.39039258  0.00344945  0.79666787  1
  Rh  Rh218  1  0.40367471  0.79682529  -0.00095113  1
  Rh  Rh219  1  -0.00037512  0.39262954  0.00971377  1
  Rh  Rh220  1  -0.00285685  0.80996392  -0.00253734  1
  Rh  Rh221  1  0.79809103  0.00349143  0.79922795  1
  Rh  Rh222  1  0.80509153  0.80012068  0.79626757  1
  Rh  Rh223  1  -0.00001187  0.20321636  -0.00180211  1
  Rh  Rh224  1  0.00735081  0.39564311  0.79454897  1
  Rh  Rh225  1  0.80595205  -0.00401220  0.20378779  1
  Rh  Rh226  1  0.20151405  -0.00085394  -0.00082877  1
  Rh  Rh227  1  0.39104101  0.00407826  0.00794838  1
  Rh  Rh228  1  0.39830097  0.40846499  0.38950704  1
  Rh  Rh229  1  0.19272863  0.79188907  0.39734111  1
  Rh  Rh230  1  -0.00740445  0.20156848  0.60928045  1
  Rh  Rh231  1  0.00066159  0.19979852  0.19908383  1
  Rh  Rh232  1  0.00781780  0.79793643  0.39553839  1
  Rh  Rh233  1  0.20724001  0.79162803  0.00933768  1
  Rh  Rh234  1  0.59661376  0.19865023  0.20063848  1
  Rh  Rh235  1  0.60157593  0.40746073  0.60643017  1
  Rh  Rh236  1  0.39483571  0.60401776  0.00016248  1
  Rh  Rh237  1  0.19778040  0.79456150  0.20306664  1
  Rh  Rh238  1  0.20864024  0.80512146  0.59449405  1
  Rh  Rh239  1  0.80063278  0.40437278  0.19283795  1
  Rh  Rh240  1  0.39409611  0.59674797  0.39344229  1
  Rh  Rh241  1  0.40150519  0.00112338  0.39137315  1
  Rh  Rh242  1  0.60553665  0.60385254  0.00958743  1
  Rh  Rh243  1  -0.00492549  0.59955745  0.20275521  1
  Rh  Rh244  1  0.19189447  0.80255876  0.80859847  1
  Rh  Rh245  1  0.20426535  0.60088211  0.39734288  1
  Rh  Rh246  1  0.60330996  0.00137125  0.00490694  1
  Rh  Rh247  1  0.59383555  0.41026471  0.20344997  1
  Rh  Rh248  1  0.79691536  0.80095828  0.00256905  1
  Rh  Rh249  1  0.81024192  0.39717998  0.40143463  1
