# generated using pymatgen
data_ZrScNbPdRh
_symmetry_space_group_name_H-M   'P 1'
_cell_length_a   16.55586549
_cell_length_b   16.56014105
_cell_length_c   16.56262650
_cell_angle_alpha   89.98676531
_cell_angle_beta   90.01141342
_cell_angle_gamma   89.98767035
_symmetry_Int_Tables_number   1
_chemical_formula_structural   ZrScNbPdRh
_chemical_formula_sum   'Zr50 Sc50 Nb50 Pd50 Rh50'
_cell_volume   4540.93305008
_cell_formula_units_Z   50
loop_
 _symmetry_equiv_pos_site_id
 _symmetry_equiv_pos_as_xyz
  1  'x, y, z'
loop_
 _atom_site_type_symbol
 _atom_site_label
 _atom_site_symmetry_multiplicity
 _atom_site_fract_x
 _atom_site_fract_y
 _atom_site_fract_z
 _atom_site_occupancy
  Zr  Zr0  1  0.49812846  0.29570741  0.49799031  1
  Zr  Zr1  1  0.90492634  0.89879173  0.09707510  1
  Zr  Zr2  1  0.50105707  0.29928471  0.11341125  1
  Zr  Zr3  1  0.70318970  0.10140538  0.30449931  1
  Zr  Zr4  1  0.90233365  0.89870496  0.50221674  1
  Zr  Zr5  1  0.50613072  0.09867155  0.09337045  1
  Zr  Zr6  1  0.09260933  0.30106420  0.09626582  1
  Zr  Zr7  1  0.08786106  0.49805223  0.50011150  1
  Zr  Zr8  1  0.69813579  0.10019327  0.91311721  1
  Zr  Zr9  1  0.10022528  0.50111992  0.70013906  1
  Zr  Zr10  1  0.48927914  0.49096468  0.70856648  1
  Zr  Zr11  1  0.29317303  0.89732605  0.30751046  1
  Zr  Zr12  1  0.30001684  0.08593961  0.49576939  1
  Zr  Zr13  1  0.30248380  0.50891430  0.10533790  1
  Zr  Zr14  1  0.10425703  0.10370092  0.30476556  1
  Zr  Zr15  1  0.10074341  0.90057114  0.71021116  1
  Zr  Zr16  1  0.69396135  0.49742336  0.91066064  1
  Zr  Zr17  1  0.90179428  0.09695593  0.49736704  1
  Zr  Zr18  1  0.90089980  0.49981716  0.69602533  1
  Zr  Zr19  1  0.50031964  0.11327365  0.29550870  1
  Zr  Zr20  1  0.49389763  0.10404203  0.69981379  1
  Zr  Zr21  1  0.70350818  0.49874109  0.69862719  1
  Zr  Zr22  1  0.50250506  0.50262553  0.10176258  1
  Zr  Zr23  1  0.90842199  0.50203170  0.30012553  1
  Zr  Zr24  1  0.29850278  0.50223120  0.90092347  1
  Zr  Zr25  1  0.09464630  0.09697400  0.69441952  1
  Zr  Zr26  1  0.49833806  0.89520547  0.10052945  1
  Zr  Zr27  1  0.09416417  0.30916592  0.90766409  1
  Zr  Zr28  1  0.50628841  0.30636977  0.89979298  1
  Zr  Zr29  1  0.90880663  0.69496931  0.50836070  1
  Zr  Zr30  1  0.89115643  0.69889537  0.70487016  1
  Zr  Zr31  1  0.69923587  0.88495945  0.70404162  1
  Zr  Zr32  1  0.90737151  0.70106554  0.28829096  1
  Zr  Zr33  1  0.50317969  0.30820695  0.30429170  1
  Zr  Zr34  1  0.70249428  0.09700504  0.49082672  1
  Zr  Zr35  1  0.90744891  0.30357565  0.50863449  1
  Zr  Zr36  1  0.70766340  0.30180652  0.69829935  1
  Zr  Zr37  1  0.89501935  0.10290828  0.90826822  1
  Zr  Zr38  1  0.69712938  0.49758459  0.30232752  1
  Zr  Zr39  1  0.49184205  0.70096186  0.10024899  1
  Zr  Zr40  1  0.30927365  0.30151715  0.69740080  1
  Zr  Zr41  1  0.90613376  0.50224338  0.90127382  1
  Zr  Zr42  1  0.70380098  0.49873076  0.50135091  1
  Zr  Zr43  1  0.50079220  0.88711402  0.30089271  1
  Zr  Zr44  1  0.89642097  0.10063387  0.29732237  1
  Zr  Zr45  1  0.30142034  0.09863806  0.09948003  1
  Zr  Zr46  1  0.50237956  0.10099515  0.49562368  1
  Zr  Zr47  1  0.49877014  0.50308427  0.90417522  1
  Zr  Zr48  1  0.30311944  0.09643188  0.70659997  1
  Zr  Zr49  1  0.09847060  0.29936406  0.49794736  1
  Sc  Sc50  1  0.10377520  0.70186412  0.09944222  1
  Sc  Sc51  1  0.69447337  0.89852459  0.48842003  1
  Sc  Sc52  1  0.70450363  0.70079321  0.09007729  1
  Sc  Sc53  1  0.70182440  0.49289199  0.09764315  1
  Sc  Sc54  1  0.70496341  0.70059328  0.90054988  1
  Sc  Sc55  1  0.90118817  0.89660532  0.28545328  1
  Sc  Sc56  1  0.49502061  0.71445440  0.49257568  1
  Sc  Sc57  1  0.09672715  0.09875369  0.10063646  1
  Sc  Sc58  1  0.29854605  0.70626343  0.49279888  1
  Sc  Sc59  1  0.29058601  0.30314093  0.90433808  1
  Sc  Sc60  1  0.70535601  0.30245478  0.29086148  1
  Sc  Sc61  1  0.70450659  0.89351428  0.09412993  1
  Sc  Sc62  1  0.70405334  0.89735228  0.29981462  1
  Sc  Sc63  1  0.29717785  0.89765030  0.10534082  1
  Sc  Sc64  1  0.30693511  0.29430288  0.29398412  1
  Sc  Sc65  1  0.10658177  0.89556283  0.28253902  1
  Sc  Sc66  1  0.29780144  0.49883051  0.70543358  1
  Sc  Sc67  1  0.49194785  0.49464674  0.29633832  1
  Sc  Sc68  1  0.29594355  0.09564487  0.29745255  1
  Sc  Sc69  1  0.49958517  0.09533195  0.90316821  1
  Sc  Sc70  1  0.69641869  0.70557410  0.30685549  1
  Sc  Sc71  1  0.50222807  0.90055432  0.90962901  1
  Sc  Sc72  1  0.49784609  0.70049578  0.91127875  1
  Sc  Sc73  1  0.09650666  0.10078775  0.49870738  1
  Sc  Sc74  1  0.70063873  0.89423223  0.90711691  1
  Sc  Sc75  1  0.69724786  0.69889468  0.49829456  1
  Sc  Sc76  1  0.29203462  0.69426563  0.30038562  1
  Sc  Sc77  1  0.90166484  0.30004281  0.28851493  1
  Sc  Sc78  1  0.10037968  0.50190214  0.90485036  1
  Sc  Sc79  1  0.91013526  0.89219619  0.69661355  1
  Sc  Sc80  1  0.30076993  0.50522642  0.49215501  1
  Sc  Sc81  1  0.90266055  0.10360467  0.69535331  1
  Sc  Sc82  1  0.29763821  0.90510853  0.69404856  1
  Sc  Sc83  1  0.49178077  0.89824660  0.69437487  1
  Sc  Sc84  1  0.11022663  0.89875488  0.50610512  1
  Sc  Sc85  1  0.10053436  0.08552540  0.90721417  1
  Sc  Sc86  1  0.09747461  0.31094951  0.69635894  1
  Sc  Sc87  1  0.49713739  0.71466302  0.69850482  1
  Sc  Sc88  1  0.90299230  0.70228201  0.09692760  1
  Sc  Sc89  1  0.70887426  0.10888470  0.70059484  1
  Sc  Sc90  1  0.49920458  0.48834666  0.48732545  1
  Sc  Sc91  1  0.10895197  0.69540001  0.50278887  1
  Sc  Sc92  1  0.69650782  0.29975894  0.50136322  1
  Sc  Sc93  1  0.29202465  0.69430262  0.90805302  1
  Sc  Sc94  1  0.30774554  0.30550526  0.49961410  1
  Sc  Sc95  1  0.49627639  0.30017658  0.69338441  1
  Sc  Sc96  1  0.90176872  0.50010882  0.10091975  1
  Sc  Sc97  1  0.09632358  0.70361640  0.69851383  1
  Sc  Sc98  1  0.29037956  0.30084566  0.10040167  1
  Sc  Sc99  1  0.29350297  0.69740996  0.70028542  1
  Nb  Nb100  1  0.90159573  0.29929661  0.90367935  1
  Nb  Nb101  1  0.29838373  0.09795391  0.89771609  1
  Nb  Nb102  1  0.89735568  0.29374518  0.09601360  1
  Nb  Nb103  1  0.70054564  0.10132347  0.09693323  1
  Nb  Nb104  1  0.90060849  0.50128174  0.50029041  1
  Nb  Nb105  1  0.90574113  0.69362418  0.90207484  1
  Nb  Nb106  1  0.91072506  0.90487868  0.90406855  1
  Nb  Nb107  1  0.29667296  0.50024690  0.29898919  1
  Nb  Nb108  1  0.09801997  0.89736145  0.08593646  1
  Nb  Nb109  1  0.48529367  0.89978639  0.50134554  1
  Nb  Nb110  1  0.10217294  0.70095918  0.29967293  1
  Nb  Nb111  1  0.31208904  0.89713931  0.49560681  1
  Nb  Nb112  1  0.09487819  0.70932896  0.90602581  1
  Nb  Nb113  1  0.30282235  0.69312756  0.09953950  1
  Nb  Nb114  1  0.09983667  0.89551456  0.90882293  1
  Nb  Nb115  1  0.89916427  0.29757690  0.70846889  1
  Nb  Nb116  1  0.70242384  0.29935223  0.09557951  1
  Nb  Nb117  1  0.28219916  0.91223236  0.89371360  1
  Nb  Nb118  1  0.09941242  0.30557254  0.30182763  1
  Nb  Nb119  1  0.70430568  0.29794911  0.90412811  1
  Nb  Nb120  1  0.50330488  0.70007452  0.29691025  1
  Nb  Nb121  1  0.69464575  0.69828890  0.70402788  1
  Nb  Nb122  1  0.09817162  0.50581126  0.29820642  1
  Nb  Nb123  1  0.10129861  0.49859425  0.10140258  1
  Nb  Nb124  1  0.89557394  0.10313247  0.09764464  1
  Nb  Nb125  1  0.19251878  0.40629772  0.20577641  1
  Nb  Nb126  1  0.40097243  0.39919165  0.00495013  1
  Nb  Nb127  1  0.80056728  -0.00401008  0.80055826  1
  Nb  Nb128  1  0.60648513  0.00195741  0.79376722  1
  Nb  Nb129  1  0.39879453  0.20181106  -0.00008453  1
  Nb  Nb130  1  0.19479828  0.19706477  0.79842329  1
  Nb  Nb131  1  0.20403175  0.19937876  0.60339119  1
  Nb  Nb132  1  0.60359269  0.00176639  0.19710122  1
  Nb  Nb133  1  0.80945491  0.40655491  0.40416492  1
  Nb  Nb134  1  0.60004878  0.60233776  0.79328609  1
  Nb  Nb135  1  0.19388030  0.40392140  0.38948344  1
  Nb  Nb136  1  0.79548163  0.59993472  0.20258583  1
  Nb  Nb137  1  0.40787175  0.60052820  0.59910393  1
  Nb  Nb138  1  0.59313847  0.60004041  0.60439107  1
  Nb  Nb139  1  0.79319597  -0.00515365  0.60364684  1
  Nb  Nb140  1  0.59971625  0.60375756  0.20143531  1
  Nb  Nb141  1  0.00201687  -0.00775458  0.39408907  1
  Nb  Nb142  1  0.79693179  0.00797543  0.19135621  1
  Nb  Nb143  1  0.00109269  0.20485573  0.80553461  1
  Nb  Nb144  1  0.81437829  0.79576639  0.39981688  1
  Nb  Nb145  1  0.60178150  -0.00124566  0.60135334  1
  Nb  Nb146  1  0.00528418  0.79992824  0.39628720  1
  Nb  Nb147  1  0.38896816  0.80577254  0.80870917  1
  Nb  Nb148  1  0.80395819  0.39360471  0.80773301  1
  Nb  Nb149  1  0.60563932  0.20052831  0.80412695  1
  Pd  Pd150  1  0.80465148  0.60329690  0.39414031  1
  Pd  Pd151  1  0.38487733  0.80810334  -0.00736859  1
  Pd  Pd152  1  0.58840409  0.79879603  0.80996369  1
  Pd  Pd153  1  0.60247029  0.19479746  0.60564513  1
  Pd  Pd154  1  0.60813725  0.39831282  0.79660563  1
  Pd  Pd155  1  0.81049964  0.79742464  -0.00869267  1
  Pd  Pd156  1  0.58957900  0.60061344  0.40133347  1
  Pd  Pd157  1  0.20469509  0.80154638  0.60028381  1
  Pd  Pd158  1  0.38699356  0.79214770  0.20605297  1
  Pd  Pd159  1  0.19647224  -0.00051291  0.19294177  1
  Pd  Pd160  1  0.20803520  0.79891505  0.00478126  1
  Pd  Pd161  1  0.20858196  0.59478466  0.59578458  1
  Pd  Pd162  1  0.40734502  -0.00008202  0.20584105  1
  Pd  Pd163  1  0.00277184  0.19855608  0.19820744  1
  Pd  Pd164  1  0.19979866  0.00128016  0.59889060  1
  Pd  Pd165  1  0.80381352  0.21649109  0.40160687  1
  Pd  Pd166  1  0.20845391  0.20807690  0.40664149  1
  Pd  Pd167  1  0.39987852  0.20695916  0.81256041  1
  Pd  Pd168  1  0.40436749  0.60420418  0.40025809  1
  Pd  Pd169  1  0.00762345  0.60521234  0.79802153  1
  Pd  Pd170  1  0.61029579  0.19914526  0.20053483  1
  Pd  Pd171  1  0.19615059  0.20475238  0.20003192  1
  Pd  Pd172  1  -0.00469031  0.79682832  0.80487696  1
  Pd  Pd173  1  0.59039535  -0.00627442  0.39529699  1
  Pd  Pd174  1  0.40643262  0.61582694  0.79611647  1
  Pd  Pd175  1  0.40784897  -0.01017719  0.80674349  1
  Pd  Pd176  1  0.61033660  0.79650458  0.19297956  1
  Pd  Pd177  1  -0.00480592  0.19879643  0.39497571  1
  Pd  Pd178  1  0.79308026  0.59263653  0.80850298  1
  Pd  Pd179  1  0.20641179  0.40143728  0.59014130  1
  Pd  Pd180  1  0.81090097  0.80525184  0.81136798  1
  Pd  Pd181  1  0.39109620  0.19883722  0.40040836  1
  Pd  Pd182  1  0.20052682  0.39507911  0.79922238  1
  Pd  Pd183  1  -0.00596738  0.00657991  0.80222066  1
  Pd  Pd184  1  0.00616787  0.60912730  0.40077565  1
  Pd  Pd185  1  0.20273819  0.79589738  0.80223025  1
  Pd  Pd186  1  0.80336222  0.19557625  0.59368775  1
  Pd  Pd187  1  0.18895854  0.60683918  0.80679699  1
  Pd  Pd188  1  0.80785221  0.40055131  0.00074837  1
  Pd  Pd189  1  -0.00099473  0.00134378  0.19831993  1
  Pd  Pd190  1  -0.00061379  0.40051062  0.19429499  1
  Pd  Pd191  1  0.59243937  0.40434441  0.59882549  1
  Pd  Pd192  1  0.19464648  0.60214575  0.19825803  1
  Pd  Pd193  1  0.19976160  0.19252702  -0.00606956  1
  Pd  Pd194  1  0.79361855  0.60650987  0.59891524  1
  Pd  Pd195  1  0.59960597  0.80151732  0.59086612  1
  Pd  Pd196  1  0.40785704  0.00084240  0.38704657  1
  Pd  Pd197  1  0.00570736  0.60130293  0.00699565  1
  Pd  Pd198  1  0.39168131  -0.00205983  -0.00437639  1
  Pd  Pd199  1  0.79361401  0.79939928  0.59195784  1
  Rh  Rh200  1  0.19172376  -0.00761233  0.39956546  1
  Rh  Rh201  1  0.79938646  0.20548353  0.00560262  1
  Rh  Rh202  1  0.40492634  0.00335881  0.59817815  1
  Rh  Rh203  1  -0.00326489  0.40082454  0.60604891  1
  Rh  Rh204  1  0.59874676  0.79686815  0.00200506  1
  Rh  Rh205  1  0.20154835  0.79494180  0.19240756  1
  Rh  Rh206  1  0.01086816  0.79732432  0.59644202  1
  Rh  Rh207  1  0.60487266  -0.00917958  0.00440016  1
  Rh  Rh208  1  0.60667149  0.40531932  0.19791213  1
  Rh  Rh209  1  -0.00199704  0.39811285  0.39734544  1
  Rh  Rh210  1  0.39130180  0.19129183  0.59042468  1
  Rh  Rh211  1  -0.00401639  -0.00389268  0.59389343  1
  Rh  Rh212  1  0.80218574  0.20067094  0.80792395  1
  Rh  Rh213  1  0.38850163  0.79412074  0.60649597  1
  Rh  Rh214  1  0.81350885  -0.01350140  0.39426812  1
  Rh  Rh215  1  0.61055365  0.39360293  0.39858687  1
  Rh  Rh216  1  0.20646079  0.41241297  0.01136940  1
  Rh  Rh217  1  0.59913057  0.80278365  0.40366636  1
  Rh  Rh218  1  -0.00570944  0.40377253  0.00648585  1
  Rh  Rh219  1  -0.00403150  0.79690225  -0.00238414  1
  Rh  Rh220  1  0.38901300  0.39890068  0.39325697  1
  Rh  Rh221  1  0.01329913  0.79700065  0.19566890  1
  Rh  Rh222  1  0.60322316  0.60527518  0.00262521  1
  Rh  Rh223  1  0.39521145  0.19613698  0.19255046  1
  Rh  Rh224  1  0.79729115  0.19723673  0.19128361  1
  Rh  Rh225  1  0.00678285  0.20725274  0.60919594  1
  Rh  Rh226  1  0.00151497  0.60283223  0.19303993  1
  Rh  Rh227  1  -0.00551992  0.39750294  0.80089775  1
  Rh  Rh228  1  0.19183338  0.00468018  0.79912042  1
  Rh  Rh229  1  0.80780027  0.39663112  0.59923576  1
  Rh  Rh230  1  0.80199718  -0.00612160  0.00126775  1
  Rh  Rh231  1  0.38861759  0.39826833  0.19624173  1
  Rh  Rh232  1  0.19426747  0.80183495  0.39965279  1
  Rh  Rh233  1  0.79541478  0.79603059  0.20435802  1
  Rh  Rh234  1  0.39950207  0.41278804  0.59409578  1
  Rh  Rh235  1  0.20145592  -0.00130202  0.00630625  1
  Rh  Rh236  1  0.80347355  0.40553774  0.20168537  1
  Rh  Rh237  1  0.19291185  0.60112238  -0.00082714  1
  Rh  Rh238  1  0.39026920  0.39303487  0.81126434  1
  Rh  Rh239  1  0.19411187  0.59458332  0.40162332  1
  Rh  Rh240  1  0.60579643  0.20973755  0.39526861  1
  Rh  Rh241  1  0.00041107  0.19610104  -0.00259926  1
  Rh  Rh242  1  0.80379293  0.59936404  0.00387411  1
  Rh  Rh243  1  0.59526118  0.20840234  -0.00140944  1
  Rh  Rh244  1  0.39529489  0.79471282  0.39049097  1
  Rh  Rh245  1  0.00012028  0.00197763  0.00544905  1
  Rh  Rh246  1  0.00204761  0.60101205  0.60801282  1
  Rh  Rh247  1  0.39623679  0.59590598  -0.00041360  1
  Rh  Rh248  1  0.40561274  0.60648294  0.21026842  1
  Rh  Rh249  1  0.59478256  0.39118845  0.01043761  1
