# generated using pymatgen
data_ZrScNbPdRh
_symmetry_space_group_name_H-M   'P 1'
_cell_length_a   16.55573698
_cell_length_b   16.55838570
_cell_length_c   16.55522621
_cell_angle_alpha   89.99602811
_cell_angle_beta   89.98390233
_cell_angle_gamma   90.01449625
_symmetry_Int_Tables_number   1
_chemical_formula_structural   ZrScNbPdRh
_chemical_formula_sum   'Zr50 Sc50 Nb50 Pd50 Rh50'
_cell_volume   4538.38776440
_cell_formula_units_Z   50
loop_
 _symmetry_equiv_pos_site_id
 _symmetry_equiv_pos_as_xyz
  1  'x, y, z'
loop_
 _atom_site_type_symbol
 _atom_site_label
 _atom_site_symmetry_multiplicity
 _atom_site_fract_x
 _atom_site_fract_y
 _atom_site_fract_z
 _atom_site_occupancy
  Zr  Zr0  1  0.69969887  0.49527366  0.29809623  1
  Zr  Zr1  1  0.49988371  0.89905960  0.50194662  1
  Zr  Zr2  1  0.70180059  0.89817160  0.30804739  1
  Zr  Zr3  1  0.10227408  0.89318755  0.90215787  1
  Zr  Zr4  1  0.30434194  0.50356720  0.30308020  1
  Zr  Zr5  1  0.90135119  0.29786106  0.89781874  1
  Zr  Zr6  1  0.90169922  0.30123672  0.50028185  1
  Zr  Zr7  1  0.90426611  0.30635418  0.30628677  1
  Zr  Zr8  1  0.89727366  0.70350203  0.50617701  1
  Zr  Zr9  1  0.70662750  0.29436222  0.29442052  1
  Zr  Zr10  1  0.90260241  0.48894352  0.50161208  1
  Zr  Zr11  1  0.69766085  0.49566587  0.49841956  1
  Zr  Zr12  1  0.50666228  0.30179688  0.49439369  1
  Zr  Zr13  1  0.49474125  0.90236124  0.90191872  1
  Zr  Zr14  1  0.70033152  0.70206952  0.30558796  1
  Zr  Zr15  1  0.50266529  0.30217140  0.69608023  1
  Zr  Zr16  1  0.50152381  0.49696397  0.90121064  1
  Zr  Zr17  1  0.49858513  0.70166037  0.69624401  1
  Zr  Zr18  1  0.30379097  0.90353137  0.90179554  1
  Zr  Zr19  1  0.49492541  0.70212002  0.49311822  1
  Zr  Zr20  1  0.10307905  0.30282922  0.70590511  1
  Zr  Zr21  1  0.09715355  0.49886205  0.89551319  1
  Zr  Zr22  1  0.49907232  0.10217724  0.09594887  1
  Zr  Zr23  1  0.29120271  0.70740980  0.91223951  1
  Zr  Zr24  1  0.09801009  0.09810025  0.51235612  1
  Zr  Zr25  1  0.69949126  0.49507847  0.70057109  1
  Zr  Zr26  1  0.89180076  0.90892887  0.69773897  1
  Zr  Zr27  1  0.08693738  0.10645362  0.89836472  1
  Zr  Zr28  1  0.70085303  0.49765097  0.09334243  1
  Zr  Zr29  1  0.10295831  0.70304708  0.50519298  1
  Zr  Zr30  1  0.70029457  0.69854798  0.90169655  1
  Zr  Zr31  1  0.89458456  0.29751859  0.09184279  1
  Zr  Zr32  1  0.29365064  0.30053177  0.69803607  1
  Zr  Zr33  1  0.50458663  0.90647628  0.70893789  1
  Zr  Zr34  1  0.09306567  0.09695845  0.10201191  1
  Zr  Zr35  1  0.89968782  0.10226040  0.30476776  1
  Zr  Zr36  1  0.49906160  0.49563518  0.70239880  1
  Zr  Zr37  1  0.90356728  0.69816187  0.70336958  1
  Zr  Zr38  1  0.09033118  0.30741163  0.50163665  1
  Zr  Zr39  1  0.10079104  0.70238940  0.29517169  1
  Zr  Zr40  1  0.90604902  0.89872702  0.10325604  1
  Zr  Zr41  1  0.90702688  0.90367500  0.89586491  1
  Zr  Zr42  1  0.09259999  0.70363823  0.89499826  1
  Zr  Zr43  1  0.30403111  0.49900649  0.09629051  1
  Zr  Zr44  1  0.09819669  0.30402729  0.90075074  1
  Zr  Zr45  1  0.69925239  0.70067037  0.09668533  1
  Zr  Zr46  1  0.09555770  0.90038917  0.10586784  1
  Zr  Zr47  1  0.09412091  0.49799338  0.29214196  1
  Zr  Zr48  1  0.70854032  0.09051228  0.69349673  1
  Zr  Zr49  1  0.90543138  0.09563115  0.70515210  1
  Sc  Sc50  1  0.49423241  0.09963828  0.29583719  1
  Sc  Sc51  1  0.49277630  0.30792161  0.89862568  1
  Sc  Sc52  1  0.49683632  0.50162089  0.30038483  1
  Sc  Sc53  1  0.30234621  0.90190962  0.70312531  1
  Sc  Sc54  1  0.29687310  0.29512003  0.29133754  1
  Sc  Sc55  1  0.31390603  0.10089766  0.90623523  1
  Sc  Sc56  1  0.90115971  0.49738750  0.89742114  1
  Sc  Sc57  1  0.69662068  0.29529913  0.69942619  1
  Sc  Sc58  1  0.70101158  0.10824682  0.89897477  1
  Sc  Sc59  1  0.70659915  0.30420266  0.09946566  1
  Sc  Sc60  1  0.90825873  0.89354510  0.30403070  1
  Sc  Sc61  1  0.49856436  0.09236664  0.90237417  1
  Sc  Sc62  1  0.30166253  0.30834605  0.89990791  1
  Sc  Sc63  1  0.70715234  0.69388764  0.70321494  1
  Sc  Sc64  1  0.30656941  0.10211734  0.10764206  1
  Sc  Sc65  1  0.29871278  0.28513739  0.49392086  1
  Sc  Sc66  1  0.70408120  0.30759096  0.50288618  1
  Sc  Sc67  1  0.09729557  0.49553843  0.09447721  1
  Sc  Sc68  1  0.70644789  0.90043788  0.49637839  1
  Sc  Sc69  1  0.51316759  0.10101486  0.70001538  1
  Sc  Sc70  1  0.89866064  0.69856858  0.10447120  1
  Sc  Sc71  1  0.09615986  0.70308727  0.09397538  1
  Sc  Sc72  1  0.89837509  0.50120873  0.70426333  1
  Sc  Sc73  1  0.49569199  0.90029461  0.30864175  1
  Sc  Sc74  1  0.29707837  0.69176232  0.49260010  1
  Sc  Sc75  1  0.30044285  0.88950041  0.09916661  1
  Sc  Sc76  1  0.90008104  0.49769802  0.29017852  1
  Sc  Sc77  1  0.90401728  0.69695394  0.89850269  1
  Sc  Sc78  1  0.29411514  0.49476408  0.69550340  1
  Sc  Sc79  1  0.49607714  0.49814401  0.48766231  1
  Sc  Sc80  1  0.49445764  0.10462116  0.49320133  1
  Sc  Sc81  1  0.50037378  0.90259738  0.08750245  1
  Sc  Sc82  1  0.68241975  0.89349050  0.91223016  1
  Sc  Sc83  1  0.69710479  0.50152162  0.90206940  1
  Sc  Sc84  1  0.29876194  0.88452850  0.50516264  1
  Sc  Sc85  1  0.29989225  0.49494033  0.90446216  1
  Sc  Sc86  1  0.49728291  0.50431286  0.09670653  1
  Sc  Sc87  1  0.70076825  0.11417082  0.10373349  1
  Sc  Sc88  1  0.30193827  0.10346894  0.30760525  1
  Sc  Sc89  1  0.09397830  0.89914520  0.70307735  1
  Sc  Sc90  1  0.90806082  0.90234228  0.50148452  1
  Sc  Sc91  1  0.51128057  0.70164353  0.90767129  1
  Sc  Sc92  1  0.10472439  0.09557182  0.29776195  1
  Sc  Sc93  1  0.30384684  0.70507481  0.29749002  1
  Sc  Sc94  1  0.90075146  0.10582491  0.90235089  1
  Sc  Sc95  1  0.90313245  0.09742016  0.50541156  1
  Sc  Sc96  1  0.89698404  0.30367743  0.69717962  1
  Sc  Sc97  1  0.30017331  0.70585838  0.68276507  1
  Sc  Sc98  1  0.29346758  0.89785487  0.29736744  1
  Sc  Sc99  1  0.09955882  0.89770527  0.29773262  1
  Nb  Nb100  1  0.29420865  0.10009572  0.50679647  1
  Nb  Nb101  1  0.90603662  0.09648296  0.09749200  1
  Nb  Nb102  1  0.70139364  0.09863869  0.29929969  1
  Nb  Nb103  1  0.11004812  0.29818614  0.10575461  1
  Nb  Nb104  1  0.69932327  0.70194370  0.49808349  1
  Nb  Nb105  1  0.30012616  0.29863547  0.09358449  1
  Nb  Nb106  1  0.50258366  0.69826445  0.29502970  1
  Nb  Nb107  1  0.10090660  0.30051352  0.29462563  1
  Nb  Nb108  1  0.50427601  0.29758920  0.29828209  1
  Nb  Nb109  1  0.89560940  0.49917462  0.10289560  1
  Nb  Nb110  1  0.10668861  0.10415408  0.70335711  1
  Nb  Nb111  1  0.49588885  0.29710726  0.10135858  1
  Nb  Nb112  1  0.70193309  0.09520000  0.49014507  1
  Nb  Nb113  1  0.70480562  0.30270403  0.91376062  1
  Nb  Nb114  1  0.10308755  0.49568353  0.69523411  1
  Nb  Nb115  1  0.70074025  0.89884251  0.10412499  1
  Nb  Nb116  1  0.29154925  0.10715490  0.69289905  1
  Nb  Nb117  1  0.49126099  0.69891731  0.10845699  1
  Nb  Nb118  1  0.10424304  0.49968811  0.50185293  1
  Nb  Nb119  1  0.09610258  0.69269119  0.70463038  1
  Nb  Nb120  1  0.90429280  0.69341956  0.30353208  1
  Nb  Nb121  1  0.09887206  0.90327953  0.49507370  1
  Nb  Nb122  1  0.29550675  0.49517778  0.49571968  1
  Nb  Nb123  1  0.30314516  0.69814862  0.10302431  1
  Nb  Nb124  1  0.69689011  0.90003820  0.70195712  1
  Nb  Nb125  1  0.59464848  0.39275667  0.19699784  1
  Nb  Nb126  1  0.80439277  0.60289300  0.40178778  1
  Nb  Nb127  1  0.79897096  0.00064539  0.19944565  1
  Nb  Nb128  1  0.40161856  0.79344426  0.80374681  1
  Nb  Nb129  1  0.20030340  0.01065964  0.80119010  1
  Nb  Nb130  1  0.60798098  -0.00268127  0.19917252  1
  Nb  Nb131  1  0.39351925  0.60532794  0.80085123  1
  Nb  Nb132  1  0.79900696  -0.00070637  0.01020258  1
  Nb  Nb133  1  0.39604745  0.39741684  0.59248749  1
  Nb  Nb134  1  0.20024924  -0.00081911  0.41325422  1
  Nb  Nb135  1  0.60618563  0.79749349  0.59952266  1
  Nb  Nb136  1  0.59566823  0.20990012  0.00163145  1
  Nb  Nb137  1  0.60025993  0.60355191  0.59490262  1
  Nb  Nb138  1  0.00314179  0.20467932  0.19830523  1
  Nb  Nb139  1  0.39828425  0.19910579  0.79031354  1
  Nb  Nb140  1  0.39309764  0.00885291  0.60065040  1
  Nb  Nb141  1  0.59705004  0.79977190  0.20101783  1
  Nb  Nb142  1  0.79555081  0.80623974  0.79941683  1
  Nb  Nb143  1  0.19930470  0.60459949  0.79541266  1
  Nb  Nb144  1  0.19638782  0.00461015  -0.00161430  1
  Nb  Nb145  1  0.19994941  0.20038840  0.00511995  1
  Nb  Nb146  1  0.19438948  0.40069530  0.39778587  1
  Nb  Nb147  1  0.60676573  0.19784573  0.39249429  1
  Nb  Nb148  1  -0.00046355  0.59890454  0.40320825  1
  Nb  Nb149  1  0.20447258  0.60178481  0.19358274  1
  Pd  Pd150  1  0.40069310  0.58747446  0.59815568  1
  Pd  Pd151  1  0.80001067  0.60028405  0.20391403  1
  Pd  Pd152  1  0.20681363  0.40717891  0.20149277  1
  Pd  Pd153  1  0.59836410  0.59798369  0.19568301  1
  Pd  Pd154  1  0.80554052  0.80692332  -0.00873300  1
  Pd  Pd155  1  0.20156066  -0.01113990  0.60403404  1
  Pd  Pd156  1  0.60888598  0.39054664  0.80765049  1
  Pd  Pd157  1  0.79855728  0.19632375  0.59650868  1
  Pd  Pd158  1  0.79566025  0.59408243  0.59600929  1
  Pd  Pd159  1  0.59643629  0.60260110  0.79571231  1
  Pd  Pd160  1  0.39772492  0.20076335  0.20364816  1
  Pd  Pd161  1  0.18996425  0.19912367  0.40154009  1
  Pd  Pd162  1  0.40687865  0.80850007  0.20053105  1
  Pd  Pd163  1  0.40451040  0.60529477  -0.00839957  1
  Pd  Pd164  1  0.20686384  0.79823143  0.79086630  1
  Pd  Pd165  1  0.19349539  0.59641756  0.39146692  1
  Pd  Pd166  1  0.80763153  0.59638838  -0.00540646  1
  Pd  Pd167  1  0.60898829  0.00406798  0.81139096  1
  Pd  Pd168  1  0.59402920  0.20609985  0.81148978  1
  Pd  Pd169  1  0.81130641  0.19595989  0.19732096  1
  Pd  Pd170  1  0.19148288  0.80469180  0.60561438  1
  Pd  Pd171  1  -0.00491641  0.39332626  0.18830610  1
  Pd  Pd172  1  0.00278594  0.79465587  0.40091349  1
  Pd  Pd173  1  0.40478259  0.19991343  0.60279325  1
  Pd  Pd174  1  0.60932780  0.19245599  0.58744976  1
  Pd  Pd175  1  0.19430332  0.59884019  -0.00005062  1
  Pd  Pd176  1  0.00064542  0.59310354  0.59842682  1
  Pd  Pd177  1  0.40428310  0.39923116  0.19854773  1
  Pd  Pd178  1  0.20708749  0.00274772  0.19994701  1
  Pd  Pd179  1  0.21031130  0.19508108  0.81645580  1
  Pd  Pd180  1  0.81132364  -0.00573265  0.39883289  1
  Pd  Pd181  1  0.80094942  0.80163439  0.20711747  1
  Pd  Pd182  1  0.00352944  0.80562744  0.60579288  1
  Pd  Pd183  1  0.79371760  0.80597721  0.60454364  1
  Pd  Pd184  1  0.40476746  -0.00851748  0.19678393  1
  Pd  Pd185  1  -0.00142386  0.39839876  0.00510673  1
  Pd  Pd186  1  0.59854696  -0.00046242  0.59123592  1
  Pd  Pd187  1  -0.00627630  0.59899048  0.00438888  1
  Pd  Pd188  1  0.60157480  0.59929028  0.40258709  1
  Pd  Pd189  1  0.00933944  0.19368574  0.39509747  1
  Pd  Pd190  1  0.79919438  0.20400109  0.79757658  1
  Pd  Pd191  1  0.39000079  0.38831844  0.40031502  1
  Pd  Pd192  1  0.39511234  0.79882856  0.39541357  1
  Pd  Pd193  1  0.78739980  -0.00725021  0.81767782  1
  Pd  Pd194  1  0.79485897  0.39666562  0.80317175  1
  Pd  Pd195  1  0.00077477  0.20276928  0.60905632  1
  Pd  Pd196  1  0.20169474  0.59886473  0.60463367  1
  Pd  Pd197  1  0.38592598  -0.00302715  0.40878225  1
  Pd  Pd198  1  0.79671351  0.20265860  0.40924050  1
  Pd  Pd199  1  0.59428109  0.00681371  0.39543004  1
  Rh  Rh200  1  0.40122913  0.20794120  -0.00732450  1
  Rh  Rh201  1  0.80905720  0.79580567  0.40166101  1
  Rh  Rh202  1  0.00478759  0.60144347  0.19680349  1
  Rh  Rh203  1  0.79797554  0.40173499  0.19688058  1
  Rh  Rh204  1  0.59511990  0.39429465  0.00646110  1
  Rh  Rh205  1  0.19979949  0.39399838  -0.00053547  1
  Rh  Rh206  1  0.79999427  0.39895412  0.60617318  1
  Rh  Rh207  1  0.39260436  0.01122943  0.78533668  1
  Rh  Rh208  1  0.40691302  0.20195791  0.39327098  1
  Rh  Rh209  1  0.80029484  0.40492711  0.39683130  1
  Rh  Rh210  1  0.19478032  0.80521890  0.01077671  1
  Rh  Rh211  1  -0.00047610  0.40441813  0.60977371  1
  Rh  Rh212  1  -0.00138712  0.40042773  0.79403388  1
  Rh  Rh213  1  -0.00848211  0.00573057  0.21191562  1
  Rh  Rh214  1  0.39956334  0.60479935  0.39662211  1
  Rh  Rh215  1  0.59264481  0.40942004  0.59652409  1
  Rh  Rh216  1  0.59506276  0.20070231  0.19930857  1
  Rh  Rh217  1  0.38863180  -0.00211965  0.01166225  1
  Rh  Rh218  1  -0.00890330  0.80250833  0.79315507  1
  Rh  Rh219  1  0.19916670  0.19461261  0.19516309  1
  Rh  Rh220  1  0.40403565  0.39874278  0.00530853  1
  Rh  Rh221  1  0.20061115  0.41039035  0.80423058  1
  Rh  Rh222  1  -0.00578039  0.20520849  0.79211638  1
  Rh  Rh223  1  0.39490326  0.59935578  0.20366333  1
  Rh  Rh224  1  0.00488076  0.59097844  0.79508406  1
  Rh  Rh225  1  0.00687209  0.20972688  0.00872815  1
  Rh  Rh226  1  0.00025767  -0.00483376  -0.00527779  1
  Rh  Rh227  1  0.80566273  0.40818577  -0.00450219  1
  Rh  Rh228  1  0.79658103  0.19238355  -0.00138076  1
  Rh  Rh229  1  0.59247551  0.79230845  0.01437900  1
  Rh  Rh230  1  0.60259505  0.79679756  0.79265718  1
  Rh  Rh231  1  0.41065156  0.81507602  0.60967634  1
  Rh  Rh232  1  0.40605218  0.79355011  -0.00275739  1
  Rh  Rh233  1  0.61179286  0.01645673  0.00828928  1
  Rh  Rh234  1  0.59503372  0.79955046  0.40043988  1
  Rh  Rh235  1  -0.00457334  0.79770979  0.00215505  1
  Rh  Rh236  1  0.39324720  0.40113317  0.78882792  1
  Rh  Rh237  1  0.19937240  0.79153274  0.19479826  1
  Rh  Rh238  1  0.18957545  0.20984563  0.59393862  1
  Rh  Rh239  1  0.20507836  0.39268516  0.58654456  1
  Rh  Rh240  1  0.60439342  0.39116167  0.38730432  1
  Rh  Rh241  1  0.80133849  0.60511632  0.80602814  1
  Rh  Rh242  1  0.00324640  -0.00067391  0.60669815  1
  Rh  Rh243  1  0.00906067  0.00229280  0.79705395  1
  Rh  Rh244  1  0.19872228  0.80703963  0.40016416  1
  Rh  Rh245  1  -0.00226624  0.79302855  0.19982387  1
  Rh  Rh246  1  0.59586178  0.60221260  0.00714207  1
  Rh  Rh247  1  0.00873280  0.00240100  0.39923319  1
  Rh  Rh248  1  0.79732454  -0.00006313  0.59002985  1
  Rh  Rh249  1  0.00594626  0.40837802  0.39733627  1
