# generated using pymatgen
data_ZrScNbPdRh
_symmetry_space_group_name_H-M   'P 1'
_cell_length_a   16.55812229
_cell_length_b   16.56439557
_cell_length_c   16.56307551
_cell_angle_alpha   89.99275470
_cell_angle_beta   90.00477954
_cell_angle_gamma   90.04369376
_symmetry_Int_Tables_number   1
_chemical_formula_structural   ZrScNbPdRh
_chemical_formula_sum   'Zr50 Sc50 Nb50 Pd50 Rh50'
_cell_volume   4542.84092259
_cell_formula_units_Z   50
loop_
 _symmetry_equiv_pos_site_id
 _symmetry_equiv_pos_as_xyz
  1  'x, y, z'
loop_
 _atom_site_type_symbol
 _atom_site_label
 _atom_site_symmetry_multiplicity
 _atom_site_fract_x
 _atom_site_fract_y
 _atom_site_fract_z
 _atom_site_occupancy
  Zr  Zr0  1  0.90514085  0.30241513  0.49831723  1
  Zr  Zr1  1  0.89456644  0.69890428  0.49822658  1
  Zr  Zr2  1  0.89211198  0.89771054  0.10606059  1
  Zr  Zr3  1  0.49825440  0.50362983  0.69692981  1
  Zr  Zr4  1  0.69433388  0.10013877  0.49961423  1
  Zr  Zr5  1  0.69941931  0.30486230  0.29936116  1
  Zr  Zr6  1  0.09785053  0.69587924  0.49920011  1
  Zr  Zr7  1  0.50438530  0.09749483  0.09479753  1
  Zr  Zr8  1  0.89609634  0.90145469  0.88604315  1
  Zr  Zr9  1  0.29972188  0.10615823  0.49571046  1
  Zr  Zr10  1  0.49243991  0.09839206  0.50332191  1
  Zr  Zr11  1  0.69444357  0.10215425  0.70535924  1
  Zr  Zr12  1  0.50443322  0.49248960  0.09563134  1
  Zr  Zr13  1  0.30186001  0.69881778  0.69752972  1
  Zr  Zr14  1  0.09325755  0.29834306  0.50744272  1
  Zr  Zr15  1  0.30209975  0.49365835  0.69382042  1
  Zr  Zr16  1  0.70866150  0.70993779  0.09756008  1
  Zr  Zr17  1  0.30113061  0.29159211  0.08916018  1
  Zr  Zr18  1  0.90991193  0.30142595  0.89945418  1
  Zr  Zr19  1  0.90373124  0.10199331  0.90149937  1
  Zr  Zr20  1  0.48906768  0.89988049  0.29642030  1
  Zr  Zr21  1  0.29681633  0.10460665  0.29892351  1
  Zr  Zr22  1  0.30749592  0.89658141  0.10529673  1
  Zr  Zr23  1  0.69973383  0.31088614  0.50020145  1
  Zr  Zr24  1  0.50334694  0.30729413  0.30436345  1
  Zr  Zr25  1  0.90326187  0.30325011  0.10001021  1
  Zr  Zr26  1  0.30194863  0.29376700  0.30406851  1
  Zr  Zr27  1  0.50727460  0.49899450  0.89907176  1
  Zr  Zr28  1  0.70242192  0.50417738  0.69115038  1
  Zr  Zr29  1  0.49689896  0.50153905  0.49747983  1
  Zr  Zr30  1  0.89933538  0.49543768  0.29213514  1
  Zr  Zr31  1  0.30236737  0.71449080  0.89320458  1
  Zr  Zr32  1  0.29952407  0.49557679  0.30311723  1
  Zr  Zr33  1  0.29174158  0.49507693  0.10087985  1
  Zr  Zr34  1  0.10511020  0.49795488  0.50156906  1
  Zr  Zr35  1  0.90195703  0.30632024  0.30287772  1
  Zr  Zr36  1  0.89764399  0.69117367  0.09784236  1
  Zr  Zr37  1  0.49352467  0.09550576  0.89784319  1
  Zr  Zr38  1  0.50120967  0.70294720  0.30018158  1
  Zr  Zr39  1  0.30471855  0.90770249  0.90108748  1
  Zr  Zr40  1  0.10401856  0.69494702  0.70163398  1
  Zr  Zr41  1  0.30004071  0.09936038  0.69213198  1
  Zr  Zr42  1  0.90164679  0.08814570  0.70492559  1
  Zr  Zr43  1  0.50202241  0.50446947  0.29953192  1
  Zr  Zr44  1  0.10596436  0.09523580  0.09585818  1
  Zr  Zr45  1  0.09354339  0.50104868  0.10092557  1
  Zr  Zr46  1  0.10081810  0.90733300  0.10340918  1
  Zr  Zr47  1  0.70179214  0.50763813  0.09432681  1
  Zr  Zr48  1  0.08546070  0.90311214  0.69857389  1
  Zr  Zr49  1  0.10466282  0.09533486  0.50478982  1
  Sc  Sc50  1  0.50389787  0.70537644  0.09213231  1
  Sc  Sc51  1  0.29920514  0.68767170  0.50473923  1
  Sc  Sc52  1  0.91315480  0.09789245  0.10073346  1
  Sc  Sc53  1  0.69717660  0.50178547  0.29514014  1
  Sc  Sc54  1  0.70302603  0.90712486  0.71136451  1
  Sc  Sc55  1  0.30334628  0.91447678  0.49975997  1
  Sc  Sc56  1  0.09001966  0.69675937  0.89585919  1
  Sc  Sc57  1  0.89272038  0.49641414  0.49689252  1
  Sc  Sc58  1  0.69636249  0.89109465  0.89934765  1
  Sc  Sc59  1  0.89183860  0.69880775  0.29933400  1
  Sc  Sc60  1  0.69433177  0.10730172  0.89951361  1
  Sc  Sc61  1  0.29961468  0.49890718  0.50142526  1
  Sc  Sc62  1  0.69803830  0.70032121  0.70363114  1
  Sc  Sc63  1  0.91091333  0.29848063  0.70264871  1
  Sc  Sc64  1  0.50055435  0.69902209  0.49155948  1
  Sc  Sc65  1  0.50457182  0.29385966  0.09745671  1
  Sc  Sc66  1  0.49606601  0.89524691  0.89917524  1
  Sc  Sc67  1  0.90764448  0.49694629  0.90883786  1
  Sc  Sc68  1  0.70191486  0.70058593  0.30202946  1
  Sc  Sc69  1  0.69147226  0.70402486  0.90060435  1
  Sc  Sc70  1  0.69498288  0.09420607  0.30091588  1
  Sc  Sc71  1  0.89900300  0.90125474  0.31123842  1
  Sc  Sc72  1  0.70302282  0.90665943  0.48977398  1
  Sc  Sc73  1  0.70751635  0.90273766  0.29985674  1
  Sc  Sc74  1  0.30695308  0.47520460  0.89999980  1
  Sc  Sc75  1  0.69581594  0.29701776  0.09596962  1
  Sc  Sc76  1  0.70185123  0.69732612  0.49696331  1
  Sc  Sc77  1  0.10187472  0.69159850  0.10849843  1
  Sc  Sc78  1  0.09770482  0.69252325  0.29794409  1
  Sc  Sc79  1  0.09684438  0.29614604  0.30528807  1
  Sc  Sc80  1  0.10055406  0.49831122  0.29709023  1
  Sc  Sc81  1  0.10030233  0.30150133  0.09960792  1
  Sc  Sc82  1  0.29422027  0.10422957  0.91050490  1
  Sc  Sc83  1  0.50579969  0.70030376  0.70526685  1
  Sc  Sc84  1  0.91053965  0.09592132  0.30043293  1
  Sc  Sc85  1  0.29741576  0.29814657  0.49910700  1
  Sc  Sc86  1  0.30193178  0.90148831  0.29437514  1
  Sc  Sc87  1  0.90231988  0.49402203  0.70144598  1
  Sc  Sc88  1  0.09962612  0.48961679  0.69793968  1
  Sc  Sc89  1  0.90422116  0.49995363  0.09690243  1
  Sc  Sc90  1  0.49728640  0.30074605  0.90636494  1
  Sc  Sc91  1  0.49579479  0.10218012  0.30229780  1
  Sc  Sc92  1  0.30269858  0.89941071  0.70967327  1
  Sc  Sc93  1  0.49402088  0.30722022  0.69760399  1
  Sc  Sc94  1  0.10038096  0.29744107  0.70266487  1
  Sc  Sc95  1  0.29571500  0.71105133  0.28742970  1
  Sc  Sc96  1  0.71026976  0.29457292  0.89873611  1
  Sc  Sc97  1  0.90296908  0.70442563  0.70874873  1
  Sc  Sc98  1  0.90797765  0.09608742  0.50426767  1
  Sc  Sc99  1  0.49957720  0.90768370  0.48892134  1
  Nb  Nb100  1  0.09210835  0.89737568  0.49783016  1
  Nb  Nb101  1  0.89479511  0.90125984  0.69857572  1
  Nb  Nb102  1  0.29594351  0.69973643  0.09792913  1
  Nb  Nb103  1  0.09644963  0.49703314  0.90447590  1
  Nb  Nb104  1  0.09775640  0.09518561  0.90154172  1
  Nb  Nb105  1  0.30339488  0.10056640  0.09946209  1
  Nb  Nb106  1  0.89598395  0.69700801  0.90295219  1
  Nb  Nb107  1  0.50110808  0.29952346  0.49420654  1
  Nb  Nb108  1  0.29781601  0.30302938  0.71388382  1
  Nb  Nb109  1  0.69688171  0.90349285  0.10141777  1
  Nb  Nb110  1  0.70315923  0.50614248  0.50723290  1
  Nb  Nb111  1  0.09921995  0.90000993  0.30013503  1
  Nb  Nb112  1  0.90900824  0.89847397  0.50802200  1
  Nb  Nb113  1  0.70183170  0.50358968  0.89474588  1
  Nb  Nb114  1  0.50112300  0.70036772  0.89412338  1
  Nb  Nb115  1  0.49849196  0.09752244  0.70085906  1
  Nb  Nb116  1  0.10913910  0.28923602  0.89458976  1
  Nb  Nb117  1  0.70123794  0.29972922  0.69949070  1
  Nb  Nb118  1  0.09830314  0.10388322  0.70537896  1
  Nb  Nb119  1  0.50294968  0.90421927  0.09967786  1
  Nb  Nb120  1  0.10042536  0.90808655  0.90868912  1
  Nb  Nb121  1  0.49716198  0.90940902  0.70134194  1
  Nb  Nb122  1  0.69894831  0.09553109  0.10044008  1
  Nb  Nb123  1  0.10066450  0.08863302  0.30003931  1
  Nb  Nb124  1  0.29881789  0.29264010  0.89353684  1
  Nb  Nb125  1  0.79535492  0.20108618  0.59963917  1
  Nb  Nb126  1  0.80073406  0.20244647  0.40040504  1
  Nb  Nb127  1  -0.00097516  0.80327401  0.19799660  1
  Nb  Nb128  1  0.39830618  0.59836257  0.19084695  1
  Nb  Nb129  1  0.80028914  0.19812793  0.20223090  1
  Nb  Nb130  1  0.20540780  0.59086834  0.80782842  1
  Nb  Nb131  1  0.39960193  0.40053499  0.19941208  1
  Nb  Nb132  1  0.19066891  0.00527144  0.80317305  1
  Nb  Nb133  1  0.40403121  0.80467961  0.60089851  1
  Nb  Nb134  1  0.19826535  0.80504864  0.59508294  1
  Nb  Nb135  1  0.20552372  0.60102165  -0.00865396  1
  Nb  Nb136  1  0.59799474  0.20395650  0.60311676  1
  Nb  Nb137  1  0.60112954  0.80891574  0.19443382  1
  Nb  Nb138  1  0.39561157  0.60191651  -0.00404929  1
  Nb  Nb139  1  0.80155614  0.59910852  0.80739818  1
  Nb  Nb140  1  0.19275034  0.80571223  0.40596998  1
  Nb  Nb141  1  0.39514962  0.20029400  0.79630365  1
  Nb  Nb142  1  0.59940216  0.81018641  0.60103458  1
  Nb  Nb143  1  0.79394964  0.00033995  0.00542056  1
  Nb  Nb144  1  -0.00019583  0.80232446  0.00098874  1
  Nb  Nb145  1  -0.00114217  0.60047961  0.59833026  1
  Nb  Nb146  1  0.39756451  0.59880334  0.80710057  1
  Nb  Nb147  1  0.80196891  0.80852402  0.60205682  1
  Nb  Nb148  1  0.60962677  0.40067611  0.79522132  1
  Nb  Nb149  1  0.19554977  0.79943170  0.00138387  1
  Pd  Pd150  1  0.19205771  0.20097790  0.19921663  1
  Pd  Pd151  1  0.19178620  0.40282683  0.80221726  1
  Pd  Pd152  1  0.59608662  -0.00352050  0.20716106  1
  Pd  Pd153  1  -0.00027301  0.79653028  0.39005782  1
  Pd  Pd154  1  0.60466283  -0.00375132  -0.01000070  1
  Pd  Pd155  1  0.00205772  0.80211304  0.80563853  1
  Pd  Pd156  1  0.80116074  0.40433564  0.79968614  1
  Pd  Pd157  1  0.19767330  -0.00878790  0.60817753  1
  Pd  Pd158  1  0.00111239  0.19130222  0.40102304  1
  Pd  Pd159  1  0.59820504  0.61232768  0.19415995  1
  Pd  Pd160  1  -0.00639820  0.59229331  0.40087029  1
  Pd  Pd161  1  0.79899592  0.40253977  -0.00066976  1
  Pd  Pd162  1  0.60024407  -0.00526623  0.80834960  1
  Pd  Pd163  1  0.60464165  0.19840644  0.20136515  1
  Pd  Pd164  1  0.60001027  -0.00175450  0.59913469  1
  Pd  Pd165  1  -0.00280065  0.79118314  0.60278069  1
  Pd  Pd166  1  0.58735719  0.21161172  0.79738881  1
  Pd  Pd167  1  0.80904606  0.39397782  0.60435309  1
  Pd  Pd168  1  0.60612501  0.80542029  0.39700005  1
  Pd  Pd169  1  0.79459456  0.39712111  0.19022350  1
  Pd  Pd170  1  0.80525204  0.00929385  0.19926646  1
  Pd  Pd171  1  0.40138541  0.79884299  0.00268659  1
  Pd  Pd172  1  0.20670870  0.00052582  0.20033446  1
  Pd  Pd173  1  0.38432395  0.79702348  0.41011711  1
  Pd  Pd174  1  0.19936270  0.20796035  0.60377902  1
  Pd  Pd175  1  0.20065243  0.38881665  0.20399728  1
  Pd  Pd176  1  0.19589370  0.39331866  0.40313975  1
  Pd  Pd177  1  0.59922679  0.60743542  -0.00083697  1
  Pd  Pd178  1  -0.00281820  0.59027173  0.79640663  1
  Pd  Pd179  1  0.40660868  0.20334501  0.19881277  1
  Pd  Pd180  1  0.80392214  0.80677864  -0.00665771  1
  Pd  Pd181  1  0.61138543  0.39209874  -0.00960018  1
  Pd  Pd182  1  0.80174474  0.19184576  0.01013887  1
  Pd  Pd183  1  0.18851650  0.80820560  0.80133428  1
  Pd  Pd184  1  0.00923060  0.20293191  0.00082923  1
  Pd  Pd185  1  0.79671232  -0.00087183  0.59692012  1
  Pd  Pd186  1  0.59580566  0.39723361  0.60219911  1
  Pd  Pd187  1  0.20073036  -0.00528146  0.39727003  1
  Pd  Pd188  1  0.80948424  0.00780084  0.40487322  1
  Pd  Pd189  1  0.60594464  0.41375213  0.40301431  1
  Pd  Pd190  1  0.19358361  0.39728911  -0.00493935  1
  Pd  Pd191  1  0.60121161  0.19772793  0.40275207  1
  Pd  Pd192  1  0.39067187  0.60793272  0.39038846  1
  Pd  Pd193  1  0.59627063  0.61269755  0.59377438  1
  Pd  Pd194  1  0.20695260  0.60849575  0.39062080  1
  Pd  Pd195  1  0.40297036  0.20931907  0.60365407  1
  Pd  Pd196  1  0.80807090  0.19968274  0.79318191  1
  Pd  Pd197  1  0.39506354  0.39278161  0.59133707  1
  Pd  Pd198  1  0.00196903  0.19914264  0.20254181  1
  Pd  Pd199  1  0.79500980  0.59234927  0.39463751  1
  Rh  Rh200  1  0.79843906  0.59675621  -0.00853900  1
  Rh  Rh201  1  0.39453420  0.00626511  0.39262832  1
  Rh  Rh202  1  0.00252934  0.19832168  0.80037287  1
  Rh  Rh203  1  0.41212115  0.79203103  0.19180273  1
  Rh  Rh204  1  0.20358958  0.39219142  0.60031771  1
  Rh  Rh205  1  0.40241689  0.19661560  -0.00602632  1
  Rh  Rh206  1  0.79809908  0.59705687  0.19886343  1
  Rh  Rh207  1  0.19073571  0.19777440  0.40024711  1
  Rh  Rh208  1  0.00893166  0.39081193  -0.00417218  1
  Rh  Rh209  1  -0.00202436  0.40781896  0.59608283  1
  Rh  Rh210  1  0.80979224  0.61081745  0.61108933  1
  Rh  Rh211  1  0.00436862  -0.00018177  0.80297925  1
  Rh  Rh212  1  0.40008709  0.39555927  0.00669793  1
  Rh  Rh213  1  0.80098824  0.80392468  0.40881346  1
  Rh  Rh214  1  0.60688572  0.59552629  0.40569667  1
  Rh  Rh215  1  0.79765808  0.79994016  0.20748205  1
  Rh  Rh216  1  0.39086261  0.01073174  0.79794785  1
  Rh  Rh217  1  0.79698814  0.79019560  0.79519020  1
  Rh  Rh218  1  0.40325611  0.20226704  0.40205181  1
  Rh  Rh219  1  0.00443852  0.39907067  0.20048314  1
  Rh  Rh220  1  0.20587535  0.59880839  0.19978777  1
  Rh  Rh221  1  0.39839242  0.00196971  0.00709515  1
  Rh  Rh222  1  0.18742036  0.80045756  0.20125154  1
  Rh  Rh223  1  -0.00434320  0.19255284  0.60767085  1
  Rh  Rh224  1  0.59764159  0.39798249  0.19667763  1
  Rh  Rh225  1  0.59636394  0.80659873  0.79326788  1
  Rh  Rh226  1  0.79448127  0.40407876  0.39926051  1
  Rh  Rh227  1  0.59512857  0.80539617  0.00354834  1
  Rh  Rh228  1  0.40090441  -0.00514760  0.60164979  1
  Rh  Rh229  1  0.60257083  0.59415813  0.80059235  1
  Rh  Rh230  1  -0.00722127  0.60278056  0.20410361  1
  Rh  Rh231  1  0.00290494  -0.00007815  0.40347441  1
  Rh  Rh232  1  0.00570994  0.40719604  0.40009287  1
  Rh  Rh233  1  0.40929169  0.60941672  0.60388866  1
  Rh  Rh234  1  0.79065252  0.00742747  0.81302562  1
  Rh  Rh235  1  0.39885079  0.39707172  0.40103123  1
  Rh  Rh236  1  0.19238799  0.59481409  0.60839624  1
  Rh  Rh237  1  0.41092477  0.39594292  0.80264339  1
  Rh  Rh238  1  0.19541696  0.19859216  0.00065075  1
  Rh  Rh239  1  0.41253043  0.79833268  0.79061194  1
  Rh  Rh240  1  0.20285892  0.19050345  0.79913477  1
  Rh  Rh241  1  0.20970275  -0.00272829  0.00118451  1
  Rh  Rh242  1  0.00684098  0.39770617  0.80689991  1
  Rh  Rh243  1  0.00152900  0.00479667  0.60044750  1
  Rh  Rh244  1  0.00721043  0.60721340  0.00106621  1
  Rh  Rh245  1  0.59375522  -0.00132248  0.39216912  1
  Rh  Rh246  1  -0.01514169  -0.00780835  -0.00443117  1
  Rh  Rh247  1  -0.00050430  -0.00671506  0.20674157  1
  Rh  Rh248  1  0.39975517  0.00892654  0.19589579  1
  Rh  Rh249  1  0.60009673  0.19754521  -0.00297766  1
