# generated using pymatgen
data_ZrScNbPdRh
_symmetry_space_group_name_H-M   'P 1'
_cell_length_a   16.55656967
_cell_length_b   16.55634967
_cell_length_c   16.55349291
_cell_angle_alpha   90.03207870
_cell_angle_beta   89.99902206
_cell_angle_gamma   90.01283419
_symmetry_Int_Tables_number   1
_chemical_formula_structural   ZrScNbPdRh
_chemical_formula_sum   'Zr50 Sc50 Nb50 Pd50 Rh50'
_cell_volume   4537.58234397
_cell_formula_units_Z   50
loop_
 _symmetry_equiv_pos_site_id
 _symmetry_equiv_pos_as_xyz
  1  'x, y, z'
loop_
 _atom_site_type_symbol
 _atom_site_label
 _atom_site_symmetry_multiplicity
 _atom_site_fract_x
 _atom_site_fract_y
 _atom_site_fract_z
 _atom_site_occupancy
  Zr  Zr0  1  0.70238165  0.49910411  0.51438962  1
  Zr  Zr1  1  0.50440573  0.09805127  0.10373966  1
  Zr  Zr2  1  0.69800667  0.09809900  0.89940988  1
  Zr  Zr3  1  0.89687771  0.70414898  0.09709601  1
  Zr  Zr4  1  0.49278929  0.29408437  0.09756473  1
  Zr  Zr5  1  0.69157040  0.69938767  0.70605946  1
  Zr  Zr6  1  0.29697314  0.50087465  0.69595443  1
  Zr  Zr7  1  0.50162310  0.29567012  0.89434174  1
  Zr  Zr8  1  0.50733033  0.70481084  0.90773610  1
  Zr  Zr9  1  0.69899863  0.09701445  0.09660565  1
  Zr  Zr10  1  0.89792267  0.89739711  0.10229456  1
  Zr  Zr11  1  0.30451831  0.29836039  0.30214263  1
  Zr  Zr12  1  0.70219838  0.08699492  0.70150134  1
  Zr  Zr13  1  0.90550110  0.90990207  0.49349242  1
  Zr  Zr14  1  0.70365401  0.30036647  0.49807258  1
  Zr  Zr15  1  0.10506650  0.50278609  0.90516117  1
  Zr  Zr16  1  0.29593905  0.08632967  0.90033326  1
  Zr  Zr17  1  0.90630414  0.29633164  0.09837851  1
  Zr  Zr18  1  0.90977103  0.90292180  0.90158891  1
  Zr  Zr19  1  0.70100964  0.49434142  0.29477824  1
  Zr  Zr20  1  0.69897011  0.69494342  0.49981901  1
  Zr  Zr21  1  0.09762191  0.30641282  0.89149271  1
  Zr  Zr22  1  0.30484239  0.70321606  0.69546808  1
  Zr  Zr23  1  0.69783676  0.89372459  0.88883270  1
  Zr  Zr24  1  0.69701769  0.50071885  0.10023254  1
  Zr  Zr25  1  0.09833968  0.69936085  0.90851692  1
  Zr  Zr26  1  0.70485986  0.70480170  0.30548757  1
  Zr  Zr27  1  0.90701036  0.50483902  0.89749362  1
  Zr  Zr28  1  0.09452776  0.29881697  0.49571699  1
  Zr  Zr29  1  0.89889406  0.10162234  0.90154385  1
  Zr  Zr30  1  0.89637524  0.10379455  0.09327681  1
  Zr  Zr31  1  0.69918923  0.32024750  0.69544346  1
  Zr  Zr32  1  0.10232095  0.70820114  0.68428001  1
  Zr  Zr33  1  0.30071369  0.09579712  0.70495272  1
  Zr  Zr34  1  0.29387729  0.30122759  0.10436782  1
  Zr  Zr35  1  0.70070188  0.90362674  0.48976096  1
  Zr  Zr36  1  0.49053228  0.30215928  0.49096896  1
  Zr  Zr37  1  0.69851788  0.09912030  0.29517131  1
  Zr  Zr38  1  0.50160463  0.10045143  0.90851805  1
  Zr  Zr39  1  0.90884325  0.49772852  0.29745777  1
  Zr  Zr40  1  0.11176192  0.90006553  0.90317510  1
  Zr  Zr41  1  0.29485396  0.50007399  0.49647508  1
  Zr  Zr42  1  0.29983432  0.09997716  0.29809695  1
  Zr  Zr43  1  0.09438275  0.89637110  0.50219620  1
  Zr  Zr44  1  0.90254439  0.29709540  0.89680846  1
  Zr  Zr45  1  0.50618229  0.50495573  0.10701845  1
  Zr  Zr46  1  0.29927197  0.90027060  0.70594055  1
  Zr  Zr47  1  0.50146643  0.90584859  0.49581385  1
  Zr  Zr48  1  0.30464160  0.10536709  0.10484297  1
  Zr  Zr49  1  0.09646099  0.09681522  0.89671507  1
  Sc  Sc50  1  0.50029911  0.69544563  0.70017659  1
  Sc  Sc51  1  0.10601214  0.09587661  0.30381614  1
  Sc  Sc52  1  0.29569042  0.30202404  0.48860822  1
  Sc  Sc53  1  0.51403054  0.50252058  0.69990171  1
  Sc  Sc54  1  0.09728804  0.30906971  0.29363889  1
  Sc  Sc55  1  0.89405187  0.89468455  0.30160127  1
  Sc  Sc56  1  0.49024768  0.90045540  0.70491552  1
  Sc  Sc57  1  0.89501151  0.10644244  0.30336206  1
  Sc  Sc58  1  0.89704709  0.49925205  0.69553885  1
  Sc  Sc59  1  0.90113396  0.50355776  0.50065115  1
  Sc  Sc60  1  0.09568614  0.68817105  0.30145452  1
  Sc  Sc61  1  0.10279637  0.69551519  0.09772368  1
  Sc  Sc62  1  0.91252548  0.69580944  0.50316595  1
  Sc  Sc63  1  0.10601299  0.10859651  0.10157686  1
  Sc  Sc64  1  0.30498749  0.69743905  0.30052579  1
  Sc  Sc65  1  0.29550458  0.50240145  0.09669494  1
  Sc  Sc66  1  0.30783973  0.89766295  0.50124977  1
  Sc  Sc67  1  0.50448677  0.49583217  0.90795738  1
  Sc  Sc68  1  0.70258889  0.08986447  0.49578659  1
  Sc  Sc69  1  0.89879997  0.29810796  0.48851557  1
  Sc  Sc70  1  0.49835034  0.09930848  0.71245616  1
  Sc  Sc71  1  0.30341451  0.70238965  0.91720077  1
  Sc  Sc72  1  0.69454361  0.49473456  0.90081221  1
  Sc  Sc73  1  0.09102400  0.90373610  0.30737557  1
  Sc  Sc74  1  0.70627740  0.30396047  0.10607188  1
  Sc  Sc75  1  0.29931797  0.30223966  0.91002748  1
  Sc  Sc76  1  0.49298121  0.89664208  0.30059204  1
  Sc  Sc77  1  0.10507799  0.30216563  0.10318898  1
  Sc  Sc78  1  0.89682291  0.30509658  0.29738692  1
  Sc  Sc79  1  0.70157193  0.90341190  0.09910098  1
  Sc  Sc80  1  0.50058482  0.90095560  0.09910827  1
  Sc  Sc81  1  0.49509625  0.69873423  0.49666595  1
  Sc  Sc82  1  0.29309162  0.50579279  0.29672000  1
  Sc  Sc83  1  0.89978197  0.90231871  0.70663230  1
  Sc  Sc84  1  0.30630373  0.69439553  0.10788830  1
  Sc  Sc85  1  0.90999512  0.69984777  0.69838945  1
  Sc  Sc86  1  0.49640208  0.50722690  0.49916522  1
  Sc  Sc87  1  0.90180684  0.70104874  0.90426496  1
  Sc  Sc88  1  0.10542979  0.50070908  0.10837738  1
  Sc  Sc89  1  0.49232947  0.69544579  0.29914091  1
  Sc  Sc90  1  0.09410485  0.90319168  0.69970868  1
  Sc  Sc91  1  0.90381638  0.70353823  0.30032148  1
  Sc  Sc92  1  0.89751301  0.49819946  0.09906111  1
  Sc  Sc93  1  0.30545334  0.90314167  0.29973628  1
  Sc  Sc94  1  0.69956158  0.30324803  0.89903537  1
  Sc  Sc95  1  0.10132677  0.49129221  0.70510267  1
  Sc  Sc96  1  0.91309975  0.09451739  0.69965577  1
  Sc  Sc97  1  0.09848267  0.89107504  0.09449350  1
  Sc  Sc98  1  0.29921536  0.69360577  0.50549673  1
  Sc  Sc99  1  0.30466914  0.90018734  0.10262082  1
  Nb  Nb100  1  0.70306304  0.89589893  0.30208084  1
  Nb  Nb101  1  0.90604478  0.10386791  0.49916773  1
  Nb  Nb102  1  0.70312606  0.89824431  0.69526933  1
  Nb  Nb103  1  0.09076476  0.09620521  0.50260297  1
  Nb  Nb104  1  0.50191656  0.49383170  0.29737137  1
  Nb  Nb105  1  0.49782953  0.10418564  0.49946439  1
  Nb  Nb106  1  0.49148936  0.89636757  0.90502637  1
  Nb  Nb107  1  0.09998219  0.70174532  0.49953757  1
  Nb  Nb108  1  0.30318244  0.89546417  0.89755142  1
  Nb  Nb109  1  0.49858574  0.30052904  0.29997173  1
  Nb  Nb110  1  0.09971504  0.10479284  0.69621556  1
  Nb  Nb111  1  0.69518310  0.70149523  0.09223084  1
  Nb  Nb112  1  0.69510849  0.69973594  0.90215250  1
  Nb  Nb113  1  0.69978610  0.30070678  0.30459548  1
  Nb  Nb114  1  0.29603643  0.10373206  0.49824554  1
  Nb  Nb115  1  0.29353760  0.30189706  0.69948115  1
  Nb  Nb116  1  0.09528562  0.29681587  0.70002836  1
  Nb  Nb117  1  0.49560030  0.10787409  0.29626044  1
  Nb  Nb118  1  0.09613803  0.50620759  0.49065028  1
  Nb  Nb119  1  0.50702885  0.70114960  0.10450749  1
  Nb  Nb120  1  0.90699504  0.29840095  0.69792038  1
  Nb  Nb121  1  0.29659194  0.49993930  0.89797782  1
  Nb  Nb122  1  0.09811413  0.50171115  0.30065670  1
  Nb  Nb123  1  0.69850497  0.50684676  0.70145193  1
  Nb  Nb124  1  0.49532196  0.29807941  0.69898325  1
  Nb  Nb125  1  0.19757873  0.00864116  0.59577640  1
  Nb  Nb126  1  -0.00546906  0.00157563  0.19624242  1
  Nb  Nb127  1  0.39556631  0.59518568  0.80640982  1
  Nb  Nb128  1  0.79047099  0.60241234  0.80109158  1
  Nb  Nb129  1  0.20446241  0.60661891  0.80152810  1
  Nb  Nb130  1  0.79524516  0.80454709  0.60020371  1
  Nb  Nb131  1  0.59636008  0.20108095  0.39695861  1
  Nb  Nb132  1  0.00251788  0.40035854  -0.00250504  1
  Nb  Nb133  1  0.19730481  0.19816158  0.59989944  1
  Nb  Nb134  1  0.59998353  0.39771551  0.39456790  1
  Nb  Nb135  1  0.40469049  0.40054231  0.20371447  1
  Nb  Nb136  1  0.39730093  0.40059188  0.79550887  1
  Nb  Nb137  1  0.19670493  0.20129468  0.79330605  1
  Nb  Nb138  1  0.19644614  0.79532680  0.40187900  1
  Nb  Nb139  1  0.59638656  0.19901360  0.59715215  1
  Nb  Nb140  1  0.79498297  0.60506771  0.19675474  1
  Nb  Nb141  1  0.80159950  0.20201336  0.78918964  1
  Nb  Nb142  1  0.19952975  0.79848738  0.20807111  1
  Nb  Nb143  1  0.00325010  0.39395544  0.59816320  1
  Nb  Nb144  1  0.39691227  0.39475345  0.60447252  1
  Nb  Nb145  1  0.60596993  0.80747347  0.59904105  1
  Nb  Nb146  1  0.80134269  0.19897049  0.60318495  1
  Nb  Nb147  1  0.20525819  0.79685505  0.80298094  1
  Nb  Nb148  1  0.39605661  0.20139602  0.60008454  1
  Nb  Nb149  1  0.60409819  0.79618129  0.19954841  1
  Pd  Pd150  1  0.59359251  0.00636782  0.38766214  1
  Pd  Pd151  1  0.80693297  0.59698380  0.39454647  1
  Pd  Pd152  1  0.40896270  0.79977408  0.59549302  1
  Pd  Pd153  1  0.19155575  0.59479891  0.60171397  1
  Pd  Pd154  1  0.81216229  0.79514080  0.41146124  1
  Pd  Pd155  1  0.80685989  0.79121199  0.79545257  1
  Pd  Pd156  1  0.80600858  0.39959219  -0.00074456  1
  Pd  Pd157  1  0.19727457  0.20092560  -0.00821633  1
  Pd  Pd158  1  0.00645243  0.60018278  0.79120780  1
  Pd  Pd159  1  0.59151219  -0.00916234  0.80286963  1
  Pd  Pd160  1  0.39926017  0.00719444  0.59943113  1
  Pd  Pd161  1  0.39995672  0.79950427  0.01087325  1
  Pd  Pd162  1  0.00862205  0.79974717  0.80164582  1
  Pd  Pd163  1  0.79489937  -0.00837451  -0.00714093  1
  Pd  Pd164  1  0.38861834  0.20418118  0.80417635  1
  Pd  Pd165  1  0.19035696  -0.01070947  0.19647126  1
  Pd  Pd166  1  0.79593606  0.80521059  -0.00470622  1
  Pd  Pd167  1  0.60779741  0.20791328  0.00500767  1
  Pd  Pd168  1  0.58763905  0.39849470  0.59180423  1
  Pd  Pd169  1  0.20255304  -0.00956195  0.40821772  1
  Pd  Pd170  1  0.40023453  0.00536348  0.39746272  1
  Pd  Pd171  1  0.39864596  0.40393447  0.00256696  1
  Pd  Pd172  1  0.59496809  -0.01231323  0.20771830  1
  Pd  Pd173  1  0.80560693  -0.00033258  0.20545131  1
  Pd  Pd174  1  0.61198190  0.20483595  0.78836942  1
  Pd  Pd175  1  0.00832445  0.80334277  0.20437343  1
  Pd  Pd176  1  0.81107436  0.00099260  0.59861443  1
  Pd  Pd177  1  0.59125514  0.79782048  0.39699881  1
  Pd  Pd178  1  0.19518371  0.40290480  0.39247151  1
  Pd  Pd179  1  0.19493526  0.39544004  0.59266654  1
  Pd  Pd180  1  0.20191117  -0.00372868  0.01338191  1
  Pd  Pd181  1  0.80041995  0.40849061  0.40260286  1
  Pd  Pd182  1  0.19158499  0.20024362  0.39840177  1
  Pd  Pd183  1  0.79497214  0.59886852  -0.00355248  1
  Pd  Pd184  1  0.79899788  0.20385141  0.19945970  1
  Pd  Pd185  1  0.00371140  0.19948238  0.38810767  1
  Pd  Pd186  1  0.60497554  0.61014950  0.20824396  1
  Pd  Pd187  1  0.59885915  0.59252546  0.39837548  1
  Pd  Pd188  1  0.60050450  0.39202531  0.00475810  1
  Pd  Pd189  1  0.00481371  0.19429806  0.20614256  1
  Pd  Pd190  1  0.00743648  0.00268887  0.01024242  1
  Pd  Pd191  1  0.40550460  0.59679493  -0.00030122  1
  Pd  Pd192  1  0.39659041  0.59592190  0.39618231  1
  Pd  Pd193  1  -0.00608284  0.59989824  0.19265524  1
  Pd  Pd194  1  0.59143645  -0.00040444  0.60475468  1
  Pd  Pd195  1  0.80400481  0.60981065  0.60940098  1
  Pd  Pd196  1  0.80453116  0.40434669  0.79829713  1
  Pd  Pd197  1  0.58878993  0.80535045  0.79377179  1
  Pd  Pd198  1  0.60382591  0.20675201  0.20084659  1
  Pd  Pd199  1  0.39922765  -0.00037901  0.00526388  1
  Rh  Rh200  1  0.00125727  -0.00210447  0.60163698  1
  Rh  Rh201  1  0.40188851  0.41292302  0.39729721  1
  Rh  Rh202  1  0.40217004  0.79868408  0.19896175  1
  Rh  Rh203  1  0.40722303  0.59137159  0.60765339  1
  Rh  Rh204  1  -0.00362855  0.20539172  0.59389466  1
  Rh  Rh205  1  0.39166242  0.79590864  0.40372140  1
  Rh  Rh206  1  -0.00153770  0.79830660  -0.00066501  1
  Rh  Rh207  1  0.00424110  0.79339649  0.39896696  1
  Rh  Rh208  1  0.59564738  0.60795524  0.59488344  1
  Rh  Rh209  1  0.00018596  0.40212330  0.19181161  1
  Rh  Rh210  1  -0.00703164  0.00925993  0.38915503  1
  Rh  Rh211  1  0.79226185  0.19166913  0.40609839  1
  Rh  Rh212  1  0.00037552  0.40366190  0.40357101  1
  Rh  Rh213  1  0.39819313  0.20384808  0.20026346  1
  Rh  Rh214  1  0.20177198  0.81325822  0.59644564  1
  Rh  Rh215  1  -0.00077713  0.19389523  0.80116091  1
  Rh  Rh216  1  0.40168316  0.59215574  0.19912551  1
  Rh  Rh217  1  0.80353260  0.00459537  0.39287149  1
  Rh  Rh218  1  0.19322643  -0.00351114  0.79243264  1
  Rh  Rh219  1  0.81456296  0.39515144  0.59723864  1
  Rh  Rh220  1  0.19421827  0.40161465  0.00267739  1
  Rh  Rh221  1  0.19644699  0.60586168  0.40049657  1
  Rh  Rh222  1  0.20830888  0.79929081  0.00690098  1
  Rh  Rh223  1  0.40096747  0.19088966  0.40057370  1
  Rh  Rh224  1  0.00414093  -0.00079813  0.80025904  1
  Rh  Rh225  1  0.80419090  0.00328375  0.80355252  1
  Rh  Rh226  1  0.40575196  0.00319122  0.20027756  1
  Rh  Rh227  1  -0.00034168  0.60057425  0.40059191  1
  Rh  Rh228  1  0.60107407  -0.00950785  -0.00834073  1
  Rh  Rh229  1  0.39479606  0.19481940  -0.00470264  1
  Rh  Rh230  1  0.20266988  0.60149520  0.00083923  1
  Rh  Rh231  1  0.20692789  0.40353775  0.20479319  1
  Rh  Rh232  1  0.20004776  0.60551847  0.20303290  1
  Rh  Rh233  1  0.79233763  0.20224447  -0.00753153  1
  Rh  Rh234  1  0.59224834  0.40230053  0.80058236  1
  Rh  Rh235  1  0.80456599  0.40226893  0.19983346  1
  Rh  Rh236  1  0.20590113  0.39781057  0.80348167  1
  Rh  Rh237  1  0.00828413  0.20733748  -0.00078867  1
  Rh  Rh238  1  0.39738027  0.78989306  0.80721490  1
  Rh  Rh239  1  -0.01322130  0.80833110  0.59771363  1
  Rh  Rh240  1  0.60211473  0.80673867  0.00571467  1
  Rh  Rh241  1  0.59391273  0.39066168  0.20071253  1
  Rh  Rh242  1  0.60007586  0.59937617  -0.00228844  1
  Rh  Rh243  1  0.19818670  0.20234120  0.20909539  1
  Rh  Rh244  1  0.40743772  -0.00093611  0.81069451  1
  Rh  Rh245  1  0.00036207  0.59299962  0.00906647  1
  Rh  Rh246  1  0.00875608  0.58737111  0.60156942  1
  Rh  Rh247  1  0.79026896  0.79394127  0.19638193  1
  Rh  Rh248  1  -0.00496801  0.40568169  0.79688495  1
  Rh  Rh249  1  0.59926269  0.59607796  0.81141988  1
