# generated using pymatgen
data_ZrScNbPdRh
_symmetry_space_group_name_H-M   'P 1'
_cell_length_a   16.56324327
_cell_length_b   16.57017478
_cell_length_c   16.56736392
_cell_angle_alpha   90.01646105
_cell_angle_beta   90.00033720
_cell_angle_gamma   89.98017018
_symmetry_Int_Tables_number   1
_chemical_formula_structural   ZrScNbPdRh
_chemical_formula_sum   'Zr50 Sc50 Nb50 Pd50 Rh50'
_cell_volume   4547.00925320
_cell_formula_units_Z   50
loop_
 _symmetry_equiv_pos_site_id
 _symmetry_equiv_pos_as_xyz
  1  'x, y, z'
loop_
 _atom_site_type_symbol
 _atom_site_label
 _atom_site_symmetry_multiplicity
 _atom_site_fract_x
 _atom_site_fract_y
 _atom_site_fract_z
 _atom_site_occupancy
  Zr  Zr0  1  0.30423617  0.90152051  0.90301827  1
  Zr  Zr1  1  0.09706845  0.10160953  0.68816330  1
  Zr  Zr2  1  0.70060565  0.89650331  0.31019936  1
  Zr  Zr3  1  0.50779220  0.70018124  0.90181917  1
  Zr  Zr4  1  0.50307352  0.30396330  0.90182621  1
  Zr  Zr5  1  0.30372940  0.70482530  0.10082045  1
  Zr  Zr6  1  0.70028072  0.70061495  0.30106842  1
  Zr  Zr7  1  0.89158003  0.29876834  0.49921671  1
  Zr  Zr8  1  0.29899396  0.30902964  0.49821913  1
  Zr  Zr9  1  0.30256164  0.09969203  0.10655563  1
  Zr  Zr10  1  0.09728280  0.09160007  0.90776928  1
  Zr  Zr11  1  0.50221996  0.89925131  0.31378524  1
  Zr  Zr12  1  0.30291875  0.10288938  0.69676669  1
  Zr  Zr13  1  0.90712197  0.90719797  0.70697080  1
  Zr  Zr14  1  0.29578098  0.90252898  0.09949345  1
  Zr  Zr15  1  0.50165941  0.09955187  0.70007457  1
  Zr  Zr16  1  0.49572538  0.50300265  0.30472343  1
  Zr  Zr17  1  0.10010844  0.50820515  0.69802340  1
  Zr  Zr18  1  0.30523069  0.09730976  0.90323007  1
  Zr  Zr19  1  0.09656967  0.90205405  0.11129723  1
  Zr  Zr20  1  0.50376268  0.50542266  0.69242471  1
  Zr  Zr21  1  0.30092842  0.88289304  0.70371680  1
  Zr  Zr22  1  0.89832445  0.69881955  0.29711697  1
  Zr  Zr23  1  0.89551945  0.09714555  0.90275623  1
  Zr  Zr24  1  0.29668571  0.09754377  0.50147652  1
  Zr  Zr25  1  0.89481526  0.30520306  0.29625522  1
  Zr  Zr26  1  0.90513312  0.90682662  0.90559022  1
  Zr  Zr27  1  0.70412163  0.10487943  0.90911482  1
  Zr  Zr28  1  0.69604382  0.09862727  0.70390628  1
  Zr  Zr29  1  0.89372037  0.49478574  0.89758971  1
  Zr  Zr30  1  0.90566667  0.10387779  0.51235854  1
  Zr  Zr31  1  0.49932532  0.09979454  0.49395248  1
  Zr  Zr32  1  0.50047590  0.09966684  0.89308842  1
  Zr  Zr33  1  0.30621899  0.50462505  0.09135334  1
  Zr  Zr34  1  0.49626877  0.70579402  0.70047949  1
  Zr  Zr35  1  0.30126308  0.31073377  0.89688150  1
  Zr  Zr36  1  0.91065687  0.89156531  0.29254452  1
  Zr  Zr37  1  0.10979992  0.09471303  0.10710163  1
  Zr  Zr38  1  0.10319199  0.08861822  0.50392275  1
  Zr  Zr39  1  0.29992220  0.49726040  0.31160973  1
  Zr  Zr40  1  0.69119133  0.29692776  0.09840070  1
  Zr  Zr41  1  0.10599758  0.08838000  0.29731669  1
  Zr  Zr42  1  0.70079350  0.30372201  0.29755707  1
  Zr  Zr43  1  0.30060351  0.69082248  0.70387090  1
  Zr  Zr44  1  0.29613599  0.49693561  0.89405968  1
  Zr  Zr45  1  0.30906968  0.49927056  0.50814181  1
  Zr  Zr46  1  0.30064449  0.30645397  0.69542252  1
  Zr  Zr47  1  0.90688726  0.70628005  0.09678712  1
  Zr  Zr48  1  0.10390621  0.30333491  0.29583855  1
  Zr  Zr49  1  0.69169572  0.49916335  0.50019430  1
  Sc  Sc50  1  0.50040264  0.49738918  0.90557692  1
  Sc  Sc51  1  0.89331447  0.51106978  0.49657054  1
  Sc  Sc52  1  0.69469895  0.90036354  0.90287870  1
  Sc  Sc53  1  0.50923890  0.10589574  0.10271771  1
  Sc  Sc54  1  0.89756991  0.49876482  0.29474908  1
  Sc  Sc55  1  0.50245619  0.29740059  0.30155934  1
  Sc  Sc56  1  0.69315017  0.69018683  0.70343756  1
  Sc  Sc57  1  0.90284386  0.08862847  0.30508126  1
  Sc  Sc58  1  0.70607423  0.30667016  0.90132784  1
  Sc  Sc59  1  0.69424165  0.70294605  0.08408896  1
  Sc  Sc60  1  0.09654771  0.49500788  0.89994466  1
  Sc  Sc61  1  0.69755071  0.30022051  0.48993631  1
  Sc  Sc62  1  0.69937968  0.69199241  0.89901538  1
  Sc  Sc63  1  0.30882305  0.29401971  0.29933917  1
  Sc  Sc64  1  0.89092412  0.30752083  0.10274791  1
  Sc  Sc65  1  0.09640114  0.50305718  0.29815428  1
  Sc  Sc66  1  0.90144374  0.51457332  0.70437396  1
  Sc  Sc67  1  0.09466443  0.89582738  0.89748628  1
  Sc  Sc68  1  0.69770073  0.10550932  0.49628773  1
  Sc  Sc69  1  0.09780416  0.70869187  0.30303010  1
  Sc  Sc70  1  0.69678041  0.49350866  0.30479905  1
  Sc  Sc71  1  0.90275608  0.90789010  0.48711589  1
  Sc  Sc72  1  0.69471036  0.30415741  0.70797612  1
  Sc  Sc73  1  0.70034205  0.10096682  0.09719305  1
  Sc  Sc74  1  0.30534398  0.10278330  0.29772794  1
  Sc  Sc75  1  0.70267566  0.69447960  0.49454133  1
  Sc  Sc76  1  0.89920165  0.69198112  0.49657369  1
  Sc  Sc77  1  0.11283755  0.49999143  0.49582409  1
  Sc  Sc78  1  0.90102297  0.10029811  0.70249322  1
  Sc  Sc79  1  0.09536857  0.50221634  0.09376944  1
  Sc  Sc80  1  0.30313309  0.29812339  0.10442288  1
  Sc  Sc81  1  0.49860751  0.30245726  0.49761836  1
  Sc  Sc82  1  0.10122046  0.90150473  0.69917458  1
  Sc  Sc83  1  0.69479846  0.89796259  0.09461186  1
  Sc  Sc84  1  0.69050222  0.09922011  0.29936119  1
  Sc  Sc85  1  0.69181452  0.49632788  0.08755568  1
  Sc  Sc86  1  0.29808231  0.88560587  0.30968697  1
  Sc  Sc87  1  0.89638941  0.09382205  0.09222565  1
  Sc  Sc88  1  0.49948978  0.89174813  0.08681087  1
  Sc  Sc89  1  0.10001471  0.70311876  0.71076588  1
  Sc  Sc90  1  0.49838061  0.29648018  0.70295690  1
  Sc  Sc91  1  0.90451979  0.50411206  0.09941066  1
  Sc  Sc92  1  0.90588799  0.70386170  0.90248378  1
  Sc  Sc93  1  0.89742780  0.29655486  0.70088394  1
  Sc  Sc94  1  0.29704919  0.70480065  0.49702102  1
  Sc  Sc95  1  0.49785072  0.10349379  0.30497384  1
  Sc  Sc96  1  0.09884340  0.69639374  0.49999056  1
  Sc  Sc97  1  0.29447648  0.70387036  0.89637574  1
  Sc  Sc98  1  0.10485873  0.29779596  0.51086836  1
  Sc  Sc99  1  0.10344031  0.30742573  0.69948581  1
  Nb  Nb100  1  0.09368560  0.70473541  0.91289048  1
  Nb  Nb101  1  0.50174887  0.89374476  0.50332320  1
  Nb  Nb102  1  0.29901742  0.49979450  0.69908903  1
  Nb  Nb103  1  0.10202643  0.69831893  0.09305038  1
  Nb  Nb104  1  0.69968889  0.49998435  0.88471666  1
  Nb  Nb105  1  0.30967197  0.69633959  0.29640624  1
  Nb  Nb106  1  0.69323641  0.89522684  0.69219868  1
  Nb  Nb107  1  0.70062857  0.49596292  0.70802679  1
  Nb  Nb108  1  0.11224177  0.90194696  0.49391656  1
  Nb  Nb109  1  0.90501550  0.70718009  0.69383149  1
  Nb  Nb110  1  0.10282963  0.30276639  0.10127599  1
  Nb  Nb111  1  0.48636294  0.69857665  0.29807309  1
  Nb  Nb112  1  0.49716788  0.50021256  0.49830043  1
  Nb  Nb113  1  0.49462816  0.69097908  0.49709858  1
  Nb  Nb114  1  0.50064819  0.49867266  0.09791364  1
  Nb  Nb115  1  0.69256809  0.89842142  0.50169962  1
  Nb  Nb116  1  0.90398300  0.29866657  0.90176110  1
  Nb  Nb117  1  0.29575844  0.89866537  0.50178538  1
  Nb  Nb118  1  0.49870063  0.69001080  0.10153238  1
  Nb  Nb119  1  0.49688845  0.89740586  0.88804611  1
  Nb  Nb120  1  0.89812490  0.89790721  0.10317492  1
  Nb  Nb121  1  0.50338948  0.30971904  0.09732865  1
  Nb  Nb122  1  0.50674975  0.89585827  0.69732498  1
  Nb  Nb123  1  0.10171148  0.30488931  0.90319088  1
  Nb  Nb124  1  0.09740789  0.90418275  0.30872601  1
  Nb  Nb125  1  0.19715222  0.19938290  0.80569199  1
  Nb  Nb126  1  0.00454925  0.20757622  0.00294180  1
  Nb  Nb127  1  0.80190266  0.80311905  0.79002613  1
  Nb  Nb128  1  0.20551249  0.40680674  0.19665683  1
  Nb  Nb129  1  0.00454282  0.20103458  0.39824853  1
  Nb  Nb130  1  0.59319567  0.60228455  0.19710280  1
  Nb  Nb131  1  0.20390627  0.00405950  0.79882680  1
  Nb  Nb132  1  0.00189817  0.19988453  0.19808624  1
  Nb  Nb133  1  0.19607921  0.19768336  0.40104846  1
  Nb  Nb134  1  0.79147230  -0.00866835  0.60041708  1
  Nb  Nb135  1  0.79972781  -0.01055551  0.20044530  1
  Nb  Nb136  1  0.40107345  0.20388901  0.00008113  1
  Nb  Nb137  1  0.59130335  0.79069348  0.20301083  1
  Nb  Nb138  1  0.79094267  0.60553542  0.19463652  1
  Nb  Nb139  1  -0.00714494  0.40601937  0.59573107  1
  Nb  Nb140  1  -0.00454873  0.80236734  0.59858658  1
  Nb  Nb141  1  0.40431437  -0.00672909  0.20127556  1
  Nb  Nb142  1  0.19900335  0.20566691  -0.00144025  1
  Nb  Nb143  1  -0.00192447  0.39401326  0.40452743  1
  Nb  Nb144  1  0.80003920  0.80535189  0.60267133  1
  Nb  Nb145  1  0.40652002  -0.01485065  0.59856404  1
  Nb  Nb146  1  0.20509013  0.60489811  0.19781782  1
  Nb  Nb147  1  0.79688994  0.40775122  0.60456006  1
  Nb  Nb148  1  0.00590416  0.20423606  0.81098948  1
  Nb  Nb149  1  0.40381872  0.40505205  0.19595680  1
  Pd  Pd150  1  0.40012520  0.79605282  0.59351694  1
  Pd  Pd151  1  0.40244414  0.20106201  0.59451999  1
  Pd  Pd152  1  0.39374441  -0.00523583  0.40057449  1
  Pd  Pd153  1  0.18937374  0.79433251  0.60062741  1
  Pd  Pd154  1  0.40514332  0.59769672  0.80470934  1
  Pd  Pd155  1  0.80314676  0.20373331  0.80067985  1
  Pd  Pd156  1  0.80158838  0.59690328  0.00228627  1
  Pd  Pd157  1  0.60148659  0.39384880  0.60000275  1
  Pd  Pd158  1  -0.00424115  0.39742431  0.78992474  1
  Pd  Pd159  1  0.60475361  -0.00407778  0.80420304  1
  Pd  Pd160  1  0.78766868  0.79864721  0.19138599  1
  Pd  Pd161  1  0.80535908  0.61204574  0.79866436  1
  Pd  Pd162  1  0.79074583  0.41438007  0.19045237  1
  Pd  Pd163  1  0.60281668  0.20661950  0.59743750  1
  Pd  Pd164  1  0.20025992  0.60577363  0.59879013  1
  Pd  Pd165  1  0.80018664  0.80352194  -0.01107157  1
  Pd  Pd166  1  0.80627069  0.79913526  0.41041536  1
  Pd  Pd167  1  0.19557946  0.80723085  -0.00245522  1
  Pd  Pd168  1  0.20277699  0.60941639  0.39291197  1
  Pd  Pd169  1  0.19685890  0.59816856  -0.00230829  1
  Pd  Pd170  1  -0.00412568  0.39933426  0.00492333  1
  Pd  Pd171  1  0.60474643  0.78545621  0.59281577  1
  Pd  Pd172  1  0.19012364  0.60258837  0.81063260  1
  Pd  Pd173  1  0.59733078  0.20176602  0.20347181  1
  Pd  Pd174  1  0.78949178  0.20312524  0.60743723  1
  Pd  Pd175  1  0.40227112  0.79370418  -0.00564613  1
  Pd  Pd176  1  0.41321322  0.00744754  0.00930483  1
  Pd  Pd177  1  0.60555825  0.20403696  0.80642623  1
  Pd  Pd178  1  0.60807166  0.79849033  0.80354112  1
  Pd  Pd179  1  0.59374992  -0.00026656  -0.00354201  1
  Pd  Pd180  1  0.00097614  0.59192435  0.39959595  1
  Pd  Pd181  1  0.79476526  0.00417300  0.40145226  1
  Pd  Pd182  1  0.80627632  0.18451160  0.20023038  1
  Pd  Pd183  1  0.78903041  -0.00724130  0.79707491  1
  Pd  Pd184  1  0.00382661  0.60530937  0.19863440  1
  Pd  Pd185  1  0.39818972  -0.00761422  0.78762024  1
  Pd  Pd186  1  0.00192582  0.79963554  0.41064205  1
  Pd  Pd187  1  0.59898071  0.00418153  0.59300954  1
  Pd  Pd188  1  0.59711421  0.60297734  0.39467685  1
  Pd  Pd189  1  0.40697530  0.80976621  0.19910579  1
  Pd  Pd190  1  0.59901423  -0.01168904  0.20136679  1
  Pd  Pd191  1  0.19575035  0.79714377  0.20651716  1
  Pd  Pd192  1  0.00181150  0.60632958  0.80908490  1
  Pd  Pd193  1  0.59287429  0.78712810  0.40272953  1
  Pd  Pd194  1  0.80316130  0.18922780  0.39147457  1
  Pd  Pd195  1  0.40841194  0.40712955  0.79151760  1
  Pd  Pd196  1  0.79656981  0.40169668  0.00128014  1
  Pd  Pd197  1  0.79506413  0.60122292  0.60617652  1
  Pd  Pd198  1  0.39995861  0.60482751  -0.01129320  1
  Pd  Pd199  1  0.60109693  0.60507385  0.59877859  1
  Rh  Rh200  1  0.00369019  0.80781717  0.00677639  1
  Rh  Rh201  1  0.19497959  0.40894103  0.60597680  1
  Rh  Rh202  1  0.40167021  0.79481580  0.40889983  1
  Rh  Rh203  1  0.59372448  0.40649879  0.20305774  1
  Rh  Rh204  1  0.19510373  0.80183609  0.80761913  1
  Rh  Rh205  1  0.41199489  0.20153385  0.19143406  1
  Rh  Rh206  1  0.39494166  0.20729085  0.80685543  1
  Rh  Rh207  1  0.00361941  0.00318920  0.40453231  1
  Rh  Rh208  1  0.40731224  0.39663164  0.39627836  1
  Rh  Rh209  1  0.59449406  0.79896631  -0.00344653  1
  Rh  Rh210  1  0.59524906  0.40357671  0.80102498  1
  Rh  Rh211  1  -0.00217473  0.79592497  0.79838893  1
  Rh  Rh212  1  0.60626665  0.40333858  -0.01003384  1
  Rh  Rh213  1  0.20212507  0.40047927  0.00753974  1
  Rh  Rh214  1  0.19648786  0.20827318  0.20076055  1
  Rh  Rh215  1  0.40399826  0.79621263  0.80370399  1
  Rh  Rh216  1  -0.01135021  0.00543954  0.19535993  1
  Rh  Rh217  1  0.80146966  0.40848703  0.41033624  1
  Rh  Rh218  1  0.80494948  0.20735673  0.00429915  1
  Rh  Rh219  1  0.00610015  0.60135513  0.59686648  1
  Rh  Rh220  1  0.21270398  -0.01319027  0.61041919  1
  Rh  Rh221  1  0.00091768  0.21210551  0.60397381  1
  Rh  Rh222  1  0.39782507  0.39453501  0.00633867  1
  Rh  Rh223  1  0.19620134  0.39277464  0.39522420  1
  Rh  Rh224  1  -0.00137677  0.59687549  -0.00582274  1
  Rh  Rh225  1  0.59989287  0.20301455  0.39691705  1
  Rh  Rh226  1  0.01062686  0.01119726  0.79595975  1
  Rh  Rh227  1  0.39256800  0.20305924  0.40662797  1
  Rh  Rh228  1  0.00202070  -0.00324419  0.01031348  1
  Rh  Rh229  1  0.79935107  0.59579624  0.38593952  1
  Rh  Rh230  1  0.21556269  -0.01477337  0.21457053  1
  Rh  Rh231  1  0.59492502  0.39829288  0.40049911  1
  Rh  Rh232  1  0.20792667  0.00113688  0.39480917  1
  Rh  Rh233  1  0.00517922  0.39754182  0.20270405  1
  Rh  Rh234  1  0.59667213  0.20316866  -0.00407080  1
  Rh  Rh235  1  0.39850986  0.60358418  0.59949788  1
  Rh  Rh236  1  0.19790576  0.79606374  0.39897357  1
  Rh  Rh237  1  0.39397930  0.60351605  0.40936322  1
  Rh  Rh238  1  0.00912912  0.79463498  0.19680954  1
  Rh  Rh239  1  0.19572516  -0.00738049  -0.00476603  1
  Rh  Rh240  1  0.19715310  0.40207568  0.79331116  1
  Rh  Rh241  1  0.39808215  0.59207238  0.20018100  1
  Rh  Rh242  1  0.59342308  0.59450304  0.80137655  1
  Rh  Rh243  1  0.40804455  0.40222225  0.60395608  1
  Rh  Rh244  1  0.20356918  0.20493423  0.59935721  1
  Rh  Rh245  1  0.60177288  0.00168726  0.40635202  1
  Rh  Rh246  1  -0.00628683  -0.01270005  0.59167298  1
  Rh  Rh247  1  0.60059480  0.59371047  -0.00276470  1
  Rh  Rh248  1  0.80748862  0.39890885  0.79451715  1
  Rh  Rh249  1  0.79550109  -0.00790766  0.00920886  1
