# generated using pymatgen
data_ZrScNbPdRh
_symmetry_space_group_name_H-M   'P 1'
_cell_length_a   16.55085930
_cell_length_b   16.55432639
_cell_length_c   16.55012350
_cell_angle_alpha   90.00253605
_cell_angle_beta   89.98423479
_cell_angle_gamma   89.97655088
_symmetry_Int_Tables_number   1
_chemical_formula_structural   ZrScNbPdRh
_chemical_formula_sum   'Zr50 Sc50 Nb50 Pd50 Rh50'
_cell_volume   4534.54009052
_cell_formula_units_Z   50
loop_
 _symmetry_equiv_pos_site_id
 _symmetry_equiv_pos_as_xyz
  1  'x, y, z'
loop_
 _atom_site_type_symbol
 _atom_site_label
 _atom_site_symmetry_multiplicity
 _atom_site_fract_x
 _atom_site_fract_y
 _atom_site_fract_z
 _atom_site_occupancy
  Zr  Zr0  1  0.10207454  0.49137805  0.49244874  1
  Zr  Zr1  1  0.29766752  0.49916821  0.89953631  1
  Zr  Zr2  1  0.29631062  0.89743881  0.70183596  1
  Zr  Zr3  1  0.29726906  0.50235918  0.50544576  1
  Zr  Zr4  1  0.70986362  0.29236564  0.50667562  1
  Zr  Zr5  1  0.09698059  0.09752523  0.90960080  1
  Zr  Zr6  1  0.50378888  0.70499492  0.49822620  1
  Zr  Zr7  1  0.29824897  0.89629728  0.10326280  1
  Zr  Zr8  1  0.70230995  0.90182622  0.89527699  1
  Zr  Zr9  1  0.09513318  0.90072349  0.30095305  1
  Zr  Zr10  1  0.09962256  0.90205447  0.09561636  1
  Zr  Zr11  1  0.89161133  0.48915647  0.50424317  1
  Zr  Zr12  1  0.49354556  0.10666305  0.89249288  1
  Zr  Zr13  1  0.09608429  0.10263478  0.69913155  1
  Zr  Zr14  1  0.09751176  0.30846892  0.30583198  1
  Zr  Zr15  1  0.69117955  0.70439353  0.91721737  1
  Zr  Zr16  1  0.90603037  0.50074424  0.90064967  1
  Zr  Zr17  1  0.10205633  0.29969177  0.70178909  1
  Zr  Zr18  1  0.88508671  0.10799311  0.49426544  1
  Zr  Zr19  1  0.71495211  0.30040109  0.89985004  1
  Zr  Zr20  1  0.49551961  0.29633003  0.70076240  1
  Zr  Zr21  1  0.70922093  0.90698129  0.70092981  1
  Zr  Zr22  1  0.90338619  0.90221727  0.29932257  1
  Zr  Zr23  1  0.70381134  0.49693200  0.10482568  1
  Zr  Zr24  1  0.90084389  0.49011464  0.29728979  1
  Zr  Zr25  1  0.49430456  0.29270271  0.50004166  1
  Zr  Zr26  1  0.28821788  0.50213433  0.09816101  1
  Zr  Zr27  1  0.70120903  0.49734974  0.70237134  1
  Zr  Zr28  1  0.70000364  0.29816194  0.28321679  1
  Zr  Zr29  1  0.30266957  0.69504121  0.69479841  1
  Zr  Zr30  1  0.49402713  0.10452259  0.10447500  1
  Zr  Zr31  1  0.10331811  0.69224195  0.09923380  1
  Zr  Zr32  1  0.70734066  0.91091347  0.29117692  1
  Zr  Zr33  1  0.10027685  0.90081407  0.49333653  1
  Zr  Zr34  1  0.09799944  0.29641063  0.50721173  1
  Zr  Zr35  1  0.49791148  0.69608397  0.70838357  1
  Zr  Zr36  1  0.09517271  0.09885097  0.50400052  1
  Zr  Zr37  1  0.29133519  0.90340133  0.89794086  1
  Zr  Zr38  1  0.90526406  0.11361866  0.90063298  1
  Zr  Zr39  1  0.09765224  0.09111245  0.29900116  1
  Zr  Zr40  1  0.89785766  0.70022625  0.70512138  1
  Zr  Zr41  1  0.88919008  0.09838091  0.29663381  1
  Zr  Zr42  1  0.10568613  0.49310470  0.70098943  1
  Zr  Zr43  1  0.89085797  0.69863906  0.09058095  1
  Zr  Zr44  1  0.09516487  0.49565217  0.28773307  1
  Zr  Zr45  1  0.70582627  0.89504722  0.09710470  1
  Zr  Zr46  1  0.30479824  0.90536935  0.49534913  1
  Zr  Zr47  1  0.29499413  0.70129472  0.10149362  1
  Zr  Zr48  1  0.08894821  0.90511881  0.70791208  1
  Zr  Zr49  1  0.29845177  0.50499460  0.70185472  1
  Sc  Sc50  1  0.49667881  0.09943930  0.69717126  1
  Sc  Sc51  1  0.50902035  0.50617817  0.89319639  1
  Sc  Sc52  1  0.90092227  0.89246825  0.10345715  1
  Sc  Sc53  1  0.08945865  0.70109590  0.90586797  1
  Sc  Sc54  1  0.30595188  0.89959820  0.30006443  1
  Sc  Sc55  1  0.29312647  0.49834091  0.30643907  1
  Sc  Sc56  1  0.29724200  0.69715813  0.49504573  1
  Sc  Sc57  1  0.49871564  0.70479856  0.31208526  1
  Sc  Sc58  1  0.89446821  0.50382912  0.70340119  1
  Sc  Sc59  1  0.30007791  0.29552973  0.90184575  1
  Sc  Sc60  1  0.10051050  0.49704795  0.90175371  1
  Sc  Sc61  1  0.51049555  0.49320170  0.09052698  1
  Sc  Sc62  1  0.30473485  0.10072995  0.50410520  1
  Sc  Sc63  1  0.30746160  0.29939102  0.30841539  1
  Sc  Sc64  1  0.09283687  0.29816798  0.89687183  1
  Sc  Sc65  1  0.51022965  0.90841950  0.69558700  1
  Sc  Sc66  1  0.70041646  0.70047559  0.30660983  1
  Sc  Sc67  1  0.30192426  0.29981737  0.50386637  1
  Sc  Sc68  1  0.50823678  0.89930347  0.88799251  1
  Sc  Sc69  1  0.89870152  0.30018587  0.30208702  1
  Sc  Sc70  1  0.69937389  0.69951419  0.50413322  1
  Sc  Sc71  1  0.70330638  0.69594551  0.69623097  1
  Sc  Sc72  1  0.89635573  0.29557012  0.08994270  1
  Sc  Sc73  1  0.29923873  0.70056220  0.88885350  1
  Sc  Sc74  1  0.10564215  0.30441539  0.09841196  1
  Sc  Sc75  1  0.10878809  0.69832954  0.69916152  1
  Sc  Sc76  1  0.69541632  0.09774749  0.68733899  1
  Sc  Sc77  1  0.90116346  0.71167185  0.29667371  1
  Sc  Sc78  1  0.90632847  0.09969418  0.09626091  1
  Sc  Sc79  1  0.49593430  0.91155789  0.11630407  1
  Sc  Sc80  1  0.50258032  0.50717209  0.70308857  1
  Sc  Sc81  1  0.70526228  0.09841624  0.11888613  1
  Sc  Sc82  1  0.69991603  0.89947544  0.50865011  1
  Sc  Sc83  1  0.90525525  0.08874550  0.69565403  1
  Sc  Sc84  1  0.89216884  0.70797846  0.50002885  1
  Sc  Sc85  1  0.49701478  0.50862661  0.49926125  1
  Sc  Sc86  1  0.70223298  0.50016332  0.50285681  1
  Sc  Sc87  1  0.10634308  0.70328794  0.49591433  1
  Sc  Sc88  1  0.89521931  0.90274384  0.50220156  1
  Sc  Sc89  1  0.10236837  0.70536360  0.29883447  1
  Sc  Sc90  1  0.49567988  0.30618349  0.90700733  1
  Sc  Sc91  1  0.29561722  0.29980669  0.69233604  1
  Sc  Sc92  1  0.50543365  0.50594085  0.30921752  1
  Sc  Sc93  1  0.70415672  0.09999717  0.88899939  1
  Sc  Sc94  1  0.90062065  0.30188350  0.70394212  1
  Sc  Sc95  1  0.49312004  0.09989429  0.28874490  1
  Sc  Sc96  1  0.90903012  0.50259208  0.10280219  1
  Sc  Sc97  1  0.49681276  0.09427823  0.51189189  1
  Sc  Sc98  1  0.30096383  0.29686108  0.09361480  1
  Sc  Sc99  1  0.69872733  0.49776526  0.89535856  1
  Nb  Nb100  1  0.29306414  0.10077141  0.09908994  1
  Nb  Nb101  1  0.90174007  0.70111262  0.90296502  1
  Nb  Nb102  1  0.89845814  0.30330303  0.49735241  1
  Nb  Nb103  1  0.49584337  0.89921104  0.49307143  1
  Nb  Nb104  1  0.90866700  0.88950101  0.88921800  1
  Nb  Nb105  1  0.30309831  0.09805814  0.70557368  1
  Nb  Nb106  1  0.50095196  0.70024439  0.90485760  1
  Nb  Nb107  1  0.50053805  0.90038289  0.30623635  1
  Nb  Nb108  1  0.70367061  0.49446530  0.30057130  1
  Nb  Nb109  1  0.08887103  0.89924330  0.90090728  1
  Nb  Nb110  1  0.68959198  0.30021606  0.10083485  1
  Nb  Nb111  1  0.29949010  0.70098173  0.28878754  1
  Nb  Nb112  1  0.90482695  0.29655756  0.89927975  1
  Nb  Nb113  1  0.69783294  0.10093546  0.49435356  1
  Nb  Nb114  1  0.50654006  0.69871709  0.09484651  1
  Nb  Nb115  1  0.10433864  0.10395753  0.10321230  1
  Nb  Nb116  1  0.51213509  0.30030122  0.11109764  1
  Nb  Nb117  1  0.69629065  0.70202572  0.10058791  1
  Nb  Nb118  1  0.10191688  0.50288081  0.10229055  1
  Nb  Nb119  1  0.30164157  0.10226067  0.90031839  1
  Nb  Nb120  1  0.70461964  0.10052770  0.30707708  1
  Nb  Nb121  1  0.29124842  0.10098027  0.29601524  1
  Nb  Nb122  1  0.50494034  0.29969358  0.29643081  1
  Nb  Nb123  1  0.90100128  0.89573570  0.70261017  1
  Nb  Nb124  1  0.69256796  0.30203657  0.70339414  1
  Nb  Nb125  1  0.60171668  0.19702243  0.39640679  1
  Nb  Nb126  1  0.60298833  0.39088962  0.40113028  1
  Nb  Nb127  1  0.20370580  0.19041181  0.80084732  1
  Nb  Nb128  1  0.80529537  0.59273262  0.39635495  1
  Nb  Nb129  1  0.00009068  0.60070153  0.59411819  1
  Nb  Nb130  1  -0.00608540  0.59609470  0.40198323  1
  Nb  Nb131  1  0.60199390  0.20721233  0.80152569  1
  Nb  Nb132  1  0.59983289  0.00807088  0.00090980  1
  Nb  Nb133  1  -0.00187642  0.80030752  0.60502770  1
  Nb  Nb134  1  0.40459667  0.80087913  -0.00079048  1
  Nb  Nb135  1  0.60057654  0.39363059  0.59891367  1
  Nb  Nb136  1  0.39623672  0.40303956  0.79863194  1
  Nb  Nb137  1  0.59930342  0.79774784  0.19943205  1
  Nb  Nb138  1  0.40409509  0.60680868  0.00200412  1
  Nb  Nb139  1  0.40852426  0.40159682  0.19826125  1
  Nb  Nb140  1  0.40481048  0.80281151  0.59584745  1
  Nb  Nb141  1  0.60395212  0.20095295  0.00314164  1
  Nb  Nb142  1  0.19935816  0.00038864  0.60438807  1
  Nb  Nb143  1  0.80042295  -0.00424991  -0.00647171  1
  Nb  Nb144  1  0.00814467  0.19691900  0.19940630  1
  Nb  Nb145  1  0.40479444  0.59904336  0.19459665  1
  Nb  Nb146  1  0.39671262  0.00177145  -0.00117960  1
  Nb  Nb147  1  0.19720903  0.19366509  0.39911924  1
  Nb  Nb148  1  0.60033607  0.60508202  0.19764656  1
  Nb  Nb149  1  0.59891177  0.00248719  0.39835069  1
  Pd  Pd150  1  0.40351385  0.20068583  0.00568320  1
  Pd  Pd151  1  0.20127428  0.79413695  -0.00842246  1
  Pd  Pd152  1  0.19866680  0.20998913  0.20661665  1
  Pd  Pd153  1  0.40066090  0.19001790  0.39791448  1
  Pd  Pd154  1  0.19327860  0.00518890  0.79896690  1
  Pd  Pd155  1  0.60791679  0.79431948  0.79206143  1
  Pd  Pd156  1  0.60019720  0.59374156  0.59865555  1
  Pd  Pd157  1  0.40403061  0.80544060  0.79836222  1
  Pd  Pd158  1  0.80577317  0.20006506  0.61188902  1
  Pd  Pd159  1  0.19899570  0.80589646  0.59782703  1
  Pd  Pd160  1  -0.00334518  0.60870518  0.20409374  1
  Pd  Pd161  1  0.79046382  0.18909735  0.00840670  1
  Pd  Pd162  1  -0.01386270  0.20232102  0.60273805  1
  Pd  Pd163  1  -0.01175741  0.00329260  0.40631167  1
  Pd  Pd164  1  0.59743351  0.80293981  0.60559201  1
  Pd  Pd165  1  0.40413592  0.01148168  0.39277306  1
  Pd  Pd166  1  0.40663073  0.40736235  0.60547036  1
  Pd  Pd167  1  0.80801444  0.39971500  0.79912166  1
  Pd  Pd168  1  0.00690341  0.60024282  0.79477981  1
  Pd  Pd169  1  0.40587689  0.40503430  0.39600428  1
  Pd  Pd170  1  0.19246641  0.60072377  0.39195147  1
  Pd  Pd171  1  0.00391697  0.79377226  0.19219210  1
  Pd  Pd172  1  0.20322177  0.00228774  0.00116998  1
  Pd  Pd173  1  0.80923744  0.39246939  0.18950033  1
  Pd  Pd174  1  0.58656065  0.81908396  0.00880384  1
  Pd  Pd175  1  0.79424374  0.80184681  0.40002756  1
  Pd  Pd176  1  0.00197565  0.39758520  0.00241533  1
  Pd  Pd177  1  0.80976653  0.00775859  0.80218122  1
  Pd  Pd178  1  0.40163160  0.40725675  0.00176139  1
  Pd  Pd179  1  0.00087163  0.19929440  0.39382134  1
  Pd  Pd180  1  0.79601172  0.60618671  0.20839911  1
  Pd  Pd181  1  0.19381288  0.39373834  -0.00714364  1
  Pd  Pd182  1  0.61170580  0.81124408  0.39467103  1
  Pd  Pd183  1  0.80420754  0.40539884  0.00329438  1
  Pd  Pd184  1  -0.00396610  0.40374788  0.60697967  1
  Pd  Pd185  1  0.40359896  -0.00728678  0.80114602  1
  Pd  Pd186  1  0.79248763  0.79037406  0.80493057  1
  Pd  Pd187  1  0.20254514  -0.00727128  0.20231228  1
  Pd  Pd188  1  0.60512320  0.39652818  -0.00912140  1
  Pd  Pd189  1  0.79681174  0.59205192  -0.00433823  1
  Pd  Pd190  1  0.21213083  0.39219958  0.20254744  1
  Pd  Pd191  1  0.18891174  0.79717180  0.80649051  1
  Pd  Pd192  1  0.79340437  0.60644292  0.81229963  1
  Pd  Pd193  1  0.20857093  0.80087634  0.39140348  1
  Pd  Pd194  1  0.79839896  0.19484000  0.78663914  1
  Pd  Pd195  1  -0.01128950  -0.00630743  0.00085600  1
  Pd  Pd196  1  0.41065783  0.79324908  0.19902038  1
  Pd  Pd197  1  0.19171221  0.60364924  0.80691393  1
  Pd  Pd198  1  0.39292542  0.60426359  0.39342048  1
  Pd  Pd199  1  0.39067099  0.20898935  0.19851434  1
  Rh  Rh200  1  0.00157987  0.59632577  0.00216980  1
  Rh  Rh201  1  0.80046337  0.00086420  0.59714736  1
  Rh  Rh202  1  0.60207278  0.18913406  0.20262709  1
  Rh  Rh203  1  0.59235112  0.41527560  0.20901741  1
  Rh  Rh204  1  0.40423932  0.60920177  0.59488021  1
  Rh  Rh205  1  0.59016423  0.39295178  0.79664044  1
  Rh  Rh206  1  0.20727015  0.00765422  0.40475978  1
  Rh  Rh207  1  0.00055838  -0.00967694  0.59363805  1
  Rh  Rh208  1  0.38685368  0.00381663  0.19978757  1
  Rh  Rh209  1  0.61460881  0.59153713  0.39598464  1
  Rh  Rh210  1  0.79418002  -0.00775679  0.40794080  1
  Rh  Rh211  1  0.80806346  0.20372238  0.19514723  1
  Rh  Rh212  1  -0.00375955  0.80039134  0.00397602  1
  Rh  Rh213  1  -0.00637088  0.00495160  0.80935955  1
  Rh  Rh214  1  0.59816240  0.01473350  0.80053584  1
  Rh  Rh215  1  -0.00385505  0.40073952  0.40373483  1
  Rh  Rh216  1  0.79485744  0.39394058  0.60894411  1
  Rh  Rh217  1  0.19727785  0.19908310  -0.00658875  1
  Rh  Rh218  1  0.39448694  -0.00868079  0.60734081  1
  Rh  Rh219  1  0.19299090  0.80734342  0.20411011  1
  Rh  Rh220  1  0.60027101  -0.00083295  0.20492307  1
  Rh  Rh221  1  0.60738708  0.60910412  0.80345873  1
  Rh  Rh222  1  0.19205507  0.59542173  0.59722055  1
  Rh  Rh223  1  0.00374222  0.20053981  0.79651573  1
  Rh  Rh224  1  0.79378849  0.79503430  0.20212141  1
  Rh  Rh225  1  0.00910900  0.20756688  0.00937492  1
  Rh  Rh226  1  0.20192408  0.40080685  0.59622280  1
  Rh  Rh227  1  0.20472208  0.38822863  0.40602881  1
  Rh  Rh228  1  0.40084618  0.59409213  0.80968531  1
  Rh  Rh229  1  0.79252378  0.39635812  0.39878256  1
  Rh  Rh230  1  0.59724620  0.20301782  0.59951078  1
  Rh  Rh231  1  -0.00120064  0.79434134  0.40973401  1
  Rh  Rh232  1  0.79476443  0.21098698  0.39281758  1
  Rh  Rh233  1  -0.00184431  0.38875251  0.18824023  1
  Rh  Rh234  1  0.20681238  0.38701535  0.80375153  1
  Rh  Rh235  1  0.80587877  0.60236165  0.59197631  1
  Rh  Rh236  1  0.39406467  0.79440670  0.40269275  1
  Rh  Rh237  1  0.20277778  0.59687432  0.20678891  1
  Rh  Rh238  1  0.20615069  0.19006008  0.60064684  1
  Rh  Rh239  1  0.81236671  -0.00036358  0.18914311  1
  Rh  Rh240  1  0.60151559  -0.00128297  0.59140193  1
  Rh  Rh241  1  -0.00143656  0.00508858  0.19278744  1
  Rh  Rh242  1  0.19974800  0.60240215  -0.00613691  1
  Rh  Rh243  1  -0.00473371  0.40119909  0.80182882  1
  Rh  Rh244  1  0.39513114  0.19516934  0.60338742  1
  Rh  Rh245  1  0.00450352  0.79005962  0.79593488  1
  Rh  Rh246  1  0.80408289  0.80144022  0.60595404  1
  Rh  Rh247  1  0.60181890  0.59222798  0.00292613  1
  Rh  Rh248  1  0.39415771  0.20974969  0.79605189  1
  Rh  Rh249  1  0.80910490  0.80526180  -0.00863854  1
