# generated using pymatgen
data_ZrScNbPdRh
_symmetry_space_group_name_H-M   'P 1'
_cell_length_a   16.55267514
_cell_length_b   16.55442283
_cell_length_c   16.55352232
_cell_angle_alpha   89.98643680
_cell_angle_beta   90.02377386
_cell_angle_gamma   90.01380495
_symmetry_Int_Tables_number   1
_chemical_formula_structural   ZrScNbPdRh
_chemical_formula_sum   'Zr50 Sc50 Nb50 Pd50 Rh50'
_cell_volume   4535.99525961
_cell_formula_units_Z   50
loop_
 _symmetry_equiv_pos_site_id
 _symmetry_equiv_pos_as_xyz
  1  'x, y, z'
loop_
 _atom_site_type_symbol
 _atom_site_label
 _atom_site_symmetry_multiplicity
 _atom_site_fract_x
 _atom_site_fract_y
 _atom_site_fract_z
 _atom_site_occupancy
  Zr  Zr0  1  0.89843646  0.30036881  0.70246444  1
  Zr  Zr1  1  0.10030339  0.90772314  0.70594705  1
  Zr  Zr2  1  0.10976030  0.90196385  0.50801666  1
  Zr  Zr3  1  0.09101273  0.49663805  0.29571722  1
  Zr  Zr4  1  0.50111946  0.69481470  0.90113345  1
  Zr  Zr5  1  0.28492041  0.09823276  0.49838864  1
  Zr  Zr6  1  0.69573919  0.89358515  0.29245509  1
  Zr  Zr7  1  0.50103474  0.09721808  0.70487519  1
  Zr  Zr8  1  0.49985872  0.89481950  0.88433591  1
  Zr  Zr9  1  0.89686773  0.68869972  0.09459695  1
  Zr  Zr10  1  0.50161736  0.90003465  0.29906956  1
  Zr  Zr11  1  0.49911328  0.70111698  0.70772580  1
  Zr  Zr12  1  0.30333351  0.49303150  0.89806664  1
  Zr  Zr13  1  0.09358233  0.09814817  0.09183796  1
  Zr  Zr14  1  0.69859118  0.10296137  0.90329643  1
  Zr  Zr15  1  0.90558830  0.89770119  0.50148551  1
  Zr  Zr16  1  0.89356295  0.89629844  0.30399348  1
  Zr  Zr17  1  0.30987453  0.90225592  0.30777429  1
  Zr  Zr18  1  0.10267828  0.10614245  0.30711255  1
  Zr  Zr19  1  0.89719483  0.49383360  0.09394890  1
  Zr  Zr20  1  0.29420629  0.70528414  0.50054240  1
  Zr  Zr21  1  0.49479479  0.10138852  0.29788696  1
  Zr  Zr22  1  0.29442563  0.90222941  0.89384346  1
  Zr  Zr23  1  0.89505558  0.89344749  0.89635227  1
  Zr  Zr24  1  0.49639714  0.50533753  0.90312987  1
  Zr  Zr25  1  0.10313926  0.50560150  0.51012794  1
  Zr  Zr26  1  0.31128647  0.50053178  0.30294804  1
  Zr  Zr27  1  0.49457378  0.69797662  0.09934678  1
  Zr  Zr28  1  0.49930026  0.90717524  0.49683299  1
  Zr  Zr29  1  0.28896690  0.50261803  0.69958964  1
  Zr  Zr30  1  0.10563584  0.09227489  0.89119084  1
  Zr  Zr31  1  0.50341903  0.29982644  0.29277917  1
  Zr  Zr32  1  0.50475616  0.10766845  0.10090467  1
  Zr  Zr33  1  0.10123208  0.10480901  0.69423119  1
  Zr  Zr34  1  0.69937692  0.69500755  0.90287997  1
  Zr  Zr35  1  0.70415591  0.49713716  0.10194140  1
  Zr  Zr36  1  0.89582656  0.90563716  0.10193408  1
  Zr  Zr37  1  0.88864379  0.71096020  0.49944324  1
  Zr  Zr38  1  0.09513662  0.69898760  0.09319817  1
  Zr  Zr39  1  0.70001193  0.09850947  0.50111876  1
  Zr  Zr40  1  0.30549704  0.70296743  0.90116024  1
  Zr  Zr41  1  0.31228444  0.30774099  0.69935904  1
  Zr  Zr42  1  0.91075648  0.49195719  0.70081828  1
  Zr  Zr43  1  0.70286080  0.49722238  0.90388899  1
  Zr  Zr44  1  0.29809309  0.10027895  0.70826543  1
  Zr  Zr45  1  0.50474871  0.89898090  0.11254707  1
  Zr  Zr46  1  0.50061983  0.10319290  0.89568840  1
  Zr  Zr47  1  0.90170580  0.70142031  0.70257834  1
  Zr  Zr48  1  0.90027863  0.70214448  0.29822202  1
  Zr  Zr49  1  0.71200201  0.90132911  0.50080907  1
  Sc  Sc50  1  0.89912538  0.30665300  0.30541787  1
  Sc  Sc51  1  0.89863460  0.29978742  0.50438121  1
  Sc  Sc52  1  0.89839629  0.89676239  0.69518208  1
  Sc  Sc53  1  0.30402158  0.10159478  0.30233065  1
  Sc  Sc54  1  0.90499775  0.30097765  0.89480819  1
  Sc  Sc55  1  0.30432598  0.49704962  0.50504810  1
  Sc  Sc56  1  0.28917994  0.70274238  0.70693232  1
  Sc  Sc57  1  0.49606120  0.49161842  0.10223146  1
  Sc  Sc58  1  0.69686752  0.69684282  0.09812915  1
  Sc  Sc59  1  0.50285490  0.70216857  0.30471436  1
  Sc  Sc60  1  0.49956533  0.10279639  0.50545086  1
  Sc  Sc61  1  0.70426692  0.30216031  0.29805776  1
  Sc  Sc62  1  0.70792751  0.29468465  0.49907011  1
  Sc  Sc63  1  0.49071839  0.50148497  0.70515405  1
  Sc  Sc64  1  0.29903449  0.29777439  0.50579617  1
  Sc  Sc65  1  0.69961833  0.69882124  0.30572712  1
  Sc  Sc66  1  0.71557349  0.29434460  0.89932115  1
  Sc  Sc67  1  0.89884015  0.10031421  0.51050207  1
  Sc  Sc68  1  0.30396652  0.89632092  0.09578166  1
  Sc  Sc69  1  0.29756710  0.10263099  0.09260766  1
  Sc  Sc70  1  0.09564689  0.30336511  0.70050220  1
  Sc  Sc71  1  0.90141047  0.10185320  0.29223663  1
  Sc  Sc72  1  0.49112167  0.29605608  0.89769914  1
  Sc  Sc73  1  0.49586697  0.29645997  0.09967493  1
  Sc  Sc74  1  0.69968646  0.51672049  0.50105397  1
  Sc  Sc75  1  0.10023956  0.49707818  0.88830235  1
  Sc  Sc76  1  0.30777585  0.49511212  0.09210381  1
  Sc  Sc77  1  0.31153004  0.70239946  0.29922471  1
  Sc  Sc78  1  0.69895500  0.29484169  0.10110704  1
  Sc  Sc79  1  0.70049244  0.88847625  0.90111981  1
  Sc  Sc80  1  0.89012080  0.49705833  0.29445967  1
  Sc  Sc81  1  0.10076408  0.28593521  0.49947363  1
  Sc  Sc82  1  0.08805841  0.29820755  0.30277439  1
  Sc  Sc83  1  0.70633574  0.10627951  0.09741296  1
  Sc  Sc84  1  0.91544924  0.09786468  0.70637504  1
  Sc  Sc85  1  0.89976433  0.10223141  0.09596785  1
  Sc  Sc86  1  0.70307793  0.69598140  0.69552578  1
  Sc  Sc87  1  0.49948327  0.50997103  0.49995620  1
  Sc  Sc88  1  0.68915800  0.10396917  0.69914210  1
  Sc  Sc89  1  0.08914543  0.49214208  0.09306420  1
  Sc  Sc90  1  0.50977187  0.69581351  0.49416965  1
  Sc  Sc91  1  0.09560494  0.89539095  0.30705846  1
  Sc  Sc92  1  0.10089175  0.29874593  0.90683614  1
  Sc  Sc93  1  0.29621797  0.29853028  0.90347417  1
  Sc  Sc94  1  0.90252704  0.10659732  0.90061449  1
  Sc  Sc95  1  0.30938189  0.29397515  0.30256799  1
  Sc  Sc96  1  0.70141915  0.11447460  0.29689138  1
  Sc  Sc97  1  0.49309514  0.30049912  0.50686790  1
  Sc  Sc98  1  0.09825032  0.71122074  0.50641540  1
  Sc  Sc99  1  0.89596352  0.49710037  0.49639001  1
  Nb  Nb100  1  0.10041451  0.51126630  0.69841626  1
  Nb  Nb101  1  0.69500896  0.90573829  0.70072926  1
  Nb  Nb102  1  0.10023622  0.09889121  0.50388915  1
  Nb  Nb103  1  0.69435313  0.90203768  0.10237070  1
  Nb  Nb104  1  0.69360218  0.70247154  0.50350855  1
  Nb  Nb105  1  0.10035776  0.90250471  0.09576416  1
  Nb  Nb106  1  0.89518744  0.69933316  0.89920266  1
  Nb  Nb107  1  0.10206622  0.70211977  0.89977961  1
  Nb  Nb108  1  0.09879521  0.69917288  0.29625565  1
  Nb  Nb109  1  0.10197255  0.68061005  0.70644518  1
  Nb  Nb110  1  0.70429705  0.49732591  0.70040562  1
  Nb  Nb111  1  0.91611468  0.30154504  0.08498366  1
  Nb  Nb112  1  0.09961760  0.89911489  0.90761984  1
  Nb  Nb113  1  0.29936684  0.69858092  0.10121546  1
  Nb  Nb114  1  0.30150151  0.09842716  0.89926479  1
  Nb  Nb115  1  0.30427640  0.90079697  0.69683721  1
  Nb  Nb116  1  0.69767891  0.49173293  0.29716110  1
  Nb  Nb117  1  0.50285000  0.30160329  0.69973249  1
  Nb  Nb118  1  0.50270194  0.90688322  0.69809318  1
  Nb  Nb119  1  0.29835142  0.89891516  0.50640503  1
  Nb  Nb120  1  0.50303502  0.49770584  0.30347068  1
  Nb  Nb121  1  0.10131566  0.29992288  0.09571423  1
  Nb  Nb122  1  0.28643994  0.30101339  0.09330372  1
  Nb  Nb123  1  0.89441714  0.49312754  0.90120691  1
  Nb  Nb124  1  0.70208726  0.30828535  0.70053142  1
  Nb  Nb125  1  0.00212910  0.60562687  0.39850611  1
  Nb  Nb126  1  0.60376191  0.39800327  0.79720904  1
  Nb  Nb127  1  0.19916873  0.39740011  0.19970163  1
  Nb  Nb128  1  0.60325876  0.00191255  0.39666770  1
  Nb  Nb129  1  0.80539272  0.59348584  0.80244459  1
  Nb  Nb130  1  0.20051347  0.60395701  0.00080225  1
  Nb  Nb131  1  0.59873111  0.58963408  0.20634272  1
  Nb  Nb132  1  0.19867449  0.40388005  0.39484710  1
  Nb  Nb133  1  0.60157981  0.39808020  -0.00669982  1
  Nb  Nb134  1  0.60023820  0.40454669  0.40104386  1
  Nb  Nb135  1  0.00288519  0.80102005  0.19287533  1
  Nb  Nb136  1  0.40242734  0.80600231  0.60277115  1
  Nb  Nb137  1  0.39689587  0.61051871  0.60293188  1
  Nb  Nb138  1  0.19426293  -0.00341366  0.19704756  1
  Nb  Nb139  1  0.40680308  0.00120426  -0.00589925  1
  Nb  Nb140  1  0.20087643  0.59917648  0.19743272  1
  Nb  Nb141  1  0.00817421  0.79279343  0.80810836  1
  Nb  Nb142  1  0.79460478  -0.00259375  0.79888097  1
  Nb  Nb143  1  0.00252784  0.00208340  0.40674861  1
  Nb  Nb144  1  0.19680397  0.79883594  0.19754638  1
  Nb  Nb145  1  0.60321647  0.40236742  0.60507573  1
  Nb  Nb146  1  0.59820340  -0.00508519  0.00229782  1
  Nb  Nb147  1  0.19526965  0.59884508  0.39279114  1
  Nb  Nb148  1  0.19508390  0.20342836  0.19435760  1
  Nb  Nb149  1  0.59848557  0.80641723  0.60194134  1
  Pd  Pd150  1  0.19406150  0.80208780  0.79620114  1
  Pd  Pd151  1  -0.00229126  0.59971673  0.20121446  1
  Pd  Pd152  1  0.80169773  0.19342328  0.61082849  1
  Pd  Pd153  1  0.60998633  0.79689136  0.79267356  1
  Pd  Pd154  1  0.79447926  -0.00185143  -0.00676955  1
  Pd  Pd155  1  0.59565690  0.80354545  0.00314583  1
  Pd  Pd156  1  0.39474385  0.19978600  0.00061770  1
  Pd  Pd157  1  -0.00096759  0.20526383  0.19769560  1
  Pd  Pd158  1  -0.00692649  0.80193182  -0.00020291  1
  Pd  Pd159  1  0.01015393  0.79722900  0.61382746  1
  Pd  Pd160  1  0.40577363  0.80794263  -0.00037946  1
  Pd  Pd161  1  0.79328243  0.00694971  0.20314121  1
  Pd  Pd162  1  0.80230483  0.18930100  0.79113743  1
  Pd  Pd163  1  0.40545855  0.79550023  0.40814156  1
  Pd  Pd164  1  0.80167428  0.00982807  0.39177317  1
  Pd  Pd165  1  0.20332889  0.79891752  0.00417969  1
  Pd  Pd166  1  0.79392169  0.40482715  0.59044386  1
  Pd  Pd167  1  0.00312051  0.59084963  -0.01273750  1
  Pd  Pd168  1  0.60775621  0.59318216  0.79384827  1
  Pd  Pd169  1  0.38812052  0.00534055  0.18990314  1
  Pd  Pd170  1  0.39305887  0.39188139  0.19413709  1
  Pd  Pd171  1  0.80086693  0.59949138  0.39538477  1
  Pd  Pd172  1  0.40363148  0.59900895  0.19962763  1
  Pd  Pd173  1  0.19390049  0.39244152  0.59664049  1
  Pd  Pd174  1  0.60080985  0.20889939  0.59715523  1
  Pd  Pd175  1  0.20036075  0.21054662  0.79864275  1
  Pd  Pd176  1  0.39548409  0.19212283  0.60273968  1
  Pd  Pd177  1  0.80750155  0.59782720  0.60538141  1
  Pd  Pd178  1  -0.00667214  0.59970376  0.81051802  1
  Pd  Pd179  1  0.00318464  0.40511059  0.40901124  1
  Pd  Pd180  1  -0.00644597  0.00086692  -0.00886429  1
  Pd  Pd181  1  0.40061307  0.19837859  0.40784301  1
  Pd  Pd182  1  0.19639086  -0.00446686  0.39322534  1
  Pd  Pd183  1  -0.00856066  0.60590503  0.58848924  1
  Pd  Pd184  1  0.00519304  -0.00541565  0.20912281  1
  Pd  Pd185  1  0.80361623  0.00825112  0.61368600  1
  Pd  Pd186  1  0.60179314  0.21189829  0.80385614  1
  Pd  Pd187  1  0.00623480  0.39485921  0.59413217  1
  Pd  Pd188  1  0.80889866  0.19776235  0.39957254  1
  Pd  Pd189  1  0.20097659  0.79751590  0.39128586  1
  Pd  Pd190  1  0.40314328  0.39727913  0.40872974  1
  Pd  Pd191  1  0.79961955  0.79280583  0.19171348  1
  Pd  Pd192  1  0.80691031  0.38816859  0.19289105  1
  Pd  Pd193  1  0.59700349  0.20484711  0.40351091  1
  Pd  Pd194  1  -0.01086633  0.19271594  0.40707468  1
  Pd  Pd195  1  0.79668016  0.79905134  0.00909438  1
  Pd  Pd196  1  0.19495097  0.39409777  0.79768631  1
  Pd  Pd197  1  0.39370047  0.00474874  0.59747004  1
  Pd  Pd198  1  0.81228706  0.20922698  0.19307869  1
  Pd  Pd199  1  0.61043382  0.01395489  0.20149666  1
  Rh  Rh200  1  0.00041842  0.80018952  0.39680370  1
  Rh  Rh201  1  0.79847216  0.38926327  0.00455472  1
  Rh  Rh202  1  0.40930175  0.41127159  0.60024812  1
  Rh  Rh203  1  0.59196020  0.60176893  0.60687039  1
  Rh  Rh204  1  0.20268856  0.20350138  0.60635273  1
  Rh  Rh205  1  0.19674626  0.41132442  0.00345017  1
  Rh  Rh206  1  0.38983036  0.20242989  0.19127267  1
  Rh  Rh207  1  0.40253161  0.00856762  0.40786589  1
  Rh  Rh208  1  0.39577654  0.59857064  0.00171771  1
  Rh  Rh209  1  0.20446977  0.59716682  0.81231287  1
  Rh  Rh210  1  0.79160578  0.79747453  0.39887038  1
  Rh  Rh211  1  0.39683850  0.00057667  0.80307852  1
  Rh  Rh212  1  0.40383765  0.39753725  0.80177285  1
  Rh  Rh213  1  0.20762406  0.00118427  0.00136001  1
  Rh  Rh214  1  0.79045028  0.60016581  0.20324609  1
  Rh  Rh215  1  0.60581526  0.80967344  0.40756093  1
  Rh  Rh216  1  0.40515440  0.39135964  -0.00080219  1
  Rh  Rh217  1  0.59881391  0.39991603  0.19830637  1
  Rh  Rh218  1  0.38909215  0.60211982  0.79429307  1
  Rh  Rh219  1  0.60959020  -0.00237814  0.80998768  1
  Rh  Rh220  1  0.39674978  0.80223214  0.79229188  1
  Rh  Rh221  1  0.20157565  -0.00215249  0.79769922  1
  Rh  Rh222  1  0.60632140  0.59357628  0.39163412  1
  Rh  Rh223  1  0.00664637  0.20391123  0.80197035  1
  Rh  Rh224  1  0.19470639  0.19129065  -0.00152535  1
  Rh  Rh225  1  0.00241826  0.40206434  -0.01018207  1
  Rh  Rh226  1  -0.00359127  0.39254692  0.19542688  1
  Rh  Rh227  1  0.20358635  0.00242066  0.60764829  1
  Rh  Rh228  1  0.60318582  -0.00320049  0.59084141  1
  Rh  Rh229  1  0.00433951  0.39955582  0.80039250  1
  Rh  Rh230  1  0.39490930  0.60514958  0.40929422  1
  Rh  Rh231  1  -0.00080630  0.20267547  0.60148028  1
  Rh  Rh232  1  0.00219145  0.00035188  0.59465820  1
  Rh  Rh233  1  0.20236583  0.21127894  0.39242448  1
  Rh  Rh234  1  0.00406123  0.19725192  -0.00747498  1
  Rh  Rh235  1  0.79015188  0.80046980  0.60625647  1
  Rh  Rh236  1  0.60102087  0.78455256  0.19769341  1
  Rh  Rh237  1  0.60140594  0.20312353  0.19925910  1
  Rh  Rh238  1  -0.00749337  -0.01168746  0.80667206  1
  Rh  Rh239  1  0.39741761  0.20222627  0.79677246  1
  Rh  Rh240  1  0.80198578  0.59845347  -0.00688489  1
  Rh  Rh241  1  0.59380712  0.58942210  0.01473905  1
  Rh  Rh242  1  0.80063621  0.40402487  0.79958624  1
  Rh  Rh243  1  0.39731502  0.79943230  0.20195524  1
  Rh  Rh244  1  0.20527723  0.60561658  0.59446499  1
  Rh  Rh245  1  0.60280826  0.20386704  -0.00298005  1
  Rh  Rh246  1  0.19943072  0.80043839  0.61256928  1
  Rh  Rh247  1  0.80811504  0.20549779  0.00399802  1
  Rh  Rh248  1  0.80041357  0.79804290  0.79276623  1
  Rh  Rh249  1  0.78985439  0.40137197  0.40542864  1
