# generated using pymatgen
data_ZrScNbPdRh
_symmetry_space_group_name_H-M   'P 1'
_cell_length_a   16.55577830
_cell_length_b   16.55901957
_cell_length_c   16.55855398
_cell_angle_alpha   90.04656183
_cell_angle_beta   90.01650554
_cell_angle_gamma   90.00300859
_symmetry_Int_Tables_number   1
_chemical_formula_structural   ZrScNbPdRh
_chemical_formula_sum   'Zr50 Sc50 Nb50 Pd50 Rh50'
_cell_volume   4539.48376950
_cell_formula_units_Z   50
loop_
 _symmetry_equiv_pos_site_id
 _symmetry_equiv_pos_as_xyz
  1  'x, y, z'
loop_
 _atom_site_type_symbol
 _atom_site_label
 _atom_site_symmetry_multiplicity
 _atom_site_fract_x
 _atom_site_fract_y
 _atom_site_fract_z
 _atom_site_occupancy
  Zr  Zr0  1  0.10604532  0.30122593  0.09512483  1
  Zr  Zr1  1  0.10183353  0.49669257  0.30650548  1
  Zr  Zr2  1  0.30072825  0.09939643  0.30163564  1
  Zr  Zr3  1  0.30594263  0.30151816  0.10437697  1
  Zr  Zr4  1  0.69842377  0.49298173  0.29839106  1
  Zr  Zr5  1  0.49770362  0.90438223  0.70035740  1
  Zr  Zr6  1  0.30284614  0.68767328  0.89868558  1
  Zr  Zr7  1  0.31192911  0.90531939  0.10027965  1
  Zr  Zr8  1  0.89851200  0.50182844  0.29613571  1
  Zr  Zr9  1  0.70793327  0.49982967  0.51128160  1
  Zr  Zr10  1  0.09554531  0.90029708  0.29615586  1
  Zr  Zr11  1  0.89670653  0.70034835  0.89590374  1
  Zr  Zr12  1  0.49732489  0.69510670  0.29596706  1
  Zr  Zr13  1  0.89915156  0.10700140  0.29944376  1
  Zr  Zr14  1  0.89366516  0.30239736  0.50041039  1
  Zr  Zr15  1  0.69964001  0.69944858  0.49975883  1
  Zr  Zr16  1  0.90076340  0.89864636  0.69936486  1
  Zr  Zr17  1  0.90015448  0.91146701  0.10063200  1
  Zr  Zr18  1  0.30394427  0.10358235  0.69669071  1
  Zr  Zr19  1  0.10363234  0.70202498  0.49818378  1
  Zr  Zr20  1  0.69151153  0.09419149  0.09892692  1
  Zr  Zr21  1  0.90577699  0.30647192  0.09281765  1
  Zr  Zr22  1  0.30391251  0.10046746  0.90132072  1
  Zr  Zr23  1  0.89746041  0.30312808  0.30555367  1
  Zr  Zr24  1  0.69775621  0.89652122  0.91155079  1
  Zr  Zr25  1  0.09291008  0.30125270  0.70250785  1
  Zr  Zr26  1  0.29622412  0.50116053  0.49550904  1
  Zr  Zr27  1  0.10469596  0.10035203  0.49937169  1
  Zr  Zr28  1  0.10236877  0.50753338  0.49908452  1
  Zr  Zr29  1  0.49753556  0.69823016  0.70726511  1
  Zr  Zr30  1  0.30451054  0.70316184  0.30209872  1
  Zr  Zr31  1  0.69808193  0.70754701  0.29335342  1
  Zr  Zr32  1  0.29703199  0.90055454  0.49255856  1
  Zr  Zr33  1  0.70809137  0.90932632  0.49589280  1
  Zr  Zr34  1  0.70777912  0.68836405  0.70096286  1
  Zr  Zr35  1  0.30338209  0.10195386  0.49616537  1
  Zr  Zr36  1  0.89832491  0.50043160  0.09744722  1
  Zr  Zr37  1  0.70024730  0.50201026  0.09920617  1
  Zr  Zr38  1  0.49714842  0.29628618  0.90783700  1
  Zr  Zr39  1  0.89405683  0.89900028  0.29764614  1
  Zr  Zr40  1  0.69376540  0.70010998  0.10119179  1
  Zr  Zr41  1  0.10531668  0.90469329  0.89465940  1
  Zr  Zr42  1  0.49448101  0.89275917  0.29014349  1
  Zr  Zr43  1  0.69767269  0.90384851  0.70018041  1
  Zr  Zr44  1  0.90087337  0.90452512  0.49837879  1
  Zr  Zr45  1  0.50024217  0.49473905  0.89910529  1
  Zr  Zr46  1  0.50025816  0.30088939  0.29337929  1
  Zr  Zr47  1  0.50116943  0.10654299  0.29631018  1
  Zr  Zr48  1  0.89658884  0.89970357  0.90495497  1
  Zr  Zr49  1  0.30073052  0.30555627  0.50869355  1
  Sc  Sc50  1  0.90286135  0.69495685  0.70946122  1
  Sc  Sc51  1  0.69699741  0.49355855  0.89837304  1
  Sc  Sc52  1  0.50041556  0.89774198  0.90549453  1
  Sc  Sc53  1  0.30477199  0.29644906  0.91834382  1
  Sc  Sc54  1  0.89257711  0.69557635  0.10503399  1
  Sc  Sc55  1  0.28966708  0.90032019  0.70200570  1
  Sc  Sc56  1  0.70169806  0.10016938  0.29222929  1
  Sc  Sc57  1  0.10295245  0.68902540  0.10008555  1
  Sc  Sc58  1  0.10554271  0.11044942  0.29643169  1
  Sc  Sc59  1  0.10129911  0.69155129  0.89294479  1
  Sc  Sc60  1  0.29216346  0.70017150  0.49085876  1
  Sc  Sc61  1  0.70311605  0.49376707  0.70505299  1
  Sc  Sc62  1  0.49814809  0.09960354  0.50445612  1
  Sc  Sc63  1  0.49706315  0.49570383  0.29583624  1
  Sc  Sc64  1  0.10702815  0.09205735  0.69954250  1
  Sc  Sc65  1  0.30344586  0.29541567  0.29914525  1
  Sc  Sc66  1  0.30921537  0.89681319  0.89963132  1
  Sc  Sc67  1  0.49765228  0.29912060  0.69476266  1
  Sc  Sc68  1  0.49731720  0.90512218  0.49768743  1
  Sc  Sc69  1  0.69215822  0.09505066  0.69334590  1
  Sc  Sc70  1  0.30268094  0.69207364  0.10387426  1
  Sc  Sc71  1  0.50398446  0.10034620  0.09721107  1
  Sc  Sc72  1  0.09006992  0.10517591  0.09908371  1
  Sc  Sc73  1  0.90261760  0.49673809  0.50815616  1
  Sc  Sc74  1  0.69262409  0.09652181  0.90681407  1
  Sc  Sc75  1  0.90688948  0.69691602  0.49380613  1
  Sc  Sc76  1  0.49642524  0.49039894  0.50079558  1
  Sc  Sc77  1  0.70405461  0.70308868  0.89933949  1
  Sc  Sc78  1  0.90272134  0.70372860  0.29741237  1
  Sc  Sc79  1  0.10138575  0.31125966  0.49638359  1
  Sc  Sc80  1  0.50303886  0.10151189  0.69124303  1
  Sc  Sc81  1  0.30209166  0.50252408  0.69845653  1
  Sc  Sc82  1  0.89968543  0.30752307  0.70679339  1
  Sc  Sc83  1  0.49935958  0.70568187  0.89746927  1
  Sc  Sc84  1  0.50552322  0.49759018  0.70283553  1
  Sc  Sc85  1  0.89995028  0.10551968  0.70589745  1
  Sc  Sc86  1  0.88794621  0.09636115  0.49603664  1
  Sc  Sc87  1  0.49853331  0.29965854  0.50166408  1
  Sc  Sc88  1  0.91028483  0.29533901  0.89139522  1
  Sc  Sc89  1  0.29131097  0.49256606  0.09762118  1
  Sc  Sc90  1  0.70076444  0.30705147  0.50082115  1
  Sc  Sc91  1  0.30223913  0.10507937  0.10587671  1
  Sc  Sc92  1  0.29813749  0.70100319  0.70993730  1
  Sc  Sc93  1  0.09892739  0.49562187  0.09952781  1
  Sc  Sc94  1  0.09715655  0.69913453  0.30740153  1
  Sc  Sc95  1  0.10104370  0.89258515  0.50779318  1
  Sc  Sc96  1  0.30143909  0.49853046  0.30094701  1
  Sc  Sc97  1  0.09125355  0.50640156  0.69477781  1
  Sc  Sc98  1  0.10243063  0.50318957  0.90860963  1
  Sc  Sc99  1  0.90514950  0.50231264  0.89838721  1
  Nb  Nb100  1  0.69816296  0.10226675  0.49855347  1
  Nb  Nb101  1  0.90565302  0.09760304  0.90685327  1
  Nb  Nb102  1  0.49962175  0.69762875  0.49712881  1
  Nb  Nb103  1  0.69671603  0.89919501  0.29433545  1
  Nb  Nb104  1  0.69666351  0.29535612  0.09417233  1
  Nb  Nb105  1  0.89587732  0.50346395  0.69810344  1
  Nb  Nb106  1  0.70283731  0.29768447  0.29932675  1
  Nb  Nb107  1  0.09887453  0.89400094  0.70134808  1
  Nb  Nb108  1  0.89520599  0.10243850  0.09036700  1
  Nb  Nb109  1  0.10282899  0.71342439  0.69701112  1
  Nb  Nb110  1  0.69698606  0.29662999  0.89641116  1
  Nb  Nb111  1  0.09757194  0.30083361  0.29905338  1
  Nb  Nb112  1  0.69981761  0.29561241  0.70774088  1
  Nb  Nb113  1  0.09909227  0.90080175  0.09806154  1
  Nb  Nb114  1  0.69402449  0.90075278  0.10589892  1
  Nb  Nb115  1  0.30147089  0.49672476  0.90188765  1
  Nb  Nb116  1  0.50463294  0.89546265  0.09435708  1
  Nb  Nb117  1  0.09988915  0.29531456  0.90021819  1
  Nb  Nb118  1  0.29867549  0.89965123  0.29466726  1
  Nb  Nb119  1  0.49458874  0.10384912  0.90058271  1
  Nb  Nb120  1  0.09605572  0.10359920  0.89981538  1
  Nb  Nb121  1  0.50198411  0.69384734  0.10453263  1
  Nb  Nb122  1  0.50290270  0.50027867  0.09908413  1
  Nb  Nb123  1  0.29993326  0.29978046  0.70576296  1
  Nb  Nb124  1  0.50011937  0.30076617  0.10063775  1
  Nb  Nb125  1  0.59892642  0.79636655  0.59797279  1
  Nb  Nb126  1  0.79933737  0.20067678  -0.00176162  1
  Nb  Nb127  1  0.79721558  0.79892955  0.60062291  1
  Nb  Nb128  1  0.79372412  0.59708475  0.39771625  1
  Nb  Nb129  1  -0.00025021  -0.00059611  0.80326534  1
  Nb  Nb130  1  0.19732347  -0.00157262  0.00084910  1
  Nb  Nb131  1  0.19833406  0.80323323  0.00492337  1
  Nb  Nb132  1  0.40581328  0.59215387  0.00170091  1
  Nb  Nb133  1  0.20390989  0.39474563  0.80639070  1
  Nb  Nb134  1  0.40202405  0.79451761  0.59814244  1
  Nb  Nb135  1  0.60531374  0.19911959  0.39836174  1
  Nb  Nb136  1  0.60446405  0.00125447  0.39267510  1
  Nb  Nb137  1  0.80330829  0.00009217  0.80797172  1
  Nb  Nb138  1  0.79639834  0.20219199  0.60258444  1
  Nb  Nb139  1  0.20260530  0.80735993  0.19680930  1
  Nb  Nb140  1  0.60084046  0.59943775  0.40090932  1
  Nb  Nb141  1  -0.00399934  0.20181753  0.59690837  1
  Nb  Nb142  1  0.20108772  0.20504307  0.80440445  1
  Nb  Nb143  1  0.39340215  0.39414990  0.80362889  1
  Nb  Nb144  1  0.59859426  0.20198485  0.80313084  1
  Nb  Nb145  1  0.40219538  0.00695148  0.80021920  1
  Nb  Nb146  1  -0.00009243  0.00066583  0.39785679  1
  Nb  Nb147  1  0.79886331  0.20600048  0.18935382  1
  Nb  Nb148  1  0.40207361  0.60664898  0.59564527  1
  Nb  Nb149  1  0.00507160  0.80312318  0.00205828  1
  Pd  Pd150  1  0.60112250  0.39696787  0.19376224  1
  Pd  Pd151  1  0.00713098  0.41286524  0.80480810  1
  Pd  Pd152  1  0.19728257  0.00284931  0.19234265  1
  Pd  Pd153  1  0.40299657  0.20278755  0.59756813  1
  Pd  Pd154  1  0.59150300  0.59845792  0.59709902  1
  Pd  Pd155  1  0.59624073  0.00816492  0.80741220  1
  Pd  Pd156  1  0.60129397  0.39754006  0.00326713  1
  Pd  Pd157  1  0.80424824  0.79848762  0.01185100  1
  Pd  Pd158  1  0.59607175  0.60473056  -0.00902581  1
  Pd  Pd159  1  0.19150431  -0.00451617  0.39799515  1
  Pd  Pd160  1  0.19787252  0.40464253  0.60920475  1
  Pd  Pd161  1  0.20710143  0.60811654  0.60673943  1
  Pd  Pd162  1  0.20225954  0.21019917  0.39944890  1
  Pd  Pd163  1  -0.00274394  0.60690793  0.00107608  1
  Pd  Pd164  1  0.20072163  0.39538605  0.20654083  1
  Pd  Pd165  1  -0.00170237  0.00960141  0.60171256  1
  Pd  Pd166  1  0.00425924  0.60131679  0.20157768  1
  Pd  Pd167  1  0.00187470  0.19643950  0.40830900  1
  Pd  Pd168  1  0.60486504  0.60052862  0.80753771  1
  Pd  Pd169  1  0.79774843  0.39448037  0.19532369  1
  Pd  Pd170  1  -0.00785780  0.79231882  0.59963158  1
  Pd  Pd171  1  0.20269566  -0.00571051  0.59884624  1
  Pd  Pd172  1  0.60047552  0.39848095  0.40358478  1
  Pd  Pd173  1  0.80282774  0.39372805  -0.01303831  1
  Pd  Pd174  1  -0.00253106  0.60913276  0.60356115  1
  Pd  Pd175  1  0.39824492  0.78665897  0.00553388  1
  Pd  Pd176  1  0.20493962  0.79745149  0.80826850  1
  Pd  Pd177  1  0.40763431  0.00566861  0.19690693  1
  Pd  Pd178  1  0.79717757  0.59844636  -0.00571817  1
  Pd  Pd179  1  0.80388340  0.79388263  0.40116382  1
  Pd  Pd180  1  0.79114842  0.18879981  0.80299421  1
  Pd  Pd181  1  0.00119232  0.01125697  0.20413108  1
  Pd  Pd182  1  0.19869926  0.60263846  0.20563247  1
  Pd  Pd183  1  0.79834780  0.00556655  0.19995142  1
  Pd  Pd184  1  0.60450129  0.79832289  0.79688597  1
  Pd  Pd185  1  0.39670944  0.39609313  0.39701977  1
  Pd  Pd186  1  -0.00435206  0.20439778  0.19561550  1
  Pd  Pd187  1  0.00339479  0.39956628  0.19973847  1
  Pd  Pd188  1  0.80402765  0.40318138  0.80495144  1
  Pd  Pd189  1  0.59584013  0.80367358  0.40307334  1
  Pd  Pd190  1  0.40760782  0.00084219  0.39505748  1
  Pd  Pd191  1  0.39562329  0.58827183  0.19403557  1
  Pd  Pd192  1  0.20106138  0.19198963  0.00101552  1
  Pd  Pd193  1  0.00295944  0.80082610  0.80642333  1
  Pd  Pd194  1  0.19312416  0.58939953  0.79416804  1
  Pd  Pd195  1  0.19167214  0.20504386  0.60446197  1
  Pd  Pd196  1  0.40105025  0.80118420  0.40426824  1
  Pd  Pd197  1  0.00473256  0.79137563  0.19071042  1
  Pd  Pd198  1  -0.00261068  0.40523800  0.40462975  1
  Pd  Pd199  1  0.60228454  0.39538943  0.60563156  1
  Rh  Rh200  1  0.00996296  0.18903549  0.79147242  1
  Rh  Rh201  1  0.39731094  0.79654171  0.19190504  1
  Rh  Rh202  1  0.20816145  0.60174502  0.00279941  1
  Rh  Rh203  1  0.80156082  0.58955722  0.80565412  1
  Rh  Rh204  1  0.19737014  0.80472642  0.38932264  1
  Rh  Rh205  1  0.19577842  0.39765412  -0.00525359  1
  Rh  Rh206  1  0.40300557  0.20054547  0.79669521  1
  Rh  Rh207  1  0.60488684  0.20823066  0.20193453  1
  Rh  Rh208  1  0.20153047  0.01017404  0.80614618  1
  Rh  Rh209  1  0.60085594  0.59523286  0.20617153  1
  Rh  Rh210  1  0.59775138  -0.00520902  0.58525008  1
  Rh  Rh211  1  0.40202227  0.19912587  0.19668173  1
  Rh  Rh212  1  0.39742140  0.81219829  0.79283147  1
  Rh  Rh213  1  0.40613176  0.20305738  0.40336766  1
  Rh  Rh214  1  0.39717851  0.40772945  0.60815619  1
  Rh  Rh215  1  0.79968329  0.80412313  0.19376305  1
  Rh  Rh216  1  0.59762318  0.79491543  0.00515205  1
  Rh  Rh217  1  0.80205584  0.00537419  0.61205964  1
  Rh  Rh218  1  0.19869146  0.20530824  0.20096796  1
  Rh  Rh219  1  -0.00279864  0.39673500  0.60078887  1
  Rh  Rh220  1  0.00471890  0.59956996  0.79553651  1
  Rh  Rh221  1  0.80061867  0.39296482  0.61289442  1
  Rh  Rh222  1  0.40251698  0.58708466  0.80105434  1
  Rh  Rh223  1  0.81262048  0.60591482  0.59646324  1
  Rh  Rh224  1  0.40173379  0.40308209  0.19447564  1
  Rh  Rh225  1  -0.00639909  0.59357339  0.39852764  1
  Rh  Rh226  1  0.00804015  -0.00250155  -0.00454778  1
  Rh  Rh227  1  0.79744032  0.00471223  0.38646551  1
  Rh  Rh228  1  0.40099656  0.00456573  -0.00386822  1
  Rh  Rh229  1  0.40688946  0.59393686  0.40667098  1
  Rh  Rh230  1  0.20337373  0.39459451  0.39443954  1
  Rh  Rh231  1  0.79544706  0.60039591  0.20468008  1
  Rh  Rh232  1  0.00348505  0.40058985  -0.00540094  1
  Rh  Rh233  1  0.60890264  0.20576787  0.59786313  1
  Rh  Rh234  1  0.79141504  0.00500836  -0.00139009  1
  Rh  Rh235  1  0.00111113  0.81000195  0.40161662  1
  Rh  Rh236  1  0.59519005  0.80187876  0.19325029  1
  Rh  Rh237  1  0.40413210  0.19560655  0.01330298  1
  Rh  Rh238  1  0.20740906  0.79807107  0.60286575  1
  Rh  Rh239  1  0.79306281  0.80542917  0.79166672  1
  Rh  Rh240  1  0.60089171  0.20252216  -0.00435370  1
  Rh  Rh241  1  0.40317255  0.40588933  0.00368110  1
  Rh  Rh242  1  0.59096682  0.38709467  0.79766350  1
  Rh  Rh243  1  0.20080338  0.59964957  0.39239989  1
  Rh  Rh244  1  0.39256060  -0.00750959  0.60641225  1
  Rh  Rh245  1  0.59367343  -0.00864401  0.20169110  1
  Rh  Rh246  1  0.59124835  -0.00417043  0.00045499  1
  Rh  Rh247  1  -0.00404510  0.20477525  0.00048255  1
  Rh  Rh248  1  0.80066959  0.40779626  0.40021311  1
  Rh  Rh249  1  0.79020400  0.20159535  0.40053605  1
