# generated using pymatgen
data_ZrScNbPdRh
_symmetry_space_group_name_H-M   'P 1'
_cell_length_a   16.56003674
_cell_length_b   16.55265283
_cell_length_c   16.55852765
_cell_angle_alpha   90.00863965
_cell_angle_beta   89.99333127
_cell_angle_gamma   90.03996757
_symmetry_Int_Tables_number   1
_chemical_formula_structural   ZrScNbPdRh
_chemical_formula_sum   'Zr50 Sc50 Nb50 Pd50 Rh50'
_cell_volume   4538.89887074
_cell_formula_units_Z   50
loop_
 _symmetry_equiv_pos_site_id
 _symmetry_equiv_pos_as_xyz
  1  'x, y, z'
loop_
 _atom_site_type_symbol
 _atom_site_label
 _atom_site_symmetry_multiplicity
 _atom_site_fract_x
 _atom_site_fract_y
 _atom_site_fract_z
 _atom_site_occupancy
  Zr  Zr0  1  0.89550843  0.90347455  0.29024211  1
  Zr  Zr1  1  0.51036505  0.50169242  0.49327907  1
  Zr  Zr2  1  0.49391674  0.29976836  0.89632325  1
  Zr  Zr3  1  0.70819104  0.90420596  0.69932434  1
  Zr  Zr4  1  0.29179559  0.69539884  0.89378082  1
  Zr  Zr5  1  0.10024780  0.50344507  0.49772457  1
  Zr  Zr6  1  0.89271189  0.09328726  0.70528561  1
  Zr  Zr7  1  0.90140759  0.30401244  0.50365490  1
  Zr  Zr8  1  0.31476026  0.90623695  0.10296729  1
  Zr  Zr9  1  0.30508836  0.29975345  0.69912382  1
  Zr  Zr10  1  0.49522432  0.50063882  0.09571141  1
  Zr  Zr11  1  0.89577877  0.88874995  0.49876631  1
  Zr  Zr12  1  0.29358922  0.29758117  0.29971631  1
  Zr  Zr13  1  0.70193309  0.90246329  0.30507624  1
  Zr  Zr14  1  0.50344532  0.70132229  0.09687503  1
  Zr  Zr15  1  0.10224128  0.30005491  0.90037123  1
  Zr  Zr16  1  0.30172162  0.50106248  0.09458468  1
  Zr  Zr17  1  0.70611224  0.29496221  0.70693485  1
  Zr  Zr18  1  0.29829459  0.89879694  0.30341418  1
  Zr  Zr19  1  0.51127397  0.70112092  0.90592201  1
  Zr  Zr20  1  0.49687956  0.69545337  0.70003152  1
  Zr  Zr21  1  0.70393351  0.50552848  0.10071343  1
  Zr  Zr22  1  0.90707422  0.50296229  0.51060756  1
  Zr  Zr23  1  0.09536159  0.31071186  0.30212980  1
  Zr  Zr24  1  0.89829090  0.30161137  0.10512689  1
  Zr  Zr25  1  0.70612322  0.10238170  0.88661154  1
  Zr  Zr26  1  0.50125834  0.30197952  0.70939670  1
  Zr  Zr27  1  0.89442584  0.10366668  0.29774499  1
  Zr  Zr28  1  0.89811658  0.30117503  0.90595391  1
  Zr  Zr29  1  0.30233168  0.69839209  0.69353894  1
  Zr  Zr30  1  0.68406371  0.49699753  0.30738634  1
  Zr  Zr31  1  0.11172452  0.29769578  0.70846325  1
  Zr  Zr32  1  0.29170226  0.10689231  0.70167342  1
  Zr  Zr33  1  0.09838231  0.50029903  0.89440652  1
  Zr  Zr34  1  0.09991240  0.69708544  0.09330649  1
  Zr  Zr35  1  0.09789570  0.70022649  0.89843473  1
  Zr  Zr36  1  0.29529269  0.49786442  0.29998357  1
  Zr  Zr37  1  0.49927434  0.90048159  0.28671749  1
  Zr  Zr38  1  0.68991638  0.90136344  0.50013618  1
  Zr  Zr39  1  0.29879578  0.91107932  0.49968057  1
  Zr  Zr40  1  0.69572425  0.09545693  0.49986020  1
  Zr  Zr41  1  0.90765805  0.10693558  0.50637587  1
  Zr  Zr42  1  0.29515358  0.50069770  0.50318614  1
  Zr  Zr43  1  0.30290008  0.10067235  0.90515616  1
  Zr  Zr44  1  0.69879465  0.70257748  0.29943215  1
  Zr  Zr45  1  0.89743048  0.49300151  0.09996143  1
  Zr  Zr46  1  0.90457555  0.71018912  0.30814748  1
  Zr  Zr47  1  0.69895375  0.90250352  0.10682730  1
  Zr  Zr48  1  0.10136591  0.10681141  0.30538958  1
  Zr  Zr49  1  0.29358403  0.70210107  0.49849723  1
  Sc  Sc50  1  0.09814766  0.09492016  0.90655500  1
  Sc  Sc51  1  0.50182023  0.89871313  0.69659402  1
  Sc  Sc52  1  0.09877746  0.89850037  0.30484712  1
  Sc  Sc53  1  0.69665804  0.09664737  0.29600692  1
  Sc  Sc54  1  0.90244418  0.49471445  0.89815391  1
  Sc  Sc55  1  0.69823108  0.10376132  0.10154710  1
  Sc  Sc56  1  0.09950572  0.90806455  0.50570910  1
  Sc  Sc57  1  0.70155248  0.70131528  0.89989249  1
  Sc  Sc58  1  0.29756225  0.09846021  0.31383985  1
  Sc  Sc59  1  0.90306360  0.30467586  0.30206377  1
  Sc  Sc60  1  0.10118621  0.30166310  0.09380737  1
  Sc  Sc61  1  0.49900536  0.30246203  0.10057936  1
  Sc  Sc62  1  0.50265930  0.09797738  0.90197237  1
  Sc  Sc63  1  0.08346330  0.90444215  0.09272579  1
  Sc  Sc64  1  0.50323034  0.89801369  0.09159098  1
  Sc  Sc65  1  0.30196735  0.49796644  0.69750728  1
  Sc  Sc66  1  0.89967986  0.70090660  0.10335568  1
  Sc  Sc67  1  0.70213569  0.30022051  0.10092365  1
  Sc  Sc68  1  0.10028475  0.49713956  0.09036370  1
  Sc  Sc69  1  0.49710146  0.29206501  0.49920079  1
  Sc  Sc70  1  0.90637041  0.89928790  0.69986445  1
  Sc  Sc71  1  0.69516005  0.50657555  0.50345633  1
  Sc  Sc72  1  0.50001550  0.08826897  0.09964925  1
  Sc  Sc73  1  0.50467233  0.70200436  0.50811396  1
  Sc  Sc74  1  0.90288108  0.49247867  0.29648845  1
  Sc  Sc75  1  0.09563308  0.09502982  0.69332067  1
  Sc  Sc76  1  0.09704458  0.49637713  0.69501737  1
  Sc  Sc77  1  0.89939457  0.30597827  0.69714648  1
  Sc  Sc78  1  0.10536139  0.10357871  0.09376695  1
  Sc  Sc79  1  0.09478965  0.69733903  0.49921623  1
  Sc  Sc80  1  0.30947505  0.69862862  0.09550804  1
  Sc  Sc81  1  0.70545456  0.70696366  0.70548549  1
  Sc  Sc82  1  0.71235606  0.49889698  0.90240053  1
  Sc  Sc83  1  0.68559655  0.29679751  0.29508219  1
  Sc  Sc84  1  0.30846637  0.90490357  0.69887960  1
  Sc  Sc85  1  0.30398738  0.90489277  0.90340226  1
  Sc  Sc86  1  0.10654306  0.10058273  0.50564686  1
  Sc  Sc87  1  0.69916894  0.29662648  0.89759010  1
  Sc  Sc88  1  0.89766648  0.70469192  0.68964317  1
  Sc  Sc89  1  0.50498436  0.10198257  0.30407010  1
  Sc  Sc90  1  0.09830686  0.70012299  0.70201299  1
  Sc  Sc91  1  0.30136503  0.49574542  0.89864132  1
  Sc  Sc92  1  0.89896877  0.49888175  0.70325172  1
  Sc  Sc93  1  0.09258935  0.29934061  0.50108137  1
  Sc  Sc94  1  0.29675254  0.29944261  0.08722674  1
  Sc  Sc95  1  0.89741747  0.09875514  0.10075279  1
  Sc  Sc96  1  0.69270061  0.89197286  0.88894201  1
  Sc  Sc97  1  0.90250886  0.70358468  0.89202751  1
  Sc  Sc98  1  0.69973680  0.70528397  0.50333136  1
  Sc  Sc99  1  0.49403934  0.09657490  0.71109163  1
  Nb  Nb100  1  0.91064040  0.90516571  0.90171924  1
  Nb  Nb101  1  0.49973333  0.31023482  0.29749247  1
  Nb  Nb102  1  0.49581139  0.69871238  0.29741187  1
  Nb  Nb103  1  0.10143680  0.50078688  0.30173616  1
  Nb  Nb104  1  0.89893400  0.69907798  0.50229546  1
  Nb  Nb105  1  0.49569701  0.90171858  0.49969601  1
  Nb  Nb106  1  0.29617224  0.70440977  0.30273365  1
  Nb  Nb107  1  0.10107615  0.90283735  0.69903226  1
  Nb  Nb108  1  0.09185611  0.89716390  0.89554107  1
  Nb  Nb109  1  0.10737534  0.69899456  0.30389311  1
  Nb  Nb110  1  0.30391120  0.10534734  0.50346871  1
  Nb  Nb111  1  0.69789780  0.49321804  0.70786513  1
  Nb  Nb112  1  0.49992188  0.89696490  0.89390306  1
  Nb  Nb113  1  0.69682779  0.69779051  0.09196499  1
  Nb  Nb114  1  0.90086853  0.09490532  0.89557486  1
  Nb  Nb115  1  0.50292275  0.49408613  0.70509788  1
  Nb  Nb116  1  0.49978246  0.49598257  0.29858343  1
  Nb  Nb117  1  0.70017854  0.29911904  0.50690317  1
  Nb  Nb118  1  0.30295322  0.09739530  0.10124866  1
  Nb  Nb119  1  0.50291878  0.49395300  0.89568273  1
  Nb  Nb120  1  0.70486387  0.10252751  0.69910827  1
  Nb  Nb121  1  0.50065303  0.09217194  0.49864831  1
  Nb  Nb122  1  0.29633125  0.29382797  0.88839104  1
  Nb  Nb123  1  0.89768369  0.90238078  0.09603733  1
  Nb  Nb124  1  0.30615944  0.29257677  0.50493399  1
  Nb  Nb125  1  0.59740681  0.40472746  -0.00446326  1
  Nb  Nb126  1  0.80364885  0.80811303  0.00125044  1
  Nb  Nb127  1  0.20002529  0.80578748  0.60373120  1
  Nb  Nb128  1  0.79549088  0.20683359  0.40618320  1
  Nb  Nb129  1  0.19776160  0.60399743  0.20517092  1
  Nb  Nb130  1  0.80364612  -0.00556283  -0.00705085  1
  Nb  Nb131  1  0.00214055  0.20290776  0.20128407  1
  Nb  Nb132  1  0.40021651  0.39979468  0.39753241  1
  Nb  Nb133  1  0.00892948  0.60001251  0.20655092  1
  Nb  Nb134  1  0.60274871  0.19587622  0.60294116  1
  Nb  Nb135  1  0.19618522  0.80452041  -0.00114543  1
  Nb  Nb136  1  0.40228559  0.79825599  0.39921922  1
  Nb  Nb137  1  0.19949080  0.79952846  0.19501396  1
  Nb  Nb138  1  0.79316212  0.40019874  0.40647814  1
  Nb  Nb139  1  0.39578382  0.19924765  0.20199250  1
  Nb  Nb140  1  0.59469762  0.60105317  0.20017652  1
  Nb  Nb141  1  0.19367108  -0.00629547  0.80118878  1
  Nb  Nb142  1  0.59946769  0.58960563  0.80025338  1
  Nb  Nb143  1  0.40204411  0.60097427  0.39303620  1
  Nb  Nb144  1  0.20305772  -0.00238708  0.19751440  1
  Nb  Nb145  1  0.80458062  0.60001430  0.40261092  1
  Nb  Nb146  1  -0.00592922  0.00297164  0.39968357  1
  Nb  Nb147  1  0.60128255  0.39564640  0.60703439  1
  Nb  Nb148  1  0.40343319  0.79703426  0.80308198  1
  Nb  Nb149  1  -0.00345339  0.19659775  0.80532299  1
  Pd  Pd150  1  -0.00431484  0.79798123  0.79217332  1
  Pd  Pd151  1  0.20766279  0.81010948  0.79800023  1
  Pd  Pd152  1  0.40481101  0.59951476  0.80607119  1
  Pd  Pd153  1  0.80839460  0.60974367  -0.00572284  1
  Pd  Pd154  1  0.79011361  0.39517572  0.21205113  1
  Pd  Pd155  1  0.80220766  0.60315756  0.20964918  1
  Pd  Pd156  1  0.59053971  0.79985730  0.40099718  1
  Pd  Pd157  1  0.79360047  0.59995712  0.60079697  1
  Pd  Pd158  1  0.00273332  0.20447098  0.61444222  1
  Pd  Pd159  1  -0.00539524  0.60116819  0.79210823  1
  Pd  Pd160  1  -0.01036130  0.59784230  0.00231519  1
  Pd  Pd161  1  0.19734445  0.59053975  0.78957410  1
  Pd  Pd162  1  0.39530421  0.79949780  -0.00896407  1
  Pd  Pd163  1  0.39423092  0.39163280  0.19871996  1
  Pd  Pd164  1  0.40382618  0.59302647  0.59125768  1
  Pd  Pd165  1  0.39763274  0.60336707  0.20394569  1
  Pd  Pd166  1  0.19722514  0.20656652  0.41192066  1
  Pd  Pd167  1  0.19647907  0.40454705  0.19093548  1
  Pd  Pd168  1  0.19708795  0.39285748  0.59597014  1
  Pd  Pd169  1  0.00857159  0.80703286  0.40665929  1
  Pd  Pd170  1  0.41030763  0.40315516  0.59354334  1
  Pd  Pd171  1  0.00609015  0.79664189  0.19823418  1
  Pd  Pd172  1  0.40143301  0.00802183  0.60407892  1
  Pd  Pd173  1  0.39959041  0.59996807  -0.01182568  1
  Pd  Pd174  1  0.59336843  0.00597401  0.60917981  1
  Pd  Pd175  1  0.60867036  0.59740048  0.61252047  1
  Pd  Pd176  1  0.60158136  0.20285222  0.40427383  1
  Pd  Pd177  1  0.20361967  0.39114109  0.41125848  1
  Pd  Pd178  1  0.60124412  0.79565283  0.19607361  1
  Pd  Pd179  1  0.20295526  0.39999015  -0.00794283  1
  Pd  Pd180  1  0.40451637  0.20373851  0.39381362  1
  Pd  Pd181  1  0.58900952  0.19680411  0.19343150  1
  Pd  Pd182  1  0.00801179  0.00867609  0.20203780  1
  Pd  Pd183  1  0.79814609  0.60109889  0.79870381  1
  Pd  Pd184  1  -0.00265650  0.19576846  0.00294799  1
  Pd  Pd185  1  0.41061553  0.19147878  0.60438501  1
  Pd  Pd186  1  0.80520721  -0.00352224  0.59438622  1
  Pd  Pd187  1  0.59866393  0.20629312  0.00132746  1
  Pd  Pd188  1  0.80502804  0.00668377  0.40546384  1
  Pd  Pd189  1  0.59961718  0.00147805  0.79592073  1
  Pd  Pd190  1  0.40328343  0.19863950  0.00708089  1
  Pd  Pd191  1  0.20096070  0.19485111  0.19436739  1
  Pd  Pd192  1  0.79355098  0.40878413  0.59847576  1
  Pd  Pd193  1  0.40670240  -0.00180505  0.39538494  1
  Pd  Pd194  1  0.79893246  0.79613352  0.19315108  1
  Pd  Pd195  1  0.19745579  -0.00887207  0.00127979  1
  Pd  Pd196  1  -0.00608250  0.59582926  0.39451545  1
  Pd  Pd197  1  0.60156899  0.80130049  0.60613916  1
  Pd  Pd198  1  0.60804216  -0.00397641  -0.00799469  1
  Pd  Pd199  1  0.79790570  0.19201623  0.00106931  1
  Rh  Rh200  1  -0.00545748  0.40842363  0.40561214  1
  Rh  Rh201  1  0.39396034  0.80479920  0.59607779  1
  Rh  Rh202  1  0.39454196  0.79480627  0.20287022  1
  Rh  Rh203  1  -0.00585280  0.00677657  0.00113652  1
  Rh  Rh204  1  0.20500926  0.19987731  -0.00376349  1
  Rh  Rh205  1  -0.00633591  0.19506744  0.39286674  1
  Rh  Rh206  1  0.81172046  0.20550825  0.79946187  1
  Rh  Rh207  1  0.59864780  0.61243116  0.39312639  1
  Rh  Rh208  1  0.00720227  0.00542850  0.79897848  1
  Rh  Rh209  1  -0.00055053  0.40330109  -0.00038719  1
  Rh  Rh210  1  0.60793575  0.40194574  0.80647045  1
  Rh  Rh211  1  0.39591251  -0.00673179  0.80575319  1
  Rh  Rh212  1  0.79535172  0.19404420  0.59719265  1
  Rh  Rh213  1  0.19019815  0.00269678  0.39833652  1
  Rh  Rh214  1  0.59272460  -0.00566841  0.39590201  1
  Rh  Rh215  1  0.18909794  0.18578789  0.80752367  1
  Rh  Rh216  1  0.20551720  0.40501022  0.79979920  1
  Rh  Rh217  1  0.00124025  0.60334345  0.60449761  1
  Rh  Rh218  1  0.20657556  -0.00015194  0.60682813  1
  Rh  Rh219  1  0.60068177  0.40762014  0.18661791  1
  Rh  Rh220  1  0.59279024  0.79174856  0.79262913  1
  Rh  Rh221  1  0.40949525  0.00120008  -0.00539179  1
  Rh  Rh222  1  0.00124765  0.39162260  0.79889293  1
  Rh  Rh223  1  0.39889907  0.19721878  0.80223048  1
  Rh  Rh224  1  0.20580141  0.60338077  0.00324845  1
  Rh  Rh225  1  0.59774928  0.38762806  0.41088846  1
  Rh  Rh226  1  0.79713586  0.80224208  0.59876886  1
  Rh  Rh227  1  0.80786817  0.80568695  0.80547855  1
  Rh  Rh228  1  0.60107868  0.00160523  0.20123485  1
  Rh  Rh229  1  0.00888759  0.40054535  0.19290010  1
  Rh  Rh230  1  0.80397030  0.39701214  0.80474592  1
  Rh  Rh231  1  0.59854673  0.19312869  0.79605114  1
  Rh  Rh232  1  0.61029631  0.80824936  0.00149550  1
  Rh  Rh233  1  0.20262586  0.59855129  0.39825782  1
  Rh  Rh234  1  0.40094951  0.39512551  -0.00816195  1
  Rh  Rh235  1  0.20082277  0.20264223  0.59501932  1
  Rh  Rh236  1  0.19952670  0.80611772  0.40725639  1
  Rh  Rh237  1  0.00647354  0.39802246  0.60531476  1
  Rh  Rh238  1  0.79422514  0.39590124  -0.00058877  1
  Rh  Rh239  1  0.80023902  -0.01040413  0.80517964  1
  Rh  Rh240  1  0.19382936  0.60797638  0.60365628  1
  Rh  Rh241  1  0.00792375  0.79964323  0.59804880  1
  Rh  Rh242  1  0.60433889  0.58978150  -0.00258704  1
  Rh  Rh243  1  0.39462158  0.01576477  0.20866425  1
  Rh  Rh244  1  0.79460245  0.79463940  0.40362385  1
  Rh  Rh245  1  0.80346021  0.20542063  0.20753374  1
  Rh  Rh246  1  -0.00347246  0.79605126  -0.00179946  1
  Rh  Rh247  1  -0.00606576  -0.00427539  0.59464802  1
  Rh  Rh248  1  0.79556794  0.00439169  0.19187213  1
  Rh  Rh249  1  0.39064267  0.40097925  0.80095263  1
