# generated using pymatgen
data_ZrScNbPdRh
_symmetry_space_group_name_H-M   'P 1'
_cell_length_a   16.56030419
_cell_length_b   16.56074381
_cell_length_c   16.56122934
_cell_angle_alpha   90.05788694
_cell_angle_beta   89.99893455
_cell_angle_gamma   90.05427429
_symmetry_Int_Tables_number   1
_chemical_formula_structural   ZrScNbPdRh
_chemical_formula_sum   'Zr50 Sc50 Nb50 Pd50 Rh50'
_cell_volume   4541.92861056
_cell_formula_units_Z   50
loop_
 _symmetry_equiv_pos_site_id
 _symmetry_equiv_pos_as_xyz
  1  'x, y, z'
loop_
 _atom_site_type_symbol
 _atom_site_label
 _atom_site_symmetry_multiplicity
 _atom_site_fract_x
 _atom_site_fract_y
 _atom_site_fract_z
 _atom_site_occupancy
  Zr  Zr0  1  0.90231338  0.68936089  0.51055297  1
  Zr  Zr1  1  0.30760350  0.50839334  0.69674918  1
  Zr  Zr2  1  0.89545148  0.88587589  0.48736941  1
  Zr  Zr3  1  0.31594674  0.10523530  0.50140855  1
  Zr  Zr4  1  0.09329922  0.90243958  0.90283098  1
  Zr  Zr5  1  0.09305255  0.70219533  0.89713098  1
  Zr  Zr6  1  0.69975084  0.49787335  0.89131219  1
  Zr  Zr7  1  0.89294565  0.30577942  0.90042414  1
  Zr  Zr8  1  0.89668810  0.69297435  0.08682196  1
  Zr  Zr9  1  0.89883169  0.30161863  0.50011986  1
  Zr  Zr10  1  0.90039244  0.51534739  0.90218532  1
  Zr  Zr11  1  0.29479302  0.49950565  0.10577154  1
  Zr  Zr12  1  0.29794176  0.49607423  0.50112658  1
  Zr  Zr13  1  0.70966734  0.70280147  0.90055918  1
  Zr  Zr14  1  0.30396863  0.29960485  0.30376164  1
  Zr  Zr15  1  0.69776279  0.09351814  0.29617131  1
  Zr  Zr16  1  0.89952285  0.50090816  0.09763557  1
  Zr  Zr17  1  0.29792515  0.90321536  0.69319890  1
  Zr  Zr18  1  0.68865883  0.49656265  0.69118380  1
  Zr  Zr19  1  0.29778380  0.70329687  0.69264254  1
  Zr  Zr20  1  0.49126274  0.49547140  0.09288349  1
  Zr  Zr21  1  0.69382052  0.29681122  0.09839920  1
  Zr  Zr22  1  0.49790626  0.09148134  0.70080012  1
  Zr  Zr23  1  0.89271697  0.29953212  0.09787838  1
  Zr  Zr24  1  0.49785263  0.68828514  0.68963648  1
  Zr  Zr25  1  0.10049026  0.89830900  0.30018644  1
  Zr  Zr26  1  0.09602186  0.49410333  0.89468278  1
  Zr  Zr27  1  0.50560777  0.90520125  0.89851380  1
  Zr  Zr28  1  0.90428608  0.70077347  0.70536988  1
  Zr  Zr29  1  0.50117945  0.70090309  0.30761631  1
  Zr  Zr30  1  0.11146350  0.49958470  0.29454698  1
  Zr  Zr31  1  0.51021610  0.30681933  0.69798420  1
  Zr  Zr32  1  0.29846657  0.89678409  0.90214528  1
  Zr  Zr33  1  0.70304177  0.90823262  0.30783264  1
  Zr  Zr34  1  0.50789245  0.50231180  0.30934042  1
  Zr  Zr35  1  0.69290729  0.69102876  0.29289573  1
  Zr  Zr36  1  0.30390513  0.09863860  0.69676290  1
  Zr  Zr37  1  0.29525413  0.90169897  0.50114808  1
  Zr  Zr38  1  0.90115798  0.09154830  0.70647754  1
  Zr  Zr39  1  0.70562216  0.09329062  0.90556157  1
  Zr  Zr40  1  0.09530125  0.70145604  0.49800365  1
  Zr  Zr41  1  0.30130372  0.69940097  0.09306135  1
  Zr  Zr42  1  0.30857336  0.10150812  0.89294388  1
  Zr  Zr43  1  0.89387198  0.91047230  0.89548655  1
  Zr  Zr44  1  0.09188678  0.09731795  0.29486527  1
  Zr  Zr45  1  0.48832018  0.29783725  0.49754074  1
  Zr  Zr46  1  0.10559987  0.70202733  0.10498673  1
  Zr  Zr47  1  0.50904494  0.10057285  0.89379954  1
  Zr  Zr48  1  0.09898438  0.90767852  0.10304512  1
  Zr  Zr49  1  0.09646227  0.89301700  0.69796628  1
  Sc  Sc50  1  0.30386634  0.30232922  0.49938144  1
  Sc  Sc51  1  0.08715711  0.30401607  0.50593047  1
  Sc  Sc52  1  0.30518259  0.50774774  0.91169596  1
  Sc  Sc53  1  0.30306289  0.10378908  0.10432712  1
  Sc  Sc54  1  0.29749701  0.49649154  0.30589927  1
  Sc  Sc55  1  0.89854446  0.70273657  0.89363823  1
  Sc  Sc56  1  0.69784516  0.09207727  0.70864885  1
  Sc  Sc57  1  0.69808657  0.90573566  0.09879615  1
  Sc  Sc58  1  0.50825718  0.29971542  0.90529054  1
  Sc  Sc59  1  0.09969152  0.29757923  0.29433187  1
  Sc  Sc60  1  0.29495291  0.70105183  0.48704033  1
  Sc  Sc61  1  0.51380757  0.89506612  0.09647197  1
  Sc  Sc62  1  0.69457983  0.31070019  0.30093560  1
  Sc  Sc63  1  0.10390733  0.30785419  0.70415241  1
  Sc  Sc64  1  0.90058174  0.29314086  0.30462053  1
  Sc  Sc65  1  0.70400298  0.50002479  0.11132743  1
  Sc  Sc66  1  0.49501747  0.09445744  0.29628186  1
  Sc  Sc67  1  0.88920398  0.50307499  0.30637118  1
  Sc  Sc68  1  0.09841929  0.09877018  0.10595787  1
  Sc  Sc69  1  0.69876570  0.70672550  0.50888156  1
  Sc  Sc70  1  0.29924151  0.90162096  0.30123871  1
  Sc  Sc71  1  0.70311705  0.49763303  0.50045609  1
  Sc  Sc72  1  0.29287284  0.90255519  0.10505678  1
  Sc  Sc73  1  0.69507550  0.70599605  0.10090630  1
  Sc  Sc74  1  0.69747856  0.89431917  0.69645762  1
  Sc  Sc75  1  0.90334001  0.09629550  0.10003738  1
  Sc  Sc76  1  0.10491347  0.49888286  0.69570722  1
  Sc  Sc77  1  0.90105345  0.30024503  0.69400124  1
  Sc  Sc78  1  0.90532690  0.90713385  0.09279907  1
  Sc  Sc79  1  0.69757488  0.08238661  0.48962948  1
  Sc  Sc80  1  0.90076448  0.09242579  0.30651575  1
  Sc  Sc81  1  0.29155495  0.29105374  0.89573690  1
  Sc  Sc82  1  0.70365075  0.30723040  0.50032138  1
  Sc  Sc83  1  0.49998333  0.30058219  0.10188957  1
  Sc  Sc84  1  0.49677834  0.30473172  0.29773138  1
  Sc  Sc85  1  0.10014702  0.49976116  0.50013882  1
  Sc  Sc86  1  0.10659616  0.09934380  0.90441979  1
  Sc  Sc87  1  0.29753749  0.30071961  0.69837614  1
  Sc  Sc88  1  0.50691297  0.10427550  0.10378348  1
  Sc  Sc89  1  0.30801816  0.09649726  0.29365646  1
  Sc  Sc90  1  0.89657778  0.50830410  0.69830143  1
  Sc  Sc91  1  0.08956322  0.09024451  0.69259403  1
  Sc  Sc92  1  0.09920296  0.89495089  0.50586320  1
  Sc  Sc93  1  0.70412582  0.30980206  0.69897860  1
  Sc  Sc94  1  0.29994709  0.30010777  0.10328097  1
  Sc  Sc95  1  0.70166837  0.29493062  0.90097301  1
  Sc  Sc96  1  0.10661335  0.49913279  0.09240345  1
  Sc  Sc97  1  0.48758186  0.70243981  0.91256374  1
  Sc  Sc98  1  0.90220837  0.69774620  0.32064161  1
  Sc  Sc99  1  0.70863345  0.69636820  0.69856578  1
  Nb  Nb100  1  0.69890322  0.10099950  0.10117891  1
  Nb  Nb101  1  0.50259998  0.70284909  0.10599002  1
  Nb  Nb102  1  0.29336662  0.70301325  0.29568704  1
  Nb  Nb103  1  0.90054128  0.89489465  0.29908131  1
  Nb  Nb104  1  0.49984115  0.50743063  0.51382717  1
  Nb  Nb105  1  0.90257059  0.90135296  0.70627637  1
  Nb  Nb106  1  0.09590702  0.70234068  0.69796180  1
  Nb  Nb107  1  0.10994458  0.70014881  0.30116670  1
  Nb  Nb108  1  0.69396379  0.50093989  0.30000914  1
  Nb  Nb109  1  0.50247582  0.89679432  0.69919491  1
  Nb  Nb110  1  0.30128393  0.70119085  0.89594804  1
  Nb  Nb111  1  0.09536490  0.29824863  0.09958593  1
  Nb  Nb112  1  0.50293053  0.10147844  0.50116705  1
  Nb  Nb113  1  0.50033577  0.70341898  0.49834454  1
  Nb  Nb114  1  0.09377972  0.10145562  0.50273540  1
  Nb  Nb115  1  0.90614684  0.10641351  0.50620139  1
  Nb  Nb116  1  0.89690453  0.10271549  0.90022455  1
  Nb  Nb117  1  0.09576952  0.29894669  0.89990975  1
  Nb  Nb118  1  0.49799299  0.50282926  0.89777436  1
  Nb  Nb119  1  0.52036524  0.90090738  0.50122692  1
  Nb  Nb120  1  0.69565159  0.89932724  0.90210646  1
  Nb  Nb121  1  0.50652926  0.89682580  0.30034871  1
  Nb  Nb122  1  0.49913759  0.50245419  0.69899815  1
  Nb  Nb123  1  0.90025028  0.50013476  0.50434341  1
  Nb  Nb124  1  0.69755821  0.90306112  0.50168312  1
  Nb  Nb125  1  0.20074507  -0.00309340  0.79669614  1
  Nb  Nb126  1  0.59596890  0.59935871  -0.00254796  1
  Nb  Nb127  1  0.80535977  -0.00391146  0.59569030  1
  Nb  Nb128  1  -0.00109015  0.40383792  0.19636232  1
  Nb  Nb129  1  0.40442890  0.00168564  -0.00340406  1
  Nb  Nb130  1  0.40523028  0.79489288  0.20414907  1
  Nb  Nb131  1  0.59412860  0.79413509  0.80081640  1
  Nb  Nb132  1  -0.00423501  0.79355532  0.20407072  1
  Nb  Nb133  1  0.19652805  0.01105211  0.40708797  1
  Nb  Nb134  1  0.41078483  0.80182401  0.59218656  1
  Nb  Nb135  1  -0.00128280  0.20520177  -0.00557954  1
  Nb  Nb136  1  0.59570268  0.19649145  0.40470014  1
  Nb  Nb137  1  0.40632138  0.40842830  0.80065917  1
  Nb  Nb138  1  0.79856469  0.18830407  0.59459739  1
  Nb  Nb139  1  0.20212557  0.60778466  0.80068136  1
  Nb  Nb140  1  0.40239289  0.79934166  0.79249791  1
  Nb  Nb141  1  0.60255414  0.19378270  0.59367971  1
  Nb  Nb142  1  0.79383290  0.19573530  0.19870103  1
  Nb  Nb143  1  0.39984351  0.60750285  0.20327360  1
  Nb  Nb144  1  -0.00197593  0.20123423  0.80850958  1
  Nb  Nb145  1  0.59126185  0.60097063  0.80366803  1
  Nb  Nb146  1  0.80782383  0.80173394  0.20493650  1
  Nb  Nb147  1  0.19595357  0.19374653  0.59256289  1
  Nb  Nb148  1  0.19720692  0.19226236  0.40519931  1
  Nb  Nb149  1  0.00292592  0.60204652  0.20283864  1
  Pd  Pd150  1  -0.01023287  -0.01391981  0.58947629  1
  Pd  Pd151  1  0.19690601  0.80019089  0.00151042  1
  Pd  Pd152  1  0.40032905  0.80994995  0.39966638  1
  Pd  Pd153  1  -0.00825346  0.39901125  0.79387713  1
  Pd  Pd154  1  0.40507300  0.19698645  0.00324335  1
  Pd  Pd155  1  0.00062519  0.39832310  0.00366756  1
  Pd  Pd156  1  0.21419214  0.41199260  0.80561602  1
  Pd  Pd157  1  0.80011286  0.20172495  0.78911038  1
  Pd  Pd158  1  0.60814151  0.60021618  0.41427171  1
  Pd  Pd159  1  0.19488656  0.19829077  0.00656347  1
  Pd  Pd160  1  0.59433068  0.39612130  0.40919390  1
  Pd  Pd161  1  0.20266029  0.19956958  0.20476928  1
  Pd  Pd162  1  0.60521695  0.40584467  0.00160534  1
  Pd  Pd163  1  0.39440005  0.59694833  0.39929914  1
  Pd  Pd164  1  0.20517141  0.39254954  -0.00439909  1
  Pd  Pd165  1  0.78748353  0.79021968  0.39533084  1
  Pd  Pd166  1  -0.00309442  0.80051367  0.00342501  1
  Pd  Pd167  1  0.78989931  0.19366736  0.40030466  1
  Pd  Pd168  1  0.60968069  0.20481981  0.79349107  1
  Pd  Pd169  1  0.80570966  -0.00120194  0.19420390  1
  Pd  Pd170  1  0.19306247  0.38749566  0.40628012  1
  Pd  Pd171  1  0.80543491  0.40676802  0.79357068  1
  Pd  Pd172  1  0.40394368  -0.00707166  0.40277613  1
  Pd  Pd173  1  0.60054194  0.20318011  0.21066881  1
  Pd  Pd174  1  0.80832997  0.60907960  0.20363096  1
  Pd  Pd175  1  0.00528453  0.20328394  0.39797733  1
  Pd  Pd176  1  0.00112868  -0.00523132  0.40670493  1
  Pd  Pd177  1  0.18620552  0.18905204  0.78674661  1
  Pd  Pd178  1  0.80553070  0.80670514  0.60632732  1
  Pd  Pd179  1  0.78888142  0.60225883  0.40862926  1
  Pd  Pd180  1  0.19391470  0.60184173  -0.00954341  1
  Pd  Pd181  1  -0.00349831  0.40707146  0.60633145  1
  Pd  Pd182  1  0.80059075  0.40311636  0.39802200  1
  Pd  Pd183  1  0.40106240  0.81035278  0.00660145  1
  Pd  Pd184  1  0.40928595  -0.01302271  0.18798360  1
  Pd  Pd185  1  0.61029857  0.79815197  0.39812569  1
  Pd  Pd186  1  0.80373982  0.39325888  0.20904707  1
  Pd  Pd187  1  0.20182978  0.80087925  0.79954278  1
  Pd  Pd188  1  0.39845371  0.39691638  0.60565558  1
  Pd  Pd189  1  0.79041201  0.40759040  -0.00034476  1
  Pd  Pd190  1  0.39192523  0.38862795  -0.01036302  1
  Pd  Pd191  1  0.80015760  0.81006459  0.00761578  1
  Pd  Pd192  1  0.20902221  0.00923170  -0.00107270  1
  Pd  Pd193  1  -0.00050406  0.40606603  0.39031724  1
  Pd  Pd194  1  0.41093200  -0.00979549  0.59126926  1
  Pd  Pd195  1  0.00668644  0.59004310  0.39497922  1
  Pd  Pd196  1  0.40060934  0.40689262  0.20650055  1
  Pd  Pd197  1  0.19572506  0.60391678  0.59925091  1
  Pd  Pd198  1  0.59102070  0.59175546  0.19006412  1
  Pd  Pd199  1  0.40707444  0.21468574  0.79588776  1
  Rh  Rh200  1  0.59797985  0.40596763  0.19883710  1
  Rh  Rh201  1  0.00432803  0.59612483  0.60333667  1
  Rh  Rh202  1  0.78510591  0.59425262  0.00171149  1
  Rh  Rh203  1  0.00874487  0.00581421  0.80899644  1
  Rh  Rh204  1  0.59410839  0.40303601  0.80510003  1
  Rh  Rh205  1  0.59599462  0.39599135  0.58946222  1
  Rh  Rh206  1  0.80193041  0.19142272  0.00876554  1
  Rh  Rh207  1  0.20169563  0.80423120  0.20039513  1
  Rh  Rh208  1  0.20090385  0.00573467  0.20824831  1
  Rh  Rh209  1  0.40260739  0.19634901  0.38934277  1
  Rh  Rh210  1  0.79208575  -0.00903557  0.79496464  1
  Rh  Rh211  1  0.60588054  0.80777384  0.20754141  1
  Rh  Rh212  1  -0.00563637  0.80337862  0.80146250  1
  Rh  Rh213  1  0.20081653  0.39072566  0.59431139  1
  Rh  Rh214  1  0.19455183  0.39116794  0.19481919  1
  Rh  Rh215  1  0.00869231  0.60042020  0.00322550  1
  Rh  Rh216  1  0.59760740  0.00813143  0.00356772  1
  Rh  Rh217  1  0.39316241  0.60884814  0.58148886  1
  Rh  Rh218  1  0.80678358  0.39871471  0.59887996  1
  Rh  Rh219  1  0.20428158  0.60013562  0.20101927  1
  Rh  Rh220  1  0.60533187  0.00417387  0.60484526  1
  Rh  Rh221  1  0.79785187  -0.00016390  0.00341362  1
  Rh  Rh222  1  -0.00444940  -0.00822862  0.20199505  1
  Rh  Rh223  1  0.79308634  0.59635698  0.79413063  1
  Rh  Rh224  1  0.19733098  0.00951775  0.59900946  1
  Rh  Rh225  1  0.40259898  0.60297247  0.00748927  1
  Rh  Rh226  1  0.60258239  0.19606018  -0.00148388  1
  Rh  Rh227  1  0.60522379  0.60248971  0.59749627  1
  Rh  Rh228  1  0.20116417  0.79225465  0.59128780  1
  Rh  Rh229  1  -0.01136261  0.20806093  0.19178769  1
  Rh  Rh230  1  0.60397069  0.79042468  -0.00835883  1
  Rh  Rh231  1  0.00106260  0.20375406  0.61211444  1
  Rh  Rh232  1  0.40231525  0.20484908  0.20001995  1
  Rh  Rh233  1  0.58888679  0.00394304  0.39446041  1
  Rh  Rh234  1  0.60872907  -0.01070762  0.79601240  1
  Rh  Rh235  1  0.01000239  0.59851956  0.79379748  1
  Rh  Rh236  1  0.40533495  0.20398117  0.61126113  1
  Rh  Rh237  1  0.00763214  0.79731049  0.39480357  1
  Rh  Rh238  1  0.81216244  0.00159691  0.40829369  1
  Rh  Rh239  1  0.39638244  0.60134335  0.80488313  1
  Rh  Rh240  1  0.19733892  0.80658615  0.40069709  1
  Rh  Rh241  1  0.79523422  0.80711267  0.79854539  1
  Rh  Rh242  1  0.39347369  -0.01071634  0.80513819  1
  Rh  Rh243  1  -0.00684469  0.79955804  0.60152818  1
  Rh  Rh244  1  0.59746988  0.79634629  0.60461095  1
  Rh  Rh245  1  0.59703900  -0.00426040  0.19921280  1
  Rh  Rh246  1  0.40523030  0.41133861  0.40252620  1
  Rh  Rh247  1  0.19990266  0.59935987  0.40087903  1
  Rh  Rh248  1  0.79821191  0.59569865  0.59857836  1
  Rh  Rh249  1  -0.00126300  0.01274511  -0.00518858  1
