# generated using pymatgen
data_ZrScNbPdRh
_symmetry_space_group_name_H-M   'P 1'
_cell_length_a   16.55985791
_cell_length_b   16.55768992
_cell_length_c   16.55535874
_cell_angle_alpha   90.01146486
_cell_angle_beta   90.01407188
_cell_angle_gamma   89.97130836
_symmetry_Int_Tables_number   1
_chemical_formula_structural   ZrScNbPdRh
_chemical_formula_sum   'Zr50 Sc50 Nb50 Pd50 Rh50'
_cell_volume   4539.36255678
_cell_formula_units_Z   50
loop_
 _symmetry_equiv_pos_site_id
 _symmetry_equiv_pos_as_xyz
  1  'x, y, z'
loop_
 _atom_site_type_symbol
 _atom_site_label
 _atom_site_symmetry_multiplicity
 _atom_site_fract_x
 _atom_site_fract_y
 _atom_site_fract_z
 _atom_site_occupancy
  Zr  Zr0  1  0.30464421  0.11355052  0.09946312  1
  Zr  Zr1  1  0.89155145  0.30528159  0.70419222  1
  Zr  Zr2  1  0.50401533  0.68627850  0.10897131  1
  Zr  Zr3  1  0.30138736  0.30051016  0.28977748  1
  Zr  Zr4  1  0.69278290  0.49156395  0.91108328  1
  Zr  Zr5  1  0.10792019  0.69657675  0.89232262  1
  Zr  Zr6  1  0.30045123  0.70683389  0.89498658  1
  Zr  Zr7  1  0.69413279  0.69988330  0.69260550  1
  Zr  Zr8  1  0.29123892  0.28695877  0.90617674  1
  Zr  Zr9  1  0.10694612  0.10982939  0.90268406  1
  Zr  Zr10  1  0.69704317  0.49668328  0.69191056  1
  Zr  Zr11  1  0.30649137  0.51078438  0.89659707  1
  Zr  Zr12  1  0.30231253  0.70385342  0.09699317  1
  Zr  Zr13  1  0.89529795  0.29945254  0.09338115  1
  Zr  Zr14  1  0.30842923  0.49297807  0.30745187  1
  Zr  Zr15  1  0.50872430  0.10366506  0.29925387  1
  Zr  Zr16  1  0.69391120  0.09590187  0.09776268  1
  Zr  Zr17  1  0.71432895  0.89842164  0.90671189  1
  Zr  Zr18  1  0.50186682  0.09677225  0.10072360  1
  Zr  Zr19  1  0.49842231  0.49997501  0.90496791  1
  Zr  Zr20  1  0.10943350  0.69847102  0.10070470  1
  Zr  Zr21  1  0.30422132  0.89518912  0.90069595  1
  Zr  Zr22  1  0.29863075  0.10149118  0.50466456  1
  Zr  Zr23  1  0.89524696  0.90449215  0.09366530  1
  Zr  Zr24  1  0.09608069  0.10474954  0.29713327  1
  Zr  Zr25  1  0.09726398  0.50509686  0.70261492  1
  Zr  Zr26  1  0.90307645  0.90672332  0.88433150  1
  Zr  Zr27  1  0.69826336  0.09976321  0.49015255  1
  Zr  Zr28  1  0.10294153  0.30322043  0.69736782  1
  Zr  Zr29  1  0.49728338  0.89988775  0.10708465  1
  Zr  Zr30  1  0.30727120  0.89651079  0.29419672  1
  Zr  Zr31  1  0.89677067  0.30300575  0.49999882  1
  Zr  Zr32  1  0.70295212  0.49549297  0.30289232  1
  Zr  Zr33  1  0.10103567  0.90290214  0.50158066  1
  Zr  Zr34  1  0.89912943  0.89548803  0.30024488  1
  Zr  Zr35  1  0.10086363  0.90503814  0.10466133  1
  Zr  Zr36  1  0.49678425  0.30864398  0.29977923  1
  Zr  Zr37  1  0.90700873  0.48884880  0.88930258  1
  Zr  Zr38  1  0.30305376  0.90610463  0.49724194  1
  Zr  Zr39  1  0.69983878  0.89890345  0.10372445  1
  Zr  Zr40  1  0.89516882  0.70749340  0.89899203  1
  Zr  Zr41  1  0.89366694  0.09463707  0.30039872  1
  Zr  Zr42  1  0.49070103  0.49497993  0.70856361  1
  Zr  Zr43  1  0.70099616  0.30826094  0.50280652  1
  Zr  Zr44  1  0.89822101  0.10559418  0.50029076  1
  Zr  Zr45  1  0.08595014  0.30583435  0.90746598  1
  Zr  Zr46  1  0.30565320  0.10093409  0.30357426  1
  Zr  Zr47  1  0.50419759  0.09482559  0.50352225  1
  Zr  Zr48  1  0.90087245  0.09553436  0.70741186  1
  Zr  Zr49  1  0.30015799  0.50117598  0.68936928  1
  Sc  Sc50  1  0.10386372  0.10285599  0.69038548  1
  Sc  Sc51  1  0.49890829  0.89180929  0.30463186  1
  Sc  Sc52  1  0.10680838  0.10402845  0.50276709  1
  Sc  Sc53  1  0.70066128  0.10436837  0.89983038  1
  Sc  Sc54  1  0.69387170  0.49889068  0.10352887  1
  Sc  Sc55  1  0.89431402  0.70156379  0.70925935  1
  Sc  Sc56  1  0.49592243  0.49894929  0.50315593  1
  Sc  Sc57  1  0.89383954  0.69699497  0.10515215  1
  Sc  Sc58  1  0.51278909  0.30082373  0.89596584  1
  Sc  Sc59  1  0.69507790  0.90407003  0.69539888  1
  Sc  Sc60  1  0.48610070  0.69089504  0.90952258  1
  Sc  Sc61  1  0.29918076  0.50566700  0.11125760  1
  Sc  Sc62  1  0.10075344  0.30269380  0.49598418  1
  Sc  Sc63  1  0.50613343  0.09807061  0.90237831  1
  Sc  Sc64  1  0.69899012  0.29561971  0.70531838  1
  Sc  Sc65  1  0.49191607  0.70517991  0.68655205  1
  Sc  Sc66  1  0.29964221  0.30247299  0.68998231  1
  Sc  Sc67  1  0.69556249  0.88601603  0.49669032  1
  Sc  Sc68  1  0.70160447  0.70346753  0.29665586  1
  Sc  Sc69  1  0.29708812  0.30480138  0.49527655  1
  Sc  Sc70  1  0.50153718  0.29600730  0.10404135  1
  Sc  Sc71  1  0.69209754  0.09573688  0.70460552  1
  Sc  Sc72  1  0.50713325  0.29612449  0.69804516  1
  Sc  Sc73  1  0.10067682  0.89675947  0.30040761  1
  Sc  Sc74  1  0.70564690  0.69873338  0.89639973  1
  Sc  Sc75  1  0.30935971  0.89233995  0.71101505  1
  Sc  Sc76  1  0.10775694  0.49701751  0.49133545  1
  Sc  Sc77  1  0.10029700  0.69787793  0.29955323  1
  Sc  Sc78  1  0.09299988  0.29999414  0.10832294  1
  Sc  Sc79  1  0.10099135  0.50441757  0.10722653  1
  Sc  Sc80  1  0.89181681  0.09965307  0.90336028  1
  Sc  Sc81  1  0.89098813  0.70719420  0.48724965  1
  Sc  Sc82  1  0.09425237  0.49738960  0.30132047  1
  Sc  Sc83  1  0.69007986  0.30308600  0.30676961  1
  Sc  Sc84  1  0.89858707  0.69456189  0.30375978  1
  Sc  Sc85  1  0.09463227  0.69766122  0.49030195  1
  Sc  Sc86  1  0.30770754  0.09618053  0.90909320  1
  Sc  Sc87  1  0.30620038  0.89786211  0.09999144  1
  Sc  Sc88  1  0.09258248  0.10344997  0.09702969  1
  Sc  Sc89  1  0.70087293  0.90340805  0.29746824  1
  Sc  Sc90  1  0.10307153  0.90395262  0.89819428  1
  Sc  Sc91  1  0.50801304  0.29316871  0.49637504  1
  Sc  Sc92  1  0.70229515  0.30618259  0.09021807  1
  Sc  Sc93  1  0.31094898  0.69905411  0.29616821  1
  Sc  Sc94  1  0.09736379  0.90987098  0.70341229  1
  Sc  Sc95  1  0.89423290  0.49219016  0.11597756  1
  Sc  Sc96  1  0.48616184  0.90315082  0.89966819  1
  Sc  Sc97  1  0.90312331  0.09546760  0.10115131  1
  Sc  Sc98  1  0.90587507  0.30748956  0.30056268  1
  Sc  Sc99  1  0.31183238  0.69188678  0.50120011  1
  Nb  Nb100  1  0.50232352  0.09219823  0.70403532  1
  Nb  Nb101  1  0.90236561  0.89481562  0.49768644  1
  Nb  Nb102  1  0.30172053  0.10025140  0.69617297  1
  Nb  Nb103  1  0.89844642  0.50145278  0.69543164  1
  Nb  Nb104  1  0.89407475  0.49677876  0.30761601  1
  Nb  Nb105  1  0.71019880  0.29416714  0.90479013  1
  Nb  Nb106  1  0.50380457  0.50591734  0.28882599  1
  Nb  Nb107  1  0.50082518  0.69319723  0.30546215  1
  Nb  Nb108  1  0.50238618  0.90483259  0.70191318  1
  Nb  Nb109  1  0.89086344  0.49848063  0.49315176  1
  Nb  Nb110  1  0.50259385  0.88990615  0.50712272  1
  Nb  Nb111  1  0.10290188  0.70179906  0.69515093  1
  Nb  Nb112  1  0.29561945  0.49414212  0.50185169  1
  Nb  Nb113  1  0.89056296  0.29667553  0.90117773  1
  Nb  Nb114  1  0.30432440  0.30499219  0.10105537  1
  Nb  Nb115  1  0.70113667  0.50018930  0.49452751  1
  Nb  Nb116  1  0.09878535  0.30542419  0.30358176  1
  Nb  Nb117  1  0.10154363  0.49974382  0.90324816  1
  Nb  Nb118  1  0.50871699  0.71297219  0.49238129  1
  Nb  Nb119  1  0.69837572  0.69784823  0.09283336  1
  Nb  Nb120  1  0.90197721  0.90565969  0.69531656  1
  Nb  Nb121  1  0.70140910  0.09885306  0.29701162  1
  Nb  Nb122  1  0.29201973  0.70082422  0.70375498  1
  Nb  Nb123  1  0.50391185  0.50182675  0.09587550  1
  Nb  Nb124  1  0.69235345  0.69579091  0.49901634  1
  Nb  Nb125  1  -0.00001246  0.80023703  0.19323670  1
  Nb  Nb126  1  0.20315800  0.40247725  0.00030496  1
  Nb  Nb127  1  -0.00470082  -0.00035286  0.40273009  1
  Nb  Nb128  1  0.59565844  0.60158646  0.79851102  1
  Nb  Nb129  1  -0.00451366  0.20607300  0.80271712  1
  Nb  Nb130  1  0.59989676  0.79620785  -0.00077846  1
  Nb  Nb131  1  0.59369563  0.79861479  0.80364244  1
  Nb  Nb132  1  0.59838204  0.60134455  0.40088391  1
  Nb  Nb133  1  0.20727572  0.80115952  0.40501911  1
  Nb  Nb134  1  -0.00890951  0.60086767  0.59788293  1
  Nb  Nb135  1  0.19813582  0.79604318  0.60090925  1
  Nb  Nb136  1  -0.00012461  0.79614371  0.00083046  1
  Nb  Nb137  1  -0.00105472  0.79868215  0.60212142  1
  Nb  Nb138  1  0.20415653  0.00530692  0.20065661  1
  Nb  Nb139  1  0.40092625  0.19209243  0.79321117  1
  Nb  Nb140  1  -0.00247741  0.60114919  -0.00353645  1
  Nb  Nb141  1  0.79458337  0.19757095  0.20328723  1
  Nb  Nb142  1  0.80530830  -0.00469381  0.59450999  1
  Nb  Nb143  1  0.20899650  0.00729232  0.79925813  1
  Nb  Nb144  1  0.80528282  0.59490036  -0.00198528  1
  Nb  Nb145  1  0.19863681  0.40345678  0.80767080  1
  Nb  Nb146  1  0.80017285  0.59655188  0.59258142  1
  Nb  Nb147  1  -0.00782945  0.41057306  0.59839485  1
  Nb  Nb148  1  0.39595179  0.39943096  0.00429426  1
  Nb  Nb149  1  0.40717691  -0.00159308  0.60615361  1
  Pd  Pd150  1  0.59391514  0.59622769  0.59737923  1
  Pd  Pd151  1  0.00119395  0.19868018  0.39975705  1
  Pd  Pd152  1  0.19612311  0.19902445  0.19727725  1
  Pd  Pd153  1  0.20742226  0.00088740  0.00334707  1
  Pd  Pd154  1  0.19472483  0.40159901  0.19949974  1
  Pd  Pd155  1  0.39268673  0.80453367  0.59976758  1
  Pd  Pd156  1  0.59747353  -0.01036888  0.39785436  1
  Pd  Pd157  1  0.60680193  0.40011809  0.79996093  1
  Pd  Pd158  1  -0.00042283  0.20932471  0.60439359  1
  Pd  Pd159  1  0.20562118  0.59928560  0.21357320  1
  Pd  Pd160  1  0.79418641  0.59887497  0.19719255  1
  Pd  Pd161  1  0.20123909  0.19971588  0.79208562  1
  Pd  Pd162  1  0.59755802  -0.01105387  -0.00805620  1
  Pd  Pd163  1  0.79983077  -0.00969787  0.40684987  1
  Pd  Pd164  1  0.60734938  0.19607621  0.60264734  1
  Pd  Pd165  1  0.19949392  0.20679787  0.39953831  1
  Pd  Pd166  1  0.59301422  0.40004526  0.59737106  1
  Pd  Pd167  1  0.59782348  0.79666449  0.19998370  1
  Pd  Pd168  1  -0.00200630  0.60551410  0.79930714  1
  Pd  Pd169  1  0.40536030  0.39026737  0.59214673  1
  Pd  Pd170  1  0.19527134  0.80519920  -0.00160166  1
  Pd  Pd171  1  0.40576524  0.39959356  0.40713929  1
  Pd  Pd172  1  0.39060873  0.38301136  0.80833309  1
  Pd  Pd173  1  0.20738826  0.60455479  0.39709010  1
  Pd  Pd174  1  0.19350965  -0.00160315  0.39001908  1
  Pd  Pd175  1  0.40286047  0.20332845  0.40078113  1
  Pd  Pd176  1  0.19400343  0.60469893  0.58998710  1
  Pd  Pd177  1  -0.00432366  0.60197790  0.19877628  1
  Pd  Pd178  1  -0.00401641  0.59433606  0.40302829  1
  Pd  Pd179  1  0.20386573  0.59455967  0.79646445  1
  Pd  Pd180  1  0.80386842  0.79744243  0.19957319  1
  Pd  Pd181  1  0.41469827  0.20771566  -0.00739762  1
  Pd  Pd182  1  0.41170855  -0.00226748  0.40338684  1
  Pd  Pd183  1  0.40406439  0.60074141  0.59761842  1
  Pd  Pd184  1  0.40649105  0.59674404  0.40500311  1
  Pd  Pd185  1  -0.00056811  0.41102988  0.01328406  1
  Pd  Pd186  1  0.80481822  0.79828085  0.60143195  1
  Pd  Pd187  1  0.78984214  0.59094346  0.80047611  1
  Pd  Pd188  1  -0.01028966  0.20478851  0.20183916  1
  Pd  Pd189  1  0.60388214  -0.00890420  0.81252755  1
  Pd  Pd190  1  0.78925901  0.40386198  0.80126138  1
  Pd  Pd191  1  0.60174339  0.39666895  0.19486054  1
  Pd  Pd192  1  0.60716306  0.20709636  0.19781041  1
  Pd  Pd193  1  0.79054808  0.19063470  0.60737510  1
  Pd  Pd194  1  0.00700180  0.80120248  0.79636642  1
  Pd  Pd195  1  0.79197724  0.80798742  0.78602522  1
  Pd  Pd196  1  -0.00326016  0.00028328  0.59308715  1
  Pd  Pd197  1  0.79658494  0.21021486  0.39078827  1
  Pd  Pd198  1  0.40425956  0.19940358  0.60255308  1
  Pd  Pd199  1  -0.00115993  -0.00108730  -0.01028407  1
  Rh  Rh200  1  0.40978694  0.79062917  0.79852299  1
  Rh  Rh201  1  0.79614311  0.38931341  0.20728862  1
  Rh  Rh202  1  -0.00686175  0.19724902  -0.00535211  1
  Rh  Rh203  1  0.80553851  0.40809668  -0.00157782  1
  Rh  Rh204  1  0.79369903  -0.00125204  0.79228237  1
  Rh  Rh205  1  0.60155818  0.20058933  0.39892222  1
  Rh  Rh206  1  0.39206664  0.59265024  0.01259007  1
  Rh  Rh207  1  0.80077613  0.40515833  0.59892341  1
  Rh  Rh208  1  0.40605537  0.19955221  0.20329205  1
  Rh  Rh209  1  0.00701824  0.80453980  0.39731609  1
  Rh  Rh210  1  0.59738619  -0.00363002  0.20858277  1
  Rh  Rh211  1  0.79201386  0.79926234  0.39701089  1
  Rh  Rh212  1  0.19327244  0.40420871  0.59962235  1
  Rh  Rh213  1  0.40304766  0.60997344  0.78769320  1
  Rh  Rh214  1  0.20302539  0.20620849  0.59330489  1
  Rh  Rh215  1  0.00672923  -0.00576827  0.20982094  1
  Rh  Rh216  1  0.01292915  0.01697207  0.80422590  1
  Rh  Rh217  1  0.59235110  0.41102034  0.40141303  1
  Rh  Rh218  1  0.60841075  0.60022619  0.20732540  1
  Rh  Rh219  1  0.39732159  0.00875969  0.19876707  1
  Rh  Rh220  1  -0.00139763  0.40204080  0.20494032  1
  Rh  Rh221  1  0.19824852  0.59410995  0.00053534  1
  Rh  Rh222  1  0.80080730  0.79324991  0.00715415  1
  Rh  Rh223  1  0.60244969  -0.00476543  0.59227236  1
  Rh  Rh224  1  0.39798376  0.79721935  0.40145735  1
  Rh  Rh225  1  0.00431974  0.39449530  0.79118053  1
  Rh  Rh226  1  0.39834921  0.59666689  0.19968572  1
  Rh  Rh227  1  0.21593921  -0.01310904  0.61497409  1
  Rh  Rh228  1  0.59955604  0.80430553  0.60733011  1
  Rh  Rh229  1  0.60842851  0.60765117  -0.00858282  1
  Rh  Rh230  1  0.60352239  0.79647461  0.39129460  1
  Rh  Rh231  1  0.19778862  0.80470275  0.20869596  1
  Rh  Rh232  1  0.79151757  0.60367766  0.40137670  1
  Rh  Rh233  1  0.79856093  0.19392352  0.00951338  1
  Rh  Rh234  1  0.80118127  0.19644059  0.79955533  1
  Rh  Rh235  1  0.40083616  0.00033582  0.00720417  1
  Rh  Rh236  1  0.60304698  0.20456905  -0.00247841  1
  Rh  Rh237  1  0.40835562  0.40901839  0.19205399  1
  Rh  Rh238  1  0.39484092  0.00899898  0.79631937  1
  Rh  Rh239  1  0.79892036  0.39337573  0.39519754  1
  Rh  Rh240  1  0.59823064  0.19800775  0.80220725  1
  Rh  Rh241  1  0.79582711  0.00663431  0.19482483  1
  Rh  Rh242  1  0.80010443  0.00644437  0.00128543  1
  Rh  Rh243  1  0.59078241  0.39211001  0.00590880  1
  Rh  Rh244  1  0.40955461  0.79718512  0.00817947  1
  Rh  Rh245  1  0.40858561  0.79036839  0.19883799  1
  Rh  Rh246  1  0.00001409  0.40471547  0.40409317  1
  Rh  Rh247  1  0.19167612  0.21089758  0.01628117  1
  Rh  Rh248  1  0.20128257  0.39809246  0.39258442  1
  Rh  Rh249  1  0.19365560  0.81143326  0.79279684  1
