# generated using pymatgen
data_ZrScNbPdRh
_symmetry_space_group_name_H-M   'P 1'
_cell_length_a   16.56400520
_cell_length_b   16.56054018
_cell_length_c   16.56409655
_cell_angle_alpha   89.98408730
_cell_angle_beta   90.00439414
_cell_angle_gamma   90.00340089
_symmetry_Int_Tables_number   1
_chemical_formula_structural   ZrScNbPdRh
_chemical_formula_sum   'Zr50 Sc50 Nb50 Pd50 Rh50'
_cell_volume   4543.67846928
_cell_formula_units_Z   50
loop_
 _symmetry_equiv_pos_site_id
 _symmetry_equiv_pos_as_xyz
  1  'x, y, z'
loop_
 _atom_site_type_symbol
 _atom_site_label
 _atom_site_symmetry_multiplicity
 _atom_site_fract_x
 _atom_site_fract_y
 _atom_site_fract_z
 _atom_site_occupancy
  Zr  Zr0  1  0.10194975  0.69889908  0.28762557  1
  Zr  Zr1  1  0.89940725  0.89995775  0.90580325  1
  Zr  Zr2  1  0.49675102  0.70831210  0.30136260  1
  Zr  Zr3  1  0.48780581  0.29512169  0.09683194  1
  Zr  Zr4  1  0.29660847  0.29982702  0.70595312  1
  Zr  Zr5  1  0.69945606  0.49866591  0.90270628  1
  Zr  Zr6  1  0.70368881  0.29914190  0.50050210  1
  Zr  Zr7  1  0.30352300  0.09689526  0.50537671  1
  Zr  Zr8  1  0.10273966  0.09911021  0.30108980  1
  Zr  Zr9  1  0.09910028  0.10087532  0.48536004  1
  Zr  Zr10  1  0.09629265  0.50206677  0.29542209  1
  Zr  Zr11  1  0.09868023  0.29449764  0.30295414  1
  Zr  Zr12  1  0.30294318  0.88331451  0.30055966  1
  Zr  Zr13  1  0.90672437  0.29711553  0.69423547  1
  Zr  Zr14  1  0.89535129  0.50235434  0.29874577  1
  Zr  Zr15  1  0.69648511  0.71091215  0.50112870  1
  Zr  Zr16  1  0.50144812  0.89729858  0.90031081  1
  Zr  Zr17  1  0.10443204  0.30734689  0.09679532  1
  Zr  Zr18  1  0.89772100  0.50116677  0.90416064  1
  Zr  Zr19  1  0.30276389  0.50331009  0.30776737  1
  Zr  Zr20  1  0.29810802  0.49653824  0.50407953  1
  Zr  Zr21  1  0.90320484  0.10030159  0.69693159  1
  Zr  Zr22  1  0.50581568  0.90680061  0.70240109  1
  Zr  Zr23  1  0.10537763  0.51267621  0.70383452  1
  Zr  Zr24  1  0.50341200  0.89268907  0.49577047  1
  Zr  Zr25  1  0.88696558  0.70557801  0.49261883  1
  Zr  Zr26  1  0.70118975  0.69946053  0.09824355  1
  Zr  Zr27  1  0.30321300  0.11745512  0.10031327  1
  Zr  Zr28  1  0.70733937  0.90227755  0.09623136  1
  Zr  Zr29  1  0.69564706  0.29582897  0.09582768  1
  Zr  Zr30  1  0.49891070  0.29321237  0.70623941  1
  Zr  Zr31  1  0.29391141  0.89197188  0.49629449  1
  Zr  Zr32  1  0.50423107  0.30566304  0.50418137  1
  Zr  Zr33  1  0.29455880  0.90140498  0.90011692  1
  Zr  Zr34  1  0.89327037  0.30020902  0.10048312  1
  Zr  Zr35  1  0.70272314  0.50118473  0.09617136  1
  Zr  Zr36  1  0.70434808  0.29920557  0.29773594  1
  Zr  Zr37  1  0.29106854  0.09736036  0.89726276  1
  Zr  Zr38  1  0.09748236  0.50148341  0.91288193  1
  Zr  Zr39  1  0.10419462  0.70865554  0.51325009  1
  Zr  Zr40  1  0.69705732  0.29810665  0.69613191  1
  Zr  Zr41  1  0.09760836  0.90768404  0.89563751  1
  Zr  Zr42  1  0.49287124  0.69951792  0.09592121  1
  Zr  Zr43  1  0.70522062  0.09834997  0.50664331  1
  Zr  Zr44  1  0.69499097  0.89917674  0.29415231  1
  Zr  Zr45  1  0.90164186  0.70183047  0.70253771  1
  Zr  Zr46  1  0.50148424  0.08972744  0.29764168  1
  Zr  Zr47  1  0.29747941  0.90405966  0.70239167  1
  Zr  Zr48  1  0.70695163  0.09927299  0.29452870  1
  Zr  Zr49  1  0.29214194  0.50438733  0.08991630  1
  Sc  Sc50  1  0.69849902  0.70323313  0.69750250  1
  Sc  Sc51  1  0.50291870  0.69770499  0.89980854  1
  Sc  Sc52  1  0.49666026  0.50093872  0.49593413  1
  Sc  Sc53  1  0.29683855  0.50081821  0.89651330  1
  Sc  Sc54  1  0.29564766  0.49839570  0.70642513  1
  Sc  Sc55  1  0.30342163  0.10452929  0.70334413  1
  Sc  Sc56  1  0.70551321  0.69916483  0.89879644  1
  Sc  Sc57  1  0.70347376  0.50506078  0.69824663  1
  Sc  Sc58  1  0.10276920  0.09626259  0.89718909  1
  Sc  Sc59  1  0.90224338  0.10974732  0.50100196  1
  Sc  Sc60  1  0.89866097  0.30830113  0.89629297  1
  Sc  Sc61  1  0.88399988  0.09630479  0.09694169  1
  Sc  Sc62  1  0.50050151  0.29805440  0.90292111  1
  Sc  Sc63  1  0.29979168  0.88425691  0.09051433  1
  Sc  Sc64  1  0.70042426  0.88886617  0.90219532  1
  Sc  Sc65  1  0.30832069  0.30149193  0.29689125  1
  Sc  Sc66  1  0.09793157  0.10443071  0.70854499  1
  Sc  Sc67  1  0.90253836  0.89511408  0.09401897  1
  Sc  Sc68  1  0.69835359  0.09659325  0.10027598  1
  Sc  Sc69  1  0.10266493  0.90098519  0.31540654  1
  Sc  Sc70  1  0.89798386  0.70467637  0.90229124  1
  Sc  Sc71  1  0.49173640  0.50377288  0.90135164  1
  Sc  Sc72  1  0.29723368  0.29490522  0.51406900  1
  Sc  Sc73  1  0.90566262  0.09651210  0.90284856  1
  Sc  Sc74  1  0.69120763  0.09663957  0.69518655  1
  Sc  Sc75  1  0.89556828  0.30091246  0.30428881  1
  Sc  Sc76  1  0.29600671  0.10112064  0.30517645  1
  Sc  Sc77  1  0.09864688  0.30495461  0.69599561  1
  Sc  Sc78  1  0.11316700  0.10223723  0.09269999  1
  Sc  Sc79  1  0.71180048  0.69746216  0.29662256  1
  Sc  Sc80  1  0.49790257  0.89340939  0.29830777  1
  Sc  Sc81  1  0.70729363  0.50437295  0.49909093  1
  Sc  Sc82  1  0.51139185  0.89422291  0.10059923  1
  Sc  Sc83  1  0.28984122  0.68606157  0.69312902  1
  Sc  Sc84  1  0.29748156  0.69486157  0.49253898  1
  Sc  Sc85  1  0.69413185  0.29743112  0.90305881  1
  Sc  Sc86  1  0.69690399  0.10580653  0.91072473  1
  Sc  Sc87  1  0.90066089  0.89429436  0.70462233  1
  Sc  Sc88  1  0.30104640  0.30515822  0.90318366  1
  Sc  Sc89  1  0.49789229  0.31998132  0.30304514  1
  Sc  Sc90  1  0.90200094  0.49798833  0.69586058  1
  Sc  Sc91  1  0.90383300  0.30364452  0.50109352  1
  Sc  Sc92  1  0.69977173  0.89734695  0.69549085  1
  Sc  Sc93  1  0.69757045  0.50492159  0.28947792  1
  Sc  Sc94  1  0.09551896  0.49578529  0.51154308  1
  Sc  Sc95  1  0.50858028  0.49921522  0.09982747  1
  Sc  Sc96  1  0.09733284  0.89100779  0.08896611  1
  Sc  Sc97  1  0.30560166  0.69727400  0.91669900  1
  Sc  Sc98  1  0.90884083  0.88636888  0.30082330  1
  Sc  Sc99  1  0.90141952  0.10434230  0.30804830  1
  Nb  Nb100  1  0.91530263  0.50140241  0.09444726  1
  Nb  Nb101  1  0.29453672  0.69814238  0.10899075  1
  Nb  Nb102  1  0.10020589  0.90116477  0.50018411  1
  Nb  Nb103  1  0.29706055  0.69835829  0.29279764  1
  Nb  Nb104  1  0.49891381  0.09514168  0.50566533  1
  Nb  Nb105  1  0.09692035  0.69443713  0.89505925  1
  Nb  Nb106  1  0.09952407  0.70277978  0.70430862  1
  Nb  Nb107  1  0.49902838  0.69543065  0.69393074  1
  Nb  Nb108  1  0.49512949  0.50494700  0.70497938  1
  Nb  Nb109  1  0.90172145  0.50654513  0.49563791  1
  Nb  Nb110  1  0.90001789  0.89839013  0.49491428  1
  Nb  Nb111  1  0.09962123  0.68687414  0.09642201  1
  Nb  Nb112  1  0.50018108  0.09955346  0.70248391  1
  Nb  Nb113  1  0.49922324  0.10069506  0.09707601  1
  Nb  Nb114  1  0.49942941  0.50769257  0.29970028  1
  Nb  Nb115  1  0.09468285  0.50502070  0.09968161  1
  Nb  Nb116  1  0.50537940  0.70273142  0.50371542  1
  Nb  Nb117  1  0.09587380  0.30300728  0.89941948  1
  Nb  Nb118  1  0.70358357  0.89663587  0.50143075  1
  Nb  Nb119  1  0.90438521  0.69794802  0.29875372  1
  Nb  Nb120  1  0.50170138  0.10392735  0.89888228  1
  Nb  Nb121  1  0.09926539  0.29955787  0.50277272  1
  Nb  Nb122  1  0.29755067  0.30261657  0.10318538  1
  Nb  Nb123  1  0.91773335  0.70682430  0.10855799  1
  Nb  Nb124  1  0.09976167  0.89045936  0.69352467  1
  Nb  Nb125  1  0.39543005  0.60250252  0.20250502  1
  Nb  Nb126  1  0.40371059  0.40081322  0.61010412  1
  Nb  Nb127  1  0.79880083  -0.00815680  0.40535908  1
  Nb  Nb128  1  0.79971403  0.19658695  0.79624339  1
  Nb  Nb129  1  0.20435496  -0.00462120  0.19814132  1
  Nb  Nb130  1  0.60536145  0.00009733  0.40644559  1
  Nb  Nb131  1  0.59733673  0.19472236  0.39881305  1
  Nb  Nb132  1  -0.00517154  0.60380549  0.40185552  1
  Nb  Nb133  1  0.19172973  -0.00432350  0.59778360  1
  Nb  Nb134  1  0.59622423  0.60582353  0.39823670  1
  Nb  Nb135  1  0.00780761  0.00375726  0.20060392  1
  Nb  Nb136  1  0.59396495  0.20058937  0.20254761  1
  Nb  Nb137  1  0.40432773  0.00670187  0.00203575  1
  Nb  Nb138  1  0.79994729  0.00352930  0.80082465  1
  Nb  Nb139  1  0.19660512  0.79425347  0.79797663  1
  Nb  Nb140  1  0.40395518  0.79353787  0.60445854  1
  Nb  Nb141  1  0.59498523  0.40473487  0.79557356  1
  Nb  Nb142  1  0.39507077  -0.00195542  0.19101868  1
  Nb  Nb143  1  0.39679046  0.79558273  0.79232038  1
  Nb  Nb144  1  0.00549356  -0.00784880  0.59399720  1
  Nb  Nb145  1  0.19673131  0.39690786  0.40050252  1
  Nb  Nb146  1  0.41137998  0.19663857  0.40732547  1
  Nb  Nb147  1  0.00108569  0.19640173  0.19313649  1
  Nb  Nb148  1  0.00181324  0.20580496  0.00299912  1
  Nb  Nb149  1  0.20027778  0.40337316  0.19873716  1
  Pd  Pd150  1  -0.00614974  0.59513682  0.80318139  1
  Pd  Pd151  1  0.00079066  0.01076811  0.01179121  1
  Pd  Pd152  1  0.19039277  0.78932644  -0.00768695  1
  Pd  Pd153  1  0.81045436  0.60010310  0.18792325  1
  Pd  Pd154  1  0.40270763  0.00032526  0.80762263  1
  Pd  Pd155  1  0.59839704  0.39604634  0.19617720  1
  Pd  Pd156  1  0.79879568  0.39740947  0.00109786  1
  Pd  Pd157  1  0.79485065  0.40529480  0.40032125  1
  Pd  Pd158  1  0.00395598  0.40855280  0.79564754  1
  Pd  Pd159  1  0.39434802  0.41411856  0.19112025  1
  Pd  Pd160  1  0.59499097  0.41401189  0.60630887  1
  Pd  Pd161  1  0.59719145  0.79240837  0.79633076  1
  Pd  Pd162  1  0.39954764  -0.00190201  0.39420215  1
  Pd  Pd163  1  0.61145562  0.00536307  0.80798578  1
  Pd  Pd164  1  0.18586808  0.59774681  0.40709647  1
  Pd  Pd165  1  0.59543265  0.19475324  0.59731137  1
  Pd  Pd166  1  0.19667763  0.20800704  -0.01048960  1
  Pd  Pd167  1  0.60891161  0.41029307  0.39774448  1
  Pd  Pd168  1  0.80034888  0.40465490  0.19533164  1
  Pd  Pd169  1  0.40017744  0.40436924  -0.00024166  1
  Pd  Pd170  1  -0.01033694  0.80169643  0.59678098  1
  Pd  Pd171  1  0.39148392  0.60901851  0.80260270  1
  Pd  Pd172  1  0.39788275  -0.00659410  0.60167155  1
  Pd  Pd173  1  0.60280125  0.59723513  0.80170033  1
  Pd  Pd174  1  0.40667599  0.19725082  0.21357515  1
  Pd  Pd175  1  0.81155958  0.60725014  0.00835305  1
  Pd  Pd176  1  0.19117610  0.19050756  0.60598490  1
  Pd  Pd177  1  0.81833109  -0.00905912  0.21006271  1
  Pd  Pd178  1  0.80633412  0.40186220  0.59776557  1
  Pd  Pd179  1  0.21370264  0.21033735  0.40126132  1
  Pd  Pd180  1  0.59939884  -0.00107925  -0.00326394  1
  Pd  Pd181  1  0.39738213  0.59746809  0.59789443  1
  Pd  Pd182  1  0.19020012  0.80807287  0.19643490  1
  Pd  Pd183  1  0.59799745  0.60105576  -0.00518365  1
  Pd  Pd184  1  0.80046337  0.60180499  0.79732725  1
  Pd  Pd185  1  0.40557344  0.60802415  0.39982725  1
  Pd  Pd186  1  0.00388890  0.40357717  0.40553506  1
  Pd  Pd187  1  0.00221527  0.80285821  0.80682969  1
  Pd  Pd188  1  0.19197125  0.40039474  0.80424778  1
  Pd  Pd189  1  0.00000087  0.39317789  0.19953856  1
  Pd  Pd190  1  0.00735738  0.79063734  0.40058345  1
  Pd  Pd191  1  -0.00388692  0.60495041  0.59550629  1
  Pd  Pd192  1  0.80577790  0.80241470  0.19790405  1
  Pd  Pd193  1  0.39685167  0.19876217  0.80798757  1
  Pd  Pd194  1  0.81120222  -0.00707158  0.60273104  1
  Pd  Pd195  1  0.60295432  0.79326189  0.19697793  1
  Pd  Pd196  1  0.60191527  0.59407909  0.59313516  1
  Pd  Pd197  1  -0.00380174  0.20217217  0.80994915  1
  Pd  Pd198  1  0.79958073  0.60491062  0.60223994  1
  Pd  Pd199  1  0.79169473  0.39482705  0.79776985  1
  Rh  Rh200  1  0.60791881  0.79866823  0.39522760  1
  Rh  Rh201  1  0.39919041  0.79904398  0.19139439  1
  Rh  Rh202  1  0.21047861  -0.00478011  0.39962112  1
  Rh  Rh203  1  -0.00299329  -0.00503275  0.79035207  1
  Rh  Rh204  1  0.38871334  0.38807295  0.41605299  1
  Rh  Rh205  1  -0.01175382  -0.00137353  0.40046925  1
  Rh  Rh206  1  0.18861281  -0.00528603  0.78745498  1
  Rh  Rh207  1  0.79727225  0.19765568  0.40568194  1
  Rh  Rh208  1  0.79390089  -0.00385925  -0.01058083  1
  Rh  Rh209  1  0.39814206  0.19651219  -0.01096543  1
  Rh  Rh210  1  0.79974233  0.20028753  0.19837784  1
  Rh  Rh211  1  0.00479068  0.79183007  -0.00456542  1
  Rh  Rh212  1  0.00973140  0.80668210  0.19847246  1
  Rh  Rh213  1  0.20255592  0.40034155  0.59912453  1
  Rh  Rh214  1  0.19419920  0.78927236  0.39684049  1
  Rh  Rh215  1  0.19637376  0.59735567  0.59570188  1
  Rh  Rh216  1  0.59555367  0.40108638  -0.00785972  1
  Rh  Rh217  1  0.20232632  0.60633564  0.81003773  1
  Rh  Rh218  1  -0.00092692  0.40314289  0.60092927  1
  Rh  Rh219  1  -0.00569473  0.60928480  -0.00324337  1
  Rh  Rh220  1  0.79799032  0.80507731  0.79950403  1
  Rh  Rh221  1  0.80358867  0.79342187  0.00710901  1
  Rh  Rh222  1  0.19698063  0.20475185  0.20254043  1
  Rh  Rh223  1  -0.00155186  0.39506584  -0.00095768  1
  Rh  Rh224  1  -0.00629523  0.59816788  0.20312169  1
  Rh  Rh225  1  0.59276402  0.00143200  0.19608748  1
  Rh  Rh226  1  0.60450796  0.19996827  0.80051609  1
  Rh  Rh227  1  0.59608581  -0.00407637  0.59545530  1
  Rh  Rh228  1  0.20427160  0.59263998  0.19731983  1
  Rh  Rh229  1  0.60371981  0.79316508  0.00015165  1
  Rh  Rh230  1  0.80242568  0.20562483  0.60538171  1
  Rh  Rh231  1  0.80395630  0.80113177  0.60453097  1
  Rh  Rh232  1  0.40787526  0.20328771  0.59945683  1
  Rh  Rh233  1  0.80953245  0.20292155  -0.01228330  1
  Rh  Rh234  1  0.00827731  0.19506566  0.59335987  1
  Rh  Rh235  1  0.79553165  0.80599059  0.39088141  1
  Rh  Rh236  1  0.39608338  0.79086674  0.40885530  1
  Rh  Rh237  1  0.40573089  0.80502017  -0.00559336  1
  Rh  Rh238  1  0.21359474  0.00067581  0.01244060  1
  Rh  Rh239  1  0.21003118  0.80102805  0.60697529  1
  Rh  Rh240  1  0.19746391  0.60501136  -0.00320269  1
  Rh  Rh241  1  0.59346520  0.20096326  0.00796548  1
  Rh  Rh242  1  -0.00548572  0.20845172  0.39841588  1
  Rh  Rh243  1  0.39992506  0.59676127  0.00754600  1
  Rh  Rh244  1  0.20009164  0.39987224  0.00013593  1
  Rh  Rh245  1  0.40628990  0.40056747  0.79639482  1
  Rh  Rh246  1  0.79838166  0.59868795  0.39740241  1
  Rh  Rh247  1  0.59492133  0.80443384  0.60666093  1
  Rh  Rh248  1  0.19743001  0.20744810  0.80331043  1
  Rh  Rh249  1  0.59083517  0.60600134  0.20693238  1
