# generated using pymatgen
data_ZrScNbPdRh
_symmetry_space_group_name_H-M   'P 1'
_cell_length_a   16.56080498
_cell_length_b   16.55437460
_cell_length_c   16.56458386
_cell_angle_alpha   89.98014838
_cell_angle_beta   89.99934963
_cell_angle_gamma   90.00240660
_symmetry_Int_Tables_number   1
_chemical_formula_structural   ZrScNbPdRh
_chemical_formula_sum   'Zr50 Sc50 Nb50 Pd50 Rh50'
_cell_volume   4541.24282768
_cell_formula_units_Z   50
loop_
 _symmetry_equiv_pos_site_id
 _symmetry_equiv_pos_as_xyz
  1  'x, y, z'
loop_
 _atom_site_type_symbol
 _atom_site_label
 _atom_site_symmetry_multiplicity
 _atom_site_fract_x
 _atom_site_fract_y
 _atom_site_fract_z
 _atom_site_occupancy
  Zr  Zr0  1  0.10179745  0.69259192  0.29773342  1
  Zr  Zr1  1  0.89222570  0.09504563  0.70171319  1
  Zr  Zr2  1  0.89273426  0.29672764  0.70472447  1
  Zr  Zr3  1  0.08926597  0.09188270  0.49647760  1
  Zr  Zr4  1  0.70002500  0.29073853  0.50167363  1
  Zr  Zr5  1  0.68961687  0.50417775  0.48568709  1
  Zr  Zr6  1  0.50264459  0.91275195  0.89927093  1
  Zr  Zr7  1  0.90273732  0.90110014  0.69726017  1
  Zr  Zr8  1  0.90323388  0.70499514  0.69934682  1
  Zr  Zr9  1  0.50358222  0.90689967  0.69910769  1
  Zr  Zr10  1  0.90093574  0.50064363  0.49257498  1
  Zr  Zr11  1  0.29326165  0.50651181  0.89969332  1
  Zr  Zr12  1  0.09867860  0.49658503  0.90725085  1
  Zr  Zr13  1  0.11361413  0.10207941  0.70659145  1
  Zr  Zr14  1  0.89357531  0.70071271  0.89889964  1
  Zr  Zr15  1  0.30169553  0.70390619  0.29734908  1
  Zr  Zr16  1  0.09799596  0.09854106  0.30389180  1
  Zr  Zr17  1  0.11490602  0.48830187  0.69534704  1
  Zr  Zr18  1  0.50025537  0.51468958  0.70163862  1
  Zr  Zr19  1  0.90105007  0.50277039  0.29488189  1
  Zr  Zr20  1  0.10765357  0.90322794  0.09651719  1
  Zr  Zr21  1  0.89614987  0.69974518  0.29038742  1
  Zr  Zr22  1  0.10444398  0.69229640  0.91010651  1
  Zr  Zr23  1  0.31429383  0.69885003  0.09899871  1
  Zr  Zr24  1  0.70050057  0.09780292  0.10254403  1
  Zr  Zr25  1  0.70042953  0.69992573  0.48883617  1
  Zr  Zr26  1  0.30194687  0.89878346  0.09979938  1
  Zr  Zr27  1  0.09756352  0.70804998  0.69205504  1
  Zr  Zr28  1  0.50623451  0.29990099  0.70433088  1
  Zr  Zr29  1  0.09708238  0.30110392  0.30608055  1
  Zr  Zr30  1  0.90090660  0.29584511  0.49926378  1
  Zr  Zr31  1  0.09335161  0.29194365  0.10096463  1
  Zr  Zr32  1  0.89615437  0.50064116  0.90790063  1
  Zr  Zr33  1  0.09796600  0.50062226  0.09467220  1
  Zr  Zr34  1  0.29652582  0.70490245  0.49659166  1
  Zr  Zr35  1  0.28271974  0.29924980  0.69037466  1
  Zr  Zr36  1  0.69532250  0.69282571  0.71403532  1
  Zr  Zr37  1  0.29958389  0.89629719  0.30184336  1
  Zr  Zr38  1  0.49903186  0.50134401  0.49897530  1
  Zr  Zr39  1  0.09706393  0.70080112  0.50047596  1
  Zr  Zr40  1  0.30435912  0.10413998  0.31188642  1
  Zr  Zr41  1  0.29698171  0.09646541  0.90056662  1
  Zr  Zr42  1  0.89657230  0.29995856  0.90119651  1
  Zr  Zr43  1  0.30847353  0.29893592  0.10307954  1
  Zr  Zr44  1  0.10360371  0.89805508  0.89993173  1
  Zr  Zr45  1  0.30437412  0.68338574  0.69800448  1
  Zr  Zr46  1  0.09801388  0.89769166  0.50399900  1
  Zr  Zr47  1  0.70035290  0.91066532  0.70290250  1
  Zr  Zr48  1  0.70551775  0.29660533  0.10689932  1
  Zr  Zr49  1  0.69573454  0.90578898  0.10363784  1
  Sc  Sc50  1  0.51104386  0.10034133  0.09731000  1
  Sc  Sc51  1  0.10030511  0.31283679  0.50142794  1
  Sc  Sc52  1  0.90468640  0.69837087  0.49471902  1
  Sc  Sc53  1  0.70019680  0.29317379  0.70768021  1
  Sc  Sc54  1  0.50569136  0.89570311  0.09947958  1
  Sc  Sc55  1  0.09838050  0.29146104  0.90906905  1
  Sc  Sc56  1  0.89302157  0.49980038  0.10130297  1
  Sc  Sc57  1  0.49662992  0.30198554  0.09550874  1
  Sc  Sc58  1  0.49956568  0.69407117  0.49292771  1
  Sc  Sc59  1  0.09540828  0.89887188  0.69651857  1
  Sc  Sc60  1  0.89689927  0.49903857  0.70354261  1
  Sc  Sc61  1  0.30128613  0.90404572  0.91051268  1
  Sc  Sc62  1  0.89327926  0.89450979  0.10365456  1
  Sc  Sc63  1  0.30150878  0.50498370  0.30243154  1
  Sc  Sc64  1  0.10521463  0.69515332  0.10198206  1
  Sc  Sc65  1  0.09533737  0.50269043  0.48772169  1
  Sc  Sc66  1  0.69791044  0.89551267  0.89981134  1
  Sc  Sc67  1  0.09959225  0.09675245  0.90977711  1
  Sc  Sc68  1  0.70056633  0.70299735  0.29871608  1
  Sc  Sc69  1  0.50462566  0.30001962  0.90379253  1
  Sc  Sc70  1  0.70258484  0.70892802  0.09095195  1
  Sc  Sc71  1  0.89362668  0.10007218  0.49993253  1
  Sc  Sc72  1  0.89672055  0.91503641  0.49849946  1
  Sc  Sc73  1  0.30048574  0.29766593  0.91338550  1
  Sc  Sc74  1  0.69913590  0.30784866  0.89358179  1
  Sc  Sc75  1  0.49927765  0.29973272  0.49323809  1
  Sc  Sc76  1  0.51063045  0.49432460  0.90275819  1
  Sc  Sc77  1  0.69415447  0.10153682  0.89605021  1
  Sc  Sc78  1  0.69943578  0.90039915  0.30093261  1
  Sc  Sc79  1  0.49429292  0.49838440  0.09066871  1
  Sc  Sc80  1  0.90182611  0.09827566  0.30963852  1
  Sc  Sc81  1  0.48871096  0.29844923  0.30038562  1
  Sc  Sc82  1  0.49536629  0.09120278  0.50266872  1
  Sc  Sc83  1  0.30116101  0.09947528  0.50650112  1
  Sc  Sc84  1  0.69793467  0.10376781  0.69813394  1
  Sc  Sc85  1  0.29784019  0.50806498  0.50078805  1
  Sc  Sc86  1  0.29411365  0.91002583  0.69817476  1
  Sc  Sc87  1  0.50277467  0.09518021  0.69674523  1
  Sc  Sc88  1  0.90230670  0.10620287  0.10297546  1
  Sc  Sc89  1  0.70683251  0.50843823  0.29647457  1
  Sc  Sc90  1  0.70178971  0.09000411  0.29024863  1
  Sc  Sc91  1  0.29733302  0.90110961  0.49975925  1
  Sc  Sc92  1  0.30061839  0.29490378  0.49136181  1
  Sc  Sc93  1  0.90453533  0.29570236  0.29471636  1
  Sc  Sc94  1  0.50718671  0.49701911  0.31132639  1
  Sc  Sc95  1  0.90146335  0.90218304  0.89054273  1
  Sc  Sc96  1  0.49344997  0.71278417  0.29444385  1
  Sc  Sc97  1  0.89802728  0.30086510  0.09939762  1
  Sc  Sc98  1  0.50908927  0.69547418  0.90654794  1
  Sc  Sc99  1  0.90151990  0.10149241  0.89812324  1
  Nb  Nb100  1  0.50076966  0.09511695  0.30188376  1
  Nb  Nb101  1  0.49840347  0.90434386  0.30213395  1
  Nb  Nb102  1  0.30383608  0.49548426  0.70191097  1
  Nb  Nb103  1  0.10076538  0.90177764  0.30026721  1
  Nb  Nb104  1  0.50524266  0.69861845  0.10394293  1
  Nb  Nb105  1  0.49909906  0.10105844  0.89459808  1
  Nb  Nb106  1  0.70475136  0.09420549  0.49993150  1
  Nb  Nb107  1  0.30265233  0.49369552  0.09727264  1
  Nb  Nb108  1  0.10127892  0.09921100  0.10317981  1
  Nb  Nb109  1  0.70017706  0.50248378  0.10015829  1
  Nb  Nb110  1  0.30164296  0.10530155  0.70141193  1
  Nb  Nb111  1  0.69626529  0.30152686  0.29976553  1
  Nb  Nb112  1  0.69684857  0.90165415  0.50178347  1
  Nb  Nb113  1  0.70239960  0.51137808  0.89475406  1
  Nb  Nb114  1  0.29514225  0.09823524  0.10220705  1
  Nb  Nb115  1  0.70641585  0.69053604  0.90356539  1
  Nb  Nb116  1  0.29913448  0.70447511  0.90141260  1
  Nb  Nb117  1  0.49810828  0.70375636  0.69874629  1
  Nb  Nb118  1  0.09961980  0.50003273  0.29651853  1
  Nb  Nb119  1  0.69788997  0.49727650  0.70779905  1
  Nb  Nb120  1  0.50156987  0.89760363  0.50254584  1
  Nb  Nb121  1  0.89708912  0.70231592  0.09400391  1
  Nb  Nb122  1  0.09547982  0.30005030  0.69842012  1
  Nb  Nb123  1  0.29744981  0.29589887  0.29606828  1
  Nb  Nb124  1  0.89955741  0.90301364  0.29545082  1
  Nb  Nb125  1  0.60073356  0.80065404  0.59885421  1
  Nb  Nb126  1  0.00267320  0.20081313  0.60831318  1
  Nb  Nb127  1  0.39898959  0.79683012  0.79889624  1
  Nb  Nb128  1  0.40662341  0.79938754  0.60450506  1
  Nb  Nb129  1  0.40075266  0.40325496  0.60640522  1
  Nb  Nb130  1  0.60463066  0.40304232  0.19871198  1
  Nb  Nb131  1  0.00432372  0.39902144  0.80073089  1
  Nb  Nb132  1  0.79676731  0.39574800  0.39931425  1
  Nb  Nb133  1  0.20867368  0.79353040  0.80203974  1
  Nb  Nb134  1  0.39567241  0.19950043  0.79646401  1
  Nb  Nb135  1  0.40202177  0.00302718  0.20498477  1
  Nb  Nb136  1  -0.00076516  0.80750021  0.38759851  1
  Nb  Nb137  1  0.60148993  0.40466478  0.60203820  1
  Nb  Nb138  1  0.20241854  0.39702519  0.20143956  1
  Nb  Nb139  1  0.00490137  0.59551761  0.80022088  1
  Nb  Nb140  1  0.79282499  0.59909512  0.60015328  1
  Nb  Nb141  1  0.79694417  -0.00018349  0.00273599  1
  Nb  Nb142  1  0.79147072  0.79893739  0.59847182  1
  Nb  Nb143  1  -0.00257887  0.79728656  0.00249413  1
  Nb  Nb144  1  0.00486511  -0.00481001  0.20227231  1
  Nb  Nb145  1  0.20395941  0.20110674  0.20237377  1
  Nb  Nb146  1  0.60136167  0.19093542  0.39483791  1
  Nb  Nb147  1  0.79009731  0.40574934  0.59669953  1
  Nb  Nb148  1  0.39365204  0.39859475  0.79522762  1
  Nb  Nb149  1  0.59758535  0.60078644  0.19087620  1
  Pd  Pd150  1  0.18926210  0.19818931  0.58633318  1
  Pd  Pd151  1  0.40203362  0.59697267  -0.00604551  1
  Pd  Pd152  1  0.19317590  0.80098271  0.39877688  1
  Pd  Pd153  1  -0.01109590  -0.00566174  0.00942054  1
  Pd  Pd154  1  -0.00410545  0.59962225  0.19003192  1
  Pd  Pd155  1  0.79317241  0.19782962  0.38973091  1
  Pd  Pd156  1  0.59467048  0.19659736  0.59231109  1
  Pd  Pd157  1  0.60482456  0.00428595  0.40179316  1
  Pd  Pd158  1  0.60485896  0.20348828  -0.00417712  1
  Pd  Pd159  1  0.40531658  0.00778066  0.01221466  1
  Pd  Pd160  1  0.00448001  0.80415695  0.19526529  1
  Pd  Pd161  1  0.40757406  0.59967404  0.81412004  1
  Pd  Pd162  1  0.19977427  0.38752891  0.81045950  1
  Pd  Pd163  1  0.39131728  0.40023851  0.40402493  1
  Pd  Pd164  1  0.00349407  0.20023408  0.80068719  1
  Pd  Pd165  1  0.40378171  0.19098040  -0.00396648  1
  Pd  Pd166  1  0.19175060  0.60413051  0.79637366  1
  Pd  Pd167  1  0.41110846  0.58988843  0.20509695  1
  Pd  Pd168  1  0.39448029  0.00087479  0.79581625  1
  Pd  Pd169  1  0.80607810  0.19460514  0.20855285  1
  Pd  Pd170  1  -0.00291757  0.58942297  0.60646149  1
  Pd  Pd171  1  0.40264287  0.19047555  0.19817207  1
  Pd  Pd172  1  0.41046526  0.80049521  -0.00659987  1
  Pd  Pd173  1  0.40145802  0.60478506  0.39366715  1
  Pd  Pd174  1  0.19984398  0.00232443  0.59755992  1
  Pd  Pd175  1  0.19545933  0.59592002  0.59411532  1
  Pd  Pd176  1  0.80973840  0.80847145  0.40386035  1
  Pd  Pd177  1  0.79112350  0.79950639  0.19842041  1
  Pd  Pd178  1  0.20085290  0.79612007  0.19461107  1
  Pd  Pd179  1  0.59575452  0.79786948  0.80296355  1
  Pd  Pd180  1  0.60937648  0.39867274  0.00608051  1
  Pd  Pd181  1  0.79476360  0.80421910  0.79796972  1
  Pd  Pd182  1  0.79142076  0.40080128  0.00032280  1
  Pd  Pd183  1  0.00263343  0.40139025  0.19761452  1
  Pd  Pd184  1  0.00783327  0.00541738  0.79780339  1
  Pd  Pd185  1  0.59991367  0.80005031  -0.00349655  1
  Pd  Pd186  1  0.39795456  -0.00513088  0.40277506  1
  Pd  Pd187  1  0.60554482  0.60385843  0.59922334  1
  Pd  Pd188  1  0.20116975  0.39441585  0.00738878  1
  Pd  Pd189  1  0.19429135  0.19905674  0.40487944  1
  Pd  Pd190  1  0.20645548  0.40716522  0.39620728  1
  Pd  Pd191  1  0.20378546  0.00655408  0.20687375  1
  Pd  Pd192  1  0.20375917  0.20644129  0.80975063  1
  Pd  Pd193  1  0.59146950  0.20748361  0.20592192  1
  Pd  Pd194  1  0.20820745  0.59180868  0.19507557  1
  Pd  Pd195  1  0.40405103  0.20495099  0.60285313  1
  Pd  Pd196  1  0.79656378  0.19301444  -0.00610978  1
  Pd  Pd197  1  0.40417931  0.40887794  0.20627003  1
  Pd  Pd198  1  0.59316934  0.80042187  0.39912665  1
  Pd  Pd199  1  -0.00832413  0.39987521  0.60643159  1
  Rh  Rh200  1  0.60413396  0.00155342  0.59352998  1
  Rh  Rh201  1  0.20038456  0.19348580  0.00980505  1
  Rh  Rh202  1  0.80464742  0.19787109  0.60380354  1
  Rh  Rh203  1  0.21380338  0.60257955  0.01262242  1
  Rh  Rh204  1  0.01520368  0.78920905  0.81328872  1
  Rh  Rh205  1  0.39595368  -0.00490759  0.60153298  1
  Rh  Rh206  1  0.59274966  0.19731463  0.80380774  1
  Rh  Rh207  1  0.20189972  -0.00148950  0.40458765  1
  Rh  Rh208  1  -0.00847060  0.40056169  0.39074533  1
  Rh  Rh209  1  0.60069852  0.79813173  0.20171030  1
  Rh  Rh210  1  0.79337487  0.19653817  0.80471245  1
  Rh  Rh211  1  0.39700826  0.40630889  -0.01299107  1
  Rh  Rh212  1  0.79637517  0.59943613  0.00671982  1
  Rh  Rh213  1  0.60752553  0.59932546  0.00513398  1
  Rh  Rh214  1  0.00417151  0.19028418  0.20111221  1
  Rh  Rh215  1  0.00074342  0.00862164  0.60897530  1
  Rh  Rh216  1  0.60479835  0.00291839  -0.00384898  1
  Rh  Rh217  1  0.60262678  0.00698611  0.80132057  1
  Rh  Rh218  1  0.80506160  0.80899036  -0.00719778  1
  Rh  Rh219  1  0.19836879  0.79562240  0.00099195  1
  Rh  Rh220  1  0.40255032  0.80434729  0.40792294  1
  Rh  Rh221  1  0.79217549  0.60948902  0.19031458  1
  Rh  Rh222  1  0.80822292  0.59633046  0.79558850  1
  Rh  Rh223  1  -0.00327979  -0.00786929  0.39298445  1
  Rh  Rh224  1  0.20185968  0.00460055  -0.00108071  1
  Rh  Rh225  1  0.40767809  0.19779672  0.40373426  1
  Rh  Rh226  1  0.80306381  0.40443021  0.79938867  1
  Rh  Rh227  1  0.40050881  0.60052015  0.59239943  1
  Rh  Rh228  1  0.40539344  0.81193024  0.19754282  1
  Rh  Rh229  1  -0.01573773  0.80804476  0.58287413  1
  Rh  Rh230  1  -0.00985676  0.60683593  0.00102318  1
  Rh  Rh231  1  0.79590551  0.00323572  0.80959644  1
  Rh  Rh232  1  0.79351207  0.39813973  0.20717046  1
  Rh  Rh233  1  0.59709159  0.40403222  0.79733462  1
  Rh  Rh234  1  0.81256225  0.00414220  0.19463765  1
  Rh  Rh235  1  0.79494179  -0.00112765  0.59874222  1
  Rh  Rh236  1  0.60486445  0.38745557  0.39785695  1
  Rh  Rh237  1  0.59512580  0.60098976  0.80768830  1
  Rh  Rh238  1  0.80487142  0.59719943  0.39898422  1
  Rh  Rh239  1  0.00299718  0.20387474  0.41076804  1
  Rh  Rh240  1  0.21409968  0.79770248  0.61144871  1
  Rh  Rh241  1  0.79381502  -0.00197177  0.39660390  1
  Rh  Rh242  1  0.59249936  0.61378226  0.37986844  1
  Rh  Rh243  1  -0.00003427  0.60668427  0.39159945  1
  Rh  Rh244  1  0.20757246  0.40396949  0.58583516  1
  Rh  Rh245  1  0.19808121  0.60042529  0.39815249  1
  Rh  Rh246  1  -0.00406980  0.19633015  0.00161644  1
  Rh  Rh247  1  -0.00519056  0.39358886  -0.00111775  1
  Rh  Rh248  1  0.58941848  -0.00571390  0.20268859  1
  Rh  Rh249  1  0.19991645  -0.00610932  0.80325701  1
