# generated using pymatgen
data_ZrScNbPdRh
_symmetry_space_group_name_H-M   'P 1'
_cell_length_a   16.55468974
_cell_length_b   16.55369068
_cell_length_c   16.55648981
_cell_angle_alpha   90.05989240
_cell_angle_beta   90.00443976
_cell_angle_gamma   89.99050684
_symmetry_Int_Tables_number   1
_chemical_formula_structural   ZrScNbPdRh
_chemical_formula_sum   'Zr50 Sc50 Nb50 Pd50 Rh50'
_cell_volume   4537.15799844
_cell_formula_units_Z   50
loop_
 _symmetry_equiv_pos_site_id
 _symmetry_equiv_pos_as_xyz
  1  'x, y, z'
loop_
 _atom_site_type_symbol
 _atom_site_label
 _atom_site_symmetry_multiplicity
 _atom_site_fract_x
 _atom_site_fract_y
 _atom_site_fract_z
 _atom_site_occupancy
  Zr  Zr0  1  0.10010270  0.30065654  0.89225771  1
  Zr  Zr1  1  0.09588367  0.49553189  0.69786643  1
  Zr  Zr2  1  0.50636655  0.89085795  0.50502389  1
  Zr  Zr3  1  0.29491812  0.10236938  0.29439578  1
  Zr  Zr4  1  0.71132002  0.09492366  0.69285128  1
  Zr  Zr5  1  0.30609883  0.50295043  0.89955703  1
  Zr  Zr6  1  0.10627155  0.90154780  0.70308279  1
  Zr  Zr7  1  0.90183745  0.89842388  0.49927440  1
  Zr  Zr8  1  0.70670802  0.69584577  0.71270868  1
  Zr  Zr9  1  0.29849723  0.69835746  0.30172036  1
  Zr  Zr10  1  0.49936155  0.10491096  0.70535080  1
  Zr  Zr11  1  0.89789301  0.30020747  0.90390657  1
  Zr  Zr12  1  0.50239114  0.30427787  0.49739781  1
  Zr  Zr13  1  0.31357444  0.08993430  0.89956938  1
  Zr  Zr14  1  0.70284889  0.49610820  0.70520687  1
  Zr  Zr15  1  0.69099593  0.70241319  0.10466787  1
  Zr  Zr16  1  0.29934454  0.89650409  0.89666407  1
  Zr  Zr17  1  0.90307797  0.09860114  0.89027269  1
  Zr  Zr18  1  0.69789822  0.89914381  0.90087890  1
  Zr  Zr19  1  0.70537803  0.09944554  0.89916034  1
  Zr  Zr20  1  0.49480378  0.09894042  0.29480254  1
  Zr  Zr21  1  0.50525004  0.30115671  0.89615141  1
  Zr  Zr22  1  0.49298787  0.49574525  0.30197119  1
  Zr  Zr23  1  0.30533264  0.70418292  0.89844061  1
  Zr  Zr24  1  0.69825609  0.10839995  0.30181081  1
  Zr  Zr25  1  0.30390639  0.70757874  0.10599092  1
  Zr  Zr26  1  0.88987867  0.70530403  0.31148934  1
  Zr  Zr27  1  0.90355815  0.70300467  0.89024365  1
  Zr  Zr28  1  0.10509827  0.29762719  0.69091763  1
  Zr  Zr29  1  0.50083239  0.90168826  0.10099243  1
  Zr  Zr30  1  0.10439187  0.69702556  0.30244802  1
  Zr  Zr31  1  0.09682638  0.30296587  0.09998741  1
  Zr  Zr32  1  0.69826222  0.89847674  0.10076740  1
  Zr  Zr33  1  0.49911027  0.10245768  0.49448193  1
  Zr  Zr34  1  0.10339027  0.49532524  0.30604787  1
  Zr  Zr35  1  0.30106294  0.50444390  0.29938030  1
  Zr  Zr36  1  0.50254208  0.30114174  0.69763252  1
  Zr  Zr37  1  0.89530450  0.30109482  0.29943022  1
  Zr  Zr38  1  0.50757869  0.50121067  0.69443948  1
  Zr  Zr39  1  0.50018083  0.50124777  0.50062051  1
  Zr  Zr40  1  0.89419741  0.69220339  0.50537490  1
  Zr  Zr41  1  0.29275335  0.30387096  0.29698567  1
  Zr  Zr42  1  0.69271066  0.30332181  0.70188232  1
  Zr  Zr43  1  0.10388803  0.69864359  0.49823801  1
  Zr  Zr44  1  0.30022099  0.10060386  0.69460671  1
  Zr  Zr45  1  0.30369821  0.10487894  0.09602088  1
  Zr  Zr46  1  0.30594586  0.29846940  0.09993582  1
  Zr  Zr47  1  0.89332074  0.10403411  0.50997031  1
  Zr  Zr48  1  0.89458984  0.49270314  0.89971209  1
  Zr  Zr49  1  0.29595693  0.91266262  0.30777304  1
  Sc  Sc50  1  0.70190766  0.89613384  0.70007905  1
  Sc  Sc51  1  0.70511461  0.29872295  0.49172117  1
  Sc  Sc52  1  0.10475691  0.09630059  0.10072863  1
  Sc  Sc53  1  0.50096685  0.29554272  0.30612184  1
  Sc  Sc54  1  0.30550375  0.70639381  0.69889195  1
  Sc  Sc55  1  0.90444605  0.70259290  0.10140419  1
  Sc  Sc56  1  0.09719047  0.90922086  0.09043863  1
  Sc  Sc57  1  0.09491271  0.71409745  0.89499133  1
  Sc  Sc58  1  0.69636109  0.09471294  0.10266819  1
  Sc  Sc59  1  0.89843387  0.28788565  0.69929189  1
  Sc  Sc60  1  0.30032642  0.09704097  0.48964349  1
  Sc  Sc61  1  0.49624425  0.70235009  0.28922373  1
  Sc  Sc62  1  0.49988816  0.89008706  0.69958024  1
  Sc  Sc63  1  0.70022787  0.49457748  0.30471096  1
  Sc  Sc64  1  0.70460709  0.30947075  0.89270502  1
  Sc  Sc65  1  0.70757043  0.29621543  0.10622576  1
  Sc  Sc66  1  0.90228276  0.09488267  0.09545603  1
  Sc  Sc67  1  0.89799550  0.51349567  0.69660487  1
  Sc  Sc68  1  0.91227256  0.10546068  0.30525468  1
  Sc  Sc69  1  0.09620223  0.70496555  0.09939459  1
  Sc  Sc70  1  0.09339493  0.10573879  0.50199008  1
  Sc  Sc71  1  0.30398521  0.89717682  0.70478189  1
  Sc  Sc72  1  0.30401932  0.50074179  0.49658293  1
  Sc  Sc73  1  0.89415973  0.49875725  0.50465377  1
  Sc  Sc74  1  0.29959158  0.90570557  0.09110059  1
  Sc  Sc75  1  0.30259126  0.49914852  0.69345615  1
  Sc  Sc76  1  0.90455604  0.09475287  0.69794799  1
  Sc  Sc77  1  0.30132153  0.29495924  0.90335938  1
  Sc  Sc78  1  0.69732238  0.89368789  0.50867524  1
  Sc  Sc79  1  0.49171087  0.90104199  0.90041506  1
  Sc  Sc80  1  0.70140575  0.49821318  0.50454318  1
  Sc  Sc81  1  0.90355281  0.29388295  0.49708037  1
  Sc  Sc82  1  0.89925981  0.49088764  0.10630630  1
  Sc  Sc83  1  0.29437868  0.89948875  0.50279808  1
  Sc  Sc84  1  0.29716852  0.29824887  0.69510968  1
  Sc  Sc85  1  0.29948523  0.29784689  0.50163369  1
  Sc  Sc86  1  0.29997264  0.69821925  0.50126920  1
  Sc  Sc87  1  0.70168342  0.29940829  0.30192322  1
  Sc  Sc88  1  0.10152622  0.09532813  0.89611877  1
  Sc  Sc89  1  0.49878730  0.69906147  0.69389787  1
  Sc  Sc90  1  0.31117215  0.49677553  0.10704566  1
  Sc  Sc91  1  0.10543338  0.90108181  0.49315133  1
  Sc  Sc92  1  0.49996614  0.69422967  0.10010330  1
  Sc  Sc93  1  0.89785539  0.30500709  0.10397306  1
  Sc  Sc94  1  0.70184447  0.70503323  0.49976099  1
  Sc  Sc95  1  0.69077753  0.50250964  0.09664585  1
  Sc  Sc96  1  0.90970727  0.90634845  0.89883557  1
  Sc  Sc97  1  0.49706861  0.90139213  0.29835041  1
  Sc  Sc98  1  0.09141602  0.50118287  0.10879396  1
  Sc  Sc99  1  0.10044364  0.90247748  0.90043970  1
  Nb  Nb100  1  0.09642723  0.10662271  0.70176083  1
  Nb  Nb101  1  0.09830830  0.49905695  0.89892989  1
  Nb  Nb102  1  0.09569187  0.31163775  0.49559025  1
  Nb  Nb103  1  0.90674547  0.70178415  0.70239162  1
  Nb  Nb104  1  0.90225174  0.89681073  0.09897071  1
  Nb  Nb105  1  0.69883120  0.69573497  0.90213104  1
  Nb  Nb106  1  0.69539319  0.50988044  0.89608232  1
  Nb  Nb107  1  0.49350574  0.30270304  0.09359642  1
  Nb  Nb108  1  0.70123930  0.09737663  0.49928236  1
  Nb  Nb109  1  0.09488310  0.29220021  0.30949482  1
  Nb  Nb110  1  0.70534146  0.88943376  0.30566750  1
  Nb  Nb111  1  0.89541174  0.50655815  0.29801837  1
  Nb  Nb112  1  0.09344502  0.49474788  0.50625406  1
  Nb  Nb113  1  0.49716396  0.10572420  0.09795056  1
  Nb  Nb114  1  0.50389996  0.50220652  0.91044269  1
  Nb  Nb115  1  0.09020583  0.69470845  0.70383209  1
  Nb  Nb116  1  0.90043806  0.90007709  0.30432513  1
  Nb  Nb117  1  0.50246686  0.70369117  0.50159646  1
  Nb  Nb118  1  0.90053197  0.90111053  0.70019730  1
  Nb  Nb119  1  0.50119061  0.10313586  0.89662298  1
  Nb  Nb120  1  0.69872687  0.70242410  0.30588469  1
  Nb  Nb121  1  0.50521952  0.68665832  0.89529781  1
  Nb  Nb122  1  0.10332532  0.09789487  0.29972524  1
  Nb  Nb123  1  0.49816652  0.48962722  0.09583548  1
  Nb  Nb124  1  0.09968942  0.90841613  0.30058126  1
  Nb  Nb125  1  -0.00141432  0.59653968  -0.00631167  1
  Nb  Nb126  1  0.19567098  0.59767622  -0.00467685  1
  Nb  Nb127  1  0.79855535  0.60486086  -0.00041020  1
  Nb  Nb128  1  -0.00021727  0.81090966  0.20943271  1
  Nb  Nb129  1  0.80447465  -0.01050620  0.20937633  1
  Nb  Nb130  1  0.19459637  0.60157254  0.79956094  1
  Nb  Nb131  1  0.59460746  0.19916683  -0.00059222  1
  Nb  Nb132  1  0.40761070  0.40405390  0.80286808  1
  Nb  Nb133  1  0.40350409  0.00157082  0.59979810  1
  Nb  Nb134  1  0.79645896  -0.00234839  0.39759834  1
  Nb  Nb135  1  0.60285604  0.19661827  0.59701218  1
  Nb  Nb136  1  0.19818382  0.40670111  -0.00006259  1
  Nb  Nb137  1  0.79881568  0.79701966  -0.00172144  1
  Nb  Nb138  1  0.60687238  -0.00126757  0.39870120  1
  Nb  Nb139  1  0.19357806  0.81064342  0.20571583  1
  Nb  Nb140  1  0.59095017  0.39839011  0.19448470  1
  Nb  Nb141  1  0.00005312  0.79635416  0.60639473  1
  Nb  Nb142  1  0.19088043  0.59823935  0.60437892  1
  Nb  Nb143  1  -0.00009837  0.39985692  0.79828816  1
  Nb  Nb144  1  0.79542483  0.60476052  0.20271400  1
  Nb  Nb145  1  0.40083249  0.79943881  0.40151240  1
  Nb  Nb146  1  -0.00068689  0.59453426  0.40016509  1
  Nb  Nb147  1  -0.00071012  0.20283816  -0.00439588  1
  Nb  Nb148  1  0.59970641  0.00430762  0.80177835  1
  Nb  Nb149  1  0.59829280  0.60684256  0.39852096  1
  Pd  Pd150  1  0.80918039  0.18752662  0.19742430  1
  Pd  Pd151  1  0.80487085  0.39391266  0.60300656  1
  Pd  Pd152  1  0.79815988  0.20100885  0.79555197  1
  Pd  Pd153  1  0.40032325  0.59700721  0.79069153  1
  Pd  Pd154  1  0.80529922  0.79814111  0.19432462  1
  Pd  Pd155  1  0.59558721  0.80401624  0.20657329  1
  Pd  Pd156  1  0.41058201  0.79562344  -0.00254407  1
  Pd  Pd157  1  0.19781254  0.19857639  0.58835441  1
  Pd  Pd158  1  0.59248000  0.00685360  -0.00459715  1
  Pd  Pd159  1  0.80527409  -0.00555448  0.00431081  1
  Pd  Pd160  1  -0.00849167  0.60779105  0.20375894  1
  Pd  Pd161  1  0.19453229  0.19863724  0.40600878  1
  Pd  Pd162  1  0.39317921  0.20586879  0.39529470  1
  Pd  Pd163  1  0.20095499  0.00407574  0.80044254  1
  Pd  Pd164  1  0.20576613  0.40467515  0.80223712  1
  Pd  Pd165  1  -0.01215035  0.39270212  0.60754680  1
  Pd  Pd166  1  0.78931475  0.40686618  0.00671994  1
  Pd  Pd167  1  0.59336080  0.21024040  0.19245606  1
  Pd  Pd168  1  0.40782823  0.60948264  0.40227715  1
  Pd  Pd169  1  0.60913889  0.60646616  0.59429830  1
  Pd  Pd170  1  0.60688283  -0.00373059  0.20794743  1
  Pd  Pd171  1  0.19259976  0.20014800  0.19906092  1
  Pd  Pd172  1  -0.00058034  0.19905811  0.19355958  1
  Pd  Pd173  1  -0.01091701  0.40515662  0.39606196  1
  Pd  Pd174  1  0.80501369  0.80801707  0.80678865  1
  Pd  Pd175  1  0.59484316  0.00242885  0.60326957  1
  Pd  Pd176  1  0.59318554  0.80102500  0.80228931  1
  Pd  Pd177  1  0.20598000  0.19225941  0.80193648  1
  Pd  Pd178  1  0.39664770  0.60282401  0.00845011  1
  Pd  Pd179  1  0.19685595  0.40233949  0.19423353  1
  Pd  Pd180  1  0.59386036  0.79423436  -0.00616583  1
  Pd  Pd181  1  0.20206011  0.00554466  0.59612580  1
  Pd  Pd182  1  0.00624038  -0.00564114  0.60199602  1
  Pd  Pd183  1  0.20007234  0.60281882  0.18759006  1
  Pd  Pd184  1  0.00322942  0.79495248  0.40295867  1
  Pd  Pd185  1  -0.00289874  -0.00137418  0.19791389  1
  Pd  Pd186  1  0.20517650  0.40193312  0.40663362  1
  Pd  Pd187  1  0.39436679  -0.00208308  0.19202191  1
  Pd  Pd188  1  0.61078821  0.39063151  0.00242979  1
  Pd  Pd189  1  0.00059895  0.39522507  0.21165824  1
  Pd  Pd190  1  0.19505807  0.79762309  0.00578282  1
  Pd  Pd191  1  0.80360100  0.40244745  0.40123464  1
  Pd  Pd192  1  -0.00235928  0.00652482  0.40502057  1
  Pd  Pd193  1  0.79984912  0.19712715  0.00558834  1
  Pd  Pd194  1  0.60004138  0.58913273  0.20769869  1
  Pd  Pd195  1  0.39249489  0.20891690  0.79889211  1
  Pd  Pd196  1  0.39577861  0.39828750  0.60279594  1
  Pd  Pd197  1  0.19616040  0.79308249  0.60705088  1
  Pd  Pd198  1  0.80218906  0.79872373  0.60386035  1
  Pd  Pd199  1  0.19338416  0.20058965  -0.00415609  1
  Rh  Rh200  1  0.59339359  0.41406035  0.80676873  1
  Rh  Rh201  1  0.59660824  0.59717797  0.79751029  1
  Rh  Rh202  1  0.80849538  0.40076353  0.79062366  1
  Rh  Rh203  1  0.00147822  0.81334783  0.79267286  1
  Rh  Rh204  1  0.40393914  0.19386288  0.59700943  1
  Rh  Rh205  1  0.60925101  0.78867135  0.61245545  1
  Rh  Rh206  1  0.40813891  -0.00589137  0.79030660  1
  Rh  Rh207  1  0.20270305  0.40381740  0.59134410  1
  Rh  Rh208  1  0.19123120  0.00968402  0.40426936  1
  Rh  Rh209  1  0.79731687  0.80614433  0.41142435  1
  Rh  Rh210  1  0.59184283  0.79721165  0.39432623  1
  Rh  Rh211  1  0.00261597  0.19963292  0.40268923  1
  Rh  Rh212  1  0.39358303  0.39903268  -0.00879412  1
  Rh  Rh213  1  0.00288566  0.60531232  0.59116700  1
  Rh  Rh214  1  0.79737100  -0.00700798  0.79643253  1
  Rh  Rh215  1  0.41245013  -0.01310642  0.41200053  1
  Rh  Rh216  1  0.19240783  0.58749546  0.41335505  1
  Rh  Rh217  1  0.20013490  0.79371843  0.79793897  1
  Rh  Rh218  1  0.59961043  0.40721589  0.39674533  1
  Rh  Rh219  1  0.20810638  0.80437799  0.39261254  1
  Rh  Rh220  1  0.00543687  0.00034088  0.79250175  1
  Rh  Rh221  1  0.39278012  0.39378640  0.39779471  1
  Rh  Rh222  1  0.00167865  0.20219652  0.80003509  1
  Rh  Rh223  1  -0.00476146  0.79692683  0.00588862  1
  Rh  Rh224  1  0.79350506  0.60389319  0.60615641  1
  Rh  Rh225  1  0.40611228  0.39086352  0.20633928  1
  Rh  Rh226  1  0.40383882  0.59665698  0.19471951  1
  Rh  Rh227  1  0.40658303  0.00077604  0.00373118  1
  Rh  Rh228  1  0.59994567  0.60118725  0.00024771  1
  Rh  Rh229  1  0.78920603  0.41076165  0.19920701  1
  Rh  Rh230  1  0.40679828  0.19937627  -0.00428596  1
  Rh  Rh231  1  0.00725171  0.39738163  -0.00444128  1
  Rh  Rh232  1  0.79175034  0.20700291  0.59801156  1
  Rh  Rh233  1  0.20051584  -0.00052495  0.19621562  1
  Rh  Rh234  1  0.80523957  0.19448218  0.39890360  1
  Rh  Rh235  1  0.20407591  0.00303690  -0.00512438  1
  Rh  Rh236  1  0.38655552  0.81072180  0.20758576  1
  Rh  Rh237  1  0.40728097  0.79494152  0.80389028  1
  Rh  Rh238  1  0.80465141  0.59728282  0.80391467  1
  Rh  Rh239  1  0.60233446  0.19645106  0.40534538  1
  Rh  Rh240  1  0.79457105  0.59379366  0.39659810  1
  Rh  Rh241  1  0.61255641  0.19054916  0.79937864  1
  Rh  Rh242  1  0.39585950  0.80422448  0.59186087  1
  Rh  Rh243  1  -0.00023382  0.00813768  -0.00219300  1
  Rh  Rh244  1  -0.00032491  0.59236203  0.80733546  1
  Rh  Rh245  1  0.00566925  0.20416298  0.59891380  1
  Rh  Rh246  1  0.40209712  0.20430854  0.20355742  1
  Rh  Rh247  1  0.60780271  0.39196676  0.59008713  1
  Rh  Rh248  1  0.39471176  0.60318109  0.59862345  1
  Rh  Rh249  1  0.80307108  -0.00878986  0.59484774  1
