# generated using pymatgen
data_ZrScNbPdRh
_symmetry_space_group_name_H-M   'P 1'
_cell_length_a   16.55542053
_cell_length_b   16.55856632
_cell_length_c   16.55858077
_cell_angle_alpha   89.97473183
_cell_angle_beta   90.02758882
_cell_angle_gamma   90.02144408
_symmetry_Int_Tables_number   1
_chemical_formula_structural   ZrScNbPdRh
_chemical_formula_sum   'Zr50 Sc50 Nb50 Pd50 Rh50'
_cell_volume   4539.26917077
_cell_formula_units_Z   50
loop_
 _symmetry_equiv_pos_site_id
 _symmetry_equiv_pos_as_xyz
  1  'x, y, z'
loop_
 _atom_site_type_symbol
 _atom_site_label
 _atom_site_symmetry_multiplicity
 _atom_site_fract_x
 _atom_site_fract_y
 _atom_site_fract_z
 _atom_site_occupancy
  Zr  Zr0  1  0.89793374  0.30152309  0.70117511  1
  Zr  Zr1  1  0.30433399  0.89987644  0.31987963  1
  Zr  Zr2  1  0.49896416  0.49588907  0.50449522  1
  Zr  Zr3  1  0.29827620  0.49506483  0.09744980  1
  Zr  Zr4  1  0.70441886  0.09561595  0.30436125  1
  Zr  Zr5  1  0.71185404  0.50242694  0.29900537  1
  Zr  Zr6  1  0.89800074  0.49444480  0.29503236  1
  Zr  Zr7  1  0.69334006  0.29501017  0.09769294  1
  Zr  Zr8  1  0.69853346  0.51823420  0.90198970  1
  Zr  Zr9  1  0.89667258  0.10049150  0.50018287  1
  Zr  Zr10  1  0.90552428  0.30471757  0.90379303  1
  Zr  Zr11  1  0.10653273  0.10061231  0.09681154  1
  Zr  Zr12  1  0.09937049  0.10765668  0.50353222  1
  Zr  Zr13  1  0.88695749  0.70201735  0.90349319  1
  Zr  Zr14  1  0.30155163  0.90862205  0.08719483  1
  Zr  Zr15  1  0.49996621  0.10013249  0.31567507  1
  Zr  Zr16  1  0.30142973  0.69715127  0.30708756  1
  Zr  Zr17  1  0.69896687  0.30659012  0.69759660  1
  Zr  Zr18  1  0.51150044  0.69520530  0.90705869  1
  Zr  Zr19  1  0.10102572  0.10927073  0.89674729  1
  Zr  Zr20  1  0.70057283  0.69943805  0.29945611  1
  Zr  Zr21  1  0.70059757  0.09723202  0.49467001  1
  Zr  Zr22  1  0.49704621  0.49709090  0.29687190  1
  Zr  Zr23  1  0.89516753  0.90020658  0.51800523  1
  Zr  Zr24  1  0.29569421  0.69792061  0.89474813  1
  Zr  Zr25  1  0.90116360  0.10300147  0.89855496  1
  Zr  Zr26  1  0.09980166  0.09875576  0.30094956  1
  Zr  Zr27  1  0.69535668  0.29316938  0.90002920  1
  Zr  Zr28  1  0.90045443  0.49462898  0.09890340  1
  Zr  Zr29  1  0.49249570  0.69371632  0.50635564  1
  Zr  Zr30  1  0.50363428  0.49862724  0.69882392  1
  Zr  Zr31  1  0.70195386  0.71637559  0.50274011  1
  Zr  Zr32  1  0.30286127  0.09746553  0.50329302  1
  Zr  Zr33  1  0.09896249  0.29574779  0.70150516  1
  Zr  Zr34  1  0.50266890  0.29646690  0.70842090  1
  Zr  Zr35  1  0.10094319  0.70593498  0.09780298  1
  Zr  Zr36  1  0.50025125  0.90704665  0.90496999  1
  Zr  Zr37  1  0.09632069  0.50209425  0.50509450  1
  Zr  Zr38  1  0.29578879  0.49958364  0.90733343  1
  Zr  Zr39  1  0.30088310  0.49184154  0.29404632  1
  Zr  Zr40  1  0.50766520  0.71045264  0.29846186  1
  Zr  Zr41  1  0.69409849  0.69777791  0.09388291  1
  Zr  Zr42  1  0.69740392  0.70563087  0.70923192  1
  Zr  Zr43  1  0.49694315  0.29997767  0.29292650  1
  Zr  Zr44  1  0.29303469  0.70004253  0.50534917  1
  Zr  Zr45  1  0.09458814  0.90452739  0.69165696  1
  Zr  Zr46  1  0.70246292  0.90729466  0.09634877  1
  Zr  Zr47  1  0.89470642  0.68868257  0.30715643  1
  Zr  Zr48  1  0.68872684  0.89397947  0.31187403  1
  Zr  Zr49  1  0.90320649  0.89517770  0.29187796  1
  Sc  Sc50  1  0.10764506  0.89752582  0.29822285  1
  Sc  Sc51  1  0.89260511  0.10132056  0.09244669  1
  Sc  Sc52  1  0.09662448  0.49970196  0.29004156  1
  Sc  Sc53  1  0.89524757  0.90002869  0.89358961  1
  Sc  Sc54  1  0.90193816  0.90516876  0.70578782  1
  Sc  Sc55  1  0.30474024  0.89695667  0.89729366  1
  Sc  Sc56  1  0.90363554  0.51067336  0.49097980  1
  Sc  Sc57  1  0.90329686  0.71265165  0.70511307  1
  Sc  Sc58  1  0.89930977  0.28653711  0.50187544  1
  Sc  Sc59  1  0.10858313  0.69448117  0.70272082  1
  Sc  Sc60  1  0.69954682  0.49852274  0.70043836  1
  Sc  Sc61  1  0.49282060  0.90075956  0.48597050  1
  Sc  Sc62  1  0.69636274  0.09378744  0.90674605  1
  Sc  Sc63  1  0.09250963  0.69712651  0.29453861  1
  Sc  Sc64  1  0.10583868  0.69981279  0.90559938  1
  Sc  Sc65  1  0.89950913  0.10530077  0.30748224  1
  Sc  Sc66  1  0.29868200  0.10009673  0.09481727  1
  Sc  Sc67  1  0.29848494  0.10060703  0.30212553  1
  Sc  Sc68  1  0.31017636  0.29811135  0.29854033  1
  Sc  Sc69  1  0.50815959  0.10180828  0.09191311  1
  Sc  Sc70  1  0.70456746  0.29586815  0.50449671  1
  Sc  Sc71  1  0.89968810  0.49276561  0.70250355  1
  Sc  Sc72  1  0.90431860  0.70388006  0.09840925  1
  Sc  Sc73  1  0.29982046  0.30605922  0.10422607  1
  Sc  Sc74  1  0.10473710  0.89745789  0.09751491  1
  Sc  Sc75  1  0.10705033  0.89854502  0.90104828  1
  Sc  Sc76  1  0.09718235  0.49520511  0.70221419  1
  Sc  Sc77  1  0.50303607  0.89919402  0.09133489  1
  Sc  Sc78  1  0.70169994  0.49372274  0.50842604  1
  Sc  Sc79  1  0.30382521  0.51045118  0.49454721  1
  Sc  Sc80  1  0.70124237  0.30914704  0.29370693  1
  Sc  Sc81  1  0.28984049  0.50717610  0.70286296  1
  Sc  Sc82  1  0.49148589  0.50601697  0.09819892  1
  Sc  Sc83  1  0.10399823  0.49697557  0.09897260  1
  Sc  Sc84  1  0.09726076  0.29063611  0.29098075  1
  Sc  Sc85  1  0.49359065  0.90817808  0.70893061  1
  Sc  Sc86  1  0.70082712  0.49636600  0.10738750  1
  Sc  Sc87  1  0.49704969  0.29068347  0.49398128  1
  Sc  Sc88  1  0.09871757  0.69315488  0.50552433  1
  Sc  Sc89  1  0.90078619  0.89425531  0.09414104  1
  Sc  Sc90  1  0.10055919  0.29880600  0.09876912  1
  Sc  Sc91  1  0.91451744  0.09447342  0.69982325  1
  Sc  Sc92  1  0.50256966  0.69665695  0.69854654  1
  Sc  Sc93  1  0.68723387  0.10283195  0.70884324  1
  Sc  Sc94  1  0.50785033  0.09969106  0.89072303  1
  Sc  Sc95  1  0.90139635  0.30054136  0.09463311  1
  Sc  Sc96  1  0.30206823  0.28603492  0.70921701  1
  Sc  Sc97  1  0.29785636  0.30907387  0.89685890  1
  Sc  Sc98  1  0.30214058  0.10278372  0.90129360  1
  Sc  Sc99  1  0.30175895  0.68793830  0.08839761  1
  Nb  Nb100  1  0.28873049  0.89763406  0.50466998  1
  Nb  Nb101  1  0.69820951  0.89855746  0.69470150  1
  Nb  Nb102  1  0.69752311  0.90331129  0.51135839  1
  Nb  Nb103  1  0.29992161  0.70103653  0.70139937  1
  Nb  Nb104  1  0.70179576  0.70538806  0.89703642  1
  Nb  Nb105  1  0.10751779  0.10107329  0.70055544  1
  Nb  Nb106  1  0.10410693  0.30510224  0.89462065  1
  Nb  Nb107  1  0.10100746  0.29773805  0.49894227  1
  Nb  Nb108  1  0.50334283  0.10015466  0.50444288  1
  Nb  Nb109  1  0.29558251  0.90067954  0.69431636  1
  Nb  Nb110  1  0.50268451  0.70347615  0.10277500  1
  Nb  Nb111  1  0.29918421  0.30247240  0.49575633  1
  Nb  Nb112  1  0.10572704  0.90131707  0.49917044  1
  Nb  Nb113  1  0.49820965  0.90007135  0.29875728  1
  Nb  Nb114  1  0.69970116  0.10220754  0.09962565  1
  Nb  Nb115  1  0.10356387  0.49118996  0.89535216  1
  Nb  Nb116  1  0.49359871  0.49688942  0.89996408  1
  Nb  Nb117  1  0.49504429  0.30584084  0.89668457  1
  Nb  Nb118  1  0.50399874  0.30134230  0.09846403  1
  Nb  Nb119  1  0.30471549  0.09310975  0.69842740  1
  Nb  Nb120  1  0.49125757  0.10329300  0.69672322  1
  Nb  Nb121  1  0.89850928  0.69997617  0.49964422  1
  Nb  Nb122  1  0.90445799  0.49964752  0.90151646  1
  Nb  Nb123  1  0.90028970  0.30008805  0.29770757  1
  Nb  Nb124  1  0.69689593  0.89743424  0.88911033  1
  Nb  Nb125  1  0.20368521  0.39308344  0.59323820  1
  Nb  Nb126  1  0.59517556  0.00140657  0.59677386  1
  Nb  Nb127  1  0.80352586  0.61084771  0.59972041  1
  Nb  Nb128  1  0.40921173  0.21110624  -0.00366616  1
  Nb  Nb129  1  0.79247180  0.79821919  0.20093633  1
  Nb  Nb130  1  0.40033133  0.59963228  0.80478001  1
  Nb  Nb131  1  0.00184350  0.00276173  0.19758710  1
  Nb  Nb132  1  0.59887688  0.00039864  0.20416306  1
  Nb  Nb133  1  0.60268087  0.59809268  0.40135932  1
  Nb  Nb134  1  0.59105022  0.40023115  -0.00488812  1
  Nb  Nb135  1  0.59775852  0.40498124  0.39803501  1
  Nb  Nb136  1  0.39973400  0.80339514  0.19711629  1
  Nb  Nb137  1  0.19526242  0.39522602  0.40368120  1
  Nb  Nb138  1  0.00235048  -0.00703718  0.40298583  1
  Nb  Nb139  1  0.00270523  0.39176179  0.39871234  1
  Nb  Nb140  1  -0.00293005  0.59448834  0.81168093  1
  Nb  Nb141  1  0.39267754  0.39636167  0.60021835  1
  Nb  Nb142  1  0.00362469  0.00505557  -0.00065526  1
  Nb  Nb143  1  0.79592553  0.19872591  0.19716430  1
  Nb  Nb144  1  0.80167984  0.20270595  0.80219282  1
  Nb  Nb145  1  0.21461137  0.79917851  0.19924083  1
  Nb  Nb146  1  0.20304942  0.00417153  0.78920074  1
  Nb  Nb147  1  -0.00234809  0.80283694  0.40796674  1
  Nb  Nb148  1  0.38850672  0.80407051  0.60220479  1
  Nb  Nb149  1  0.40636235  -0.00482179  0.20338208  1
  Pd  Pd150  1  0.80761633  0.80829007  0.39898306  1
  Pd  Pd151  1  0.80378419  0.39428325  0.40855627  1
  Pd  Pd152  1  0.60075499  0.19797669  0.60091997  1
  Pd  Pd153  1  0.00650318  0.79331673  0.59836330  1
  Pd  Pd154  1  0.20507587  0.20400363  0.39339587  1
  Pd  Pd155  1  0.80182249  0.00015539  0.20139191  1
  Pd  Pd156  1  0.59073467  0.80560952  0.79871918  1
  Pd  Pd157  1  0.38896233  0.40795349  0.78927070  1
  Pd  Pd158  1  0.00546149  0.59762210  -0.00417971  1
  Pd  Pd159  1  0.39871047  0.79226432  0.00211102  1
  Pd  Pd160  1  0.00945072  0.39865443  0.00216798  1
  Pd  Pd161  1  -0.00466527  0.59919484  0.19327405  1
  Pd  Pd162  1  -0.00088652  0.80807658  -0.00920012  1
  Pd  Pd163  1  0.40629175  -0.00908031  0.59293249  1
  Pd  Pd164  1  0.40637818  0.60057467  0.39515231  1
  Pd  Pd165  1  0.61417950  0.60205171  0.59725453  1
  Pd  Pd166  1  0.40144234  0.18891623  0.18939347  1
  Pd  Pd167  1  0.79489492  0.00720461  0.79453961  1
  Pd  Pd168  1  0.80806764  -0.01146736  0.40188414  1
  Pd  Pd169  1  0.21075231  0.20978334  -0.00328082  1
  Pd  Pd170  1  0.20594311  0.20331828  0.60348312  1
  Pd  Pd171  1  0.80316660  -0.00320284  -0.00675864  1
  Pd  Pd172  1  0.20179768  0.60543560  0.19643324  1
  Pd  Pd173  1  0.78893588  0.40244928  -0.00207225  1
  Pd  Pd174  1  0.59933820  0.59305891  0.20087624  1
  Pd  Pd175  1  0.19506090  0.80737852  0.79452187  1
  Pd  Pd176  1  -0.00749615  0.60438580  0.61563422  1
  Pd  Pd177  1  0.39368746  0.00409382  0.80575760  1
  Pd  Pd178  1  -0.01052010  0.19315237  0.19172032  1
  Pd  Pd179  1  0.79808645  0.18868505  0.61471402  1
  Pd  Pd180  1  0.79068313  0.01025578  0.61470430  1
  Pd  Pd181  1  0.20890822  0.20352712  0.20101980  1
  Pd  Pd182  1  -0.00257828  0.39432371  0.59187917  1
  Pd  Pd183  1  0.39920692  0.60846980  0.19930463  1
  Pd  Pd184  1  0.19056277  0.59188296  0.39504123  1
  Pd  Pd185  1  0.18720941  0.79006453  0.39685247  1
  Pd  Pd186  1  0.58205679  0.81279416  0.59989571  1
  Pd  Pd187  1  -0.00389007  0.20304915  0.79713207  1
  Pd  Pd188  1  0.60817447  0.21277963  0.39613874  1
  Pd  Pd189  1  0.00654756  0.79376229  0.80772768  1
  Pd  Pd190  1  0.20620383  -0.00736771  0.20264553  1
  Pd  Pd191  1  0.80890766  0.60006655  0.79044172  1
  Pd  Pd192  1  0.80163079  0.59887261  0.00757548  1
  Pd  Pd193  1  0.60635432  0.80604093  -0.00293303  1
  Pd  Pd194  1  0.81338747  0.40778666  0.58996079  1
  Pd  Pd195  1  0.39793647  0.20685698  0.59827250  1
  Pd  Pd196  1  0.60315131  0.19154794  0.20684792  1
  Pd  Pd197  1  0.40609148  0.79329728  0.79544245  1
  Pd  Pd198  1  0.79499145  0.39989973  0.80925869  1
  Pd  Pd199  1  0.60718122  0.40768366  0.80781913  1
  Rh  Rh200  1  0.19969260  0.59313486  0.60251697  1
  Rh  Rh201  1  -0.00205264  0.19962944  0.40057191  1
  Rh  Rh202  1  0.19664483  0.00401661  0.60079119  1
  Rh  Rh203  1  0.59558353  0.59201951  0.00689553  1
  Rh  Rh204  1  0.40061122  0.19326759  0.80758971  1
  Rh  Rh205  1  0.59419652  0.40691622  0.19731702  1
  Rh  Rh206  1  0.19640487  0.59784889  0.80509397  1
  Rh  Rh207  1  0.79664494  0.80808324  0.79688763  1
  Rh  Rh208  1  0.39700170  0.00524601  0.40414024  1
  Rh  Rh209  1  0.20548878  0.19439152  0.80039905  1
  Rh  Rh210  1  0.19869579  0.39387299  0.20823504  1
  Rh  Rh211  1  0.19535667  0.39573440  0.00009005  1
  Rh  Rh212  1  0.60045567  -0.00352826  0.79258946  1
  Rh  Rh213  1  0.59225289  0.79693617  0.41216593  1
  Rh  Rh214  1  0.40247044  0.39879401  0.19230162  1
  Rh  Rh215  1  0.00039765  0.39719880  0.20284456  1
  Rh  Rh216  1  0.39932750  0.39960314  0.40534001  1
  Rh  Rh217  1  0.00484040  0.59951664  0.39700438  1
  Rh  Rh218  1  0.78688586  0.59905183  0.41550576  1
  Rh  Rh219  1  0.79945862  0.20033660  -0.00113530  1
  Rh  Rh220  1  0.19513003  0.00211341  -0.01410425  1
  Rh  Rh221  1  0.01403207  -0.00297104  0.80742982  1
  Rh  Rh222  1  0.40478763  0.60406231  -0.00658723  1
  Rh  Rh223  1  0.40366189  0.39462985  0.00594142  1
  Rh  Rh224  1  0.58831339  0.38630736  0.59166710  1
  Rh  Rh225  1  0.00286051  0.40319869  0.80151471  1
  Rh  Rh226  1  0.19563581  0.00619317  0.40752283  1
  Rh  Rh227  1  0.40533755  0.01468632  0.00124989  1
  Rh  Rh228  1  0.39206301  0.59910491  0.61401631  1
  Rh  Rh229  1  0.79276583  0.80366634  0.00069563  1
  Rh  Rh230  1  0.59953210  0.19918399  0.80158326  1
  Rh  Rh231  1  0.80619832  0.60895864  0.18875577  1
  Rh  Rh232  1  0.60103223  0.81015616  0.18982558  1
  Rh  Rh233  1  0.59295074  0.20313023  -0.00671446  1
  Rh  Rh234  1  0.79628137  0.20825594  0.38898706  1
  Rh  Rh235  1  0.00622432  0.00561720  0.59333616  1
  Rh  Rh236  1  0.00502322  0.80384765  0.20342190  1
  Rh  Rh237  1  0.20008511  0.39712798  0.79175004  1
  Rh  Rh238  1  0.20776486  0.79918500  0.00574675  1
  Rh  Rh239  1  0.39613548  0.19531750  0.40459217  1
  Rh  Rh240  1  0.80217138  0.79813874  0.61048023  1
  Rh  Rh241  1  0.19855256  0.79682146  0.60451366  1
  Rh  Rh242  1  0.80580106  0.38887124  0.19183492  1
  Rh  Rh243  1  -0.00020309  0.19906225  0.60371368  1
  Rh  Rh244  1  0.60220309  -0.00139674  0.00066560  1
  Rh  Rh245  1  0.19251444  0.59460169  -0.00132239  1
  Rh  Rh246  1  0.59857721  -0.00290863  0.40551656  1
  Rh  Rh247  1  0.00470320  0.19927894  0.00055202  1
  Rh  Rh248  1  0.59429872  0.59808711  0.79973181  1
  Rh  Rh249  1  0.40076073  0.79396952  0.40634839  1
