# generated using pymatgen
data_ZrScNbPdRh
_symmetry_space_group_name_H-M   'P 1'
_cell_length_a   16.55726866
_cell_length_b   16.56030439
_cell_length_c   16.56244359
_cell_angle_alpha   90.01647349
_cell_angle_beta   90.00229650
_cell_angle_gamma   89.97734748
_symmetry_Int_Tables_number   1
_chemical_formula_structural   ZrScNbPdRh
_chemical_formula_sum   'Zr50 Sc50 Nb50 Pd50 Rh50'
_cell_volume   4541.31231999
_cell_formula_units_Z   50
loop_
 _symmetry_equiv_pos_site_id
 _symmetry_equiv_pos_as_xyz
  1  'x, y, z'
loop_
 _atom_site_type_symbol
 _atom_site_label
 _atom_site_symmetry_multiplicity
 _atom_site_fract_x
 _atom_site_fract_y
 _atom_site_fract_z
 _atom_site_occupancy
  Zr  Zr0  1  0.09561257  0.49904501  0.30585229  1
  Zr  Zr1  1  0.10468917  0.50033411  0.68561713  1
  Zr  Zr2  1  0.09334404  0.68958889  0.69668632  1
  Zr  Zr3  1  0.69852839  0.70383144  0.89153007  1
  Zr  Zr4  1  0.69779190  0.48727531  0.09299893  1
  Zr  Zr5  1  0.90527701  0.09712658  0.09627070  1
  Zr  Zr6  1  0.89869629  0.10052446  0.50534641  1
  Zr  Zr7  1  0.49575424  0.90311380  0.71010863  1
  Zr  Zr8  1  0.50845460  0.69804807  0.70430183  1
  Zr  Zr9  1  0.90407195  0.30072904  0.09483393  1
  Zr  Zr10  1  0.69836244  0.90320619  0.89739866  1
  Zr  Zr11  1  0.49491796  0.29708823  0.50088880  1
  Zr  Zr12  1  0.50845719  0.10417678  0.30235332  1
  Zr  Zr13  1  0.89216379  0.70657622  0.89429069  1
  Zr  Zr14  1  0.30189634  0.69533730  0.49499017  1
  Zr  Zr15  1  0.30080029  0.11287694  0.89997858  1
  Zr  Zr16  1  0.50335065  0.90016667  0.10351989  1
  Zr  Zr17  1  0.29746273  0.10123321  0.10329783  1
  Zr  Zr18  1  0.29948286  0.50483015  0.89567349  1
  Zr  Zr19  1  0.09731261  0.70696330  0.09993289  1
  Zr  Zr20  1  0.29706500  0.30000632  0.89549775  1
  Zr  Zr21  1  0.30008045  0.50665132  0.30724384  1
  Zr  Zr22  1  0.89604872  0.50366930  0.30161366  1
  Zr  Zr23  1  0.50398145  0.50015143  0.09910599  1
  Zr  Zr24  1  0.70325086  0.09620665  0.69639606  1
  Zr  Zr25  1  0.70309364  0.31329672  0.90495683  1
  Zr  Zr26  1  0.70049298  0.09510854  0.90201921  1
  Zr  Zr27  1  0.30004792  0.69728565  0.89970546  1
  Zr  Zr28  1  0.10596913  0.90804620  0.69671603  1
  Zr  Zr29  1  0.90846725  0.50370802  0.69522902  1
  Zr  Zr30  1  0.29579662  0.89310584  0.50007925  1
  Zr  Zr31  1  0.30291474  0.30186321  0.31107988  1
  Zr  Zr32  1  0.90747715  0.29885758  0.89430233  1
  Zr  Zr33  1  0.29691729  0.29584909  0.08855246  1
  Zr  Zr34  1  0.30069830  0.90489423  0.88826923  1
  Zr  Zr35  1  0.70067054  0.29354914  0.30589184  1
  Zr  Zr36  1  0.49715495  0.09911172  0.69471281  1
  Zr  Zr37  1  0.29161309  0.69133226  0.70328643  1
  Zr  Zr38  1  0.69557078  0.10658349  0.10048530  1
  Zr  Zr39  1  0.89986704  0.89601530  0.50013468  1
  Zr  Zr40  1  0.89464802  0.90153791  0.90595628  1
  Zr  Zr41  1  0.30371025  0.70947979  0.30199290  1
  Zr  Zr42  1  0.10419978  0.09790500  0.29337321  1
  Zr  Zr43  1  0.51700490  0.30062513  0.09684334  1
  Zr  Zr44  1  0.48882114  0.29751870  0.89286515  1
  Zr  Zr45  1  0.09935920  0.29283500  0.09615261  1
  Zr  Zr46  1  0.90342200  0.89145865  0.30630678  1
  Zr  Zr47  1  0.70497304  0.69632531  0.30582337  1
  Zr  Zr48  1  0.71334186  0.30126046  0.49875069  1
  Zr  Zr49  1  0.50783589  0.10200990  0.09726483  1
  Sc  Sc50  1  0.69711066  0.50019949  0.89563071  1
  Sc  Sc51  1  0.70048728  0.89585708  0.50444398  1
  Sc  Sc52  1  0.09857013  0.29487634  0.89929901  1
  Sc  Sc53  1  0.69975789  0.90322550  0.69785437  1
  Sc  Sc54  1  0.29149457  0.50931405  0.09670807  1
  Sc  Sc55  1  0.09835403  0.69559885  0.50246758  1
  Sc  Sc56  1  0.10030590  0.69922539  0.29747502  1
  Sc  Sc57  1  0.69826315  0.89405287  0.29997075  1
  Sc  Sc58  1  0.90186757  0.49826208  0.10733619  1
  Sc  Sc59  1  0.09556184  0.89461632  0.29715731  1
  Sc  Sc60  1  0.69560036  0.09670878  0.49735307  1
  Sc  Sc61  1  0.09645807  0.49876353  0.88936392  1
  Sc  Sc62  1  0.09655717  0.50393774  0.10868825  1
  Sc  Sc63  1  0.09744332  0.89507356  0.10268752  1
  Sc  Sc64  1  0.90637073  0.10068079  0.69321350  1
  Sc  Sc65  1  0.50554951  0.09923541  0.90134098  1
  Sc  Sc66  1  0.89652031  0.70428321  0.11157069  1
  Sc  Sc67  1  0.10003100  0.10231733  0.69653283  1
  Sc  Sc68  1  0.50662730  0.30658209  0.31180554  1
  Sc  Sc69  1  0.90072245  0.49854126  0.49629028  1
  Sc  Sc70  1  0.09456360  0.29409889  0.30950022  1
  Sc  Sc71  1  0.90383720  0.89952278  0.09699973  1
  Sc  Sc72  1  0.90025848  0.48882593  0.89751662  1
  Sc  Sc73  1  0.09202388  0.90366805  0.90461816  1
  Sc  Sc74  1  0.30069528  0.10765940  0.50603908  1
  Sc  Sc75  1  0.70214083  0.70104376  0.10836663  1
  Sc  Sc76  1  0.28836917  0.70276445  0.10345618  1
  Sc  Sc77  1  0.50658354  0.69754109  0.49653427  1
  Sc  Sc78  1  0.10196413  0.70343702  0.90088218  1
  Sc  Sc79  1  0.50315329  0.09807704  0.50023526  1
  Sc  Sc80  1  0.10245299  0.11095041  0.50383475  1
  Sc  Sc81  1  0.50800807  0.90152503  0.50888472  1
  Sc  Sc82  1  0.29627893  0.29695044  0.50471184  1
  Sc  Sc83  1  0.70105645  0.90766088  0.09768485  1
  Sc  Sc84  1  0.09711080  0.09976708  0.88970095  1
  Sc  Sc85  1  0.70304056  0.10252588  0.29967135  1
  Sc  Sc86  1  0.29639394  0.10139683  0.29487399  1
  Sc  Sc87  1  0.70251235  0.49770319  0.31453430  1
  Sc  Sc88  1  0.69877343  0.69550571  0.50622184  1
  Sc  Sc89  1  0.09662997  0.29589626  0.69039666  1
  Sc  Sc90  1  0.49830341  0.88555259  0.29202314  1
  Sc  Sc91  1  0.29157239  0.49316963  0.50022586  1
  Sc  Sc92  1  0.90768620  0.09674260  0.89816578  1
  Sc  Sc93  1  0.50243096  0.50267653  0.49036869  1
  Sc  Sc94  1  0.09235259  0.89671259  0.49948168  1
  Sc  Sc95  1  0.50362225  0.70544317  0.10100874  1
  Sc  Sc96  1  0.90392394  0.10313694  0.29768989  1
  Sc  Sc97  1  0.50067801  0.51230430  0.89982645  1
  Sc  Sc98  1  0.89564822  0.69879817  0.30835018  1
  Sc  Sc99  1  0.89390255  0.90292372  0.68807349  1
  Nb  Nb100  1  0.49560211  0.30498454  0.69896843  1
  Nb  Nb101  1  0.09567276  0.49063283  0.50881746  1
  Nb  Nb102  1  0.89615255  0.70780819  0.50443274  1
  Nb  Nb103  1  0.49853448  0.50013853  0.30289009  1
  Nb  Nb104  1  0.31549279  0.29908066  0.70008666  1
  Nb  Nb105  1  0.89223770  0.70173104  0.69759389  1
  Nb  Nb106  1  0.90136916  0.29384544  0.50074696  1
  Nb  Nb107  1  0.49963918  0.89316439  0.89864098  1
  Nb  Nb108  1  0.10239361  0.09891829  0.10046852  1
  Nb  Nb109  1  0.70240311  0.29948881  0.09940459  1
  Nb  Nb110  1  0.69569837  0.50125989  0.50316009  1
  Nb  Nb111  1  0.89098136  0.30008894  0.31313829  1
  Nb  Nb112  1  0.30159325  0.90037742  0.29457632  1
  Nb  Nb113  1  0.29556603  0.09663164  0.70160242  1
  Nb  Nb114  1  0.29995580  0.90503032  0.69873816  1
  Nb  Nb115  1  0.49658147  0.49625771  0.69750389  1
  Nb  Nb116  1  0.49779835  0.71427659  0.89835376  1
  Nb  Nb117  1  0.10104561  0.30423287  0.50497486  1
  Nb  Nb118  1  0.30294175  0.90232394  0.10917217  1
  Nb  Nb119  1  0.69486897  0.50690862  0.69379627  1
  Nb  Nb120  1  0.70118131  0.30711344  0.70017985  1
  Nb  Nb121  1  0.50001063  0.69257760  0.30081441  1
  Nb  Nb122  1  0.71230663  0.69068354  0.70056233  1
  Nb  Nb123  1  0.89293006  0.29825197  0.68955031  1
  Nb  Nb124  1  0.30144729  0.49616184  0.69859551  1
  Nb  Nb125  1  -0.00825201  0.60526447  -0.00140628  1
  Nb  Nb126  1  0.40057214  0.59810954  0.60421156  1
  Nb  Nb127  1  0.59717933  0.59563745  0.20790917  1
  Nb  Nb128  1  0.39475770  -0.00644212  0.39506863  1
  Nb  Nb129  1  0.79750582  0.20679778  0.79704509  1
  Nb  Nb130  1  0.40512281  0.20878291  0.19902223  1
  Nb  Nb131  1  0.60530522  0.20831572  0.79232328  1
  Nb  Nb132  1  0.79944798  0.20344162  -0.00319248  1
  Nb  Nb133  1  0.19762788  0.80539411  0.79279690  1
  Nb  Nb134  1  0.60232285  0.21114323  0.60752943  1
  Nb  Nb135  1  0.80628263  -0.00451607  0.40007610  1
  Nb  Nb136  1  0.39849393  0.40195913  0.00246523  1
  Nb  Nb137  1  0.20846664  0.39800647  0.78833330  1
  Nb  Nb138  1  0.39774101  -0.00520912  0.00199015  1
  Nb  Nb139  1  0.80049932  0.39039655  0.20484440  1
  Nb  Nb140  1  0.20521529  -0.00372435  0.39639982  1
  Nb  Nb141  1  0.39626041  0.79655581  0.60931614  1
  Nb  Nb142  1  0.39917476  0.80646468  -0.00356553  1
  Nb  Nb143  1  0.20525942  0.00225321  0.00524421  1
  Nb  Nb144  1  -0.00318842  0.79961887  0.79245937  1
  Nb  Nb145  1  0.39792470  0.40166619  0.19771668  1
  Nb  Nb146  1  0.80256818  0.59982236  -0.00077391  1
  Nb  Nb147  1  0.40515234  0.59810816  0.20535541  1
  Nb  Nb148  1  0.60166186  0.40163169  0.60557632  1
  Nb  Nb149  1  0.20308273  0.39740698  0.20343486  1
  Pd  Pd150  1  0.40306894  0.40850326  0.58896262  1
  Pd  Pd151  1  0.00040195  0.79867892  0.60498661  1
  Pd  Pd152  1  0.59977431  -0.00901490  0.39602924  1
  Pd  Pd153  1  -0.00131991  0.60722028  0.19939226  1
  Pd  Pd154  1  0.80644343  0.59686094  0.59320147  1
  Pd  Pd155  1  0.40683365  0.00968586  0.20404056  1
  Pd  Pd156  1  0.80079906  0.41021986  0.59852795  1
  Pd  Pd157  1  0.20590617  0.81247490  -0.00619779  1
  Pd  Pd158  1  0.19828048  0.00612057  0.58871274  1
  Pd  Pd159  1  0.40630445  0.60024654  0.79600439  1
  Pd  Pd160  1  0.20421969  0.21072068  0.20540213  1
  Pd  Pd161  1  0.18452259  0.59524379  -0.00280233  1
  Pd  Pd162  1  0.19016984  0.80382619  0.39592422  1
  Pd  Pd163  1  0.60074247  0.79816685  0.60786618  1
  Pd  Pd164  1  0.40334155  0.01100655  0.80680987  1
  Pd  Pd165  1  0.59988874  0.79961962  0.40035956  1
  Pd  Pd166  1  0.60445122  -0.00288856  0.20720673  1
  Pd  Pd167  1  0.80263771  0.58818076  0.80422679  1
  Pd  Pd168  1  0.40254907  0.60845618  0.00912684  1
  Pd  Pd169  1  0.60271358  0.80002270  0.00325211  1
  Pd  Pd170  1  -0.00394820  0.60563895  0.80622421  1
  Pd  Pd171  1  -0.00461416  0.39662973  0.40590612  1
  Pd  Pd172  1  0.19589400  0.40865953  -0.00183105  1
  Pd  Pd173  1  0.41168604  0.80635321  0.40966197  1
  Pd  Pd174  1  0.79769447  0.80804979  0.19925340  1
  Pd  Pd175  1  0.39772223  0.18914563  0.39632276  1
  Pd  Pd176  1  0.00068227  0.38965311  0.20717649  1
  Pd  Pd177  1  0.00907164  0.39273965  0.78754660  1
  Pd  Pd178  1  0.80564576  0.20308260  0.19461829  1
  Pd  Pd179  1  0.00430007  0.00656912  0.40347845  1
  Pd  Pd180  1  0.60598907  0.40282820  0.21230250  1
  Pd  Pd181  1  -0.00589946  -0.00726860  0.79276763  1
  Pd  Pd182  1  0.80342806  0.40522639  0.79098735  1
  Pd  Pd183  1  0.19513018  0.39715029  0.40052464  1
  Pd  Pd184  1  0.80953668  0.00448194  0.79609043  1
  Pd  Pd185  1  -0.00014857  -0.00636067  0.19801442  1
  Pd  Pd186  1  0.00145410  0.19588940  0.40349641  1
  Pd  Pd187  1  0.61054925  0.80268479  0.79031978  1
  Pd  Pd188  1  0.19731600  0.20647652  0.78931930  1
  Pd  Pd189  1  0.59422528  0.40257032  0.79906760  1
  Pd  Pd190  1  0.20060277  0.79495861  0.60393569  1
  Pd  Pd191  1  0.60741531  0.61144251  0.00301282  1
  Pd  Pd192  1  -0.00038324  0.60438539  0.40660596  1
  Pd  Pd193  1  0.00843676  0.41076770  0.00130965  1
  Pd  Pd194  1  -0.00396648  0.20614207  0.20452227  1
  Pd  Pd195  1  0.39656565  -0.00476700  0.59089595  1
  Pd  Pd196  1  0.59904124  0.59942535  0.80062146  1
  Pd  Pd197  1  0.79545037  0.79559735  0.00809213  1
  Pd  Pd198  1  0.19054864  0.59853880  0.40496485  1
  Pd  Pd199  1  0.80239762  -0.00340955  0.20624702  1
  Rh  Rh200  1  0.39667210  0.40756575  0.80767749  1
  Rh  Rh201  1  0.60813637  0.20676785  -0.01445228  1
  Rh  Rh202  1  0.20718774  0.20477116  0.60635291  1
  Rh  Rh203  1  0.59605298  0.00181304  0.80171984  1
  Rh  Rh204  1  -0.00690673  0.39354948  0.59585204  1
  Rh  Rh205  1  0.00151806  0.78902026  0.40219028  1
  Rh  Rh206  1  0.58657399  0.39822337  -0.01603592  1
  Rh  Rh207  1  0.20379402  0.39065531  0.60461910  1
  Rh  Rh208  1  0.80274845  0.18588578  0.40265502  1
  Rh  Rh209  1  0.60460319  0.60109699  0.39710595  1
  Rh  Rh210  1  0.60423402  0.79066619  0.20432231  1
  Rh  Rh211  1  0.60443966  0.20273240  0.41120353  1
  Rh  Rh212  1  0.80304979  0.40366666  0.40224931  1
  Rh  Rh213  1  0.19301396  0.59364877  0.79932424  1
  Rh  Rh214  1  0.39940841  0.40328830  0.40388236  1
  Rh  Rh215  1  0.19618274  0.19522587  0.40241802  1
  Rh  Rh216  1  -0.00604444  0.79371865  -0.00563605  1
  Rh  Rh217  1  0.40339899  0.19118057  0.79094499  1
  Rh  Rh218  1  0.00666890  0.00224379  0.59647187  1
  Rh  Rh219  1  -0.00171226  0.20404363  0.59791896  1
  Rh  Rh220  1  0.59350852  -0.00820695  -0.00511348  1
  Rh  Rh221  1  -0.00311163  0.79663602  0.20353707  1
  Rh  Rh222  1  0.41141996  0.20147788  0.00885690  1
  Rh  Rh223  1  0.80081199  0.00749913  0.00336249  1
  Rh  Rh224  1  0.59816709  0.20505742  0.20772023  1
  Rh  Rh225  1  0.60273512  0.39852896  0.41000926  1
  Rh  Rh226  1  0.79549758  0.19743133  0.60250550  1
  Rh  Rh227  1  0.79638785  0.80151457  0.40723703  1
  Rh  Rh228  1  0.19258705  -0.00884507  0.19968534  1
  Rh  Rh229  1  0.78678933  0.58129715  0.19155751  1
  Rh  Rh230  1  0.01084543  0.00308960  0.00438987  1
  Rh  Rh231  1  0.19907556  0.80193830  0.20324246  1
  Rh  Rh232  1  0.59322114  0.59320909  0.60016334  1
  Rh  Rh233  1  0.79981857  0.60233729  0.41319441  1
  Rh  Rh234  1  0.79741104  0.00052964  0.58948387  1
  Rh  Rh235  1  0.40011344  0.59808794  0.40440828  1
  Rh  Rh236  1  0.19839132  0.00117565  0.80278446  1
  Rh  Rh237  1  -0.00898953  0.60298879  0.58994875  1
  Rh  Rh238  1  0.79222387  0.79548887  0.60221938  1
  Rh  Rh239  1  0.80884141  0.40149956  0.00725484  1
  Rh  Rh240  1  0.39719555  0.78821232  0.19133862  1
  Rh  Rh241  1  0.60104596  0.00412271  0.60170979  1
  Rh  Rh242  1  0.40117576  0.19605962  0.60334541  1
  Rh  Rh243  1  0.80144275  0.80840410  0.78913828  1
  Rh  Rh244  1  0.18491885  0.18830669  -0.00601453  1
  Rh  Rh245  1  0.39041473  0.79483964  0.79726296  1
  Rh  Rh246  1  -0.00751054  0.20435460  0.78973776  1
  Rh  Rh247  1  0.20514147  0.59645006  0.59052695  1
  Rh  Rh248  1  -0.00015039  0.19188434  -0.00394574  1
  Rh  Rh249  1  0.20287800  0.59572894  0.20668789  1
