# generated using pymatgen
data_ZrScNbPdRh
_symmetry_space_group_name_H-M   'P 1'
_cell_length_a   16.56638221
_cell_length_b   16.56083294
_cell_length_c   16.56081331
_cell_angle_alpha   89.97576758
_cell_angle_beta   89.99215001
_cell_angle_gamma   89.98285965
_symmetry_Int_Tables_number   1
_chemical_formula_structural   ZrScNbPdRh
_chemical_formula_sum   'Zr50 Sc50 Nb50 Pd50 Rh50'
_cell_volume   4543.50962142
_cell_formula_units_Z   50
loop_
 _symmetry_equiv_pos_site_id
 _symmetry_equiv_pos_as_xyz
  1  'x, y, z'
loop_
 _atom_site_type_symbol
 _atom_site_label
 _atom_site_symmetry_multiplicity
 _atom_site_fract_x
 _atom_site_fract_y
 _atom_site_fract_z
 _atom_site_occupancy
  Zr  Zr0  1  0.09649400  0.50632874  0.50034143  1
  Zr  Zr1  1  0.90347797  0.69489300  0.10013367  1
  Zr  Zr2  1  0.09844251  0.69238560  0.89652641  1
  Zr  Zr3  1  0.29770037  0.70010441  0.89529628  1
  Zr  Zr4  1  0.89733065  0.49791808  0.69311893  1
  Zr  Zr5  1  0.29989739  0.29807780  0.90082733  1
  Zr  Zr6  1  0.69794368  0.30678106  0.49550718  1
  Zr  Zr7  1  0.50636728  0.30579648  0.48982289  1
  Zr  Zr8  1  0.29774868  0.69237106  0.10369756  1
  Zr  Zr9  1  0.70369550  0.70004178  0.30251667  1
  Zr  Zr10  1  0.10272377  0.10182554  0.89961728  1
  Zr  Zr11  1  0.70886135  0.89362120  0.49526964  1
  Zr  Zr12  1  0.50323625  0.69594403  0.30361545  1
  Zr  Zr13  1  0.09542608  0.29929049  0.10218811  1
  Zr  Zr14  1  0.09420792  0.90123074  0.90631823  1
  Zr  Zr15  1  0.50687529  0.69537897  0.49638296  1
  Zr  Zr16  1  0.30195768  0.30088793  0.29943426  1
  Zr  Zr17  1  0.68800411  0.49439770  0.90008663  1
  Zr  Zr18  1  0.91086662  0.09667167  0.49303815  1
  Zr  Zr19  1  0.10436796  0.89713684  0.69273293  1
  Zr  Zr20  1  0.71010757  0.89471583  0.70386649  1
  Zr  Zr21  1  0.09961167  0.50216297  0.09775124  1
  Zr  Zr22  1  0.69871540  0.30913062  0.09973507  1
  Zr  Zr23  1  0.89227328  0.91444300  0.30223699  1
  Zr  Zr24  1  0.90701486  0.70187843  0.90763197  1
  Zr  Zr25  1  0.49777851  0.68472678  0.89957861  1
  Zr  Zr26  1  0.29862333  0.89776929  0.50181755  1
  Zr  Zr27  1  0.49782151  0.90226781  0.29767450  1
  Zr  Zr28  1  0.89633716  0.09988105  0.70627314  1
  Zr  Zr29  1  0.49944507  0.69962457  0.69730757  1
  Zr  Zr30  1  0.29658842  0.90018629  0.69705059  1
  Zr  Zr31  1  0.69683893  0.29728955  0.69077323  1
  Zr  Zr32  1  0.70068932  0.69591731  0.11504309  1
  Zr  Zr33  1  0.30288150  0.49485290  0.10234598  1
  Zr  Zr34  1  0.50004997  0.30991988  0.89210445  1
  Zr  Zr35  1  0.09808987  0.29156081  0.50665122  1
  Zr  Zr36  1  0.89230677  0.90578706  0.89395504  1
  Zr  Zr37  1  0.70191578  0.09613797  0.90002565  1
  Zr  Zr38  1  0.49948896  0.90902457  0.90706838  1
  Zr  Zr39  1  0.09694206  0.51686326  0.70519515  1
  Zr  Zr40  1  0.88880825  0.69284448  0.49083372  1
  Zr  Zr41  1  0.30899398  0.49911724  0.90737388  1
  Zr  Zr42  1  0.10229973  0.90384756  0.30023123  1
  Zr  Zr43  1  0.68993831  0.10599304  0.09771901  1
  Zr  Zr44  1  0.70148755  0.69557802  0.89670831  1
  Zr  Zr45  1  0.50420980  0.69903659  0.10624396  1
  Zr  Zr46  1  0.09928726  0.10015332  0.30826271  1
  Zr  Zr47  1  0.89224317  0.68779668  0.29397425  1
  Zr  Zr48  1  0.29220095  0.70666513  0.69894909  1
  Zr  Zr49  1  0.90102639  0.10316947  0.90068519  1
  Sc  Sc50  1  0.50135385  0.10713362  0.91033750  1
  Sc  Sc51  1  0.29984228  0.50952591  0.49963367  1
  Sc  Sc52  1  0.30639455  0.90545635  0.10366039  1
  Sc  Sc53  1  0.70389742  0.49741446  0.29812166  1
  Sc  Sc54  1  0.90348754  0.49430905  0.11475519  1
  Sc  Sc55  1  0.29746702  0.30658125  0.10789690  1
  Sc  Sc56  1  0.90545724  0.89993952  0.50021680  1
  Sc  Sc57  1  0.89553909  0.30227797  0.70375313  1
  Sc  Sc58  1  0.69917442  0.49786083  0.49827429  1
  Sc  Sc59  1  0.29831761  0.90630697  0.89178057  1
  Sc  Sc60  1  0.09028051  0.49981600  0.29702627  1
  Sc  Sc61  1  0.90262182  0.90583488  0.09774794  1
  Sc  Sc62  1  0.09453730  0.69419280  0.09643915  1
  Sc  Sc63  1  0.49974624  0.09541964  0.09853400  1
  Sc  Sc64  1  0.30497048  0.09657254  0.90247360  1
  Sc  Sc65  1  0.30538147  0.29787058  0.70460599  1
  Sc  Sc66  1  0.30299902  0.70102860  0.30514937  1
  Sc  Sc67  1  0.89633186  0.30653860  0.49836970  1
  Sc  Sc68  1  0.09804753  0.28928622  0.70946881  1
  Sc  Sc69  1  0.10377936  0.29620855  0.29970888  1
  Sc  Sc70  1  0.90451597  0.29886530  0.89752670  1
  Sc  Sc71  1  0.70307187  0.09854310  0.28776307  1
  Sc  Sc72  1  0.30050611  0.50339335  0.69852584  1
  Sc  Sc73  1  0.30338482  0.89924204  0.30962692  1
  Sc  Sc74  1  0.50726096  0.29871125  0.10455247  1
  Sc  Sc75  1  0.10292447  0.09527895  0.50363976  1
  Sc  Sc76  1  0.89196706  0.09893880  0.10157252  1
  Sc  Sc77  1  0.48866686  0.89845079  0.49978897  1
  Sc  Sc78  1  0.70301925  0.49231142  0.69487487  1
  Sc  Sc79  1  0.29426761  0.09739123  0.70651187  1
  Sc  Sc80  1  0.90714946  0.49806638  0.88974878  1
  Sc  Sc81  1  0.50103695  0.10737949  0.70292442  1
  Sc  Sc82  1  0.69835993  0.11504667  0.49777675  1
  Sc  Sc83  1  0.49425996  0.10970543  0.49080199  1
  Sc  Sc84  1  0.10076542  0.09842081  0.69930178  1
  Sc  Sc85  1  0.50165343  0.90607314  0.10614296  1
  Sc  Sc86  1  0.89780799  0.30291765  0.09575245  1
  Sc  Sc87  1  0.89695108  0.69389978  0.69523498  1
  Sc  Sc88  1  0.69526377  0.30089914  0.90391878  1
  Sc  Sc89  1  0.70458647  0.69451224  0.68606205  1
  Sc  Sc90  1  0.30068092  0.49794398  0.30045691  1
  Sc  Sc91  1  0.10591934  0.69893904  0.50703791  1
  Sc  Sc92  1  0.10031459  0.90405792  0.50314209  1
  Sc  Sc93  1  0.68954652  0.30112904  0.29384880  1
  Sc  Sc94  1  0.49864284  0.30683441  0.69569782  1
  Sc  Sc95  1  0.30919645  0.29191588  0.50602799  1
  Sc  Sc96  1  0.11117362  0.69418027  0.29014396  1
  Sc  Sc97  1  0.29987831  0.09352723  0.49759561  1
  Sc  Sc98  1  0.08988366  0.29871510  0.90210874  1
  Sc  Sc99  1  0.49095409  0.89768652  0.69481666  1
  Nb  Nb100  1  0.09827537  0.90401833  0.10165268  1
  Nb  Nb101  1  0.49621837  0.29805825  0.30462206  1
  Nb  Nb102  1  0.69910672  0.89725525  0.90155053  1
  Nb  Nb103  1  0.50094726  0.10515332  0.30322402  1
  Nb  Nb104  1  0.09993443  0.50092047  0.89505435  1
  Nb  Nb105  1  0.69951071  0.69854482  0.49358201  1
  Nb  Nb106  1  0.30781012  0.70007862  0.49818883  1
  Nb  Nb107  1  0.90333727  0.90272328  0.69863822  1
  Nb  Nb108  1  0.69871168  0.90051671  0.29597170  1
  Nb  Nb109  1  0.90002981  0.49722765  0.49018951  1
  Nb  Nb110  1  0.49484703  0.49328934  0.31057250  1
  Nb  Nb111  1  0.90230238  0.10039110  0.29760101  1
  Nb  Nb112  1  0.10488646  0.70307644  0.70579585  1
  Nb  Nb113  1  0.49965332  0.49708167  0.89622934  1
  Nb  Nb114  1  0.29815431  0.10556230  0.10343283  1
  Nb  Nb115  1  0.50164882  0.49950483  0.09448203  1
  Nb  Nb116  1  0.50021352  0.49549825  0.70346856  1
  Nb  Nb117  1  0.09920048  0.09863954  0.10363373  1
  Nb  Nb118  1  0.69956846  0.49668006  0.09693927  1
  Nb  Nb119  1  0.89716431  0.30894129  0.29416525  1
  Nb  Nb120  1  0.69991618  0.10020544  0.69698828  1
  Nb  Nb121  1  0.69357355  0.90297530  0.10636340  1
  Nb  Nb122  1  0.29876501  0.10190807  0.30082237  1
  Nb  Nb123  1  0.50229302  0.50123895  0.49661934  1
  Nb  Nb124  1  0.89981944  0.49237972  0.30750531  1
  Nb  Nb125  1  0.60607610  0.80269810  0.39793328  1
  Nb  Nb126  1  0.40061765  0.79629808  -0.00059155  1
  Nb  Nb127  1  0.20045829  0.80230737  0.00194481  1
  Nb  Nb128  1  0.79832026  0.00328793  0.60313509  1
  Nb  Nb129  1  0.40762560  0.59060546  0.20113582  1
  Nb  Nb130  1  0.60225480  0.80013404  -0.00041326  1
  Nb  Nb131  1  0.40800577  0.60107678  0.59753314  1
  Nb  Nb132  1  0.00471284  0.40522221  0.59942693  1
  Nb  Nb133  1  0.60663712  -0.00348968  0.79532921  1
  Nb  Nb134  1  -0.00389683  0.19596782  0.20439447  1
  Nb  Nb135  1  0.60700227  0.00127096  0.59903814  1
  Nb  Nb136  1  0.19634225  0.40513715  0.80236625  1
  Nb  Nb137  1  0.19677793  0.39812333  0.41036483  1
  Nb  Nb138  1  0.19940507  0.00793205  0.19907270  1
  Nb  Nb139  1  0.60109601  0.80188034  0.80426358  1
  Nb  Nb140  1  0.00021910  0.80066151  0.79189236  1
  Nb  Nb141  1  0.80761086  0.20272554  0.38775687  1
  Nb  Nb142  1  0.60247206  -0.00251557  0.39943486  1
  Nb  Nb143  1  -0.00200911  0.79683379  0.39023491  1
  Nb  Nb144  1  0.79620612  0.59608000  0.00454805  1
  Nb  Nb145  1  0.00127018  0.80513981  0.20287846  1
  Nb  Nb146  1  0.39980966  0.19798975  0.20792146  1
  Nb  Nb147  1  0.19344530  0.40139356  0.60260771  1
  Nb  Nb148  1  0.19848539  0.19666210  0.00787596  1
  Nb  Nb149  1  0.79108293  0.79961550  0.00336324  1
  Pd  Pd150  1  0.40732407  0.80318371  0.80688669  1
  Pd  Pd151  1  0.59318256  0.40640447  0.20434777  1
  Pd  Pd152  1  0.59541769  0.58408139  0.20912226  1
  Pd  Pd153  1  0.79450833  -0.00390566  0.00749357  1
  Pd  Pd154  1  0.19894613  0.60184973  -0.00098988  1
  Pd  Pd155  1  0.80338672  0.20679480  0.19975279  1
  Pd  Pd156  1  0.39535060  0.40821090  0.59487165  1
  Pd  Pd157  1  0.80882788  0.19784102  0.59012534  1
  Pd  Pd158  1  0.19319762  0.79761027  0.40534132  1
  Pd  Pd159  1  0.40639797  0.00994624  0.60015741  1
  Pd  Pd160  1  0.80165913  0.59521529  0.80348941  1
  Pd  Pd161  1  0.20130291  0.59668675  0.39569108  1
  Pd  Pd162  1  0.00761813  -0.00351295  0.79493293  1
  Pd  Pd163  1  0.40134134  0.19415258  0.60378343  1
  Pd  Pd164  1  -0.00553286  0.40495836  -0.00036961  1
  Pd  Pd165  1  0.39554582  0.59552079  0.79106115  1
  Pd  Pd166  1  0.59914231  0.80834750  0.59765309  1
  Pd  Pd167  1  0.80916154  0.81010866  0.19605679  1
  Pd  Pd168  1  0.00501898  0.60984251  0.39310322  1
  Pd  Pd169  1  0.20800931  -0.00031515  0.00586933  1
  Pd  Pd170  1  0.80881135  0.40835489  -0.00541505  1
  Pd  Pd171  1  0.38881564  0.40054154  0.40937971  1
  Pd  Pd172  1  0.60375235  0.60084325  0.00315095  1
  Pd  Pd173  1  0.79374936  0.39509700  0.80377389  1
  Pd  Pd174  1  0.40966674  0.00681978  0.79843004  1
  Pd  Pd175  1  0.20633727  0.20298225  0.40880316  1
  Pd  Pd176  1  0.19854510  0.80779276  0.19254537  1
  Pd  Pd177  1  0.39659877  0.20736081  0.01167885  1
  Pd  Pd178  1  0.60091404  0.59004859  0.60158805  1
  Pd  Pd179  1  -0.00432072  0.79152115  0.59643973  1
  Pd  Pd180  1  0.79889863  0.20556921  -0.00116659  1
  Pd  Pd181  1  0.19231164  0.40538521  0.20961008  1
  Pd  Pd182  1  0.40074297  0.19648991  0.80039572  1
  Pd  Pd183  1  0.60013855  0.19802161  0.80182189  1
  Pd  Pd184  1  -0.00570943  0.60476729  0.59760894  1
  Pd  Pd185  1  0.39544625  0.00824938  0.20431189  1
  Pd  Pd186  1  0.80972195  0.80113483  0.59643793  1
  Pd  Pd187  1  0.39672073  0.79373958  0.19852935  1
  Pd  Pd188  1  0.19345512  0.39284702  -0.00705230  1
  Pd  Pd189  1  0.80484408  0.79153146  0.80132583  1
  Pd  Pd190  1  0.79449983  0.20834344  0.80436177  1
  Pd  Pd191  1  0.78996463  0.01391041  0.40566486  1
  Pd  Pd192  1  -0.00573725  0.00752965  0.00318151  1
  Pd  Pd193  1  -0.00660804  0.21040516  0.39305734  1
  Pd  Pd194  1  0.59120328  0.19724887  0.59503491  1
  Pd  Pd195  1  0.60645642  0.59944188  0.78633901  1
  Pd  Pd196  1  0.00721313  0.39218256  0.40298834  1
  Pd  Pd197  1  0.40736593  0.39067469  0.00710321  1
  Pd  Pd198  1  -0.00881976  0.20441816  0.60657736  1
  Pd  Pd199  1  0.20711760  0.20040714  0.60513929  1
  Rh  Rh200  1  0.40666913  0.79748256  0.40246529  1
  Rh  Rh201  1  0.20200737  0.00234707  0.60068834  1
  Rh  Rh202  1  0.79754030  0.59332663  0.58929464  1
  Rh  Rh203  1  0.00060889  0.60212069  0.20463157  1
  Rh  Rh204  1  0.20809944  0.59102517  0.20205814  1
  Rh  Rh205  1  0.18848477  0.80828303  0.80952480  1
  Rh  Rh206  1  0.20221645  0.79685624  0.59241822  1
  Rh  Rh207  1  0.20081604  0.20407321  0.81146818  1
  Rh  Rh208  1  0.41238004  0.40043085  0.20006860  1
  Rh  Rh209  1  -0.00550143  0.00342529  0.60412921  1
  Rh  Rh210  1  0.00124232  0.80579381  0.00361916  1
  Rh  Rh211  1  0.79455502  0.00091856  0.19324871  1
  Rh  Rh212  1  0.59906423  0.00438396  0.20559506  1
  Rh  Rh213  1  0.80327321  0.80028257  0.39378969  1
  Rh  Rh214  1  0.60258503  0.40432317  0.39513337  1
  Rh  Rh215  1  0.60419478  -0.00196592  -0.00161701  1
  Rh  Rh216  1  0.40406169  0.00266473  0.39974486  1
  Rh  Rh217  1  0.39682349  0.79113458  0.59548371  1
  Rh  Rh218  1  0.00238744  0.39357052  0.20214445  1
  Rh  Rh219  1  0.59875105  0.80693886  0.20254584  1
  Rh  Rh220  1  0.60279235  0.39860954  0.79157879  1
  Rh  Rh221  1  0.00232591  0.19441999  0.00790916  1
  Rh  Rh222  1  0.20943718  0.59173745  0.80400831  1
  Rh  Rh223  1  0.19648640  -0.00111690  0.79831868  1
  Rh  Rh224  1  0.60650758  0.59792573  0.39709135  1
  Rh  Rh225  1  0.61021544  0.19537864  0.38989382  1
  Rh  Rh226  1  0.00482306  -0.00834162  0.40251962  1
  Rh  Rh227  1  -0.00321794  0.19642078  0.80016176  1
  Rh  Rh228  1  0.40319032  0.60108075  0.00921444  1
  Rh  Rh229  1  0.39443171  0.20015461  0.39539993  1
  Rh  Rh230  1  0.79495774  0.00408220  0.79518775  1
  Rh  Rh231  1  0.00432097  0.00253447  0.20032816  1
  Rh  Rh232  1  0.39317616  0.40379636  0.79718845  1
  Rh  Rh233  1  0.80720537  0.40294374  0.59322322  1
  Rh  Rh234  1  0.19883348  0.19481246  0.19597473  1
  Rh  Rh235  1  0.80080094  0.58483430  0.19677362  1
  Rh  Rh236  1  0.59245245  0.39872070  -0.00051397  1
  Rh  Rh237  1  0.20312765  -0.00122682  0.39691947  1
  Rh  Rh238  1  -0.00820598  0.60864763  0.79790038  1
  Rh  Rh239  1  0.79736694  0.40032538  0.20086885  1
  Rh  Rh240  1  0.79578230  0.39522459  0.39474651  1
  Rh  Rh241  1  -0.00689773  0.58490351  0.00144160  1
  Rh  Rh242  1  0.59848182  0.20529344  -0.00061816  1
  Rh  Rh243  1  0.59370550  0.40284749  0.59931992  1
  Rh  Rh244  1  0.20967230  0.60339471  0.60048622  1
  Rh  Rh245  1  0.59054226  0.19735040  0.20148269  1
  Rh  Rh246  1  0.39885960  0.59858189  0.39899724  1
  Rh  Rh247  1  0.39581100  -0.00253575  0.00306255  1
  Rh  Rh248  1  0.00906875  0.39965932  0.79044890  1
  Rh  Rh249  1  0.79299241  0.58856260  0.40106866  1
