# generated using pymatgen
data_ZrScNbPdRh
_symmetry_space_group_name_H-M   'P 1'
_cell_length_a   16.55659093
_cell_length_b   16.55645174
_cell_length_c   16.55181115
_cell_angle_alpha   90.05954009
_cell_angle_beta   90.03079889
_cell_angle_gamma   90.00463710
_symmetry_Int_Tables_number   1
_chemical_formula_structural   ZrScNbPdRh
_chemical_formula_sum   'Zr50 Sc50 Nb50 Pd50 Rh50'
_cell_volume   4537.15284952
_cell_formula_units_Z   50
loop_
 _symmetry_equiv_pos_site_id
 _symmetry_equiv_pos_as_xyz
  1  'x, y, z'
loop_
 _atom_site_type_symbol
 _atom_site_label
 _atom_site_symmetry_multiplicity
 _atom_site_fract_x
 _atom_site_fract_y
 _atom_site_fract_z
 _atom_site_occupancy
  Zr  Zr0  1  0.29348036  0.50244270  0.09855264  1
  Zr  Zr1  1  0.30842058  0.30281194  0.69822145  1
  Zr  Zr2  1  0.10325811  0.49673596  0.30978150  1
  Zr  Zr3  1  0.49997869  0.70246610  0.50481148  1
  Zr  Zr4  1  0.30252986  0.10278087  0.49854309  1
  Zr  Zr5  1  0.49916830  0.49427046  0.70166322  1
  Zr  Zr6  1  0.30261369  0.09758233  0.10633872  1
  Zr  Zr7  1  0.50655016  0.90429723  0.10309756  1
  Zr  Zr8  1  0.29993670  0.09699480  0.68556179  1
  Zr  Zr9  1  0.29844800  0.29405075  0.30528268  1
  Zr  Zr10  1  0.90120934  0.49684689  0.50159882  1
  Zr  Zr11  1  0.10413601  0.30790577  0.49454709  1
  Zr  Zr12  1  0.10668278  0.89328970  0.29511869  1
  Zr  Zr13  1  0.70922535  0.29799605  0.10052982  1
  Zr  Zr14  1  0.69726034  0.49756365  0.89358953  1
  Zr  Zr15  1  0.30030145  0.90095820  0.29957214  1
  Zr  Zr16  1  0.70098085  0.30202301  0.50338076  1
  Zr  Zr17  1  0.89500813  0.89122913  0.09364345  1
  Zr  Zr18  1  0.89152739  0.69974677  0.29916401  1
  Zr  Zr19  1  0.89909875  0.29849038  0.10424531  1
  Zr  Zr20  1  0.09240306  0.30246448  0.29936170  1
  Zr  Zr21  1  0.69693988  0.70629896  0.68701683  1
  Zr  Zr22  1  0.70446776  0.29785920  0.89987243  1
  Zr  Zr23  1  0.70636953  0.49874847  0.50086868  1
  Zr  Zr24  1  0.28937725  0.70307366  0.89794062  1
  Zr  Zr25  1  0.49763950  0.89957272  0.29928153  1
  Zr  Zr26  1  0.09956079  0.10949006  0.29627862  1
  Zr  Zr27  1  0.09308996  0.10462211  0.89654967  1
  Zr  Zr28  1  0.69808739  0.30479175  0.70057430  1
  Zr  Zr29  1  0.10274986  0.29539759  0.89678270  1
  Zr  Zr30  1  0.50449245  0.70584574  0.10153702  1
  Zr  Zr31  1  0.89032380  0.69708770  0.09500725  1
  Zr  Zr32  1  0.28629152  0.90013763  0.10353058  1
  Zr  Zr33  1  0.90337986  0.30116853  0.29239217  1
  Zr  Zr34  1  0.29310375  0.50393523  0.49658904  1
  Zr  Zr35  1  0.69421985  0.09463135  0.88895542  1
  Zr  Zr36  1  0.49825558  0.29391015  0.09877310  1
  Zr  Zr37  1  0.49891471  0.30159250  0.29986761  1
  Zr  Zr38  1  0.70756626  0.49962923  0.31055615  1
  Zr  Zr39  1  0.90098056  0.89509917  0.29998430  1
  Zr  Zr40  1  0.30511016  0.30381623  0.09528488  1
  Zr  Zr41  1  0.90277485  0.50130954  0.69359317  1
  Zr  Zr42  1  0.70567419  0.10720978  0.69832855  1
  Zr  Zr43  1  0.69633036  0.88902573  0.49906428  1
  Zr  Zr44  1  0.29737867  0.69668286  0.29858026  1
  Zr  Zr45  1  0.09908245  0.10844382  0.50296036  1
  Zr  Zr46  1  0.90403769  0.09650633  0.89161102  1
  Zr  Zr47  1  0.90361872  0.10525186  0.69397787  1
  Zr  Zr48  1  0.69918875  0.70455881  0.10690380  1
  Zr  Zr49  1  0.89895464  0.90072073  0.90497211  1
  Sc  Sc50  1  0.70364060  0.08587290  0.50584449  1
  Sc  Sc51  1  0.90380697  0.50548424  0.89476742  1
  Sc  Sc52  1  0.09461865  0.50800990  0.70417317  1
  Sc  Sc53  1  0.48038957  0.49413992  0.11046959  1
  Sc  Sc54  1  0.10518858  0.69702950  0.50403621  1
  Sc  Sc55  1  0.90246358  0.30272613  0.69764861  1
  Sc  Sc56  1  0.10645225  0.10074550  0.09379173  1
  Sc  Sc57  1  0.29661831  0.89055149  0.90328734  1
  Sc  Sc58  1  0.09835941  0.29854891  0.10153547  1
  Sc  Sc59  1  0.10178461  0.89499015  0.69756987  1
  Sc  Sc60  1  0.09925940  0.10667421  0.70045099  1
  Sc  Sc61  1  0.89855803  0.49691010  0.10518921  1
  Sc  Sc62  1  0.51317243  0.09567276  0.69933320  1
  Sc  Sc63  1  0.90683479  0.30035216  0.50876586  1
  Sc  Sc64  1  0.09587673  0.69729672  0.89640486  1
  Sc  Sc65  1  0.49326331  0.69949115  0.30661402  1
  Sc  Sc66  1  0.91093030  0.89893679  0.70483814  1
  Sc  Sc67  1  0.49321300  0.69926252  0.70262059  1
  Sc  Sc68  1  0.90196375  0.10805934  0.29466475  1
  Sc  Sc69  1  0.29473746  0.30779118  0.90089729  1
  Sc  Sc70  1  0.10202413  0.50170831  0.09424642  1
  Sc  Sc71  1  0.49238714  0.08611207  0.29944633  1
  Sc  Sc72  1  0.90025427  0.49341311  0.30400252  1
  Sc  Sc73  1  0.29741316  0.70166055  0.70457024  1
  Sc  Sc74  1  0.69542377  0.91124400  0.69639602  1
  Sc  Sc75  1  0.89938707  0.70191216  0.50192596  1
  Sc  Sc76  1  0.30263979  0.90395064  0.50870335  1
  Sc  Sc77  1  0.09417780  0.89521295  0.90165180  1
  Sc  Sc78  1  0.49942751  0.70473564  0.90444498  1
  Sc  Sc79  1  0.69238155  0.68952649  0.91882353  1
  Sc  Sc80  1  0.49590544  0.89815209  0.49413271  1
  Sc  Sc81  1  0.71112141  0.50982278  0.09728242  1
  Sc  Sc82  1  0.10401053  0.50414115  0.89699095  1
  Sc  Sc83  1  0.91171855  0.70093491  0.69401676  1
  Sc  Sc84  1  0.50344668  0.90368888  0.90615790  1
  Sc  Sc85  1  0.10362504  0.70107924  0.09168367  1
  Sc  Sc86  1  0.69996627  0.09912403  0.09220524  1
  Sc  Sc87  1  0.10319082  0.70454886  0.30915190  1
  Sc  Sc88  1  0.29984512  0.70282411  0.49956684  1
  Sc  Sc89  1  0.29296335  0.10742518  0.91195229  1
  Sc  Sc90  1  0.10588387  0.89050414  0.50206643  1
  Sc  Sc91  1  0.09623424  0.50346676  0.50043255  1
  Sc  Sc92  1  0.50158641  0.50534371  0.89406853  1
  Sc  Sc93  1  0.49900174  0.89853714  0.69509531  1
  Sc  Sc94  1  0.49476716  0.09455106  0.49923253  1
  Sc  Sc95  1  0.49922675  0.29150955  0.90777398  1
  Sc  Sc96  1  0.71129155  0.30275919  0.29786740  1
  Sc  Sc97  1  0.89203256  0.89403646  0.49605422  1
  Sc  Sc98  1  0.69029716  0.90095861  0.30481348  1
  Sc  Sc99  1  0.90106987  0.10403854  0.09247538  1
  Nb  Nb100  1  0.09742316  0.89732114  0.10227906  1
  Nb  Nb101  1  0.69980097  0.50083760  0.70397930  1
  Nb  Nb102  1  0.70105673  0.69950025  0.49554338  1
  Nb  Nb103  1  0.30740745  0.50176784  0.29468112  1
  Nb  Nb104  1  0.69987094  0.89782071  0.09554706  1
  Nb  Nb105  1  0.49788963  0.10168698  0.90391907  1
  Nb  Nb106  1  0.29497133  0.50188780  0.89764496  1
  Nb  Nb107  1  0.70010522  0.69254063  0.30285641  1
  Nb  Nb108  1  0.09951303  0.70187245  0.70037634  1
  Nb  Nb109  1  0.70567193  0.90329436  0.90224443  1
  Nb  Nb110  1  0.49688521  0.29657943  0.68874648  1
  Nb  Nb111  1  0.49898034  0.10441221  0.08744402  1
  Nb  Nb112  1  0.90223887  0.10166770  0.49961817  1
  Nb  Nb113  1  0.49656598  0.49967022  0.30199394  1
  Nb  Nb114  1  0.50531065  0.49764344  0.49555937  1
  Nb  Nb115  1  0.69850257  0.09976838  0.30265552  1
  Nb  Nb116  1  0.89594086  0.70210029  0.90094211  1
  Nb  Nb117  1  0.30234969  0.50067791  0.71181285  1
  Nb  Nb118  1  0.90519690  0.29625299  0.90529528  1
  Nb  Nb119  1  0.29787165  0.90750905  0.70567081  1
  Nb  Nb120  1  0.49563724  0.30228303  0.50597544  1
  Nb  Nb121  1  0.30835199  0.30000458  0.50342840  1
  Nb  Nb122  1  0.29905132  0.69789464  0.09852025  1
  Nb  Nb123  1  0.29761143  0.09185469  0.29844385  1
  Nb  Nb124  1  0.10020035  0.30292359  0.69792690  1
  Nb  Nb125  1  0.20712762  0.40087940  0.60631092  1
  Nb  Nb126  1  -0.00083644  -0.00638661  0.19909214  1
  Nb  Nb127  1  0.00022744  0.00272265  0.59015406  1
  Nb  Nb128  1  -0.00294330  0.39435986  -0.00431500  1
  Nb  Nb129  1  0.39000710  0.60205602  0.00052045  1
  Nb  Nb130  1  0.19719630  0.00467765  0.39793262  1
  Nb  Nb131  1  0.61015337  0.80294895  0.80415613  1
  Nb  Nb132  1  0.60321766  0.19744748  0.39739923  1
  Nb  Nb133  1  0.20466384  -0.00031265  0.79764187  1
  Nb  Nb134  1  0.60115243  0.40259262  0.19925203  1
  Nb  Nb135  1  0.60171194  0.39895534  0.00737887  1
  Nb  Nb136  1  0.40235758  0.40199148  0.40512491  1
  Nb  Nb137  1  0.79483336  0.79520674  0.80586814  1
  Nb  Nb138  1  0.40344423  0.19473740  0.79658666  1
  Nb  Nb139  1  0.79647987  0.60680105  0.79516024  1
  Nb  Nb140  1  0.79907499  0.19565194  0.40410028  1
  Nb  Nb141  1  0.59953665  0.19751769  0.20195299  1
  Nb  Nb142  1  0.60207977  0.59392539  0.59579287  1
  Nb  Nb143  1  0.59759517  0.59396582  0.20902356  1
  Nb  Nb144  1  -0.00105731  0.60282639  0.20256353  1
  Nb  Nb145  1  0.39469647  0.80003783  0.19582099  1
  Nb  Nb146  1  0.79900497  -0.00295618  0.19785843  1
  Nb  Nb147  1  0.20578124  0.40276957  0.20519338  1
  Nb  Nb148  1  0.39656680  0.00634867  0.80343923  1
  Nb  Nb149  1  0.00263526  0.00166631  0.39899427  1
  Pd  Pd150  1  0.79933421  0.18941185  -0.00874406  1
  Pd  Pd151  1  0.60444556  0.61271487  0.79178596  1
  Pd  Pd152  1  0.20214480  0.19793951  0.40198159  1
  Pd  Pd153  1  0.78728565  0.80845036  0.20806461  1
  Pd  Pd154  1  0.18828602  0.59901458  0.20309489  1
  Pd  Pd155  1  0.39472305  0.41383679  0.59487479  1
  Pd  Pd156  1  0.00074275  0.80111919  0.40752524  1
  Pd  Pd157  1  0.39423202  -0.00361315  -0.00203702  1
  Pd  Pd158  1  0.59876562  0.19369787  0.58939439  1
  Pd  Pd159  1  0.39506368  0.80235432  0.60446039  1
  Pd  Pd160  1  0.39806550  0.79957094  0.00522428  1
  Pd  Pd161  1  0.80762615  0.20452643  0.79886954  1
  Pd  Pd162  1  0.19996929  0.59470337  0.60903102  1
  Pd  Pd163  1  0.59834811  0.79465411  0.39525071  1
  Pd  Pd164  1  -0.00175868  0.79637609  0.80263041  1
  Pd  Pd165  1  0.59437940  -0.00440886  0.59301684  1
  Pd  Pd166  1  0.59820191  0.60357275  0.40197573  1
  Pd  Pd167  1  0.39745185  0.60382638  0.80802433  1
  Pd  Pd168  1  0.59830660  0.39294975  0.39639313  1
  Pd  Pd169  1  0.00320987  0.79175313  0.19261424  1
  Pd  Pd170  1  0.40298247  0.59468742  0.59984802  1
  Pd  Pd171  1  0.19598978  0.40463047  0.79401975  1
  Pd  Pd172  1  0.80711138  0.80785567  0.60941394  1
  Pd  Pd173  1  0.60476742  0.00908902  0.19577375  1
  Pd  Pd174  1  -0.00495985  0.59429209  0.00448787  1
  Pd  Pd175  1  0.40867504  0.39071944  0.80927880  1
  Pd  Pd176  1  0.20610302  0.79821676  0.60504027  1
  Pd  Pd177  1  0.58933706  0.38831400  0.80702866  1
  Pd  Pd178  1  0.20991324  0.19492078  0.79562568  1
  Pd  Pd179  1  0.58500624  0.58389991  0.01645261  1
  Pd  Pd180  1  -0.00100492  0.39935566  0.80462775  1
  Pd  Pd181  1  0.80638815  0.00464783  0.39260750  1
  Pd  Pd182  1  -0.00361152  0.60471952  0.39763449  1
  Pd  Pd183  1  0.19502721  -0.00504599  -0.00957105  1
  Pd  Pd184  1  0.79901895  0.60200989  0.60165891  1
  Pd  Pd185  1  0.40784112  0.81022662  0.80204274  1
  Pd  Pd186  1  0.40575358  0.40916404  -0.01190543  1
  Pd  Pd187  1  0.20201088  0.20688535  0.19462735  1
  Pd  Pd188  1  0.19924091  0.21084024  0.60054696  1
  Pd  Pd189  1  0.60134423  0.40510584  0.60189753  1
  Pd  Pd190  1  0.39836414  0.59754383  0.40565556  1
  Pd  Pd191  1  0.80434288  0.40792453  -0.00418899  1
  Pd  Pd192  1  0.60408620  0.00139484  -0.00256648  1
  Pd  Pd193  1  0.80444924  -0.00683195  0.79109884  1
  Pd  Pd194  1  0.80994210  0.40388599  0.79824891  1
  Pd  Pd195  1  0.81026443  -0.00887264  0.60437297  1
  Pd  Pd196  1  0.40525814  0.19056506  0.20394908  1
  Pd  Pd197  1  0.40790293  0.19898950  0.39900788  1
  Pd  Pd198  1  0.59093453  0.20720946  0.79877802  1
  Pd  Pd199  1  0.00231728  -0.00038817  0.00699746  1
  Rh  Rh200  1  -0.01082184  0.20365539  0.40087928  1
  Rh  Rh201  1  0.79901159  0.00377318  0.00373880  1
  Rh  Rh202  1  0.19733898  0.60312412  0.79577716  1
  Rh  Rh203  1  0.00337153  0.20262771  0.60159873  1
  Rh  Rh204  1  0.40661150  0.61184180  0.19472940  1
  Rh  Rh205  1  0.20187900  0.79005933  0.19594991  1
  Rh  Rh206  1  0.39476573  0.80235694  0.39649544  1
  Rh  Rh207  1  0.59849536  0.00251471  0.40565989  1
  Rh  Rh208  1  0.79914853  0.39850657  0.60553420  1
  Rh  Rh209  1  0.20235329  0.60221036  0.39727685  1
  Rh  Rh210  1  0.60717920  0.20205145  0.00210739  1
  Rh  Rh211  1  0.18906342  0.00512921  0.20335448  1
  Rh  Rh212  1  0.59208769  -0.00729068  0.80419845  1
  Rh  Rh213  1  0.79836640  0.20326919  0.59504940  1
  Rh  Rh214  1  0.79247415  0.79532865  0.39584798  1
  Rh  Rh215  1  0.18975585  -0.00242784  0.59919275  1
  Rh  Rh216  1  0.01215775  0.00102829  0.78926872  1
  Rh  Rh217  1  -0.00696245  0.39678016  0.40364007  1
  Rh  Rh218  1  0.59797698  0.79169985  0.20952356  1
  Rh  Rh219  1  0.01313644  0.40191949  0.60243461  1
  Rh  Rh220  1  0.00586561  0.60453939  0.59858064  1
  Rh  Rh221  1  0.40610873  -0.00109078  0.60464800  1
  Rh  Rh222  1  0.20206365  0.20566420  0.00536897  1
  Rh  Rh223  1  0.00125929  0.79550018  0.00039279  1
  Rh  Rh224  1  0.60657033  0.80828060  -0.00668534  1
  Rh  Rh225  1  0.59392883  0.79783682  0.60146326  1
  Rh  Rh226  1  0.21110784  0.40080399  0.39941770  1
  Rh  Rh227  1  0.19166211  0.80045175  0.00008044  1
  Rh  Rh228  1  0.40987526  0.19184709  0.60304391  1
  Rh  Rh229  1  0.00199568  0.80391122  0.59479127  1
  Rh  Rh230  1  0.40303050  -0.00239754  0.19001020  1
  Rh  Rh231  1  0.00140064  0.20447159  0.00179301  1
  Rh  Rh232  1  -0.00350056  0.20745392  0.79386903  1
  Rh  Rh233  1  0.01140896  0.41207820  0.19174727  1
  Rh  Rh234  1  0.20288369  0.60102814  -0.00774412  1
  Rh  Rh235  1  0.39460046  0.39508318  0.20914486  1
  Rh  Rh236  1  0.79142567  0.79658391  -0.00749350  1
  Rh  Rh237  1  0.79283587  0.18772889  0.20504369  1
  Rh  Rh238  1  0.19049982  0.39863609  0.00355686  1
  Rh  Rh239  1  0.19356312  0.80425249  0.79763172  1
  Rh  Rh240  1  0.80109969  0.59493910  0.20772117  1
  Rh  Rh241  1  0.80719080  0.60345136  0.40634061  1
  Rh  Rh242  1  0.81043463  0.38685942  0.40587369  1
  Rh  Rh243  1  -0.00435384  0.60685173  0.79773876  1
  Rh  Rh244  1  0.39260952  0.19866684  -0.00578680  1
  Rh  Rh245  1  0.79451292  0.40852832  0.20102499  1
  Rh  Rh246  1  0.20763278  0.80475571  0.40707799  1
  Rh  Rh247  1  0.39039100  -0.00346065  0.40326086  1
  Rh  Rh248  1  0.80664695  0.59501238  -0.00985008  1
  Rh  Rh249  1  0.00111781  0.19013402  0.18927917  1
