# generated using pymatgen
data_ZrScNbPdRh
_symmetry_space_group_name_H-M   'P 1'
_cell_length_a   16.55516582
_cell_length_b   16.55481500
_cell_length_c   16.55477231
_cell_angle_alpha   90.00687057
_cell_angle_beta   89.99617930
_cell_angle_gamma   90.02272162
_symmetry_Int_Tables_number   1
_chemical_formula_structural   ZrScNbPdRh
_chemical_formula_sum   'Zr50 Sc50 Nb50 Pd50 Rh50'
_cell_volume   4537.12809327
_cell_formula_units_Z   50
loop_
 _symmetry_equiv_pos_site_id
 _symmetry_equiv_pos_as_xyz
  1  'x, y, z'
loop_
 _atom_site_type_symbol
 _atom_site_label
 _atom_site_symmetry_multiplicity
 _atom_site_fract_x
 _atom_site_fract_y
 _atom_site_fract_z
 _atom_site_occupancy
  Zr  Zr0  1  0.68766177  0.50406402  0.30132663  1
  Zr  Zr1  1  0.10196231  0.70578583  0.10713902  1
  Zr  Zr2  1  0.10415329  0.50105237  0.89332442  1
  Zr  Zr3  1  0.49858371  0.29232896  0.30133464  1
  Zr  Zr4  1  0.09638208  0.30580144  0.90717674  1
  Zr  Zr5  1  0.70007281  0.29848526  0.69549830  1
  Zr  Zr6  1  0.28891717  0.49960641  0.50429524  1
  Zr  Zr7  1  0.69417098  0.09841506  0.30375476  1
  Zr  Zr8  1  0.29483147  0.89680503  0.89807436  1
  Zr  Zr9  1  0.10465975  0.49921284  0.68845645  1
  Zr  Zr10  1  0.70782796  0.70091598  0.30787453  1
  Zr  Zr11  1  0.90194086  0.69038361  0.29511035  1
  Zr  Zr12  1  0.89916873  0.09469148  0.90373965  1
  Zr  Zr13  1  0.49263664  0.70769522  0.09050480  1
  Zr  Zr14  1  0.10643273  0.90308243  0.09847053  1
  Zr  Zr15  1  0.90999808  0.29977421  0.29545552  1
  Zr  Zr16  1  0.29899045  0.70182025  0.29020815  1
  Zr  Zr17  1  0.50777693  0.50046215  0.90111101  1
  Zr  Zr18  1  0.69477256  0.10083011  0.70133167  1
  Zr  Zr19  1  0.10070696  0.10233851  0.29760681  1
  Zr  Zr20  1  0.50350970  0.29574920  0.91023644  1
  Zr  Zr21  1  0.29887816  0.70395202  0.09629219  1
  Zr  Zr22  1  0.89775952  0.69370519  0.10049423  1
  Zr  Zr23  1  0.90955136  0.50119572  0.49560279  1
  Zr  Zr24  1  0.10466356  0.90017871  0.49523570  1
  Zr  Zr25  1  0.89836158  0.90071422  0.30653283  1
  Zr  Zr26  1  0.10177811  0.69404341  0.50244650  1
  Zr  Zr27  1  0.49827035  0.31427979  0.69779848  1
  Zr  Zr28  1  0.30946741  0.49170756  0.69672951  1
  Zr  Zr29  1  0.69609734  0.49746162  0.70598705  1
  Zr  Zr30  1  0.10598694  0.89826266  0.69970419  1
  Zr  Zr31  1  0.30088311  0.50736886  0.09931729  1
  Zr  Zr32  1  0.50798658  0.28769005  0.10287934  1
  Zr  Zr33  1  0.09848153  0.90311473  0.29753985  1
  Zr  Zr34  1  0.29981268  0.89837489  0.50647143  1
  Zr  Zr35  1  0.30296804  0.89709781  0.10115444  1
  Zr  Zr36  1  0.89292403  0.50281293  0.69714511  1
  Zr  Zr37  1  0.30038787  0.29176352  0.49864539  1
  Zr  Zr38  1  0.10076786  0.10450835  0.09381775  1
  Zr  Zr39  1  0.70665262  0.49992727  0.09499785  1
  Zr  Zr40  1  0.30161469  0.90254108  0.29885746  1
  Zr  Zr41  1  0.28981433  0.49897370  0.29995189  1
  Zr  Zr42  1  0.49871389  0.09574818  0.70913364  1
  Zr  Zr43  1  0.49089229  0.89656000  0.89321368  1
  Zr  Zr44  1  0.69551018  0.89548740  0.68557560  1
  Zr  Zr45  1  0.50556540  0.69321902  0.30199814  1
  Zr  Zr46  1  0.30576190  0.11467154  0.30377446  1
  Zr  Zr47  1  0.90359896  0.50309973  0.10528603  1
  Zr  Zr48  1  0.89524319  0.29272745  0.50124054  1
  Zr  Zr49  1  0.91243878  0.30072698  0.09594693  1
  Sc  Sc50  1  0.70498103  0.70476883  0.50807579  1
  Sc  Sc51  1  0.90083801  0.29805418  0.89797289  1
  Sc  Sc52  1  0.29909222  0.10506874  0.10591507  1
  Sc  Sc53  1  0.10155764  0.90605976  0.88992490  1
  Sc  Sc54  1  0.10794941  0.09896424  0.49625181  1
  Sc  Sc55  1  0.89930261  0.09541121  0.30140122  1
  Sc  Sc56  1  0.29710496  0.50363392  0.90273154  1
  Sc  Sc57  1  0.89764450  0.49386341  0.89920027  1
  Sc  Sc58  1  0.70179735  0.49424425  0.90379578  1
  Sc  Sc59  1  0.90299669  0.10341629  0.09229435  1
  Sc  Sc60  1  0.10323798  0.49211835  0.10202457  1
  Sc  Sc61  1  0.90439992  0.69256213  0.88711812  1
  Sc  Sc62  1  0.70242540  0.29504692  0.90760072  1
  Sc  Sc63  1  0.29622783  0.09669592  0.90705766  1
  Sc  Sc64  1  0.10142311  0.30038928  0.10072882  1
  Sc  Sc65  1  0.68861635  0.29527640  0.30461992  1
  Sc  Sc66  1  0.69928697  0.28948465  0.50298641  1
  Sc  Sc67  1  0.10740059  0.30573144  0.29066252  1
  Sc  Sc68  1  0.50370111  0.29798005  0.50723191  1
  Sc  Sc69  1  0.89179731  0.09794347  0.49474374  1
  Sc  Sc70  1  0.89638547  0.91163486  0.09793271  1
  Sc  Sc71  1  0.49098304  0.90159284  0.69528961  1
  Sc  Sc72  1  0.30300395  0.09275068  0.69100018  1
  Sc  Sc73  1  0.30321907  0.70741731  0.69695325  1
  Sc  Sc74  1  0.69722744  0.89940141  0.10276925  1
  Sc  Sc75  1  0.29928973  0.10258708  0.50190095  1
  Sc  Sc76  1  0.09349512  0.30029407  0.69959531  1
  Sc  Sc77  1  0.90053186  0.10573235  0.69989196  1
  Sc  Sc78  1  0.49724824  0.49489639  0.51272704  1
  Sc  Sc79  1  0.69576003  0.68732286  0.90331790  1
  Sc  Sc80  1  0.49891023  0.09849900  0.50343475  1
  Sc  Sc81  1  0.50947775  0.90922112  0.28921073  1
  Sc  Sc82  1  0.50742962  0.50675482  0.10441746  1
  Sc  Sc83  1  0.69796602  0.09585121  0.50350734  1
  Sc  Sc84  1  0.89464073  0.30174175  0.69809328  1
  Sc  Sc85  1  0.88640756  0.69335537  0.49618094  1
  Sc  Sc86  1  0.70349524  0.69818870  0.10277044  1
  Sc  Sc87  1  0.69456288  0.89802094  0.90200402  1
  Sc  Sc88  1  0.30061037  0.90174019  0.70261218  1
  Sc  Sc89  1  0.90339651  0.90374828  0.70465215  1
  Sc  Sc90  1  0.70638090  0.10075948  0.09315136  1
  Sc  Sc91  1  0.70088638  0.90296223  0.29794415  1
  Sc  Sc92  1  0.50240679  0.10005491  0.29064741  1
  Sc  Sc93  1  0.30285996  0.70766748  0.50229254  1
  Sc  Sc94  1  0.09925647  0.69846920  0.70905847  1
  Sc  Sc95  1  0.10360522  0.30404781  0.50469585  1
  Sc  Sc96  1  0.29549443  0.30897142  0.90724617  1
  Sc  Sc97  1  0.30058640  0.70321990  0.90402025  1
  Sc  Sc98  1  0.70017977  0.50475474  0.49817928  1
  Sc  Sc99  1  0.09553162  0.09587126  0.70219933  1
  Nb  Nb100  1  0.10346092  0.50281465  0.49587186  1
  Nb  Nb101  1  0.69696363  0.09981468  0.89891378  1
  Nb  Nb102  1  0.29890271  0.30728453  0.11112563  1
  Nb  Nb103  1  0.50070544  0.10258097  0.90257783  1
  Nb  Nb104  1  0.70104093  0.69800963  0.69746800  1
  Nb  Nb105  1  0.49816907  0.69934089  0.69702279  1
  Nb  Nb106  1  0.89654432  0.89616100  0.49920911  1
  Nb  Nb107  1  0.50054761  0.89588351  0.49829162  1
  Nb  Nb108  1  0.70361854  0.30024702  0.10227819  1
  Nb  Nb109  1  0.49671983  0.69993893  0.89610992  1
  Nb  Nb110  1  0.10118888  0.10167084  0.90101935  1
  Nb  Nb111  1  0.10076623  0.70294526  0.90107694  1
  Nb  Nb112  1  0.49134951  0.70494655  0.50846219  1
  Nb  Nb113  1  0.50104622  0.49913516  0.70231770  1
  Nb  Nb114  1  0.49921921  0.49654699  0.30813993  1
  Nb  Nb115  1  0.50022325  0.09775981  0.09848857  1
  Nb  Nb116  1  0.08948736  0.50747091  0.31371796  1
  Nb  Nb117  1  0.50071194  0.90727194  0.09744958  1
  Nb  Nb118  1  0.69798261  0.89605695  0.49784859  1
  Nb  Nb119  1  0.30166098  0.29702323  0.70096876  1
  Nb  Nb120  1  0.09296812  0.70100953  0.29908586  1
  Nb  Nb121  1  0.89753390  0.89997429  0.89754617  1
  Nb  Nb122  1  0.30358246  0.29832269  0.29741761  1
  Nb  Nb123  1  0.88931316  0.69962578  0.69342968  1
  Nb  Nb124  1  0.90299109  0.49980882  0.29984270  1
  Nb  Nb125  1  0.39789149  0.40056465  0.39566957  1
  Nb  Nb126  1  0.59250311  0.00417784  -0.00395697  1
  Nb  Nb127  1  0.79983897  0.20772249  0.19847254  1
  Nb  Nb128  1  0.79560713  0.79909537  0.79717761  1
  Nb  Nb129  1  0.59474702  0.60518516  0.60965251  1
  Nb  Nb130  1  0.59795878  0.80198248  0.40750282  1
  Nb  Nb131  1  -0.00120106  -0.00809306  0.59239135  1
  Nb  Nb132  1  0.59904089  0.78943612  0.79302705  1
  Nb  Nb133  1  0.79454707  -0.00281247  0.80407685  1
  Nb  Nb134  1  0.40333092  -0.00432062  0.39974319  1
  Nb  Nb135  1  0.80340784  0.40051990  0.39190783  1
  Nb  Nb136  1  -0.00192965  0.79908564  -0.00627477  1
  Nb  Nb137  1  0.40580181  0.00099412  0.00297378  1
  Nb  Nb138  1  0.40197783  0.59571891  0.40169026  1
  Nb  Nb139  1  0.20316646  0.20241891  0.80052667  1
  Nb  Nb140  1  0.00257504  0.20020672  0.39861007  1
  Nb  Nb141  1  -0.00630099  0.79956582  0.59624566  1
  Nb  Nb142  1  0.80786607  0.79987799  -0.00939483  1
  Nb  Nb143  1  -0.00194915  0.79765175  0.40200525  1
  Nb  Nb144  1  0.40206294  0.39931928  0.20431244  1
  Nb  Nb145  1  0.40972043  0.59950452  0.79580993  1
  Nb  Nb146  1  0.00616862  0.60516126  -0.00285190  1
  Nb  Nb147  1  0.79872463  0.39846733  0.20442838  1
  Nb  Nb148  1  0.40268921  0.39912314  0.01197472  1
  Nb  Nb149  1  0.39625038  0.20375141  0.80233894  1
  Pd  Pd150  1  0.79280845  -0.00175842  0.40253353  1
  Pd  Pd151  1  0.20666947  0.61160302  0.39884061  1
  Pd  Pd152  1  0.41077075  0.80403048  0.20403555  1
  Pd  Pd153  1  0.20448459  0.20525311  -0.00155264  1
  Pd  Pd154  1  0.19307628  0.60169899  0.00006504  1
  Pd  Pd155  1  -0.00361090  0.40344847  0.79405331  1
  Pd  Pd156  1  0.00644580  -0.00691976  -0.00511465  1
  Pd  Pd157  1  0.59259779  0.00082037  0.59611417  1
  Pd  Pd158  1  0.00527692  0.19880118  0.80442020  1
  Pd  Pd159  1  0.40810392  0.80144333  0.39079189  1
  Pd  Pd160  1  0.79488181  0.40304744  0.58941426  1
  Pd  Pd161  1  0.19409991  0.19797382  0.61002520  1
  Pd  Pd162  1  0.79980270  0.19627783  0.80162375  1
  Pd  Pd163  1  0.00186475  0.18855061  0.59061253  1
  Pd  Pd164  1  -0.00528297  0.79880621  0.79658354  1
  Pd  Pd165  1  0.59432222  0.20879201  0.79794597  1
  Pd  Pd166  1  0.80592662  0.39534321  0.00345050  1
  Pd  Pd167  1  0.60729592  0.39075123  0.80768342  1
  Pd  Pd168  1  0.20574640  0.00777199  0.20010524  1
  Pd  Pd169  1  0.59952812  0.39950291  0.19660256  1
  Pd  Pd170  1  0.40451447  0.59488203  0.20493230  1
  Pd  Pd171  1  -0.00282576  0.60670399  0.60182026  1
  Pd  Pd172  1  0.80437241  0.80389118  0.19256359  1
  Pd  Pd173  1  0.19965409  0.39419838  0.79422589  1
  Pd  Pd174  1  0.19995306  0.39200721  0.39899754  1
  Pd  Pd175  1  0.79678532  0.60041794  0.80422197  1
  Pd  Pd176  1  0.39853529  0.40093042  0.81403657  1
  Pd  Pd177  1  0.59898551  0.60352328  0.00531227  1
  Pd  Pd178  1  0.20534114  0.01077657  0.79660431  1
  Pd  Pd179  1  0.21150214  0.00591640  0.39861799  1
  Pd  Pd180  1  0.19550246  0.79350428  0.39375183  1
  Pd  Pd181  1  0.59972958  0.39523511  0.41109545  1
  Pd  Pd182  1  -0.00003176  0.59414671  0.79702414  1
  Pd  Pd183  1  0.60300863  -0.01062761  0.80282867  1
  Pd  Pd184  1  0.18886683  0.59608680  0.20297861  1
  Pd  Pd185  1  -0.00879317  0.80837992  0.19730500  1
  Pd  Pd186  1  -0.00446578  0.00465616  0.19567114  1
  Pd  Pd187  1  0.20652447  0.60736014  0.60767202  1
  Pd  Pd188  1  0.79801951  0.00900442  0.19796467  1
  Pd  Pd189  1  0.38932101  0.20098316  0.00051539  1
  Pd  Pd190  1  0.59180187  0.60803469  0.41953167  1
  Pd  Pd191  1  0.40637035  0.19882338  0.60730817  1
  Pd  Pd192  1  0.59946812  0.79640419  0.20432605  1
  Pd  Pd193  1  0.59327196  0.19289166  0.40725599  1
  Pd  Pd194  1  0.60513165  0.80108924  -0.00474317  1
  Pd  Pd195  1  -0.00029928  0.39933673  0.59942203  1
  Pd  Pd196  1  0.60268701  0.60692975  0.19296816  1
  Pd  Pd197  1  0.80705081  0.00090072  0.60520413  1
  Pd  Pd198  1  0.21267505  0.60500609  0.79458940  1
  Pd  Pd199  1  0.00217855  0.39134090  0.40301582  1
  Rh  Rh200  1  -0.00606169  0.00615725  0.79616970  1
  Rh  Rh201  1  0.40009174  0.20156119  0.19486094  1
  Rh  Rh202  1  0.00185058  0.40961359  -0.00290529  1
  Rh  Rh203  1  0.39380570  0.39498934  0.58940231  1
  Rh  Rh204  1  0.80189410  0.20225439  0.00348283  1
  Rh  Rh205  1  0.40419021  0.59444308  -0.00895566  1
  Rh  Rh206  1  0.80732268  0.20864028  0.38863365  1
  Rh  Rh207  1  0.40705316  0.19824533  0.40457212  1
  Rh  Rh208  1  0.39889114  0.80628437  -0.00238663  1
  Rh  Rh209  1  0.19099279  0.80539065  -0.00591675  1
  Rh  Rh210  1  0.60840105  0.40687324  0.59736537  1
  Rh  Rh211  1  0.79658801  0.19238276  0.60368251  1
  Rh  Rh212  1  0.19870612  0.80268639  0.20523085  1
  Rh  Rh213  1  0.80620346  0.80496766  0.60297073  1
  Rh  Rh214  1  0.59475732  0.79473839  0.59798751  1
  Rh  Rh215  1  0.19479677  0.00035647  0.60215703  1
  Rh  Rh216  1  0.79247860  0.59145509  0.59989949  1
  Rh  Rh217  1  0.39728966  0.00357089  0.20037268  1
  Rh  Rh218  1  0.20014258  0.39453265  0.60289971  1
  Rh  Rh219  1  0.79755002  0.39365000  0.80104639  1
  Rh  Rh220  1  0.00179523  0.19905410  -0.00712516  1
  Rh  Rh221  1  0.00438295  0.40898702  0.20257226  1
  Rh  Rh222  1  0.79814356  0.80345105  0.39977261  1
  Rh  Rh223  1  0.79184285  0.59007469  0.20835870  1
  Rh  Rh224  1  0.61107520  0.19061697  0.19476493  1
  Rh  Rh225  1  0.19235469  0.20498329  0.39566019  1
  Rh  Rh226  1  0.59608068  0.60308058  0.79629137  1
  Rh  Rh227  1  0.59723948  0.39873898  0.00572808  1
  Rh  Rh228  1  0.20190330  0.79583000  0.80099766  1
  Rh  Rh229  1  -0.00277738  0.00164617  0.40737177  1
  Rh  Rh230  1  0.20447563  -0.00150638  0.00192618  1
  Rh  Rh231  1  -0.00110952  0.19293403  0.20326874  1
  Rh  Rh232  1  0.39694859  0.80746603  0.60618955  1
  Rh  Rh233  1  0.80936504  0.60660307  -0.00948480  1
  Rh  Rh234  1  0.78807220  -0.00611300  -0.00799771  1
  Rh  Rh235  1  0.19512746  0.79701935  0.60541921  1
  Rh  Rh236  1  0.39353401  0.01157010  0.80967704  1
  Rh  Rh237  1  0.80010298  0.59038215  0.39715692  1
  Rh  Rh238  1  0.01036379  0.59219673  0.19591755  1
  Rh  Rh239  1  0.19780580  0.20102897  0.19820463  1
  Rh  Rh240  1  0.60786889  0.00618364  0.18814954  1
  Rh  Rh241  1  0.40170775  -0.00380954  0.59049463  1
  Rh  Rh242  1  0.59459121  -0.00624539  0.40368951  1
  Rh  Rh243  1  0.40223903  0.59759072  0.59987990  1
  Rh  Rh244  1  0.60949080  0.19293842  0.00385781  1
  Rh  Rh245  1  0.20505283  0.40135413  0.00620763  1
  Rh  Rh246  1  -0.00188524  0.60850662  0.40378500  1
  Rh  Rh247  1  0.19984876  0.40481395  0.20221139  1
  Rh  Rh248  1  0.40115116  0.79192527  0.79653019  1
  Rh  Rh249  1  0.59642744  0.19652630  0.60512956  1
