# generated using pymatgen
data_ZrScNbPdRh
_symmetry_space_group_name_H-M   'P 1'
_cell_length_a   16.56006387
_cell_length_b   16.55700297
_cell_length_c   16.55758432
_cell_angle_alpha   89.95174818
_cell_angle_beta   89.99285161
_cell_angle_gamma   90.05681803
_symmetry_Int_Tables_number   1
_chemical_formula_structural   ZrScNbPdRh
_chemical_formula_sum   'Zr50 Sc50 Nb50 Pd50 Rh50'
_cell_volume   4539.83782037
_cell_formula_units_Z   50
loop_
 _symmetry_equiv_pos_site_id
 _symmetry_equiv_pos_as_xyz
  1  'x, y, z'
loop_
 _atom_site_type_symbol
 _atom_site_label
 _atom_site_symmetry_multiplicity
 _atom_site_fract_x
 _atom_site_fract_y
 _atom_site_fract_z
 _atom_site_occupancy
  Zr  Zr0  1  0.29923255  0.89875664  0.90218480  1
  Zr  Zr1  1  0.10122100  0.91508913  0.29259976  1
  Zr  Zr2  1  0.90131049  0.30035037  0.30399791  1
  Zr  Zr3  1  0.89550317  0.89672200  0.50087395  1
  Zr  Zr4  1  0.09931550  0.10581344  0.49990845  1
  Zr  Zr5  1  0.69358527  0.29829824  0.50483783  1
  Zr  Zr6  1  0.30933492  0.10351915  0.50233932  1
  Zr  Zr7  1  0.10384969  0.50536464  0.29397468  1
  Zr  Zr8  1  0.69981867  0.89733397  0.49397944  1
  Zr  Zr9  1  0.10776590  0.49674586  0.49197346  1
  Zr  Zr10  1  0.29563872  0.09898774  0.89687527  1
  Zr  Zr11  1  0.30676673  0.90065975  0.71119653  1
  Zr  Zr12  1  0.29957724  0.08680789  0.29579235  1
  Zr  Zr13  1  0.69177108  0.90247533  0.90723903  1
  Zr  Zr14  1  0.50527324  0.90588891  0.50011304  1
  Zr  Zr15  1  0.30374151  0.30202258  0.90747813  1
  Zr  Zr16  1  0.90398447  0.89837443  0.29807507  1
  Zr  Zr17  1  0.10131913  0.88631010  0.50122898  1
  Zr  Zr18  1  0.09769950  0.09436847  0.10087624  1
  Zr  Zr19  1  0.69832147  0.69765489  0.70209967  1
  Zr  Zr20  1  0.30886785  0.50383412  0.89817855  1
  Zr  Zr21  1  0.90762996  0.69785797  0.29661974  1
  Zr  Zr22  1  0.90407854  0.30346086  0.69579767  1
  Zr  Zr23  1  0.69973221  0.70583787  0.09156051  1
  Zr  Zr24  1  0.30635736  0.30746387  0.29927082  1
  Zr  Zr25  1  0.69636756  0.70153372  0.89649196  1
  Zr  Zr26  1  0.10133950  0.90538482  0.70775987  1
  Zr  Zr27  1  0.50389489  0.70064587  0.70752255  1
  Zr  Zr28  1  0.29985997  0.49258357  0.50526619  1
  Zr  Zr29  1  0.28483994  0.70446898  0.49765011  1
  Zr  Zr30  1  0.10154391  0.29811084  0.90969088  1
  Zr  Zr31  1  0.90468173  0.49359361  0.90363279  1
  Zr  Zr32  1  0.29887330  0.70154894  0.29892695  1
  Zr  Zr33  1  0.89635542  0.49915622  0.49932139  1
  Zr  Zr34  1  0.70835455  0.91629226  0.29316901  1
  Zr  Zr35  1  0.10387276  0.49553123  0.69733289  1
  Zr  Zr36  1  0.09811947  0.30821446  0.30582336  1
  Zr  Zr37  1  0.70419780  0.11402328  0.90659786  1
  Zr  Zr38  1  0.50396199  0.49594500  0.50697471  1
  Zr  Zr39  1  0.50454093  0.69571061  0.90570814  1
  Zr  Zr40  1  0.69804741  0.08940758  0.10122721  1
  Zr  Zr41  1  0.09194706  0.09452703  0.90368394  1
  Zr  Zr42  1  0.30433174  0.70070449  0.90441855  1
  Zr  Zr43  1  0.89986521  0.49762358  0.69774559  1
  Zr  Zr44  1  0.70062882  0.29412162  0.29663794  1
  Zr  Zr45  1  0.90476881  0.70855968  0.49171992  1
  Zr  Zr46  1  0.68941798  0.49583135  0.69131642  1
  Zr  Zr47  1  0.49530354  0.30033639  0.29934179  1
  Zr  Zr48  1  0.89919482  0.70086349  0.89683666  1
  Zr  Zr49  1  0.09282402  0.89605645  0.09585495  1
  Sc  Sc50  1  0.10447759  0.10453413  0.70174255  1
  Sc  Sc51  1  0.68976781  0.49840735  0.90178861  1
  Sc  Sc52  1  0.70082534  0.29634220  0.08746031  1
  Sc  Sc53  1  0.88881380  0.70539996  0.69938474  1
  Sc  Sc54  1  0.30439714  0.90271718  0.10991711  1
  Sc  Sc55  1  0.50218392  0.70313959  0.29692819  1
  Sc  Sc56  1  0.30436321  0.49630968  0.10454806  1
  Sc  Sc57  1  0.50724524  0.30511677  0.70140013  1
  Sc  Sc58  1  0.50158688  0.30437763  0.89900810  1
  Sc  Sc59  1  0.50120091  0.09701751  0.90414436  1
  Sc  Sc60  1  0.70173804  0.49293851  0.09957185  1
  Sc  Sc61  1  0.30240914  0.30053670  0.49920064  1
  Sc  Sc62  1  0.29662376  0.49820092  0.30073625  1
  Sc  Sc63  1  0.10147215  0.69982560  0.30214097  1
  Sc  Sc64  1  0.30427775  0.90181825  0.48965698  1
  Sc  Sc65  1  0.49418461  0.50325678  0.29705808  1
  Sc  Sc66  1  0.89718944  0.09174169  0.08775103  1
  Sc  Sc67  1  0.51854120  0.70444511  0.49306068  1
  Sc  Sc68  1  0.90828763  0.09395844  0.30486805  1
  Sc  Sc69  1  0.90334489  0.10153108  0.50220403  1
  Sc  Sc70  1  0.70513092  0.69928189  0.49696210  1
  Sc  Sc71  1  0.49068571  0.29379416  0.50025485  1
  Sc  Sc72  1  0.10019639  0.29717256  0.68949351  1
  Sc  Sc73  1  0.69159735  0.09574554  0.49247507  1
  Sc  Sc74  1  0.09893015  0.71468903  0.90835655  1
  Sc  Sc75  1  0.69354523  0.69516391  0.30691083  1
  Sc  Sc76  1  0.50096166  0.69388053  0.10127644  1
  Sc  Sc77  1  0.48679569  0.29345654  0.09790119  1
  Sc  Sc78  1  0.09357758  0.70127424  0.10698420  1
  Sc  Sc79  1  0.70421233  0.50657224  0.30018094  1
  Sc  Sc80  1  0.90440636  0.49371638  0.29405072  1
  Sc  Sc81  1  0.29933264  0.70497548  0.10626021  1
  Sc  Sc82  1  0.91276732  0.29723849  0.50194170  1
  Sc  Sc83  1  0.49328479  0.89866139  0.30127304  1
  Sc  Sc84  1  0.49791706  0.50233655  0.09402847  1
  Sc  Sc85  1  0.09434825  0.49456748  0.90773045  1
  Sc  Sc86  1  0.10899391  0.70439847  0.69656013  1
  Sc  Sc87  1  0.49289206  0.49628053  0.89900666  1
  Sc  Sc88  1  0.89194644  0.29681854  0.91320927  1
  Sc  Sc89  1  0.50241868  0.10388248  0.29677289  1
  Sc  Sc90  1  0.50248105  0.09527805  0.69757665  1
  Sc  Sc91  1  0.30152397  0.89440034  0.29912807  1
  Sc  Sc92  1  0.89691118  0.90071639  0.69379410  1
  Sc  Sc93  1  0.29807482  0.69454043  0.71331749  1
  Sc  Sc94  1  0.69739358  0.90267927  0.69763220  1
  Sc  Sc95  1  0.50694129  0.90269565  0.70831564  1
  Sc  Sc96  1  0.69793225  0.51068618  0.50012853  1
  Sc  Sc97  1  0.90956207  0.90052672  0.90160177  1
  Sc  Sc98  1  0.29731445  0.29914580  0.69091474  1
  Sc  Sc99  1  0.90461308  0.09767750  0.69470749  1
  Nb  Nb100  1  0.48618107  0.09181104  0.09821518  1
  Nb  Nb101  1  0.89300514  0.31147806  0.10842004  1
  Nb  Nb102  1  0.69331281  0.29651804  0.88843375  1
  Nb  Nb103  1  0.10257557  0.30129445  0.09977746  1
  Nb  Nb104  1  0.30825990  0.09867674  0.09475117  1
  Nb  Nb105  1  0.29824341  0.29480559  0.09894932  1
  Nb  Nb106  1  0.09839879  0.69780988  0.49642021  1
  Nb  Nb107  1  0.89717902  0.09869391  0.90165774  1
  Nb  Nb108  1  0.69344756  0.29312752  0.70760221  1
  Nb  Nb109  1  0.49221809  0.09597955  0.49512174  1
  Nb  Nb110  1  0.89029891  0.89407374  0.10697004  1
  Nb  Nb111  1  0.90172394  0.70494173  0.10033275  1
  Nb  Nb112  1  0.09524425  0.50065251  0.09864388  1
  Nb  Nb113  1  0.10320446  0.90301935  0.90517064  1
  Nb  Nb114  1  0.69524225  0.10832792  0.71378405  1
  Nb  Nb115  1  0.50337489  0.90577754  0.09377248  1
  Nb  Nb116  1  0.10120395  0.10249056  0.29520947  1
  Nb  Nb117  1  0.49864910  0.89598494  0.90007941  1
  Nb  Nb118  1  0.70442020  0.90276348  0.10099887  1
  Nb  Nb119  1  0.29614403  0.09890475  0.70044773  1
  Nb  Nb120  1  0.10296125  0.29931121  0.49936862  1
  Nb  Nb121  1  0.30435191  0.49766127  0.70409321  1
  Nb  Nb122  1  0.90312666  0.50104139  0.09752615  1
  Nb  Nb123  1  0.70446347  0.10741800  0.29305248  1
  Nb  Nb124  1  0.49043021  0.49689188  0.69877566  1
  Nb  Nb125  1  0.00028431  0.60039090  0.79527403  1
  Nb  Nb126  1  0.19955875  0.20154558  0.19734507  1
  Nb  Nb127  1  0.79531080  0.39576708  0.40152942  1
  Nb  Nb128  1  0.79001279  0.19985497  0.60766371  1
  Nb  Nb129  1  0.39973051  0.60425330  0.60066294  1
  Nb  Nb130  1  0.39396664  0.19760927  0.79827442  1
  Nb  Nb131  1  0.39654027  0.60274775  0.41031698  1
  Nb  Nb132  1  0.20619597  0.00092910  0.60263480  1
  Nb  Nb133  1  0.60209984  0.39662011  0.39647336  1
  Nb  Nb134  1  0.59890120  0.39507172  0.20283334  1
  Nb  Nb135  1  0.19965681  -0.00280104  -0.00010442  1
  Nb  Nb136  1  0.79768733  0.00976457  0.80458777  1
  Nb  Nb137  1  0.40189555  0.79467900  0.60078682  1
  Nb  Nb138  1  0.60557826  0.81247065  0.19102066  1
  Nb  Nb139  1  0.40655952  0.80538785  -0.00009155  1
  Nb  Nb140  1  0.80703869  0.60107183  0.00323922  1
  Nb  Nb141  1  0.80830231  0.60294471  0.18935100  1
  Nb  Nb142  1  0.00074041  0.20491434  0.19529508  1
  Nb  Nb143  1  0.19707247  0.59819624  0.00560978  1
  Nb  Nb144  1  0.80430551  0.19725816  0.19858742  1
  Nb  Nb145  1  -0.00269499  0.19947762  0.80769073  1
  Nb  Nb146  1  0.00425606  0.60380984  0.59713478  1
  Nb  Nb147  1  0.20441517  0.40141329  0.80135986  1
  Nb  Nb148  1  0.19919273  0.19856702  0.39220126  1
  Nb  Nb149  1  0.79098491  0.39193161  0.79777506  1
  Pd  Pd150  1  -0.00171482  0.79400842  0.60864385  1
  Pd  Pd151  1  0.79123517  0.79065556  0.20966086  1
  Pd  Pd152  1  0.79579218  0.81596826  0.80131974  1
  Pd  Pd153  1  0.21096618  0.80930861  0.60729524  1
  Pd  Pd154  1  0.59362341  0.39634544  0.00523020  1
  Pd  Pd155  1  0.59365567  0.58931426  0.80133203  1
  Pd  Pd156  1  0.81247209  0.20128299  0.79530059  1
  Pd  Pd157  1  0.40462400  0.79282680  0.40862893  1
  Pd  Pd158  1  0.80593860  0.80347108  -0.00724447  1
  Pd  Pd159  1  -0.00087338  0.59417865  0.40179224  1
  Pd  Pd160  1  0.39319059  0.19506892  0.20319184  1
  Pd  Pd161  1  0.79285944  0.40308889  -0.00809900  1
  Pd  Pd162  1  0.19375026  0.80146004  0.20229194  1
  Pd  Pd163  1  0.80391025  0.00901596  0.40147702  1
  Pd  Pd164  1  0.79351295  0.39108485  0.59875424  1
  Pd  Pd165  1  0.19737783  0.20966061  0.79762287  1
  Pd  Pd166  1  0.20140528  0.59942489  0.60182631  1
  Pd  Pd167  1  0.40649263  0.20234958  0.61113487  1
  Pd  Pd168  1  0.00133789  0.79552737  0.79338068  1
  Pd  Pd169  1  0.80543440  0.60868141  0.59562186  1
  Pd  Pd170  1  0.59071246  -0.00119716  0.20368719  1
  Pd  Pd171  1  0.60048797  0.79985787  0.60192126  1
  Pd  Pd172  1  0.19879311  0.00227570  0.40903139  1
  Pd  Pd173  1  0.00939131  -0.00112365  0.59673486  1
  Pd  Pd174  1  0.00296359  0.39298330  0.80441570  1
  Pd  Pd175  1  0.59621467  0.19179413  0.59856307  1
  Pd  Pd176  1  0.60170920  0.20278044  0.18639822  1
  Pd  Pd177  1  0.39614155  0.59966946  0.20479238  1
  Pd  Pd178  1  0.59597250  0.00157081  0.38891025  1
  Pd  Pd179  1  0.39745401  -0.00939118  0.60243757  1
  Pd  Pd180  1  0.80457102  0.19887135  0.40476089  1
  Pd  Pd181  1  0.00226007  -0.00437940  0.40889149  1
  Pd  Pd182  1  0.20251673  0.19088193  0.00663237  1
  Pd  Pd183  1  0.40733146  0.00752850  0.80352412  1
  Pd  Pd184  1  0.20554199  0.41043850  0.00054167  1
  Pd  Pd185  1  0.59830395  0.00540145  -0.00300770  1
  Pd  Pd186  1  0.00347568  0.39908478  0.19581102  1
  Pd  Pd187  1  0.60759055  0.59629219  0.19491740  1
  Pd  Pd188  1  0.19670448  0.79849153  0.80335604  1
  Pd  Pd189  1  0.00263441  0.60826816  -0.00300458  1
  Pd  Pd190  1  0.78945296  0.01049516  0.60618510  1
  Pd  Pd191  1  0.18790759  0.59383850  0.81395349  1
  Pd  Pd192  1  0.59219281  0.19982278  0.40244770  1
  Pd  Pd193  1  0.60569966  0.00650219  0.60118521  1
  Pd  Pd194  1  0.80245505  0.58684737  0.80706507  1
  Pd  Pd195  1  0.20175851  0.39876877  0.19397262  1
  Pd  Pd196  1  0.59051698  0.19998394  0.00511807  1
  Pd  Pd197  1  -0.00648492  0.00417521  0.79759573  1
  Pd  Pd198  1  -0.00975123  0.20546455  0.00660235  1
  Pd  Pd199  1  0.79484726  0.79799292  0.38966621  1
  Rh  Rh200  1  0.40442132  -0.00295904  0.20234025  1
  Rh  Rh201  1  -0.00587889  0.80350782  0.00267932  1
  Rh  Rh202  1  0.39153800  0.60787033  0.00706008  1
  Rh  Rh203  1  0.60720859  0.59578522  0.00176342  1
  Rh  Rh204  1  0.80265616  0.20116101  0.01046936  1
  Rh  Rh205  1  0.40509698  0.40080594  0.19329913  1
  Rh  Rh206  1  0.80959392  0.59474940  0.39115951  1
  Rh  Rh207  1  0.81031470  0.01061226  0.19973271  1
  Rh  Rh208  1  0.20794155  0.80136311  0.00558223  1
  Rh  Rh209  1  0.58281772  0.19738115  0.80366081  1
  Rh  Rh210  1  0.20019435  0.39718974  0.60348642  1
  Rh  Rh211  1  0.79248014  0.79933893  0.59802026  1
  Rh  Rh212  1  0.39967602  0.39827680  0.00569902  1
  Rh  Rh213  1  0.60548801  0.00338974  0.80772446  1
  Rh  Rh214  1  0.19745906  0.59852519  0.19271249  1
  Rh  Rh215  1  -0.00462635  -0.01005306  0.00464648  1
  Rh  Rh216  1  0.39323598  0.38852961  0.79415676  1
  Rh  Rh217  1  0.40703305  0.60095819  0.79578728  1
  Rh  Rh218  1  0.19284542  0.80441438  0.39014734  1
  Rh  Rh219  1  0.19734694  -0.00063149  0.80218411  1
  Rh  Rh220  1  0.40689716  0.41012686  0.40351841  1
  Rh  Rh221  1  0.41547336  0.80264255  0.18981164  1
  Rh  Rh222  1  0.20318097  0.19545962  0.58901491  1
  Rh  Rh223  1  0.60027769  0.40546551  0.79816171  1
  Rh  Rh224  1  0.40482496  0.00138246  0.39506386  1
  Rh  Rh225  1  -0.00281188  0.19885629  0.60608475  1
  Rh  Rh226  1  0.40256885  0.19887276  -0.00823726  1
  Rh  Rh227  1  0.60754764  0.81213484  0.38595643  1
  Rh  Rh228  1  -0.00901659  0.00273175  0.19333199  1
  Rh  Rh229  1  -0.00411007  0.40524569  0.40568850  1
  Rh  Rh230  1  0.79175577  0.40105985  0.20482975  1
  Rh  Rh231  1  0.59282841  0.80176803  0.00637689  1
  Rh  Rh232  1  0.80389791  -0.00917187  -0.00751988  1
  Rh  Rh233  1  0.39472626  -0.00635879  -0.00183831  1
  Rh  Rh234  1  0.00333979  0.80427877  0.20279827  1
  Rh  Rh235  1  -0.00140380  0.59799065  0.19656400  1
  Rh  Rh236  1  0.60337546  0.80412167  0.79970342  1
  Rh  Rh237  1  0.20596462  0.60141867  0.39516327  1
  Rh  Rh238  1  0.00827574  0.80562893  0.39073980  1
  Rh  Rh239  1  -0.00162477  0.39135168  0.00962046  1
  Rh  Rh240  1  0.59730676  0.39609534  0.59738240  1
  Rh  Rh241  1  0.59443659  0.60536999  0.60275113  1
  Rh  Rh242  1  0.58911648  0.58908346  0.39961157  1
  Rh  Rh243  1  0.40707234  0.79644724  0.80381644  1
  Rh  Rh244  1  0.01018954  0.40621387  0.58915057  1
  Rh  Rh245  1  0.20371717  0.00309634  0.18908880  1
  Rh  Rh246  1  0.20400723  0.39259772  0.40160707  1
  Rh  Rh247  1  0.00868808  0.19852749  0.39469198  1
  Rh  Rh248  1  0.39454498  0.19430162  0.39256508  1
  Rh  Rh249  1  0.40005392  0.39836145  0.60385774  1
