# generated using pymatgen
data_ZrScNbPdRh
_symmetry_space_group_name_H-M   'P 1'
_cell_length_a   16.56467786
_cell_length_b   16.56182635
_cell_length_c   16.55818198
_cell_angle_alpha   90.01378389
_cell_angle_beta   90.00116031
_cell_angle_gamma   90.01348122
_symmetry_Int_Tables_number   1
_chemical_formula_structural   ZrScNbPdRh
_chemical_formula_sum   'Zr50 Sc50 Nb50 Pd50 Rh50'
_cell_volume   4542.59321232
_cell_formula_units_Z   50
loop_
 _symmetry_equiv_pos_site_id
 _symmetry_equiv_pos_as_xyz
  1  'x, y, z'
loop_
 _atom_site_type_symbol
 _atom_site_label
 _atom_site_symmetry_multiplicity
 _atom_site_fract_x
 _atom_site_fract_y
 _atom_site_fract_z
 _atom_site_occupancy
  Zr  Zr0  1  0.09902723  0.09147633  0.90059706  1
  Zr  Zr1  1  0.30023795  0.90337135  0.50331954  1
  Zr  Zr2  1  0.70576285  0.50052693  0.48601643  1
  Zr  Zr3  1  0.49538115  0.29597210  0.50154972  1
  Zr  Zr4  1  0.50637921  0.50672690  0.90490000  1
  Zr  Zr5  1  0.69554340  0.29959610  0.49090164  1
  Zr  Zr6  1  0.10646370  0.50841398  0.89384267  1
  Zr  Zr7  1  0.29208472  0.09850868  0.29509620  1
  Zr  Zr8  1  0.09419158  0.70168341  0.29985051  1
  Zr  Zr9  1  0.69992157  0.30083084  0.70692434  1
  Zr  Zr10  1  0.09272759  0.29540016  0.09739327  1
  Zr  Zr11  1  0.09809564  0.89566001  0.09734354  1
  Zr  Zr12  1  0.29296400  0.09956362  0.90161632  1
  Zr  Zr13  1  0.70258464  0.09617100  0.30793863  1
  Zr  Zr14  1  0.50808726  0.70193501  0.49442130  1
  Zr  Zr15  1  0.49817284  0.70097347  0.90206151  1
  Zr  Zr16  1  0.09213844  0.50241526  0.10166796  1
  Zr  Zr17  1  0.49575385  0.30466984  0.29967639  1
  Zr  Zr18  1  0.09881765  0.50204169  0.50137526  1
  Zr  Zr19  1  0.70690520  0.29949167  0.09909213  1
  Zr  Zr20  1  0.70080185  0.90551639  0.70661982  1
  Zr  Zr21  1  0.90089461  0.89245861  0.10284453  1
  Zr  Zr22  1  0.30179394  0.70116766  0.90331022  1
  Zr  Zr23  1  0.69475182  0.89069969  0.09808985  1
  Zr  Zr24  1  0.50196244  0.89891880  0.09832223  1
  Zr  Zr25  1  0.70283712  0.30879793  0.90240514  1
  Zr  Zr26  1  0.90489166  0.89755610  0.30539037  1
  Zr  Zr27  1  0.08990364  0.89561006  0.49717092  1
  Zr  Zr28  1  0.30742294  0.09690676  0.49282681  1
  Zr  Zr29  1  0.90135174  0.49931812  0.49866278  1
  Zr  Zr30  1  0.30049011  0.29249719  0.10431179  1
  Zr  Zr31  1  0.70340580  0.89791937  0.49365152  1
  Zr  Zr32  1  0.89697198  0.69983070  0.09969160  1
  Zr  Zr33  1  0.08552857  0.69443940  0.70250199  1
  Zr  Zr34  1  0.49631605  0.10924760  0.70061124  1
  Zr  Zr35  1  0.89505744  0.70350943  0.50414052  1
  Zr  Zr36  1  0.90296665  0.30613343  0.10523612  1
  Zr  Zr37  1  0.29027433  0.09770038  0.69475236  1
  Zr  Zr38  1  0.90620390  0.29726467  0.69898517  1
  Zr  Zr39  1  0.10325546  0.10244751  0.49789868  1
  Zr  Zr40  1  0.30376112  0.29654404  0.69660591  1
  Zr  Zr41  1  0.10063018  0.30000517  0.49484722  1
  Zr  Zr42  1  0.69750146  0.50375098  0.90401326  1
  Zr  Zr43  1  0.89856880  0.89949118  0.50216045  1
  Zr  Zr44  1  0.50281736  0.29957424  0.89799818  1
  Zr  Zr45  1  0.70250581  0.69952877  0.90513266  1
  Zr  Zr46  1  0.70970682  0.70256866  0.70523648  1
  Zr  Zr47  1  0.10242902  0.90426495  0.29284281  1
  Zr  Zr48  1  0.09886738  0.29206232  0.69194816  1
  Zr  Zr49  1  0.49436325  0.30238563  0.69590732  1
  Sc  Sc50  1  0.70085891  0.89599224  0.29895683  1
  Sc  Sc51  1  0.90270662  0.51055162  0.69903442  1
  Sc  Sc52  1  0.50898501  0.89913971  0.90198205  1
  Sc  Sc53  1  0.70555845  0.50796110  0.09680964  1
  Sc  Sc54  1  0.70721940  0.30795520  0.30578695  1
  Sc  Sc55  1  0.70385795  0.09244154  0.10565559  1
  Sc  Sc56  1  0.29824073  0.90345401  0.29469333  1
  Sc  Sc57  1  0.50463194  0.70111460  0.70425678  1
  Sc  Sc58  1  0.09070227  0.90973903  0.69664281  1
  Sc  Sc59  1  0.29718607  0.29581340  0.30313728  1
  Sc  Sc60  1  0.29587456  0.50273781  0.50177048  1
  Sc  Sc61  1  0.89612969  0.09074652  0.49397956  1
  Sc  Sc62  1  0.29993232  0.70739514  0.09804837  1
  Sc  Sc63  1  0.29686313  0.89866025  0.90752909  1
  Sc  Sc64  1  0.69904401  0.09342820  0.89337888  1
  Sc  Sc65  1  0.90110783  0.89782503  0.69568870  1
  Sc  Sc66  1  0.09945357  0.70345806  0.89929912  1
  Sc  Sc67  1  0.89443650  0.50067174  0.90053474  1
  Sc  Sc68  1  0.09170143  0.69285424  0.50200928  1
  Sc  Sc69  1  0.49981065  0.89586665  0.69918133  1
  Sc  Sc70  1  0.29630127  0.29007071  0.90288398  1
  Sc  Sc71  1  0.50164949  0.10169626  0.89614933  1
  Sc  Sc72  1  0.30041479  0.50283255  0.69999215  1
  Sc  Sc73  1  0.31486842  0.69837279  0.70103322  1
  Sc  Sc74  1  0.49905616  0.70045936  0.10611042  1
  Sc  Sc75  1  0.90657156  0.09944376  0.89707499  1
  Sc  Sc76  1  0.50154065  0.89709034  0.49919530  1
  Sc  Sc77  1  0.90254683  0.09190371  0.69939926  1
  Sc  Sc78  1  0.70558998  0.09501599  0.70590870  1
  Sc  Sc79  1  0.90259172  0.29425799  0.90751752  1
  Sc  Sc80  1  0.29995699  0.89408126  0.10629046  1
  Sc  Sc81  1  0.90680606  0.29608317  0.49420445  1
  Sc  Sc82  1  0.49307877  0.09721207  0.30510447  1
  Sc  Sc83  1  0.29763640  0.29797727  0.49867727  1
  Sc  Sc84  1  0.90323807  0.09975955  0.29919638  1
  Sc  Sc85  1  0.91780391  0.89434331  0.90139612  1
  Sc  Sc86  1  0.69967058  0.50630990  0.30046731  1
  Sc  Sc87  1  0.30231263  0.50906968  0.10366393  1
  Sc  Sc88  1  0.48676347  0.29707034  0.10345070  1
  Sc  Sc89  1  0.09735978  0.29007398  0.89979561  1
  Sc  Sc90  1  0.50156791  0.89273750  0.29179672  1
  Sc  Sc91  1  0.10393936  0.28672075  0.30199423  1
  Sc  Sc92  1  0.90089257  0.10862241  0.09961126  1
  Sc  Sc93  1  0.49840040  0.49938822  0.49732113  1
  Sc  Sc94  1  0.70638251  0.50538219  0.71198947  1
  Sc  Sc95  1  0.30318391  0.50419799  0.30136961  1
  Sc  Sc96  1  0.89630873  0.50438924  0.29100243  1
  Sc  Sc97  1  0.89473488  0.70049766  0.29725541  1
  Sc  Sc98  1  0.29727019  0.51340781  0.89850150  1
  Sc  Sc99  1  0.49468780  0.50598169  0.69777223  1
  Nb  Nb100  1  0.49703464  0.10556295  0.10164002  1
  Nb  Nb101  1  0.09820559  0.69984560  0.10217441  1
  Nb  Nb102  1  0.90283726  0.50755121  0.10177534  1
  Nb  Nb103  1  0.09601881  0.49869830  0.69801121  1
  Nb  Nb104  1  0.90396562  0.30140055  0.29966980  1
  Nb  Nb105  1  0.29711460  0.90133652  0.69919029  1
  Nb  Nb106  1  0.49619554  0.49841040  0.11199101  1
  Nb  Nb107  1  0.69733634  0.09835565  0.49854536  1
  Nb  Nb108  1  0.29815891  0.70239289  0.49854713  1
  Nb  Nb109  1  0.30565431  0.10790464  0.09732500  1
  Nb  Nb110  1  0.69569638  0.90291104  0.90460533  1
  Nb  Nb111  1  0.50423557  0.10325427  0.49963612  1
  Nb  Nb112  1  0.89973419  0.70332933  0.71152442  1
  Nb  Nb113  1  0.10387224  0.49972042  0.30308802  1
  Nb  Nb114  1  0.90687880  0.69970640  0.89321459  1
  Nb  Nb115  1  0.11087564  0.09965111  0.10410607  1
  Nb  Nb116  1  0.70007629  0.70021689  0.48987547  1
  Nb  Nb117  1  0.70458695  0.69889418  0.10454092  1
  Nb  Nb118  1  0.30077093  0.70261005  0.29741952  1
  Nb  Nb119  1  0.49791937  0.68659056  0.29892334  1
  Nb  Nb120  1  0.68959122  0.69421193  0.30852267  1
  Nb  Nb121  1  0.10666200  0.09549937  0.29758694  1
  Nb  Nb122  1  0.09735310  0.10145612  0.70224230  1
  Nb  Nb123  1  0.10315058  0.90250314  0.89657259  1
  Nb  Nb124  1  0.49811483  0.50563253  0.29114563  1
  Nb  Nb125  1  0.79864525  -0.01029711  -0.00218475  1
  Nb  Nb126  1  -0.00416695  0.60362682  0.00265659  1
  Nb  Nb127  1  0.40084439  0.00706013  0.00322622  1
  Nb  Nb128  1  0.60796929  0.40385985  0.59822254  1
  Nb  Nb129  1  0.61086110  0.60190483  0.59411807  1
  Nb  Nb130  1  0.60135493  0.00796598  0.59412675  1
  Nb  Nb131  1  0.39917067  0.39932020  0.80721998  1
  Nb  Nb132  1  0.59604637  0.40183530  0.19829739  1
  Nb  Nb133  1  0.20374355  0.79657495  0.40404462  1
  Nb  Nb134  1  0.60134990  0.20116872  0.00705736  1
  Nb  Nb135  1  0.19437186  0.60290517  0.20312688  1
  Nb  Nb136  1  0.39524504  0.79072921  0.39585807  1
  Nb  Nb137  1  0.19225971  0.40094901  0.60414774  1
  Nb  Nb138  1  0.00465680  0.40118251  0.39180653  1
  Nb  Nb139  1  0.59993923  0.20311495  0.19891539  1
  Nb  Nb140  1  0.20158240  0.79781796  0.60214450  1
  Nb  Nb141  1  0.00757220  0.40201297  0.79421316  1
  Nb  Nb142  1  0.79793992  0.39513108  0.59820155  1
  Nb  Nb143  1  0.19957188  0.80700927  0.79211082  1
  Nb  Nb144  1  0.40060169  0.40180986  0.39700992  1
  Nb  Nb145  1  0.39203967  -0.00061609  0.80065915  1
  Nb  Nb146  1  0.39694214  0.40373123  -0.00068417  1
  Nb  Nb147  1  0.19546649  0.40411653  0.20014290  1
  Nb  Nb148  1  0.20131726  0.40153695  0.00491848  1
  Nb  Nb149  1  0.79423910  0.20076075  0.59574684  1
  Pd  Pd150  1  0.39553359  0.80958033  0.80556250  1
  Pd  Pd151  1  -0.00950848  0.59704699  0.39459987  1
  Pd  Pd152  1  -0.00549756  0.00378134  0.00801897  1
  Pd  Pd153  1  0.20189326  0.60318745  0.60827309  1
  Pd  Pd154  1  0.79418360  0.79535436  0.20883072  1
  Pd  Pd155  1  0.00485668  0.39906594  0.20987222  1
  Pd  Pd156  1  -0.00999518  0.18712544  0.59301463  1
  Pd  Pd157  1  0.19036687  -0.00408903  0.59651609  1
  Pd  Pd158  1  0.20131649  0.60556997  0.39638525  1
  Pd  Pd159  1  0.59852206  0.00717184  0.20463843  1
  Pd  Pd160  1  0.20408636  0.61382314  0.78874987  1
  Pd  Pd161  1  0.60185409  0.79879790  0.80321704  1
  Pd  Pd162  1  0.81370153  0.40164849  0.79587030  1
  Pd  Pd163  1  0.59391474  -0.00733441  0.39998302  1
  Pd  Pd164  1  0.40817711  0.60311740  0.59457537  1
  Pd  Pd165  1  0.80373872  0.80346428  -0.00858267  1
  Pd  Pd166  1  0.60037321  0.01025585  0.00214838  1
  Pd  Pd167  1  0.79631356  0.20160141  0.20868137  1
  Pd  Pd168  1  0.00393456  0.19280659  0.20399666  1
  Pd  Pd169  1  0.60676902  0.19753117  0.80615093  1
  Pd  Pd170  1  0.39820085  0.00116222  0.19422076  1
  Pd  Pd171  1  0.19660280  0.19956245  0.80009204  1
  Pd  Pd172  1  0.19616383  0.79863188  -0.00476942  1
  Pd  Pd173  1  0.79621548  0.80233361  0.60160306  1
  Pd  Pd174  1  0.59627752  0.19919990  0.38981220  1
  Pd  Pd175  1  0.79760992  0.59680058  0.60020427  1
  Pd  Pd176  1  0.59159840  0.41000763  0.79092446  1
  Pd  Pd177  1  0.60867717  0.20007258  0.60389233  1
  Pd  Pd178  1  0.00328068  0.00564912  0.39794751  1
  Pd  Pd179  1  0.40244081  0.59853252  0.00796492  1
  Pd  Pd180  1  0.80712409  0.19916390  0.40232055  1
  Pd  Pd181  1  0.39907521  0.79629749  0.59569206  1
  Pd  Pd182  1  0.40617487  -0.01199899  0.39524839  1
  Pd  Pd183  1  0.79372963  0.18676227  -0.00588700  1
  Pd  Pd184  1  0.20716770  -0.00344697  0.01000164  1
  Pd  Pd185  1  0.81296324  -0.01048011  0.81177494  1
  Pd  Pd186  1  0.59066425  0.39499291  0.01408103  1
  Pd  Pd187  1  0.41070966  0.00226354  0.60572126  1
  Pd  Pd188  1  -0.00214346  0.00636863  0.19303277  1
  Pd  Pd189  1  0.59808252  0.60637653  0.01309927  1
  Pd  Pd190  1  0.39775448  0.59754101  0.40400913  1
  Pd  Pd191  1  0.80418248  0.81037295  0.81154327  1
  Pd  Pd192  1  0.80729374  0.40596330  0.00420484  1
  Pd  Pd193  1  0.20193175  0.39595499  0.80128131  1
  Pd  Pd194  1  0.00394285  0.40837079  -0.01310091  1
  Pd  Pd195  1  0.60872287  0.80059052  0.60153922  1
  Pd  Pd196  1  0.80565581  0.19771585  0.79958841  1
  Pd  Pd197  1  0.59964652  0.78931028  0.20391554  1
  Pd  Pd198  1  0.80440745  -0.00419129  0.19627516  1
  Pd  Pd199  1  0.79433467  0.40790589  0.20065980  1
  Rh  Rh200  1  0.19886130  -0.00563825  0.79719966  1
  Rh  Rh201  1  0.39381884  0.40263043  0.59800517  1
  Rh  Rh202  1  0.80439503  0.60655612  0.39367398  1
  Rh  Rh203  1  0.39173724  0.19801150  0.80364387  1
  Rh  Rh204  1  -0.00020637  0.00524726  0.59726671  1
  Rh  Rh205  1  0.39352921  0.40325974  0.20206857  1
  Rh  Rh206  1  -0.00530561  0.59193888  0.80760183  1
  Rh  Rh207  1  -0.00055989  0.19812759  0.39313838  1
  Rh  Rh208  1  -0.00143520  0.40578687  0.59789994  1
  Rh  Rh209  1  0.20345964  0.20111908  0.59339420  1
  Rh  Rh210  1  0.00333303  0.18998834  0.00179178  1
  Rh  Rh211  1  0.00801241  0.80659753  0.79687305  1
  Rh  Rh212  1  0.60152540  0.60343706  0.79415073  1
  Rh  Rh213  1  0.19734846  0.20256851  0.19750122  1
  Rh  Rh214  1  0.20347021  0.00053984  0.19055631  1
  Rh  Rh215  1  0.19619201  0.79477891  0.20648519  1
  Rh  Rh216  1  0.79971560  0.79680396  0.39469386  1
  Rh  Rh217  1  -0.00070831  0.79898718  0.20057435  1
  Rh  Rh218  1  0.60652704  0.59801786  0.19668221  1
  Rh  Rh219  1  0.39108511  0.60897236  0.19698608  1
  Rh  Rh220  1  0.19236605  0.20149196  0.00374575  1
  Rh  Rh221  1  0.00088389  -0.00036028  0.79714632  1
  Rh  Rh222  1  0.81670122  0.39844395  0.39842856  1
  Rh  Rh223  1  0.59641737  0.59387851  0.40260504  1
  Rh  Rh224  1  0.40202287  0.19141107  0.21171534  1
  Rh  Rh225  1  0.80693225  0.60387704  -0.00281471  1
  Rh  Rh226  1  -0.00061897  0.79580501  0.60421445  1
  Rh  Rh227  1  0.40372767  0.59467682  0.80282616  1
  Rh  Rh228  1  -0.00019266  0.79609473  0.39994035  1
  Rh  Rh229  1  0.39360830  0.19367414  0.59318430  1
  Rh  Rh230  1  0.40543704  0.80854450  0.00116209  1
  Rh  Rh231  1  0.20086939  0.40143500  0.40067234  1
  Rh  Rh232  1  0.60001003  0.79030243  0.00157772  1
  Rh  Rh233  1  0.79207223  0.00344950  0.59688275  1
  Rh  Rh234  1  0.39744179  0.20321881  0.39868096  1
  Rh  Rh235  1  0.40807381  0.19754933  -0.00905334  1
  Rh  Rh236  1  0.00658706  0.79262784  -0.00097617  1
  Rh  Rh237  1  0.58669497  0.40903069  0.39502387  1
  Rh  Rh238  1  0.20277916  0.19246698  0.40164966  1
  Rh  Rh239  1  0.59326575  0.80020965  0.39047951  1
  Rh  Rh240  1  0.00188845  0.60440137  0.19859387  1
  Rh  Rh241  1  0.00038021  0.19977202  0.80022210  1
  Rh  Rh242  1  0.58920357  -0.00144359  0.78918060  1
  Rh  Rh243  1  0.40332136  0.79538888  0.20485106  1
  Rh  Rh244  1  0.79306198  0.60376227  0.20232746  1
  Rh  Rh245  1  0.80014899  -0.00375205  0.39715997  1
  Rh  Rh246  1  0.19188331  0.59916684  0.01065130  1
  Rh  Rh247  1  0.80272284  0.60285547  0.80836578  1
  Rh  Rh248  1  0.19561284  -0.00633380  0.40098162  1
  Rh  Rh249  1  -0.00962406  0.60467495  0.60181593  1
