# generated using pymatgen
data_ZrScNbPdRh
_symmetry_space_group_name_H-M   'P 1'
_cell_length_a   16.56283934
_cell_length_b   16.55874785
_cell_length_c   16.55968499
_cell_angle_alpha   89.99245569
_cell_angle_beta   90.01504279
_cell_angle_gamma   90.03643893
_symmetry_Int_Tables_number   1
_chemical_formula_structural   ZrScNbPdRh
_chemical_formula_sum   'Zr50 Sc50 Nb50 Pd50 Rh50'
_cell_volume   4541.65610713
_cell_formula_units_Z   50
loop_
 _symmetry_equiv_pos_site_id
 _symmetry_equiv_pos_as_xyz
  1  'x, y, z'
loop_
 _atom_site_type_symbol
 _atom_site_label
 _atom_site_symmetry_multiplicity
 _atom_site_fract_x
 _atom_site_fract_y
 _atom_site_fract_z
 _atom_site_occupancy
  Zr  Zr0  1  0.70106730  0.70573318  0.30739442  1
  Zr  Zr1  1  0.90053741  0.50133461  0.30184900  1
  Zr  Zr2  1  0.30180837  0.30328170  0.10269096  1
  Zr  Zr3  1  0.89613077  0.09453061  0.30057090  1
  Zr  Zr4  1  0.10532716  0.69987110  0.29478555  1
  Zr  Zr5  1  0.10346825  0.70557885  0.90360414  1
  Zr  Zr6  1  0.49661303  0.09646227  0.10627494  1
  Zr  Zr7  1  0.69708580  0.30337873  0.70786672  1
  Zr  Zr8  1  0.30174440  0.50103716  0.10593347  1
  Zr  Zr9  1  0.50230293  0.50312526  0.90321389  1
  Zr  Zr10  1  0.08886159  0.90013624  0.69317552  1
  Zr  Zr11  1  0.30409971  0.50655348  0.49982862  1
  Zr  Zr12  1  0.70059931  0.89238457  0.49579417  1
  Zr  Zr13  1  0.50319034  0.90165815  0.09675512  1
  Zr  Zr14  1  0.29194655  0.09802311  0.89395054  1
  Zr  Zr15  1  0.10372269  0.09807057  0.88865915  1
  Zr  Zr16  1  0.89348607  0.10587755  0.10215603  1
  Zr  Zr17  1  0.69466196  0.70174954  0.90111307  1
  Zr  Zr18  1  0.30723540  0.09670779  0.10192403  1
  Zr  Zr19  1  0.90045669  0.50022237  0.49878877  1
  Zr  Zr20  1  0.09220378  0.90266386  0.90397180  1
  Zr  Zr21  1  0.29983705  0.89671533  0.89838005  1
  Zr  Zr22  1  0.10581841  0.70523849  0.50392387  1
  Zr  Zr23  1  0.49886564  0.29863505  0.70071610  1
  Zr  Zr24  1  0.69883057  0.89295019  0.09643024  1
  Zr  Zr25  1  0.69243991  0.69745462  0.50173605  1
  Zr  Zr26  1  0.28667096  0.30141817  0.90139519  1
  Zr  Zr27  1  0.10260015  0.50722982  0.70174999  1
  Zr  Zr28  1  0.50261671  0.09177610  0.29752139  1
  Zr  Zr29  1  0.30774627  0.70589476  0.88810333  1
  Zr  Zr30  1  0.09885907  0.09544188  0.70051370  1
  Zr  Zr31  1  0.50367858  0.09683291  0.70088399  1
  Zr  Zr32  1  0.10078096  0.30042938  0.09685191  1
  Zr  Zr33  1  0.30224080  0.50797785  0.70000005  1
  Zr  Zr34  1  0.70019156  0.50542877  0.49880370  1
  Zr  Zr35  1  0.89228794  0.29728603  0.29576857  1
  Zr  Zr36  1  0.70254591  0.90371416  0.30237226  1
  Zr  Zr37  1  0.69755521  0.30949434  0.30288149  1
  Zr  Zr38  1  0.90106018  0.29147081  0.09613193  1
  Zr  Zr39  1  0.70019043  0.09117937  0.30269036  1
  Zr  Zr40  1  0.90245420  0.50452236  0.10109327  1
  Zr  Zr41  1  0.49994363  0.09022537  0.50452762  1
  Zr  Zr42  1  0.90611194  0.10042157  0.49742796  1
  Zr  Zr43  1  0.30458041  0.09889512  0.29572188  1
  Zr  Zr44  1  0.28776889  0.09746872  0.49605682  1
  Zr  Zr45  1  0.49779982  0.70079429  0.29724942  1
  Zr  Zr46  1  0.69192481  0.49905684  0.89740251  1
  Zr  Zr47  1  0.09587765  0.10079151  0.50860308  1
  Zr  Zr48  1  0.10056473  0.90884067  0.49314780  1
  Zr  Zr49  1  0.70484716  0.29653825  0.10188110  1
  Sc  Sc50  1  0.49835256  0.70282613  0.69914415  1
  Sc  Sc51  1  0.89972570  0.89727176  0.50918267  1
  Sc  Sc52  1  0.70517651  0.49661077  0.30443858  1
  Sc  Sc53  1  0.51198746  0.09810015  0.90329421  1
  Sc  Sc54  1  0.10075390  0.49925343  0.89978928  1
  Sc  Sc55  1  0.49607098  0.49885160  0.30315831  1
  Sc  Sc56  1  0.48754156  0.31228375  0.50326609  1
  Sc  Sc57  1  0.70210109  0.69827263  0.09067034  1
  Sc  Sc58  1  0.90215786  0.29407681  0.50399486  1
  Sc  Sc59  1  0.30151547  0.50599836  0.90824914  1
  Sc  Sc60  1  0.70280095  0.89665381  0.70327711  1
  Sc  Sc61  1  0.10100780  0.29797449  0.49842774  1
  Sc  Sc62  1  0.31249357  0.89531935  0.10238004  1
  Sc  Sc63  1  0.49738897  0.50144579  0.09717478  1
  Sc  Sc64  1  0.90267240  0.69199328  0.29725193  1
  Sc  Sc65  1  0.89162067  0.70290603  0.90699835  1
  Sc  Sc66  1  0.09523165  0.30051531  0.70430112  1
  Sc  Sc67  1  0.68809166  0.29782228  0.90197074  1
  Sc  Sc68  1  0.90872402  0.50023756  0.89818967  1
  Sc  Sc69  1  0.29700178  0.29958027  0.49917082  1
  Sc  Sc70  1  0.30526670  0.88856629  0.70179127  1
  Sc  Sc71  1  0.50821592  0.89641256  0.28878681  1
  Sc  Sc72  1  0.49944587  0.70597430  0.10250078  1
  Sc  Sc73  1  0.91771841  0.89880478  0.09785942  1
  Sc  Sc74  1  0.90818802  0.09621762  0.89583059  1
  Sc  Sc75  1  0.10999907  0.30813087  0.30445547  1
  Sc  Sc76  1  0.69551797  0.70468253  0.69325910  1
  Sc  Sc77  1  0.90801317  0.49324904  0.70684590  1
  Sc  Sc78  1  0.70225032  0.09463320  0.70587668  1
  Sc  Sc79  1  0.29133347  0.10138520  0.69643283  1
  Sc  Sc80  1  0.09850545  0.09381638  0.31880385  1
  Sc  Sc81  1  0.50181200  0.31196257  0.09882098  1
  Sc  Sc82  1  0.71002542  0.09162945  0.49714161  1
  Sc  Sc83  1  0.88607317  0.70469740  0.49875626  1
  Sc  Sc84  1  0.29827000  0.30577190  0.30070910  1
  Sc  Sc85  1  0.30134731  0.69410594  0.10704200  1
  Sc  Sc86  1  0.10336859  0.50467214  0.30229526  1
  Sc  Sc87  1  0.08501664  0.09810701  0.09604392  1
  Sc  Sc88  1  0.70285775  0.10252550  0.89910410  1
  Sc  Sc89  1  0.10593594  0.51197991  0.10277973  1
  Sc  Sc90  1  0.49658025  0.30600888  0.29589423  1
  Sc  Sc91  1  0.70340621  0.88959939  0.89289271  1
  Sc  Sc92  1  0.69333935  0.49728087  0.09698384  1
  Sc  Sc93  1  0.70063692  0.10118714  0.09470785  1
  Sc  Sc94  1  0.30089712  0.70120490  0.30353478  1
  Sc  Sc95  1  0.90121985  0.09518999  0.69523607  1
  Sc  Sc96  1  0.50576582  0.89605841  0.69343557  1
  Sc  Sc97  1  0.29917283  0.88837003  0.50036130  1
  Sc  Sc98  1  0.10196082  0.50006156  0.49181841  1
  Sc  Sc99  1  0.90396547  0.69858121  0.09943067  1
  Nb  Nb100  1  0.90329874  0.89832640  0.29960944  1
  Nb  Nb101  1  0.09871042  0.89278619  0.10166202  1
  Nb  Nb102  1  0.49716390  0.89533620  0.50495906  1
  Nb  Nb103  1  0.90009396  0.30419003  0.70272429  1
  Nb  Nb104  1  0.49545526  0.88756941  0.89714335  1
  Nb  Nb105  1  0.69946824  0.30413652  0.50119731  1
  Nb  Nb106  1  0.28802601  0.50430456  0.29610221  1
  Nb  Nb107  1  0.90635626  0.30449127  0.89666910  1
  Nb  Nb108  1  0.49588237  0.30238677  0.89777365  1
  Nb  Nb109  1  0.89901421  0.70637099  0.69447902  1
  Nb  Nb110  1  0.29332624  0.89848010  0.30379269  1
  Nb  Nb111  1  0.89307503  0.89350652  0.70783791  1
  Nb  Nb112  1  0.50438659  0.70521326  0.89781384  1
  Nb  Nb113  1  0.09737485  0.29568828  0.89943254  1
  Nb  Nb114  1  0.50294729  0.49719779  0.69651769  1
  Nb  Nb115  1  0.09423047  0.71286527  0.10327704  1
  Nb  Nb116  1  0.09839088  0.69892293  0.69930427  1
  Nb  Nb117  1  0.89680080  0.89869982  0.89469751  1
  Nb  Nb118  1  0.49848510  0.50843896  0.50758627  1
  Nb  Nb119  1  0.09944061  0.89456817  0.29680562  1
  Nb  Nb120  1  0.30214736  0.70032061  0.50448338  1
  Nb  Nb121  1  0.30427399  0.30534988  0.69900634  1
  Nb  Nb122  1  0.28784370  0.69692706  0.69085056  1
  Nb  Nb123  1  0.49621008  0.70168631  0.49854919  1
  Nb  Nb124  1  0.69607336  0.50160276  0.70009919  1
  Nb  Nb125  1  0.40037912  -0.00569758  0.40110554  1
  Nb  Nb126  1  0.19451968  -0.00563195  0.19813233  1
  Nb  Nb127  1  0.80408095  0.80346731  0.20245570  1
  Nb  Nb128  1  0.80752397  -0.00615921  -0.00474563  1
  Nb  Nb129  1  0.60429099  0.20601668  0.59268497  1
  Nb  Nb130  1  0.40339982  0.00014897  0.80121292  1
  Nb  Nb131  1  0.39975486  0.39888604  0.79901879  1
  Nb  Nb132  1  0.39944729  0.20307676  -0.00648685  1
  Nb  Nb133  1  0.60032037  0.60232323  0.20333660  1
  Nb  Nb134  1  0.39862978  0.20112733  0.80268758  1
  Nb  Nb135  1  0.19670600  -0.00632628  0.00751542  1
  Nb  Nb136  1  0.60178837  0.40543105  0.60002794  1
  Nb  Nb137  1  -0.00441357  0.79620144  0.79573474  1
  Nb  Nb138  1  0.80838107  0.21069171  0.80074976  1
  Nb  Nb139  1  0.19993418  0.19172637  0.19903802  1
  Nb  Nb140  1  0.80516869  0.39343972  -0.00532815  1
  Nb  Nb141  1  -0.00186274  0.40046759  0.19828946  1
  Nb  Nb142  1  0.59698352  0.20271378  0.40446383  1
  Nb  Nb143  1  0.79552377  0.39925281  0.60600555  1
  Nb  Nb144  1  0.40523906  0.19232074  0.40026046  1
  Nb  Nb145  1  0.79673241  0.59907782  0.79359052  1
  Nb  Nb146  1  0.20570436  0.40499527  0.60510167  1
  Nb  Nb147  1  0.00036218  0.60749913  0.60356468  1
  Nb  Nb148  1  0.00331691  0.80324243  0.39520192  1
  Nb  Nb149  1  0.60111740  0.20068148  0.20647460  1
  Pd  Pd150  1  0.59019917  0.80481320  0.40159450  1
  Pd  Pd151  1  0.39614796  0.60019219  0.39513412  1
  Pd  Pd152  1  0.80196174  -0.00896770  0.18760843  1
  Pd  Pd153  1  0.00307278  0.20758273  0.39544352  1
  Pd  Pd154  1  0.19088531  0.80484145  0.79330244  1
  Pd  Pd155  1  0.00583211  0.00337098  0.20437790  1
  Pd  Pd156  1  0.80019507  0.40346499  0.80430326  1
  Pd  Pd157  1  -0.00949097  0.61015428  0.79876805  1
  Pd  Pd158  1  0.20864081  0.80116176  0.00874879  1
  Pd  Pd159  1  0.40412533  0.60940087  0.60438029  1
  Pd  Pd160  1  0.20048453  0.60843833  0.00157954  1
  Pd  Pd161  1  0.40346594  0.80641135  0.39615234  1
  Pd  Pd162  1  0.20230877  0.60247502  0.80813235  1
  Pd  Pd163  1  0.79661074  0.20403228  0.60904047  1
  Pd  Pd164  1  0.80331238  0.40464843  0.19052634  1
  Pd  Pd165  1  0.40114090  0.19677665  0.59696990  1
  Pd  Pd166  1  0.40421338  0.59965537  0.79762509  1
  Pd  Pd167  1  0.40428716  0.61045304  0.00188867  1
  Pd  Pd168  1  0.19518731  0.21123473  0.60519511  1
  Pd  Pd169  1  0.20765958  -0.01165190  0.60670921  1
  Pd  Pd170  1  0.39901107  0.40632163  0.20572933  1
  Pd  Pd171  1  0.19580153  0.40808553  0.00403721  1
  Pd  Pd172  1  0.00118097  0.40321325  0.00359413  1
  Pd  Pd173  1  0.79036054  0.60697468  0.19947401  1
  Pd  Pd174  1  0.80062442  -0.00584792  0.60121371  1
  Pd  Pd175  1  0.39893992  0.00442210  -0.01190989  1
  Pd  Pd176  1  0.59105689  0.40129802  0.40771757  1
  Pd  Pd177  1  -0.00458946  0.19947371  0.79388702  1
  Pd  Pd178  1  0.61042765  -0.00868046  -0.00916491  1
  Pd  Pd179  1  0.20860264  0.80227443  0.19549647  1
  Pd  Pd180  1  0.00418744  0.40471034  0.59888764  1
  Pd  Pd181  1  0.79881166  0.58841660  -0.00827949  1
  Pd  Pd182  1  0.00514566  0.60663447  0.00064770  1
  Pd  Pd183  1  -0.00235006  0.39335693  0.39399018  1
  Pd  Pd184  1  0.38978211  -0.00651082  0.60267287  1
  Pd  Pd185  1  0.59053414  0.20463522  0.00881271  1
  Pd  Pd186  1  0.60084372  0.60751393  0.79322738  1
  Pd  Pd187  1  0.19987314  0.40173293  0.79657561  1
  Pd  Pd188  1  0.79355718  0.20171445  0.39972674  1
  Pd  Pd189  1  0.39906034  0.79157231  0.00390851  1
  Pd  Pd190  1  0.19919218  0.80662359  0.60136010  1
  Pd  Pd191  1  -0.00065935  0.61248766  0.40879115  1
  Pd  Pd192  1  0.59791968  -0.01044778  0.80738845  1
  Pd  Pd193  1  0.80824224  0.59268997  0.60911094  1
  Pd  Pd194  1  0.19969083  0.18940829  0.00794725  1
  Pd  Pd195  1  0.01234080  0.20420243  0.21380989  1
  Pd  Pd196  1  0.61149021  -0.00034364  0.59655673  1
  Pd  Pd197  1  0.59608025  0.59572483  0.39420705  1
  Pd  Pd198  1  -0.00013370  0.19522604  -0.00877739  1
  Pd  Pd199  1  0.39427943  0.40147303  0.39757864  1
  Rh  Rh200  1  0.80917620  0.39742282  0.41149227  1
  Rh  Rh201  1  -0.00616837  0.79401521  0.20761217  1
  Rh  Rh202  1  0.01073149  0.39761925  0.80427549  1
  Rh  Rh203  1  0.19339417  0.39837372  0.19672472  1
  Rh  Rh204  1  0.80297554  0.00865392  0.80561832  1
  Rh  Rh205  1  -0.00701650  -0.00807411  0.79340652  1
  Rh  Rh206  1  0.59237590  0.60105173  0.60153175  1
  Rh  Rh207  1  0.59284147  0.60545804  0.00820969  1
  Rh  Rh208  1  0.80189736  0.78722394  0.79719454  1
  Rh  Rh209  1  0.39563793  0.39647913  -0.00865165  1
  Rh  Rh210  1  0.19574529  0.79599435  0.40224734  1
  Rh  Rh211  1  0.59798010  0.79901416  0.59528335  1
  Rh  Rh212  1  0.19953317  0.20676663  0.79125645  1
  Rh  Rh213  1  0.60128498  0.19605266  0.79510942  1
  Rh  Rh214  1  0.40510839  0.79977217  0.79160468  1
  Rh  Rh215  1  0.61211007  0.79022419  0.19545796  1
  Rh  Rh216  1  0.20685474  0.40639148  0.40936640  1
  Rh  Rh217  1  0.19918117  0.60564907  0.19819666  1
  Rh  Rh218  1  0.60043995  0.40562839  0.19995548  1
  Rh  Rh219  1  0.59671190  0.79982136  0.79754733  1
  Rh  Rh220  1  0.81039018  0.81027886  0.01112075  1
  Rh  Rh221  1  0.39996304  0.79127081  0.60081625  1
  Rh  Rh222  1  -0.00431815  0.79574563  -0.00687242  1
  Rh  Rh223  1  0.79158979  0.80282011  0.60089772  1
  Rh  Rh224  1  0.00628549  0.59649374  0.19730001  1
  Rh  Rh225  1  0.60771837  0.00464528  0.19046276  1
  Rh  Rh226  1  0.40428221  0.59666000  0.20491885  1
  Rh  Rh227  1  0.59297853  -0.00731273  0.40832416  1
  Rh  Rh228  1  -0.00908235  -0.00132725  0.60141314  1
  Rh  Rh229  1  -0.00201589  0.79629710  0.59776541  1
  Rh  Rh230  1  0.80766179  0.19820942  -0.01602162  1
  Rh  Rh231  1  0.20660103  0.60489989  0.40207660  1
  Rh  Rh232  1  -0.00068272  0.00116757  -0.00213033  1
  Rh  Rh233  1  -0.00625105  -0.00809616  0.39980063  1
  Rh  Rh234  1  0.39734600  0.40719658  0.60422026  1
  Rh  Rh235  1  0.80021915  0.60050631  0.39827057  1
  Rh  Rh236  1  0.00108529  0.20101340  0.60468612  1
  Rh  Rh237  1  0.81067373  0.80279797  0.39295483  1
  Rh  Rh238  1  0.39735888  0.80055478  0.20496464  1
  Rh  Rh239  1  0.78759060  0.19537952  0.20965229  1
  Rh  Rh240  1  0.81050281  -0.00679834  0.40657220  1
  Rh  Rh241  1  0.19299261  0.59549996  0.59217854  1
  Rh  Rh242  1  0.20514795  -0.00424502  0.39526075  1
  Rh  Rh243  1  0.59453221  0.79976798  -0.00283180  1
  Rh  Rh244  1  0.58887011  0.40387169  0.79882007  1
  Rh  Rh245  1  0.39484643  -0.01710884  0.21085514  1
  Rh  Rh246  1  0.20666959  0.20194811  0.39381672  1
  Rh  Rh247  1  0.20540491  -0.01156283  0.79873542  1
  Rh  Rh248  1  0.40404916  0.21231398  0.19670917  1
  Rh  Rh249  1  0.60398575  0.39702804  -0.00036664  1
