# generated using pymatgen
data_ZrScNbPdRh
_symmetry_space_group_name_H-M   'P 1'
_cell_length_a   16.55276850
_cell_length_b   16.55348420
_cell_length_c   16.55387319
_cell_angle_alpha   90.00579184
_cell_angle_beta   90.01006879
_cell_angle_gamma   89.95854297
_symmetry_Int_Tables_number   1
_chemical_formula_structural   ZrScNbPdRh
_chemical_formula_sum   'Zr50 Sc50 Nb50 Pd50 Rh50'
_cell_volume   4535.85916058
_cell_formula_units_Z   50
loop_
 _symmetry_equiv_pos_site_id
 _symmetry_equiv_pos_as_xyz
  1  'x, y, z'
loop_
 _atom_site_type_symbol
 _atom_site_label
 _atom_site_symmetry_multiplicity
 _atom_site_fract_x
 _atom_site_fract_y
 _atom_site_fract_z
 _atom_site_occupancy
  Zr  Zr0  1  0.50261869  0.50851798  0.69533809  1
  Zr  Zr1  1  0.29708866  0.68561643  0.29664672  1
  Zr  Zr2  1  0.50833135  0.29654190  0.28878360  1
  Zr  Zr3  1  0.70298627  0.89257438  0.69754576  1
  Zr  Zr4  1  0.50106680  0.70167142  0.70110135  1
  Zr  Zr5  1  0.30642048  0.69664311  0.09875738  1
  Zr  Zr6  1  0.10226597  0.69069573  0.70691883  1
  Zr  Zr7  1  0.10075152  0.90194936  0.09496905  1
  Zr  Zr8  1  0.29608125  0.28995310  0.09746594  1
  Zr  Zr9  1  0.90988100  0.90687004  0.09835627  1
  Zr  Zr10  1  0.70081138  0.70590552  0.49542922  1
  Zr  Zr11  1  0.90042631  0.29908540  0.30550051  1
  Zr  Zr12  1  0.70434180  0.10049967  0.90627051  1
  Zr  Zr13  1  0.89647793  0.69919673  0.30292320  1
  Zr  Zr14  1  0.29082884  0.10315633  0.90130234  1
  Zr  Zr15  1  0.69332363  0.49779246  0.70598981  1
  Zr  Zr16  1  0.69540207  0.31604235  0.10388004  1
  Zr  Zr17  1  0.89375888  0.09932922  0.50531447  1
  Zr  Zr18  1  0.90044135  0.69455858  0.90044780  1
  Zr  Zr19  1  0.29785289  0.10428021  0.51065534  1
  Zr  Zr20  1  0.30881431  0.89354075  0.30558433  1
  Zr  Zr21  1  0.29867163  0.29094708  0.69583730  1
  Zr  Zr22  1  0.09402487  0.30572161  0.30354208  1
  Zr  Zr23  1  0.70513494  0.90390988  0.49528676  1
  Zr  Zr24  1  0.49990217  0.70248517  0.09949028  1
  Zr  Zr25  1  0.70506642  0.11095881  0.70174764  1
  Zr  Zr26  1  0.69561907  0.09124375  0.29399585  1
  Zr  Zr27  1  0.29687515  0.88881939  0.09798078  1
  Zr  Zr28  1  0.09761894  0.89994245  0.90068766  1
  Zr  Zr29  1  0.10704518  0.70109946  0.50655190  1
  Zr  Zr30  1  0.69040156  0.89682151  0.30639897  1
  Zr  Zr31  1  0.10008755  0.29463508  0.89642694  1
  Zr  Zr32  1  0.08994359  0.29504161  0.70016123  1
  Zr  Zr33  1  0.89348684  0.10187651  0.09343172  1
  Zr  Zr34  1  0.69450595  0.89948849  0.90873301  1
  Zr  Zr35  1  0.30246708  0.69180115  0.89529164  1
  Zr  Zr36  1  0.90133207  0.91403386  0.69819890  1
  Zr  Zr37  1  0.09931158  0.29641656  0.49785325  1
  Zr  Zr38  1  0.30266060  0.70099075  0.49262184  1
  Zr  Zr39  1  0.11028868  0.49724908  0.30081652  1
  Zr  Zr40  1  0.30768705  0.50677455  0.70826562  1
  Zr  Zr41  1  0.31067716  0.89924715  0.70821445  1
  Zr  Zr42  1  0.89691870  0.49731934  0.90175036  1
  Zr  Zr43  1  0.09079909  0.09185192  0.09713962  1
  Zr  Zr44  1  0.70926962  0.30073009  0.49692491  1
  Zr  Zr45  1  0.90292203  0.30100916  0.50314686  1
  Zr  Zr46  1  0.70469985  0.70266766  0.30022629  1
  Zr  Zr47  1  0.70088359  0.49890093  0.29273528  1
  Zr  Zr48  1  0.09633660  0.89518635  0.69495437  1
  Zr  Zr49  1  0.89490264  0.49948492  0.09690918  1
  Sc  Sc50  1  0.50655374  0.30701638  0.69916501  1
  Sc  Sc51  1  0.09302285  0.49393006  0.11156050  1
  Sc  Sc52  1  0.08701071  0.30370083  0.10253178  1
  Sc  Sc53  1  0.69543723  0.69798001  0.69611998  1
  Sc  Sc54  1  0.30318225  0.50905145  0.49533787  1
  Sc  Sc55  1  0.28476922  0.30445937  0.30061722  1
  Sc  Sc56  1  0.90691144  0.49647429  0.69956749  1
  Sc  Sc57  1  0.50219516  0.10918196  0.50618041  1
  Sc  Sc58  1  0.49857863  0.50478855  0.89245087  1
  Sc  Sc59  1  0.29469223  0.90090369  0.49743021  1
  Sc  Sc60  1  0.09762206  0.10414313  0.69584475  1
  Sc  Sc61  1  0.29620526  0.29967042  0.50297297  1
  Sc  Sc62  1  0.29208775  0.09850599  0.09212330  1
  Sc  Sc63  1  0.08686697  0.49510457  0.88763280  1
  Sc  Sc64  1  0.09735122  0.10089666  0.89971943  1
  Sc  Sc65  1  0.49856778  0.69427330  0.50336081  1
  Sc  Sc66  1  0.70304303  0.30744283  0.89280726  1
  Sc  Sc67  1  0.09857866  0.90526063  0.30613559  1
  Sc  Sc68  1  0.29975378  0.09386982  0.31236272  1
  Sc  Sc69  1  0.50108187  0.09624536  0.29688669  1
  Sc  Sc70  1  0.50289904  0.70199049  0.29031966  1
  Sc  Sc71  1  0.70588105  0.50010890  0.50342873  1
  Sc  Sc72  1  0.49945192  0.10005114  0.89851093  1
  Sc  Sc73  1  0.30152975  0.70055350  0.69962762  1
  Sc  Sc74  1  0.49980610  0.89231911  0.48819117  1
  Sc  Sc75  1  0.90300392  0.90604795  0.89467142  1
  Sc  Sc76  1  0.90385937  0.30311733  0.89971957  1
  Sc  Sc77  1  0.89597700  0.09986000  0.89417123  1
  Sc  Sc78  1  0.50228516  0.11367490  0.70033007  1
  Sc  Sc79  1  0.49998112  0.50475913  0.09877272  1
  Sc  Sc80  1  0.89470948  0.68660391  0.49987488  1
  Sc  Sc81  1  0.50164221  0.10733250  0.10912321  1
  Sc  Sc82  1  0.90850450  0.50758029  0.29967809  1
  Sc  Sc83  1  0.90432192  0.09415277  0.29633932  1
  Sc  Sc84  1  0.69219642  0.90934810  0.10142634  1
  Sc  Sc85  1  0.29566531  0.50601263  0.10852233  1
  Sc  Sc86  1  0.90060407  0.70255608  0.70011819  1
  Sc  Sc87  1  0.70354955  0.69736336  0.89377811  1
  Sc  Sc88  1  0.09579434  0.50019266  0.49885121  1
  Sc  Sc89  1  0.70938465  0.49940548  0.89955718  1
  Sc  Sc90  1  0.89776419  0.90620211  0.50490671  1
  Sc  Sc91  1  0.89186268  0.90020061  0.30225112  1
  Sc  Sc92  1  0.30422229  0.89312728  0.89756533  1
  Sc  Sc93  1  0.90239520  0.69993961  0.11185711  1
  Sc  Sc94  1  0.50512069  0.30361991  0.50996191  1
  Sc  Sc95  1  0.49910570  0.50971452  0.29699070  1
  Sc  Sc96  1  0.70222890  0.70142701  0.10745633  1
  Sc  Sc97  1  0.10326872  0.70719214  0.10947421  1
  Sc  Sc98  1  0.50045464  0.70391655  0.90566911  1
  Sc  Sc99  1  0.50000789  0.50472310  0.50272721  1
  Nb  Nb100  1  0.09878821  0.89953248  0.50061057  1
  Nb  Nb101  1  0.29860294  0.49571021  0.30051315  1
  Nb  Nb102  1  0.50299597  0.90107337  0.28932446  1
  Nb  Nb103  1  0.89725955  0.49714648  0.49908403  1
  Nb  Nb104  1  0.49921006  0.89035585  0.09384351  1
  Nb  Nb105  1  0.09564307  0.69234927  0.30292684  1
  Nb  Nb106  1  0.89903373  0.30543002  0.10021341  1
  Nb  Nb107  1  0.90099384  0.10700999  0.70068510  1
  Nb  Nb108  1  0.49746622  0.30000097  0.09829414  1
  Nb  Nb109  1  0.49566605  0.30024038  0.90636447  1
  Nb  Nb110  1  0.49884155  0.90328847  0.70999011  1
  Nb  Nb111  1  0.70340656  0.29792813  0.69785902  1
  Nb  Nb112  1  0.30275190  0.49931292  0.90224450  1
  Nb  Nb113  1  0.69787148  0.09795727  0.49940701  1
  Nb  Nb114  1  0.70058924  0.10512445  0.09761321  1
  Nb  Nb115  1  0.10460224  0.49704764  0.70319377  1
  Nb  Nb116  1  0.09767961  0.69548415  0.89750761  1
  Nb  Nb117  1  0.10681909  0.08908175  0.49038178  1
  Nb  Nb118  1  0.69887308  0.29980785  0.30008476  1
  Nb  Nb119  1  0.29516777  0.29674173  0.90225811  1
  Nb  Nb120  1  0.70419640  0.50624933  0.09494324  1
  Nb  Nb121  1  0.10081447  0.09855734  0.30139850  1
  Nb  Nb122  1  0.30331260  0.09858318  0.70299505  1
  Nb  Nb123  1  0.89990080  0.28171834  0.69437927  1
  Nb  Nb124  1  0.49905127  0.90073592  0.90132817  1
  Nb  Nb125  1  0.00513067  0.60223351  -0.00051992  1
  Nb  Nb126  1  0.79575866  0.20601835  0.19621716  1
  Nb  Nb127  1  0.39776541  0.39480979  0.19901218  1
  Nb  Nb128  1  0.40040652  0.39777061  0.39195365  1
  Nb  Nb129  1  0.20133075  -0.00030015  0.20245326  1
  Nb  Nb130  1  0.59909354  -0.00228161  0.60565434  1
  Nb  Nb131  1  0.39819228  -0.00875482  0.19388733  1
  Nb  Nb132  1  0.19775936  0.40403337  0.60932054  1
  Nb  Nb133  1  0.60718149  0.60276161  0.39704609  1
  Nb  Nb134  1  0.60742330  0.59889660  0.00319815  1
  Nb  Nb135  1  0.39593853  0.20581853  0.80533496  1
  Nb  Nb136  1  0.40575341  0.20901756  0.39786946  1
  Nb  Nb137  1  0.60558652  0.20368625  0.39628947  1
  Nb  Nb138  1  0.60000474  0.20855893  0.00481225  1
  Nb  Nb139  1  0.00548459  0.79688583  0.40692082  1
  Nb  Nb140  1  0.40652423  -0.00064185  0.60781113  1
  Nb  Nb141  1  0.18841289  0.19186755  0.20388563  1
  Nb  Nb142  1  0.40472809  -0.00598533  0.00245910  1
  Nb  Nb143  1  0.39638181  0.39570047  -0.00000514  1
  Nb  Nb144  1  0.19228219  0.59505973  -0.00615417  1
  Nb  Nb145  1  0.59763614  -0.00249073  0.79710438  1
  Nb  Nb146  1  0.80241685  0.80253922  0.00128811  1
  Nb  Nb147  1  0.20542317  0.39873767  0.80000630  1
  Nb  Nb148  1  0.20210556  0.40344957  -0.00610872  1
  Nb  Nb149  1  0.20292843  -0.00021304  0.79525633  1
  Pd  Pd150  1  0.39930445  0.39320192  0.80386205  1
  Pd  Pd151  1  0.59635667  0.20185542  0.80939194  1
  Pd  Pd152  1  -0.00600619  -0.00567218  0.40084342  1
  Pd  Pd153  1  0.38529636  0.19536688  0.20946216  1
  Pd  Pd154  1  0.80749000  0.40034879  0.20511538  1
  Pd  Pd155  1  0.39231859  0.40365756  0.59155476  1
  Pd  Pd156  1  0.79655606  0.81225091  0.19162708  1
  Pd  Pd157  1  0.79217268  -0.00020487  0.79826394  1
  Pd  Pd158  1  0.59860536  0.79986031  0.80476074  1
  Pd  Pd159  1  0.00359326  0.60125187  0.40470901  1
  Pd  Pd160  1  0.59424783  0.40698917  -0.00610730  1
  Pd  Pd161  1  -0.00442430  0.19914754  0.20005985  1
  Pd  Pd162  1  -0.00432190  0.80025445  0.79757958  1
  Pd  Pd163  1  0.80920252  0.79675500  0.59541219  1
  Pd  Pd164  1  -0.00589883  0.79186559  0.00164981  1
  Pd  Pd165  1  0.59381758  0.40414393  0.40246263  1
  Pd  Pd166  1  -0.00857127  0.79524708  0.59323525  1
  Pd  Pd167  1  0.80245968  0.40062092  0.60886189  1
  Pd  Pd168  1  0.00324581  0.80531538  0.21337777  1
  Pd  Pd169  1  -0.00341368  0.19931633  -0.00418527  1
  Pd  Pd170  1  0.40891470  0.78851278  0.39301321  1
  Pd  Pd171  1  0.20474191  0.19985043  0.39782415  1
  Pd  Pd172  1  0.40641021  0.19300999  -0.00261130  1
  Pd  Pd173  1  0.20623120  0.59434096  0.59844827  1
  Pd  Pd174  1  -0.00071663  0.59750798  0.60252141  1
  Pd  Pd175  1  0.00548521  0.00829507  0.59795741  1
  Pd  Pd176  1  0.59318662  0.80613271  0.59509055  1
  Pd  Pd177  1  0.59649829  0.40055783  0.80443602  1
  Pd  Pd178  1  0.79555338  0.18898840  0.39137220  1
  Pd  Pd179  1  0.80425794  0.80286909  0.80550857  1
  Pd  Pd180  1  0.79875548  0.00041071  0.19572627  1
  Pd  Pd181  1  0.59062004  0.01148807  0.00285627  1
  Pd  Pd182  1  0.19983309  0.80345233  0.80008417  1
  Pd  Pd183  1  0.40285794  0.80591747  0.59737652  1
  Pd  Pd184  1  0.20510279  -0.00396116  0.60625075  1
  Pd  Pd185  1  0.79698552  0.59664059  0.60694942  1
  Pd  Pd186  1  0.80245786  0.59860645  0.78922077  1
  Pd  Pd187  1  0.20758377  0.80214784  0.60431522  1
  Pd  Pd188  1  0.58960936  0.00712991  0.40816304  1
  Pd  Pd189  1  0.00219809  0.40206819  0.60080717  1
  Pd  Pd190  1  0.19357354  0.79946480  0.39334452  1
  Pd  Pd191  1  0.79337300  0.21458453  0.00195885  1
  Pd  Pd192  1  0.80541232  0.40785007  0.39413660  1
  Pd  Pd193  1  0.81006037  0.39248839  0.78992940  1
  Pd  Pd194  1  0.60653363  0.40249135  0.59614218  1
  Pd  Pd195  1  0.40766296  0.00846122  0.40762431  1
  Pd  Pd196  1  -0.00046804  0.19031830  0.40478800  1
  Pd  Pd197  1  0.20028094  0.78939633  -0.00708615  1
  Pd  Pd198  1  0.19552205  0.80330048  0.21207041  1
  Pd  Pd199  1  0.59185174  0.41181149  0.19693300  1
  Rh  Rh200  1  0.61108034  0.19894282  0.19693642  1
  Rh  Rh201  1  0.20689128  -0.00869749  -0.00648097  1
  Rh  Rh202  1  0.40590487  0.79152175  0.80485865  1
  Rh  Rh203  1  0.39869486  0.59441661  0.19910212  1
  Rh  Rh204  1  0.79679497  0.19952421  0.59686227  1
  Rh  Rh205  1  0.00405654  0.60031943  0.19643560  1
  Rh  Rh206  1  -0.00684124  0.00581598  -0.01082486  1
  Rh  Rh207  1  0.60579072  0.59993377  0.59297214  1
  Rh  Rh208  1  0.40174150  0.01181439  0.80397079  1
  Rh  Rh209  1  0.60025346  0.60181579  0.80714050  1
  Rh  Rh210  1  -0.00715460  0.19714546  0.80418654  1
  Rh  Rh211  1  0.40311789  0.19837867  0.60234569  1
  Rh  Rh212  1  0.79433691  0.59275483  0.39890471  1
  Rh  Rh213  1  0.40869183  0.60580664  0.80102436  1
  Rh  Rh214  1  0.19683826  0.59676182  0.40178838  1
  Rh  Rh215  1  0.39865911  0.80069188  -0.00630751  1
  Rh  Rh216  1  -0.00481280  0.40669934  0.40252244  1
  Rh  Rh217  1  -0.00375834  0.39251225  0.79253930  1
  Rh  Rh218  1  0.40197134  0.80085737  0.20312373  1
  Rh  Rh219  1  0.80310780  -0.00743755  0.00267455  1
  Rh  Rh220  1  0.59093221  -0.00177308  0.19023958  1
  Rh  Rh221  1  0.60988698  0.78922141  0.00260530  1
  Rh  Rh222  1  0.80122206  0.61081400  0.00639050  1
  Rh  Rh223  1  0.40799678  0.59776211  0.39506290  1
  Rh  Rh224  1  0.20175505  -0.00455386  0.39817561  1
  Rh  Rh225  1  0.20213189  0.19641653  0.79343909  1
  Rh  Rh226  1  0.00151932  0.40722911  -0.00030549  1
  Rh  Rh227  1  0.39615606  0.60475635  0.60062636  1
  Rh  Rh228  1  0.19771976  0.59143950  0.80697178  1
  Rh  Rh229  1  0.80142231  0.00241176  0.39788385  1
  Rh  Rh230  1  0.61145103  0.20281673  0.59309947  1
  Rh  Rh231  1  0.81350626  0.80324999  0.40782733  1
  Rh  Rh232  1  0.80121774  0.39651320  -0.00121433  1
  Rh  Rh233  1  -0.00393165  0.59928706  0.79937982  1
  Rh  Rh234  1  0.60319777  0.80469507  0.19744597  1
  Rh  Rh235  1  0.80160153  0.59751955  0.20034513  1
  Rh  Rh236  1  0.00482122  0.18981468  0.58757081  1
  Rh  Rh237  1  0.80280963  0.20659751  0.80339641  1
  Rh  Rh238  1  0.00524369  -0.00439141  0.20610013  1
  Rh  Rh239  1  0.79144893  0.00698145  0.60559721  1
  Rh  Rh240  1  0.19036001  0.19897752  0.59874721  1
  Rh  Rh241  1  0.19468289  0.60030338  0.19569721  1
  Rh  Rh242  1  0.00863106  0.00534033  0.79542295  1
  Rh  Rh243  1  0.20475754  0.39120734  0.18885622  1
  Rh  Rh244  1  0.59312420  0.79224212  0.39523582  1
  Rh  Rh245  1  0.40288007  0.59395266  0.00156621  1
  Rh  Rh246  1  0.18126645  0.20774991  0.01148298  1
  Rh  Rh247  1  0.60449406  0.59896840  0.19761092  1
  Rh  Rh248  1  0.20633084  0.40690222  0.41574378  1
  Rh  Rh249  1  -0.00808831  0.40155341  0.20651866  1
