# generated using pymatgen
data_ZrScNbPdRh
_symmetry_space_group_name_H-M   'P 1'
_cell_length_a   16.56196602
_cell_length_b   16.55963905
_cell_length_c   16.55855816
_cell_angle_alpha   89.97198872
_cell_angle_beta   89.99878346
_cell_angle_gamma   89.97927128
_symmetry_Int_Tables_number   1
_chemical_formula_structural   ZrScNbPdRh
_chemical_formula_sum   'Zr50 Sc50 Nb50 Pd50 Rh50'
_cell_volume   4541.35228750
_cell_formula_units_Z   50
loop_
 _symmetry_equiv_pos_site_id
 _symmetry_equiv_pos_as_xyz
  1  'x, y, z'
loop_
 _atom_site_type_symbol
 _atom_site_label
 _atom_site_symmetry_multiplicity
 _atom_site_fract_x
 _atom_site_fract_y
 _atom_site_fract_z
 _atom_site_occupancy
  Zr  Zr0  1  0.09143224  0.10247648  0.10387657  1
  Zr  Zr1  1  0.50130613  0.10173751  0.10286844  1
  Zr  Zr2  1  0.89695979  0.90602126  0.29706068  1
  Zr  Zr3  1  0.89855112  0.69323952  0.70348751  1
  Zr  Zr4  1  0.09833603  0.69385659  0.90524793  1
  Zr  Zr5  1  0.09756422  0.30135566  0.69586419  1
  Zr  Zr6  1  0.50262572  0.89258075  0.70205282  1
  Zr  Zr7  1  0.29685754  0.29601669  0.10153272  1
  Zr  Zr8  1  0.29835094  0.49189456  0.90097422  1
  Zr  Zr9  1  0.90075582  0.91680916  0.09963473  1
  Zr  Zr10  1  0.70451495  0.70213214  0.48725837  1
  Zr  Zr11  1  0.29997245  0.88570194  0.70498692  1
  Zr  Zr12  1  0.89652511  0.69899302  0.10230072  1
  Zr  Zr13  1  0.91085562  0.30437418  0.50409980  1
  Zr  Zr14  1  0.69603195  0.70054795  0.90202131  1
  Zr  Zr15  1  0.29798231  0.70590401  0.29961484  1
  Zr  Zr16  1  0.30036535  0.49785679  0.50169594  1
  Zr  Zr17  1  0.89936747  0.09128126  0.90673503  1
  Zr  Zr18  1  0.69454410  0.49467819  0.10750644  1
  Zr  Zr19  1  0.68991163  0.90137860  0.30301612  1
  Zr  Zr20  1  0.69586936  0.69941442  0.09792821  1
  Zr  Zr21  1  0.49645502  0.29361493  0.89611918  1
  Zr  Zr22  1  0.49162457  0.90093573  0.29836295  1
  Zr  Zr23  1  0.90221911  0.49360807  0.70550012  1
  Zr  Zr24  1  0.30320842  0.10295988  0.49406090  1
  Zr  Zr25  1  0.49569397  0.70302444  0.69612751  1
  Zr  Zr26  1  0.10135147  0.30486883  0.90324761  1
  Zr  Zr27  1  0.30151650  0.28918590  0.50868972  1
  Zr  Zr28  1  0.89405379  0.10572916  0.10367339  1
  Zr  Zr29  1  0.89638777  0.68794047  0.89983547  1
  Zr  Zr30  1  0.49767881  0.09787129  0.90554255  1
  Zr  Zr31  1  0.29818030  0.29456593  0.30431568  1
  Zr  Zr32  1  0.29297482  0.70341496  0.09451931  1
  Zr  Zr33  1  0.10311747  0.90206236  0.49817940  1
  Zr  Zr34  1  0.50413241  0.50255875  0.10085284  1
  Zr  Zr35  1  0.09754968  0.49982174  0.70464498  1
  Zr  Zr36  1  0.89732902  0.10201145  0.29488498  1
  Zr  Zr37  1  0.89019144  0.90376191  0.50843076  1
  Zr  Zr38  1  0.49994893  0.90234107  0.49440155  1
  Zr  Zr39  1  0.70073198  0.91749153  0.69207354  1
  Zr  Zr40  1  0.49994057  0.49299190  0.90234355  1
  Zr  Zr41  1  0.09908257  0.69829911  0.30127632  1
  Zr  Zr42  1  0.89385851  0.30445901  0.70019341  1
  Zr  Zr43  1  0.09560028  0.50000161  0.49981244  1
  Zr  Zr44  1  0.29983427  0.89987266  0.10508874  1
  Zr  Zr45  1  0.50751115  0.71514832  0.89818954  1
  Zr  Zr46  1  0.11030732  0.90215913  0.30099029  1
  Zr  Zr47  1  0.30234937  0.50417623  0.30011659  1
  Zr  Zr48  1  0.30438140  0.29426178  0.89370171  1
  Zr  Zr49  1  0.69674425  0.69696976  0.69707736  1
  Sc  Sc50  1  0.10880653  0.10145082  0.89556098  1
  Sc  Sc51  1  0.89712047  0.31075026  0.90771498  1
  Sc  Sc52  1  0.50124094  0.29307818  0.69341409  1
  Sc  Sc53  1  0.30296856  0.89165085  0.48719908  1
  Sc  Sc54  1  0.69894263  0.48964324  0.68817549  1
  Sc  Sc55  1  0.89921667  0.08753594  0.69273546  1
  Sc  Sc56  1  0.09825514  0.49764890  0.90248757  1
  Sc  Sc57  1  0.09678154  0.50461605  0.30022073  1
  Sc  Sc58  1  0.29700352  0.10879728  0.70887370  1
  Sc  Sc59  1  0.09918061  0.29626230  0.09571911  1
  Sc  Sc60  1  0.10095644  0.09590650  0.70347469  1
  Sc  Sc61  1  0.70009506  0.70319653  0.29674400  1
  Sc  Sc62  1  0.09955660  0.09541969  0.30373917  1
  Sc  Sc63  1  0.50290627  0.30454937  0.10570971  1
  Sc  Sc64  1  0.69338905  0.09057957  0.89490508  1
  Sc  Sc65  1  0.51296026  0.10449723  0.69762576  1
  Sc  Sc66  1  0.50825189  0.70582681  0.09838189  1
  Sc  Sc67  1  0.10159422  0.90453522  0.70233279  1
  Sc  Sc68  1  0.10836701  0.90337076  0.10208611  1
  Sc  Sc69  1  0.10909692  0.90298416  0.89650836  1
  Sc  Sc70  1  0.50419305  0.49854245  0.68494671  1
  Sc  Sc71  1  0.29875452  0.90205616  0.90757505  1
  Sc  Sc72  1  0.50612220  0.49863401  0.29810251  1
  Sc  Sc73  1  0.29609403  0.49696851  0.69642600  1
  Sc  Sc74  1  0.29170151  0.71024678  0.89909634  1
  Sc  Sc75  1  0.51119865  0.50153626  0.49792946  1
  Sc  Sc76  1  0.49866265  0.09824133  0.29861181  1
  Sc  Sc77  1  0.29937502  0.09872620  0.30479631  1
  Sc  Sc78  1  0.70315283  0.30518344  0.29508782  1
  Sc  Sc79  1  0.49797398  0.69756479  0.30154411  1
  Sc  Sc80  1  0.10149714  0.28793724  0.29378088  1
  Sc  Sc81  1  0.69702385  0.10178683  0.51234669  1
  Sc  Sc82  1  0.70702083  0.29955582  0.50641187  1
  Sc  Sc83  1  0.30184012  0.69979992  0.50224117  1
  Sc  Sc84  1  0.89801510  0.50147996  0.09433185  1
  Sc  Sc85  1  0.30339330  0.10533028  0.89991584  1
  Sc  Sc86  1  0.11336867  0.70186727  0.70482634  1
  Sc  Sc87  1  0.10065429  0.69207037  0.09741314  1
  Sc  Sc88  1  0.49510506  0.10371926  0.50049812  1
  Sc  Sc89  1  0.89797901  0.10802319  0.49873318  1
  Sc  Sc90  1  0.69465209  0.90436014  0.10966017  1
  Sc  Sc91  1  0.89401342  0.29475228  0.30897231  1
  Sc  Sc92  1  0.89705364  0.49934299  0.30649664  1
  Sc  Sc93  1  0.89126767  0.69376462  0.30278521  1
  Sc  Sc94  1  0.10235975  0.49556908  0.09026831  1
  Sc  Sc95  1  0.70591153  0.49746486  0.90708303  1
  Sc  Sc96  1  0.29727212  0.49756479  0.10239254  1
  Sc  Sc97  1  0.49799894  0.90600233  0.09782519  1
  Sc  Sc98  1  0.09778249  0.10150932  0.49873286  1
  Sc  Sc99  1  0.50217136  0.30091308  0.29507567  1
  Nb  Nb100  1  0.89755932  0.29859560  0.10348362  1
  Nb  Nb101  1  0.29746947  0.89418822  0.30171509  1
  Nb  Nb102  1  0.90202220  0.50388830  0.49598577  1
  Nb  Nb103  1  0.30410119  0.29378090  0.70330220  1
  Nb  Nb104  1  0.49596441  0.29572441  0.49856179  1
  Nb  Nb105  1  0.69866288  0.29416707  0.70226154  1
  Nb  Nb106  1  0.69825283  0.11349518  0.69803380  1
  Nb  Nb107  1  0.70144127  0.29902652  0.89800353  1
  Nb  Nb108  1  0.51263161  0.90391120  0.89636269  1
  Nb  Nb109  1  0.69858519  0.90120276  0.49752641  1
  Nb  Nb110  1  0.70916470  0.29731861  0.09822380  1
  Nb  Nb111  1  0.09326711  0.70141921  0.49771650  1
  Nb  Nb112  1  0.69184326  0.89784033  0.89518701  1
  Nb  Nb113  1  0.89358639  0.90364571  0.89947177  1
  Nb  Nb114  1  0.69476493  0.49946965  0.31306291  1
  Nb  Nb115  1  0.89793010  0.70201646  0.49644839  1
  Nb  Nb116  1  0.90171402  0.89947350  0.70046173  1
  Nb  Nb117  1  0.30880095  0.70347145  0.70382440  1
  Nb  Nb118  1  0.50315951  0.69868348  0.50507332  1
  Nb  Nb119  1  0.69828559  0.10648998  0.29767186  1
  Nb  Nb120  1  0.10241811  0.30183089  0.49945208  1
  Nb  Nb121  1  0.90863206  0.50143544  0.89306796  1
  Nb  Nb122  1  0.69990777  0.10992265  0.11399186  1
  Nb  Nb123  1  0.69741251  0.50395055  0.49540821  1
  Nb  Nb124  1  0.31128125  0.09720443  0.08914667  1
  Nb  Nb125  1  -0.00301048  0.60446220  0.59520596  1
  Nb  Nb126  1  0.39531723  -0.00302861  0.60574013  1
  Nb  Nb127  1  -0.00639259  0.39389407  0.19618788  1
  Nb  Nb128  1  0.21097217  -0.00192959  0.59834825  1
  Nb  Nb129  1  0.59486132  0.59410173  0.80034519  1
  Nb  Nb130  1  -0.00873502  0.80331039  0.80245131  1
  Nb  Nb131  1  0.79876637  0.19972453  0.79965313  1
  Nb  Nb132  1  -0.00106986  0.80129330  0.20068964  1
  Nb  Nb133  1  0.40679866  -0.00530402  0.79873360  1
  Nb  Nb134  1  0.60976919  0.20314000  0.00530731  1
  Nb  Nb135  1  0.39631470  0.39688439  0.40386271  1
  Nb  Nb136  1  -0.00832533  0.80401559  -0.00161674  1
  Nb  Nb137  1  0.40252789  0.60285452  -0.00642631  1
  Nb  Nb138  1  0.60295514  0.20202132  0.39942236  1
  Nb  Nb139  1  0.60366689  0.39500206  0.79889961  1
  Nb  Nb140  1  0.80048429  0.81001579  0.80150973  1
  Nb  Nb141  1  -0.00890491  0.20159364  0.80181659  1
  Nb  Nb142  1  0.60382554  0.80161820  0.59159713  1
  Nb  Nb143  1  0.80431861  0.59621584  0.58882829  1
  Nb  Nb144  1  0.80068841  0.80916986  -0.00537490  1
  Nb  Nb145  1  0.40215757  0.60335603  0.80164059  1
  Nb  Nb146  1  0.20122756  0.39473301  0.40415120  1
  Nb  Nb147  1  -0.00385490  0.79644869  0.60038556  1
  Nb  Nb148  1  -0.00395590  0.79945190  0.40180459  1
  Nb  Nb149  1  0.79000274  0.00260063  0.40043989  1
  Pd  Pd150  1  0.20119256  0.39538124  0.79605604  1
  Pd  Pd151  1  0.39850805  0.19703322  0.20220613  1
  Pd  Pd152  1  0.40781040  0.40442945  0.78367183  1
  Pd  Pd153  1  0.79694412  0.79537683  0.60522903  1
  Pd  Pd154  1  0.80012637  0.40429403  0.59147884  1
  Pd  Pd155  1  0.19736953  0.80086647  0.59764450  1
  Pd  Pd156  1  0.19924112  0.39697124  0.59938284  1
  Pd  Pd157  1  0.78342323  -0.00000749  0.00554777  1
  Pd  Pd158  1  0.20801342  0.60031458  0.80317899  1
  Pd  Pd159  1  0.59568166  0.38955213  0.40462528  1
  Pd  Pd160  1  0.39654149  0.59859825  0.60249983  1
  Pd  Pd161  1  0.80152740  0.80375542  0.19531916  1
  Pd  Pd162  1  0.40129504  0.60738063  0.18888708  1
  Pd  Pd163  1  0.79766688  0.59609921  0.00283409  1
  Pd  Pd164  1  0.20437375  0.18734929  0.19623279  1
  Pd  Pd165  1  0.19588567  0.19129556  0.60335092  1
  Pd  Pd166  1  0.39616043  0.39832545  0.00889468  1
  Pd  Pd167  1  0.40809347  0.59611333  0.40515156  1
  Pd  Pd168  1  0.39313857  0.00383780  0.20335939  1
  Pd  Pd169  1  0.60737321  0.00514235  0.00904725  1
  Pd  Pd170  1  0.00857253  0.39403647  0.38779989  1
  Pd  Pd171  1  0.79846886  0.39841845  0.40654985  1
  Pd  Pd172  1  0.19778484  0.60650632  0.59979478  1
  Pd  Pd173  1  0.00352757  0.00090101  0.80337984  1
  Pd  Pd174  1  0.40386693  0.79490637  0.19649827  1
  Pd  Pd175  1  0.79461274  0.19388903  -0.00847695  1
  Pd  Pd176  1  -0.00967930  -0.00178768  0.40415544  1
  Pd  Pd177  1  0.60223869  0.39096835  -0.00187459  1
  Pd  Pd178  1  0.40473143  0.39676074  0.59767811  1
  Pd  Pd179  1  -0.00105870  0.19388584  0.60746538  1
  Pd  Pd180  1  0.20752082  0.01025807  0.19937231  1
  Pd  Pd181  1  0.20111663  0.59896411  0.40392095  1
  Pd  Pd182  1  0.40347547  0.80337344  -0.00189438  1
  Pd  Pd183  1  0.00400682  0.20002044  0.39719981  1
  Pd  Pd184  1  0.60254396  0.60240989  0.20833058  1
  Pd  Pd185  1  0.78612182  0.58739682  0.79293113  1
  Pd  Pd186  1  0.19802561  0.59662717  0.19603866  1
  Pd  Pd187  1  0.79673887  0.00444506  0.79666101  1
  Pd  Pd188  1  -0.00128751  0.59474850  0.19645140  1
  Pd  Pd189  1  0.59240657  0.79436854  0.39951174  1
  Pd  Pd190  1  0.79295312  0.59008992  0.20735556  1
  Pd  Pd191  1  0.60175538  0.01432017  0.40382717  1
  Pd  Pd192  1  0.80296261  0.40535604  0.00038404  1
  Pd  Pd193  1  0.20166728  0.19540029  0.00036221  1
  Pd  Pd194  1  0.80488027  0.40387587  0.20482159  1
  Pd  Pd195  1  0.20132065  0.00797872  0.00117850  1
  Pd  Pd196  1  0.40115343  0.40157166  0.20548369  1
  Pd  Pd197  1  0.01245482  -0.00437462  -0.00528985  1
  Pd  Pd198  1  0.18766339  0.40105843  0.20623195  1
  Pd  Pd199  1  -0.00309574  0.20205673  -0.00657116  1
  Rh  Rh200  1  0.80499603  0.81207820  0.39373024  1
  Rh  Rh201  1  0.60363604  0.20765196  0.20162269  1
  Rh  Rh202  1  0.40793490  0.19065910  0.79291713  1
  Rh  Rh203  1  0.20666451  0.00094486  0.40472151  1
  Rh  Rh204  1  0.21433978  -0.00238545  0.79397688  1
  Rh  Rh205  1  0.19136916  0.20881093  0.79896900  1
  Rh  Rh206  1  0.80670958  0.19898116  0.60646551  1
  Rh  Rh207  1  0.41235234  0.20566662  0.39157052  1
  Rh  Rh208  1  0.59320915  0.80276560  0.20216073  1
  Rh  Rh209  1  0.20587394  0.39438053  0.00032615  1
  Rh  Rh210  1  0.19483986  0.80004080  0.80381644  1
  Rh  Rh211  1  -0.00578870  0.40288013  0.00606941  1
  Rh  Rh212  1  0.00048516  0.40682659  0.59830584  1
  Rh  Rh213  1  0.40203053  0.19128389  0.60819016  1
  Rh  Rh214  1  0.39651952  0.80314359  0.81452494  1
  Rh  Rh215  1  0.60505061  0.20349989  0.80918343  1
  Rh  Rh216  1  0.79764820  0.00940849  0.59493377  1
  Rh  Rh217  1  0.59675737  0.00251800  0.20175915  1
  Rh  Rh218  1  0.20944340  0.59462970  -0.00297786  1
  Rh  Rh219  1  0.40185320  -0.00530170  -0.00650965  1
  Rh  Rh220  1  0.00953219  -0.00286460  0.20100096  1
  Rh  Rh221  1  0.60581622  0.39724851  0.20161139  1
  Rh  Rh222  1  0.19153745  0.20295401  0.40324196  1
  Rh  Rh223  1  -0.00589720  0.20527697  0.20131262  1
  Rh  Rh224  1  0.80243230  0.20767451  0.20528990  1
  Rh  Rh225  1  0.59831584  0.60371008  0.39617459  1
  Rh  Rh226  1  0.18796396  0.80214933  0.00296184  1
  Rh  Rh227  1  -0.00390044  0.60511569  0.40135282  1
  Rh  Rh228  1  -0.00127052  0.59789889  0.00077449  1
  Rh  Rh229  1  0.59165526  -0.00261597  0.59681760  1
  Rh  Rh230  1  0.60742091  0.81236576  0.00924998  1
  Rh  Rh231  1  0.19404268  0.79729737  0.19772108  1
  Rh  Rh232  1  0.59687860  0.00514490  0.79368170  1
  Rh  Rh233  1  0.78851411  0.19415525  0.40227752  1
  Rh  Rh234  1  0.61143278  0.79925898  0.78880488  1
  Rh  Rh235  1  0.79375806  0.39915398  0.80419272  1
  Rh  Rh236  1  0.78850271  0.00295812  0.20775301  1
  Rh  Rh237  1  0.59292868  0.59737445  -0.00632944  1
  Rh  Rh238  1  0.01068016  -0.00577826  0.59881276  1
  Rh  Rh239  1  0.40571955  0.80220643  0.58813940  1
  Rh  Rh240  1  0.59884253  0.20737231  0.58845055  1
  Rh  Rh241  1  0.40601576  0.20668847  0.00808322  1
  Rh  Rh242  1  0.40192122  0.79245506  0.39894912  1
  Rh  Rh243  1  0.60214650  0.39039446  0.59889235  1
  Rh  Rh244  1  0.00109768  0.39305646  0.80639576  1
  Rh  Rh245  1  0.19711977  0.79252851  0.40035533  1
  Rh  Rh246  1  0.60873924  0.60627395  0.59484061  1
  Rh  Rh247  1  0.79694272  0.59460234  0.39875650  1
  Rh  Rh248  1  0.00927204  0.60357496  0.79592680  1
  Rh  Rh249  1  0.39590028  -0.00162277  0.40029770  1
