# generated using pymatgen
data_ZrScNbPdRh
_symmetry_space_group_name_H-M   'P 1'
_cell_length_a   16.54982872
_cell_length_b   16.54574219
_cell_length_c   16.55069079
_cell_angle_alpha   89.98812431
_cell_angle_beta   90.05043901
_cell_angle_gamma   90.02809797
_symmetry_Int_Tables_number   1
_chemical_formula_structural   ZrScNbPdRh
_chemical_formula_sum   'Zr50 Sc50 Nb50 Pd50 Rh50'
_cell_volume   4532.06001008
_cell_formula_units_Z   50
loop_
 _symmetry_equiv_pos_site_id
 _symmetry_equiv_pos_as_xyz
  1  'x, y, z'
loop_
 _atom_site_type_symbol
 _atom_site_label
 _atom_site_symmetry_multiplicity
 _atom_site_fract_x
 _atom_site_fract_y
 _atom_site_fract_z
 _atom_site_occupancy
  Zr  Zr0  1  0.90503207  0.70227577  0.29967704  1
  Zr  Zr1  1  0.49356695  0.49677211  0.89023165  1
  Zr  Zr2  1  0.10024167  0.89806157  0.69786460  1
  Zr  Zr3  1  0.69463123  0.50615250  0.49886951  1
  Zr  Zr4  1  0.69861882  0.90928990  0.29605574  1
  Zr  Zr5  1  0.89738780  0.69891038  0.09224911  1
  Zr  Zr6  1  0.90273167  0.10267647  0.69716390  1
  Zr  Zr7  1  0.69757195  0.50876749  0.09883604  1
  Zr  Zr8  1  0.10736902  0.11684909  0.70228022  1
  Zr  Zr9  1  0.49578647  0.10639803  0.50162961  1
  Zr  Zr10  1  0.49978990  0.08947206  0.29789626  1
  Zr  Zr11  1  0.89658428  0.90781579  0.30296868  1
  Zr  Zr12  1  0.29156462  0.50800688  0.09193014  1
  Zr  Zr13  1  0.30283196  0.10603310  0.69734295  1
  Zr  Zr14  1  0.30368024  0.88679376  0.69912715  1
  Zr  Zr15  1  0.90563814  0.30377782  0.30216139  1
  Zr  Zr16  1  0.70082626  0.49962828  0.30951561  1
  Zr  Zr17  1  0.90367386  0.90053493  0.10045023  1
  Zr  Zr18  1  0.89739316  0.89655377  0.89533938  1
  Zr  Zr19  1  0.09495147  0.29890166  0.30283138  1
  Zr  Zr20  1  0.30202622  0.70621068  0.89991961  1
  Zr  Zr21  1  0.11140840  0.49876301  0.50387140  1
  Zr  Zr22  1  0.70048206  0.09971538  0.30034873  1
  Zr  Zr23  1  0.09249107  0.49219779  0.30070229  1
  Zr  Zr24  1  0.30166475  0.09867281  0.90870357  1
  Zr  Zr25  1  0.09284622  0.30015422  0.09514976  1
  Zr  Zr26  1  0.10022401  0.90361017  0.10041313  1
  Zr  Zr27  1  0.90301246  0.50481920  0.89621587  1
  Zr  Zr28  1  0.51130719  0.71080902  0.10114374  1
  Zr  Zr29  1  0.69924975  0.29188593  0.10114789  1
  Zr  Zr30  1  0.31231549  0.89953636  0.30453649  1
  Zr  Zr31  1  0.30235307  0.49479692  0.69441234  1
  Zr  Zr32  1  0.88703610  0.50108990  0.49804855  1
  Zr  Zr33  1  0.50116222  0.50201315  0.10209047  1
  Zr  Zr34  1  0.90274495  0.30078679  0.69102337  1
  Zr  Zr35  1  0.09104834  0.90103487  0.30591350  1
  Zr  Zr36  1  0.69646676  0.10039043  0.90345839  1
  Zr  Zr37  1  0.49823641  0.89377673  0.50353380  1
  Zr  Zr38  1  0.89463738  0.90392484  0.49923356  1
  Zr  Zr39  1  0.89557078  0.09610921  0.29639634  1
  Zr  Zr40  1  0.89911950  0.70512195  0.89924821  1
  Zr  Zr41  1  0.69929981  0.29856710  0.29905198  1
  Zr  Zr42  1  0.29630834  0.69359686  0.50195237  1
  Zr  Zr43  1  0.10202075  0.10259590  0.09480160  1
  Zr  Zr44  1  0.50254377  0.69599355  0.49978574  1
  Zr  Zr45  1  0.10012558  0.69792271  0.09839525  1
  Zr  Zr46  1  0.69555251  0.69462970  0.69816898  1
  Zr  Zr47  1  0.89573389  0.89931618  0.70287147  1
  Zr  Zr48  1  0.69755418  0.90346493  0.89429269  1
  Zr  Zr49  1  0.89725019  0.30612882  0.50476640  1
  Sc  Sc50  1  0.90975079  0.49582416  0.10262206  1
  Sc  Sc51  1  0.10002862  0.10527039  0.90232717  1
  Sc  Sc52  1  0.68722614  0.90092353  0.09817475  1
  Sc  Sc53  1  0.09364985  0.69994842  0.89179214  1
  Sc  Sc54  1  0.31564328  0.09468052  0.30462411  1
  Sc  Sc55  1  0.70097730  0.70253041  0.91076191  1
  Sc  Sc56  1  0.50415010  0.29560269  0.29960959  1
  Sc  Sc57  1  0.09674658  0.90369946  0.90545145  1
  Sc  Sc58  1  0.70204674  0.29663265  0.49770881  1
  Sc  Sc59  1  0.09733749  0.30390589  0.50455404  1
  Sc  Sc60  1  0.30761094  0.09587925  0.09599874  1
  Sc  Sc61  1  0.88922429  0.70128004  0.50209996  1
  Sc  Sc62  1  0.10176363  0.09815170  0.49549789  1
  Sc  Sc63  1  0.50132037  0.90028806  0.90388316  1
  Sc  Sc64  1  0.31000991  0.30523658  0.50613924  1
  Sc  Sc65  1  0.10516268  0.70792207  0.69276701  1
  Sc  Sc66  1  0.29794857  0.30466473  0.90061470  1
  Sc  Sc67  1  0.91197593  0.70453105  0.70743481  1
  Sc  Sc68  1  0.70225029  0.29497763  0.69784561  1
  Sc  Sc69  1  0.69606539  0.50418099  0.89564071  1
  Sc  Sc70  1  0.50405777  0.09573021  0.89900602  1
  Sc  Sc71  1  0.69722718  0.29076822  0.89171935  1
  Sc  Sc72  1  0.70149288  0.09825125  0.10256814  1
  Sc  Sc73  1  0.70019285  0.50092369  0.69694454  1
  Sc  Sc74  1  0.50145593  0.30327177  0.70451094  1
  Sc  Sc75  1  0.49696454  0.50482217  0.70579716  1
  Sc  Sc76  1  0.50098529  0.89718834  0.29826722  1
  Sc  Sc77  1  0.10393829  0.89397220  0.49741684  1
  Sc  Sc78  1  0.30596866  0.28862647  0.08941170  1
  Sc  Sc79  1  0.30154833  0.49827950  0.89433462  1
  Sc  Sc80  1  0.50538366  0.70006803  0.89549428  1
  Sc  Sc81  1  0.89796415  0.10290072  0.10006632  1
  Sc  Sc82  1  0.30440976  0.89909799  0.49929732  1
  Sc  Sc83  1  0.50030488  0.69851684  0.69933283  1
  Sc  Sc84  1  0.69589904  0.69347743  0.50413325  1
  Sc  Sc85  1  0.89686645  0.29546326  0.90190674  1
  Sc  Sc86  1  0.29916800  0.70834248  0.09418267  1
  Sc  Sc87  1  0.70141987  0.89783518  0.50444473  1
  Sc  Sc88  1  0.08837026  0.09601519  0.30276327  1
  Sc  Sc89  1  0.10966527  0.49697353  0.90520562  1
  Sc  Sc90  1  0.68670139  0.69787225  0.30767275  1
  Sc  Sc91  1  0.50260351  0.89639900  0.69754140  1
  Sc  Sc92  1  0.89164280  0.10309864  0.49822115  1
  Sc  Sc93  1  0.90243833  0.29102292  0.10038670  1
  Sc  Sc94  1  0.89672828  0.09796092  0.90190991  1
  Sc  Sc95  1  0.69628800  0.10347141  0.69829736  1
  Sc  Sc96  1  0.50467416  0.49704191  0.31070588  1
  Sc  Sc97  1  0.50570435  0.10258889  0.69333408  1
  Sc  Sc98  1  0.30522290  0.90051670  0.08591298  1
  Sc  Sc99  1  0.89705419  0.49636428  0.69348563  1
  Nb  Nb100  1  0.70136023  0.69859044  0.10310537  1
  Nb  Nb101  1  0.50328384  0.30477153  0.50239880  1
  Nb  Nb102  1  0.49799047  0.29911026  0.09559186  1
  Nb  Nb103  1  0.70283945  0.89456220  0.70250619  1
  Nb  Nb104  1  0.30193669  0.69989061  0.30117133  1
  Nb  Nb105  1  0.31086941  0.49890699  0.49806184  1
  Nb  Nb106  1  0.49605948  0.29992661  0.90014914  1
  Nb  Nb107  1  0.49032739  0.70589162  0.30042394  1
  Nb  Nb108  1  0.49539434  0.09744956  0.09756084  1
  Nb  Nb109  1  0.29632309  0.30002007  0.29395961  1
  Nb  Nb110  1  0.30008319  0.49657740  0.29964813  1
  Nb  Nb111  1  0.50203933  0.90596629  0.10184532  1
  Nb  Nb112  1  0.10396072  0.29779475  0.89393745  1
  Nb  Nb113  1  0.10314302  0.70137245  0.30528468  1
  Nb  Nb114  1  0.48978892  0.49020358  0.50383054  1
  Nb  Nb115  1  0.10315853  0.69509083  0.49715563  1
  Nb  Nb116  1  0.10731827  0.30325748  0.70367867  1
  Nb  Nb117  1  0.28724699  0.29471055  0.70640026  1
  Nb  Nb118  1  0.10087079  0.49988452  0.69980561  1
  Nb  Nb119  1  0.69314254  0.10399183  0.50405749  1
  Nb  Nb120  1  0.30064895  0.10468436  0.50268991  1
  Nb  Nb121  1  0.29854818  0.69838748  0.70095231  1
  Nb  Nb122  1  0.10318921  0.50108527  0.10107716  1
  Nb  Nb123  1  0.89819199  0.49961096  0.30330687  1
  Nb  Nb124  1  0.30388757  0.90335143  0.89724222  1
  Nb  Nb125  1  0.39440027  0.40247638  0.19864721  1
  Nb  Nb126  1  0.00367778  0.00026337  0.60350340  1
  Nb  Nb127  1  0.40278331  0.60363292  0.00318195  1
  Nb  Nb128  1  0.00911190  0.39566658  0.79611056  1
  Nb  Nb129  1  0.39833989  0.20268245  0.80267276  1
  Nb  Nb130  1  0.20816754  -0.00164324  0.79856945  1
  Nb  Nb131  1  0.79290833  0.40052782  0.00429360  1
  Nb  Nb132  1  0.20231643  0.19777751  0.20536562  1
  Nb  Nb133  1  0.20220121  -0.00226089  0.20324272  1
  Nb  Nb134  1  0.80022060  0.40496469  0.20010558  1
  Nb  Nb135  1  0.79435491  0.79502570  0.19762529  1
  Nb  Nb136  1  0.00445829  0.59699235  0.00125257  1
  Nb  Nb137  1  0.20277927  0.39945414  0.19819037  1
  Nb  Nb138  1  0.59346767  0.40139460  0.59390062  1
  Nb  Nb139  1  0.20062489  0.60145427  0.20908002  1
  Nb  Nb140  1  0.39597084  0.60218464  0.20350213  1
  Nb  Nb141  1  0.80329119  0.60447489  0.80132879  1
  Nb  Nb142  1  0.00714643  0.59891002  0.59477771  1
  Nb  Nb143  1  0.80063757  0.60083995  0.20169090  1
  Nb  Nb144  1  0.59659061  0.39358674  -0.00132464  1
  Nb  Nb145  1  0.20803534  0.20125027  0.39643928  1
  Nb  Nb146  1  0.20254128  0.00365471  0.60431310  1
  Nb  Nb147  1  0.00390814  0.60079064  0.40254826  1
  Nb  Nb148  1  0.20196552  0.60101979  0.79102325  1
  Nb  Nb149  1  0.19911580  0.79966424  0.20889977  1
  Pd  Pd150  1  0.40271465  0.21115228  0.60853067  1
  Pd  Pd151  1  0.20624566  0.80231027  0.40027758  1
  Pd  Pd152  1  0.59738391  0.00090377  0.79196428  1
  Pd  Pd153  1  0.60466203  0.39762428  0.79686564  1
  Pd  Pd154  1  0.00074722  0.80137331  0.19918959  1
  Pd  Pd155  1  -0.00239124  0.79841632  0.59199832  1
  Pd  Pd156  1  0.20211862  0.39163783  0.00394483  1
  Pd  Pd157  1  0.20546445  0.00754298  0.39927641  1
  Pd  Pd158  1  0.40038321  0.39066354  0.39083190  1
  Pd  Pd159  1  0.39532172  0.80151014  0.19268674  1
  Pd  Pd160  1  0.59704879  0.19883117  0.40203078  1
  Pd  Pd161  1  0.40128834  0.40561053  0.00369484  1
  Pd  Pd162  1  0.59892377  -0.00250638  0.40868447  1
  Pd  Pd163  1  0.60069463  0.79805639  0.80098461  1
  Pd  Pd164  1  0.20688235  0.39406287  0.40150579  1
  Pd  Pd165  1  0.79148794  0.81134727  0.00554351  1
  Pd  Pd166  1  0.59475363  0.19931744  -0.00043028  1
  Pd  Pd167  1  0.60371610  -0.00465285  0.60101677  1
  Pd  Pd168  1  0.00095261  0.19613796  0.40737972  1
  Pd  Pd169  1  0.80030589  0.20013211  0.40022146  1
  Pd  Pd170  1  0.00571057  0.19578696  0.59182383  1
  Pd  Pd171  1  0.59234703  0.59635447  -0.00924548  1
  Pd  Pd172  1  0.39850752  0.20728971  0.39790931  1
  Pd  Pd173  1  0.39929767  0.20257584  0.19919056  1
  Pd  Pd174  1  0.40273937  0.60180348  0.60346778  1
  Pd  Pd175  1  0.39687858  -0.00224543  0.59967729  1
  Pd  Pd176  1  0.78969838  0.79705808  0.39294934  1
  Pd  Pd177  1  -0.00355399  0.79523179  0.41046520  1
  Pd  Pd178  1  0.79518197  0.00757171  0.79631411  1
  Pd  Pd179  1  0.40296619  0.59894659  0.39630842  1
  Pd  Pd180  1  0.79800193  0.79414477  0.60570156  1
  Pd  Pd181  1  0.19407510  0.80111269  0.80613402  1
  Pd  Pd182  1  0.19414260  0.80308786  -0.00312324  1
  Pd  Pd183  1  -0.00480483  0.40136947  -0.00776799  1
  Pd  Pd184  1  0.59540620  0.60380046  0.21117870  1
  Pd  Pd185  1  0.20601979  0.39475355  0.59800905  1
  Pd  Pd186  1  0.00861275  0.00227034  0.79689833  1
  Pd  Pd187  1  0.59405945  0.19169698  0.19692151  1
  Pd  Pd188  1  0.79779378  0.00566753  0.60060111  1
  Pd  Pd189  1  0.40970158  0.79795124  0.80124054  1
  Pd  Pd190  1  0.79666099  -0.00345468  0.00469758  1
  Pd  Pd191  1  0.80380694  0.40459257  0.80380756  1
  Pd  Pd192  1  0.40116922  0.00429874  0.79729944  1
  Pd  Pd193  1  0.80281697  0.19587961  0.79815363  1
  Pd  Pd194  1  -0.00481060  0.20684003  0.80494226  1
  Pd  Pd195  1  0.00089129  0.59903566  0.20086747  1
  Pd  Pd196  1  0.19975554  0.59407250  0.39549411  1
  Pd  Pd197  1  0.59810097  0.39863010  0.19675169  1
  Pd  Pd198  1  -0.00393343  0.00605262  -0.00132460  1
  Pd  Pd199  1  0.60135242  0.80334191  0.40031012  1
  Rh  Rh200  1  0.40814993  -0.00488819  0.00013108  1
  Rh  Rh201  1  0.39936070  0.79089325  0.59790972  1
  Rh  Rh202  1  0.81212090  0.60903754  0.61437880  1
  Rh  Rh203  1  0.39740939  -0.00619425  0.19218866  1
  Rh  Rh204  1  0.78968629  0.00716762  0.40869602  1
  Rh  Rh205  1  0.79793247  0.20335620  -0.00156630  1
  Rh  Rh206  1  0.59979660  0.21024163  0.59815986  1
  Rh  Rh207  1  0.58847206  0.58896841  0.59728460  1
  Rh  Rh208  1  0.19898458  0.60111198  0.60653656  1
  Rh  Rh209  1  -0.00165666  0.39698878  0.19656086  1
  Rh  Rh210  1  0.60420905  0.80127971  0.60288805  1
  Rh  Rh211  1  0.00414874  0.79504033  -0.00382485  1
  Rh  Rh212  1  0.40195117  0.39476861  0.60921089  1
  Rh  Rh213  1  0.59662986  0.00326341  0.00379771  1
  Rh  Rh214  1  0.59969667  0.39799566  0.40899503  1
  Rh  Rh215  1  0.40871108  0.19571213  -0.00866210  1
  Rh  Rh216  1  0.79521046  0.19805628  0.59878676  1
  Rh  Rh217  1  0.20531672  0.80152934  0.59148821  1
  Rh  Rh218  1  0.79897722  -0.00745911  0.19184855  1
  Rh  Rh219  1  0.00350573  0.19348317  0.19906830  1
  Rh  Rh220  1  0.00432548  0.58950839  0.79706099  1
  Rh  Rh221  1  -0.00128305  0.19928318  -0.00649486  1
  Rh  Rh222  1  0.19768772  0.40808835  0.79979136  1
  Rh  Rh223  1  0.40771528  -0.00088260  0.41086457  1
  Rh  Rh224  1  0.00292303  0.00568000  0.19556354  1
  Rh  Rh225  1  -0.00436783  0.40919719  0.41440684  1
  Rh  Rh226  1  0.00558396  0.80869258  0.80275939  1
  Rh  Rh227  1  0.60340224  0.80123481  0.20568170  1
  Rh  Rh228  1  0.39939778  0.79527803  0.40732932  1
  Rh  Rh229  1  0.41030404  0.79985791  -0.00354334  1
  Rh  Rh230  1  0.59649181  0.00476256  0.19475924  1
  Rh  Rh231  1  0.20904494  0.19584749  0.81324434  1
  Rh  Rh232  1  0.80469703  0.20497712  0.20521921  1
  Rh  Rh233  1  0.39073884  0.60724670  0.80430326  1
  Rh  Rh234  1  0.60765203  0.60202881  0.80113428  1
  Rh  Rh235  1  0.20213171  -0.00339217  -0.00253875  1
  Rh  Rh236  1  0.19881208  0.20296814  0.00173599  1
  Rh  Rh237  1  0.39223414  0.38812969  0.79230769  1
  Rh  Rh238  1  0.19803526  0.60805523  -0.01047065  1
  Rh  Rh239  1  0.58727333  0.59877631  0.40248301  1
  Rh  Rh240  1  0.19870160  0.20171049  0.58557037  1
  Rh  Rh241  1  0.80884268  0.59120538  0.00006062  1
  Rh  Rh242  1  0.80533450  0.60899080  0.39205616  1
  Rh  Rh243  1  -0.00547570  0.00037927  0.41201559  1
  Rh  Rh244  1  0.79769764  0.39334519  0.39655032  1
  Rh  Rh245  1  0.60082219  0.80396549  -0.00109181  1
  Rh  Rh246  1  0.79135098  0.79098646  0.79643051  1
  Rh  Rh247  1  0.00263711  0.40691653  0.60350645  1
  Rh  Rh248  1  0.78488585  0.39881892  0.59657958  1
  Rh  Rh249  1  0.59098303  0.19883121  0.79837899  1
