# generated using pymatgen
data_ZrScNbPdRh
_symmetry_space_group_name_H-M   'P 1'
_cell_length_a   16.55993687
_cell_length_b   16.55637137
_cell_length_c   16.55757036
_cell_angle_alpha   90.00868085
_cell_angle_beta   89.95573181
_cell_angle_gamma   90.03561440
_symmetry_Int_Tables_number   1
_chemical_formula_structural   ZrScNbPdRh
_chemical_formula_sum   'Zr50 Sc50 Nb50 Pd50 Rh50'
_cell_volume   4539.62759085
_cell_formula_units_Z   50
loop_
 _symmetry_equiv_pos_site_id
 _symmetry_equiv_pos_as_xyz
  1  'x, y, z'
loop_
 _atom_site_type_symbol
 _atom_site_label
 _atom_site_symmetry_multiplicity
 _atom_site_fract_x
 _atom_site_fract_y
 _atom_site_fract_z
 _atom_site_occupancy
  Zr  Zr0  1  0.29843968  0.50991028  0.10013303  1
  Zr  Zr1  1  0.91123318  0.51212386  0.30127306  1
  Zr  Zr2  1  0.90700534  0.29612897  0.49684961  1
  Zr  Zr3  1  0.09815741  0.11068391  0.50336546  1
  Zr  Zr4  1  0.69572970  0.49319262  0.10857619  1
  Zr  Zr5  1  0.70120752  0.89583851  0.69827681  1
  Zr  Zr6  1  0.89451104  0.90805390  0.70497519  1
  Zr  Zr7  1  0.71319199  0.90707619  0.29808305  1
  Zr  Zr8  1  0.70325857  0.70205792  0.30360267  1
  Zr  Zr9  1  0.28993795  0.69723137  0.90518189  1
  Zr  Zr10  1  0.68412044  0.10148198  0.10412403  1
  Zr  Zr11  1  0.90163695  0.69702623  0.90064296  1
  Zr  Zr12  1  0.10718942  0.30198387  0.29498003  1
  Zr  Zr13  1  0.49672801  0.11279027  0.09890426  1
  Zr  Zr14  1  0.69910809  0.70142407  0.50854293  1
  Zr  Zr15  1  0.30006917  0.30143152  0.10647236  1
  Zr  Zr16  1  0.29774086  0.09026323  0.49805889  1
  Zr  Zr17  1  0.29997064  0.30834460  0.70986934  1
  Zr  Zr18  1  0.09340482  0.89862212  0.89980377  1
  Zr  Zr19  1  0.10754370  0.28996249  0.89230846  1
  Zr  Zr20  1  0.29452839  0.90285173  0.69633041  1
  Zr  Zr21  1  0.10097670  0.30129031  0.68860237  1
  Zr  Zr22  1  0.29694740  0.48864843  0.29503102  1
  Zr  Zr23  1  0.50068562  0.09247667  0.50401918  1
  Zr  Zr24  1  0.89706232  0.69674075  0.49139642  1
  Zr  Zr25  1  0.10801279  0.10103134  0.29606481  1
  Zr  Zr26  1  0.90126087  0.49317421  0.89575547  1
  Zr  Zr27  1  0.70500328  0.49395902  0.89295547  1
  Zr  Zr28  1  0.31096848  0.70145895  0.49258490  1
  Zr  Zr29  1  0.70004679  0.29591039  0.71407151  1
  Zr  Zr30  1  0.10167598  0.89775521  0.69857465  1
  Zr  Zr31  1  0.49255605  0.10666051  0.29699117  1
  Zr  Zr32  1  0.69587794  0.09958206  0.30085816  1
  Zr  Zr33  1  0.30713855  0.69702267  0.28893854  1
  Zr  Zr34  1  0.09811836  0.89563638  0.30195114  1
  Zr  Zr35  1  0.29616175  0.90688290  0.30440592  1
  Zr  Zr36  1  0.70429530  0.49935449  0.70036733  1
  Zr  Zr37  1  0.89893201  0.71347322  0.30448967  1
  Zr  Zr38  1  0.49413815  0.69134368  0.10437316  1
  Zr  Zr39  1  0.89762523  0.90550461  0.90206456  1
  Zr  Zr40  1  0.69973563  0.89273489  0.90569032  1
  Zr  Zr41  1  0.49431741  0.09933800  0.89621452  1
  Zr  Zr42  1  0.89660480  0.30094634  0.11031417  1
  Zr  Zr43  1  0.49676461  0.30488452  0.49562733  1
  Zr  Zr44  1  0.08177538  0.68897860  0.29929023  1
  Zr  Zr45  1  0.10990179  0.69297545  0.08877021  1
  Zr  Zr46  1  0.10179495  0.70338197  0.70100105  1
  Zr  Zr47  1  0.90366454  0.69662519  0.10398302  1
  Zr  Zr48  1  0.50356257  0.49539889  0.49869467  1
  Zr  Zr49  1  0.89603578  0.10799827  0.30365854  1
  Sc  Sc50  1  0.70453390  0.31799894  0.49222250  1
  Sc  Sc51  1  0.09348059  0.69707507  0.50871993  1
  Sc  Sc52  1  0.70035534  0.50054550  0.50470742  1
  Sc  Sc53  1  0.90750320  0.48992771  0.09744212  1
  Sc  Sc54  1  0.69931718  0.48997050  0.30415747  1
  Sc  Sc55  1  0.70229593  0.69709119  0.70006284  1
  Sc  Sc56  1  0.89052906  0.89505042  0.49976462  1
  Sc  Sc57  1  0.30350145  0.30707652  0.50500081  1
  Sc  Sc58  1  0.69792542  0.70408966  0.89815960  1
  Sc  Sc59  1  0.69749757  0.90338365  0.50380481  1
  Sc  Sc60  1  0.11832212  0.90570533  0.50767207  1
  Sc  Sc61  1  0.89329100  0.89716845  0.10133919  1
  Sc  Sc62  1  0.91102237  0.10495177  0.09471086  1
  Sc  Sc63  1  0.69847114  0.09072748  0.70260660  1
  Sc  Sc64  1  0.10036128  0.50209502  0.69653324  1
  Sc  Sc65  1  0.48861531  0.69848543  0.29876438  1
  Sc  Sc66  1  0.49891311  0.50578062  0.89688098  1
  Sc  Sc67  1  0.51245625  0.70585791  0.69761671  1
  Sc  Sc68  1  0.29873069  0.89417113  0.89243558  1
  Sc  Sc69  1  0.89319254  0.49717192  0.50273108  1
  Sc  Sc70  1  0.09681172  0.11614666  0.70505245  1
  Sc  Sc71  1  0.49935863  0.28811265  0.89590570  1
  Sc  Sc72  1  0.70841474  0.30281414  0.29195192  1
  Sc  Sc73  1  0.50575503  0.70138926  0.89933774  1
  Sc  Sc74  1  0.69063198  0.10733234  0.88958734  1
  Sc  Sc75  1  0.10376185  0.49610106  0.10443096  1
  Sc  Sc76  1  0.30700276  0.09926260  0.69752266  1
  Sc  Sc77  1  0.30575398  0.89956850  0.50577255  1
  Sc  Sc78  1  0.90722195  0.10073348  0.89405717  1
  Sc  Sc79  1  0.30140375  0.11799002  0.89272691  1
  Sc  Sc80  1  0.29887097  0.89763612  0.10701635  1
  Sc  Sc81  1  0.89893537  0.10803526  0.49478188  1
  Sc  Sc82  1  0.49776734  0.09648421  0.70394358  1
  Sc  Sc83  1  0.69871002  0.08903740  0.49367905  1
  Sc  Sc84  1  0.10676493  0.49215123  0.50687501  1
  Sc  Sc85  1  0.48841575  0.89883005  0.29938593  1
  Sc  Sc86  1  0.09616054  0.89789117  0.09059697  1
  Sc  Sc87  1  0.50041839  0.89700002  0.89291906  1
  Sc  Sc88  1  0.69567599  0.70538066  0.08931734  1
  Sc  Sc89  1  0.50669960  0.90400005  0.09363939  1
  Sc  Sc90  1  0.50468314  0.49860179  0.70198033  1
  Sc  Sc91  1  0.29122968  0.70118214  0.70634616  1
  Sc  Sc92  1  0.49645225  0.90244008  0.69967414  1
  Sc  Sc93  1  0.90273343  0.70043326  0.69464551  1
  Sc  Sc94  1  0.30122887  0.50027691  0.88974705  1
  Sc  Sc95  1  0.90777863  0.30011165  0.70821407  1
  Sc  Sc96  1  0.30089641  0.49224899  0.49830718  1
  Sc  Sc97  1  0.09758911  0.50024906  0.90407995  1
  Sc  Sc98  1  0.49310066  0.30395826  0.69887275  1
  Sc  Sc99  1  0.09877452  0.29326390  0.09916540  1
  Nb  Nb100  1  0.90337221  0.30012739  0.30239950  1
  Nb  Nb101  1  0.50084438  0.89059720  0.50634149  1
  Nb  Nb102  1  0.50169465  0.49359602  0.10318898  1
  Nb  Nb103  1  0.69511550  0.29683168  0.09922410  1
  Nb  Nb104  1  0.90193793  0.90242330  0.30123736  1
  Nb  Nb105  1  0.30297158  0.30746483  0.89870899  1
  Nb  Nb106  1  0.29920131  0.10067064  0.29453146  1
  Nb  Nb107  1  0.50182976  0.70074672  0.49913950  1
  Nb  Nb108  1  0.49203705  0.30565935  0.29529562  1
  Nb  Nb109  1  0.29895586  0.69879940  0.10015828  1
  Nb  Nb110  1  0.10086575  0.10173482  0.09723595  1
  Nb  Nb111  1  0.09932754  0.09921146  0.90760884  1
  Nb  Nb112  1  0.10481923  0.70660375  0.90192280  1
  Nb  Nb113  1  0.89414920  0.10350457  0.70201278  1
  Nb  Nb114  1  0.10139293  0.29763252  0.49854364  1
  Nb  Nb115  1  0.30595783  0.50051529  0.69671871  1
  Nb  Nb116  1  0.30273041  0.29888025  0.30195749  1
  Nb  Nb117  1  0.50372044  0.29902415  0.10419436  1
  Nb  Nb118  1  0.50296879  0.49360082  0.29219179  1
  Nb  Nb119  1  0.29625269  0.09872874  0.10938154  1
  Nb  Nb120  1  0.89806971  0.50284526  0.71181114  1
  Nb  Nb121  1  0.10479263  0.49920393  0.30367962  1
  Nb  Nb122  1  0.88973007  0.29991330  0.89984479  1
  Nb  Nb123  1  0.70197809  0.29898684  0.90136427  1
  Nb  Nb124  1  0.69851546  0.90226960  0.09721469  1
  Nb  Nb125  1  0.40556116  0.39735305  0.00367367  1
  Nb  Nb126  1  0.79427509  0.20316091  -0.00125579  1
  Nb  Nb127  1  0.40356021  0.60043879  0.59941532  1
  Nb  Nb128  1  0.20817576  0.20279999  0.39657466  1
  Nb  Nb129  1  0.19379840  0.00676051  0.80733253  1
  Nb  Nb130  1  0.20245408  0.00861580  -0.00165080  1
  Nb  Nb131  1  0.00066196  -0.00050698  0.39981986  1
  Nb  Nb132  1  0.39615494  0.79743320  0.00377358  1
  Nb  Nb133  1  0.59383164  0.60264806  0.40028820  1
  Nb  Nb134  1  0.39115863  0.00360874  -0.00060223  1
  Nb  Nb135  1  0.00580357  0.39525234  0.39863741  1
  Nb  Nb136  1  0.59726357  0.39266076  0.00381874  1
  Nb  Nb137  1  0.19914810  0.60010722  0.39482630  1
  Nb  Nb138  1  -0.00007587  0.00053310  0.20453794  1
  Nb  Nb139  1  0.80049462  0.59399349  0.00129226  1
  Nb  Nb140  1  0.79551724  0.20140807  0.60311556  1
  Nb  Nb141  1  -0.00318021  0.00607592  0.59978570  1
  Nb  Nb142  1  0.59541750  0.79850019  0.39985190  1
  Nb  Nb143  1  0.59449995  0.20634217  0.40008979  1
  Nb  Nb144  1  0.60521408  0.20207996  0.59426447  1
  Nb  Nb145  1  0.80016157  0.60011488  0.19650277  1
  Nb  Nb146  1  0.20109851  0.79066077  0.39376712  1
  Nb  Nb147  1  0.19766554  0.79183079  0.20220341  1
  Nb  Nb148  1  0.79158306  0.00649050  0.00166864  1
  Nb  Nb149  1  0.60278744  0.80278507  0.20244348  1
  Pd  Pd150  1  0.59024552  0.39593147  0.80791060  1
  Pd  Pd151  1  0.19285794  0.59325489  0.80133157  1
  Pd  Pd152  1  0.60638547  0.59189131  -0.00403656  1
  Pd  Pd153  1  0.39693985  0.20058140  0.40342129  1
  Pd  Pd154  1  0.00544862  0.80532828  0.19140371  1
  Pd  Pd155  1  0.80700418  0.39160517  0.61050449  1
  Pd  Pd156  1  -0.00514565  0.79590911  0.79847122  1
  Pd  Pd157  1  -0.00411722  0.81092452  0.59488337  1
  Pd  Pd158  1  -0.00639606  0.59159853  0.59908175  1
  Pd  Pd159  1  0.19101925  -0.00935333  0.19068531  1
  Pd  Pd160  1  0.80602843  0.00914180  0.59359557  1
  Pd  Pd161  1  0.00660446  0.60319421  0.80008714  1
  Pd  Pd162  1  0.60097831  -0.00666492  0.79978193  1
  Pd  Pd163  1  0.40367196  -0.00385268  0.40391786  1
  Pd  Pd164  1  0.79836205  0.19202231  0.19184637  1
  Pd  Pd165  1  0.59028876  -0.00800421  0.20686475  1
  Pd  Pd166  1  0.00595870  0.38715089  -0.00414846  1
  Pd  Pd167  1  0.40035239  0.58656123  0.40034555  1
  Pd  Pd168  1  0.00391251  0.40063694  0.20527327  1
  Pd  Pd169  1  0.40020874  0.59823472  -0.00432656  1
  Pd  Pd170  1  0.20791681  0.19813123  0.00339626  1
  Pd  Pd171  1  -0.00750105  0.20842079  -0.00595770  1
  Pd  Pd172  1  0.40446451  0.60795380  0.78944281  1
  Pd  Pd173  1  0.00609657  0.00790956  0.79142811  1
  Pd  Pd174  1  0.60445547  0.60657278  0.20831551  1
  Pd  Pd175  1  0.40318750  0.19883823  0.60138119  1
  Pd  Pd176  1  0.60300959  0.39311662  0.60546752  1
  Pd  Pd177  1  0.59661729  0.00247859  -0.00810948  1
  Pd  Pd178  1  0.19305833  0.40874516  0.79628542  1
  Pd  Pd179  1  0.39219606  0.20328452  0.00243485  1
  Pd  Pd180  1  0.79451957  0.39886787  0.00494821  1
  Pd  Pd181  1  0.21029506  0.60165025  0.59270060  1
  Pd  Pd182  1  0.00803234  0.39522288  0.80248562  1
  Pd  Pd183  1  -0.00578654  0.79947203  0.00363553  1
  Pd  Pd184  1  0.20508770  0.40154526  -0.00052485  1
  Pd  Pd185  1  0.79089567  0.59217315  0.39577591  1
  Pd  Pd186  1  -0.00573898  0.40626037  0.59696626  1
  Pd  Pd187  1  0.79338429  0.79597586  0.19273309  1
  Pd  Pd188  1  0.40595679  -0.00309735  0.19015731  1
  Pd  Pd189  1  0.39977522  0.79204801  0.80199862  1
  Pd  Pd190  1  0.80627344  0.59970083  0.60551424  1
  Pd  Pd191  1  0.21335539  0.20218944  0.59756960  1
  Pd  Pd192  1  0.80222098  0.79434769  0.79841507  1
  Pd  Pd193  1  0.39730756  0.79178210  0.61065343  1
  Pd  Pd194  1  0.60268048  0.60256592  0.79921974  1
  Pd  Pd195  1  0.59031966  -0.00686092  0.39427885  1
  Pd  Pd196  1  0.78524768  0.20537426  0.40735567  1
  Pd  Pd197  1  -0.00074418  0.59561156  0.00067034  1
  Pd  Pd198  1  0.80979503  0.01078552  0.18904955  1
  Pd  Pd199  1  0.00874733  0.81050958  0.41663484  1
  Rh  Rh200  1  0.80321568  0.79993823  0.00035239  1
  Rh  Rh201  1  0.19765528  0.00381376  0.40121934  1
  Rh  Rh202  1  0.20695111  0.78822436  0.59001563  1
  Rh  Rh203  1  0.39982770  0.40927050  0.60367092  1
  Rh  Rh204  1  0.59896085  0.39005279  0.20163354  1
  Rh  Rh205  1  -0.01290793  0.19674296  0.60536071  1
  Rh  Rh206  1  0.59957552  0.20905944  0.21402207  1
  Rh  Rh207  1  0.20340334  0.19933796  0.79635082  1
  Rh  Rh208  1  0.40025023  0.20503367  0.79301225  1
  Rh  Rh209  1  -0.00151739  0.20351094  0.80449016  1
  Rh  Rh210  1  0.40271731  0.80489568  0.18877663  1
  Rh  Rh211  1  0.40109320  0.40264170  0.39344201  1
  Rh  Rh212  1  0.39426312  0.20293893  0.20033359  1
  Rh  Rh213  1  0.80244534  0.19689812  0.80184996  1
  Rh  Rh214  1  0.20786740  0.80892848  0.00460912  1
  Rh  Rh215  1  0.59270878  0.19952122  0.79014480  1
  Rh  Rh216  1  0.59480283  0.39903176  0.39074864  1
  Rh  Rh217  1  0.00129966  0.19511567  0.20337501  1
  Rh  Rh218  1  0.60292538  0.20502200  -0.00486019  1
  Rh  Rh219  1  0.40240999  0.58754283  0.20056329  1
  Rh  Rh220  1  0.40443828  -0.00442668  0.60061281  1
  Rh  Rh221  1  0.19581525  0.39615959  0.40329533  1
  Rh  Rh222  1  0.80864920  0.40816675  0.20612331  1
  Rh  Rh223  1  -0.00215070  0.00068039  0.00834538  1
  Rh  Rh224  1  0.58831507  0.79717975  0.00707887  1
  Rh  Rh225  1  0.19352193  0.60475187  0.20686679  1
  Rh  Rh226  1  0.60309314  0.80465121  0.59840247  1
  Rh  Rh227  1  0.19997058  0.59017044  -0.00811597  1
  Rh  Rh228  1  0.79123879  0.80775064  0.40564217  1
  Rh  Rh229  1  0.80116621  0.79685840  0.60062227  1
  Rh  Rh230  1  0.39939491  0.40216574  0.19523666  1
  Rh  Rh231  1  0.40012866  0.80924905  0.40145120  1
  Rh  Rh232  1  0.00060294  0.59412938  0.18884278  1
  Rh  Rh233  1  0.38875619  0.00071950  0.80666801  1
  Rh  Rh234  1  0.59644559  0.00105739  0.60443156  1
  Rh  Rh235  1  0.20440939  0.20299351  0.20129498  1
  Rh  Rh236  1  0.80927081  -0.00236567  0.40350986  1
  Rh  Rh237  1  0.01083990  0.58511401  0.41684179  1
  Rh  Rh238  1  0.19578755  0.80558487  0.80391510  1
  Rh  Rh239  1  0.81529543  0.40333571  0.39104354  1
  Rh  Rh240  1  0.79521101  0.00364518  0.81254182  1
  Rh  Rh241  1  0.80160058  0.60341137  0.80366508  1
  Rh  Rh242  1  0.80426454  0.39705598  0.79389772  1
  Rh  Rh243  1  0.59500623  0.59539396  0.59591369  1
  Rh  Rh244  1  0.01207734  0.20262126  0.38925488  1
  Rh  Rh245  1  0.19998753  0.39813964  0.19411338  1
  Rh  Rh246  1  0.18947428  0.01413609  0.61705528  1
  Rh  Rh247  1  0.40442935  0.40196651  0.80850702  1
  Rh  Rh248  1  0.20431835  0.39753037  0.60392305  1
  Rh  Rh249  1  0.60302763  0.80363161  0.79665080  1
