# generated using pymatgen
data_ZrScNbPdRh
_symmetry_space_group_name_H-M   'P 1'
_cell_length_a   16.55765928
_cell_length_b   16.55705191
_cell_length_c   16.56049830
_cell_angle_alpha   89.93104828
_cell_angle_beta   89.99331105
_cell_angle_gamma   90.01617176
_symmetry_Int_Tables_number   1
_chemical_formula_structural   ZrScNbPdRh
_chemical_formula_sum   'Zr50 Sc50 Nb50 Pd50 Rh50'
_cell_volume   4539.99126926
_cell_formula_units_Z   50
loop_
 _symmetry_equiv_pos_site_id
 _symmetry_equiv_pos_as_xyz
  1  'x, y, z'
loop_
 _atom_site_type_symbol
 _atom_site_label
 _atom_site_symmetry_multiplicity
 _atom_site_fract_x
 _atom_site_fract_y
 _atom_site_fract_z
 _atom_site_occupancy
  Zr  Zr0  1  0.90120299  0.89918944  0.09859399  1
  Zr  Zr1  1  0.69528118  0.10033685  0.10348208  1
  Zr  Zr2  1  0.49434332  0.10006320  0.30055482  1
  Zr  Zr3  1  0.69500632  0.30201739  0.51326203  1
  Zr  Zr4  1  0.10785146  0.50489572  0.90213901  1
  Zr  Zr5  1  0.70146295  0.50710597  0.29519835  1
  Zr  Zr6  1  0.09763599  0.30144978  0.89967151  1
  Zr  Zr7  1  0.50295953  0.09932057  0.89944662  1
  Zr  Zr8  1  0.10335743  0.69381063  0.69878321  1
  Zr  Zr9  1  0.50413525  0.49677848  0.70577412  1
  Zr  Zr10  1  0.49790545  0.49131351  0.30463093  1
  Zr  Zr11  1  0.89853382  0.90674239  0.70366856  1
  Zr  Zr12  1  0.30225989  0.30197236  0.29561775  1
  Zr  Zr13  1  0.09153531  0.30771632  0.69662626  1
  Zr  Zr14  1  0.10207703  0.69669079  0.50568745  1
  Zr  Zr15  1  0.90044704  0.70227631  0.89826671  1
  Zr  Zr16  1  0.90454755  0.50305792  0.10905021  1
  Zr  Zr17  1  0.10247194  0.10832635  0.49890488  1
  Zr  Zr18  1  0.50634558  0.89235059  0.69205977  1
  Zr  Zr19  1  0.69535474  0.09972334  0.30074941  1
  Zr  Zr20  1  0.49586569  0.90514592  0.49284960  1
  Zr  Zr21  1  0.09931667  0.09092199  0.29996023  1
  Zr  Zr22  1  0.89784385  0.29487755  0.08455160  1
  Zr  Zr23  1  0.90301669  0.09561896  0.09900531  1
  Zr  Zr24  1  0.09940382  0.89645437  0.89126152  1
  Zr  Zr25  1  0.89249079  0.68555309  0.30461452  1
  Zr  Zr26  1  0.69922984  0.69719837  0.90461119  1
  Zr  Zr27  1  0.69290451  0.90404708  0.10128786  1
  Zr  Zr28  1  0.69328046  0.69447763  0.10697461  1
  Zr  Zr29  1  0.70522695  0.69862831  0.49514078  1
  Zr  Zr30  1  0.10890002  0.90245420  0.29881964  1
  Zr  Zr31  1  0.69802289  0.10057636  0.89689238  1
  Zr  Zr32  1  0.10531038  0.09792578  0.10231714  1
  Zr  Zr33  1  0.29309993  0.49899075  0.10253288  1
  Zr  Zr34  1  0.69209392  0.69751763  0.69062601  1
  Zr  Zr35  1  0.10078319  0.69340720  0.89439102  1
  Zr  Zr36  1  0.29961999  0.29597375  0.51283458  1
  Zr  Zr37  1  0.09101536  0.49179716  0.29980871  1
  Zr  Zr38  1  0.30057117  0.29542508  0.91326608  1
  Zr  Zr39  1  0.30861979  0.50422123  0.30120765  1
  Zr  Zr40  1  0.30222239  0.70399611  0.30405954  1
  Zr  Zr41  1  0.70883772  0.29823845  0.89363905  1
  Zr  Zr42  1  0.10151938  0.89858814  0.69939693  1
  Zr  Zr43  1  0.49560452  0.29834945  0.10833542  1
  Zr  Zr44  1  0.69963255  0.90201575  0.49790163  1
  Zr  Zr45  1  0.90419165  0.29070043  0.89386839  1
  Zr  Zr46  1  0.09307215  0.50057306  0.51027774  1
  Zr  Zr47  1  0.90496883  0.28935130  0.50356902  1
  Zr  Zr48  1  0.89600077  0.90091050  0.89800445  1
  Zr  Zr49  1  0.10749285  0.50429748  0.70361288  1
  Sc  Sc50  1  0.49855341  0.09789769  0.69660664  1
  Sc  Sc51  1  0.49893374  0.10081415  0.10177652  1
  Sc  Sc52  1  0.30102901  0.68724812  0.90506392  1
  Sc  Sc53  1  0.69540358  0.90508738  0.89371973  1
  Sc  Sc54  1  0.30294253  0.49626277  0.89921866  1
  Sc  Sc55  1  0.30277459  0.89931583  0.49755411  1
  Sc  Sc56  1  0.49049426  0.70924928  0.50728679  1
  Sc  Sc57  1  0.10056830  0.70523017  0.30836814  1
  Sc  Sc58  1  0.11189911  0.29978099  0.09885713  1
  Sc  Sc59  1  0.49905648  0.69668246  0.69921011  1
  Sc  Sc60  1  0.90753491  0.49629669  0.68758356  1
  Sc  Sc61  1  0.09795193  0.90549698  0.10314526  1
  Sc  Sc62  1  0.91180858  0.90165349  0.30998641  1
  Sc  Sc63  1  0.09861589  0.90505646  0.49066223  1
  Sc  Sc64  1  0.30661733  0.69498571  0.10269613  1
  Sc  Sc65  1  0.89741641  0.69361707  0.08969882  1
  Sc  Sc66  1  0.49922769  0.50393776  0.90162795  1
  Sc  Sc67  1  0.09208818  0.10767926  0.89959592  1
  Sc  Sc68  1  0.30482191  0.11322949  0.09874173  1
  Sc  Sc69  1  0.49830846  0.48782147  0.49630375  1
  Sc  Sc70  1  0.29922310  0.30049211  0.10333639  1
  Sc  Sc71  1  0.50167697  0.50102567  0.09836268  1
  Sc  Sc72  1  0.69421660  0.50079540  0.09732037  1
  Sc  Sc73  1  0.48781425  0.90608680  0.29865342  1
  Sc  Sc74  1  0.10185556  0.49874553  0.10175810  1
  Sc  Sc75  1  0.50610365  0.30516236  0.90479284  1
  Sc  Sc76  1  0.49028090  0.69472201  0.29183346  1
  Sc  Sc77  1  0.91405258  0.30017458  0.31161737  1
  Sc  Sc78  1  0.90313265  0.49767445  0.90960453  1
  Sc  Sc79  1  0.29493265  0.09609113  0.29111062  1
  Sc  Sc80  1  0.30284596  0.89574121  0.11089299  1
  Sc  Sc81  1  0.70015745  0.90660677  0.70662182  1
  Sc  Sc82  1  0.49650527  0.30747501  0.29951515  1
  Sc  Sc83  1  0.09747463  0.09487056  0.69517290  1
  Sc  Sc84  1  0.70648668  0.11031435  0.50633329  1
  Sc  Sc85  1  0.68455930  0.30392375  0.29930845  1
  Sc  Sc86  1  0.69402789  0.90604919  0.29846221  1
  Sc  Sc87  1  0.51194374  0.30244590  0.69366981  1
  Sc  Sc88  1  0.90094439  0.10384876  0.69806918  1
  Sc  Sc89  1  0.29315660  0.91188231  0.69752276  1
  Sc  Sc90  1  0.10443628  0.29317410  0.30191284  1
  Sc  Sc91  1  0.90387600  0.69725167  0.48962117  1
  Sc  Sc92  1  0.50410247  0.90353472  0.89060547  1
  Sc  Sc93  1  0.70156828  0.11005510  0.70143773  1
  Sc  Sc94  1  0.10224473  0.69153116  0.09394301  1
  Sc  Sc95  1  0.90608371  0.50603754  0.49189538  1
  Sc  Sc96  1  0.69008021  0.30298031  0.09751195  1
  Sc  Sc97  1  0.69880868  0.49859836  0.50753322  1
  Sc  Sc98  1  0.69088813  0.49175647  0.89850313  1
  Sc  Sc99  1  0.31255641  0.49656213  0.50789678  1
  Nb  Nb100  1  0.29587562  0.89845648  0.29758129  1
  Nb  Nb101  1  0.70081604  0.49573941  0.70111648  1
  Nb  Nb102  1  0.30309724  0.09918903  0.89435489  1
  Nb  Nb103  1  0.29747421  0.69051837  0.68878167  1
  Nb  Nb104  1  0.30056437  0.69404002  0.50079835  1
  Nb  Nb105  1  0.69919573  0.69991857  0.29991745  1
  Nb  Nb106  1  0.49638571  0.70122116  0.09093046  1
  Nb  Nb107  1  0.30613155  0.09851993  0.52070117  1
  Nb  Nb108  1  0.89732818  0.70201714  0.69995995  1
  Nb  Nb109  1  0.50107368  0.30103208  0.49835970  1
  Nb  Nb110  1  0.49319946  0.69867996  0.90691697  1
  Nb  Nb111  1  0.89976943  0.10390625  0.30365264  1
  Nb  Nb112  1  0.49615839  0.89865521  0.09245960  1
  Nb  Nb113  1  0.30098010  0.30348042  0.70415484  1
  Nb  Nb114  1  0.30579353  0.49512520  0.70154745  1
  Nb  Nb115  1  0.89697270  0.29823254  0.70182511  1
  Nb  Nb116  1  0.29986794  0.10424074  0.69655638  1
  Nb  Nb117  1  0.89888018  0.49591057  0.30055992  1
  Nb  Nb118  1  0.89470383  0.11105536  0.90510953  1
  Nb  Nb119  1  0.09876377  0.30189095  0.49561012  1
  Nb  Nb120  1  0.90272742  0.10155887  0.49715845  1
  Nb  Nb121  1  0.90046336  0.90092194  0.50238335  1
  Nb  Nb122  1  0.29851362  0.90225308  0.89178740  1
  Nb  Nb123  1  0.70930051  0.31343409  0.70033021  1
  Nb  Nb124  1  0.49741789  0.09789348  0.50057637  1
  Nb  Nb125  1  0.20876851  -0.00220783  -0.00821036  1
  Nb  Nb126  1  0.59932545  0.79418176  0.39485361  1
  Nb  Nb127  1  0.79671911  0.59800704  0.79167964  1
  Nb  Nb128  1  -0.00632159  0.80153627  0.60081141  1
  Nb  Nb129  1  0.59833237  0.60601865  0.39845002  1
  Nb  Nb130  1  0.80113815  0.39881101  0.39556053  1
  Nb  Nb131  1  0.80088409  0.79704383  0.20359310  1
  Nb  Nb132  1  0.19985913  0.40136055  0.40651732  1
  Nb  Nb133  1  0.20517418  0.80655048  -0.00740684  1
  Nb  Nb134  1  0.59094768  0.79777088  0.00284827  1
  Nb  Nb135  1  0.80573836  0.80261324  0.59926445  1
  Nb  Nb136  1  0.59067020  0.19959144  0.40835929  1
  Nb  Nb137  1  -0.00468317  0.19458717  0.19904491  1
  Nb  Nb138  1  0.80614747  0.39571241  0.20468062  1
  Nb  Nb139  1  0.20668266  0.20188771  0.79479442  1
  Nb  Nb140  1  0.39312664  0.79657218  0.80024163  1
  Nb  Nb141  1  0.59760642  0.00312422  0.59264611  1
  Nb  Nb142  1  0.39375009  0.20129674  0.79682240  1
  Nb  Nb143  1  0.80417467  0.20429678  0.20431182  1
  Nb  Nb144  1  -0.00621731  0.79710981  0.20109644  1
  Nb  Nb145  1  0.20471450  0.59362468  0.40625423  1
  Nb  Nb146  1  0.39902619  0.19682989  0.41082465  1
  Nb  Nb147  1  0.80721595  0.00656395  0.40474061  1
  Nb  Nb148  1  0.80010792  0.00431704  -0.00133518  1
  Nb  Nb149  1  0.39487639  -0.00402344  -0.00525827  1
  Pd  Pd150  1  0.59707412  0.20592813  0.79401893  1
  Pd  Pd151  1  0.20376302  0.39639096  0.80434237  1
  Pd  Pd152  1  0.59846795  0.20430215  0.00050900  1
  Pd  Pd153  1  0.19359058  0.01234845  0.80154103  1
  Pd  Pd154  1  0.19896256  0.80714960  0.59344620  1
  Pd  Pd155  1  0.79464590  0.00165835  0.59747316  1
  Pd  Pd156  1  0.41064194  0.20596800  0.60609236  1
  Pd  Pd157  1  0.78771392  0.80724728  0.00592076  1
  Pd  Pd158  1  0.00378824  -0.00212420  0.59379638  1
  Pd  Pd159  1  0.79382146  0.40505944  0.00551493  1
  Pd  Pd160  1  0.21112462  0.19991909  0.40027904  1
  Pd  Pd161  1  0.40348044  0.80109855  0.20255865  1
  Pd  Pd162  1  0.40154646  0.40407946  0.00474771  1
  Pd  Pd163  1  0.59487103  0.80239367  0.20227040  1
  Pd  Pd164  1  0.01120228  0.79750335  0.00572498  1
  Pd  Pd165  1  0.39514495  0.80694800  -0.00912886  1
  Pd  Pd166  1  0.19420666  0.60370722  0.21065002  1
  Pd  Pd167  1  0.19051111  0.20221923  0.60966883  1
  Pd  Pd168  1  0.58875844  0.59680404  0.20369812  1
  Pd  Pd169  1  -0.00674966  0.40886783  0.80108617  1
  Pd  Pd170  1  0.79067590  0.79390055  0.79324654  1
  Pd  Pd171  1  0.38640544  0.80554495  0.60834111  1
  Pd  Pd172  1  0.78970345  0.20591266  0.39421524  1
  Pd  Pd173  1  0.79541382  0.59000898  -0.00508132  1
  Pd  Pd174  1  0.00545354  0.60878730  0.20409004  1
  Pd  Pd175  1  0.60256784  0.60078607  0.80444285  1
  Pd  Pd176  1  0.81088512  0.41053923  0.80106565  1
  Pd  Pd177  1  0.40742001  0.39060741  0.80170196  1
  Pd  Pd178  1  -0.00069142  0.79729048  0.79312371  1
  Pd  Pd179  1  0.58891112  0.59430293  0.58931139  1
  Pd  Pd180  1  0.39630395  0.60473620  0.79708939  1
  Pd  Pd181  1  0.00825303  0.40146398  0.00514906  1
  Pd  Pd182  1  0.21133513  0.00683865  0.40835158  1
  Pd  Pd183  1  0.58608875  -0.00116173  0.19997610  1
  Pd  Pd184  1  0.38460856  0.00764518  0.39866719  1
  Pd  Pd185  1  0.00205328  0.00084549  -0.01017072  1
  Pd  Pd186  1  0.59334546  0.79074859  0.80682566  1
  Pd  Pd187  1  0.40543086  -0.00162351  0.79405813  1
  Pd  Pd188  1  0.80750356  -0.00331724  0.20620102  1
  Pd  Pd189  1  0.21198943  0.78680146  0.80016159  1
  Pd  Pd190  1  0.40922783  0.59256592  0.59880100  1
  Pd  Pd191  1  -0.00524699  0.01074334  0.80544767  1
  Pd  Pd192  1  -0.01109417  0.59166862  0.79831766  1
  Pd  Pd193  1  0.80677986  0.60206503  0.60107604  1
  Pd  Pd194  1  0.20198600  0.40491818  0.59785882  1
  Pd  Pd195  1  0.79765055  0.81037414  0.39422606  1
  Pd  Pd196  1  0.20412788  0.79681231  0.40829852  1
  Pd  Pd197  1  0.19199364  0.79477122  0.18914738  1
  Pd  Pd198  1  0.81006354  0.40205209  0.59080098  1
  Pd  Pd199  1  -0.00223776  0.38486253  0.19335789  1
  Rh  Rh200  1  0.20095399  0.40134582  0.20952069  1
  Rh  Rh201  1  0.59778503  0.19448093  0.59749849  1
  Rh  Rh202  1  0.80492573  0.01148203  0.80831372  1
  Rh  Rh203  1  0.19996231  0.40214024  -0.00076140  1
  Rh  Rh204  1  -0.00597051  0.61042146  0.60289760  1
  Rh  Rh205  1  0.39626431  0.00015694  0.19153736  1
  Rh  Rh206  1  0.40357164  0.59572602  0.19335081  1
  Rh  Rh207  1  0.39847574  0.59107815  0.00461735  1
  Rh  Rh208  1  0.79138326  0.58739142  0.40425246  1
  Rh  Rh209  1  0.40098115  0.20066293  0.20739087  1
  Rh  Rh210  1  0.00189169  0.79810100  0.40096417  1
  Rh  Rh211  1  0.40150554  0.79875067  0.39667710  1
  Rh  Rh212  1  0.21012422  0.58825551  0.59726131  1
  Rh  Rh213  1  -0.00268349  0.00587672  0.40452647  1
  Rh  Rh214  1  0.80536479  0.20376037  0.60696670  1
  Rh  Rh215  1  0.78767591  0.19374481  0.00601566  1
  Rh  Rh216  1  0.40773294  0.19391128  -0.00629451  1
  Rh  Rh217  1  0.38871412  0.38603205  0.40593779  1
  Rh  Rh218  1  0.60885199  0.00585912  0.40702804  1
  Rh  Rh219  1  0.80142624  0.59924542  0.19553318  1
  Rh  Rh220  1  0.00794617  0.19404702  0.39518074  1
  Rh  Rh221  1  0.01084590  0.59892819  0.39550669  1
  Rh  Rh222  1  0.60872632  0.80667456  0.59145898  1
  Rh  Rh223  1  0.59732930  0.40617652  0.60217879  1
  Rh  Rh224  1  0.19698645  0.19322484  -0.00708949  1
  Rh  Rh225  1  0.59517544  0.60416599  -0.00343369  1
  Rh  Rh226  1  0.19448305  0.19888494  0.20168984  1
  Rh  Rh227  1  0.19689031  -0.00012510  0.59435026  1
  Rh  Rh228  1  0.00373316  0.19907089  0.79153179  1
  Rh  Rh229  1  0.20364604  0.60148734  0.00141732  1
  Rh  Rh230  1  0.59868519  0.00543538  0.78557125  1
  Rh  Rh231  1  0.80057307  0.20090075  0.79282471  1
  Rh  Rh232  1  0.59817527  0.39827189  -0.00014679  1
  Rh  Rh233  1  0.59883427  0.20112871  0.20752697  1
  Rh  Rh234  1  -0.00380932  -0.00270327  0.20795814  1
  Rh  Rh235  1  0.40623457  0.39805962  0.60780856  1
  Rh  Rh236  1  0.21007812  0.00004663  0.19020456  1
  Rh  Rh237  1  0.60058551  0.39688540  0.80043389  1
  Rh  Rh238  1  -0.00585848  0.39388515  0.59449757  1
  Rh  Rh239  1  0.40469311  -0.00628231  0.60534960  1
  Rh  Rh240  1  0.59588269  -0.00732266  -0.00108697  1
  Rh  Rh241  1  0.60165848  0.40298578  0.19581526  1
  Rh  Rh242  1  0.00231769  0.20141601  0.60319282  1
  Rh  Rh243  1  0.60938509  0.40184321  0.40545487  1
  Rh  Rh244  1  0.21239282  0.59826427  0.79615014  1
  Rh  Rh245  1  0.00134345  0.59786287  -0.00267813  1
  Rh  Rh246  1  0.00142841  0.39999355  0.40677714  1
  Rh  Rh247  1  0.40240392  0.60609509  0.40673849  1
  Rh  Rh248  1  0.40000866  0.40556752  0.19257177  1
  Rh  Rh249  1  0.01064149  0.20035781  0.00807946  1
