# generated using pymatgen
data_ZrScNbPdRh
_symmetry_space_group_name_H-M   'P 1'
_cell_length_a   16.56274260
_cell_length_b   16.56281357
_cell_length_c   16.55921320
_cell_angle_alpha   89.98593936
_cell_angle_beta   89.98517280
_cell_angle_gamma   90.00416033
_symmetry_Int_Tables_number   1
_chemical_formula_structural   ZrScNbPdRh
_chemical_formula_sum   'Zr50 Sc50 Nb50 Pd50 Rh50'
_cell_volume   4542.61609114
_cell_formula_units_Z   50
loop_
 _symmetry_equiv_pos_site_id
 _symmetry_equiv_pos_as_xyz
  1  'x, y, z'
loop_
 _atom_site_type_symbol
 _atom_site_label
 _atom_site_symmetry_multiplicity
 _atom_site_fract_x
 _atom_site_fract_y
 _atom_site_fract_z
 _atom_site_occupancy
  Zr  Zr0  1  0.30463948  0.30825825  0.70012370  1
  Zr  Zr1  1  0.69602427  0.30423259  0.70430851  1
  Zr  Zr2  1  0.89408592  0.49440613  0.90248605  1
  Zr  Zr3  1  0.68547478  0.09299387  0.89658565  1
  Zr  Zr4  1  0.10260508  0.30652226  0.29535089  1
  Zr  Zr5  1  0.89629632  0.30242528  0.90291791  1
  Zr  Zr6  1  0.10884464  0.30130746  0.70242009  1
  Zr  Zr7  1  0.90354719  0.10612640  0.90093944  1
  Zr  Zr8  1  0.30530131  0.11412448  0.70397751  1
  Zr  Zr9  1  0.89999066  0.29640395  0.49268936  1
  Zr  Zr10  1  0.10177235  0.70042462  0.70900499  1
  Zr  Zr11  1  0.70061631  0.50599086  0.09919393  1
  Zr  Zr12  1  0.30486946  0.69522614  0.50259009  1
  Zr  Zr13  1  0.49649261  0.70019791  0.29963660  1
  Zr  Zr14  1  0.69176815  0.09057370  0.50646238  1
  Zr  Zr15  1  0.09496595  0.49658442  0.50039267  1
  Zr  Zr16  1  0.48683135  0.89898246  0.10174688  1
  Zr  Zr17  1  0.50102609  0.49554442  0.09624828  1
  Zr  Zr18  1  0.28960574  0.09359343  0.09700019  1
  Zr  Zr19  1  0.29628158  0.70085735  0.30020801  1
  Zr  Zr20  1  0.89632942  0.08591695  0.70092509  1
  Zr  Zr21  1  0.90204223  0.49312496  0.29714537  1
  Zr  Zr22  1  0.30592115  0.69303934  0.89951725  1
  Zr  Zr23  1  0.70261769  0.10329609  0.69448690  1
  Zr  Zr24  1  0.10317123  0.89623027  0.30055725  1
  Zr  Zr25  1  0.29780037  0.10605016  0.49584791  1
  Zr  Zr26  1  0.10523755  0.70258104  0.90763405  1
  Zr  Zr27  1  0.70171008  0.09935544  0.30065538  1
  Zr  Zr28  1  0.10007097  0.90139126  0.50033835  1
  Zr  Zr29  1  0.30081823  0.29676718  0.31080132  1
  Zr  Zr30  1  0.09873628  0.89537478  0.89609901  1
  Zr  Zr31  1  0.49707123  0.90079480  0.30120535  1
  Zr  Zr32  1  0.09240588  0.09501160  0.49660269  1
  Zr  Zr33  1  0.91056619  0.90256616  0.50838174  1
  Zr  Zr34  1  0.30166382  0.89960667  0.28741683  1
  Zr  Zr35  1  0.89678270  0.10154794  0.50746184  1
  Zr  Zr36  1  0.50825485  0.50024238  0.50968001  1
  Zr  Zr37  1  0.89982102  0.49999923  0.70261249  1
  Zr  Zr38  1  0.29628356  0.89782143  0.10266850  1
  Zr  Zr39  1  0.50473635  0.29803593  0.90060320  1
  Zr  Zr40  1  0.91044264  0.70143370  0.49884620  1
  Zr  Zr41  1  0.49749679  0.50706421  0.90417953  1
  Zr  Zr42  1  0.90431857  0.90132384  0.89320516  1
  Zr  Zr43  1  0.50658370  0.89931427  0.50158328  1
  Zr  Zr44  1  0.69448065  0.90584814  0.70450493  1
  Zr  Zr45  1  0.70428839  0.49365180  0.29893377  1
  Zr  Zr46  1  0.10260647  0.49481333  0.70101056  1
  Zr  Zr47  1  0.90477692  0.49968486  0.49974237  1
  Zr  Zr48  1  0.09914946  0.29801219  0.49470809  1
  Zr  Zr49  1  0.29603679  0.89854182  0.49994503  1
  Sc  Sc50  1  0.70224639  0.30323968  0.90211795  1
  Sc  Sc51  1  0.90265676  0.49824465  0.10116545  1
  Sc  Sc52  1  0.10627345  0.89754085  0.10739824  1
  Sc  Sc53  1  0.90219250  0.10195872  0.30606656  1
  Sc  Sc54  1  0.91089779  0.69828350  0.90379485  1
  Sc  Sc55  1  0.09228426  0.49690704  0.29924793  1
  Sc  Sc56  1  0.30106116  0.89094877  0.69314614  1
  Sc  Sc57  1  0.68878374  0.89724383  0.50654318  1
  Sc  Sc58  1  0.69731854  0.30715077  0.49537420  1
  Sc  Sc59  1  0.49353600  0.10529429  0.09399283  1
  Sc  Sc60  1  0.30032391  0.10750795  0.29353322  1
  Sc  Sc61  1  0.50041333  0.69565126  0.70147017  1
  Sc  Sc62  1  0.89041088  0.28531044  0.70094367  1
  Sc  Sc63  1  0.70851159  0.69974296  0.28807089  1
  Sc  Sc64  1  0.49894475  0.30257692  0.69660385  1
  Sc  Sc65  1  0.29745304  0.50178579  0.30316648  1
  Sc  Sc66  1  0.09903538  0.30853175  0.09548608  1
  Sc  Sc67  1  0.30022025  0.88169023  0.90743663  1
  Sc  Sc68  1  0.09444729  0.29480432  0.90562164  1
  Sc  Sc69  1  0.09975072  0.70300305  0.49192980  1
  Sc  Sc70  1  0.31077052  0.69893191  0.70302485  1
  Sc  Sc71  1  0.30916314  0.49620524  0.49975854  1
  Sc  Sc72  1  0.09742378  0.09917743  0.70381961  1
  Sc  Sc73  1  0.70596978  0.91218300  0.09730239  1
  Sc  Sc74  1  0.49937609  0.30416164  0.08971449  1
  Sc  Sc75  1  0.69534325  0.68848723  0.89597411  1
  Sc  Sc76  1  0.70570872  0.10328410  0.09461029  1
  Sc  Sc77  1  0.71039105  0.30663126  0.30091578  1
  Sc  Sc78  1  0.30080039  0.70804315  0.09596656  1
  Sc  Sc79  1  0.70300781  0.30587435  0.09619460  1
  Sc  Sc80  1  0.30275562  0.29791760  0.89454656  1
  Sc  Sc81  1  0.69300592  0.89958609  0.30705073  1
  Sc  Sc82  1  0.29944091  0.49491186  0.09017160  1
  Sc  Sc83  1  0.48932646  0.30516469  0.50232727  1
  Sc  Sc84  1  0.50083896  0.50105611  0.69855716  1
  Sc  Sc85  1  0.89122818  0.09858588  0.10261016  1
  Sc  Sc86  1  0.69952999  0.49726966  0.89338358  1
  Sc  Sc87  1  0.89735884  0.30313276  0.09014311  1
  Sc  Sc88  1  0.10283632  0.10580176  0.90155329  1
  Sc  Sc89  1  0.50822714  0.11309996  0.69946685  1
  Sc  Sc90  1  0.90953239  0.89821683  0.29126803  1
  Sc  Sc91  1  0.50553903  0.50110852  0.29558315  1
  Sc  Sc92  1  0.29241333  0.30088162  0.10320541  1
  Sc  Sc93  1  0.09380938  0.89933729  0.69758252  1
  Sc  Sc94  1  0.50404332  0.88611259  0.70294057  1
  Sc  Sc95  1  0.90653404  0.69502926  0.70425774  1
  Sc  Sc96  1  0.49998869  0.70286472  0.50831133  1
  Sc  Sc97  1  0.49351377  0.68958122  0.09520383  1
  Sc  Sc98  1  0.10080028  0.09707823  0.30232567  1
  Sc  Sc99  1  0.10384469  0.50374721  0.91169045  1
  Nb  Nb100  1  0.49560054  0.29441289  0.29902058  1
  Nb  Nb101  1  0.30099394  0.50078285  0.70594930  1
  Nb  Nb102  1  0.90024490  0.90108033  0.09576844  1
  Nb  Nb103  1  0.90752171  0.70002818  0.29827681  1
  Nb  Nb104  1  0.49512726  0.10198957  0.29954678  1
  Nb  Nb105  1  0.49634449  0.70665105  0.89471432  1
  Nb  Nb106  1  0.69825436  0.50646862  0.69415702  1
  Nb  Nb107  1  0.89826616  0.70926824  0.11288936  1
  Nb  Nb108  1  0.89825560  0.89834801  0.70200714  1
  Nb  Nb109  1  0.30772636  0.49957665  0.89469246  1
  Nb  Nb110  1  0.70163823  0.50326836  0.50165328  1
  Nb  Nb111  1  0.69747448  0.69705918  0.69798649  1
  Nb  Nb112  1  0.30250990  0.10061509  0.89642977  1
  Nb  Nb113  1  0.50776097  0.90070027  0.89565408  1
  Nb  Nb114  1  0.90247610  0.30092916  0.29813290  1
  Nb  Nb115  1  0.10095784  0.49689493  0.10690641  1
  Nb  Nb116  1  0.09003780  0.69294212  0.10333305  1
  Nb  Nb117  1  0.08911372  0.70038824  0.29426251  1
  Nb  Nb118  1  0.30062537  0.29797092  0.50040168  1
  Nb  Nb119  1  0.49531702  0.10044238  0.89811312  1
  Nb  Nb120  1  0.49917892  0.09757420  0.49918560  1
  Nb  Nb121  1  0.70501822  0.70610491  0.09649003  1
  Nb  Nb122  1  0.09700026  0.10304395  0.09597546  1
  Nb  Nb123  1  0.69050172  0.89659835  0.89776808  1
  Nb  Nb124  1  0.70445679  0.69775222  0.50455695  1
  Nb  Nb125  1  0.20279683  0.59468966  0.60399973  1
  Nb  Nb126  1  0.79888639  0.79747164  0.60478846  1
  Nb  Nb127  1  0.80170254  0.60354559  0.40069527  1
  Nb  Nb128  1  0.61153744  0.60106849  0.40442057  1
  Nb  Nb129  1  -0.00069553  0.20325947  0.19784546  1
  Nb  Nb130  1  0.59669147  0.19995082  0.20580446  1
  Nb  Nb131  1  0.20130579  0.20446253  0.59589107  1
  Nb  Nb132  1  0.39774883  0.00050979  -0.01192730  1
  Nb  Nb133  1  0.80172180  -0.00748376  0.40714583  1
  Nb  Nb134  1  0.79559239  0.40679364  0.60086624  1
  Nb  Nb135  1  0.80408047  0.79723032  0.40458131  1
  Nb  Nb136  1  0.40257645  0.00379274  0.40204115  1
  Nb  Nb137  1  0.59333430  0.00408025  0.20126322  1
  Nb  Nb138  1  0.19014494  0.60115981  0.19608655  1
  Nb  Nb139  1  0.79529363  0.80068147  0.80043403  1
  Nb  Nb140  1  0.40160304  -0.00107304  0.80240480  1
  Nb  Nb141  1  0.60248999  0.80080717  -0.00085183  1
  Nb  Nb142  1  -0.00246119  0.39840380  0.80106454  1
  Nb  Nb143  1  0.60056787  0.80168723  0.18925715  1
  Nb  Nb144  1  0.79827305  0.80091330  -0.00043987  1
  Nb  Nb145  1  0.21194218  0.00083450  0.80445079  1
  Nb  Nb146  1  0.40278451  0.00428631  0.59987703  1
  Nb  Nb147  1  0.00076886  -0.00074490  0.00461979  1
  Nb  Nb148  1  0.40086106  0.39501128  0.20366685  1
  Nb  Nb149  1  0.59140847  0.19826473  0.39509770  1
  Pd  Pd150  1  0.38680165  0.59093502  0.19388477  1
  Pd  Pd151  1  0.80441184  -0.00167339  -0.01022717  1
  Pd  Pd152  1  0.20887133  0.00239300  0.39015783  1
  Pd  Pd153  1  0.80052214  0.60615670  0.80166603  1
  Pd  Pd154  1  0.00270041  0.00763046  0.19406736  1
  Pd  Pd155  1  0.39723310  0.80429685  0.40362481  1
  Pd  Pd156  1  0.59590365  0.38913145  0.19787156  1
  Pd  Pd157  1  0.01170359  0.60639661  0.60061484  1
  Pd  Pd158  1  -0.00712345  0.59640765  0.00702467  1
  Pd  Pd159  1  0.19729795  -0.00540344  -0.00813795  1
  Pd  Pd160  1  -0.00030484  0.80465305  0.00871901  1
  Pd  Pd161  1  0.19958447  0.79632246  0.39791816  1
  Pd  Pd162  1  0.19708253  0.78780023  0.60133603  1
  Pd  Pd163  1  0.79538997  -0.00157806  0.80767619  1
  Pd  Pd164  1  0.00589518  0.59124331  0.81017582  1
  Pd  Pd165  1  0.19423694  0.40096985  0.81503973  1
  Pd  Pd166  1  0.19161236  0.59711415  0.39879318  1
  Pd  Pd167  1  0.80527258  0.60138552  0.59878771  1
  Pd  Pd168  1  0.40978861  0.40079156  0.80147251  1
  Pd  Pd169  1  0.20855320  0.40239555  0.59270925  1
  Pd  Pd170  1  0.59969098  0.21093691  0.58866840  1
  Pd  Pd171  1  0.59993611  0.60503971  -0.00197707  1
  Pd  Pd172  1  0.39186488  0.20107709  0.00205733  1
  Pd  Pd173  1  0.40794880  0.40670606  0.39530231  1
  Pd  Pd174  1  0.20545451  0.00870377  0.61235456  1
  Pd  Pd175  1  0.79103978  0.19386512  0.40673123  1
  Pd  Pd176  1  0.59566673  0.40622456  0.80067763  1
  Pd  Pd177  1  0.80630512  0.59725641  0.20104452  1
  Pd  Pd178  1  0.59431195  0.39928549  0.39964572  1
  Pd  Pd179  1  0.80178165  0.20693498  0.19734314  1
  Pd  Pd180  1  0.20671399  0.80388921  0.79631554  1
  Pd  Pd181  1  0.60514071  0.20123710  0.00612164  1
  Pd  Pd182  1  0.79680758  -0.00693548  0.21061419  1
  Pd  Pd183  1  0.00110579  0.20409815  0.79659984  1
  Pd  Pd184  1  0.41255841  0.59433373  0.40312472  1
  Pd  Pd185  1  0.60897173  0.78599225  0.39326062  1
  Pd  Pd186  1  0.60211841  0.60800561  0.20299607  1
  Pd  Pd187  1  0.80783864  0.60715802  0.00095828  1
  Pd  Pd188  1  0.20278176  0.59809221  0.79914130  1
  Pd  Pd189  1  0.20287865  0.20680207  -0.00323019  1
  Pd  Pd190  1  0.20275838  0.39682415  -0.00739311  1
  Pd  Pd191  1  0.59010933  -0.00287574  0.00984545  1
  Pd  Pd192  1  0.20678501  0.60202640  0.00871232  1
  Pd  Pd193  1  0.79498607  0.81298149  0.20158330  1
  Pd  Pd194  1  0.19094979  0.19992383  0.19851512  1
  Pd  Pd195  1  -0.01234589  0.38678564  0.61022068  1
  Pd  Pd196  1  0.79124188  0.19597621  0.80760651  1
  Pd  Pd197  1  0.20069374  0.40632014  0.40089880  1
  Pd  Pd198  1  0.00428967  0.20030014  0.60710786  1
  Pd  Pd199  1  0.40140076  0.20512194  0.18841957  1
  Rh  Rh200  1  0.80649554  0.40548760  0.40644286  1
  Rh  Rh201  1  0.39743088  0.40475906  0.60225326  1
  Rh  Rh202  1  0.79313444  0.40753582  0.00340740  1
  Rh  Rh203  1  0.39690605  0.59949910  -0.00103454  1
  Rh  Rh204  1  -0.00103406  0.80511352  0.39401668  1
  Rh  Rh205  1  -0.00628391  0.19202053  0.01154529  1
  Rh  Rh206  1  0.60529863  0.40593128  -0.00402867  1
  Rh  Rh207  1  0.01092961  0.00213171  0.80564808  1
  Rh  Rh208  1  0.60561714  0.78741431  0.80418865  1
  Rh  Rh209  1  0.79589029  0.19779131  -0.00573829  1
  Rh  Rh210  1  0.79731707  -0.01263171  0.59412164  1
  Rh  Rh211  1  0.00386789  0.20285302  0.38732049  1
  Rh  Rh212  1  -0.00642109  -0.00408278  0.39787286  1
  Rh  Rh213  1  0.40473151  0.78875147  0.19852362  1
  Rh  Rh214  1  0.39786460  0.01065132  0.19657735  1
  Rh  Rh215  1  0.19621743  0.00525864  0.20296654  1
  Rh  Rh216  1  -0.00033150  0.39632346  0.39746207  1
  Rh  Rh217  1  0.39399904  0.59504363  0.60477005  1
  Rh  Rh218  1  0.40398078  0.80467035  0.59790267  1
  Rh  Rh219  1  0.60080299  0.20267081  0.80256998  1
  Rh  Rh220  1  -0.00115351  0.59730552  0.39345319  1
  Rh  Rh221  1  0.59594446  0.59900755  0.79724140  1
  Rh  Rh222  1  0.00334314  0.80316764  0.19534010  1
  Rh  Rh223  1  0.20923793  0.41024477  0.20155860  1
  Rh  Rh224  1  0.80296049  0.39767700  0.19353086  1
  Rh  Rh225  1  0.19224289  0.79473417  0.00837299  1
  Rh  Rh226  1  0.40904803  0.80203281  -0.00521345  1
  Rh  Rh227  1  0.78950784  0.21033552  0.59321423  1
  Rh  Rh228  1  0.00391302  0.00166558  0.60708723  1
  Rh  Rh229  1  0.19274588  0.78684036  0.19750382  1
  Rh  Rh230  1  0.59890663  0.00803512  0.39294024  1
  Rh  Rh231  1  0.39724015  0.20070647  0.59543277  1
  Rh  Rh232  1  0.59891056  0.60556541  0.59929763  1
  Rh  Rh233  1  0.00059022  0.79667565  0.60813525  1
  Rh  Rh234  1  0.40510981  0.59743509  0.79959386  1
  Rh  Rh235  1  0.19436863  0.19894486  0.40222488  1
  Rh  Rh236  1  0.39503508  0.39628643  0.00039391  1
  Rh  Rh237  1  -0.00568863  0.79711827  0.79531752  1
  Rh  Rh238  1  0.80220693  0.40076632  0.79078726  1
  Rh  Rh239  1  0.40429639  0.19644789  0.40705390  1
  Rh  Rh240  1  0.19755805  0.19853708  0.79802482  1
  Rh  Rh241  1  0.00164405  0.40613908  -0.00519263  1
  Rh  Rh242  1  0.60623180  0.39903593  0.60217867  1
  Rh  Rh243  1  0.40086916  0.80307987  0.80075588  1
  Rh  Rh244  1  -0.00457605  0.39141487  0.19387814  1
  Rh  Rh245  1  0.60448859  0.79328594  0.60557610  1
  Rh  Rh246  1  -0.00083361  0.59674924  0.19946980  1
  Rh  Rh247  1  0.58720590  -0.00148204  0.61269200  1
  Rh  Rh248  1  0.59029849  0.00691294  0.79272785  1
  Rh  Rh249  1  0.40881402  0.20409536  0.80228731  1
