# generated using pymatgen
data_ZrScNbPdRh
_symmetry_space_group_name_H-M   'P 1'
_cell_length_a   16.56203128
_cell_length_b   16.55831233
_cell_length_c   16.56098322
_cell_angle_alpha   89.99207971
_cell_angle_beta   90.02118727
_cell_angle_gamma   89.99688277
_symmetry_Int_Tables_number   1
_chemical_formula_structural   ZrScNbPdRh
_chemical_formula_sum   'Zr50 Sc50 Nb50 Pd50 Rh50'
_cell_volume   4541.67186504
_cell_formula_units_Z   50
loop_
 _symmetry_equiv_pos_site_id
 _symmetry_equiv_pos_as_xyz
  1  'x, y, z'
loop_
 _atom_site_type_symbol
 _atom_site_label
 _atom_site_symmetry_multiplicity
 _atom_site_fract_x
 _atom_site_fract_y
 _atom_site_fract_z
 _atom_site_occupancy
  Zr  Zr0  1  0.68990557  0.49984484  0.29620752  1
  Zr  Zr1  1  0.10251817  0.70263003  0.69758052  1
  Zr  Zr2  1  0.09925572  0.09562251  0.89995407  1
  Zr  Zr3  1  0.10417603  0.90066247  0.30138999  1
  Zr  Zr4  1  0.49629318  0.90052192  0.09885831  1
  Zr  Zr5  1  0.10313163  0.70776238  0.90272312  1
  Zr  Zr6  1  0.71130629  0.89772334  0.70233299  1
  Zr  Zr7  1  0.49650038  0.89306298  0.70149248  1
  Zr  Zr8  1  0.50282147  0.50141254  0.10114414  1
  Zr  Zr9  1  0.90611013  0.09514276  0.91076162  1
  Zr  Zr10  1  0.90097400  0.70659395  0.28907867  1
  Zr  Zr11  1  0.50180942  0.90038636  0.49356140  1
  Zr  Zr12  1  0.29930923  0.70590830  0.69771302  1
  Zr  Zr13  1  0.49370141  0.89805973  0.29767721  1
  Zr  Zr14  1  0.49420370  0.69754908  0.09457262  1
  Zr  Zr15  1  0.30418127  0.30135779  0.49521613  1
  Zr  Zr16  1  0.09104520  0.50666959  0.69295201  1
  Zr  Zr17  1  0.49479328  0.10214179  0.10173141  1
  Zr  Zr18  1  0.30001175  0.29320112  0.69723388  1
  Zr  Zr19  1  0.10033371  0.50176105  0.09882734  1
  Zr  Zr20  1  0.49681567  0.70668627  0.89709900  1
  Zr  Zr21  1  0.89549687  0.90377473  0.10274635  1
  Zr  Zr22  1  0.09632332  0.30849128  0.50019016  1
  Zr  Zr23  1  0.70051554  0.89606832  0.29670420  1
  Zr  Zr24  1  0.09827132  0.89955445  0.89437682  1
  Zr  Zr25  1  0.69802353  0.30389497  0.90449626  1
  Zr  Zr26  1  0.29395050  0.90133615  0.50047673  1
  Zr  Zr27  1  0.49905916  0.89753741  0.89966699  1
  Zr  Zr28  1  0.69988178  0.89288084  0.50313627  1
  Zr  Zr29  1  0.69216473  0.09533760  0.49836433  1
  Zr  Zr30  1  0.89117541  0.08523630  0.70675961  1
  Zr  Zr31  1  0.50067598  0.69235593  0.70058585  1
  Zr  Zr32  1  0.89648042  0.90265103  0.88683057  1
  Zr  Zr33  1  0.90885491  0.08797406  0.50104152  1
  Zr  Zr34  1  0.71515639  0.31133160  0.29372737  1
  Zr  Zr35  1  0.09572888  0.90546628  0.49913893  1
  Zr  Zr36  1  0.50108454  0.09216834  0.30391920  1
  Zr  Zr37  1  0.10633000  0.09293218  0.69950081  1
  Zr  Zr38  1  0.10056390  0.69502325  0.50216711  1
  Zr  Zr39  1  0.10725599  0.50705980  0.49872937  1
  Zr  Zr40  1  0.09917938  0.49234116  0.90617940  1
  Zr  Zr41  1  0.69859889  0.90094958  0.09441999  1
  Zr  Zr42  1  0.69897374  0.29429666  0.70508250  1
  Zr  Zr43  1  0.10323853  0.30035766  0.90087397  1
  Zr  Zr44  1  0.90807163  0.50975405  0.09721444  1
  Zr  Zr45  1  0.90014960  0.50198250  0.70129326  1
  Zr  Zr46  1  0.49917977  0.29525297  0.70163397  1
  Zr  Zr47  1  0.69875326  0.69708953  0.29631543  1
  Zr  Zr48  1  0.89063656  0.48639932  0.29938722  1
  Zr  Zr49  1  0.71401630  0.69997813  0.09381636  1
  Sc  Sc50  1  0.50414516  0.70358189  0.50200449  1
  Sc  Sc51  1  0.90656791  0.30934635  0.49096780  1
  Sc  Sc52  1  0.29480446  0.70883344  0.29716713  1
  Sc  Sc53  1  0.10282543  0.09735517  0.29379529  1
  Sc  Sc54  1  0.29346817  0.30770780  0.89444287  1
  Sc  Sc55  1  0.10550205  0.89641724  0.09982323  1
  Sc  Sc56  1  0.89434564  0.30028529  0.90868000  1
  Sc  Sc57  1  0.69594122  0.50096076  0.10228735  1
  Sc  Sc58  1  0.09786041  0.69441593  0.10952639  1
  Sc  Sc59  1  0.70318731  0.30515647  0.09864516  1
  Sc  Sc60  1  0.70153131  0.51478749  0.70117680  1
  Sc  Sc61  1  0.50241846  0.69918903  0.30967282  1
  Sc  Sc62  1  0.10239149  0.09126544  0.50022467  1
  Sc  Sc63  1  0.29933530  0.89950723  0.29787102  1
  Sc  Sc64  1  0.29132404  0.69528995  0.50217637  1
  Sc  Sc65  1  0.69561152  0.70209407  0.70080652  1
  Sc  Sc66  1  0.50194142  0.10613613  0.90723320  1
  Sc  Sc67  1  0.29871354  0.89950825  0.70041715  1
  Sc  Sc68  1  0.89807374  0.30371056  0.70764839  1
  Sc  Sc69  1  0.29570623  0.49443672  0.10811710  1
  Sc  Sc70  1  0.49593208  0.28977275  0.49460024  1
  Sc  Sc71  1  0.70742773  0.10473142  0.90189150  1
  Sc  Sc72  1  0.49833269  0.51232134  0.48981771  1
  Sc  Sc73  1  0.91054461  0.10439079  0.28534154  1
  Sc  Sc74  1  0.09438435  0.09776124  0.10395874  1
  Sc  Sc75  1  0.90070099  0.50350239  0.90057624  1
  Sc  Sc76  1  0.29828469  0.09851065  0.29232580  1
  Sc  Sc77  1  0.49920377  0.31194057  0.30148823  1
  Sc  Sc78  1  0.10315120  0.30305738  0.70402908  1
  Sc  Sc79  1  0.49690450  0.09737120  0.50160665  1
  Sc  Sc80  1  0.69980589  0.50374489  0.49544591  1
  Sc  Sc81  1  0.10510343  0.50176235  0.29221796  1
  Sc  Sc82  1  0.30058438  0.89194924  0.10955716  1
  Sc  Sc83  1  0.30305497  0.49192328  0.30698003  1
  Sc  Sc84  1  0.29969056  0.10615833  0.10874764  1
  Sc  Sc85  1  0.30917535  0.50585871  0.70695444  1
  Sc  Sc86  1  0.69383286  0.70084902  0.50297557  1
  Sc  Sc87  1  0.49923205  0.29997752  0.09848452  1
  Sc  Sc88  1  0.10151998  0.30449028  0.10394404  1
  Sc  Sc89  1  0.69880177  0.09530427  0.29962304  1
  Sc  Sc90  1  0.30065007  0.09636046  0.69586000  1
  Sc  Sc91  1  0.49174998  0.51797544  0.89781010  1
  Sc  Sc92  1  0.89197020  0.69269963  0.70975462  1
  Sc  Sc93  1  0.30332289  0.29741359  0.10387883  1
  Sc  Sc94  1  0.70924543  0.09936790  0.09866919  1
  Sc  Sc95  1  0.69606266  0.30258895  0.49052924  1
  Sc  Sc96  1  0.30242999  0.30485363  0.29810026  1
  Sc  Sc97  1  0.91398281  0.50135658  0.50558979  1
  Sc  Sc98  1  0.29609992  0.70543070  0.10102397  1
  Sc  Sc99  1  0.10181512  0.69843663  0.29972061  1
  Nb  Nb100  1  0.69439740  0.09997517  0.69896902  1
  Nb  Nb101  1  0.50509838  0.09992012  0.70179217  1
  Nb  Nb102  1  0.29865156  0.49362655  0.49809120  1
  Nb  Nb103  1  0.90092311  0.10538685  0.09470510  1
  Nb  Nb104  1  0.70075965  0.50023348  0.90374324  1
  Nb  Nb105  1  0.50225624  0.50125824  0.70025923  1
  Nb  Nb106  1  0.30347182  0.70093654  0.90488617  1
  Nb  Nb107  1  0.90014440  0.89769497  0.30606011  1
  Nb  Nb108  1  0.50116701  0.50424954  0.29385029  1
  Nb  Nb109  1  0.29854404  0.89189227  0.90233109  1
  Nb  Nb110  1  0.89183523  0.28628373  0.11739757  1
  Nb  Nb111  1  0.69487905  0.89081987  0.89527869  1
  Nb  Nb112  1  0.90165184  0.29566750  0.29739493  1
  Nb  Nb113  1  0.89119191  0.69733660  0.91298852  1
  Nb  Nb114  1  0.90368287  0.70211566  0.49258088  1
  Nb  Nb115  1  0.90123619  0.70019093  0.09260060  1
  Nb  Nb116  1  0.09741423  0.89429791  0.70040357  1
  Nb  Nb117  1  0.09563333  0.29136433  0.30293734  1
  Nb  Nb118  1  0.29754713  0.10637874  0.50588498  1
  Nb  Nb119  1  0.90286367  0.89882538  0.69446941  1
  Nb  Nb120  1  0.70933496  0.70639423  0.89689780  1
  Nb  Nb121  1  0.90172774  0.89707885  0.49952183  1
  Nb  Nb122  1  0.29919225  0.10081151  0.89780335  1
  Nb  Nb123  1  0.49590526  0.29897305  0.90377091  1
  Nb  Nb124  1  0.29904843  0.50489551  0.90364655  1
  Nb  Nb125  1  0.20685066  0.00013713  -0.00357542  1
  Nb  Nb126  1  0.40353539  0.40401093  0.59909895  1
  Nb  Nb127  1  0.39928922  0.40290797  -0.00609298  1
  Nb  Nb128  1  0.40278796  0.59824113  0.20429985  1
  Nb  Nb129  1  -0.00003770  0.19365786  0.79966697  1
  Nb  Nb130  1  0.80818491  -0.00471990  0.39936580  1
  Nb  Nb131  1  0.80222527  0.19881198  0.59553336  1
  Nb  Nb132  1  0.79448610  0.39738459  0.60161465  1
  Nb  Nb133  1  -0.00841663  0.79784710  -0.00017581  1
  Nb  Nb134  1  0.20223224  0.59881339  -0.00388165  1
  Nb  Nb135  1  0.59602975  0.40434380  0.60590397  1
  Nb  Nb136  1  -0.00733590  0.80263121  0.59959848  1
  Nb  Nb137  1  0.19875864  0.20297883  0.40069074  1
  Nb  Nb138  1  0.20198270  0.60241549  0.80797158  1
  Nb  Nb139  1  0.40135998  0.19784842  0.80281827  1
  Nb  Nb140  1  0.60153901  0.20145487  0.20281021  1
  Nb  Nb141  1  0.80767537  0.19612978  0.39937103  1
  Nb  Nb142  1  0.20825744  0.40555862  0.59778287  1
  Nb  Nb143  1  0.60240240  0.00313505  0.79644036  1
  Nb  Nb144  1  0.20117115  0.19513050  -0.00370381  1
  Nb  Nb145  1  -0.00557379  0.19642774  0.60569003  1
  Nb  Nb146  1  0.60034025  0.79738556  0.19484145  1
  Nb  Nb147  1  0.59466487  0.40433062  0.80262902  1
  Nb  Nb148  1  0.80601520  0.60393795  0.39817087  1
  Nb  Nb149  1  0.39025516  0.00129924  -0.00408054  1
  Pd  Pd150  1  0.00303865  0.19095785  0.40452019  1
  Pd  Pd151  1  0.39788804  0.59697430  0.59504173  1
  Pd  Pd152  1  0.79675604  -0.00431814  -0.00688681  1
  Pd  Pd153  1  0.00056288  0.39662504  0.20069065  1
  Pd  Pd154  1  -0.00481075  0.59401310  0.38869477  1
  Pd  Pd155  1  0.20694093  0.00949963  0.39770135  1
  Pd  Pd156  1  0.80371336  0.59476146  0.20206320  1
  Pd  Pd157  1  -0.00132349  0.39349224  0.80125229  1
  Pd  Pd158  1  0.00737274  0.79883390  0.40138984  1
  Pd  Pd159  1  0.60685256  0.19926404  0.00997752  1
  Pd  Pd160  1  0.60710141  0.60594210  -0.00659887  1
  Pd  Pd161  1  0.40643203  0.00582129  0.80527250  1
  Pd  Pd162  1  0.19896331  0.39518580  0.20461930  1
  Pd  Pd163  1  0.40427571  0.39757790  0.80275797  1
  Pd  Pd164  1  0.80457470  0.00572544  0.20612908  1
  Pd  Pd165  1  0.79723057  0.79686641  0.40103063  1
  Pd  Pd166  1  0.38953154  0.00516311  0.40268788  1
  Pd  Pd167  1  0.80764848  0.40312174  0.00832913  1
  Pd  Pd168  1  0.39231999  0.60482075  0.39397816  1
  Pd  Pd169  1  0.39968654  0.00313406  0.59819809  1
  Pd  Pd170  1  0.00830357  0.40947397  0.38965861  1
  Pd  Pd171  1  0.00331829  0.80369115  0.19359261  1
  Pd  Pd172  1  0.79110368  0.40922912  0.79689135  1
  Pd  Pd173  1  0.00306107  0.60591156  0.80989922  1
  Pd  Pd174  1  0.59897657  0.00631736  -0.00732673  1
  Pd  Pd175  1  0.58984673  0.40618787  -0.00765269  1
  Pd  Pd176  1  0.60040968  0.00153777  0.19700150  1
  Pd  Pd177  1  0.59300607  0.40339737  0.40619598  1
  Pd  Pd178  1  0.00545146  0.20762717  0.00409537  1
  Pd  Pd179  1  0.39245001  0.79381359  0.40565985  1
  Pd  Pd180  1  0.19977760  0.41228344  0.78917406  1
  Pd  Pd181  1  0.60815552  0.20506657  0.38764743  1
  Pd  Pd182  1  0.60646742  0.59941456  0.80880956  1
  Pd  Pd183  1  0.20473024  -0.00719278  0.79976590  1
  Pd  Pd184  1  -0.01075970  0.38893405  0.00967711  1
  Pd  Pd185  1  0.18935449  0.20455555  0.59270207  1
  Pd  Pd186  1  0.39190324  0.19312821  0.39249685  1
  Pd  Pd187  1  0.20716627  0.60028211  0.38995391  1
  Pd  Pd188  1  0.79622214  0.00188146  0.59303100  1
  Pd  Pd189  1  0.80358923  0.59854441  0.58932487  1
  Pd  Pd190  1  0.00092528  -0.00463374  0.19853622  1
  Pd  Pd191  1  0.59597932  0.19809922  0.80880270  1
  Pd  Pd192  1  0.39911131  0.79797592  0.59218444  1
  Pd  Pd193  1  0.80630224  0.78830020  0.60088820  1
  Pd  Pd194  1  -0.01019866  0.79076455  0.79933882  1
  Pd  Pd195  1  0.60230000  0.20589652  0.59304296  1
  Pd  Pd196  1  0.60173406  0.79222454  0.00321597  1
  Pd  Pd197  1  0.80743196  0.19611736  0.80144765  1
  Pd  Pd198  1  0.40931788  0.20613399  0.21002276  1
  Pd  Pd199  1  0.59640463  -0.00789447  0.60634823  1
  Rh  Rh200  1  0.19740022  0.80070609  0.40325330  1
  Rh  Rh201  1  0.40513035  0.19504526  0.60618264  1
  Rh  Rh202  1  0.80506739  0.81076791  -0.00457721  1
  Rh  Rh203  1  0.80251707  0.40268013  0.41084809  1
  Rh  Rh204  1  0.60129651  0.80117485  0.79607387  1
  Rh  Rh205  1  0.20189350  -0.00271901  0.19282314  1
  Rh  Rh206  1  0.78741039  0.00050043  0.80714783  1
  Rh  Rh207  1  -0.00415997  0.00054361  0.38748598  1
  Rh  Rh208  1  0.60503507  -0.00785171  0.40045331  1
  Rh  Rh209  1  0.00685961  0.20273289  0.19376112  1
  Rh  Rh210  1  0.00511911  -0.01194626  0.00821884  1
  Rh  Rh211  1  0.79475343  0.59875040  0.80971671  1
  Rh  Rh212  1  0.19296403  0.79939488  0.20386837  1
  Rh  Rh213  1  0.20295432  -0.00633875  0.60253466  1
  Rh  Rh214  1  0.20011813  0.19832391  0.80483912  1
  Rh  Rh215  1  0.00998092  0.60845516  -0.00401244  1
  Rh  Rh216  1  0.19103415  0.80707611  0.59507551  1
  Rh  Rh217  1  0.79249228  0.19188217  0.20646742  1
  Rh  Rh218  1  0.20818414  0.79918470  0.79917831  1
  Rh  Rh219  1  0.79468860  0.59059438  -0.00249492  1
  Rh  Rh220  1  -0.00463089  0.59879184  0.20550029  1
  Rh  Rh221  1  0.80369407  0.40755327  0.18655276  1
  Rh  Rh222  1  0.20942472  0.59042931  0.61077040  1
  Rh  Rh223  1  0.39593625  0.80792113  0.00156116  1
  Rh  Rh224  1  0.00428456  -0.00491503  0.60865950  1
  Rh  Rh225  1  0.21078945  0.39672306  0.00638998  1
  Rh  Rh226  1  0.38656864  0.59253554  0.01517453  1
  Rh  Rh227  1  0.40937939  0.40385445  0.40638273  1
  Rh  Rh228  1  0.21042267  0.60143473  0.19661293  1
  Rh  Rh229  1  -0.00292710  0.39080359  0.60908578  1
  Rh  Rh230  1  0.38663001  0.20582741  -0.00881530  1
  Rh  Rh231  1  0.19429134  0.20415667  0.20227738  1
  Rh  Rh232  1  0.39610139  -0.00035082  0.19279893  1
  Rh  Rh233  1  0.60718022  0.60072103  0.40070335  1
  Rh  Rh234  1  0.00262753  0.00171436  0.79237988  1
  Rh  Rh235  1  0.39521772  0.79636208  0.79938623  1
  Rh  Rh236  1  -0.01047652  0.61510320  0.60137105  1
  Rh  Rh237  1  0.59746290  0.80188313  0.60579945  1
  Rh  Rh238  1  0.59662542  0.59757126  0.59721658  1
  Rh  Rh239  1  0.80378425  0.79670898  0.79857514  1
  Rh  Rh240  1  0.39358842  0.60936148  0.79856136  1
  Rh  Rh241  1  0.79832495  0.80244825  0.19562356  1
  Rh  Rh242  1  0.40460764  0.40642828  0.19339944  1
  Rh  Rh243  1  0.59846938  0.39173661  0.19856235  1
  Rh  Rh244  1  0.59161500  0.61089995  0.19826835  1
  Rh  Rh245  1  0.19647895  0.79961583  0.00292845  1
  Rh  Rh246  1  0.80060768  0.20442063  0.00364309  1
  Rh  Rh247  1  0.19426860  0.39385337  0.39909612  1
  Rh  Rh248  1  0.59994852  0.80208134  0.39385100  1
  Rh  Rh249  1  0.40945170  0.79010672  0.20344375  1
