# generated using pymatgen
data_ZrScNbPdRh
_symmetry_space_group_name_H-M   'P 1'
_cell_length_a   16.55868950
_cell_length_b   16.56035842
_cell_length_c   16.56148037
_cell_angle_alpha   90.01177802
_cell_angle_beta   90.02456669
_cell_angle_gamma   89.95892980
_symmetry_Int_Tables_number   1
_chemical_formula_structural   ZrScNbPdRh
_chemical_formula_sum   'Zr50 Sc50 Nb50 Pd50 Rh50'
_cell_volume   4541.45158015
_cell_formula_units_Z   50
loop_
 _symmetry_equiv_pos_site_id
 _symmetry_equiv_pos_as_xyz
  1  'x, y, z'
loop_
 _atom_site_type_symbol
 _atom_site_label
 _atom_site_symmetry_multiplicity
 _atom_site_fract_x
 _atom_site_fract_y
 _atom_site_fract_z
 _atom_site_occupancy
  Zr  Zr0  1  0.09329025  0.49918938  0.10146499  1
  Zr  Zr1  1  0.89437207  0.90308217  0.49843963  1
  Zr  Zr2  1  0.29484015  0.50287601  0.09327413  1
  Zr  Zr3  1  0.10316499  0.49890900  0.50194365  1
  Zr  Zr4  1  0.88820266  0.09520384  0.29870132  1
  Zr  Zr5  1  0.90381304  0.69964572  0.90386131  1
  Zr  Zr6  1  0.90239036  0.29361252  0.89820273  1
  Zr  Zr7  1  0.10207309  0.30528853  0.89773179  1
  Zr  Zr8  1  0.10302671  0.50193435  0.89665835  1
  Zr  Zr9  1  0.51182484  0.29760401  0.70392921  1
  Zr  Zr10  1  0.49996410  0.69689250  0.50879306  1
  Zr  Zr11  1  0.90062456  0.10768381  0.10001715  1
  Zr  Zr12  1  0.70153678  0.49796835  0.09476176  1
  Zr  Zr13  1  0.69451886  0.89436460  0.10148459  1
  Zr  Zr14  1  0.30056938  0.09550432  0.88445506  1
  Zr  Zr15  1  0.69938082  0.50112606  0.89879885  1
  Zr  Zr16  1  0.30636806  0.70554139  0.09326434  1
  Zr  Zr17  1  0.50375370  0.49979235  0.30655529  1
  Zr  Zr18  1  0.29736577  0.30171647  0.89920413  1
  Zr  Zr19  1  0.09988939  0.30559733  0.69903739  1
  Zr  Zr20  1  0.30932635  0.29849464  0.30372831  1
  Zr  Zr21  1  0.89111068  0.50612428  0.69616669  1
  Zr  Zr22  1  0.69523244  0.10251268  0.48832571  1
  Zr  Zr23  1  0.89563472  0.89569149  0.89723602  1
  Zr  Zr24  1  0.50941919  0.30631436  0.10500086  1
  Zr  Zr25  1  0.50518308  0.71275292  0.09742067  1
  Zr  Zr26  1  0.29838191  0.28471228  0.69403204  1
  Zr  Zr27  1  0.89522193  0.89837501  0.30643738  1
  Zr  Zr28  1  0.50895640  0.50263320  0.90293934  1
  Zr  Zr29  1  0.09987432  0.09626902  0.89877506  1
  Zr  Zr30  1  0.90540314  0.49913610  0.28896377  1
  Zr  Zr31  1  0.70247506  0.30135849  0.11141224  1
  Zr  Zr32  1  0.90492457  0.89669734  0.10168319  1
  Zr  Zr33  1  0.09846407  0.09486412  0.10085761  1
  Zr  Zr34  1  0.30459820  0.89872780  0.09934871  1
  Zr  Zr35  1  0.90217587  0.09697946  0.70067893  1
  Zr  Zr36  1  0.89633369  0.49644077  0.50003262  1
  Zr  Zr37  1  0.49876663  0.69916354  0.89340281  1
  Zr  Zr38  1  0.29614728  0.50118790  0.90290108  1
  Zr  Zr39  1  0.49839312  0.70287749  0.69934220  1
  Zr  Zr40  1  0.49038567  0.09197086  0.69404556  1
  Zr  Zr41  1  0.50537965  0.50449287  0.69364068  1
  Zr  Zr42  1  0.09204619  0.50302394  0.69914994  1
  Zr  Zr43  1  0.09419291  0.89880880  0.49495534  1
  Zr  Zr44  1  0.89236333  0.50392645  0.90131543  1
  Zr  Zr45  1  0.10459796  0.09899627  0.29727232  1
  Zr  Zr46  1  0.89820377  0.69903990  0.70954968  1
  Zr  Zr47  1  0.29908499  0.09690937  0.11772840  1
  Zr  Zr48  1  0.70757623  0.09859549  0.10657346  1
  Zr  Zr49  1  0.50776964  0.30075116  0.89861245  1
  Sc  Sc50  1  0.49758710  0.89606629  0.89545326  1
  Sc  Sc51  1  0.49599063  0.89898965  0.30385973  1
  Sc  Sc52  1  0.90055412  0.70663337  0.28779809  1
  Sc  Sc53  1  0.69953816  0.29728984  0.88408766  1
  Sc  Sc54  1  0.49947488  0.90267490  0.50606710  1
  Sc  Sc55  1  0.70555826  0.90158732  0.90856218  1
  Sc  Sc56  1  0.29773776  0.89973705  0.50244726  1
  Sc  Sc57  1  0.30340667  0.69764062  0.90120370  1
  Sc  Sc58  1  0.09628597  0.30505217  0.50931838  1
  Sc  Sc59  1  0.69535991  0.50115741  0.50121853  1
  Sc  Sc60  1  0.50041191  0.09307078  0.49789604  1
  Sc  Sc61  1  0.90056871  0.30914065  0.69891610  1
  Sc  Sc62  1  0.50293376  0.70623539  0.31187758  1
  Sc  Sc63  1  0.30409387  0.90462134  0.30177424  1
  Sc  Sc64  1  0.88827893  0.70052851  0.50889096  1
  Sc  Sc65  1  0.30004853  0.50461469  0.30996517  1
  Sc  Sc66  1  0.30328940  0.50618254  0.50059384  1
  Sc  Sc67  1  0.90046673  0.09450275  0.49692087  1
  Sc  Sc68  1  0.30695184  0.70347111  0.69022020  1
  Sc  Sc69  1  0.69762039  0.30877185  0.49088019  1
  Sc  Sc70  1  0.89810398  0.09859124  0.90731184  1
  Sc  Sc71  1  0.09965946  0.30526996  0.29428203  1
  Sc  Sc72  1  0.89798152  0.30691462  0.29895149  1
  Sc  Sc73  1  0.50396022  0.09893913  0.89225245  1
  Sc  Sc74  1  0.10609413  0.70177645  0.50141716  1
  Sc  Sc75  1  0.29544964  0.50393129  0.69337497  1
  Sc  Sc76  1  0.09753752  0.29367621  0.10423587  1
  Sc  Sc77  1  0.09914714  0.08954785  0.50737600  1
  Sc  Sc78  1  0.50767919  0.50019104  0.49530591  1
  Sc  Sc79  1  0.10272921  0.91324560  0.70115794  1
  Sc  Sc80  1  0.09594375  0.70224264  0.30534246  1
  Sc  Sc81  1  0.70112855  0.69695767  0.90507208  1
  Sc  Sc82  1  0.69952656  0.48991784  0.29728821  1
  Sc  Sc83  1  0.29933141  0.89455341  0.89898435  1
  Sc  Sc84  1  0.30591713  0.90215294  0.70174538  1
  Sc  Sc85  1  0.08871789  0.89812319  0.30275390  1
  Sc  Sc86  1  0.09829094  0.49782394  0.29997292  1
  Sc  Sc87  1  0.70139165  0.90093396  0.50166134  1
  Sc  Sc88  1  0.90395596  0.30786831  0.49811770  1
  Sc  Sc89  1  0.69270846  0.70038634  0.49600040  1
  Sc  Sc90  1  0.09686292  0.90070155  0.90899042  1
  Sc  Sc91  1  0.29683766  0.69959312  0.49601315  1
  Sc  Sc92  1  0.29213534  0.30046165  0.10654358  1
  Sc  Sc93  1  0.69973557  0.69573110  0.69562080  1
  Sc  Sc94  1  0.49559199  0.89317354  0.69577349  1
  Sc  Sc95  1  0.08398286  0.70177878  0.09147070  1
  Sc  Sc96  1  0.50270776  0.09780583  0.10947174  1
  Sc  Sc97  1  0.50742870  0.29806725  0.30691838  1
  Sc  Sc98  1  0.70065754  0.10201939  0.70347754  1
  Sc  Sc99  1  0.70638849  0.10069475  0.90165990  1
  Nb  Nb100  1  0.30505220  0.10819619  0.51007793  1
  Nb  Nb101  1  0.30667095  0.10265041  0.30407717  1
  Nb  Nb102  1  0.10877355  0.10302597  0.70576650  1
  Nb  Nb103  1  0.69838528  0.70923702  0.29726400  1
  Nb  Nb104  1  0.70315963  0.90645004  0.70044142  1
  Nb  Nb105  1  0.09062505  0.69987501  0.70583653  1
  Nb  Nb106  1  0.50912780  0.50054787  0.10096008  1
  Nb  Nb107  1  0.49740908  0.30149422  0.50145150  1
  Nb  Nb108  1  0.30608296  0.29834951  0.50107419  1
  Nb  Nb109  1  0.69655568  0.10435917  0.29850351  1
  Nb  Nb110  1  0.88844412  0.89895506  0.69733324  1
  Nb  Nb111  1  0.90076539  0.30307949  0.09723707  1
  Nb  Nb112  1  0.90037656  0.68367296  0.09876640  1
  Nb  Nb113  1  0.70608383  0.89683638  0.29957631  1
  Nb  Nb114  1  0.10330106  0.89713887  0.10197201  1
  Nb  Nb115  1  0.69881703  0.70029897  0.10700466  1
  Nb  Nb116  1  0.29330735  0.09643449  0.69744984  1
  Nb  Nb117  1  0.69763503  0.28672935  0.29811350  1
  Nb  Nb118  1  0.50378381  0.09765837  0.30034033  1
  Nb  Nb119  1  0.08987471  0.69951373  0.88870186  1
  Nb  Nb120  1  0.70000371  0.29880515  0.69512734  1
  Nb  Nb121  1  0.70109467  0.48955822  0.69331317  1
  Nb  Nb122  1  0.29564505  0.69778119  0.29673199  1
  Nb  Nb123  1  0.89739704  0.50151724  0.09884627  1
  Nb  Nb124  1  0.49942244  0.90353763  0.10128338  1
  Nb  Nb125  1  0.60013134  0.60582446  0.19891660  1
  Nb  Nb126  1  0.20471837  0.19251968  -0.00075516  1
  Nb  Nb127  1  0.20529936  0.19859103  0.40394431  1
  Nb  Nb128  1  0.39968987  0.19861555  0.00247272  1
  Nb  Nb129  1  0.40405221  0.39934566  0.00149276  1
  Nb  Nb130  1  0.20379442  0.60955076  0.19799677  1
  Nb  Nb131  1  0.40113980  0.00399334  0.00418994  1
  Nb  Nb132  1  -0.00737066  0.40134336  0.00247168  1
  Nb  Nb133  1  0.60173819  0.20310008  0.59700841  1
  Nb  Nb134  1  0.20668308  0.39142116  0.40706074  1
  Nb  Nb135  1  0.00538020  0.19658418  0.79523086  1
  Nb  Nb136  1  -0.00408840  0.80438943  0.60951491  1
  Nb  Nb137  1  0.40430225  0.40971549  0.19689380  1
  Nb  Nb138  1  0.79492417  0.20475004  0.59862858  1
  Nb  Nb139  1  0.19844372  0.79861389  0.19522314  1
  Nb  Nb140  1  0.00627224  0.19772955  0.39862577  1
  Nb  Nb141  1  -0.00910403  0.59754262  0.40201083  1
  Nb  Nb142  1  0.80018931  0.60227443  0.39186594  1
  Nb  Nb143  1  0.60329864  -0.00581745  0.79407189  1
  Nb  Nb144  1  0.60479347  -0.00319938  0.20752716  1
  Nb  Nb145  1  0.18994032  0.79217278  0.79800671  1
  Nb  Nb146  1  0.59876613  0.20032611  0.00420511  1
  Nb  Nb147  1  0.40252294  0.40144020  0.79786991  1
  Nb  Nb148  1  0.40324118  0.60103517  0.19834953  1
  Nb  Nb149  1  0.40290743  0.39299282  0.60020394  1
  Pd  Pd150  1  0.39607894  0.79921629  0.40611197  1
  Pd  Pd151  1  0.20280445  0.80410264  0.39092294  1
  Pd  Pd152  1  -0.01009040  0.78706090  0.41214519  1
  Pd  Pd153  1  0.41031441  0.59698112  0.00374013  1
  Pd  Pd154  1  0.19923247  0.60772143  0.60284377  1
  Pd  Pd155  1  -0.00303578  -0.00276058  0.20387051  1
  Pd  Pd156  1  0.20798728  0.40925738  0.20931563  1
  Pd  Pd157  1  0.60248452  -0.00927744  0.39262828  1
  Pd  Pd158  1  0.39689155  0.00250293  0.40612498  1
  Pd  Pd159  1  0.40089835  0.60588567  0.40016535  1
  Pd  Pd160  1  0.78959795  0.20692079  -0.00026046  1
  Pd  Pd161  1  0.20547574  0.00455424  0.40076478  1
  Pd  Pd162  1  0.18797668  0.61282041  0.00212890  1
  Pd  Pd163  1  0.79816505  0.38990548  -0.00410326  1
  Pd  Pd164  1  0.19890261  -0.01125201  0.20908557  1
  Pd  Pd165  1  0.60481928  0.80472941  0.60074634  1
  Pd  Pd166  1  0.40592877  0.19156976  0.40337037  1
  Pd  Pd167  1  0.59859641  0.80056061  -0.00952364  1
  Pd  Pd168  1  0.20681978  0.60864068  0.79237328  1
  Pd  Pd169  1  -0.00561165  0.19911351  0.59934776  1
  Pd  Pd170  1  0.20855153  0.40232841  0.78745662  1
  Pd  Pd171  1  0.39454887  0.59546414  0.79524634  1
  Pd  Pd172  1  0.00352069  0.81680123  0.79366218  1
  Pd  Pd173  1  0.80017936  0.39876355  0.79757789  1
  Pd  Pd174  1  0.78890180  0.79463719  0.80067752  1
  Pd  Pd175  1  0.79050533  0.59850804  0.20514521  1
  Pd  Pd176  1  0.80934939  0.20578316  0.40531163  1
  Pd  Pd177  1  0.59347935  0.00669157  -0.00068753  1
  Pd  Pd178  1  -0.00153770  0.60881582  0.59150760  1
  Pd  Pd179  1  0.19248054  0.80291423  0.60830232  1
  Pd  Pd180  1  -0.00166130  -0.00592242  0.60399712  1
  Pd  Pd181  1  -0.00538867  -0.00341194  0.00097704  1
  Pd  Pd182  1  0.19096415  0.19745552  0.59161469  1
  Pd  Pd183  1  0.40310018  0.20182115  0.80032492  1
  Pd  Pd184  1  0.79289845  0.01101757  0.59576712  1
  Pd  Pd185  1  0.20877668  0.00324768  -0.00139323  1
  Pd  Pd186  1  0.60983538  0.80647986  0.80190021  1
  Pd  Pd187  1  0.79644311  0.40293128  0.39482662  1
  Pd  Pd188  1  0.59943779  0.80798664  0.40601160  1
  Pd  Pd189  1  0.40862243  0.20797440  0.19899194  1
  Pd  Pd190  1  0.80385804  0.79249594  0.00874050  1
  Pd  Pd191  1  0.79595560  0.79753212  0.60164145  1
  Pd  Pd192  1  0.60804867  0.59935215  0.79250653  1
  Pd  Pd193  1  0.80636957  0.79958566  0.19243513  1
  Pd  Pd194  1  -0.00583229  0.20361377  0.20934426  1
  Pd  Pd195  1  0.39951970  0.79771187  0.20792440  1
  Pd  Pd196  1  -0.00255541  -0.00057003  0.80017383  1
  Pd  Pd197  1  0.79600211  0.00288664  0.80423276  1
  Pd  Pd198  1  0.20421008  -0.00366741  0.59873845  1
  Pd  Pd199  1  0.19190629  0.79236584  -0.00399181  1
  Rh  Rh200  1  0.79851372  0.79358462  0.39939724  1
  Rh  Rh201  1  0.19283892  0.38938808  0.00824664  1
  Rh  Rh202  1  0.39001088  0.79524159  0.80042793  1
  Rh  Rh203  1  0.20091397  0.19810177  0.20439978  1
  Rh  Rh204  1  0.79088811  0.59813113  0.59376428  1
  Rh  Rh205  1  0.60355724  0.18654646  0.79703989  1
  Rh  Rh206  1  -0.00565713  0.40594820  0.60436385  1
  Rh  Rh207  1  0.20320121  -0.01171948  0.80027158  1
  Rh  Rh208  1  0.00097229  0.59118761  -0.00684913  1
  Rh  Rh209  1  0.59724744  0.19106571  0.19991765  1
  Rh  Rh210  1  0.60250383  0.40872053  0.79650675  1
  Rh  Rh211  1  0.39797862  0.40131318  0.40443585  1
  Rh  Rh212  1  0.80750153  0.20623202  0.20394840  1
  Rh  Rh213  1  0.61301516  0.60269009  0.38986831  1
  Rh  Rh214  1  0.19399173  0.19978871  0.80292566  1
  Rh  Rh215  1  -0.00412776  0.39678018  0.19000734  1
  Rh  Rh216  1  -0.00664387  0.40230285  0.80447341  1
  Rh  Rh217  1  0.60355059  0.00429828  0.60835775  1
  Rh  Rh218  1  0.81060918  0.19976730  0.78982494  1
  Rh  Rh219  1  0.41022147  0.20058644  0.59960172  1
  Rh  Rh220  1  0.41034234  -0.00064866  0.20274021  1
  Rh  Rh221  1  0.79685530  0.39548528  0.59724537  1
  Rh  Rh222  1  0.39270965  -0.00175160  0.59633202  1
  Rh  Rh223  1  0.60278424  0.60889227  0.00703496  1
  Rh  Rh224  1  0.59695198  0.39595332  0.59625770  1
  Rh  Rh225  1  0.39895596  0.80042099  0.59362882  1
  Rh  Rh226  1  0.60255081  0.39523596  0.39726297  1
  Rh  Rh227  1  0.59671460  0.80418114  0.20593692  1
  Rh  Rh228  1  0.80038691  0.39647040  0.20188709  1
  Rh  Rh229  1  0.60472770  0.59959119  0.60132642  1
  Rh  Rh230  1  0.21149599  0.40038862  0.59593591  1
  Rh  Rh231  1  0.40276726  0.59507862  0.59377439  1
  Rh  Rh232  1  0.79481027  -0.00760836  0.19965234  1
  Rh  Rh233  1  0.01253646  0.39857223  0.40131605  1
  Rh  Rh234  1  0.79160267  -0.00203427  0.39924177  1
  Rh  Rh235  1  -0.00074712  0.00885046  0.39488925  1
  Rh  Rh236  1  0.00236582  0.79812370  0.19322847  1
  Rh  Rh237  1  0.59369364  0.20242085  0.40534886  1
  Rh  Rh238  1  0.80597194  -0.00283596  0.00603113  1
  Rh  Rh239  1  0.60798289  0.39167611  -0.00504459  1
  Rh  Rh240  1  -0.00463186  0.80079431  0.00127125  1
  Rh  Rh241  1  0.00969878  0.20695353  -0.00689623  1
  Rh  Rh242  1  0.79462423  0.60572213  0.00375445  1
  Rh  Rh243  1  0.40722482  0.80799279  -0.00690894  1
  Rh  Rh244  1  0.59933870  0.40421141  0.20968261  1
  Rh  Rh245  1  0.79385579  0.60175017  0.79860325  1
  Rh  Rh246  1  0.19019792  0.59414121  0.39497295  1
  Rh  Rh247  1  0.00757368  0.60403227  0.20682009  1
  Rh  Rh248  1  0.40556933  -0.00520255  0.80165204  1
  Rh  Rh249  1  -0.00651668  0.59038340  0.80245145  1
