# generated using pymatgen
data_ZrScNbPdRh
_symmetry_space_group_name_H-M   'P 1'
_cell_length_a   16.55566922
_cell_length_b   16.56079345
_cell_length_c   16.56089688
_cell_angle_alpha   89.98579524
_cell_angle_beta   90.04279620
_cell_angle_gamma   89.99188839
_symmetry_Int_Tables_number   1
_chemical_formula_structural   ZrScNbPdRh
_chemical_formula_sum   'Zr50 Sc50 Nb50 Pd50 Rh50'
_cell_volume   4540.58275534
_cell_formula_units_Z   50
loop_
 _symmetry_equiv_pos_site_id
 _symmetry_equiv_pos_as_xyz
  1  'x, y, z'
loop_
 _atom_site_type_symbol
 _atom_site_label
 _atom_site_symmetry_multiplicity
 _atom_site_fract_x
 _atom_site_fract_y
 _atom_site_fract_z
 _atom_site_occupancy
  Zr  Zr0  1  0.70160620  0.09140352  0.30561490  1
  Zr  Zr1  1  0.69407185  0.50430323  0.68959151  1
  Zr  Zr2  1  0.89734711  0.50031357  0.49982353  1
  Zr  Zr3  1  0.90775205  0.09788292  0.28371245  1
  Zr  Zr4  1  0.89683483  0.90663967  0.50348407  1
  Zr  Zr5  1  0.29390210  0.10010871  0.70353698  1
  Zr  Zr6  1  0.10945188  0.89281187  0.50821682  1
  Zr  Zr7  1  0.29325091  0.50495968  0.89494188  1
  Zr  Zr8  1  0.90481976  0.49154886  0.10415295  1
  Zr  Zr9  1  0.48394198  0.29350106  0.50150153  1
  Zr  Zr10  1  0.10126302  0.10002610  0.89178106  1
  Zr  Zr11  1  0.69535180  0.50110916  0.30267351  1
  Zr  Zr12  1  0.69586980  0.69547769  0.29950421  1
  Zr  Zr13  1  0.50088583  0.70210811  0.89571974  1
  Zr  Zr14  1  0.49677391  0.90319075  0.10420329  1
  Zr  Zr15  1  0.89968021  0.09356061  0.70451646  1
  Zr  Zr16  1  0.90467714  0.30352695  0.49638000  1
  Zr  Zr17  1  0.10160972  0.49009253  0.90720162  1
  Zr  Zr18  1  0.91523842  0.90558562  0.10273864  1
  Zr  Zr19  1  0.48628104  0.09724861  0.09688769  1
  Zr  Zr20  1  0.69774039  0.30053569  0.90184094  1
  Zr  Zr21  1  0.10345019  0.50640785  0.10064484  1
  Zr  Zr22  1  0.49953977  0.30281916  0.89910654  1
  Zr  Zr23  1  0.10641678  0.29698303  0.29409963  1
  Zr  Zr24  1  0.49671789  0.10417036  0.89325926  1
  Zr  Zr25  1  0.10139203  0.30125413  0.50777131  1
  Zr  Zr26  1  0.29796452  0.69889722  0.71202096  1
  Zr  Zr27  1  0.30362875  0.50050494  0.29833396  1
  Zr  Zr28  1  0.28744064  0.89701697  0.69556140  1
  Zr  Zr29  1  0.49661559  0.29765945  0.70169443  1
  Zr  Zr30  1  0.49844383  0.50512867  0.90455365  1
  Zr  Zr31  1  0.70690468  0.29037431  0.49707930  1
  Zr  Zr32  1  0.30561578  0.90962491  0.10706168  1
  Zr  Zr33  1  0.49614699  0.50175418  0.69879161  1
  Zr  Zr34  1  0.88968745  0.90501308  0.29377254  1
  Zr  Zr35  1  0.89008094  0.10774280  0.51123674  1
  Zr  Zr36  1  0.30376252  0.89821021  0.48871735  1
  Zr  Zr37  1  0.90213519  0.70029737  0.30085223  1
  Zr  Zr38  1  0.11464300  0.10363873  0.50186366  1
  Zr  Zr39  1  0.70489788  0.30108538  0.09660739  1
  Zr  Zr40  1  0.49698894  0.50063906  0.30644142  1
  Zr  Zr41  1  0.89167494  0.69989683  0.89284908  1
  Zr  Zr42  1  0.28941302  0.10197500  0.29842090  1
  Zr  Zr43  1  0.29564974  0.50867115  0.09758931  1
  Zr  Zr44  1  0.70546003  0.89453044  0.89527111  1
  Zr  Zr45  1  0.10143888  0.70341288  0.68992785  1
  Zr  Zr46  1  0.70315353  0.29269678  0.29626240  1
  Zr  Zr47  1  0.30348584  0.29890929  0.11242357  1
  Zr  Zr48  1  0.49391001  0.69998603  0.09321795  1
  Zr  Zr49  1  0.71077113  0.89610522  0.10374129  1
  Sc  Sc50  1  0.10445992  0.29360594  0.69976338  1
  Sc  Sc51  1  0.50236816  0.69976366  0.69989120  1
  Sc  Sc52  1  0.90195526  0.89963935  0.88720489  1
  Sc  Sc53  1  0.50088559  0.90209224  0.49764377  1
  Sc  Sc54  1  0.49767555  0.69006724  0.30215366  1
  Sc  Sc55  1  0.09662276  0.08394155  0.10624827  1
  Sc  Sc56  1  0.70225714  0.50073979  0.89610187  1
  Sc  Sc57  1  0.90759567  0.29095421  0.68976233  1
  Sc  Sc58  1  0.50992064  0.89195262  0.69001899  1
  Sc  Sc59  1  0.50242015  0.89974915  0.90520436  1
  Sc  Sc60  1  0.90554266  0.09317545  0.89650262  1
  Sc  Sc61  1  0.89457168  0.30159406  0.91084503  1
  Sc  Sc62  1  0.48749580  0.90449986  0.30615670  1
  Sc  Sc63  1  0.10133622  0.50175771  0.29528372  1
  Sc  Sc64  1  0.09599841  0.90615570  0.89991865  1
  Sc  Sc65  1  0.70267874  0.10631185  0.10064688  1
  Sc  Sc66  1  0.69751726  0.49688372  0.09476463  1
  Sc  Sc67  1  0.29403099  0.30608375  0.89904814  1
  Sc  Sc68  1  0.09660962  0.31758118  0.10185930  1
  Sc  Sc69  1  0.49642117  0.50083511  0.09474406  1
  Sc  Sc70  1  0.09226410  0.68972186  0.89454488  1
  Sc  Sc71  1  0.09962240  0.50420476  0.50410894  1
  Sc  Sc72  1  0.29837025  0.90106809  0.88701091  1
  Sc  Sc73  1  0.30329145  0.09784926  0.89290442  1
  Sc  Sc74  1  0.49872013  0.10928240  0.70019359  1
  Sc  Sc75  1  0.29679873  0.30496735  0.69256739  1
  Sc  Sc76  1  0.69714059  0.68468325  0.50552634  1
  Sc  Sc77  1  0.50213024  0.10190456  0.30767474  1
  Sc  Sc78  1  0.10964787  0.50166269  0.70465117  1
  Sc  Sc79  1  0.69901264  0.09889113  0.69290210  1
  Sc  Sc80  1  0.29406226  0.70208239  0.49948606  1
  Sc  Sc81  1  0.69353181  0.09030725  0.50061996  1
  Sc  Sc82  1  0.69227546  0.70547198  0.70283740  1
  Sc  Sc83  1  0.89606483  0.50578778  0.70591229  1
  Sc  Sc84  1  0.30333974  0.49621924  0.50849057  1
  Sc  Sc85  1  0.10567828  0.90433792  0.30024054  1
  Sc  Sc86  1  0.69977608  0.90196605  0.69694677  1
  Sc  Sc87  1  0.90506720  0.69886137  0.70202403  1
  Sc  Sc88  1  0.90583097  0.68917850  0.50671115  1
  Sc  Sc89  1  0.49771328  0.70513756  0.50284771  1
  Sc  Sc90  1  0.30378941  0.69475438  0.30323890  1
  Sc  Sc91  1  0.90106325  0.50751781  0.89874524  1
  Sc  Sc92  1  0.89729708  0.29845778  0.10878591  1
  Sc  Sc93  1  0.70448979  0.10041120  0.90394109  1
  Sc  Sc94  1  0.10172132  0.69162880  0.30207180  1
  Sc  Sc95  1  0.69076899  0.30121001  0.70376066  1
  Sc  Sc96  1  0.90609515  0.70868305  0.09856023  1
  Sc  Sc97  1  0.49945777  0.50111022  0.50743821  1
  Sc  Sc98  1  0.90267218  0.49496388  0.30470552  1
  Sc  Sc99  1  0.29475683  0.50455527  0.69731875  1
  Nb  Nb100  1  0.70156954  0.70807549  0.90615257  1
  Nb  Nb101  1  0.10559240  0.70399864  0.10263307  1
  Nb  Nb102  1  0.29648101  0.29373464  0.49898974  1
  Nb  Nb103  1  0.49312878  0.09352600  0.50240899  1
  Nb  Nb104  1  0.89927959  0.89819474  0.69903323  1
  Nb  Nb105  1  0.30337155  0.10524309  0.50120533  1
  Nb  Nb106  1  0.49606860  0.30498422  0.30013039  1
  Nb  Nb107  1  0.49985169  0.29863188  0.10062699  1
  Nb  Nb108  1  0.09795186  0.89957404  0.69523836  1
  Nb  Nb109  1  0.29904330  0.70202662  0.09801503  1
  Nb  Nb110  1  0.29812972  0.10187769  0.09789641  1
  Nb  Nb111  1  0.09612291  0.10387847  0.30390920  1
  Nb  Nb112  1  0.90528437  0.09893594  0.09510119  1
  Nb  Nb113  1  0.70110484  0.90170210  0.30164413  1
  Nb  Nb114  1  0.30500249  0.30513026  0.30530586  1
  Nb  Nb115  1  0.69808632  0.90503552  0.49884915  1
  Nb  Nb116  1  0.09782670  0.09673470  0.70051830  1
  Nb  Nb117  1  0.10080204  0.30284969  0.90572668  1
  Nb  Nb118  1  0.09486776  0.70146804  0.49901250  1
  Nb  Nb119  1  0.30634259  0.70090764  0.90101033  1
  Nb  Nb120  1  0.70404970  0.70324826  0.09884625  1
  Nb  Nb121  1  0.69842265  0.49650335  0.49853359  1
  Nb  Nb122  1  0.90587998  0.29986874  0.29701826  1
  Nb  Nb123  1  0.10435343  0.89139627  0.09440207  1
  Nb  Nb124  1  0.30505477  0.89889134  0.29969262  1
  Nb  Nb125  1  0.60733331  0.80330198  0.39621937  1
  Nb  Nb126  1  0.40077383  0.40526362  0.79955887  1
  Nb  Nb127  1  0.60093558  0.80211571  0.20191773  1
  Nb  Nb128  1  0.20795974  0.39313811  0.40005475  1
  Nb  Nb129  1  0.80073840  0.80202722  0.59495452  1
  Nb  Nb130  1  0.39490137  0.00423544  0.59660534  1
  Nb  Nb131  1  0.79760696  0.40212418  0.59504746  1
  Nb  Nb132  1  -0.00234786  0.80436628  0.40533220  1
  Nb  Nb133  1  0.80092662  0.19977213  0.80006675  1
  Nb  Nb134  1  0.00713429  0.19876152  0.00242598  1
  Nb  Nb135  1  0.20533766  0.79978076  0.19417186  1
  Nb  Nb136  1  0.60060591  -0.00558602  0.20100917  1
  Nb  Nb137  1  0.79683035  0.80136789  0.40588113  1
  Nb  Nb138  1  0.59376075  0.39164637  0.20244390  1
  Nb  Nb139  1  0.00171716  0.00466868  0.40475875  1
  Nb  Nb140  1  0.79825456  0.60165464  0.19642749  1
  Nb  Nb141  1  0.60074824  0.00125326  0.80194159  1
  Nb  Nb142  1  0.00606194  -0.00073689  0.60235799  1
  Nb  Nb143  1  0.19736212  0.19714116  0.00540305  1
  Nb  Nb144  1  0.00138055  0.19790594  0.39624248  1
  Nb  Nb145  1  0.00459950  0.39504785  0.80621247  1
  Nb  Nb146  1  0.20208629  0.79691847  0.00395888  1
  Nb  Nb147  1  0.59139391  0.20348227  0.00313951  1
  Nb  Nb148  1  0.59672152  0.39366145  0.39928063  1
  Nb  Nb149  1  0.80727484  -0.00181759  0.00345380  1
  Pd  Pd150  1  0.39110614  0.80946037  -0.00559714  1
  Pd  Pd151  1  0.18777132  0.79756789  0.81128666  1
  Pd  Pd152  1  0.59345785  0.19518798  0.19529047  1
  Pd  Pd153  1  0.78896425  0.60738411  0.79535087  1
  Pd  Pd154  1  0.00270599  0.59162478  0.60757140  1
  Pd  Pd155  1  0.39123820  -0.00452188  -0.01051471  1
  Pd  Pd156  1  0.40780669  0.80688381  0.79507647  1
  Pd  Pd157  1  0.40213989  0.79174534  0.20830851  1
  Pd  Pd158  1  0.41196396  -0.01004759  0.78490515  1
  Pd  Pd159  1  0.60531587  0.60229953  0.80342604  1
  Pd  Pd160  1  0.01390115  0.39778439  0.39397885  1
  Pd  Pd161  1  0.20061110  -0.00112357  0.39891683  1
  Pd  Pd162  1  0.19734627  -0.00375263  0.20153133  1
  Pd  Pd163  1  0.39868013  0.60102270  0.41323015  1
  Pd  Pd164  1  0.00291762  0.79588879  -0.01062919  1
  Pd  Pd165  1  0.80226404  0.19560993  0.19976983  1
  Pd  Pd166  1  0.60844023  0.00689704  0.00172205  1
  Pd  Pd167  1  0.80335085  0.40883442  -0.00331933  1
  Pd  Pd168  1  0.60037971  0.59866850  0.18811981  1
  Pd  Pd169  1  0.59454561  0.20114756  0.40708511  1
  Pd  Pd170  1  -0.00346393  0.60422211  0.00294369  1
  Pd  Pd171  1  0.40433297  0.40704106  0.19465771  1
  Pd  Pd172  1  0.39522271  0.80355672  0.60083907  1
  Pd  Pd173  1  0.39506887  0.60879961  0.60147797  1
  Pd  Pd174  1  0.59973778  0.19644283  0.59347304  1
  Pd  Pd175  1  0.81067505  0.19119548  0.39086711  1
  Pd  Pd176  1  0.80318845  0.60261994  0.39755386  1
  Pd  Pd177  1  0.59557521  0.40809434  0.80028549  1
  Pd  Pd178  1  0.39225784  0.40018253  -0.00258150  1
  Pd  Pd179  1  0.60614501  0.60279223  -0.00151214  1
  Pd  Pd180  1  0.39254991  0.20437926  -0.00597578  1
  Pd  Pd181  1  0.20370776  0.20544840  0.80392104  1
  Pd  Pd182  1  0.60084958  0.39148329  0.58952020  1
  Pd  Pd183  1  0.20025651  0.59017346  0.40548845  1
  Pd  Pd184  1  0.40280506  0.19411293  0.20904734  1
  Pd  Pd185  1  0.19589922  0.79536969  0.38889501  1
  Pd  Pd186  1  0.81075368  0.38923569  0.78850317  1
  Pd  Pd187  1  0.19837724  0.61021422  -0.00712530  1
  Pd  Pd188  1  0.20512287  0.00066048  -0.00501886  1
  Pd  Pd189  1  0.00564292  0.79996335  0.79964671  1
  Pd  Pd190  1  0.80086376  0.59805705  0.00652358  1
  Pd  Pd191  1  0.19075976  0.19731121  0.18851914  1
  Pd  Pd192  1  -0.00294318  0.40962461  0.61487130  1
  Pd  Pd193  1  0.59995604  0.80056658  0.00492932  1
  Pd  Pd194  1  -0.00669123  0.20901741  0.80905581  1
  Pd  Pd195  1  0.81443997  0.80772951  -0.00068137  1
  Pd  Pd196  1  0.79540489  0.39873954  0.39794161  1
  Pd  Pd197  1  -0.00555365  0.60004506  0.19850275  1
  Pd  Pd198  1  0.39643218  0.19371625  0.39246666  1
  Pd  Pd199  1  0.01216391  0.80372616  0.21107784  1
  Rh  Rh200  1  0.79910298  0.79448499  0.78862497  1
  Rh  Rh201  1  0.40577820  0.79463793  0.39646020  1
  Rh  Rh202  1  0.79760697  0.59971611  0.60463081  1
  Rh  Rh203  1  0.59990424  0.80497711  0.80461013  1
  Rh  Rh204  1  0.59411484  0.60261086  0.59855956  1
  Rh  Rh205  1  0.00355039  0.60278465  0.40208548  1
  Rh  Rh206  1  0.81014956  0.18916540  -0.00594502  1
  Rh  Rh207  1  0.20914285  0.39196228  0.01169370  1
  Rh  Rh208  1  0.79422021  0.40642776  0.20686480  1
  Rh  Rh209  1  0.20043955  0.40084991  0.59395819  1
  Rh  Rh210  1  0.60014671  0.39439420  0.00714166  1
  Rh  Rh211  1  0.79317588  0.00913447  0.18949962  1
  Rh  Rh212  1  0.39830825  0.40094953  0.40836503  1
  Rh  Rh213  1  0.19286394  -0.00430662  0.79828970  1
  Rh  Rh214  1  0.80052239  -0.00574060  0.60580787  1
  Rh  Rh215  1  0.00441076  0.58934164  0.79708229  1
  Rh  Rh216  1  0.20444295  0.40630529  0.20471812  1
  Rh  Rh217  1  0.19667085  0.60535657  0.80330629  1
  Rh  Rh218  1  0.61050967  0.19004034  0.80841740  1
  Rh  Rh219  1  0.39290542  0.00710378  0.40167640  1
  Rh  Rh220  1  0.19916931  0.20750363  0.39908691  1
  Rh  Rh221  1  0.40049739  0.01215825  0.21132118  1
  Rh  Rh222  1  0.20681936  0.79200713  0.59917341  1
  Rh  Rh223  1  0.00823585  0.18880562  0.59336638  1
  Rh  Rh224  1  0.39737283  0.39791400  0.60511663  1
  Rh  Rh225  1  0.79117877  0.20943341  0.61272202  1
  Rh  Rh226  1  -0.00780384  0.39662966  -0.00278386  1
  Rh  Rh227  1  0.39967866  0.59693818  0.80029697  1
  Rh  Rh228  1  0.01072148  -0.00799753  0.20517356  1
  Rh  Rh229  1  0.59115039  0.59813498  0.41070245  1
  Rh  Rh230  1  0.38955716  0.21348568  0.79722121  1
  Rh  Rh231  1  0.00014042  0.40171073  0.20595287  1
  Rh  Rh232  1  0.39716789  0.60257462  -0.00300305  1
  Rh  Rh233  1  0.79587087  0.78881181  0.20604164  1
  Rh  Rh234  1  -0.00762260  0.80375838  0.59537911  1
  Rh  Rh235  1  0.61094896  0.79790004  0.58617719  1
  Rh  Rh236  1  0.20441801  0.60771628  0.20241707  1
  Rh  Rh237  1  0.00632254  0.20440433  0.19385111  1
  Rh  Rh238  1  0.20308059  0.19937297  0.60669384  1
  Rh  Rh239  1  0.59361110  -0.00638100  0.39672389  1
  Rh  Rh240  1  0.79213151  0.00455329  0.80237027  1
  Rh  Rh241  1  0.39327933  0.19368536  0.60543267  1
  Rh  Rh242  1  0.80639668  0.00400453  0.40126427  1
  Rh  Rh243  1  -0.00176288  0.00307182  -0.00245858  1
  Rh  Rh244  1  0.20024398  0.60563198  0.59671228  1
  Rh  Rh245  1  0.39896858  0.60031034  0.19445056  1
  Rh  Rh246  1  0.00556750  -0.00668646  0.79126640  1
  Rh  Rh247  1  0.19884991  0.39753326  0.79526708  1
  Rh  Rh248  1  0.58945405  0.00295597  0.60433729  1
  Rh  Rh249  1  0.20358537  0.00326653  0.60176530  1
