# generated using pymatgen
data_ZrScNbPdRh
_symmetry_space_group_name_H-M   'P 1'
_cell_length_a   16.55569202
_cell_length_b   16.55661443
_cell_length_c   16.55319392
_cell_angle_alpha   89.99482688
_cell_angle_beta   89.97712353
_cell_angle_gamma   89.99009471
_symmetry_Int_Tables_number   1
_chemical_formula_structural   ZrScNbPdRh
_chemical_formula_sum   'Zr50 Sc50 Nb50 Pd50 Rh50'
_cell_volume   4537.33279010
_cell_formula_units_Z   50
loop_
 _symmetry_equiv_pos_site_id
 _symmetry_equiv_pos_as_xyz
  1  'x, y, z'
loop_
 _atom_site_type_symbol
 _atom_site_label
 _atom_site_symmetry_multiplicity
 _atom_site_fract_x
 _atom_site_fract_y
 _atom_site_fract_z
 _atom_site_occupancy
  Zr  Zr0  1  0.70301869  0.29813262  0.30610693  1
  Zr  Zr1  1  0.08480767  0.90047801  0.49218932  1
  Zr  Zr2  1  0.89996830  0.49819832  0.29615954  1
  Zr  Zr3  1  0.29950336  0.50481267  0.69757296  1
  Zr  Zr4  1  0.10185489  0.10514953  0.49425128  1
  Zr  Zr5  1  0.50057928  0.08898736  0.09391902  1
  Zr  Zr6  1  0.49968103  0.70107321  0.70015139  1
  Zr  Zr7  1  0.70960689  0.30100896  0.09676091  1
  Zr  Zr8  1  0.89570602  0.50112029  0.50336305  1
  Zr  Zr9  1  0.90055886  0.09379809  0.49494452  1
  Zr  Zr10  1  0.89503297  0.08722104  0.70918970  1
  Zr  Zr11  1  0.08874867  0.89362906  0.70213672  1
  Zr  Zr12  1  0.49422687  0.89978022  0.10229689  1
  Zr  Zr13  1  0.90549182  0.50512112  0.90469895  1
  Zr  Zr14  1  0.90869179  0.49854175  0.10827593  1
  Zr  Zr15  1  0.49195969  0.70653218  0.90544542  1
  Zr  Zr16  1  0.10374625  0.30360223  0.70184218  1
  Zr  Zr17  1  0.30763830  0.89329433  0.70238978  1
  Zr  Zr18  1  0.89209275  0.10018562  0.09664666  1
  Zr  Zr19  1  0.69637792  0.50665221  0.69501254  1
  Zr  Zr20  1  0.51072817  0.29958621  0.50164188  1
  Zr  Zr21  1  0.10343851  0.29586402  0.30250249  1
  Zr  Zr22  1  0.69422951  0.90460527  0.10138844  1
  Zr  Zr23  1  0.70030093  0.29982593  0.50006164  1
  Zr  Zr24  1  0.50319783  0.50708552  0.29554875  1
  Zr  Zr25  1  0.69570752  0.90109956  0.50559789  1
  Zr  Zr26  1  0.69861346  0.49611980  0.90039825  1
  Zr  Zr27  1  0.10358101  0.30107903  0.89673886  1
  Zr  Zr28  1  0.90265271  0.70915126  0.69894336  1
  Zr  Zr29  1  0.30932338  0.09521429  0.90340795  1
  Zr  Zr30  1  0.90413448  0.30212336  0.29063404  1
  Zr  Zr31  1  0.90061195  0.88833496  0.09076594  1
  Zr  Zr32  1  0.70107086  0.90183271  0.30408354  1
  Zr  Zr33  1  0.30674843  0.89844248  0.50031917  1
  Zr  Zr34  1  0.30410296  0.49691757  0.30118170  1
  Zr  Zr35  1  0.49981670  0.89575688  0.50034372  1
  Zr  Zr36  1  0.30064906  0.69920985  0.30424328  1
  Zr  Zr37  1  0.49999631  0.69998324  0.10581877  1
  Zr  Zr38  1  0.49277902  0.30579935  0.30348275  1
  Zr  Zr39  1  0.10528335  0.10552700  0.89800477  1
  Zr  Zr40  1  0.09918353  0.29454292  0.50232049  1
  Zr  Zr41  1  0.89390518  0.89867829  0.50626576  1
  Zr  Zr42  1  0.89020216  0.89977281  0.69689090  1
  Zr  Zr43  1  0.89412183  0.70679049  0.90783282  1
  Zr  Zr44  1  0.30686858  0.70566771  0.09441318  1
  Zr  Zr45  1  0.29976867  0.29761499  0.48503591  1
  Zr  Zr46  1  0.49145755  0.09251118  0.29007995  1
  Zr  Zr47  1  0.68967778  0.29806968  0.69908484  1
  Zr  Zr48  1  0.69359267  0.70879830  0.70257194  1
  Zr  Zr49  1  0.08922382  0.70762736  0.10330449  1
  Sc  Sc50  1  0.49941254  0.09225774  0.50496114  1
  Sc  Sc51  1  0.29091258  0.29694669  0.89780837  1
  Sc  Sc52  1  0.90086608  0.10386732  0.30231309  1
  Sc  Sc53  1  0.69304106  0.69476198  0.30398069  1
  Sc  Sc54  1  0.30495554  0.10176167  0.50049940  1
  Sc  Sc55  1  0.09535853  0.49747831  0.29679178  1
  Sc  Sc56  1  0.31163926  0.09866797  0.69713327  1
  Sc  Sc57  1  0.49890344  0.49742118  0.69744153  1
  Sc  Sc58  1  0.30278928  0.69433579  0.49854405  1
  Sc  Sc59  1  0.49258045  0.50492551  0.10237186  1
  Sc  Sc60  1  0.49113213  0.30174743  0.10276701  1
  Sc  Sc61  1  0.70696555  0.09851178  0.90905964  1
  Sc  Sc62  1  0.70494035  0.09552525  0.30353775  1
  Sc  Sc63  1  0.69423602  0.30367619  0.90331878  1
  Sc  Sc64  1  0.10447824  0.30030333  0.09771610  1
  Sc  Sc65  1  0.29644068  0.50209906  0.89442698  1
  Sc  Sc66  1  0.69671031  0.70257986  0.89088094  1
  Sc  Sc67  1  0.49970355  0.29974629  0.89144135  1
  Sc  Sc68  1  0.30779300  0.29727811  0.70344592  1
  Sc  Sc69  1  0.11715147  0.10146619  0.09929595  1
  Sc  Sc70  1  0.89590843  0.90169831  0.89097588  1
  Sc  Sc71  1  0.89675886  0.69500852  0.29801226  1
  Sc  Sc72  1  0.10188775  0.10467926  0.29651663  1
  Sc  Sc73  1  0.50141751  0.10937191  0.69981100  1
  Sc  Sc74  1  0.90722409  0.30798644  0.68901329  1
  Sc  Sc75  1  0.09700823  0.50061878  0.69617544  1
  Sc  Sc76  1  0.70054806  0.89094667  0.90092338  1
  Sc  Sc77  1  0.50623763  0.50374440  0.50702918  1
  Sc  Sc78  1  0.50167501  0.30157285  0.69998543  1
  Sc  Sc79  1  0.09995526  0.49072516  0.90242495  1
  Sc  Sc80  1  0.90706800  0.90105134  0.31790590  1
  Sc  Sc81  1  0.69502261  0.70434967  0.10566202  1
  Sc  Sc82  1  0.70726325  0.50472526  0.30424590  1
  Sc  Sc83  1  0.69411165  0.09764505  0.49795378  1
  Sc  Sc84  1  0.49639880  0.89682810  0.29936616  1
  Sc  Sc85  1  0.09578488  0.10625440  0.70050615  1
  Sc  Sc86  1  0.09610876  0.69497870  0.50208033  1
  Sc  Sc87  1  0.69589988  0.69953548  0.49925345  1
  Sc  Sc88  1  0.70290123  0.09163658  0.10515338  1
  Sc  Sc89  1  0.89711277  0.70523363  0.50187983  1
  Sc  Sc90  1  0.89896653  0.50405520  0.68971881  1
  Sc  Sc91  1  0.30614778  0.89766529  0.28718368  1
  Sc  Sc92  1  0.90085745  0.30017622  0.49508458  1
  Sc  Sc93  1  0.10147570  0.50249009  0.49972512  1
  Sc  Sc94  1  0.30002453  0.50531656  0.49595471  1
  Sc  Sc95  1  0.50155179  0.89592736  0.69423796  1
  Sc  Sc96  1  0.49811680  0.49649439  0.89763470  1
  Sc  Sc97  1  0.30456174  0.10440100  0.10037316  1
  Sc  Sc98  1  0.10470441  0.70544947  0.89934108  1
  Sc  Sc99  1  0.89799583  0.30349894  0.90712199  1
  Nb  Nb100  1  0.69735069  0.49812941  0.10115703  1
  Nb  Nb101  1  0.50494543  0.70783906  0.49395036  1
  Nb  Nb102  1  0.90002086  0.29717875  0.10463458  1
  Nb  Nb103  1  0.10760806  0.89890287  0.10155190  1
  Nb  Nb104  1  0.10332031  0.89461245  0.29525212  1
  Nb  Nb105  1  0.29718237  0.30482845  0.09996490  1
  Nb  Nb106  1  0.30207330  0.89261105  0.90333424  1
  Nb  Nb107  1  0.29862702  0.50326144  0.09787585  1
  Nb  Nb108  1  0.69889848  0.09578061  0.70096661  1
  Nb  Nb109  1  0.69872903  0.90760288  0.70101311  1
  Nb  Nb110  1  0.50031926  0.70293020  0.30494633  1
  Nb  Nb111  1  0.28680274  0.89771036  0.09406652  1
  Nb  Nb112  1  0.70556068  0.49840038  0.50705038  1
  Nb  Nb113  1  0.30282267  0.29967981  0.29333064  1
  Nb  Nb114  1  0.29815489  0.10667884  0.29836426  1
  Nb  Nb115  1  0.30191903  0.70408348  0.89794962  1
  Nb  Nb116  1  0.29411587  0.69816286  0.71168820  1
  Nb  Nb117  1  0.10077523  0.70262519  0.30021923  1
  Nb  Nb118  1  0.90279210  0.10158473  0.90119710  1
  Nb  Nb119  1  0.49749422  0.90777069  0.90394556  1
  Nb  Nb120  1  0.90065641  0.69546138  0.09761300  1
  Nb  Nb121  1  0.10174438  0.50623441  0.09799310  1
  Nb  Nb122  1  0.09899438  0.69757127  0.69905033  1
  Nb  Nb123  1  0.49882391  0.09225804  0.90564204  1
  Nb  Nb124  1  0.11543207  0.90568470  0.90918725  1
  Nb  Nb125  1  0.79664132  0.19428462  0.60676572  1
  Nb  Nb126  1  0.79673463  0.59895963  0.00763773  1
  Nb  Nb127  1  -0.00292072  0.59959298  0.39699755  1
  Nb  Nb128  1  0.20090956  -0.00447122  0.39706905  1
  Nb  Nb129  1  0.20188642  0.60210783  0.00419713  1
  Nb  Nb130  1  0.80242981  0.80118268  0.19829632  1
  Nb  Nb131  1  0.00709457  0.00025788  0.00098977  1
  Nb  Nb132  1  0.19839530  0.60001849  0.19560990  1
  Nb  Nb133  1  0.59897691  0.00095967  0.80379020  1
  Nb  Nb134  1  0.19829950  0.79758107  0.60265218  1
  Nb  Nb135  1  0.19863885  -0.00805820  0.59961514  1
  Nb  Nb136  1  0.20361505  0.39515140  0.59773686  1
  Nb  Nb137  1  0.59575235  0.19638628  0.00609871  1
  Nb  Nb138  1  0.20649572  0.40376569  0.19629218  1
  Nb  Nb139  1  0.19662641  0.80445755  0.40025170  1
  Nb  Nb140  1  0.60307985  0.59741260  0.00273486  1
  Nb  Nb141  1  0.79777078  0.39948435  0.79611617  1
  Nb  Nb142  1  0.60401327  0.39832205  0.19888703  1
  Nb  Nb143  1  0.20437770  -0.00699749  0.79889526  1
  Nb  Nb144  1  -0.00378285  0.19488791  0.00111018  1
  Nb  Nb145  1  0.00035168  0.60724036  0.79868667  1
  Nb  Nb146  1  0.00746804  -0.00850387  0.19240363  1
  Nb  Nb147  1  0.80013297  0.20147586  0.79739280  1
  Nb  Nb148  1  0.59853748  0.20345178  0.19873359  1
  Nb  Nb149  1  0.38889700  0.40160052  0.00383530  1
  Pd  Pd150  1  0.58505538  0.39919168  0.00835954  1
  Pd  Pd151  1  0.40931512  0.59973069  0.40523959  1
  Pd  Pd152  1  0.39453816  0.78606806  0.60031823  1
  Pd  Pd153  1  0.59225585  0.18815670  0.39214608  1
  Pd  Pd154  1  0.40675711  0.19405311  0.40246047  1
  Pd  Pd155  1  0.60089527  0.79507007  -0.00183853  1
  Pd  Pd156  1  0.39290841  0.00144606  0.39624537  1
  Pd  Pd157  1  -0.01040456  0.19352674  0.60225748  1
  Pd  Pd158  1  0.40341398  0.60738786  0.59859393  1
  Pd  Pd159  1  0.59076761  0.59854700  0.80617024  1
  Pd  Pd160  1  0.40339875  0.59949897  0.80244545  1
  Pd  Pd161  1  -0.01121056  0.80460542  0.20862002  1
  Pd  Pd162  1  0.60225210  0.41112413  0.39636382  1
  Pd  Pd163  1  0.40388931  0.20585148  0.59563904  1
  Pd  Pd164  1  0.81514091  -0.01059336  0.20795551  1
  Pd  Pd165  1  0.00154124  0.39151799  0.00828114  1
  Pd  Pd166  1  0.80224769  -0.00703650  -0.00632633  1
  Pd  Pd167  1  0.60314016  0.80194417  0.20855977  1
  Pd  Pd168  1  -0.00890337  0.40744253  0.79504974  1
  Pd  Pd169  1  0.39530316  0.60487350  0.20249818  1
  Pd  Pd170  1  0.40354786  0.21010666  -0.00502113  1
  Pd  Pd171  1  0.20216718  0.00273775  0.20631669  1
  Pd  Pd172  1  0.00478749  0.00642300  0.60296187  1
  Pd  Pd173  1  0.60260320  0.59580405  0.40702760  1
  Pd  Pd174  1  0.40146533  0.19896649  0.19594942  1
  Pd  Pd175  1  0.79376350  0.60616454  0.19566689  1
  Pd  Pd176  1  0.19999482  0.60117021  0.59789465  1
  Pd  Pd177  1  0.80704639  0.40598555  -0.00011585  1
  Pd  Pd178  1  0.19828438  0.80409064  0.79758403  1
  Pd  Pd179  1  0.39392578  0.39636385  0.59327415  1
  Pd  Pd180  1  0.60383653  0.18993521  0.81317226  1
  Pd  Pd181  1  0.00746682  0.80822891  -0.01098891  1
  Pd  Pd182  1  0.59532522  -0.00004037  0.39564577  1
  Pd  Pd183  1  0.80816915  0.59760287  0.80310055  1
  Pd  Pd184  1  0.40688248  0.40848476  0.40891803  1
  Pd  Pd185  1  -0.01072896  0.20853122  0.80329961  1
  Pd  Pd186  1  0.40611727  -0.00258174  0.79427992  1
  Pd  Pd187  1  0.18932681  0.59442146  0.80807308  1
  Pd  Pd188  1  0.79303821  0.19656651  0.20369888  1
  Pd  Pd189  1  0.20894983  0.19829159  0.60567228  1
  Pd  Pd190  1  0.19728465  0.40316753  0.39866088  1
  Pd  Pd191  1  0.00057491  0.40435011  0.40397071  1
  Pd  Pd192  1  0.00880853  -0.00467019  0.80962212  1
  Pd  Pd193  1  0.80222321  0.40033844  0.39961777  1
  Pd  Pd194  1  0.00569231  0.19126570  0.18993730  1
  Pd  Pd195  1  0.79647272  0.61217398  0.59804516  1
  Pd  Pd196  1  0.79683117  0.79306857  0.39517833  1
  Pd  Pd197  1  0.21050463  0.19014180  0.79157345  1
  Pd  Pd198  1  0.00222579  0.79965016  0.81094217  1
  Pd  Pd199  1  0.39404654  0.39841955  0.80638409  1
  Rh  Rh200  1  0.01118913  0.39534388  0.19436629  1
  Rh  Rh201  1  0.59133727  0.81274378  0.80163167  1
  Rh  Rh202  1  0.39862492  0.79738456  0.39724954  1
  Rh  Rh203  1  0.78956754  0.79965429  0.60274497  1
  Rh  Rh204  1  0.60645890  0.00069113  -0.00766942  1
  Rh  Rh205  1  0.60144629  0.59484799  0.19624392  1
  Rh  Rh206  1  0.38929892  -0.00276353  0.19279718  1
  Rh  Rh207  1  0.20463572  0.19425828  0.39430155  1
  Rh  Rh208  1  0.59945002  0.00274446  0.20650538  1
  Rh  Rh209  1  0.60191187  0.19515769  0.59567857  1
  Rh  Rh210  1  0.00294037  0.78753969  0.39856064  1
  Rh  Rh211  1  0.38847412  -0.00983917  0.00739568  1
  Rh  Rh212  1  0.20416555  0.79135154  0.20246727  1
  Rh  Rh213  1  0.80398085  0.19881085  0.40709142  1
  Rh  Rh214  1  0.79569114  0.80346259  0.79522264  1
  Rh  Rh215  1  0.20302091  0.40661188  0.00345974  1
  Rh  Rh216  1  0.40197801  0.00012787  0.60394409  1
  Rh  Rh217  1  0.78867681  0.00192992  0.80749431  1
  Rh  Rh218  1  -0.00289247  0.60291196  0.59876586  1
  Rh  Rh219  1  0.60177241  0.79981368  0.59935202  1
  Rh  Rh220  1  0.80076043  0.20313981  -0.00438186  1
  Rh  Rh221  1  0.40033932  0.79813669  0.19932065  1
  Rh  Rh222  1  0.59854142  0.80204508  0.39742574  1
  Rh  Rh223  1  0.00957643  0.00950816  0.38585518  1
  Rh  Rh224  1  0.59845056  0.60487571  0.59650850  1
  Rh  Rh225  1  0.79330666  0.00540763  0.59363034  1
  Rh  Rh226  1  0.01173764  0.40186218  0.59314025  1
  Rh  Rh227  1  0.19958767  0.20132597  0.00032877  1
  Rh  Rh228  1  0.19021526  0.60557909  0.39280812  1
  Rh  Rh229  1  0.79171977  0.39092088  0.60564684  1
  Rh  Rh230  1  0.20629923  0.00460164  -0.00300901  1
  Rh  Rh231  1  0.00582073  0.60307281  0.20764295  1
  Rh  Rh232  1  0.39947608  0.40192690  0.19493180  1
  Rh  Rh233  1  0.40464192  0.80016828  0.80296659  1
  Rh  Rh234  1  0.00288238  0.79489054  0.59569852  1
  Rh  Rh235  1  0.20454945  0.40527625  0.78776541  1
  Rh  Rh236  1  0.78978840  0.79156143  0.00863050  1
  Rh  Rh237  1  0.80402797  0.60002864  0.40628851  1
  Rh  Rh238  1  -0.00343133  0.20136395  0.39696795  1
  Rh  Rh239  1  0.39951111  0.59297456  -0.01042300  1
  Rh  Rh240  1  0.60173282  0.40427276  0.60057502  1
  Rh  Rh241  1  0.60357432  0.40597283  0.79265453  1
  Rh  Rh242  1  0.79559252  0.39999994  0.20027498  1
  Rh  Rh243  1  0.20121784  0.79081040  -0.00008109  1
  Rh  Rh244  1  0.00272189  0.60439900  -0.00780561  1
  Rh  Rh245  1  0.20431545  0.20817643  0.20079380  1
  Rh  Rh246  1  0.40306521  0.19952370  0.80543277  1
  Rh  Rh247  1  0.39975527  0.80824589  0.00104682  1
  Rh  Rh248  1  0.59615356  0.00120424  0.60896354  1
  Rh  Rh249  1  0.79885602  -0.00012706  0.40343195  1
