# generated using pymatgen
data_ZrScNbPdRh
_symmetry_space_group_name_H-M   'P 1'
_cell_length_a   16.56012430
_cell_length_b   16.56078206
_cell_length_c   16.56006463
_cell_angle_alpha   89.97566839
_cell_angle_beta   90.01668312
_cell_angle_gamma   89.98506020
_symmetry_Int_Tables_number   1
_chemical_formula_structural   ZrScNbPdRh
_chemical_formula_sum   'Zr50 Sc50 Nb50 Pd50 Rh50'
_cell_volume   4541.57393891
_cell_formula_units_Z   50
loop_
 _symmetry_equiv_pos_site_id
 _symmetry_equiv_pos_as_xyz
  1  'x, y, z'
loop_
 _atom_site_type_symbol
 _atom_site_label
 _atom_site_symmetry_multiplicity
 _atom_site_fract_x
 _atom_site_fract_y
 _atom_site_fract_z
 _atom_site_occupancy
  Zr  Zr0  1  0.30105662  0.09981877  0.89704691  1
  Zr  Zr1  1  0.69791057  0.49912765  0.10388288  1
  Zr  Zr2  1  0.90404809  0.10045129  0.69985569  1
  Zr  Zr3  1  0.90237396  0.48683471  0.09735425  1
  Zr  Zr4  1  0.10057198  0.50619672  0.29966552  1
  Zr  Zr5  1  0.30158640  0.49855518  0.69591026  1
  Zr  Zr6  1  0.90525105  0.51023894  0.89480379  1
  Zr  Zr7  1  0.49267340  0.10129223  0.49714773  1
  Zr  Zr8  1  0.49602291  0.30398378  0.70062738  1
  Zr  Zr9  1  0.08491174  0.30174043  0.10167815  1
  Zr  Zr10  1  0.29662921  0.29822273  0.70022879  1
  Zr  Zr11  1  0.69634331  0.09073344  0.90748897  1
  Zr  Zr12  1  0.89643982  0.70385943  0.09398553  1
  Zr  Zr13  1  0.09800197  0.09941467  0.89833196  1
  Zr  Zr14  1  0.90393148  0.30620827  0.91111678  1
  Zr  Zr15  1  0.71117684  0.30154971  0.10846553  1
  Zr  Zr16  1  0.90139947  0.49462472  0.50221030  1
  Zr  Zr17  1  0.29590904  0.69926621  0.50628616  1
  Zr  Zr18  1  0.49048692  0.69912718  0.10049658  1
  Zr  Zr19  1  0.90596327  0.29826483  0.49792761  1
  Zr  Zr20  1  0.69673264  0.30892127  0.89362176  1
  Zr  Zr21  1  0.10430331  0.29788471  0.69237579  1
  Zr  Zr22  1  0.30181820  0.69536778  0.90539368  1
  Zr  Zr23  1  0.30157057  0.69738361  0.29378329  1
  Zr  Zr24  1  0.68744956  0.10088267  0.50289700  1
  Zr  Zr25  1  0.30247470  0.89868031  0.90219314  1
  Zr  Zr26  1  0.49777716  0.50469825  0.69619696  1
  Zr  Zr27  1  0.70463123  0.50803891  0.89184710  1
  Zr  Zr28  1  0.70124021  0.90159678  0.90067594  1
  Zr  Zr29  1  0.09267414  0.10828152  0.49705638  1
  Zr  Zr30  1  0.89996075  0.09955372  0.90871274  1
  Zr  Zr31  1  0.90129159  0.50638900  0.69462875  1
  Zr  Zr32  1  0.10731659  0.09723513  0.69869023  1
  Zr  Zr33  1  0.49873793  0.69491271  0.69932706  1
  Zr  Zr34  1  0.69351038  0.90268085  0.70067720  1
  Zr  Zr35  1  0.29757565  0.49519669  0.30189298  1
  Zr  Zr36  1  0.69863981  0.30486177  0.69616419  1
  Zr  Zr37  1  0.50047951  0.90520255  0.89932962  1
  Zr  Zr38  1  0.30068821  0.88903993  0.10091625  1
  Zr  Zr39  1  0.08957774  0.10127215  0.10753255  1
  Zr  Zr40  1  0.10303478  0.50206496  0.90195893  1
  Zr  Zr41  1  0.50745532  0.10396998  0.09793050  1
  Zr  Zr42  1  0.69803513  0.09703319  0.70024242  1
  Zr  Zr43  1  0.30033289  0.49737357  0.50134075  1
  Zr  Zr44  1  0.89850351  0.70153584  0.50514918  1
  Zr  Zr45  1  0.90813456  0.70634210  0.29039205  1
  Zr  Zr46  1  0.90262117  0.30897547  0.69183858  1
  Zr  Zr47  1  0.30301642  0.30732917  0.09940506  1
  Zr  Zr48  1  0.90649246  0.69596736  0.70144050  1
  Zr  Zr49  1  0.10242437  0.50163981  0.49894017  1
  Sc  Sc50  1  0.90345820  0.89095991  0.11129995  1
  Sc  Sc51  1  0.70164726  0.30119695  0.30057435  1
  Sc  Sc52  1  0.70376805  0.88822167  0.49307797  1
  Sc  Sc53  1  0.10121919  0.50235916  0.70182666  1
  Sc  Sc54  1  0.29086196  0.50122397  0.90216028  1
  Sc  Sc55  1  0.90114975  0.69677327  0.90212532  1
  Sc  Sc56  1  0.69860684  0.70235849  0.30334715  1
  Sc  Sc57  1  0.90635569  0.09218832  0.30959292  1
  Sc  Sc58  1  0.29940718  0.90566643  0.68969943  1
  Sc  Sc59  1  0.90623390  0.88974641  0.70697319  1
  Sc  Sc60  1  0.30163294  0.09716913  0.50094696  1
  Sc  Sc61  1  0.50145439  0.69922860  0.50220385  1
  Sc  Sc62  1  0.49782556  0.49404284  0.11130046  1
  Sc  Sc63  1  0.30343301  0.30447421  0.30689965  1
  Sc  Sc64  1  0.09002170  0.89670794  0.90039862  1
  Sc  Sc65  1  0.71246795  0.90015614  0.29588676  1
  Sc  Sc66  1  0.49855002  0.89986160  0.69006795  1
  Sc  Sc67  1  0.49890672  0.49559051  0.30411946  1
  Sc  Sc68  1  0.09516656  0.69657029  0.90289698  1
  Sc  Sc69  1  0.49630698  0.30330055  0.30147055  1
  Sc  Sc70  1  0.29798213  0.09838844  0.69768925  1
  Sc  Sc71  1  0.50279261  0.09893837  0.68138507  1
  Sc  Sc72  1  0.10959489  0.89835542  0.51075234  1
  Sc  Sc73  1  0.30795287  0.90302632  0.49975558  1
  Sc  Sc74  1  0.29468759  0.50053517  0.09931392  1
  Sc  Sc75  1  0.70177711  0.50240019  0.69793385  1
  Sc  Sc76  1  0.09630986  0.10332868  0.30565520  1
  Sc  Sc77  1  0.29701016  0.69474012  0.09442003  1
  Sc  Sc78  1  0.30020500  0.30299176  0.50080985  1
  Sc  Sc79  1  0.70152442  0.49903564  0.49941318  1
  Sc  Sc80  1  0.30007362  0.30557003  0.90414877  1
  Sc  Sc81  1  0.69661827  0.09811618  0.29131571  1
  Sc  Sc82  1  0.71130006  0.90281702  0.10359921  1
  Sc  Sc83  1  0.69526704  0.69321018  0.69362093  1
  Sc  Sc84  1  0.49650733  0.50223576  0.88448353  1
  Sc  Sc85  1  0.49517708  0.29651637  0.10135377  1
  Sc  Sc86  1  0.69444125  0.48826686  0.29940234  1
  Sc  Sc87  1  0.30781846  0.10220188  0.10336793  1
  Sc  Sc88  1  0.70365118  0.30037540  0.49136377  1
  Sc  Sc89  1  0.89730150  0.30317976  0.29919149  1
  Sc  Sc90  1  0.90217646  0.89509321  0.90806238  1
  Sc  Sc91  1  0.09433999  0.91721508  0.29481816  1
  Sc  Sc92  1  0.69954193  0.69796278  0.50189897  1
  Sc  Sc93  1  0.30081234  0.69357172  0.69195994  1
  Sc  Sc94  1  0.49749026  0.10649879  0.29936614  1
  Sc  Sc95  1  0.10955788  0.30779221  0.89385459  1
  Sc  Sc96  1  0.49532368  0.89803396  0.09736930  1
  Sc  Sc97  1  0.29682779  0.09695854  0.31044285  1
  Sc  Sc98  1  0.10474171  0.50165630  0.10142255  1
  Sc  Sc99  1  0.49674125  0.69459696  0.30374359  1
  Nb  Nb100  1  0.89729312  0.90325028  0.48754375  1
  Nb  Nb101  1  0.30180626  0.89768639  0.30111754  1
  Nb  Nb102  1  0.49922833  0.10576978  0.90926888  1
  Nb  Nb103  1  0.10224948  0.70161252  0.50201891  1
  Nb  Nb104  1  0.70290787  0.70004719  0.09779708  1
  Nb  Nb105  1  0.10120996  0.89555934  0.70120083  1
  Nb  Nb106  1  0.89904128  0.89729806  0.31082731  1
  Nb  Nb107  1  0.90120064  0.09711552  0.50115643  1
  Nb  Nb108  1  0.49225076  0.89335080  0.30163160  1
  Nb  Nb109  1  0.90061806  0.29293818  0.10100538  1
  Nb  Nb110  1  0.49595674  0.90337753  0.49476544  1
  Nb  Nb111  1  0.70435101  0.69837541  0.90566286  1
  Nb  Nb112  1  0.89841692  0.50501522  0.29976210  1
  Nb  Nb113  1  0.49739087  0.49507468  0.50111867  1
  Nb  Nb114  1  0.50160188  0.29672041  0.90332891  1
  Nb  Nb115  1  0.09582153  0.30360653  0.49636510  1
  Nb  Nb116  1  0.10110323  0.89915295  0.10048363  1
  Nb  Nb117  1  0.49501528  0.29310804  0.50383849  1
  Nb  Nb118  1  0.90318898  0.12751603  0.09753132  1
  Nb  Nb119  1  0.09574208  0.70863732  0.11019350  1
  Nb  Nb120  1  0.10182733  0.29807654  0.30742127  1
  Nb  Nb121  1  0.10014418  0.69952809  0.29880669  1
  Nb  Nb122  1  0.50294189  0.69751599  0.89585909  1
  Nb  Nb123  1  0.09862535  0.71139032  0.68827840  1
  Nb  Nb124  1  0.70725934  0.10160354  0.10207342  1
  Nb  Nb125  1  0.80744963  0.59712443  0.39308238  1
  Nb  Nb126  1  0.59926215  0.40323943  -0.00363601  1
  Nb  Nb127  1  0.59820091  0.79816133  0.19578307  1
  Nb  Nb128  1  0.19583607  -0.00026890  0.00662407  1
  Nb  Nb129  1  -0.00314245  -0.00261287  0.59699510  1
  Nb  Nb130  1  0.59216073  -0.00835535  0.39638677  1
  Nb  Nb131  1  0.59196586  0.39884181  0.59534071  1
  Nb  Nb132  1  0.40880792  0.19752634  0.80528434  1
  Nb  Nb133  1  0.80071815  0.20011971  0.79968591  1
  Nb  Nb134  1  0.80156289  0.59838903  0.20022312  1
  Nb  Nb135  1  0.40021780  -0.00700441  0.20642445  1
  Nb  Nb136  1  0.79167362  0.79560159  0.80386240  1
  Nb  Nb137  1  0.39799510  0.79725224  0.80071796  1
  Nb  Nb138  1  0.80634825  -0.00136871  0.59428044  1
  Nb  Nb139  1  0.00680127  0.80118216  0.40040112  1
  Nb  Nb140  1  0.19912229  0.79961210  0.79379895  1
  Nb  Nb141  1  0.19531969  0.80261906  0.20466801  1
  Nb  Nb142  1  0.59658267  0.19751235  0.80509969  1
  Nb  Nb143  1  0.60017181  0.60195070  -0.00100696  1
  Nb  Nb144  1  0.19706365  0.19642972  0.00730524  1
  Nb  Nb145  1  -0.00256713  0.20303521  0.79884138  1
  Nb  Nb146  1  0.60305716  0.79255857  0.00072319  1
  Nb  Nb147  1  0.19604601  0.20469640  0.19997620  1
  Nb  Nb148  1  0.19616728  0.79814862  0.39328775  1
  Nb  Nb149  1  0.80225553  0.19465138  0.59959122  1
  Pd  Pd150  1  0.78884211  0.20287057  -0.00730616  1
  Pd  Pd151  1  0.59456471  0.39432418  0.40652687  1
  Pd  Pd152  1  -0.00364331  -0.00317138  0.01273779  1
  Pd  Pd153  1  0.39119450  0.19625556  0.20832904  1
  Pd  Pd154  1  -0.00348204  0.59570726  0.18999529  1
  Pd  Pd155  1  0.40877663  0.40898533  -0.00396499  1
  Pd  Pd156  1  0.20515546  0.20462117  0.40005795  1
  Pd  Pd157  1  -0.00538485  0.80963643  0.59112491  1
  Pd  Pd158  1  0.20474762  0.19915717  0.58866890  1
  Pd  Pd159  1  0.40723672  0.58721090  -0.00202543  1
  Pd  Pd160  1  0.40773844  0.00296468  0.78911258  1
  Pd  Pd161  1  0.39419535  0.39680778  0.80587979  1
  Pd  Pd162  1  0.59631260  0.80098206  0.59464634  1
  Pd  Pd163  1  0.19577004  -0.00700035  0.40694592  1
  Pd  Pd164  1  0.81391106  0.01077406  0.19587593  1
  Pd  Pd165  1  0.20277542  0.60420802  0.40028690  1
  Pd  Pd166  1  0.39620721  0.00238967  0.00931775  1
  Pd  Pd167  1  -0.00301947  -0.00093424  0.79673942  1
  Pd  Pd168  1  0.61049577  0.20908610  0.00303668  1
  Pd  Pd169  1  0.60646031  0.59600009  0.40105262  1
  Pd  Pd170  1  0.80927975  -0.00670376  0.79643475  1
  Pd  Pd171  1  0.19654041  0.60885709  0.79274773  1
  Pd  Pd172  1  0.39630836  0.59134379  0.19982053  1
  Pd  Pd173  1  0.00317609  0.39894157  0.79770726  1
  Pd  Pd174  1  0.60008229  0.80265078  0.39260852  1
  Pd  Pd175  1  0.78578885  0.00712993  0.40257478  1
  Pd  Pd176  1  0.58493412  0.01026239  0.79661247  1
  Pd  Pd177  1  0.00070892  0.40114415  0.39267029  1
  Pd  Pd178  1  0.60395868  0.60586995  0.20142577  1
  Pd  Pd179  1  0.59297810  -0.01097597  0.20286816  1
  Pd  Pd180  1  0.59773781  0.19866437  0.39378217  1
  Pd  Pd181  1  0.19861833  -0.01134240  0.80466612  1
  Pd  Pd182  1  -0.00366314  0.60720973  0.40493523  1
  Pd  Pd183  1  -0.00112297  0.39941273  0.20869843  1
  Pd  Pd184  1  0.00463770  0.60200261  0.00924139  1
  Pd  Pd185  1  -0.01308379  0.00204622  0.19592384  1
  Pd  Pd186  1  0.40104798  0.59955131  0.40439175  1
  Pd  Pd187  1  0.80020705  0.80621821  0.60839845  1
  Pd  Pd188  1  0.80850033  0.40186011  0.79744294  1
  Pd  Pd189  1  0.18959999  0.80020727  -0.00277191  1
  Pd  Pd190  1  0.39362596  0.79276633  0.40635981  1
  Pd  Pd191  1  0.20855227  0.00382525  0.19627216  1
  Pd  Pd192  1  0.80112241  0.19178790  0.39982894  1
  Pd  Pd193  1  0.79565581  0.40523015  -0.00214913  1
  Pd  Pd194  1  0.19694043  0.39346070  0.20283946  1
  Pd  Pd195  1  0.59981332  0.79411855  0.80214252  1
  Pd  Pd196  1  0.60169705  0.20625197  0.20115031  1
  Pd  Pd197  1  0.81227892  -0.00059965  0.01543090  1
  Pd  Pd198  1  0.80643938  0.19338559  0.21445655  1
  Pd  Pd199  1  0.60218984  -0.00863995  0.01364697  1
  Rh  Rh200  1  0.79963136  0.59162854  0.00736547  1
  Rh  Rh201  1  0.79874301  0.59823291  0.59351377  1
  Rh  Rh202  1  0.60574659  0.60257371  0.80077649  1
  Rh  Rh203  1  0.39671079  0.20242556  0.40209426  1
  Rh  Rh204  1  0.00741013  0.59825658  0.59958640  1
  Rh  Rh205  1  0.19924883  0.60723212  0.19557584  1
  Rh  Rh206  1  0.79093238  0.39582199  0.59199894  1
  Rh  Rh207  1  0.00578755  0.40354604  -0.00373721  1
  Rh  Rh208  1  0.19565742  0.39519808  0.00536106  1
  Rh  Rh209  1  0.39902108  0.79982726  0.20180933  1
  Rh  Rh210  1  0.39917888  0.00139951  0.59833184  1
  Rh  Rh211  1  0.00929228  -0.00812176  0.41054877  1
  Rh  Rh212  1  0.01028068  0.20794747  -0.01216787  1
  Rh  Rh213  1  0.80738614  0.78729315  0.39524081  1
  Rh  Rh214  1  0.59521774  0.39056886  0.19413862  1
  Rh  Rh215  1  0.80543849  0.40359266  0.20499138  1
  Rh  Rh216  1  0.39271715  0.19902368  0.60484922  1
  Rh  Rh217  1  0.60298322  0.21295709  0.60106830  1
  Rh  Rh218  1  0.19754544  0.39839360  0.40162929  1
  Rh  Rh219  1  0.39023449  0.20135323  -0.00439047  1
  Rh  Rh220  1  0.20734904  0.80238589  0.60079820  1
  Rh  Rh221  1  0.59397149  0.40105365  0.79704213  1
  Rh  Rh222  1  0.00946195  0.81106471  0.20900908  1
  Rh  Rh223  1  0.00915028  0.60544301  0.79513793  1
  Rh  Rh224  1  0.19385329  0.59716521  0.60290606  1
  Rh  Rh225  1  0.19607691  0.40078614  0.59692018  1
  Rh  Rh226  1  0.00152510  0.79268664  0.80381692  1
  Rh  Rh227  1  0.79335881  0.79265435  0.20520579  1
  Rh  Rh228  1  0.00988450  0.40571355  0.59958089  1
  Rh  Rh229  1  0.80238187  0.40716782  0.39777381  1
  Rh  Rh230  1  0.00128554  0.79805387  0.00202763  1
  Rh  Rh231  1  0.39747832  0.40249812  0.20464129  1
  Rh  Rh232  1  0.40273773  0.39769273  0.59449438  1
  Rh  Rh233  1  0.00000036  0.20381322  0.21456687  1
  Rh  Rh234  1  0.40237191  0.80087775  0.60227084  1
  Rh  Rh235  1  0.40583925  0.00277288  0.39227139  1
  Rh  Rh236  1  0.60597784  -0.01509030  0.58420086  1
  Rh  Rh237  1  0.79843487  0.80479270  -0.00562843  1
  Rh  Rh238  1  0.59898586  0.59039822  0.59403159  1
  Rh  Rh239  1  0.20529401  0.40441307  0.79536392  1
  Rh  Rh240  1  0.79904732  0.60991269  0.79281474  1
  Rh  Rh241  1  -0.00517739  0.20465252  0.39612639  1
  Rh  Rh242  1  0.41013738  0.79599211  -0.01124541  1
  Rh  Rh243  1  -0.00065278  0.19755033  0.60282369  1
  Rh  Rh244  1  0.19529336  0.00215282  0.59645654  1
  Rh  Rh245  1  0.40170574  0.39891205  0.40382896  1
  Rh  Rh246  1  0.40233678  0.60002563  0.59242141  1
  Rh  Rh247  1  0.19239477  0.60524644  0.00685711  1
  Rh  Rh248  1  0.39021437  0.60578427  0.79995207  1
  Rh  Rh249  1  0.20523593  0.20386885  0.80911246  1
