# generated using pymatgen
data_ZrScNbPdRh
_symmetry_space_group_name_H-M   'P 1'
_cell_length_a   16.56463550
_cell_length_b   16.56442318
_cell_length_c   16.56704320
_cell_angle_alpha   90.00339214
_cell_angle_beta   90.04176815
_cell_angle_gamma   90.01433268
_symmetry_Int_Tables_number   1
_chemical_formula_structural   ZrScNbPdRh
_chemical_formula_sum   'Zr50 Sc50 Nb50 Pd50 Rh50'
_cell_volume   4545.72413007
_cell_formula_units_Z   50
loop_
 _symmetry_equiv_pos_site_id
 _symmetry_equiv_pos_as_xyz
  1  'x, y, z'
loop_
 _atom_site_type_symbol
 _atom_site_label
 _atom_site_symmetry_multiplicity
 _atom_site_fract_x
 _atom_site_fract_y
 _atom_site_fract_z
 _atom_site_occupancy
  Zr  Zr0  1  0.70568683  0.70018907  0.49416097  1
  Zr  Zr1  1  0.10492024  0.70027486  0.09694786  1
  Zr  Zr2  1  0.89907995  0.09638774  0.70689275  1
  Zr  Zr3  1  0.09488006  0.89825561  0.89843228  1
  Zr  Zr4  1  0.29841768  0.51350344  0.30019364  1
  Zr  Zr5  1  0.30155210  0.50266827  0.70501876  1
  Zr  Zr6  1  0.90227940  0.69302109  0.50400445  1
  Zr  Zr7  1  0.09625891  0.70104899  0.89904668  1
  Zr  Zr8  1  0.31050526  0.29942631  0.29251191  1
  Zr  Zr9  1  0.50222564  0.89824845  0.90378428  1
  Zr  Zr10  1  0.10716234  0.70126312  0.50005705  1
  Zr  Zr11  1  0.89463872  0.89138344  0.10329630  1
  Zr  Zr12  1  0.69122262  0.68933172  0.10138756  1
  Zr  Zr13  1  0.71164737  0.89289316  0.29973486  1
  Zr  Zr14  1  0.11180862  0.69592052  0.29993685  1
  Zr  Zr15  1  0.70460172  0.11072851  0.70214845  1
  Zr  Zr16  1  0.70853061  0.69645430  0.70079439  1
  Zr  Zr17  1  0.69476141  0.10800921  0.90519011  1
  Zr  Zr18  1  0.10899377  0.30056639  0.90370445  1
  Zr  Zr19  1  0.69351963  0.90008487  0.48916199  1
  Zr  Zr20  1  0.30635214  0.70233062  0.11177584  1
  Zr  Zr21  1  0.50085667  0.30250975  0.30356870  1
  Zr  Zr22  1  0.49078192  0.09739054  0.89740698  1
  Zr  Zr23  1  0.09257661  0.50219137  0.30090788  1
  Zr  Zr24  1  0.50063023  0.49435074  0.49939467  1
  Zr  Zr25  1  0.30122687  0.30389849  0.50314820  1
  Zr  Zr26  1  0.30575618  0.89719661  0.09836939  1
  Zr  Zr27  1  0.91318743  0.30622220  0.30409218  1
  Zr  Zr28  1  0.69568030  0.90134112  0.10077468  1
  Zr  Zr29  1  0.49549631  0.89962303  0.70637838  1
  Zr  Zr30  1  0.69735145  0.29739832  0.09265320  1
  Zr  Zr31  1  0.90233376  0.89888533  0.48868280  1
  Zr  Zr32  1  0.89344382  0.70803416  0.29798658  1
  Zr  Zr33  1  0.70162511  0.49906272  0.71209817  1
  Zr  Zr34  1  0.09806770  0.10568832  0.50141935  1
  Zr  Zr35  1  0.89895746  0.11160927  0.50748430  1
  Zr  Zr36  1  0.10824022  0.29499639  0.69760496  1
  Zr  Zr37  1  0.09937447  0.29391345  0.09891754  1
  Zr  Zr38  1  0.50410689  0.09986077  0.49190652  1
  Zr  Zr39  1  0.30247177  0.11251172  0.90068005  1
  Zr  Zr40  1  0.50278179  0.29938424  0.49520804  1
  Zr  Zr41  1  0.69889571  0.10454323  0.10177129  1
  Zr  Zr42  1  0.90436503  0.09059146  0.90208826  1
  Zr  Zr43  1  0.09905519  0.50478907  0.09923536  1
  Zr  Zr44  1  0.49629221  0.89555154  0.09379312  1
  Zr  Zr45  1  0.89513137  0.50016978  0.29692834  1
  Zr  Zr46  1  0.50002465  0.49413440  0.70800714  1
  Zr  Zr47  1  0.49600269  0.90215001  0.49873943  1
  Zr  Zr48  1  0.69394692  0.49367922  0.10372657  1
  Zr  Zr49  1  0.10242473  0.10128745  0.29790150  1
  Sc  Sc50  1  0.89879770  0.29584512  0.10023895  1
  Sc  Sc51  1  0.90278746  0.30199336  0.90769048  1
  Sc  Sc52  1  0.30072731  0.51235568  0.50984617  1
  Sc  Sc53  1  0.10333680  0.70142253  0.70305464  1
  Sc  Sc54  1  0.90268615  0.30047069  0.49775053  1
  Sc  Sc55  1  0.09786777  0.49280011  0.89664014  1
  Sc  Sc56  1  0.10247365  0.50193971  0.70605476  1
  Sc  Sc57  1  0.29989867  0.29827773  0.08906937  1
  Sc  Sc58  1  0.89238739  0.28748353  0.69751088  1
  Sc  Sc59  1  0.50338782  0.29911135  0.11001261  1
  Sc  Sc60  1  0.90565352  0.70185570  0.70593292  1
  Sc  Sc61  1  0.30247970  0.88291325  0.70063950  1
  Sc  Sc62  1  0.09571437  0.50865674  0.49712517  1
  Sc  Sc63  1  0.90063214  0.51134253  0.70682297  1
  Sc  Sc64  1  0.49549674  0.49492656  0.29532327  1
  Sc  Sc65  1  0.49485456  0.30123195  0.89907840  1
  Sc  Sc66  1  0.69225576  0.31134841  0.28749969  1
  Sc  Sc67  1  0.09241136  0.29667232  0.50002651  1
  Sc  Sc68  1  0.90468303  0.70034122  0.09601873  1
  Sc  Sc69  1  0.89636760  0.09718819  0.29873015  1
  Sc  Sc70  1  0.90098279  0.89658118  0.89347723  1
  Sc  Sc71  1  0.30311228  0.11175779  0.71099027  1
  Sc  Sc72  1  0.50303186  0.90866992  0.30818676  1
  Sc  Sc73  1  0.10450000  0.89324544  0.49285904  1
  Sc  Sc74  1  0.90107915  0.50462017  0.48958820  1
  Sc  Sc75  1  0.50258612  0.69736133  0.90804386  1
  Sc  Sc76  1  0.29833990  0.30528553  0.70962271  1
  Sc  Sc77  1  0.49573331  0.69677406  0.70807353  1
  Sc  Sc78  1  0.29227029  0.90500304  0.29794415  1
  Sc  Sc79  1  0.29770338  0.70132116  0.88829610  1
  Sc  Sc80  1  0.49770449  0.10440030  0.29948357  1
  Sc  Sc81  1  0.09887164  0.09580342  0.90920692  1
  Sc  Sc82  1  0.31106293  0.90418103  0.90080431  1
  Sc  Sc83  1  0.30751150  0.49722462  0.09261311  1
  Sc  Sc84  1  0.69787556  0.10652265  0.50035341  1
  Sc  Sc85  1  0.30442533  0.09563182  0.29437579  1
  Sc  Sc86  1  0.69345845  0.29982532  0.70837528  1
  Sc  Sc87  1  0.10279064  0.89654817  0.09068936  1
  Sc  Sc88  1  0.69894495  0.70703535  0.89295497  1
  Sc  Sc89  1  0.90162257  0.70230600  0.89965277  1
  Sc  Sc90  1  0.70888581  0.50123122  0.49567879  1
  Sc  Sc91  1  0.90271936  0.49377441  0.89834195  1
  Sc  Sc92  1  0.30506369  0.09786139  0.48704447  1
  Sc  Sc93  1  0.48878246  0.69678020  0.50551895  1
  Sc  Sc94  1  0.70389710  0.89383265  0.71661150  1
  Sc  Sc95  1  0.48526450  0.68683807  0.29613561  1
  Sc  Sc96  1  0.09937605  0.09977126  0.09444371  1
  Sc  Sc97  1  0.30190080  0.09733394  0.09806492  1
  Sc  Sc98  1  0.69109084  0.30366190  0.50040563  1
  Sc  Sc99  1  0.69954000  0.09349441  0.29098934  1
  Nb  Nb100  1  0.89939761  0.90017514  0.29524843  1
  Nb  Nb101  1  0.09522265  0.90358587  0.70094647  1
  Nb  Nb102  1  0.29472894  0.70628545  0.50518209  1
  Nb  Nb103  1  0.30434846  0.48207559  0.90040810  1
  Nb  Nb104  1  0.10229139  0.10123720  0.69918105  1
  Nb  Nb105  1  0.49864061  0.50011776  0.90427039  1
  Nb  Nb106  1  0.09044505  0.90301283  0.30281637  1
  Nb  Nb107  1  0.69866073  0.50774919  0.29689633  1
  Nb  Nb108  1  0.50285642  0.29682533  0.69470493  1
  Nb  Nb109  1  0.50560450  0.52462775  0.09263759  1
  Nb  Nb110  1  0.89436236  0.50015436  0.09672873  1
  Nb  Nb111  1  0.69606199  0.69776444  0.30018546  1
  Nb  Nb112  1  0.51412424  0.09607797  0.09085365  1
  Nb  Nb113  1  0.10039846  0.30191915  0.29851434  1
  Nb  Nb114  1  0.90228202  0.90419640  0.70278920  1
  Nb  Nb115  1  0.69867277  0.31089876  0.90603289  1
  Nb  Nb116  1  0.29910504  0.89350860  0.50640995  1
  Nb  Nb117  1  0.50156601  0.10299520  0.70136934  1
  Nb  Nb118  1  0.89895138  0.09512106  0.09708841  1
  Nb  Nb119  1  0.29625511  0.69816464  0.30767658  1
  Nb  Nb120  1  0.69412160  0.48663303  0.90435601  1
  Nb  Nb121  1  0.49844780  0.69673211  0.10110732  1
  Nb  Nb122  1  0.29823210  0.30625311  0.90046359  1
  Nb  Nb123  1  0.69973016  0.90206079  0.90090633  1
  Nb  Nb124  1  0.30137904  0.69353319  0.68207357  1
  Nb  Nb125  1  0.60145348  -0.00176191  0.60856865  1
  Nb  Nb126  1  0.20407187  0.59711479  -0.00361283  1
  Nb  Nb127  1  0.59924952  0.00428984  0.80069252  1
  Nb  Nb128  1  0.00663874  0.19606774  0.80076379  1
  Nb  Nb129  1  0.39859924  0.00361543  0.60379356  1
  Nb  Nb130  1  0.19828804  0.39800705  0.39358607  1
  Nb  Nb131  1  0.79601932  -0.00140793  0.00037063  1
  Nb  Nb132  1  0.20192485  -0.00198602  0.60534168  1
  Nb  Nb133  1  -0.00269801  -0.00765329  0.20181728  1
  Nb  Nb134  1  0.80171737  0.80739345  0.59942403  1
  Nb  Nb135  1  0.40787027  0.19886178  0.60065618  1
  Nb  Nb136  1  0.00150599  -0.00161606  0.60325337  1
  Nb  Nb137  1  0.60387499  0.60061911  0.59961918  1
  Nb  Nb138  1  0.79985934  0.20708153  0.39401311  1
  Nb  Nb139  1  0.38699162  0.79683207  0.40263238  1
  Nb  Nb140  1  0.79439146  0.58965779  0.00024549  1
  Nb  Nb141  1  0.20024612  0.20856567  0.39209229  1
  Nb  Nb142  1  0.19831538  0.39873329  0.20357903  1
  Nb  Nb143  1  0.79970976  -0.00719971  0.60287739  1
  Nb  Nb144  1  -0.00529404  0.40056791  0.60348428  1
  Nb  Nb145  1  0.60100013  0.59934841  0.39908723  1
  Nb  Nb146  1  0.60358753  0.79941034  0.60203507  1
  Nb  Nb147  1  0.80387327  0.40333645  0.60349241  1
  Nb  Nb148  1  0.59515712  0.79133252  0.20208325  1
  Nb  Nb149  1  0.19777930  -0.00041759  0.79389127  1
  Pd  Pd150  1  0.58555389  0.39749285  0.00579911  1
  Pd  Pd151  1  0.21434986  0.19120054  0.59236223  1
  Pd  Pd152  1  0.80782201  0.39386096  0.79608993  1
  Pd  Pd153  1  -0.00526495  0.18975178  0.19931383  1
  Pd  Pd154  1  0.19080404  -0.00507269  0.19324202  1
  Pd  Pd155  1  0.18970385  0.40845874  0.59210615  1
  Pd  Pd156  1  0.19554568  0.80826449  0.20449520  1
  Pd  Pd157  1  0.20112678  0.00095366  0.40458675  1
  Pd  Pd158  1  0.80359332  0.20608382  0.20672224  1
  Pd  Pd159  1  0.20240177  0.59421988  0.80669519  1
  Pd  Pd160  1  0.61196526  0.19938164  0.38749756  1
  Pd  Pd161  1  0.79411462  0.39402364  0.40210811  1
  Pd  Pd162  1  0.39079963  0.40838231  0.40113980  1
  Pd  Pd163  1  0.39796197  0.59967177  0.80670708  1
  Pd  Pd164  1  0.60982291  0.40715847  0.60317086  1
  Pd  Pd165  1  0.00257261  0.79099997  0.39606840  1
  Pd  Pd166  1  0.59532832  -0.00656064  0.20359956  1
  Pd  Pd167  1  0.00141451  0.40138691  0.18985031  1
  Pd  Pd168  1  0.20579766  0.20298836  0.19908308  1
  Pd  Pd169  1  0.80511321  0.20886782  0.81490903  1
  Pd  Pd170  1  -0.00021644  0.39853576  0.00527978  1
  Pd  Pd171  1  0.40533099  0.19092693  0.19068246  1
  Pd  Pd172  1  0.80445146  0.60482207  0.19308049  1
  Pd  Pd173  1  0.40863406  0.00287121  0.19627455  1
  Pd  Pd174  1  0.00957259  0.80063978  0.19888000  1
  Pd  Pd175  1  0.40739417  0.20157423  0.00757078  1
  Pd  Pd176  1  -0.00253330  0.00765329  0.40062231  1
  Pd  Pd177  1  0.80556834  0.19722173  -0.00397141  1
  Pd  Pd178  1  -0.00250917  0.59663167  -0.00661447  1
  Pd  Pd179  1  0.59921340  0.59985457  0.80397202  1
  Pd  Pd180  1  0.79819956  0.01188020  0.40473375  1
  Pd  Pd181  1  0.00434508  0.59440716  0.60618645  1
  Pd  Pd182  1  0.19915974  0.80484273  0.79649474  1
  Pd  Pd183  1  0.80230085  0.39379351  0.19684095  1
  Pd  Pd184  1  0.39909638  0.39568350  0.60707997  1
  Pd  Pd185  1  0.79688717  0.79646191  -0.00233794  1
  Pd  Pd186  1  0.21060278  0.79430895  -0.00467254  1
  Pd  Pd187  1  0.80241134  0.59915145  0.81590351  1
  Pd  Pd188  1  0.60256167  0.79413210  0.00297486  1
  Pd  Pd189  1  0.40154392  0.79122207  0.80291041  1
  Pd  Pd190  1  0.41153741  0.39855230  0.00792243  1
  Pd  Pd191  1  0.59425462  0.20362624  0.80802548  1
  Pd  Pd192  1  0.38865832  0.60659338  -0.00946509  1
  Pd  Pd193  1  -0.00618113  0.60558941  0.20177556  1
  Pd  Pd194  1  -0.00445215  0.38795666  0.78932929  1
  Pd  Pd195  1  -0.00077638  0.80465812  0.60203610  1
  Pd  Pd196  1  0.58162532  0.78534218  0.39451361  1
  Pd  Pd197  1  0.40049915  0.40773392  0.18981451  1
  Pd  Pd198  1  0.20790780  -0.00016219  -0.00752675  1
  Pd  Pd199  1  0.40669558  0.80640988  0.21539330  1
  Rh  Rh200  1  -0.00093761  0.19611121  0.39179392  1
  Rh  Rh201  1  -0.00065671  0.20022142  -0.00427303  1
  Rh  Rh202  1  0.59712609  0.19678607  0.20087238  1
  Rh  Rh203  1  0.01047711  0.00558191  0.79773147  1
  Rh  Rh204  1  0.60409645  -0.00004256  -0.00749561  1
  Rh  Rh205  1  0.39972880  0.00522348  0.00616675  1
  Rh  Rh206  1  0.00802354  0.40367850  0.41037012  1
  Rh  Rh207  1  0.60758630  0.00825182  0.39670431  1
  Rh  Rh208  1  0.59281266  0.20863276  -0.00265111  1
  Rh  Rh209  1  0.39625323  0.59503378  0.19536048  1
  Rh  Rh210  1  0.40561676  0.80174282  0.59758863  1
  Rh  Rh211  1  0.80741359  0.80082745  0.79831668  1
  Rh  Rh212  1  0.40849627  0.59724299  0.60342190  1
  Rh  Rh213  1  0.59619444  0.19785876  0.60006557  1
  Rh  Rh214  1  -0.00035113  0.79874170  0.79781794  1
  Rh  Rh215  1  0.40308206  0.21273327  0.79425434  1
  Rh  Rh216  1  -0.00255501  0.80164887  -0.00270886  1
  Rh  Rh217  1  0.40408339  0.39594143  0.79923724  1
  Rh  Rh218  1  0.39492566  0.00139715  0.79454541  1
  Rh  Rh219  1  0.19890523  0.40595761  0.00613958  1
  Rh  Rh220  1  0.79966073  0.59784114  0.60182327  1
  Rh  Rh221  1  0.00255088  0.60196450  0.80508613  1
  Rh  Rh222  1  0.60553581  0.41106572  0.39203422  1
  Rh  Rh223  1  0.78917481  0.79057842  0.19533592  1
  Rh  Rh224  1  0.39630286  0.79159910  -0.00361077  1
  Rh  Rh225  1  0.20326995  0.59582358  0.40942589  1
  Rh  Rh226  1  0.20727388  0.59299464  0.18815549  1
  Rh  Rh227  1  0.39046409  -0.01063386  0.40337300  1
  Rh  Rh228  1  0.20097755  0.40361450  0.80019198  1
  Rh  Rh229  1  0.19259709  0.80223926  0.60703114  1
  Rh  Rh230  1  0.80609808  0.79678096  0.40265784  1
  Rh  Rh231  1  0.59504297  0.80413382  0.79993686  1
  Rh  Rh232  1  0.39407917  0.20362334  0.40240008  1
  Rh  Rh233  1  -0.00338458  0.60823428  0.39124126  1
  Rh  Rh234  1  0.80111031  0.40399121  0.00236155  1
  Rh  Rh235  1  0.59311776  0.59970834  0.21034769  1
  Rh  Rh236  1  0.59270310  0.39490661  0.80585416  1
  Rh  Rh237  1  0.78950525  -0.00012391  0.80519636  1
  Rh  Rh238  1  0.20269542  0.80494061  0.39322873  1
  Rh  Rh239  1  -0.00032590  0.20299390  0.61195623  1
  Rh  Rh240  1  0.79863616  0.60085740  0.39134728  1
  Rh  Rh241  1  -0.01099625  -0.01000675  0.01180329  1
  Rh  Rh242  1  0.59090158  0.41012146  0.19653849  1
  Rh  Rh243  1  0.19446675  0.59956182  0.60212393  1
  Rh  Rh244  1  0.78978803  0.20970863  0.58853276  1
  Rh  Rh245  1  0.39955516  0.60347846  0.40928095  1
  Rh  Rh246  1  0.20176988  0.19846603  -0.00014399  1
  Rh  Rh247  1  0.80660008  0.00020927  0.19164538  1
  Rh  Rh248  1  0.60876804  0.59879274  -0.01355157  1
  Rh  Rh249  1  0.19425344  0.19622896  0.81030130  1
