# generated using pymatgen
data_ZrScNbPdRh
_symmetry_space_group_name_H-M   'P 1'
_cell_length_a   16.55876836
_cell_length_b   16.56247671
_cell_length_c   16.55862301
_cell_angle_alpha   90.01103100
_cell_angle_beta   89.98134477
_cell_angle_gamma   90.01541479
_symmetry_Int_Tables_number   1
_chemical_formula_structural   ZrScNbPdRh
_chemical_formula_sum   'Zr50 Sc50 Nb50 Pd50 Rh50'
_cell_volume   4541.27167003
_cell_formula_units_Z   50
loop_
 _symmetry_equiv_pos_site_id
 _symmetry_equiv_pos_as_xyz
  1  'x, y, z'
loop_
 _atom_site_type_symbol
 _atom_site_label
 _atom_site_symmetry_multiplicity
 _atom_site_fract_x
 _atom_site_fract_y
 _atom_site_fract_z
 _atom_site_occupancy
  Zr  Zr0  1  0.29646407  0.50288434  0.70670014  1
  Zr  Zr1  1  0.10076606  0.49914257  0.30268733  1
  Zr  Zr2  1  0.90509833  0.50288477  0.10930439  1
  Zr  Zr3  1  0.90293057  0.89559954  0.10392684  1
  Zr  Zr4  1  0.31480003  0.89556682  0.50004732  1
  Zr  Zr5  1  0.69977444  0.30561063  0.49953041  1
  Zr  Zr6  1  0.49087625  0.10332954  0.49640956  1
  Zr  Zr7  1  0.10313545  0.29503448  0.49532229  1
  Zr  Zr8  1  0.70458303  0.49771808  0.49871382  1
  Zr  Zr9  1  0.69181040  0.89308759  0.90043923  1
  Zr  Zr10  1  0.90550549  0.29410584  0.10348958  1
  Zr  Zr11  1  0.08774447  0.49152141  0.69707892  1
  Zr  Zr12  1  0.29823108  0.89863303  0.30074857  1
  Zr  Zr13  1  0.29822020  0.90661905  0.89424498  1
  Zr  Zr14  1  0.89704989  0.90403958  0.31303427  1
  Zr  Zr15  1  0.69831711  0.69780923  0.29916642  1
  Zr  Zr16  1  0.50320941  0.10071662  0.69889649  1
  Zr  Zr17  1  0.49552098  0.89431388  0.70605431  1
  Zr  Zr18  1  0.69006179  0.89202416  0.09815369  1
  Zr  Zr19  1  0.30154284  0.30427996  0.28871454  1
  Zr  Zr20  1  0.70226754  0.50291447  0.30591236  1
  Zr  Zr21  1  0.89658931  0.49714159  0.69641665  1
  Zr  Zr22  1  0.10309907  0.10416848  0.31084554  1
  Zr  Zr23  1  0.49815673  0.30894830  0.10781913  1
  Zr  Zr24  1  0.69566040  0.69274785  0.49739097  1
  Zr  Zr25  1  0.89696264  0.10489664  0.10048100  1
  Zr  Zr26  1  0.89486439  0.10028914  0.89956436  1
  Zr  Zr27  1  0.30164781  0.89991968  0.11116854  1
  Zr  Zr28  1  0.09639719  0.30064913  0.89754643  1
  Zr  Zr29  1  0.49512490  0.71102800  0.51037831  1
  Zr  Zr30  1  0.50875631  0.50537839  0.89691361  1
  Zr  Zr31  1  0.70830668  0.89197289  0.49539773  1
  Zr  Zr32  1  0.69454296  0.69766534  0.90536117  1
  Zr  Zr33  1  0.70518774  0.30364858  0.09635550  1
  Zr  Zr34  1  0.29613378  0.70101418  0.69639332  1
  Zr  Zr35  1  0.89595437  0.70132884  0.10265311  1
  Zr  Zr36  1  0.29491192  0.50030426  0.09605527  1
  Zr  Zr37  1  0.69552974  0.49537786  0.90452769  1
  Zr  Zr38  1  0.90484732  0.49488546  0.89993680  1
  Zr  Zr39  1  0.09293337  0.09795994  0.10994962  1
  Zr  Zr40  1  0.10064317  0.70172781  0.10539768  1
  Zr  Zr41  1  0.30025799  0.09226474  0.30349131  1
  Zr  Zr42  1  0.69749833  0.70225668  0.69468258  1
  Zr  Zr43  1  0.90517491  0.09883726  0.29223328  1
  Zr  Zr44  1  0.29399246  0.68525840  0.89117110  1
  Zr  Zr45  1  0.89075580  0.08716564  0.70248289  1
  Zr  Zr46  1  0.50036958  0.10505938  0.30510970  1
  Zr  Zr47  1  0.91059744  0.08098702  0.49468288  1
  Zr  Zr48  1  0.28695954  0.29833801  0.90183590  1
  Zr  Zr49  1  0.70471149  0.30071901  0.30610463  1
  Sc  Sc50  1  0.11304135  0.09358809  0.69128728  1
  Sc  Sc51  1  0.89576522  0.29506664  0.91038235  1
  Sc  Sc52  1  0.50519123  0.09100719  0.89027426  1
  Sc  Sc53  1  0.10553900  0.29883867  0.10152162  1
  Sc  Sc54  1  0.90042883  0.69705409  0.29645800  1
  Sc  Sc55  1  0.10171206  0.89803300  0.10488459  1
  Sc  Sc56  1  0.09952588  0.70387411  0.69356536  1
  Sc  Sc57  1  0.90800936  0.30936046  0.69764031  1
  Sc  Sc58  1  0.09913051  0.70477306  0.89180043  1
  Sc  Sc59  1  0.29873573  0.09940623  0.69581240  1
  Sc  Sc60  1  0.88996951  0.70314260  0.90058712  1
  Sc  Sc61  1  0.90137567  0.49431699  0.50514327  1
  Sc  Sc62  1  0.89671538  0.88660982  0.88940563  1
  Sc  Sc63  1  0.29225674  0.10500808  0.10062222  1
  Sc  Sc64  1  0.30233986  0.69746666  0.10907844  1
  Sc  Sc65  1  0.69780367  0.50105050  0.68934766  1
  Sc  Sc66  1  0.48815758  0.90916031  0.29597960  1
  Sc  Sc67  1  0.50238538  0.09286632  0.10475593  1
  Sc  Sc68  1  0.50694213  0.69808659  0.10927512  1
  Sc  Sc69  1  0.89807132  0.30848486  0.49728676  1
  Sc  Sc70  1  0.50410270  0.30478404  0.68684766  1
  Sc  Sc71  1  0.69487850  0.50699758  0.09761591  1
  Sc  Sc72  1  0.71052156  0.89975386  0.69965060  1
  Sc  Sc73  1  0.29253011  0.50005080  0.50011243  1
  Sc  Sc74  1  0.90533661  0.71228798  0.49600262  1
  Sc  Sc75  1  0.11430512  0.10153649  0.90156831  1
  Sc  Sc76  1  0.70725238  0.10120013  0.30028343  1
  Sc  Sc77  1  0.69976722  0.90128932  0.29945100  1
  Sc  Sc78  1  0.69270083  0.10530066  0.48729382  1
  Sc  Sc79  1  0.69358054  0.29722752  0.70095763  1
  Sc  Sc80  1  0.29495003  0.09987252  0.89419292  1
  Sc  Sc81  1  0.10221386  0.90425990  0.29412140  1
  Sc  Sc82  1  0.89877294  0.89427088  0.68842964  1
  Sc  Sc83  1  0.30209366  0.70291820  0.29773300  1
  Sc  Sc84  1  0.10276091  0.49787596  0.10803917  1
  Sc  Sc85  1  0.50865395  0.49557865  0.50279946  1
  Sc  Sc86  1  0.49167075  0.30668326  0.30262700  1
  Sc  Sc87  1  0.10866918  0.29849996  0.69795136  1
  Sc  Sc88  1  0.70339008  0.10222765  0.88444451  1
  Sc  Sc89  1  0.90913016  0.50169025  0.30233896  1
  Sc  Sc90  1  0.50266601  0.50148412  0.10509032  1
  Sc  Sc91  1  0.30702131  0.30120799  0.50648595  1
  Sc  Sc92  1  0.50146050  0.50087675  0.29678249  1
  Sc  Sc93  1  0.29569488  0.90632405  0.69989450  1
  Sc  Sc94  1  0.09745827  0.50377375  0.49636088  1
  Sc  Sc95  1  0.90496021  0.29932081  0.30305592  1
  Sc  Sc96  1  0.11475463  0.50126905  0.90508092  1
  Sc  Sc97  1  0.89620874  0.70464440  0.70300831  1
  Sc  Sc98  1  0.30018111  0.50267837  0.29812645  1
  Sc  Sc99  1  0.70402797  0.09936029  0.10111452  1
  Nb  Nb100  1  0.49826529  0.90346325  0.09222041  1
  Nb  Nb101  1  0.30182598  0.50084585  0.90269324  1
  Nb  Nb102  1  0.09809240  0.30649156  0.30003373  1
  Nb  Nb103  1  0.50053427  0.90094933  0.50085107  1
  Nb  Nb104  1  0.07810556  0.89949219  0.50944013  1
  Nb  Nb105  1  0.50527922  0.30835830  0.89873885  1
  Nb  Nb106  1  0.50107162  0.50302722  0.70086587  1
  Nb  Nb107  1  0.10031368  0.90138603  0.89650181  1
  Nb  Nb108  1  0.69430431  0.30482980  0.90106689  1
  Nb  Nb109  1  0.30237030  0.30018593  0.70388425  1
  Nb  Nb110  1  0.49839255  0.69561123  0.30821171  1
  Nb  Nb111  1  0.90286727  0.89835081  0.49802386  1
  Nb  Nb112  1  0.10668195  0.70191806  0.49771737  1
  Nb  Nb113  1  0.49881183  0.70301564  0.88825877  1
  Nb  Nb114  1  0.09316305  0.89651543  0.70553841  1
  Nb  Nb115  1  0.50385836  0.29637589  0.49843806  1
  Nb  Nb116  1  0.10390962  0.69275463  0.30919961  1
  Nb  Nb117  1  0.10529548  0.09955264  0.50179116  1
  Nb  Nb118  1  0.30331170  0.30377300  0.09729470  1
  Nb  Nb119  1  0.49832120  0.89632126  0.90097253  1
  Nb  Nb120  1  0.70150097  0.09910284  0.69578276  1
  Nb  Nb121  1  0.70597196  0.70177421  0.10177634  1
  Nb  Nb122  1  0.29920558  0.70116858  0.50181364  1
  Nb  Nb123  1  0.49972280  0.69380683  0.70522572  1
  Nb  Nb124  1  0.28635411  0.09776191  0.50106255  1
  Nb  Nb125  1  0.40124387  0.21128433  0.80187022  1
  Nb  Nb126  1  0.59823145  -0.00153272  0.59641724  1
  Nb  Nb127  1  -0.00193782  -0.00457930  -0.00647267  1
  Nb  Nb128  1  0.80162057  0.40181630  0.20076186  1
  Nb  Nb129  1  0.59015619  0.79962588  0.40040705  1
  Nb  Nb130  1  0.00097364  0.19170824  0.79386749  1
  Nb  Nb131  1  -0.00112218  0.19115607  0.59902656  1
  Nb  Nb132  1  0.20679882  0.80142151  -0.00285489  1
  Nb  Nb133  1  0.59615651  0.20627247  -0.00245868  1
  Nb  Nb134  1  0.00123913  0.60323132  -0.00065564  1
  Nb  Nb135  1  0.60103142  0.20591290  0.19927429  1
  Nb  Nb136  1  -0.00323217  0.59575466  0.80242171  1
  Nb  Nb137  1  0.19475849  0.79717535  0.40857929  1
  Nb  Nb138  1  0.00438592  -0.00165468  0.80164260  1
  Nb  Nb139  1  0.39810465  0.40105855  -0.00657229  1
  Nb  Nb140  1  0.40272233  -0.00461121  -0.00094804  1
  Nb  Nb141  1  0.79389085  0.39907662  0.80509170  1
  Nb  Nb142  1  0.40082386  0.60753752  0.40865986  1
  Nb  Nb143  1  0.40070505  0.39964086  0.80146254  1
  Nb  Nb144  1  0.40124286  0.60258684  0.60266244  1
  Nb  Nb145  1  0.40299252  0.60245356  -0.00762317  1
  Nb  Nb146  1  0.80351382  0.19363816  0.60026883  1
  Nb  Nb147  1  0.40193904  0.79923057  -0.00581734  1
  Nb  Nb148  1  0.40541701  0.20372340  -0.00520181  1
  Nb  Nb149  1  0.80244237  -0.00699191  -0.00251206  1
  Pd  Pd150  1  0.19359671  -0.01483309  0.41230561  1
  Pd  Pd151  1  0.20202166  0.80050329  0.80102425  1
  Pd  Pd152  1  0.40953602  0.79774358  0.19708044  1
  Pd  Pd153  1  0.60003471  -0.00710507  0.40113768  1
  Pd  Pd154  1  0.59421446  0.20500260  0.80138175  1
  Pd  Pd155  1  0.39138613  0.79919622  0.79962704  1
  Pd  Pd156  1  0.80966517  0.60798195  0.59307048  1
  Pd  Pd157  1  -0.00474729  0.60917349  0.60126830  1
  Pd  Pd158  1  0.59253634  0.39871537  0.39733329  1
  Pd  Pd159  1  0.79913897  0.80379619  0.20663811  1
  Pd  Pd160  1  0.00987465  0.19072313  -0.00692041  1
  Pd  Pd161  1  0.19807195  0.20131023  0.20238548  1
  Pd  Pd162  1  0.81154489  0.19463755  0.40802385  1
  Pd  Pd163  1  0.20571078  0.39628700  0.39984708  1
  Pd  Pd164  1  0.01010295  0.40594875  0.00476964  1
  Pd  Pd165  1  -0.00457500  0.59962312  0.40721939  1
  Pd  Pd166  1  0.39427976  0.19872573  0.60305105  1
  Pd  Pd167  1  0.79909875  0.59394290  0.80006722  1
  Pd  Pd168  1  0.19657886  0.81115730  0.59536825  1
  Pd  Pd169  1  0.40382403  0.19298564  0.19305796  1
  Pd  Pd170  1  0.40227691  0.40797618  0.60262540  1
  Pd  Pd171  1  0.19886527  0.59490517  0.60131956  1
  Pd  Pd172  1  0.60649458  0.19515186  0.59456838  1
  Pd  Pd173  1  0.60175963  0.00544893  0.20419653  1
  Pd  Pd174  1  0.00696230  0.79796801  -0.00495992  1
  Pd  Pd175  1  0.80460687  0.59719371  0.00261106  1
  Pd  Pd176  1  0.00219841  0.79807541  0.21286366  1
  Pd  Pd177  1  0.21234091  0.20931576  0.39900130  1
  Pd  Pd178  1  0.80625520  0.21438149  0.79135472  1
  Pd  Pd179  1  -0.00532318  0.20162693  0.40554504  1
  Pd  Pd180  1  0.58987626  0.78907677  0.00217234  1
  Pd  Pd181  1  0.60349033  0.01065642  -0.00330934  1
  Pd  Pd182  1  0.61091242  0.59873188  0.79483767  1
  Pd  Pd183  1  0.78908909  0.00453359  0.58649602  1
  Pd  Pd184  1  0.19917973  0.40331406  0.79908446  1
  Pd  Pd185  1  0.60213639  0.80855455  0.60248002  1
  Pd  Pd186  1  0.20287071  0.60053027  0.20474212  1
  Pd  Pd187  1  0.79632633  -0.00689261  0.19424817  1
  Pd  Pd188  1  0.19748596  0.39934824  0.59703807  1
  Pd  Pd189  1  0.00738041  0.80038170  0.39140454  1
  Pd  Pd190  1  0.80401210  0.40460100  0.00333923  1
  Pd  Pd191  1  0.19929980  -0.00542406  0.00835437  1
  Pd  Pd192  1  0.40312303  0.00335930  0.60202489  1
  Pd  Pd193  1  0.60242225  0.59921026  0.20050416  1
  Pd  Pd194  1  0.58999905  0.80346777  0.21034905  1
  Pd  Pd195  1  0.19672307  -0.01391204  0.59243194  1
  Pd  Pd196  1  0.60565268  -0.00815416  0.79065883  1
  Pd  Pd197  1  0.40003680  0.41065276  0.40433174  1
  Pd  Pd198  1  0.38988268  0.20337321  0.40236902  1
  Pd  Pd199  1  0.81309352  0.60118300  0.40349841  1
  Rh  Rh200  1  0.19885874  0.39833365  0.20165665  1
  Rh  Rh201  1  0.19863044  0.61158042  0.00461936  1
  Rh  Rh202  1  -0.00122399  0.79758843  0.79663912  1
  Rh  Rh203  1  0.40178496  0.59818822  0.20343348  1
  Rh  Rh204  1  0.58925074  0.60507644  0.40753121  1
  Rh  Rh205  1  -0.00401753  0.39554987  0.80582083  1
  Rh  Rh206  1  0.39798036  0.00883939  0.80374427  1
  Rh  Rh207  1  0.19423840  -0.00081687  0.79291911  1
  Rh  Rh208  1  0.00781452  0.38898449  0.58924325  1
  Rh  Rh209  1  0.61238382  0.39747761  0.20623524  1
  Rh  Rh210  1  0.60283502  0.79973943  0.79434490  1
  Rh  Rh211  1  0.80750378  0.40815029  0.39177386  1
  Rh  Rh212  1  0.80053255  -0.01123615  0.80688401  1
  Rh  Rh213  1  0.20933623  0.60736992  0.39798944  1
  Rh  Rh214  1  0.19942106  0.00602239  0.20109133  1
  Rh  Rh215  1  -0.00156710  -0.00227215  0.20026026  1
  Rh  Rh216  1  0.20014399  0.19678303  0.79090056  1
  Rh  Rh217  1  0.00823976  0.20537360  0.20827109  1
  Rh  Rh218  1  0.00598746  0.60504699  0.19866354  1
  Rh  Rh219  1  0.79231028  0.79748079  0.79732804  1
  Rh  Rh220  1  0.19954147  0.39633723  0.00456054  1
  Rh  Rh221  1  0.59472317  0.39890489  0.00816056  1
  Rh  Rh222  1  0.01090763  -0.00461255  0.39387716  1
  Rh  Rh223  1  0.39815193  0.79819658  0.61291027  1
  Rh  Rh224  1  0.00507203  0.00293935  0.61045354  1
  Rh  Rh225  1  0.79732324  0.00348617  0.40116682  1
  Rh  Rh226  1  0.39916333  0.79689639  0.39366222  1
  Rh  Rh227  1  0.78442886  0.19005621  -0.00481446  1
  Rh  Rh228  1  0.39777636  0.00748025  0.19363147  1
  Rh  Rh229  1  0.79458519  0.79402161  0.39583071  1
  Rh  Rh230  1  0.39745324  0.00364921  0.40370400  1
  Rh  Rh231  1  0.79491717  0.20993845  0.20325092  1
  Rh  Rh232  1  0.19979270  0.20082324  0.00669701  1
  Rh  Rh233  1  0.20180135  0.20404957  0.59800971  1
  Rh  Rh234  1  0.59181397  0.59869487  0.59993964  1
  Rh  Rh235  1  -0.00174254  0.39372423  0.20268579  1
  Rh  Rh236  1  0.60111656  0.40051953  0.59862804  1
  Rh  Rh237  1  0.59403389  0.20890339  0.39158706  1
  Rh  Rh238  1  0.59327711  0.61001492  0.00306396  1
  Rh  Rh239  1  -0.00224275  0.79406078  0.60233446  1
  Rh  Rh240  1  0.80355093  0.79534593  0.59410918  1
  Rh  Rh241  1  0.18207805  0.59483349  0.78816878  1
  Rh  Rh242  1  0.79573988  0.59413680  0.20013900  1
  Rh  Rh243  1  0.00358440  0.40169341  0.40095174  1
  Rh  Rh244  1  0.79438828  0.80416188  0.00343601  1
  Rh  Rh245  1  0.40349641  0.59297664  0.79696506  1
  Rh  Rh246  1  0.60239179  0.40309400  0.78871499  1
  Rh  Rh247  1  0.79339258  0.38832475  0.61005410  1
  Rh  Rh248  1  0.19377716  0.79401026  0.20762483  1
  Rh  Rh249  1  0.39302185  0.41194619  0.19503734  1
