# generated using pymatgen
data_ZrScNbPdRh
_symmetry_space_group_name_H-M   'P 1'
_cell_length_a   16.55438066
_cell_length_b   16.55512604
_cell_length_c   16.55162911
_cell_angle_alpha   89.98528165
_cell_angle_beta   90.01654588
_cell_angle_gamma   89.95319491
_symmetry_Int_Tables_number   1
_chemical_formula_structural   ZrScNbPdRh
_chemical_formula_sum   'Zr50 Sc50 Nb50 Pd50 Rh50'
_cell_volume   4536.13527644
_cell_formula_units_Z   50
loop_
 _symmetry_equiv_pos_site_id
 _symmetry_equiv_pos_as_xyz
  1  'x, y, z'
loop_
 _atom_site_type_symbol
 _atom_site_label
 _atom_site_symmetry_multiplicity
 _atom_site_fract_x
 _atom_site_fract_y
 _atom_site_fract_z
 _atom_site_occupancy
  Zr  Zr0  1  0.10321156  0.91746002  0.29739001  1
  Zr  Zr1  1  0.89954067  0.30129248  0.10120443  1
  Zr  Zr2  1  0.69670116  0.69710222  0.49366982  1
  Zr  Zr3  1  0.90672437  0.70152087  0.49018208  1
  Zr  Zr4  1  0.90103286  0.30140027  0.69240647  1
  Zr  Zr5  1  0.89751429  0.29932256  0.30200629  1
  Zr  Zr6  1  0.49475840  0.29331666  0.51205619  1
  Zr  Zr7  1  0.70023882  0.50068783  0.90977988  1
  Zr  Zr8  1  0.10360029  0.90116042  0.69833352  1
  Zr  Zr9  1  0.09669833  0.90082601  0.49569141  1
  Zr  Zr10  1  0.49894193  0.89586663  0.09068732  1
  Zr  Zr11  1  0.49595671  0.70164135  0.69642051  1
  Zr  Zr12  1  0.09987366  0.30021838  0.30175151  1
  Zr  Zr13  1  0.50136290  0.49885874  0.69005387  1
  Zr  Zr14  1  0.69873010  0.90038357  0.09956215  1
  Zr  Zr15  1  0.88908372  0.10734818  0.09541937  1
  Zr  Zr16  1  0.50044021  0.49527258  0.30420683  1
  Zr  Zr17  1  0.90593218  0.49954751  0.29947180  1
  Zr  Zr18  1  0.69745967  0.90610731  0.49547844  1
  Zr  Zr19  1  0.90274905  0.10623457  0.30549979  1
  Zr  Zr20  1  0.10436627  0.10420765  0.89471137  1
  Zr  Zr21  1  0.30293887  0.11270256  0.50518986  1
  Zr  Zr22  1  0.30455601  0.10284236  0.89770739  1
  Zr  Zr23  1  0.90300007  0.69799351  0.70120914  1
  Zr  Zr24  1  0.89867296  0.90462961  0.49951845  1
  Zr  Zr25  1  0.69536702  0.70294946  0.29570084  1
  Zr  Zr26  1  0.69901549  0.09583331  0.50571107  1
  Zr  Zr27  1  0.29472804  0.09923498  0.28903022  1
  Zr  Zr28  1  0.90333562  0.69331899  0.90317505  1
  Zr  Zr29  1  0.90073203  0.49818737  0.90460134  1
  Zr  Zr30  1  0.70445596  0.30302746  0.30282863  1
  Zr  Zr31  1  0.89746693  0.89365859  0.30079402  1
  Zr  Zr32  1  0.50651683  0.10165590  0.50154455  1
  Zr  Zr33  1  0.89481253  0.69667948  0.30121670  1
  Zr  Zr34  1  0.69829517  0.50299311  0.30714981  1
  Zr  Zr35  1  0.30293389  0.69744061  0.30112610  1
  Zr  Zr36  1  0.70379582  0.49457962  0.69837660  1
  Zr  Zr37  1  0.30884384  0.69847837  0.10094187  1
  Zr  Zr38  1  0.30330203  0.90076381  0.70574775  1
  Zr  Zr39  1  0.10499108  0.89868172  0.90711442  1
  Zr  Zr40  1  0.10521588  0.49598934  0.30188570  1
  Zr  Zr41  1  0.90413428  0.49682103  0.70658543  1
  Zr  Zr42  1  0.68689855  0.49866321  0.50028772  1
  Zr  Zr43  1  0.69147295  0.69724599  0.09260036  1
  Zr  Zr44  1  0.69715862  0.90830131  0.89699047  1
  Zr  Zr45  1  0.30613849  0.90740080  0.89900930  1
  Zr  Zr46  1  0.29697176  0.30808617  0.29386890  1
  Zr  Zr47  1  0.30100142  0.49808488  0.69256513  1
  Zr  Zr48  1  0.90196996  0.10373719  0.50732238  1
  Zr  Zr49  1  0.09891857  0.90255531  0.10167578  1
  Sc  Sc50  1  0.89709344  0.49652086  0.49888455  1
  Sc  Sc51  1  0.08816295  0.49469590  0.89601759  1
  Sc  Sc52  1  0.09978879  0.29989538  0.50597572  1
  Sc  Sc53  1  0.49464689  0.69948674  0.29787505  1
  Sc  Sc54  1  0.29778095  0.69027380  0.49667971  1
  Sc  Sc55  1  0.30473262  0.49159456  0.10518526  1
  Sc  Sc56  1  0.29527079  0.90255410  0.49699845  1
  Sc  Sc57  1  0.50487701  0.11225227  0.70350084  1
  Sc  Sc58  1  0.10014119  0.30077705  0.70170097  1
  Sc  Sc59  1  0.29718848  0.29446937  0.69050614  1
  Sc  Sc60  1  0.10368366  0.30268556  0.90237063  1
  Sc  Sc61  1  0.49924651  0.89286183  0.29997386  1
  Sc  Sc62  1  0.70587694  0.29757270  0.10055781  1
  Sc  Sc63  1  0.09032782  0.68671980  0.30283859  1
  Sc  Sc64  1  0.29512534  0.50445874  0.30201113  1
  Sc  Sc65  1  0.49898182  0.70037111  0.49736665  1
  Sc  Sc66  1  0.69874156  0.29867876  0.70182140  1
  Sc  Sc67  1  0.31055156  0.69959064  0.90404787  1
  Sc  Sc68  1  0.11233304  0.50182770  0.49950765  1
  Sc  Sc69  1  0.09932457  0.69243650  0.69041079  1
  Sc  Sc70  1  0.49998031  0.69826590  0.10209367  1
  Sc  Sc71  1  0.09130988  0.70111562  0.09597584  1
  Sc  Sc72  1  0.30063571  0.30029104  0.09841671  1
  Sc  Sc73  1  0.69411534  0.49854101  0.09312600  1
  Sc  Sc74  1  0.49016417  0.30237586  0.10049591  1
  Sc  Sc75  1  0.09969552  0.69677795  0.49932579  1
  Sc  Sc76  1  0.90143090  0.29363261  0.49941773  1
  Sc  Sc77  1  0.30364474  0.69867293  0.69285708  1
  Sc  Sc78  1  0.49957998  0.49934299  0.09531666  1
  Sc  Sc79  1  0.90154762  0.69750408  0.10149758  1
  Sc  Sc80  1  0.90933771  0.30074449  0.90827529  1
  Sc  Sc81  1  0.30354752  0.90437348  0.29705541  1
  Sc  Sc82  1  0.70002203  0.10877117  0.30232114  1
  Sc  Sc83  1  0.09976973  0.49441775  0.70018131  1
  Sc  Sc84  1  0.09610380  0.49985946  0.10404903  1
  Sc  Sc85  1  0.30977147  0.49586579  0.90464323  1
  Sc  Sc86  1  0.69226229  0.30783138  0.90021828  1
  Sc  Sc87  1  0.49953644  0.29013548  0.29965191  1
  Sc  Sc88  1  0.50782190  0.89803438  0.50070112  1
  Sc  Sc89  1  0.69782866  0.09774804  0.69908359  1
  Sc  Sc90  1  0.89965790  0.49946684  0.09363958  1
  Sc  Sc91  1  0.69378595  0.70314044  0.69667611  1
  Sc  Sc92  1  0.69943343  0.90882913  0.69714944  1
  Sc  Sc93  1  0.30319183  0.29569935  0.90928079  1
  Sc  Sc94  1  0.30384368  0.90442668  0.09322257  1
  Sc  Sc95  1  0.49666729  0.69756956  0.91373392  1
  Sc  Sc96  1  0.89737708  0.91158894  0.70309073  1
  Sc  Sc97  1  0.10971326  0.30015438  0.09449573  1
  Sc  Sc98  1  0.70182256  0.29947718  0.50109313  1
  Sc  Sc99  1  0.89625343  0.89701928  0.10957741  1
  Nb  Nb100  1  0.10103204  0.09983327  0.49284465  1
  Nb  Nb101  1  0.29686759  0.30280652  0.50214136  1
  Nb  Nb102  1  0.10796934  0.09885885  0.10924719  1
  Nb  Nb103  1  0.69785008  0.70103894  0.89815274  1
  Nb  Nb104  1  0.30099759  0.10850142  0.09861489  1
  Nb  Nb105  1  0.70097619  0.89794489  0.29435235  1
  Nb  Nb106  1  0.90641277  0.10267263  0.70625158  1
  Nb  Nb107  1  0.30147312  0.49192283  0.50109240  1
  Nb  Nb108  1  0.49989541  0.29313008  0.89666057  1
  Nb  Nb109  1  0.70191890  0.09716480  0.90245502  1
  Nb  Nb110  1  0.10499630  0.10093966  0.29860161  1
  Nb  Nb111  1  0.09924115  0.69770635  0.90104269  1
  Nb  Nb112  1  0.50435472  0.49113160  0.90466576  1
  Nb  Nb113  1  0.49599286  0.10117946  0.29561558  1
  Nb  Nb114  1  0.29186766  0.09945375  0.70233320  1
  Nb  Nb115  1  0.89998881  0.09566687  0.89736805  1
  Nb  Nb116  1  0.50253402  0.11027345  0.89919481  1
  Nb  Nb117  1  0.49570946  0.10447185  0.10786618  1
  Nb  Nb118  1  0.49546286  0.89870480  0.70086044  1
  Nb  Nb119  1  0.10263233  0.10485807  0.69809788  1
  Nb  Nb120  1  0.49854859  0.90418737  0.89451973  1
  Nb  Nb121  1  0.50153131  0.29509896  0.71053104  1
  Nb  Nb122  1  0.69721992  0.09876025  0.09557239  1
  Nb  Nb123  1  0.49605638  0.49317387  0.49955732  1
  Nb  Nb124  1  0.89732419  0.90238359  0.89500336  1
  Nb  Nb125  1  0.19869676  0.19822264  0.39914511  1
  Nb  Nb126  1  0.00317602  0.80051043  0.80468118  1
  Nb  Nb127  1  0.19706754  0.79329142  0.80527186  1
  Nb  Nb128  1  0.79862533  0.60263710  0.60056790  1
  Nb  Nb129  1  0.60086982  0.39900544  0.20421239  1
  Nb  Nb130  1  0.20055575  0.60190449  0.80615889  1
  Nb  Nb131  1  0.19988989  0.00900602  0.60214927  1
  Nb  Nb132  1  0.59858994  0.60074036  0.80376960  1
  Nb  Nb133  1  0.79479705  0.59984645  0.20166519  1
  Nb  Nb134  1  0.00639136  0.19543327  0.19979196  1
  Nb  Nb135  1  0.40882975  0.39389842  0.79792614  1
  Nb  Nb136  1  0.80134617  0.79789577  0.59622314  1
  Nb  Nb137  1  0.19973489  0.79859988  0.20261538  1
  Nb  Nb138  1  0.19844281  0.60120902  -0.00593389  1
  Nb  Nb139  1  -0.00417088  0.00496529  -0.00264789  1
  Nb  Nb140  1  0.19633019  0.80052539  0.39032471  1
  Nb  Nb141  1  0.39782754  0.39806402  0.40907654  1
  Nb  Nb142  1  0.39846766  0.00399103  0.60353321  1
  Nb  Nb143  1  0.79736561  0.80038504  -0.00971281  1
  Nb  Nb144  1  0.59821379  0.00656279  0.19730716  1
  Nb  Nb145  1  0.40348411  0.01011010  0.40135069  1
  Nb  Nb146  1  0.79410730  0.60118872  0.80063544  1
  Nb  Nb147  1  0.59648236  0.19171273  0.00028363  1
  Nb  Nb148  1  0.59254936  0.80235494  0.80356196  1
  Nb  Nb149  1  0.80594207  0.19280516  0.80562953  1
  Pd  Pd150  1  0.79362561  0.80216665  0.40277174  1
  Pd  Pd151  1  0.00465625  0.00688385  0.60233383  1
  Pd  Pd152  1  0.40079610  0.79382130  0.80659691  1
  Pd  Pd153  1  0.79251887  0.41073960  0.19422321  1
  Pd  Pd154  1  0.40716872  0.01043061  -0.00043142  1
  Pd  Pd155  1  0.79101494  0.20734080  -0.01150144  1
  Pd  Pd156  1  0.39448400  0.80791615  0.40476586  1
  Pd  Pd157  1  0.19976074  0.41082619  -0.00142625  1
  Pd  Pd158  1  0.79322495  0.00736281  0.20684224  1
  Pd  Pd159  1  0.59666490  0.40572655  0.79903378  1
  Pd  Pd160  1  0.19620520  0.60568023  0.18963795  1
  Pd  Pd161  1  0.79772722  0.79746126  0.79634631  1
  Pd  Pd162  1  0.60561956  0.80515525  0.60368711  1
  Pd  Pd163  1  0.00742335  -0.00416518  0.80452630  1
  Pd  Pd164  1  0.59083836  0.00636796  0.00324193  1
  Pd  Pd165  1  -0.00226247  0.20757096  0.80025701  1
  Pd  Pd166  1  0.59456738  -0.00195702  0.38569993  1
  Pd  Pd167  1  0.60238437  0.20360841  0.40266241  1
  Pd  Pd168  1  0.21158490  0.40299481  0.80240881  1
  Pd  Pd169  1  0.00915159  0.19346426  0.00673987  1
  Pd  Pd170  1  0.19879940  0.00852171  0.00365410  1
  Pd  Pd171  1  0.58792961  0.60575539  0.39891999  1
  Pd  Pd172  1  0.00486495  0.39275830  0.19455325  1
  Pd  Pd173  1  -0.00469767  0.00185971  0.39840953  1
  Pd  Pd174  1  0.00774493  0.79630736  0.20758699  1
  Pd  Pd175  1  0.80725685  -0.00808783  0.00140662  1
  Pd  Pd176  1  0.20410827  0.80027648  0.59530243  1
  Pd  Pd177  1  0.00350713  0.40072760  0.40941769  1
  Pd  Pd178  1  0.40452854  0.59244438  0.19954977  1
  Pd  Pd179  1  0.60330668  0.20358949  0.19284024  1
  Pd  Pd180  1  0.60108287  0.38978196  0.60079226  1
  Pd  Pd181  1  0.80126902  0.40123693  0.40768532  1
  Pd  Pd182  1  0.79876047  0.00532055  0.39353685  1
  Pd  Pd183  1  0.59360044  0.00212428  0.79418329  1
  Pd  Pd184  1  0.79639303  0.19771250  0.60820770  1
  Pd  Pd185  1  0.59461508  0.80462280  0.19991454  1
  Pd  Pd186  1  -0.01209690  0.80852685  -0.00254849  1
  Pd  Pd187  1  0.20484146  0.21174853  0.80194418  1
  Pd  Pd188  1  0.00381383  0.40255339  0.59449615  1
  Pd  Pd189  1  0.80521601  0.39224483  0.80817040  1
  Pd  Pd190  1  -0.00658017  0.80380102  0.60591397  1
  Pd  Pd191  1  0.20880937  0.79171445  0.00271277  1
  Pd  Pd192  1  0.40099023  0.60175580  0.58998086  1
  Pd  Pd193  1  0.40456200  -0.00559645  0.20157794  1
  Pd  Pd194  1  0.40244412  0.59059359  0.80436245  1
  Pd  Pd195  1  -0.00318057  0.59047930  0.59369128  1
  Pd  Pd196  1  -0.00988443  0.00965067  0.19242702  1
  Pd  Pd197  1  0.39266440  0.20241359  0.39209822  1
  Pd  Pd198  1  0.40959274  0.01295992  0.79316378  1
  Pd  Pd199  1  0.39497386  0.80660731  0.58821731  1
  Rh  Rh200  1  0.00840580  0.59318161  0.00380571  1
  Rh  Rh201  1  0.00784341  0.20012646  0.39779760  1
  Rh  Rh202  1  0.39963218  0.39214309  0.60354833  1
  Rh  Rh203  1  0.19871465  0.40208243  0.19542706  1
  Rh  Rh204  1  0.00935045  0.80536407  0.39140090  1
  Rh  Rh205  1  0.59968215  0.60120455  0.60007330  1
  Rh  Rh206  1  -0.00235352  0.39037941  0.79943281  1
  Rh  Rh207  1  0.58836189  0.38709759  0.39712641  1
  Rh  Rh208  1  0.19099411  0.19792550  0.59515178  1
  Rh  Rh209  1  0.20277388  0.59606875  0.60469195  1
  Rh  Rh210  1  0.58881830  -0.00211818  0.60794428  1
  Rh  Rh211  1  0.19614591  -0.00383991  0.79697904  1
  Rh  Rh212  1  0.60570015  0.20385017  0.60328124  1
  Rh  Rh213  1  0.79901181  0.01003245  0.79591546  1
  Rh  Rh214  1  0.39141673  0.20342535  0.79679110  1
  Rh  Rh215  1  0.20175537  0.60304347  0.40114627  1
  Rh  Rh216  1  0.79498388  0.78940999  0.19085751  1
  Rh  Rh217  1  0.61409073  0.19695324  0.80897151  1
  Rh  Rh218  1  0.40151353  0.19738232  0.61258694  1
  Rh  Rh219  1  0.39258926  0.20371335  0.19804132  1
  Rh  Rh220  1  0.00394005  0.60349001  0.79840293  1
  Rh  Rh221  1  0.59525838  0.38624725  0.01069697  1
  Rh  Rh222  1  0.59294859  0.59806089  -0.00506197  1
  Rh  Rh223  1  0.39570895  0.80312596  0.19577265  1
  Rh  Rh224  1  0.60125082  0.80076103  0.39499689  1
  Rh  Rh225  1  0.80194721  0.19740753  0.20235999  1
  Rh  Rh226  1  0.20133585  0.19453959  0.00006200  1
  Rh  Rh227  1  0.00163084  0.58978762  0.40489908  1
  Rh  Rh228  1  0.39748349  0.59230224  0.00470531  1
  Rh  Rh229  1  0.80398470  0.00028003  0.60439145  1
  Rh  Rh230  1  0.40037037  0.80322033  -0.00277628  1
  Rh  Rh231  1  0.60210493  0.80367517  -0.01009552  1
  Rh  Rh232  1  0.40458751  0.19731179  0.00391676  1
  Rh  Rh233  1  0.79910108  0.40360934  0.59461922  1
  Rh  Rh234  1  0.40665147  0.39954900  0.20985099  1
  Rh  Rh235  1  0.60248223  0.59042001  0.19994596  1
  Rh  Rh236  1  0.79948606  0.60779763  0.00298235  1
  Rh  Rh237  1  -0.00889154  0.59763479  0.19757271  1
  Rh  Rh238  1  0.00427955  0.39943556  0.00456365  1
  Rh  Rh239  1  0.40448074  0.39579312  -0.00739875  1
  Rh  Rh240  1  0.80074781  0.39421449  0.00045626  1
  Rh  Rh241  1  0.79694009  0.19776204  0.40773708  1
  Rh  Rh242  1  0.21063158  -0.00629464  0.18893497  1
  Rh  Rh243  1  0.19801493  0.20615202  0.19992637  1
  Rh  Rh244  1  0.80190863  0.59607309  0.40056484  1
  Rh  Rh245  1  0.19682989  0.39869356  0.60148040  1
  Rh  Rh246  1  0.40098178  0.58957546  0.40345051  1
  Rh  Rh247  1  0.20947412  0.00603717  0.40799636  1
  Rh  Rh248  1  0.00488107  0.19752131  0.60141188  1
  Rh  Rh249  1  0.20487639  0.39415255  0.40349934  1
