# generated using pymatgen
data_ZrScNbPdRh
_symmetry_space_group_name_H-M   'P 1'
_cell_length_a   16.55694024
_cell_length_b   16.55738358
_cell_length_c   16.55417210
_cell_angle_alpha   89.98330804
_cell_angle_beta   89.97191570
_cell_angle_gamma   90.02981026
_symmetry_Int_Tables_number   1
_chemical_formula_structural   ZrScNbPdRh
_chemical_formula_sum   'Zr50 Sc50 Nb50 Pd50 Rh50'
_cell_volume   4538.15293822
_cell_formula_units_Z   50
loop_
 _symmetry_equiv_pos_site_id
 _symmetry_equiv_pos_as_xyz
  1  'x, y, z'
loop_
 _atom_site_type_symbol
 _atom_site_label
 _atom_site_symmetry_multiplicity
 _atom_site_fract_x
 _atom_site_fract_y
 _atom_site_fract_z
 _atom_site_occupancy
  Zr  Zr0  1  0.89652346  0.89591935  0.30512154  1
  Zr  Zr1  1  0.09618066  0.09682345  0.30099234  1
  Zr  Zr2  1  0.10941815  0.90075247  0.10321061  1
  Zr  Zr3  1  0.29743457  0.69972661  0.90221548  1
  Zr  Zr4  1  0.90887365  0.69919792  0.09650713  1
  Zr  Zr5  1  0.70636986  0.49972918  0.50184694  1
  Zr  Zr6  1  0.89781605  0.10077005  0.30114271  1
  Zr  Zr7  1  0.29448462  0.69981305  0.10370450  1
  Zr  Zr8  1  0.70671512  0.89414208  0.70263055  1
  Zr  Zr9  1  0.29832507  0.50610971  0.29532838  1
  Zr  Zr10  1  0.10143745  0.50158289  0.30323106  1
  Zr  Zr11  1  0.50064134  0.29749562  0.91260146  1
  Zr  Zr12  1  0.30073192  0.29718377  0.89932231  1
  Zr  Zr13  1  0.09987295  0.70529493  0.09407313  1
  Zr  Zr14  1  0.70438061  0.49173650  0.89891072  1
  Zr  Zr15  1  0.71335057  0.09863916  0.50143316  1
  Zr  Zr16  1  0.89734662  0.50414580  0.09516394  1
  Zr  Zr17  1  0.89639112  0.91576167  0.50441129  1
  Zr  Zr18  1  0.30893495  0.29391247  0.10042005  1
  Zr  Zr19  1  0.70741198  0.90777202  0.89347361  1
  Zr  Zr20  1  0.89611722  0.30436622  0.89467925  1
  Zr  Zr21  1  0.50620126  0.10710518  0.89011902  1
  Zr  Zr22  1  0.89682297  0.50127119  0.29627105  1
  Zr  Zr23  1  0.10428934  0.90600184  0.31400690  1
  Zr  Zr24  1  0.50658550  0.89589653  0.89908615  1
  Zr  Zr25  1  0.30214300  0.09973752  0.29963647  1
  Zr  Zr26  1  0.69323883  0.29402678  0.89941241  1
  Zr  Zr27  1  0.30238940  0.29751532  0.49691191  1
  Zr  Zr28  1  0.70029235  0.09552668  0.30299226  1
  Zr  Zr29  1  0.90013579  0.50349385  0.89608764  1
  Zr  Zr30  1  0.69796356  0.89695980  0.30299625  1
  Zr  Zr31  1  0.09514652  0.49505864  0.69739631  1
  Zr  Zr32  1  0.29655909  0.70412453  0.69822207  1
  Zr  Zr33  1  0.51846547  0.70344436  0.69743325  1
  Zr  Zr34  1  0.50742725  0.49757121  0.69685516  1
  Zr  Zr35  1  0.69383586  0.69630632  0.50418018  1
  Zr  Zr36  1  0.49719858  0.30907304  0.30237803  1
  Zr  Zr37  1  0.29794674  0.90838973  0.70318925  1
  Zr  Zr38  1  0.29639706  0.89888988  0.29986050  1
  Zr  Zr39  1  0.69365277  0.30600825  0.09666543  1
  Zr  Zr40  1  0.89557848  0.30197225  0.10089112  1
  Zr  Zr41  1  0.90420113  0.10071149  0.10488256  1
  Zr  Zr42  1  0.89989243  0.50710159  0.69846344  1
  Zr  Zr43  1  0.50210563  0.90128486  0.70256440  1
  Zr  Zr44  1  0.50860654  0.49742920  0.49587211  1
  Zr  Zr45  1  0.09364164  0.49828457  0.50818209  1
  Zr  Zr46  1  0.09504831  0.29676408  0.69392841  1
  Zr  Zr47  1  0.69876920  0.09926529  0.71307987  1
  Zr  Zr48  1  0.50663698  0.49996587  0.90358281  1
  Zr  Zr49  1  0.89555225  0.70036161  0.30174632  1
  Sc  Sc50  1  0.90462555  0.89890292  0.89079056  1
  Sc  Sc51  1  0.69868357  0.49913851  0.09581894  1
  Sc  Sc52  1  0.70521606  0.70024610  0.30068106  1
  Sc  Sc53  1  0.49031950  0.09598195  0.30437374  1
  Sc  Sc54  1  0.10150276  0.51145702  0.10109542  1
  Sc  Sc55  1  0.09553931  0.29612221  0.88951656  1
  Sc  Sc56  1  0.29588303  0.50266170  0.10649599  1
  Sc  Sc57  1  0.90629235  0.70033430  0.89588479  1
  Sc  Sc58  1  0.49337132  0.30705316  0.49768636  1
  Sc  Sc59  1  0.50581671  0.70790340  0.90433736  1
  Sc  Sc60  1  0.10136563  0.69478807  0.69790333  1
  Sc  Sc61  1  0.49465993  0.09823850  0.49692766  1
  Sc  Sc62  1  0.89940435  0.10444198  0.69367900  1
  Sc  Sc63  1  0.69438963  0.69911140  0.09724182  1
  Sc  Sc64  1  0.09305358  0.08759117  0.50569521  1
  Sc  Sc65  1  0.10340779  0.50358250  0.89009049  1
  Sc  Sc66  1  0.11169011  0.69058875  0.50797494  1
  Sc  Sc67  1  0.70879029  0.30434502  0.70295064  1
  Sc  Sc68  1  0.90255937  0.09392006  0.89620537  1
  Sc  Sc69  1  0.30727825  0.30292732  0.29751586  1
  Sc  Sc70  1  0.29697379  0.08747355  0.09197606  1
  Sc  Sc71  1  0.49559530  0.89374335  0.09254181  1
  Sc  Sc72  1  0.89892364  0.30511033  0.29248438  1
  Sc  Sc73  1  0.29537020  0.29153272  0.69810692  1
  Sc  Sc74  1  0.70328614  0.90370980  0.49332242  1
  Sc  Sc75  1  0.88602426  0.69365297  0.50538669  1
  Sc  Sc76  1  0.90360345  0.29781010  0.70043077  1
  Sc  Sc77  1  0.29112788  0.90144884  0.49842735  1
  Sc  Sc78  1  0.50447527  0.69815094  0.09786547  1
  Sc  Sc79  1  0.48837030  0.09827698  0.70334942  1
  Sc  Sc80  1  0.70128680  0.31062129  0.29630015  1
  Sc  Sc81  1  0.11069321  0.70248387  0.30050531  1
  Sc  Sc82  1  0.08979961  0.30315788  0.29201895  1
  Sc  Sc83  1  0.48621502  0.10323539  0.10132881  1
  Sc  Sc84  1  0.10194560  0.69937288  0.90509882  1
  Sc  Sc85  1  0.69562296  0.49780420  0.30263918  1
  Sc  Sc86  1  0.09411550  0.28960627  0.09462369  1
  Sc  Sc87  1  0.30469464  0.10105205  0.50694091  1
  Sc  Sc88  1  0.10118182  0.10027422  0.90290176  1
  Sc  Sc89  1  0.29612510  0.50113245  0.49892210  1
  Sc  Sc90  1  0.91011075  0.89794440  0.10112797  1
  Sc  Sc91  1  0.71322280  0.30576232  0.50215995  1
  Sc  Sc92  1  0.49782600  0.29850034  0.70048235  1
  Sc  Sc93  1  0.69675731  0.69751793  0.89729367  1
  Sc  Sc94  1  0.70230150  0.89614663  0.09940216  1
  Sc  Sc95  1  0.49466633  0.90801714  0.49724597  1
  Sc  Sc96  1  0.09601570  0.90130745  0.89447015  1
  Sc  Sc97  1  0.28932802  0.49519055  0.70210036  1
  Sc  Sc98  1  0.50439479  0.50060210  0.10657453  1
  Sc  Sc99  1  0.30594249  0.89934765  0.90165643  1
  Nb  Nb100  1  0.30117354  0.69882162  0.30471266  1
  Nb  Nb101  1  0.50023221  0.69794679  0.50160974  1
  Nb  Nb102  1  0.49850875  0.90231002  0.29974677  1
  Nb  Nb103  1  0.29937652  0.49814885  0.90056344  1
  Nb  Nb104  1  0.30427185  0.69666284  0.49898887  1
  Nb  Nb105  1  0.30162865  0.09806104  0.88206166  1
  Nb  Nb106  1  0.09532897  0.30044199  0.50249008  1
  Nb  Nb107  1  0.09703185  0.10050025  0.10207503  1
  Nb  Nb108  1  0.71046313  0.69654331  0.69685322  1
  Nb  Nb109  1  0.10792801  0.09566003  0.70591379  1
  Nb  Nb110  1  0.70087043  0.09904659  0.10214610  1
  Nb  Nb111  1  0.09932751  0.90531963  0.69182047  1
  Nb  Nb112  1  0.90470912  0.29629357  0.51236314  1
  Nb  Nb113  1  0.49585200  0.69884342  0.29681612  1
  Nb  Nb114  1  0.90162394  0.49621584  0.50150201  1
  Nb  Nb115  1  0.49688940  0.50211959  0.30341437  1
  Nb  Nb116  1  0.88999199  0.70618563  0.70003200  1
  Nb  Nb117  1  0.89833141  0.89246847  0.70405465  1
  Nb  Nb118  1  0.09223424  0.90083539  0.50321132  1
  Nb  Nb119  1  0.30012593  0.09644499  0.70936964  1
  Nb  Nb120  1  0.30641317  0.89539415  0.10152080  1
  Nb  Nb121  1  0.89618462  0.11032326  0.50092789  1
  Nb  Nb122  1  0.50170427  0.29562852  0.10283431  1
  Nb  Nb123  1  0.69775323  0.10027342  0.90250851  1
  Nb  Nb124  1  0.70177544  0.50510401  0.70157476  1
  Nb  Nb125  1  -0.00275229  0.20385552  0.40918376  1
  Nb  Nb126  1  0.58770334  0.79622354  0.39686778  1
  Nb  Nb127  1  0.39738569  0.79809828  0.20807273  1
  Nb  Nb128  1  0.00014377  0.79794649  0.41263111  1
  Nb  Nb129  1  0.59693032  0.19750411  0.20194850  1
  Nb  Nb130  1  0.19929818  0.39815782  -0.00261393  1
  Nb  Nb131  1  0.00161574  0.40269900  -0.00389527  1
  Nb  Nb132  1  0.79349989  0.19305272  0.00036923  1
  Nb  Nb133  1  0.19769006  0.19387443  0.19949113  1
  Nb  Nb134  1  -0.00412427  0.60073542  0.40480220  1
  Nb  Nb135  1  0.39603681  0.59801126  -0.00560341  1
  Nb  Nb136  1  0.60252408  0.20100518  0.40062964  1
  Nb  Nb137  1  0.19119281  0.20357526  0.39977516  1
  Nb  Nb138  1  0.60436144  0.00883520  0.00217815  1
  Nb  Nb139  1  0.40150547  0.59771019  0.79951710  1
  Nb  Nb140  1  0.60367666  0.19513159  0.59565753  1
  Nb  Nb141  1  0.19341548  0.39330446  0.40164209  1
  Nb  Nb142  1  0.59671933  0.00209230  0.19697048  1
  Nb  Nb143  1  0.39842430  0.40462832  0.80629731  1
  Nb  Nb144  1  0.39984414  0.79467671  0.59561772  1
  Nb  Nb145  1  0.80479365  0.80005803  -0.00359466  1
  Nb  Nb146  1  0.60321982  0.00552697  0.60188782  1
  Nb  Nb147  1  0.40392840  0.60674387  0.39997592  1
  Nb  Nb148  1  -0.00246433  0.80499398  0.60226523  1
  Nb  Nb149  1  0.40357758  0.60457907  0.59990414  1
  Pd  Pd150  1  0.60401481  0.59772319  0.20400853  1
  Pd  Pd151  1  0.19256287  0.80589686  0.79995121  1
  Pd  Pd152  1  0.20140596  0.81029051  -0.00594750  1
  Pd  Pd153  1  0.19882108  0.80244029  0.59666009  1
  Pd  Pd154  1  0.59636764  0.39272924  0.79782537  1
  Pd  Pd155  1  0.19952812  -0.00355939  -0.00831419  1
  Pd  Pd156  1  0.19508651  0.18905787  0.59440221  1
  Pd  Pd157  1  0.20151739  0.60014972  0.79643251  1
  Pd  Pd158  1  0.39296322  0.40680184  0.60763805  1
  Pd  Pd159  1  0.00169051  0.60784219  0.79625148  1
  Pd  Pd160  1  0.80135963  0.21335329  0.39525241  1
  Pd  Pd161  1  0.40235508  0.79441125  0.79446121  1
  Pd  Pd162  1  0.80495059  0.19640330  0.80447625  1
  Pd  Pd163  1  0.20377424  0.00623832  0.59681796  1
  Pd  Pd164  1  0.80767165  0.39723646  0.39986228  1
  Pd  Pd165  1  0.00401850  -0.00339151  -0.00003978  1
  Pd  Pd166  1  0.79727489  0.61006891  -0.00432049  1
  Pd  Pd167  1  -0.00969606  0.20274295  -0.00661109  1
  Pd  Pd168  1  0.80114433  0.79706342  0.18910930  1
  Pd  Pd169  1  -0.00682124  0.00251424  0.60995326  1
  Pd  Pd170  1  0.00124287  -0.00739669  0.20279414  1
  Pd  Pd171  1  0.00489790  0.40438412  0.18673540  1
  Pd  Pd172  1  0.19366562  0.79661751  0.41018103  1
  Pd  Pd173  1  -0.00078468  0.00508876  0.79175281  1
  Pd  Pd174  1  0.79193569  0.20522081  0.19806938  1
  Pd  Pd175  1  0.20303390  0.00414502  0.19843667  1
  Pd  Pd176  1  0.39690034  0.40818926  0.00556810  1
  Pd  Pd177  1  0.40240401  0.80002120  0.40196173  1
  Pd  Pd178  1  0.40684175  0.00377781  -0.00843654  1
  Pd  Pd179  1  0.80208930  -0.00236223  0.00274044  1
  Pd  Pd180  1  0.00585781  0.60634553  0.20862580  1
  Pd  Pd181  1  0.80184090  0.80552470  0.59129850  1
  Pd  Pd182  1  0.59984548  0.60504859  0.39249368  1
  Pd  Pd183  1  0.20375486  0.39752915  0.59561770  1
  Pd  Pd184  1  0.60221093  0.60163232  0.80262840  1
  Pd  Pd185  1  0.00844523  0.79424026  0.79145718  1
  Pd  Pd186  1  0.40335679  0.40580044  0.19505335  1
  Pd  Pd187  1  0.40627512  0.19799671  0.60112397  1
  Pd  Pd188  1  0.79030649  0.59955793  0.19621227  1
  Pd  Pd189  1  0.59263227  0.80454839  0.20188297  1
  Pd  Pd190  1  0.79729611  -0.00881933  0.19715060  1
  Pd  Pd191  1  0.59769515  0.81445177  0.58843884  1
  Pd  Pd192  1  0.19412476  0.38813296  0.19488200  1
  Pd  Pd193  1  0.60799183  0.38927843  0.59821995  1
  Pd  Pd194  1  0.39333528  0.18730312  -0.00464267  1
  Pd  Pd195  1  0.20279702  0.19947617  0.00301818  1
  Pd  Pd196  1  0.19541918  0.20057439  0.79874712  1
  Pd  Pd197  1  0.00889238  0.80251307  0.21213800  1
  Pd  Pd198  1  0.39210457  -0.00076174  0.40458409  1
  Pd  Pd199  1  -0.00229048  0.39909004  0.40126853  1
  Rh  Rh200  1  0.00350419  0.19139456  0.79451689  1
  Rh  Rh201  1  0.19668437  -0.00373255  0.80382793  1
  Rh  Rh202  1  -0.00807243  0.39907438  0.60643664  1
  Rh  Rh203  1  0.60359164  0.59501388  0.60147490  1
  Rh  Rh204  1  0.79439425  0.20354623  0.60527896  1
  Rh  Rh205  1  0.20315223  0.00851588  0.40949004  1
  Rh  Rh206  1  0.20347683  0.59221239  0.00125913  1
  Rh  Rh207  1  0.00558833  0.59281590  -0.00810651  1
  Rh  Rh208  1  0.79710927  0.60243984  0.80079560  1
  Rh  Rh209  1  0.59683440  -0.00117582  0.79940890  1
  Rh  Rh210  1  0.00372165  0.19757692  0.20524413  1
  Rh  Rh211  1  0.79682979  0.40973392  0.19698988  1
  Rh  Rh212  1  0.39882633  0.19880566  0.20384069  1
  Rh  Rh213  1  0.60258233  0.39404431  0.40270802  1
  Rh  Rh214  1  0.20349692  0.80083819  0.20170178  1
  Rh  Rh215  1  0.59775493  -0.00077055  0.39948081  1
  Rh  Rh216  1  0.20864311  0.59460784  0.60458328  1
  Rh  Rh217  1  0.79864950  0.79164771  0.80821766  1
  Rh  Rh218  1  0.61465995  0.81072912  -0.00551240  1
  Rh  Rh219  1  0.40122931  -0.00614228  0.60354103  1
  Rh  Rh220  1  0.40160683  0.20077976  0.39922276  1
  Rh  Rh221  1  0.38979844  0.41291475  0.39842110  1
  Rh  Rh222  1  0.40385848  -0.01162303  0.19484021  1
  Rh  Rh223  1  0.79725994  0.00109112  0.61048684  1
  Rh  Rh224  1  -0.00464331  0.80480239  -0.00455469  1
  Rh  Rh225  1  0.39969788  0.20840455  0.79831504  1
  Rh  Rh226  1  0.79880792  0.59407526  0.60178337  1
  Rh  Rh227  1  -0.00835979  0.61020740  0.59620999  1
  Rh  Rh228  1  0.79787012  0.79842852  0.40661730  1
  Rh  Rh229  1  0.80596013  0.00055539  0.39555176  1
  Rh  Rh230  1  -0.00850687  0.00315745  0.40130818  1
  Rh  Rh231  1  0.20119132  0.59245170  0.40095685  1
  Rh  Rh232  1  0.59711584  0.20635676  0.78955731  1
  Rh  Rh233  1  0.39698491  0.78887713  0.00927222  1
  Rh  Rh234  1  0.59482594  0.39941087  0.20087533  1
  Rh  Rh235  1  0.80335919  0.59501042  0.40055449  1
  Rh  Rh236  1  0.40054291  0.60522899  0.19887600  1
  Rh  Rh237  1  0.80134947  0.40566543  0.79262967  1
  Rh  Rh238  1  0.40299538  -0.00383343  0.80498009  1
  Rh  Rh239  1  0.80574725  0.40441809  0.60636219  1
  Rh  Rh240  1  0.59640293  0.40332304  0.00440565  1
  Rh  Rh241  1  0.61072839  0.79836061  0.80101112  1
  Rh  Rh242  1  0.00624945  0.19168108  0.60025113  1
  Rh  Rh243  1  0.80417957  0.39353679  -0.00122889  1
  Rh  Rh244  1  0.80981416  0.00383501  0.79473319  1
  Rh  Rh245  1  0.59625509  0.59711039  0.00104465  1
  Rh  Rh246  1  0.20289245  0.39166574  0.80412174  1
  Rh  Rh247  1  0.60194066  0.19280855  0.01306937  1
  Rh  Rh248  1  -0.00112772  0.40075115  0.79927523  1
  Rh  Rh249  1  0.19523476  0.60785925  0.20105079  1
