# generated using pymatgen
data_ZrScNbPdRh
_symmetry_space_group_name_H-M   'P 1'
_cell_length_a   16.55627143
_cell_length_b   16.55339586
_cell_length_c   16.55592015
_cell_angle_alpha   90.00200883
_cell_angle_beta   89.97303197
_cell_angle_gamma   89.99026171
_symmetry_Int_Tables_number   1
_chemical_formula_structural   ZrScNbPdRh
_chemical_formula_sum   'Zr50 Sc50 Nb50 Pd50 Rh50'
_cell_volume   4537.35654395
_cell_formula_units_Z   50
loop_
 _symmetry_equiv_pos_site_id
 _symmetry_equiv_pos_as_xyz
  1  'x, y, z'
loop_
 _atom_site_type_symbol
 _atom_site_label
 _atom_site_symmetry_multiplicity
 _atom_site_fract_x
 _atom_site_fract_y
 _atom_site_fract_z
 _atom_site_occupancy
  Zr  Zr0  1  0.89614101  0.69877044  0.69606884  1
  Zr  Zr1  1  0.09317492  0.09753753  0.90860867  1
  Zr  Zr2  1  0.10852807  0.48649339  0.29633712  1
  Zr  Zr3  1  0.90300195  0.69570104  0.29594957  1
  Zr  Zr4  1  0.29143966  0.30203292  0.70589670  1
  Zr  Zr5  1  0.90307683  0.69266322  0.09891140  1
  Zr  Zr6  1  0.29689530  0.50076411  0.70373691  1
  Zr  Zr7  1  0.29198862  0.09911933  0.50235801  1
  Zr  Zr8  1  0.29177636  0.91168976  0.29667982  1
  Zr  Zr9  1  0.70481892  0.48963670  0.10368007  1
  Zr  Zr10  1  0.09945774  0.10120665  0.09689595  1
  Zr  Zr11  1  0.29839239  0.49889310  0.10785076  1
  Zr  Zr12  1  0.90051359  0.30507090  0.09523355  1
  Zr  Zr13  1  0.09126585  0.29805499  0.69779693  1
  Zr  Zr14  1  0.69287953  0.90534687  0.69945817  1
  Zr  Zr15  1  0.49897341  0.70743430  0.09938375  1
  Zr  Zr16  1  0.70192253  0.29120006  0.49535820  1
  Zr  Zr17  1  0.09457248  0.90094048  0.69725067  1
  Zr  Zr18  1  0.91105005  0.31117615  0.29618650  1
  Zr  Zr19  1  0.31123787  0.29523657  0.09692037  1
  Zr  Zr20  1  0.11751784  0.08896235  0.30576555  1
  Zr  Zr21  1  0.69256919  0.09608638  0.49980585  1
  Zr  Zr22  1  0.70010392  0.70168960  0.50295297  1
  Zr  Zr23  1  0.50676754  0.29595736  0.09848562  1
  Zr  Zr24  1  0.69618412  0.49971318  0.89714058  1
  Zr  Zr25  1  0.89790337  0.70099211  0.90806366  1
  Zr  Zr26  1  0.69343197  0.49819188  0.70337619  1
  Zr  Zr27  1  0.89920277  0.50222196  0.10926574  1
  Zr  Zr28  1  0.30383384  0.69941284  0.29517383  1
  Zr  Zr29  1  0.69882708  0.50295366  0.50327373  1
  Zr  Zr30  1  0.69575723  0.89771471  0.09695208  1
  Zr  Zr31  1  0.10615764  0.29077223  0.50114022  1
  Zr  Zr32  1  0.69621662  0.30011143  0.89992298  1
  Zr  Zr33  1  0.70026458  0.10082079  0.30867396  1
  Zr  Zr34  1  0.49235071  0.50472552  0.30534295  1
  Zr  Zr35  1  0.49918436  0.89789009  0.89518381  1
  Zr  Zr36  1  0.89705270  0.50228141  0.49630128  1
  Zr  Zr37  1  0.89834099  0.49856374  0.91042706  1
  Zr  Zr38  1  0.10283403  0.29094669  0.89453462  1
  Zr  Zr39  1  0.49393754  0.49780954  0.50237721  1
  Zr  Zr40  1  0.10119294  0.50163023  0.89670955  1
  Zr  Zr41  1  0.10147356  0.10343807  0.68984875  1
  Zr  Zr42  1  0.09610376  0.29511800  0.10397150  1
  Zr  Zr43  1  0.10066534  0.70360505  0.50122672  1
  Zr  Zr44  1  0.50196173  0.49796271  0.88927886  1
  Zr  Zr45  1  0.10932159  0.90145207  0.09327008  1
  Zr  Zr46  1  0.50356770  0.09865587  0.89286249  1
  Zr  Zr47  1  0.10051998  0.89505009  0.50477631  1
  Zr  Zr48  1  0.89601139  0.90545378  0.69593817  1
  Zr  Zr49  1  0.69853310  0.70318448  0.09432268  1
  Sc  Sc50  1  0.29526951  0.71326209  0.89842002  1
  Sc  Sc51  1  0.30301676  0.10109236  0.90460492  1
  Sc  Sc52  1  0.90254500  0.49950092  0.69698409  1
  Sc  Sc53  1  0.50138025  0.29811831  0.90416909  1
  Sc  Sc54  1  0.49634358  0.89736118  0.09623248  1
  Sc  Sc55  1  0.90743714  0.09830771  0.09257519  1
  Sc  Sc56  1  0.49919730  0.50113293  0.69639353  1
  Sc  Sc57  1  0.49713062  0.30516034  0.69906938  1
  Sc  Sc58  1  0.88872987  0.90102232  0.10199073  1
  Sc  Sc59  1  0.88407121  0.09915414  0.50197633  1
  Sc  Sc60  1  0.50289014  0.70209426  0.49328795  1
  Sc  Sc61  1  0.49885169  0.09736282  0.30803553  1
  Sc  Sc62  1  0.49670541  0.90594214  0.69945971  1
  Sc  Sc63  1  0.90831648  0.90506669  0.89747772  1
  Sc  Sc64  1  0.69757939  0.90468885  0.50321805  1
  Sc  Sc65  1  0.50189352  0.70879015  0.70020064  1
  Sc  Sc66  1  0.30196871  0.70590448  0.10157752  1
  Sc  Sc67  1  0.90240599  0.29745325  0.49887441  1
  Sc  Sc68  1  0.29721262  0.30919486  0.30497910  1
  Sc  Sc69  1  0.30457969  0.09310198  0.69143808  1
  Sc  Sc70  1  0.70220040  0.29338209  0.71306221  1
  Sc  Sc71  1  0.30683897  0.09539151  0.10208052  1
  Sc  Sc72  1  0.89832092  0.09657619  0.89776035  1
  Sc  Sc73  1  0.90506520  0.69800282  0.50880623  1
  Sc  Sc74  1  0.70414301  0.30552691  0.30268037  1
  Sc  Sc75  1  0.88644571  0.10241023  0.69951437  1
  Sc  Sc76  1  0.10213258  0.50292134  0.69735583  1
  Sc  Sc77  1  0.49340932  0.10422058  0.08987417  1
  Sc  Sc78  1  0.09429590  0.49866576  0.09877808  1
  Sc  Sc79  1  0.49822699  0.30115771  0.30252721  1
  Sc  Sc80  1  0.30460235  0.89954944  0.50646120  1
  Sc  Sc81  1  0.69242084  0.70235156  0.69495481  1
  Sc  Sc82  1  0.89766423  0.30395875  0.88712935  1
  Sc  Sc83  1  0.50292498  0.90150448  0.50292171  1
  Sc  Sc84  1  0.10408389  0.50166486  0.50436888  1
  Sc  Sc85  1  0.29719917  0.69873648  0.50761159  1
  Sc  Sc86  1  0.30191620  0.30326998  0.50751033  1
  Sc  Sc87  1  0.30502788  0.89728576  0.69881173  1
  Sc  Sc88  1  0.49725746  0.49317729  0.10358197  1
  Sc  Sc89  1  0.30199567  0.50352580  0.30554052  1
  Sc  Sc90  1  0.71324031  0.90853400  0.29732950  1
  Sc  Sc91  1  0.89111802  0.08933848  0.29846188  1
  Sc  Sc92  1  0.09802960  0.71590531  0.90483691  1
  Sc  Sc93  1  0.30395533  0.90117953  0.90182339  1
  Sc  Sc94  1  0.30775959  0.89861543  0.09619210  1
  Sc  Sc95  1  0.49112148  0.89214777  0.30174104  1
  Sc  Sc96  1  0.70140464  0.09188645  0.08970369  1
  Sc  Sc97  1  0.10582018  0.70054568  0.69542159  1
  Sc  Sc98  1  0.71435577  0.50059874  0.30369645  1
  Sc  Sc99  1  0.69892216  0.70307351  0.30090798  1
  Nb  Nb100  1  0.10066785  0.89450685  0.30353195  1
  Nb  Nb101  1  0.49687889  0.10167265  0.69794157  1
  Nb  Nb102  1  0.49820035  0.29689224  0.50052564  1
  Nb  Nb103  1  0.90314465  0.50114107  0.30040682  1
  Nb  Nb104  1  0.69935432  0.29774364  0.09997879  1
  Nb  Nb105  1  0.50623695  0.69600099  0.90050587  1
  Nb  Nb106  1  0.68866324  0.70262410  0.89877434  1
  Nb  Nb107  1  0.10542803  0.09805587  0.49776908  1
  Nb  Nb108  1  0.90613175  0.89561721  0.50038450  1
  Nb  Nb109  1  0.49855204  0.69725704  0.29333995  1
  Nb  Nb110  1  0.90596790  0.89775200  0.30293314  1
  Nb  Nb111  1  0.29927911  0.10029621  0.30540131  1
  Nb  Nb112  1  0.10543796  0.70580132  0.30365682  1
  Nb  Nb113  1  0.30779091  0.50544774  0.50600412  1
  Nb  Nb114  1  0.69607970  0.90501428  0.89677501  1
  Nb  Nb115  1  0.30088660  0.69408190  0.69728661  1
  Nb  Nb116  1  0.29870478  0.49613882  0.89511810  1
  Nb  Nb117  1  0.10255602  0.29471978  0.30043521  1
  Nb  Nb118  1  0.49595769  0.10479394  0.50573031  1
  Nb  Nb119  1  0.10311400  0.90400146  0.89781521  1
  Nb  Nb120  1  0.30169892  0.30586305  0.89388848  1
  Nb  Nb121  1  0.69641075  0.10256378  0.88615843  1
  Nb  Nb122  1  0.89335469  0.29964594  0.69628333  1
  Nb  Nb123  1  0.10166744  0.70028608  0.09742776  1
  Nb  Nb124  1  0.69547252  0.09874876  0.70335527  1
  Nb  Nb125  1  -0.00487499  0.60495350  0.80496629  1
  Nb  Nb126  1  0.20441862  0.59761296  -0.00162623  1
  Nb  Nb127  1  0.59664795  0.60195221  0.20202240  1
  Nb  Nb128  1  0.39555782  0.60434484  0.80374295  1
  Nb  Nb129  1  0.60005777  0.00405211  0.19954275  1
  Nb  Nb130  1  0.20573308  0.39865762  -0.00519979  1
  Nb  Nb131  1  0.00309739  -0.00411969  0.40208652  1
  Nb  Nb132  1  0.79709075  0.20147864  0.19285983  1
  Nb  Nb133  1  0.00928701  0.18946601  0.39711315  1
  Nb  Nb134  1  0.59678079  0.40180568  0.40766001  1
  Nb  Nb135  1  0.00673514  -0.00973999  0.20675314  1
  Nb  Nb136  1  0.79713464  0.60608361  0.80439434  1
  Nb  Nb137  1  0.79347158  0.20300145  -0.00243097  1
  Nb  Nb138  1  0.00869534  0.79949811  0.20255502  1
  Nb  Nb139  1  0.19323813  -0.00131934  0.80212175  1
  Nb  Nb140  1  0.80978603  0.80310208  0.40332052  1
  Nb  Nb141  1  0.00568648  0.59894990  0.39092340  1
  Nb  Nb142  1  0.60626039  0.19597217  0.19917898  1
  Nb  Nb143  1  0.20242739  0.19887344  0.20637498  1
  Nb  Nb144  1  0.39827380  0.20144371  0.79786830  1
  Nb  Nb145  1  0.39693823  0.59864212  -0.00908502  1
  Nb  Nb146  1  0.79201112  0.80025701  0.80529724  1
  Nb  Nb147  1  0.39679857  0.19713564  0.40642663  1
  Nb  Nb148  1  0.79849526  0.39517765  0.60258617  1
  Nb  Nb149  1  0.59605488  0.19486373  0.60085464  1
  Pd  Pd150  1  0.39948096  0.39675595  0.20717918  1
  Pd  Pd151  1  0.00629366  0.40043358  0.40704041  1
  Pd  Pd152  1  0.00253853  0.00858280  0.79453525  1
  Pd  Pd153  1  0.60840204  0.80888009  0.39437435  1
  Pd  Pd154  1  0.79628631  0.80588990  0.59905094  1
  Pd  Pd155  1  0.20676772  0.40244310  0.41106714  1
  Pd  Pd156  1  -0.00895789  0.19234670  0.79744975  1
  Pd  Pd157  1  0.40876912  0.00152867  0.19967951  1
  Pd  Pd158  1  0.19608088  0.60166573  0.19538124  1
  Pd  Pd159  1  0.79037372  0.59694050  -0.00018233  1
  Pd  Pd160  1  0.01432324  0.60089605  0.20595974  1
  Pd  Pd161  1  -0.00615621  0.79600437  0.79585163  1
  Pd  Pd162  1  0.80004695  0.00325240  -0.00814311  1
  Pd  Pd163  1  0.39557269  0.39914287  0.60524314  1
  Pd  Pd164  1  0.20249317  0.80175779  0.19597806  1
  Pd  Pd165  1  0.20782193  0.18541754  0.79704570  1
  Pd  Pd166  1  0.20877222  0.00036105  -0.00386762  1
  Pd  Pd167  1  0.60087386  0.80517236  0.20884576  1
  Pd  Pd168  1  -0.00474722  0.40002559  0.59559447  1
  Pd  Pd169  1  -0.00379436  0.80967391  0.00834087  1
  Pd  Pd170  1  -0.00921865  0.19208998  0.59204511  1
  Pd  Pd171  1  0.19932855  0.59717637  0.40234549  1
  Pd  Pd172  1  -0.00696248  0.01104506  0.59201857  1
  Pd  Pd173  1  0.19911170  0.40289246  0.59897271  1
  Pd  Pd174  1  0.40503416  0.79642267  0.59728708  1
  Pd  Pd175  1  0.40064127  0.00292026  0.40711052  1
  Pd  Pd176  1  0.59073801  0.60641908  0.60270076  1
  Pd  Pd177  1  0.79769156  0.80817983  -0.00886151  1
  Pd  Pd178  1  0.59341886  0.59193030  0.01061051  1
  Pd  Pd179  1  -0.00192464  0.18477161  0.21162535  1
  Pd  Pd180  1  0.81542435  0.20677281  0.38791511  1
  Pd  Pd181  1  0.60769533  0.38705194  0.59939474  1
  Pd  Pd182  1  0.80468286  0.79648294  0.20475358  1
  Pd  Pd183  1  0.20826693  0.20334224  0.00563281  1
  Pd  Pd184  1  -0.00031681  0.40702036  0.79548848  1
  Pd  Pd185  1  0.21295358  0.80273152  0.40360458  1
  Pd  Pd186  1  0.00722121  0.39430206  -0.00305255  1
  Pd  Pd187  1  0.40117309  0.79511927  0.80020516  1
  Pd  Pd188  1  0.60154111  0.40061162  0.21335291  1
  Pd  Pd189  1  0.39427171  0.79607870  0.40142307  1
  Pd  Pd190  1  0.59331133  -0.00980914  0.39345137  1
  Pd  Pd191  1  0.39525207  0.60995370  0.40699685  1
  Pd  Pd192  1  0.59794395  0.40397131  -0.00148680  1
  Pd  Pd193  1  0.19691697  0.61101435  0.80659041  1
  Pd  Pd194  1  0.59464913  0.00084650  0.00121710  1
  Pd  Pd195  1  0.40191303  0.19776102  0.21248910  1
  Pd  Pd196  1  0.39968230  0.40421730  -0.00295130  1
  Pd  Pd197  1  0.80687250  0.61022672  0.40144097  1
  Pd  Pd198  1  0.20185017  0.80770665  0.79424569  1
  Pd  Pd199  1  0.60207385  0.59621814  0.39377821  1
  Rh  Rh200  1  0.40292363  -0.00217919  -0.00437976  1
  Rh  Rh201  1  0.00035723  0.79586427  0.60804782  1
  Rh  Rh202  1  0.58934572  0.20110077  0.79238144  1
  Rh  Rh203  1  0.59660548  0.80611903  -0.00688554  1
  Rh  Rh204  1  0.40300251  -0.00249227  0.59644950  1
  Rh  Rh205  1  0.79863762  0.39942846  0.40701424  1
  Rh  Rh206  1  0.80652303  -0.01227601  0.41033096  1
  Rh  Rh207  1  0.58852694  0.20785144  0.39991038  1
  Rh  Rh208  1  0.20102726  -0.00691686  0.60496173  1
  Rh  Rh209  1  0.79610332  -0.00452347  0.80131234  1
  Rh  Rh210  1  0.40430162  0.39924532  0.79628630  1
  Rh  Rh211  1  0.40256258  0.60437972  0.60658104  1
  Rh  Rh212  1  0.79669533  -0.00255346  0.59802124  1
  Rh  Rh213  1  0.60743660  0.19416022  0.00297116  1
  Rh  Rh214  1  0.39280118  0.00851303  0.79948151  1
  Rh  Rh215  1  0.20409132  0.80033937  0.60587263  1
  Rh  Rh216  1  0.80332954  0.39492130  0.20287010  1
  Rh  Rh217  1  0.20029715  -0.01343251  0.41243189  1
  Rh  Rh218  1  0.79934451  0.00648181  0.19396778  1
  Rh  Rh219  1  0.59481512  0.39193036  0.79817842  1
  Rh  Rh220  1  0.20587194  0.20665588  0.39641864  1
  Rh  Rh221  1  0.20138046  0.00429952  0.19051414  1
  Rh  Rh222  1  0.00418935  0.40499253  0.19827173  1
  Rh  Rh223  1  0.39928767  0.20037061  -0.01168575  1
  Rh  Rh224  1  0.40099017  0.39545245  0.40496364  1
  Rh  Rh225  1  -0.01445619  0.20768280  -0.01327504  1
  Rh  Rh226  1  -0.00395348  0.79385125  0.39627425  1
  Rh  Rh227  1  0.80252973  0.41066887  0.79317235  1
  Rh  Rh228  1  0.78868480  0.60272508  0.19606267  1
  Rh  Rh229  1  0.18868161  0.39713337  0.80031091  1
  Rh  Rh230  1  0.59574759  -0.00129741  0.79566855  1
  Rh  Rh231  1  0.59581262  0.80305258  0.59692699  1
  Rh  Rh232  1  0.60159839  0.80378738  0.80062805  1
  Rh  Rh233  1  0.20083292  0.38800787  0.18941918  1
  Rh  Rh234  1  0.79602559  0.58959094  0.60902133  1
  Rh  Rh235  1  0.79766665  0.39473265  -0.00267352  1
  Rh  Rh236  1  0.78847243  0.20462790  0.60738928  1
  Rh  Rh237  1  0.00567497  0.60149745  0.59936129  1
  Rh  Rh238  1  0.01204301  0.60353412  -0.00490643  1
  Rh  Rh239  1  0.39472472  0.80426408  0.20428863  1
  Rh  Rh240  1  0.20348833  0.59709745  0.59694409  1
  Rh  Rh241  1  0.40772705  0.60185029  0.19119143  1
  Rh  Rh242  1  -0.00252987  -0.00879869  0.00701195  1
  Rh  Rh243  1  0.20275658  0.79803521  0.00242196  1
  Rh  Rh244  1  0.59788279  0.60647886  0.79279814  1
  Rh  Rh245  1  0.59536675  0.00669191  0.60397665  1
  Rh  Rh246  1  0.80209908  0.19538615  0.80499667  1
  Rh  Rh247  1  0.40128104  0.20244539  0.60269210  1
  Rh  Rh248  1  0.20381101  0.20174070  0.60384347  1
  Rh  Rh249  1  0.40334632  0.79487845  -0.00567278  1
