# generated using pymatgen
data_ZrScNbPdRh
_symmetry_space_group_name_H-M   'P 1'
_cell_length_a   16.55487084
_cell_length_b   16.55572304
_cell_length_c   16.55180855
_cell_angle_alpha   89.97531294
_cell_angle_beta   89.98898244
_cell_angle_gamma   89.99548766
_symmetry_Int_Tables_number   1
_chemical_formula_structural   ZrScNbPdRh
_chemical_formula_sum   'Zr50 Sc50 Nb50 Pd50 Rh50'
_cell_volume   4536.48369076
_cell_formula_units_Z   50
loop_
 _symmetry_equiv_pos_site_id
 _symmetry_equiv_pos_as_xyz
  1  'x, y, z'
loop_
 _atom_site_type_symbol
 _atom_site_label
 _atom_site_symmetry_multiplicity
 _atom_site_fract_x
 _atom_site_fract_y
 _atom_site_fract_z
 _atom_site_occupancy
  Zr  Zr0  1  0.69949250  0.89317868  0.49652864  1
  Zr  Zr1  1  0.09311416  0.10027721  0.09863546  1
  Zr  Zr2  1  0.50433203  0.49846237  0.69573236  1
  Zr  Zr3  1  0.48873620  0.49533425  0.89658977  1
  Zr  Zr4  1  0.49428922  0.29125865  0.08684524  1
  Zr  Zr5  1  0.10347872  0.70086578  0.89803130  1
  Zr  Zr6  1  0.09614943  0.69569836  0.29462133  1
  Zr  Zr7  1  0.89935026  0.69651496  0.50890279  1
  Zr  Zr8  1  0.11053704  0.70218433  0.50378676  1
  Zr  Zr9  1  0.69349020  0.29844850  0.90782294  1
  Zr  Zr10  1  0.29940368  0.70474901  0.30367008  1
  Zr  Zr11  1  0.50125457  0.90356677  0.30055153  1
  Zr  Zr12  1  0.69343529  0.10141679  0.28658615  1
  Zr  Zr13  1  0.49258883  0.10294057  0.70224209  1
  Zr  Zr14  1  0.49056945  0.70598075  0.90206957  1
  Zr  Zr15  1  0.70252592  0.71468528  0.90108961  1
  Zr  Zr16  1  0.90005461  0.29733393  0.28819074  1
  Zr  Zr17  1  0.70506073  0.70002390  0.69708629  1
  Zr  Zr18  1  0.29694460  0.88970450  0.49732572  1
  Zr  Zr19  1  0.30432723  0.90104240  0.30082170  1
  Zr  Zr20  1  0.29781720  0.49713333  0.29568858  1
  Zr  Zr21  1  0.10472087  0.50049619  0.30274708  1
  Zr  Zr22  1  0.69152254  0.29572378  0.69505164  1
  Zr  Zr23  1  0.09524291  0.30107139  0.50183282  1
  Zr  Zr24  1  0.49925917  0.10917559  0.90169071  1
  Zr  Zr25  1  0.09934270  0.29800593  0.90291666  1
  Zr  Zr26  1  0.50888739  0.29232663  0.29876796  1
  Zr  Zr27  1  0.69760080  0.49718817  0.10204065  1
  Zr  Zr28  1  0.30012083  0.50314477  0.71055156  1
  Zr  Zr29  1  0.49911572  0.09832386  0.29858090  1
  Zr  Zr30  1  0.90171736  0.09671970  0.49482533  1
  Zr  Zr31  1  0.90930571  0.49652512  0.50742648  1
  Zr  Zr32  1  0.09451938  0.90516519  0.89237039  1
  Zr  Zr33  1  0.90612711  0.69738120  0.10078338  1
  Zr  Zr34  1  0.10596947  0.50020451  0.09998599  1
  Zr  Zr35  1  0.09337570  0.09683256  0.50033284  1
  Zr  Zr36  1  0.49534066  0.69562436  0.50253817  1
  Zr  Zr37  1  0.69261830  0.90429210  0.09196265  1
  Zr  Zr38  1  0.09886204  0.29642381  0.09563365  1
  Zr  Zr39  1  0.10004040  0.29388842  0.70786803  1
  Zr  Zr40  1  0.09160233  0.90008217  0.69775187  1
  Zr  Zr41  1  0.49754583  0.49977238  0.50398787  1
  Zr  Zr42  1  0.90288030  0.70054337  0.30000516  1
  Zr  Zr43  1  0.10528646  0.09502251  0.71514385  1
  Zr  Zr44  1  0.69893692  0.49714255  0.69793319  1
  Zr  Zr45  1  0.69989110  0.70616082  0.30673765  1
  Zr  Zr46  1  0.30441697  0.69984869  0.09089877  1
  Zr  Zr47  1  0.89791362  0.29218116  0.50532438  1
  Zr  Zr48  1  0.30192555  0.50737592  0.49942370  1
  Zr  Zr49  1  0.10131342  0.10235841  0.89931670  1
  Sc  Sc50  1  0.29722578  0.30159635  0.10233617  1
  Sc  Sc51  1  0.09775644  0.49507800  0.70137200  1
  Sc  Sc52  1  0.30089650  0.69132108  0.89599407  1
  Sc  Sc53  1  0.89743165  0.90402999  0.89287192  1
  Sc  Sc54  1  0.89980386  0.10102654  0.70073413  1
  Sc  Sc55  1  0.89551663  0.91024412  0.30671756  1
  Sc  Sc56  1  0.69562505  0.10363554  0.70661240  1
  Sc  Sc57  1  0.70749007  0.48952131  0.90639090  1
  Sc  Sc58  1  0.90044038  0.29446370  0.09368850  1
  Sc  Sc59  1  0.30749029  0.10529166  0.30274898  1
  Sc  Sc60  1  0.30431897  0.29793253  0.30158538  1
  Sc  Sc61  1  0.48999455  0.69789792  0.10242400  1
  Sc  Sc62  1  0.69030190  0.49954176  0.50810167  1
  Sc  Sc63  1  0.50036867  0.70328956  0.69788331  1
  Sc  Sc64  1  0.10599975  0.89989337  0.29244801  1
  Sc  Sc65  1  0.91106045  0.50445462  0.29570716  1
  Sc  Sc66  1  0.30317685  0.11293928  0.10375397  1
  Sc  Sc67  1  0.70327577  0.90419033  0.90161970  1
  Sc  Sc68  1  0.49422475  0.90156989  0.09818133  1
  Sc  Sc69  1  0.09361771  0.70302346  0.69177062  1
  Sc  Sc70  1  0.31046324  0.88969294  0.89404015  1
  Sc  Sc71  1  0.70051319  0.09172334  0.90367235  1
  Sc  Sc72  1  0.70375194  0.89170152  0.71631279  1
  Sc  Sc73  1  0.49382408  0.10074293  0.49786297  1
  Sc  Sc74  1  0.90229023  0.70793327  0.90643872  1
  Sc  Sc75  1  0.31133889  0.90481290  0.70284611  1
  Sc  Sc76  1  0.70048815  0.11303594  0.51374342  1
  Sc  Sc77  1  0.69220122  0.29831973  0.50212920  1
  Sc  Sc78  1  0.09208835  0.09924522  0.29656746  1
  Sc  Sc79  1  0.49213357  0.50533199  0.10338585  1
  Sc  Sc80  1  0.70342584  0.09627584  0.09517182  1
  Sc  Sc81  1  0.90897461  0.90960028  0.09763097  1
  Sc  Sc82  1  0.50591427  0.09965048  0.10469068  1
  Sc  Sc83  1  0.49971612  0.29225059  0.50053270  1
  Sc  Sc84  1  0.10688931  0.49749105  0.90068269  1
  Sc  Sc85  1  0.90377681  0.90581929  0.49833508  1
  Sc  Sc86  1  0.90256975  0.31006791  0.90517481  1
  Sc  Sc87  1  0.49738085  0.89872014  0.49569825  1
  Sc  Sc88  1  0.50358015  0.89914756  0.89480304  1
  Sc  Sc89  1  0.90870410  0.30588415  0.70482772  1
  Sc  Sc90  1  0.69925740  0.70435515  0.50389328  1
  Sc  Sc91  1  0.90000228  0.49758159  0.08640703  1
  Sc  Sc92  1  0.10813105  0.29956669  0.30274707  1
  Sc  Sc93  1  0.09499861  0.89863875  0.50359498  1
  Sc  Sc94  1  0.30030078  0.89299806  0.10644478  1
  Sc  Sc95  1  0.69754604  0.90479146  0.30807538  1
  Sc  Sc96  1  0.89630498  0.09319082  0.90987692  1
  Sc  Sc97  1  0.29932215  0.50176982  0.10011650  1
  Sc  Sc98  1  0.49438120  0.49579034  0.29611075  1
  Sc  Sc99  1  0.10039712  0.70569157  0.09489215  1
  Nb  Nb100  1  0.70051837  0.30608911  0.10388508  1
  Nb  Nb101  1  0.50115371  0.69917872  0.29585613  1
  Nb  Nb102  1  0.49526703  0.29883467  0.89554538  1
  Nb  Nb103  1  0.30434786  0.10134630  0.50324643  1
  Nb  Nb104  1  0.29302364  0.70140080  0.69287681  1
  Nb  Nb105  1  0.30779784  0.30372510  0.89828195  1
  Nb  Nb106  1  0.10083981  0.49448924  0.50041043  1
  Nb  Nb107  1  0.10522969  0.91041993  0.09531203  1
  Nb  Nb108  1  0.90382724  0.89609539  0.70329285  1
  Nb  Nb109  1  0.90012646  0.69673724  0.69754036  1
  Nb  Nb110  1  0.30080758  0.29225209  0.50260178  1
  Nb  Nb111  1  0.69741880  0.49607735  0.29712125  1
  Nb  Nb112  1  0.30162938  0.29666007  0.69827986  1
  Nb  Nb113  1  0.90121290  0.49735517  0.89330547  1
  Nb  Nb114  1  0.29451835  0.09432281  0.88770208  1
  Nb  Nb115  1  0.70122304  0.30683445  0.29260415  1
  Nb  Nb116  1  0.29878483  0.10000962  0.70143680  1
  Nb  Nb117  1  0.29785479  0.50419026  0.89725903  1
  Nb  Nb118  1  0.89762454  0.09921927  0.29387568  1
  Nb  Nb119  1  0.89964487  0.50364275  0.69937579  1
  Nb  Nb120  1  0.49772580  0.30046181  0.70806838  1
  Nb  Nb121  1  0.90688525  0.10011717  0.10962007  1
  Nb  Nb122  1  0.29894488  0.70148078  0.51065555  1
  Nb  Nb123  1  0.50208817  0.90246843  0.70564733  1
  Nb  Nb124  1  0.70257157  0.70094785  0.09821308  1
  Nb  Nb125  1  0.60145960  0.60343352  -0.00333586  1
  Nb  Nb126  1  0.20451705  0.39354706  0.59756865  1
  Nb  Nb127  1  0.20448275  0.00030240  -0.00178123  1
  Nb  Nb128  1  0.79659883  0.39949082  0.39702411  1
  Nb  Nb129  1  0.20606469  0.19718110  0.60264378  1
  Nb  Nb130  1  0.79660692  0.20524565  0.80385390  1
  Nb  Nb131  1  0.19988448  0.79776138  0.79308577  1
  Nb  Nb132  1  0.20419691  0.00268447  0.40686912  1
  Nb  Nb133  1  0.60006960  -0.00584560  0.60682285  1
  Nb  Nb134  1  0.79530319  0.59116104  0.39775462  1
  Nb  Nb135  1  0.60570636  0.60080326  0.80846867  1
  Nb  Nb136  1  0.79738385  0.20326771  0.38594042  1
  Nb  Nb137  1  0.60314293  0.79572268  0.19947375  1
  Nb  Nb138  1  -0.00834620  0.59908110  0.79794375  1
  Nb  Nb139  1  0.00683549  0.39910592  0.19538905  1
  Nb  Nb140  1  0.80324942  0.39957921  0.59888382  1
  Nb  Nb141  1  0.20664720  0.00594836  0.60040015  1
  Nb  Nb142  1  0.79417961  0.60252981  0.20132157  1
  Nb  Nb143  1  0.60084884  0.59907757  0.39303750  1
  Nb  Nb144  1  0.39416973  0.39208973  0.60490504  1
  Nb  Nb145  1  0.79614555  -0.00375931  0.60532567  1
  Nb  Nb146  1  0.39201214  0.00806809  -0.00621905  1
  Nb  Nb147  1  0.79602107  0.79822917  0.19589102  1
  Nb  Nb148  1  0.00242158  0.79516176  0.39950056  1
  Nb  Nb149  1  0.80360881  0.59885188  0.80022970  1
  Pd  Pd150  1  -0.00566216  0.39516485  0.39127594  1
  Pd  Pd151  1  0.79568135  0.59891379  -0.00410897  1
  Pd  Pd152  1  0.20057366  0.19262126  0.40332687  1
  Pd  Pd153  1  0.40267365  -0.00389525  0.59590517  1
  Pd  Pd154  1  0.81007764  0.81204275  0.00618226  1
  Pd  Pd155  1  0.40329740  0.39299523  0.19651027  1
  Pd  Pd156  1  0.00160393  0.60310941  0.41083352  1
  Pd  Pd157  1  0.58780382  0.39537524  0.19066099  1
  Pd  Pd158  1  0.19720180  0.19745002  0.20466360  1
  Pd  Pd159  1  0.19988624  0.39573179  0.80005346  1
  Pd  Pd160  1  0.81195574  0.40989713  0.19777162  1
  Pd  Pd161  1  0.60625458  0.19471287  0.00493295  1
  Pd  Pd162  1  0.00016653  0.80978350  -0.00092088  1
  Pd  Pd163  1  -0.00439910  0.81352328  0.20308617  1
  Pd  Pd164  1  0.00562412  0.59572952  -0.00820361  1
  Pd  Pd165  1  0.79904277  0.39522904  0.79367779  1
  Pd  Pd166  1  0.58850592  0.79605803  0.00695108  1
  Pd  Pd167  1  -0.01531494  0.19603920  0.81150084  1
  Pd  Pd168  1  0.79909730  -0.00889364  0.19464908  1
  Pd  Pd169  1  0.20329684  0.80805396  -0.00950996  1
  Pd  Pd170  1  0.80168772  0.19937421  -0.00094091  1
  Pd  Pd171  1  0.59954670  0.00220643  0.80082777  1
  Pd  Pd172  1  0.39926972  0.39232676  0.40552586  1
  Pd  Pd173  1  0.20884278  0.19562718  -0.00518257  1
  Pd  Pd174  1  0.40435877  0.79521933  0.39932846  1
  Pd  Pd175  1  0.19816878  0.79591352  0.19577588  1
  Pd  Pd176  1  -0.00549599  0.20117158  0.39113610  1
  Pd  Pd177  1  0.60706468  0.19474457  0.40003263  1
  Pd  Pd178  1  0.20372451  0.60764200  0.19472870  1
  Pd  Pd179  1  0.80555071  0.81068216  0.60073827  1
  Pd  Pd180  1  0.00386803  0.19215430  0.60864129  1
  Pd  Pd181  1  0.79476648  0.19897719  0.19236711  1
  Pd  Pd182  1  0.59066962  0.40636585  0.00283338  1
  Pd  Pd183  1  0.60064853  0.40203355  0.80710094  1
  Pd  Pd184  1  0.20644203  0.39690686  0.40542116  1
  Pd  Pd185  1  0.60115658  0.40416188  0.40283778  1
  Pd  Pd186  1  0.39331751  0.40328620  0.00307123  1
  Pd  Pd187  1  0.40338937  0.60287373  0.39347575  1
  Pd  Pd188  1  0.20171187  0.60358814  0.40137987  1
  Pd  Pd189  1  0.60123109  0.60527734  0.19781439  1
  Pd  Pd190  1  0.19420649  0.59015766  0.60518838  1
  Pd  Pd191  1  0.39389052  0.20010434  0.80223345  1
  Pd  Pd192  1  0.39618561  0.00394994  0.19023801  1
  Pd  Pd193  1  0.40556166  0.60733867  0.79323195  1
  Pd  Pd194  1  0.78668212  0.01440167  0.40788518  1
  Pd  Pd195  1  0.59691816  0.80579875  0.60479346  1
  Pd  Pd196  1  0.20886047  0.40000943  -0.00258401  1
  Pd  Pd197  1  0.20612249  0.00898725  0.19945347  1
  Pd  Pd198  1  0.60612314  0.01133859  0.41324144  1
  Pd  Pd199  1  0.40187908  0.80345427  0.60525054  1
  Rh  Rh200  1  0.19723422  0.39609211  0.20089286  1
  Rh  Rh201  1  0.39964874  0.80953605  0.00178891  1
  Rh  Rh202  1  0.00336363  0.40319913  0.00214327  1
  Rh  Rh203  1  0.79469148  0.59142640  0.59810592  1
  Rh  Rh204  1  0.40142132  0.20339582  0.60276564  1
  Rh  Rh205  1  0.58588183  0.19414661  0.60355548  1
  Rh  Rh206  1  0.40665188  0.79851920  0.20288602  1
  Rh  Rh207  1  0.00467394  0.20508173  0.20063512  1
  Rh  Rh208  1  0.81418118  0.79389171  0.40063453  1
  Rh  Rh209  1  -0.01034807  0.00568313  0.79976659  1
  Rh  Rh210  1  0.60008526  -0.00972005  0.19784682  1
  Rh  Rh211  1  0.80561750  -0.00066400  0.00718447  1
  Rh  Rh212  1  0.20890275  0.21020175  0.80373350  1
  Rh  Rh213  1  0.40537418  0.00156605  0.80698491  1
  Rh  Rh214  1  0.40619538  0.20497017  0.20177560  1
  Rh  Rh215  1  0.39622479  0.59648524  0.60755147  1
  Rh  Rh216  1  0.39071070  0.60191440  0.20484361  1
  Rh  Rh217  1  0.59192540  0.38930188  0.59664077  1
  Rh  Rh218  1  0.39673034  0.39726233  0.79717068  1
  Rh  Rh219  1  0.20307900  0.59770233  -0.00122818  1
  Rh  Rh220  1  0.19194667  0.80327209  0.39691042  1
  Rh  Rh221  1  -0.00738748  0.80236083  0.59257207  1
  Rh  Rh222  1  0.80426009  0.20341077  0.60865346  1
  Rh  Rh223  1  0.00361431  0.40057910  0.60586455  1
  Rh  Rh224  1  0.20495250  0.81192792  0.61001742  1
  Rh  Rh225  1  0.39139732  0.19661676  -0.00724568  1
  Rh  Rh226  1  0.00039284  0.79126575  0.79909682  1
  Rh  Rh227  1  -0.00695193  0.19637800  -0.00211347  1
  Rh  Rh228  1  0.01039767  0.59603179  0.60279806  1
  Rh  Rh229  1  0.81071711  0.79413021  0.80002286  1
  Rh  Rh230  1  0.39336360  0.00161322  0.40128485  1
  Rh  Rh231  1  0.80172898  0.39572775  0.00409409  1
  Rh  Rh232  1  0.20695548  -0.01531244  0.79909804  1
  Rh  Rh233  1  0.60103176  0.60859518  0.59869431  1
  Rh  Rh234  1  0.58757221  0.00250679  -0.00363258  1
  Rh  Rh235  1  0.39552783  0.79266068  0.79054476  1
  Rh  Rh236  1  0.40041504  0.59320375  -0.00200414  1
  Rh  Rh237  1  0.60376866  0.20298774  0.80467983  1
  Rh  Rh238  1  0.80210095  0.00723560  0.79310217  1
  Rh  Rh239  1  0.40283935  0.20097618  0.39742197  1
  Rh  Rh240  1  -0.00453089  0.00309390  0.60763217  1
  Rh  Rh241  1  0.58811210  0.79309816  0.39637246  1
  Rh  Rh242  1  0.00429960  0.00149707  -0.00205820  1
  Rh  Rh243  1  0.19052678  0.60899340  0.79463055  1
  Rh  Rh244  1  0.60333798  0.20623891  0.18954181  1
  Rh  Rh245  1  -0.00198479  0.58896554  0.18672794  1
  Rh  Rh246  1  -0.00050907  -0.00187660  0.20405499  1
  Rh  Rh247  1  0.00560418  0.40713381  0.80366944  1
  Rh  Rh248  1  0.01107773  -0.00929974  0.38945972  1
  Rh  Rh249  1  0.59614906  0.79464142  0.79944100  1
