# generated using pymatgen
data_ZrScNbPdRh
_symmetry_space_group_name_H-M   'P 1'
_cell_length_a   16.55617579
_cell_length_b   16.55172148
_cell_length_c   16.55585007
_cell_angle_alpha   90.01661709
_cell_angle_beta   89.98032242
_cell_angle_gamma   89.96010480
_symmetry_Int_Tables_number   1
_chemical_formula_structural   ZrScNbPdRh
_chemical_formula_sum   'Zr50 Sc50 Nb50 Pd50 Rh50'
_cell_volume   4536.85119056
_cell_formula_units_Z   50
loop_
 _symmetry_equiv_pos_site_id
 _symmetry_equiv_pos_as_xyz
  1  'x, y, z'
loop_
 _atom_site_type_symbol
 _atom_site_label
 _atom_site_symmetry_multiplicity
 _atom_site_fract_x
 _atom_site_fract_y
 _atom_site_fract_z
 _atom_site_occupancy
  Zr  Zr0  1  0.29667143  0.09051403  0.89624839  1
  Zr  Zr1  1  0.29474224  0.89425015  0.89611303  1
  Zr  Zr2  1  0.90263448  0.50195358  0.49951350  1
  Zr  Zr3  1  0.50102145  0.30309109  0.90251534  1
  Zr  Zr4  1  0.09871010  0.89531789  0.10914722  1
  Zr  Zr5  1  0.90243009  0.09970941  0.70135435  1
  Zr  Zr6  1  0.89445940  0.69397148  0.50365540  1
  Zr  Zr7  1  0.49693557  0.10245823  0.50787486  1
  Zr  Zr8  1  0.69457969  0.89877788  0.29964857  1
  Zr  Zr9  1  0.10092041  0.51177692  0.29493640  1
  Zr  Zr10  1  0.49326850  0.69735407  0.50884378  1
  Zr  Zr11  1  0.30610019  0.49182157  0.30202202  1
  Zr  Zr12  1  0.90654236  0.90162647  0.70159764  1
  Zr  Zr13  1  0.70412950  0.30368277  0.09942859  1
  Zr  Zr14  1  0.30517548  0.68865357  0.09277396  1
  Zr  Zr15  1  0.29382832  0.90732342  0.29708666  1
  Zr  Zr16  1  0.49927168  0.89268454  0.69814250  1
  Zr  Zr17  1  0.69874127  0.89841328  0.10228484  1
  Zr  Zr18  1  0.09033683  0.10095285  0.09532969  1
  Zr  Zr19  1  0.69760475  0.69315115  0.90604136  1
  Zr  Zr20  1  0.10571978  0.29787094  0.70252191  1
  Zr  Zr21  1  0.11104830  0.50764267  0.09758564  1
  Zr  Zr22  1  0.29969433  0.50205923  0.69935447  1
  Zr  Zr23  1  0.69460428  0.30963286  0.29752593  1
  Zr  Zr24  1  0.49952817  0.29319844  0.49621804  1
  Zr  Zr25  1  0.10917895  0.30102589  0.50335457  1
  Zr  Zr26  1  0.10462278  0.09742990  0.70773622  1
  Zr  Zr27  1  0.89502277  0.91012014  0.30183802  1
  Zr  Zr28  1  0.69507500  0.89397680  0.90321100  1
  Zr  Zr29  1  0.10134227  0.70621171  0.29341148  1
  Zr  Zr30  1  0.70252232  0.09891570  0.69983684  1
  Zr  Zr31  1  0.90161334  0.50297744  0.69291132  1
  Zr  Zr32  1  0.70274774  0.49640773  0.30345452  1
  Zr  Zr33  1  0.50368671  0.70503094  0.30444531  1
  Zr  Zr34  1  0.70253348  0.10035438  0.10529481  1
  Zr  Zr35  1  0.09106727  0.70730819  0.48364804  1
  Zr  Zr36  1  0.91200265  0.69593069  0.30224654  1
  Zr  Zr37  1  0.90257369  0.30567569  0.29983398  1
  Zr  Zr38  1  0.10300788  0.50487785  0.89099884  1
  Zr  Zr39  1  0.70828353  0.90582357  0.49375571  1
  Zr  Zr40  1  0.49402213  0.89676038  0.29001407  1
  Zr  Zr41  1  0.49937308  0.29262149  0.10842790  1
  Zr  Zr42  1  0.09931762  0.49555825  0.69436993  1
  Zr  Zr43  1  0.49767366  0.29792093  0.69782365  1
  Zr  Zr44  1  0.49982832  0.50432443  0.69995439  1
  Zr  Zr45  1  0.30470931  0.29574588  0.10187577  1
  Zr  Zr46  1  0.49877166  0.71031121  0.09982182  1
  Zr  Zr47  1  0.30693296  0.90117114  0.10052780  1
  Zr  Zr48  1  0.90166509  0.69899641  0.90205260  1
  Zr  Zr49  1  0.49939883  0.68844044  0.90548009  1
  Sc  Sc50  1  0.69890015  0.10409893  0.49977530  1
  Sc  Sc51  1  0.69535888  0.70756302  0.08541076  1
  Sc  Sc52  1  0.49035297  0.89966405  0.50055122  1
  Sc  Sc53  1  0.30238736  0.09758647  0.09815127  1
  Sc  Sc54  1  0.29964852  0.30283510  0.49527989  1
  Sc  Sc55  1  0.10294736  0.90301303  0.89798435  1
  Sc  Sc56  1  0.69907649  0.08785885  0.30298862  1
  Sc  Sc57  1  0.49398581  0.50319336  0.49773900  1
  Sc  Sc58  1  0.09775750  0.69694011  0.10695535  1
  Sc  Sc59  1  0.50188447  0.10175571  0.29812128  1
  Sc  Sc60  1  0.69190902  0.69080098  0.50263118  1
  Sc  Sc61  1  0.30055503  0.70409635  0.89784601  1
  Sc  Sc62  1  0.49575928  0.30266963  0.30138403  1
  Sc  Sc63  1  0.89294310  0.50351567  0.90365969  1
  Sc  Sc64  1  0.31111727  0.70209752  0.70156053  1
  Sc  Sc65  1  0.49010417  0.09966473  0.70292340  1
  Sc  Sc66  1  0.29622529  0.51437879  0.90049586  1
  Sc  Sc67  1  0.29222508  0.29057181  0.90695957  1
  Sc  Sc68  1  0.29892602  0.89967948  0.70123751  1
  Sc  Sc69  1  0.70456524  0.49690114  0.09061771  1
  Sc  Sc70  1  0.89736095  0.29998770  0.09404204  1
  Sc  Sc71  1  0.89720283  0.50026720  0.09731310  1
  Sc  Sc72  1  0.90879108  0.90087044  0.50011802  1
  Sc  Sc73  1  0.70174791  0.50171195  0.49184903  1
  Sc  Sc74  1  0.69802683  0.70288615  0.31739732  1
  Sc  Sc75  1  0.10223382  0.70435578  0.90380805  1
  Sc  Sc76  1  0.11046217  0.29060501  0.09003563  1
  Sc  Sc77  1  0.30272945  0.70694599  0.29770623  1
  Sc  Sc78  1  0.71110756  0.10237475  0.90430218  1
  Sc  Sc79  1  0.90619377  0.70615342  0.09260489  1
  Sc  Sc80  1  0.88850936  0.29423176  0.90139511  1
  Sc  Sc81  1  0.90317518  0.90520685  0.10128766  1
  Sc  Sc82  1  0.90517740  0.89634216  0.90832168  1
  Sc  Sc83  1  0.49230725  0.89973677  0.89463511  1
  Sc  Sc84  1  0.49258302  0.51106142  0.10065641  1
  Sc  Sc85  1  0.30058261  0.09584209  0.50554099  1
  Sc  Sc86  1  0.90286480  0.09441789  0.49670095  1
  Sc  Sc87  1  0.29767092  0.29739406  0.68949183  1
  Sc  Sc88  1  0.10707048  0.28831529  0.30693966  1
  Sc  Sc89  1  0.89682324  0.50143249  0.29863356  1
  Sc  Sc90  1  0.90687303  0.09954797  0.90999277  1
  Sc  Sc91  1  0.71493761  0.30045565  0.70125266  1
  Sc  Sc92  1  0.09469010  0.10153085  0.30437094  1
  Sc  Sc93  1  0.69613051  0.49841387  0.69816874  1
  Sc  Sc94  1  0.08777175  0.69910971  0.70903667  1
  Sc  Sc95  1  0.90077493  0.30531422  0.50435339  1
  Sc  Sc96  1  0.48660817  0.10131365  0.89563613  1
  Sc  Sc97  1  0.30058327  0.90412812  0.49794946  1
  Sc  Sc98  1  0.09995678  0.90080373  0.70465521  1
  Sc  Sc99  1  0.50069877  0.49368377  0.30374441  1
  Nb  Nb100  1  0.29961036  0.49838513  0.10166019  1
  Nb  Nb101  1  0.69771927  0.30210828  0.49410272  1
  Nb  Nb102  1  0.10060363  0.11064267  0.89921450  1
  Nb  Nb103  1  0.69498966  0.89827785  0.70451414  1
  Nb  Nb104  1  0.10515517  0.49700230  0.49788087  1
  Nb  Nb105  1  0.30042873  0.30145109  0.29863212  1
  Nb  Nb106  1  0.50034594  0.10118857  0.09762574  1
  Nb  Nb107  1  0.50637487  0.69529938  0.69114781  1
  Nb  Nb108  1  0.89747065  0.09991770  0.10774621  1
  Nb  Nb109  1  0.89317672  0.69720111  0.70079003  1
  Nb  Nb110  1  0.90525964  0.30484376  0.69694949  1
  Nb  Nb111  1  0.90208176  0.10825342  0.29901355  1
  Nb  Nb112  1  0.69268025  0.70142577  0.69680895  1
  Nb  Nb113  1  0.09674275  0.29285328  0.90109827  1
  Nb  Nb114  1  0.29951137  0.69807776  0.50177911  1
  Nb  Nb115  1  0.29960334  0.09393834  0.69684027  1
  Nb  Nb116  1  0.69545776  0.30834096  0.90313452  1
  Nb  Nb117  1  0.10459830  0.89885225  0.49018972  1
  Nb  Nb118  1  0.09747582  0.10537592  0.50278491  1
  Nb  Nb119  1  0.69072418  0.49186111  0.89889556  1
  Nb  Nb120  1  0.50103530  0.90031796  0.10215320  1
  Nb  Nb121  1  0.29577405  0.50019744  0.49855841  1
  Nb  Nb122  1  0.29735570  0.09936492  0.29696031  1
  Nb  Nb123  1  0.50654341  0.49536851  0.89654036  1
  Nb  Nb124  1  0.10437718  0.88889891  0.31001274  1
  Nb  Nb125  1  0.39830889  0.40436264  -0.00213716  1
  Nb  Nb126  1  0.00898229  0.40273488  0.39833593  1
  Nb  Nb127  1  0.60224910  -0.00339950  0.60575563  1
  Nb  Nb128  1  0.00863681  0.39699171  -0.00574594  1
  Nb  Nb129  1  -0.00056484  0.39413816  0.80238590  1
  Nb  Nb130  1  0.79563011  0.79712901  0.79475863  1
  Nb  Nb131  1  0.79868434  0.79659960  0.20344482  1
  Nb  Nb132  1  0.79612703  0.79899385  0.60880548  1
  Nb  Nb133  1  0.19880062  0.60453314  0.59168664  1
  Nb  Nb134  1  0.79971829  -0.00836900  0.79844694  1
  Nb  Nb135  1  0.59371088  0.00436007  0.00343782  1
  Nb  Nb136  1  0.40069261  0.40343499  0.80663726  1
  Nb  Nb137  1  0.60588119  0.20577945  0.80720647  1
  Nb  Nb138  1  0.59927290  0.19872567  -0.00054663  1
  Nb  Nb139  1  0.20327573  0.39760185  0.20002345  1
  Nb  Nb140  1  0.20336263  0.60031336  0.40382606  1
  Nb  Nb141  1  0.19582421  0.79438391  0.59240197  1
  Nb  Nb142  1  0.60655416  0.60501715  0.20095526  1
  Nb  Nb143  1  0.79379576  0.60551920  0.79634189  1
  Nb  Nb144  1  0.80107496  0.20440712  0.39511635  1
  Nb  Nb145  1  0.00380637  0.20045731  0.60487506  1
  Nb  Nb146  1  0.79358564  0.60959359  0.19845012  1
  Nb  Nb147  1  0.60085804  0.39235604  0.59449107  1
  Nb  Nb148  1  0.01196708  0.40008404  0.19576611  1
  Nb  Nb149  1  0.80317201  0.19751556  0.20574293  1
  Pd  Pd150  1  0.00584079  -0.00242126  -0.00264951  1
  Pd  Pd151  1  0.19784882  0.79616875  0.00746102  1
  Pd  Pd152  1  0.40669799  0.79271760  0.79935610  1
  Pd  Pd153  1  0.58951901  -0.00219818  0.40890855  1
  Pd  Pd154  1  0.00938139  0.60714104  0.59623752  1
  Pd  Pd155  1  0.80566319  0.40858595  0.80305633  1
  Pd  Pd156  1  0.60438529  0.20032957  0.60925549  1
  Pd  Pd157  1  0.80146127  0.19647263  0.80329737  1
  Pd  Pd158  1  0.39341348  0.80352430  0.40170014  1
  Pd  Pd159  1  0.19150547  0.00765611  0.20145535  1
  Pd  Pd160  1  -0.00282430  0.80120182  0.80534028  1
  Pd  Pd161  1  0.20541441  0.39462141  0.80596436  1
  Pd  Pd162  1  0.40284759  0.40119359  0.59794888  1
  Pd  Pd163  1  -0.00159745  0.21009409  0.19163178  1
  Pd  Pd164  1  0.59338067  0.80614816  0.41151564  1
  Pd  Pd165  1  0.20893971  0.79531851  0.19157499  1
  Pd  Pd166  1  0.00480855  -0.00054229  0.39618643  1
  Pd  Pd167  1  0.19629450  0.00894617  0.40149668  1
  Pd  Pd168  1  0.19459372  -0.00831738  0.59778256  1
  Pd  Pd169  1  0.60669994  0.19778107  0.39064726  1
  Pd  Pd170  1  0.39829118  0.19270241  0.20734206  1
  Pd  Pd171  1  0.00310487  0.59542780  0.00074621  1
  Pd  Pd172  1  0.59413801  0.41329871  0.19111197  1
  Pd  Pd173  1  0.59360307  0.00217733  0.19657006  1
  Pd  Pd174  1  0.60558704  0.80833893  0.58899446  1
  Pd  Pd175  1  0.00639003  -0.00324276  0.20901837  1
  Pd  Pd176  1  0.58962209  0.40105291  0.01302293  1
  Pd  Pd177  1  0.20272644  0.40137703  -0.00161620  1
  Pd  Pd178  1  0.79843423  -0.00396548  -0.00277823  1
  Pd  Pd179  1  0.01122113  0.00329774  0.59887253  1
  Pd  Pd180  1  0.80537523  0.79619758  0.40380884  1
  Pd  Pd181  1  0.59481505  0.79150797  0.80586778  1
  Pd  Pd182  1  0.19976072  0.19687956  0.19841926  1
  Pd  Pd183  1  0.39702146  0.60057893  0.39511480  1
  Pd  Pd184  1  0.21023015  0.19143394  0.40410914  1
  Pd  Pd185  1  0.60120674  0.01181512  0.80486327  1
  Pd  Pd186  1  0.39410027  0.20700376  0.79914479  1
  Pd  Pd187  1  0.60311733  0.60073180  0.79811938  1
  Pd  Pd188  1  0.79749651  -0.00523848  0.60291102  1
  Pd  Pd189  1  0.21094665  0.19938328  0.79768875  1
  Pd  Pd190  1  0.39233404  0.19583193  0.39652060  1
  Pd  Pd191  1  0.20143844  0.61305794  0.78986119  1
  Pd  Pd192  1  0.80803438  0.20023165  0.58995624  1
  Pd  Pd193  1  0.19356906  0.00080947  0.00216515  1
  Pd  Pd194  1  0.40462620  -0.00390007  -0.00090293  1
  Pd  Pd195  1  0.40059951  0.00660543  0.39360631  1
  Pd  Pd196  1  0.79143108  0.40411858  0.59473496  1
  Pd  Pd197  1  0.40598153  0.60205762  0.20799618  1
  Pd  Pd198  1  -0.00792566  0.20381039  0.80004766  1
  Pd  Pd199  1  0.00191700  0.79728354  0.59991143  1
  Rh  Rh200  1  -0.01127448  0.59059742  0.80224223  1
  Rh  Rh201  1  0.20567416  0.40588288  0.60164724  1
  Rh  Rh202  1  0.39463613  0.80036823  0.19661003  1
  Rh  Rh203  1  0.80645915  0.80431715  0.00271496  1
  Rh  Rh204  1  0.80446378  0.01066280  0.39929243  1
  Rh  Rh205  1  0.19900273  0.19161154  0.59850485  1
  Rh  Rh206  1  -0.00548638  0.20369064  0.00263571  1
  Rh  Rh207  1  0.79389884  0.59662387  -0.00229496  1
  Rh  Rh208  1  0.00860289  0.80377478  0.00358071  1
  Rh  Rh209  1  0.40261446  0.20273355  -0.00054177  1
  Rh  Rh210  1  0.40543959  0.59952268  0.80079838  1
  Rh  Rh211  1  0.39697897  0.39926278  0.19340801  1
  Rh  Rh212  1  0.39198866  0.79961579  0.60070558  1
  Rh  Rh213  1  0.59907015  0.59122138  0.00812865  1
  Rh  Rh214  1  0.80176469  0.60075770  0.39437800  1
  Rh  Rh215  1  0.60752580  0.19796840  0.20047868  1
  Rh  Rh216  1  0.40131868  0.39474578  0.40586669  1
  Rh  Rh217  1  0.39323600  -0.00470660  0.79437596  1
  Rh  Rh218  1  -0.00752923  0.80831479  0.20457164  1
  Rh  Rh219  1  0.19615564  0.40453581  0.38945633  1
  Rh  Rh220  1  0.78992091  0.60227999  0.60458611  1
  Rh  Rh221  1  0.00392616  0.59171519  0.40327618  1
  Rh  Rh222  1  -0.01352175  0.59489267  0.19025620  1
  Rh  Rh223  1  0.60153699  0.58829011  0.59587351  1
  Rh  Rh224  1  0.80642299  0.40214880  -0.00699263  1
  Rh  Rh225  1  0.80295836  0.00113401  0.20262181  1
  Rh  Rh226  1  0.40136049  0.00585520  0.20181987  1
  Rh  Rh227  1  0.19796122  0.79876230  0.78934020  1
  Rh  Rh228  1  -0.00508264  0.20627958  0.41622389  1
  Rh  Rh229  1  0.80849631  0.39606769  0.40561024  1
  Rh  Rh230  1  0.19887638  -0.00083573  0.80150376  1
  Rh  Rh231  1  0.59370002  0.59625062  0.39620283  1
  Rh  Rh232  1  0.60919515  0.79134839  0.20070438  1
  Rh  Rh233  1  0.59793462  0.39236912  0.78717233  1
  Rh  Rh234  1  0.20035633  0.60716379  -0.00273275  1
  Rh  Rh235  1  -0.01019318  0.80896652  0.39519913  1
  Rh  Rh236  1  0.20987215  0.79757344  0.40349872  1
  Rh  Rh237  1  0.21551206  0.59894739  0.20786157  1
  Rh  Rh238  1  0.80880771  0.40276178  0.19586927  1
  Rh  Rh239  1  0.40009162  0.80429477  -0.00270853  1
  Rh  Rh240  1  0.39433934  0.59972664  0.60170497  1
  Rh  Rh241  1  0.20327445  0.18707171  0.00028864  1
  Rh  Rh242  1  0.40038761  0.59243117  -0.00622892  1
  Rh  Rh243  1  0.58523437  0.81052041  -0.00593740  1
  Rh  Rh244  1  0.00684979  0.39205643  0.59843819  1
  Rh  Rh245  1  -0.00208142  0.00295001  0.80948359  1
  Rh  Rh246  1  0.38943540  0.19607188  0.59924798  1
  Rh  Rh247  1  0.59184180  0.40141641  0.40973052  1
  Rh  Rh248  1  0.79688705  0.20023902  0.00809197  1
  Rh  Rh249  1  0.40524281  -0.00317633  0.60624241  1
