# generated using pymatgen
data_ZrScNbPdRh
_symmetry_space_group_name_H-M   'P 1'
_cell_length_a   16.55237270
_cell_length_b   16.55086722
_cell_length_c   16.55316538
_cell_angle_alpha   90.00488334
_cell_angle_beta   89.98687417
_cell_angle_gamma   90.00134367
_symmetry_Int_Tables_number   1
_chemical_formula_structural   ZrScNbPdRh
_chemical_formula_sum   'Zr50 Sc50 Nb50 Pd50 Rh50'
_cell_volume   4534.84086824
_cell_formula_units_Z   50
loop_
 _symmetry_equiv_pos_site_id
 _symmetry_equiv_pos_as_xyz
  1  'x, y, z'
loop_
 _atom_site_type_symbol
 _atom_site_label
 _atom_site_symmetry_multiplicity
 _atom_site_fract_x
 _atom_site_fract_y
 _atom_site_fract_z
 _atom_site_occupancy
  Zr  Zr0  1  0.49799927  0.08959388  0.70145683  1
  Zr  Zr1  1  0.90282083  0.88726237  0.89201058  1
  Zr  Zr2  1  0.11234355  0.90177012  0.50185300  1
  Zr  Zr3  1  0.50092762  0.69655829  0.30730019  1
  Zr  Zr4  1  0.29482032  0.51144412  0.30298179  1
  Zr  Zr5  1  0.49852285  0.29950967  0.50377919  1
  Zr  Zr6  1  0.30042479  0.90330205  0.69554188  1
  Zr  Zr7  1  0.10332072  0.10083952  0.89573255  1
  Zr  Zr8  1  0.09807059  0.49707720  0.29084282  1
  Zr  Zr9  1  0.70357871  0.70349436  0.30126616  1
  Zr  Zr10  1  0.29878504  0.08521770  0.50114545  1
  Zr  Zr11  1  0.10066786  0.70154793  0.69676689  1
  Zr  Zr12  1  0.89991790  0.10318414  0.10989004  1
  Zr  Zr13  1  0.29179379  0.89959900  0.30987709  1
  Zr  Zr14  1  0.70297367  0.09709048  0.29993672  1
  Zr  Zr15  1  0.70150774  0.10096242  0.90042892  1
  Zr  Zr16  1  0.29488175  0.50754983  0.70417338  1
  Zr  Zr17  1  0.49579985  0.50377436  0.90966311  1
  Zr  Zr18  1  0.09084328  0.89792913  0.69815170  1
  Zr  Zr19  1  0.89747184  0.50628472  0.89499438  1
  Zr  Zr20  1  0.30923442  0.09771192  0.29845290  1
  Zr  Zr21  1  0.50924086  0.90631847  0.51629088  1
  Zr  Zr22  1  0.09819238  0.30395473  0.70320745  1
  Zr  Zr23  1  0.09618073  0.30568236  0.29874658  1
  Zr  Zr24  1  0.90099343  0.69503745  0.30288408  1
  Zr  Zr25  1  0.50472843  0.10235710  0.29312991  1
  Zr  Zr26  1  0.70717072  0.69857458  0.09069215  1
  Zr  Zr27  1  0.89602881  0.10126239  0.50245500  1
  Zr  Zr28  1  0.69356420  0.49618639  0.08928375  1
  Zr  Zr29  1  0.70493564  0.30546715  0.70563577  1
  Zr  Zr30  1  0.50046664  0.69983857  0.09352530  1
  Zr  Zr31  1  0.50285535  0.49623864  0.70491988  1
  Zr  Zr32  1  0.11359233  0.69732772  0.29669610  1
  Zr  Zr33  1  0.09615959  0.90312636  0.90090859  1
  Zr  Zr34  1  0.69636181  0.29441725  0.28981919  1
  Zr  Zr35  1  0.70664598  0.30562778  0.89994133  1
  Zr  Zr36  1  0.29691178  0.90016371  0.89639036  1
  Zr  Zr37  1  0.70555182  0.89959622  0.30923925  1
  Zr  Zr38  1  0.90429458  0.49976935  0.30103512  1
  Zr  Zr39  1  0.09967708  0.10036296  0.69717196  1
  Zr  Zr40  1  0.50460033  0.10379722  0.50215367  1
  Zr  Zr41  1  0.50281700  0.49823867  0.30088494  1
  Zr  Zr42  1  0.49455523  0.29591309  0.69837448  1
  Zr  Zr43  1  0.89829858  0.10406321  0.69798979  1
  Zr  Zr44  1  0.10046214  0.89379141  0.30261334  1
  Zr  Zr45  1  0.29379307  0.49908433  0.09145942  1
  Zr  Zr46  1  0.89886874  0.90309549  0.29860592  1
  Zr  Zr47  1  0.30694787  0.49914058  0.50634668  1
  Zr  Zr48  1  0.10086777  0.10214759  0.50039123  1
  Zr  Zr49  1  0.90769713  0.30368848  0.49505804  1
  Sc  Sc50  1  0.28260406  0.69891652  0.09885639  1
  Sc  Sc51  1  0.30258610  0.10428225  0.90053715  1
  Sc  Sc52  1  0.90099773  0.29845296  0.09493202  1
  Sc  Sc53  1  0.70096417  0.70212810  0.50036698  1
  Sc  Sc54  1  0.49157871  0.69975969  0.89196594  1
  Sc  Sc55  1  0.10107034  0.89820183  0.09207257  1
  Sc  Sc56  1  0.30115753  0.30244333  0.70412523  1
  Sc  Sc57  1  0.68305351  0.89941815  0.69777181  1
  Sc  Sc58  1  0.08713105  0.70024521  0.90557324  1
  Sc  Sc59  1  0.29760391  0.29781225  0.90358266  1
  Sc  Sc60  1  0.70214059  0.70140366  0.69942176  1
  Sc  Sc61  1  0.90333909  0.70356180  0.70895493  1
  Sc  Sc62  1  0.50325028  0.90340960  0.89235737  1
  Sc  Sc63  1  0.09841105  0.30281123  0.89827239  1
  Sc  Sc64  1  0.70224432  0.29578493  0.09306412  1
  Sc  Sc65  1  0.30110270  0.68902097  0.89824404  1
  Sc  Sc66  1  0.50526590  0.29667779  0.10013149  1
  Sc  Sc67  1  0.89778429  0.49863604  0.69668989  1
  Sc  Sc68  1  0.09734654  0.30004004  0.50378016  1
  Sc  Sc69  1  0.09022057  0.09601054  0.09252445  1
  Sc  Sc70  1  0.90042425  0.50242406  0.50383425  1
  Sc  Sc71  1  0.49645682  0.30015850  0.89436312  1
  Sc  Sc72  1  0.29346556  0.90385732  0.09900009  1
  Sc  Sc73  1  0.89806813  0.69784370  0.50009051  1
  Sc  Sc74  1  0.50795828  0.29309737  0.29247701  1
  Sc  Sc75  1  0.09430244  0.49943818  0.70734687  1
  Sc  Sc76  1  0.30222179  0.10486116  0.70068468  1
  Sc  Sc77  1  0.50653096  0.69432245  0.50498455  1
  Sc  Sc78  1  0.50071970  0.50461618  0.50536842  1
  Sc  Sc79  1  0.70351724  0.50552186  0.51807506  1
  Sc  Sc80  1  0.49604353  0.09610906  0.90245973  1
  Sc  Sc81  1  0.90982893  0.29257310  0.29292334  1
  Sc  Sc82  1  0.90230247  0.89521993  0.49529343  1
  Sc  Sc83  1  0.91006664  0.91159621  0.09452638  1
  Sc  Sc84  1  0.51059740  0.90315094  0.29483364  1
  Sc  Sc85  1  0.70448651  0.09934715  0.09155405  1
  Sc  Sc86  1  0.09107172  0.70937191  0.50321412  1
  Sc  Sc87  1  0.29748154  0.69086950  0.50486798  1
  Sc  Sc88  1  0.68717933  0.89776472  0.09350957  1
  Sc  Sc89  1  0.69661500  0.28819465  0.50778103  1
  Sc  Sc90  1  0.09226942  0.49546122  0.50650325  1
  Sc  Sc91  1  0.10047375  0.31345672  0.09900570  1
  Sc  Sc92  1  0.29854405  0.50000921  0.89913372  1
  Sc  Sc93  1  0.08520148  0.10843167  0.29262001  1
  Sc  Sc94  1  0.69901135  0.89609094  0.90172870  1
  Sc  Sc95  1  0.70305060  0.50650292  0.29364717  1
  Sc  Sc96  1  0.90052917  0.30242901  0.89642361  1
  Sc  Sc97  1  0.29984177  0.29549331  0.51741903  1
  Sc  Sc98  1  0.90038425  0.10418851  0.90806539  1
  Sc  Sc99  1  0.09734975  0.49675990  0.89836003  1
  Nb  Nb100  1  0.70048396  0.49766828  0.89246635  1
  Nb  Nb101  1  0.90168181  0.69452156  0.09661154  1
  Nb  Nb102  1  0.88969871  0.70307651  0.90424663  1
  Nb  Nb103  1  0.09481772  0.69919953  0.09987544  1
  Nb  Nb104  1  0.49737403  0.89041081  0.70521558  1
  Nb  Nb105  1  0.69969103  0.49499828  0.71036538  1
  Nb  Nb106  1  0.90323902  0.51164515  0.11008367  1
  Nb  Nb107  1  0.30196778  0.70250084  0.29792056  1
  Nb  Nb108  1  0.70980630  0.10699035  0.69635825  1
  Nb  Nb109  1  0.70210214  0.09464811  0.50192196  1
  Nb  Nb110  1  0.49701893  0.89747751  0.09454877  1
  Nb  Nb111  1  0.89855458  0.89731464  0.70294175  1
  Nb  Nb112  1  0.30401131  0.89999180  0.50223570  1
  Nb  Nb113  1  0.49820499  0.70988428  0.70614379  1
  Nb  Nb114  1  0.89637199  0.29875814  0.70061675  1
  Nb  Nb115  1  0.70400813  0.90264379  0.50073517  1
  Nb  Nb116  1  0.09756964  0.50822837  0.10160464  1
  Nb  Nb117  1  0.30158818  0.70247127  0.70533145  1
  Nb  Nb118  1  0.29972337  0.30172759  0.29533765  1
  Nb  Nb119  1  0.72120747  0.69486633  0.90112916  1
  Nb  Nb120  1  0.31175828  0.10704409  0.10482858  1
  Nb  Nb121  1  0.29945724  0.29841075  0.10540947  1
  Nb  Nb122  1  0.89786857  0.09795012  0.29622887  1
  Nb  Nb123  1  0.49700021  0.50243699  0.10078034  1
  Nb  Nb124  1  0.48968359  0.08716017  0.10098735  1
  Nb  Nb125  1  0.20101613  0.00940043  0.20113778  1
  Nb  Nb126  1  0.20637303  0.39642782  0.39891698  1
  Nb  Nb127  1  0.80632347  0.79708195  0.19530190  1
  Nb  Nb128  1  0.39971120  0.60126332  0.19727258  1
  Nb  Nb129  1  0.39746201  0.79698140  0.20165190  1
  Nb  Nb130  1  0.39922622  0.39435181  0.39591066  1
  Nb  Nb131  1  0.80002414  0.19689840  0.39655927  1
  Nb  Nb132  1  0.39700119  0.40335576  0.19946932  1
  Nb  Nb133  1  0.40012078  0.80035419  0.60324118  1
  Nb  Nb134  1  0.39943893  0.80229447  0.00372184  1
  Nb  Nb135  1  0.39712817  0.20285260  0.39864881  1
  Nb  Nb136  1  -0.00281445  0.00305152  0.39725226  1
  Nb  Nb137  1  0.20548335  0.19943962  0.19669439  1
  Nb  Nb138  1  0.79482882  0.39370012  0.39600184  1
  Nb  Nb139  1  0.39915389  0.80256121  0.40525191  1
  Nb  Nb140  1  0.20620625  0.20296509  0.39407795  1
  Nb  Nb141  1  0.60454820  0.39755134  0.40050240  1
  Nb  Nb142  1  -0.00236571  0.79171882  0.19592260  1
  Nb  Nb143  1  0.60785741  0.59694652  0.80419419  1
  Nb  Nb144  1  0.79909077  0.80793429  0.60232940  1
  Nb  Nb145  1  0.59588586  0.60162279  0.19299612  1
  Nb  Nb146  1  0.19897319  0.79846494  0.79606475  1
  Nb  Nb147  1  0.79947233  -0.00134731  0.79315493  1
  Nb  Nb148  1  0.80270186  0.40422341  0.19941843  1
  Nb  Nb149  1  0.60589881  0.19811570  0.79630417  1
  Pd  Pd150  1  0.19538888  0.19834915  0.00797721  1
  Pd  Pd151  1  0.39657285  -0.01491989  0.20164876  1
  Pd  Pd152  1  0.19043557  0.59541207  0.41391229  1
  Pd  Pd153  1  -0.00182883  0.59684521  -0.00431158  1
  Pd  Pd154  1  -0.00011272  0.20597649  0.60184767  1
  Pd  Pd155  1  0.39664819  -0.00644185  -0.00570200  1
  Pd  Pd156  1  0.59406224  0.79393170  -0.01522474  1
  Pd  Pd157  1  0.20689081  0.78946080  0.41270629  1
  Pd  Pd158  1  0.81018822  0.40642107  0.00573916  1
  Pd  Pd159  1  -0.00514634  0.60204627  0.60499405  1
  Pd  Pd160  1  0.80730131  0.81250896  0.01037533  1
  Pd  Pd161  1  0.60173768  0.19561313  0.60978797  1
  Pd  Pd162  1  0.40159466  0.39074372  0.00543662  1
  Pd  Pd163  1  0.60156392  0.18759420  0.18267997  1
  Pd  Pd164  1  0.79740055  -0.00917160  0.60545818  1
  Pd  Pd165  1  0.59357382  0.19517234  -0.00424617  1
  Pd  Pd166  1  0.60168216  0.40026358  0.59660398  1
  Pd  Pd167  1  0.41454148  -0.00434475  0.40019226  1
  Pd  Pd168  1  0.19202914  0.59839005  0.59768407  1
  Pd  Pd169  1  0.39505668  0.40270395  0.80224082  1
  Pd  Pd170  1  0.79124854  -0.01038477  0.19001800  1
  Pd  Pd171  1  0.60221435  0.79565353  0.19911748  1
  Pd  Pd172  1  0.20181404  -0.00151593  0.79432216  1
  Pd  Pd173  1  0.20334987  0.20455517  0.79807266  1
  Pd  Pd174  1  0.19713099  0.40192872  0.59976568  1
  Pd  Pd175  1  0.80183151  0.39599478  0.59476734  1
  Pd  Pd176  1  0.59349211  0.39392857  -0.00520190  1
  Pd  Pd177  1  0.20244991  0.79266183  -0.00991968  1
  Pd  Pd178  1  0.00424322  0.20454123  0.00044691  1
  Pd  Pd179  1  0.61092864  0.58972133  0.40165696  1
  Pd  Pd180  1  0.79474054  0.59103372  0.40781517  1
  Pd  Pd181  1  0.59443766  0.80343225  0.40903164  1
  Pd  Pd182  1  0.18944445  0.60597872  0.80774688  1
  Pd  Pd183  1  -0.00340832  -0.00594061  0.59139751  1
  Pd  Pd184  1  0.80268522  -0.00603383  -0.00714053  1
  Pd  Pd185  1  0.20616905  0.01274533  0.00735487  1
  Pd  Pd186  1  0.60179764  0.60464205  0.61325937  1
  Pd  Pd187  1  -0.00269114  0.20167058  0.80308578  1
  Pd  Pd188  1  -0.00974005  0.00758984  0.80369188  1
  Pd  Pd189  1  0.60712882  0.00601650  0.79764657  1
  Pd  Pd190  1  0.60295070  0.60752600  -0.00910732  1
  Pd  Pd191  1  0.40578966  0.60669496  0.60932801  1
  Pd  Pd192  1  0.40619638  0.20494111  0.00082843  1
  Pd  Pd193  1  -0.00565068  0.40809028  0.00168053  1
  Pd  Pd194  1  0.60924493  0.78883481  0.80978113  1
  Pd  Pd195  1  0.60725813  0.00288487  0.19048078  1
  Pd  Pd196  1  0.59798623  0.00029420  0.40200923  1
  Pd  Pd197  1  0.19700858  0.40086179  -0.00542411  1
  Pd  Pd198  1  0.00866580  0.59879480  0.40306088  1
  Pd  Pd199  1  0.80091170  0.60036695  0.78892317  1
  Rh  Rh200  1  0.39860481  -0.00002573  0.80122015  1
  Rh  Rh201  1  0.80081836  0.79794451  0.40519342  1
  Rh  Rh202  1  0.79117820  0.80878754  0.79143463  1
  Rh  Rh203  1  0.18431739  0.01298945  0.38882187  1
  Rh  Rh204  1  0.80970495  0.40166137  0.79877186  1
  Rh  Rh205  1  0.20267559  0.40161432  0.19917943  1
  Rh  Rh206  1  -0.00285811  0.00202057  -0.00945417  1
  Rh  Rh207  1  -0.00217111  0.19145805  0.40250099  1
  Rh  Rh208  1  0.40485783  0.19790054  0.80153430  1
  Rh  Rh209  1  0.00714375  0.60751769  0.20223456  1
  Rh  Rh210  1  0.80390428  0.20226412  -0.00163823  1
  Rh  Rh211  1  0.19633417  0.80855566  0.19409095  1
  Rh  Rh212  1  0.00166601  0.40509229  0.40000149  1
  Rh  Rh213  1  0.79857638  0.19642573  0.80407004  1
  Rh  Rh214  1  0.40166388  -0.00305832  0.60505549  1
  Rh  Rh215  1  -0.01078869  0.80181607  0.59985176  1
  Rh  Rh216  1  0.00696329  0.20638909  0.18740327  1
  Rh  Rh217  1  0.20133455  0.39977664  0.80252186  1
  Rh  Rh218  1  0.60778194  0.00652149  0.60604307  1
  Rh  Rh219  1  0.39155090  0.60767939  0.00570407  1
  Rh  Rh220  1  -0.00605353  0.79817522  0.00613782  1
  Rh  Rh221  1  0.40463566  0.20791575  0.19864214  1
  Rh  Rh222  1  0.39805537  0.60281458  0.40076816  1
  Rh  Rh223  1  0.00582288  0.79284804  0.80055017  1
  Rh  Rh224  1  0.80286030  0.61086748  0.60546967  1
  Rh  Rh225  1  0.39576682  0.19140027  0.59665988  1
  Rh  Rh226  1  0.60284001  0.20013496  0.40261841  1
  Rh  Rh227  1  0.19870630  0.00121501  0.60689035  1
  Rh  Rh228  1  0.40092361  0.40501383  0.60347221  1
  Rh  Rh229  1  -0.00180530  0.80164216  0.39445313  1
  Rh  Rh230  1  0.59556807  0.39796048  0.80599250  1
  Rh  Rh231  1  0.59295690  0.00183280  0.00309484  1
  Rh  Rh232  1  -0.00398633  0.39788713  0.60759427  1
  Rh  Rh233  1  0.40736747  0.59423902  0.79536834  1
  Rh  Rh234  1  0.80471024  0.58823522  0.00184507  1
  Rh  Rh235  1  0.60104561  0.79491370  0.59691970  1
  Rh  Rh236  1  -0.00410522  0.60329132  0.80371251  1
  Rh  Rh237  1  0.20130139  0.59755522  0.19261738  1
  Rh  Rh238  1  0.20837860  0.79691357  0.60308123  1
  Rh  Rh239  1  0.60225303  0.40732687  0.20054022  1
  Rh  Rh240  1  0.80523819  0.00657937  0.40353315  1
  Rh  Rh241  1  0.79086436  0.59931500  0.19116509  1
  Rh  Rh242  1  0.80332045  0.20700509  0.59333335  1
  Rh  Rh243  1  -0.00806077  0.40015387  0.19015530  1
  Rh  Rh244  1  0.39010451  0.80302369  0.80227276  1
  Rh  Rh245  1  -0.00446290  0.39894544  0.79599107  1
  Rh  Rh246  1  0.19032763  0.59850515  -0.00308026  1
  Rh  Rh247  1  0.20153287  0.19658908  0.59937981  1
  Rh  Rh248  1  0.00963703  -0.00933869  0.20613368  1
  Rh  Rh249  1  0.80314216  0.20525934  0.20051443  1
