# generated using pymatgen
data_ZrScNbPdRh
_symmetry_space_group_name_H-M   'P 1'
_cell_length_a   16.55793123
_cell_length_b   16.55451403
_cell_length_c   16.55746583
_cell_angle_alpha   89.95474881
_cell_angle_beta   90.01398121
_cell_angle_gamma   89.99943231
_symmetry_Int_Tables_number   1
_chemical_formula_structural   ZrScNbPdRh
_chemical_formula_sum   'Zr50 Sc50 Nb50 Pd50 Rh50'
_cell_volume   4538.54065391
_cell_formula_units_Z   50
loop_
 _symmetry_equiv_pos_site_id
 _symmetry_equiv_pos_as_xyz
  1  'x, y, z'
loop_
 _atom_site_type_symbol
 _atom_site_label
 _atom_site_symmetry_multiplicity
 _atom_site_fract_x
 _atom_site_fract_y
 _atom_site_fract_z
 _atom_site_occupancy
  Zr  Zr0  1  0.69786809  0.49611655  0.09522699  1
  Zr  Zr1  1  0.10406935  0.10598372  0.10601106  1
  Zr  Zr2  1  0.50023159  0.69898668  0.90472857  1
  Zr  Zr3  1  0.90023085  0.89682846  0.69812264  1
  Zr  Zr4  1  0.89865599  0.30524697  0.30940050  1
  Zr  Zr5  1  0.29196782  0.70266339  0.69720554  1
  Zr  Zr6  1  0.70942066  0.90255656  0.89996289  1
  Zr  Zr7  1  0.48184286  0.89942871  0.09773074  1
  Zr  Zr8  1  0.30070723  0.70429529  0.50123373  1
  Zr  Zr9  1  0.10073284  0.69810132  0.49755004  1
  Zr  Zr10  1  0.30127757  0.89464723  0.69019705  1
  Zr  Zr11  1  0.29715938  0.30831081  0.49838062  1
  Zr  Zr12  1  0.50101955  0.49819873  0.69493941  1
  Zr  Zr13  1  0.29615231  0.10157204  0.29980195  1
  Zr  Zr14  1  0.89586904  0.10311152  0.50852435  1
  Zr  Zr15  1  0.69793280  0.49376656  0.50471406  1
  Zr  Zr16  1  0.09201620  0.51439174  0.29731375  1
  Zr  Zr17  1  0.89547673  0.90342017  0.89335466  1
  Zr  Zr18  1  0.70008800  0.30022177  0.09716676  1
  Zr  Zr19  1  0.30357389  0.09123065  0.10375504  1
  Zr  Zr20  1  0.69935905  0.10305361  0.30390397  1
  Zr  Zr21  1  0.09388810  0.89790884  0.89590477  1
  Zr  Zr22  1  0.50340882  0.29616690  0.69079831  1
  Zr  Zr23  1  0.30927293  0.90337024  0.90920132  1
  Zr  Zr24  1  0.49892902  0.70403500  0.10325930  1
  Zr  Zr25  1  0.10265374  0.49706814  0.69642744  1
  Zr  Zr26  1  0.89287296  0.89831985  0.09435186  1
  Zr  Zr27  1  0.69775933  0.09960656  0.50335740  1
  Zr  Zr28  1  0.90033688  0.89094917  0.30737139  1
  Zr  Zr29  1  0.49222733  0.90680090  0.49797476  1
  Zr  Zr30  1  0.69939100  0.50606385  0.90397612  1
  Zr  Zr31  1  0.09973133  0.30581458  0.51485821  1
  Zr  Zr32  1  0.90732358  0.69157460  0.30652175  1
  Zr  Zr33  1  0.49624095  0.49747796  0.29365048  1
  Zr  Zr34  1  0.89423560  0.30126541  0.50233267  1
  Zr  Zr35  1  0.49535757  0.89413668  0.29645435  1
  Zr  Zr36  1  0.49669622  0.69930983  0.49261565  1
  Zr  Zr37  1  0.69390714  0.29465894  0.29942958  1
  Zr  Zr38  1  0.29612305  0.49287596  0.29214551  1
  Zr  Zr39  1  0.49739652  0.69877387  0.69849696  1
  Zr  Zr40  1  0.70015799  0.50286738  0.69168362  1
  Zr  Zr41  1  0.29466295  0.10763688  0.89893673  1
  Zr  Zr42  1  0.90442892  0.29610366  0.10132678  1
  Zr  Zr43  1  0.10676700  0.50122893  0.89873390  1
  Zr  Zr44  1  0.30406632  0.90900120  0.30096598  1
  Zr  Zr45  1  0.90031510  0.69535441  0.09568167  1
  Zr  Zr46  1  0.10114896  0.90267157  0.30286805  1
  Zr  Zr47  1  0.70235028  0.10641161  0.89085951  1
  Zr  Zr48  1  0.10907722  0.09577857  0.30726752  1
  Zr  Zr49  1  0.29761917  0.50695313  0.49362973  1
  Sc  Sc50  1  0.29304156  0.31503358  0.10071555  1
  Sc  Sc51  1  0.09948179  0.49952983  0.10100097  1
  Sc  Sc52  1  0.89513077  0.09752965  0.70553246  1
  Sc  Sc53  1  0.48878821  0.09875585  0.89460382  1
  Sc  Sc54  1  0.90540238  0.29722267  0.90223886  1
  Sc  Sc55  1  0.30275071  0.69893784  0.09594789  1
  Sc  Sc56  1  0.10108099  0.30200786  0.08979150  1
  Sc  Sc57  1  0.69526000  0.70072743  0.30537008  1
  Sc  Sc58  1  0.89719595  0.50465411  0.90473887  1
  Sc  Sc59  1  0.89663188  0.70398238  0.69280471  1
  Sc  Sc60  1  0.89222114  0.50367885  0.69815186  1
  Sc  Sc61  1  0.89710251  0.09655263  0.89559635  1
  Sc  Sc62  1  0.29765954  0.68916022  0.89773943  1
  Sc  Sc63  1  0.70000415  0.89761802  0.29603867  1
  Sc  Sc64  1  0.10847241  0.70128305  0.89653642  1
  Sc  Sc65  1  0.09973395  0.11041421  0.89841061  1
  Sc  Sc66  1  0.49907125  0.50418328  0.09428316  1
  Sc  Sc67  1  0.50049940  0.50616146  0.50666673  1
  Sc  Sc68  1  0.69524359  0.69472023  0.50219495  1
  Sc  Sc69  1  0.70947825  0.09991380  0.10646096  1
  Sc  Sc70  1  0.70206840  0.70309967  0.90056182  1
  Sc  Sc71  1  0.51217140  0.09781230  0.30455618  1
  Sc  Sc72  1  0.09085812  0.10703634  0.71261027  1
  Sc  Sc73  1  0.50892589  0.31488807  0.11110215  1
  Sc  Sc74  1  0.30287116  0.69239125  0.30635229  1
  Sc  Sc75  1  0.49736269  0.89247305  0.89881869  1
  Sc  Sc76  1  0.69864496  0.10484016  0.69491308  1
  Sc  Sc77  1  0.10169537  0.49971977  0.50114696  1
  Sc  Sc78  1  0.69646423  0.90122518  0.51244614  1
  Sc  Sc79  1  0.11114572  0.30240452  0.29479456  1
  Sc  Sc80  1  0.89725062  0.49353492  0.49061654  1
  Sc  Sc81  1  0.69637597  0.69828971  0.09410203  1
  Sc  Sc82  1  0.49791995  0.10633855  0.69524688  1
  Sc  Sc83  1  0.89092678  0.69933206  0.89696780  1
  Sc  Sc84  1  0.10366233  0.69178121  0.09028997  1
  Sc  Sc85  1  0.30337230  0.09059716  0.49301115  1
  Sc  Sc86  1  0.50065555  0.69797108  0.30020987  1
  Sc  Sc87  1  0.30502643  0.29484752  0.69908736  1
  Sc  Sc88  1  0.69825682  0.50281598  0.31030386  1
  Sc  Sc89  1  0.90720929  0.29941286  0.69840610  1
  Sc  Sc90  1  0.70581247  0.89991192  0.09959960  1
  Sc  Sc91  1  0.50030549  0.89806299  0.69477882  1
  Sc  Sc92  1  0.90079529  0.10439715  0.30028164  1
  Sc  Sc93  1  0.70575559  0.29407030  0.50446306  1
  Sc  Sc94  1  0.70298686  0.89659865  0.69743564  1
  Sc  Sc95  1  0.90257334  0.70905298  0.49987311  1
  Sc  Sc96  1  0.10025279  0.89342560  0.49200875  1
  Sc  Sc97  1  0.50286753  0.09800815  0.10871252  1
  Sc  Sc98  1  0.30221088  0.50574468  0.69883695  1
  Sc  Sc99  1  0.49020642  0.30492432  0.89491696  1
  Nb  Nb100  1  0.49891540  0.29651851  0.50179547  1
  Nb  Nb101  1  0.29606169  0.49706542  0.09130333  1
  Nb  Nb102  1  0.30859015  0.48928080  0.90656643  1
  Nb  Nb103  1  0.29355983  0.09693558  0.70275097  1
  Nb  Nb104  1  0.50005473  0.30258455  0.29947591  1
  Nb  Nb105  1  0.90531141  0.09799837  0.09957490  1
  Nb  Nb106  1  0.10108351  0.70223683  0.69850030  1
  Nb  Nb107  1  0.10850365  0.29658700  0.89271020  1
  Nb  Nb108  1  0.70376987  0.69475898  0.70263021  1
  Nb  Nb109  1  0.69518756  0.29918672  0.89663333  1
  Nb  Nb110  1  0.49597117  0.50107140  0.89430152  1
  Nb  Nb111  1  0.90282245  0.49913209  0.29607383  1
  Nb  Nb112  1  0.89903108  0.89947219  0.50588697  1
  Nb  Nb113  1  0.10026423  0.89579711  0.09784999  1
  Nb  Nb114  1  0.30051599  0.90068754  0.10706594  1
  Nb  Nb115  1  0.10143745  0.09802076  0.50109474  1
  Nb  Nb116  1  0.09779309  0.70272909  0.30011408  1
  Nb  Nb117  1  0.69513017  0.30039277  0.70450218  1
  Nb  Nb118  1  0.10156542  0.30268128  0.70869470  1
  Nb  Nb119  1  0.50690438  0.10371611  0.49880647  1
  Nb  Nb120  1  0.30462506  0.89679374  0.49962123  1
  Nb  Nb121  1  0.90194490  0.49947563  0.10350809  1
  Nb  Nb122  1  0.30829728  0.30562075  0.30122495  1
  Nb  Nb123  1  0.29328870  0.30184031  0.90924148  1
  Nb  Nb124  1  0.09849116  0.89365893  0.70166560  1
  Nb  Nb125  1  0.39981547  0.20673863  0.00889491  1
  Nb  Nb126  1  0.59252459  0.39210469  0.40374688  1
  Nb  Nb127  1  0.20400005  0.39582100  0.80466558  1
  Nb  Nb128  1  0.40508429  0.20709407  0.39784703  1
  Nb  Nb129  1  0.79010198  0.39713110  0.80230169  1
  Nb  Nb130  1  0.19448199  -0.00045748  0.60459834  1
  Nb  Nb131  1  0.20022608  -0.00348596  0.79790622  1
  Nb  Nb132  1  0.80627829  0.59249073  0.20030646  1
  Nb  Nb133  1  0.19696971  0.19224213  0.60233230  1
  Nb  Nb134  1  0.60048320  0.00053078  0.80291822  1
  Nb  Nb135  1  0.19625487  -0.00372818  0.00082379  1
  Nb  Nb136  1  0.59779856  0.59678404  0.79935837  1
  Nb  Nb137  1  0.00520784  0.79922316  0.19767370  1
  Nb  Nb138  1  0.60044923  0.00453207  -0.00577338  1
  Nb  Nb139  1  0.00192119  0.00019123  0.00552763  1
  Nb  Nb140  1  0.59651329  0.19925515  -0.00386636  1
  Nb  Nb141  1  0.00839640  0.20058571  0.40813806  1
  Nb  Nb142  1  0.00628165  0.60251705  0.79254227  1
  Nb  Nb143  1  0.80258079  -0.00247839  0.40610986  1
  Nb  Nb144  1  0.40032012  0.20890103  0.20550279  1
  Nb  Nb145  1  0.60076740  0.40224853  0.79968115  1
  Nb  Nb146  1  0.80535237  0.40534711  0.20103285  1
  Nb  Nb147  1  0.00640745  -0.00386886  0.60176621  1
  Nb  Nb148  1  0.19741618  0.80151695  0.19982463  1
  Nb  Nb149  1  -0.00058096  -0.00391438  0.19455699  1
  Pd  Pd150  1  0.40160417  -0.00271159  0.79202590  1
  Pd  Pd151  1  0.00285788  0.40012864  -0.00554499  1
  Pd  Pd152  1  0.00359574  0.19870727  0.21130484  1
  Pd  Pd153  1  0.78936043  0.80479459  0.41016760  1
  Pd  Pd154  1  0.60184508  0.80342540  0.19448727  1
  Pd  Pd155  1  0.60622599  0.79956088  0.79662995  1
  Pd  Pd156  1  0.80773457  0.20898486  0.79484634  1
  Pd  Pd157  1  -0.00861070  0.00610584  0.40428565  1
  Pd  Pd158  1  0.00322516  0.39492747  0.19947088  1
  Pd  Pd159  1  0.39013113  0.19087749  0.58900250  1
  Pd  Pd160  1  0.39863596  0.00770525  0.60144122  1
  Pd  Pd161  1  0.39413514  0.60000961  0.19610325  1
  Pd  Pd162  1  0.20205619  0.20489868  0.40925701  1
  Pd  Pd163  1  0.60025232  -0.00734590  0.19139343  1
  Pd  Pd164  1  0.20749141  0.80513883  0.80428038  1
  Pd  Pd165  1  0.39506771  0.40443355  0.59849989  1
  Pd  Pd166  1  0.80096318  0.59884501  0.40142507  1
  Pd  Pd167  1  -0.00691570  0.59778561  0.59944356  1
  Pd  Pd168  1  0.80692636  0.00002975  0.20981405  1
  Pd  Pd169  1  0.39833134  0.59915297  0.00229017  1
  Pd  Pd170  1  0.39458005  0.79849750  0.80102809  1
  Pd  Pd171  1  0.39638638  0.39465349  0.79436247  1
  Pd  Pd172  1  -0.00410140  0.40710334  0.80399055  1
  Pd  Pd173  1  0.20732884  0.80092098  0.39392551  1
  Pd  Pd174  1  0.80745451  0.39620544  -0.00203699  1
  Pd  Pd175  1  0.60823467  0.59796505  0.20145194  1
  Pd  Pd176  1  0.19095525  0.40587628  0.39424778  1
  Pd  Pd177  1  0.00387635  0.19395499  0.60293785  1
  Pd  Pd178  1  -0.00892487  0.40811454  0.60359700  1
  Pd  Pd179  1  0.60749990  -0.01012570  0.40235961  1
  Pd  Pd180  1  0.79719205  0.19635236  -0.00140359  1
  Pd  Pd181  1  0.59009032  0.39531518  -0.01026811  1
  Pd  Pd182  1  0.59800169  0.79606197  0.59881887  1
  Pd  Pd183  1  0.60353439  0.80548554  0.40434953  1
  Pd  Pd184  1  0.00036615  0.19523694  -0.00549657  1
  Pd  Pd185  1  0.39797801  0.20548527  0.80333049  1
  Pd  Pd186  1  0.20946521  0.21099660  0.19475500  1
  Pd  Pd187  1  0.20013067  0.60009693  0.59951374  1
  Pd  Pd188  1  0.80245604  0.78508196  0.20109189  1
  Pd  Pd189  1  0.00284901  0.60084202  -0.01072109  1
  Pd  Pd190  1  0.39966071  0.60098339  0.79833244  1
  Pd  Pd191  1  -0.00653301  0.78734220  0.79988251  1
  Pd  Pd192  1  0.60105012  0.81022214  0.00448588  1
  Pd  Pd193  1  0.20337695  0.60624757  0.19519565  1
  Pd  Pd194  1  0.40751521  0.40451626  0.40579256  1
  Pd  Pd195  1  -0.00426678  0.79850426  -0.00200134  1
  Pd  Pd196  1  0.80724417  0.60503580  0.58867019  1
  Pd  Pd197  1  0.20726598  0.80200368  0.00273593  1
  Pd  Pd198  1  0.01108425  0.39602590  0.39889093  1
  Pd  Pd199  1  0.80390282  0.20481582  0.20200001  1
  Rh  Rh200  1  0.20747892  0.39418282  0.61335391  1
  Rh  Rh201  1  0.60213375  0.39039532  0.59564285  1
  Rh  Rh202  1  0.40499086  0.39716853  0.00588629  1
  Rh  Rh203  1  0.00541129  0.00185579  0.80089372  1
  Rh  Rh204  1  0.79052663  -0.00029591  0.79075944  1
  Rh  Rh205  1  0.39810970  0.80044305  0.39611202  1
  Rh  Rh206  1  -0.00621592  0.20228308  0.80348695  1
  Rh  Rh207  1  0.40269284  0.59393307  0.39732630  1
  Rh  Rh208  1  0.59044023  0.20052544  0.80478332  1
  Rh  Rh209  1  0.79988984  0.79705987  0.79485061  1
  Rh  Rh210  1  0.39673130  0.40144123  0.19121590  1
  Rh  Rh211  1  0.40917829  0.00982965  0.21135862  1
  Rh  Rh212  1  0.19782295  0.59251863  0.79758504  1
  Rh  Rh213  1  0.20435577  0.20359214  0.79207175  1
  Rh  Rh214  1  0.80041601  0.00895143  0.00022798  1
  Rh  Rh215  1  0.19316965  0.80488838  0.59397538  1
  Rh  Rh216  1  0.59430928  0.59095281  0.40156385  1
  Rh  Rh217  1  0.40685368  0.79534117  0.59623443  1
  Rh  Rh218  1  0.40242498  0.00796380  0.00083852  1
  Rh  Rh219  1  0.19259187  -0.00863687  0.19338084  1
  Rh  Rh220  1  0.59493821  0.19987169  0.19130701  1
  Rh  Rh221  1  0.20539114  -0.00837914  0.41196372  1
  Rh  Rh222  1  0.00004664  0.59758345  0.40942120  1
  Rh  Rh223  1  0.20729213  0.19683948  0.00939265  1
  Rh  Rh224  1  0.00665786  0.80490887  0.59733365  1
  Rh  Rh225  1  0.40584902  0.00774765  0.39620341  1
  Rh  Rh226  1  0.00074973  0.79682444  0.40107342  1
  Rh  Rh227  1  -0.00153870  0.60798624  0.19469543  1
  Rh  Rh228  1  0.19413446  0.40486333  -0.00418835  1
  Rh  Rh229  1  0.80566380  0.19232253  0.40104727  1
  Rh  Rh230  1  0.38935037  0.79098450  0.20526732  1
  Rh  Rh231  1  0.39532700  0.60453173  0.59837386  1
  Rh  Rh232  1  0.39477476  0.79197703  -0.00056822  1
  Rh  Rh233  1  0.79392711  0.79478061  0.59901866  1
  Rh  Rh234  1  0.79740587  0.20548717  0.60974697  1
  Rh  Rh235  1  0.79936331  0.59645870  0.79835328  1
  Rh  Rh236  1  0.61125588  0.40828281  0.21145689  1
  Rh  Rh237  1  0.79780023  0.60111310  0.00745182  1
  Rh  Rh238  1  0.59524233  0.60140373  -0.00507034  1
  Rh  Rh239  1  0.80601010  -0.00254287  0.60016467  1
  Rh  Rh240  1  0.19761992  0.59887848  0.39639739  1
  Rh  Rh241  1  0.79838101  0.79621354  -0.00265431  1
  Rh  Rh242  1  0.20505577  0.59444476  -0.00208103  1
  Rh  Rh243  1  0.59571660  0.20625551  0.40653239  1
  Rh  Rh244  1  0.59288172  0.00450650  0.60881793  1
  Rh  Rh245  1  0.59909618  0.60940813  0.60437325  1
  Rh  Rh246  1  0.19452543  0.40433615  0.19924324  1
  Rh  Rh247  1  0.80157939  0.39257478  0.60968242  1
  Rh  Rh248  1  0.78846803  0.39884117  0.39297815  1
  Rh  Rh249  1  0.60410461  0.20087403  0.59668657  1
