# generated using pymatgen
data_ZrScNbPdRh
_symmetry_space_group_name_H-M   'P 1'
_cell_length_a   16.55595917
_cell_length_b   16.55932761
_cell_length_c   16.55995805
_cell_angle_alpha   90.00621551
_cell_angle_beta   90.00529028
_cell_angle_gamma   89.99151711
_symmetry_Int_Tables_number   1
_chemical_formula_structural   ZrScNbPdRh
_chemical_formula_sum   'Zr50 Sc50 Nb50 Pd50 Rh50'
_cell_volume   4540.00434182
_cell_formula_units_Z   50
loop_
 _symmetry_equiv_pos_site_id
 _symmetry_equiv_pos_as_xyz
  1  'x, y, z'
loop_
 _atom_site_type_symbol
 _atom_site_label
 _atom_site_symmetry_multiplicity
 _atom_site_fract_x
 _atom_site_fract_y
 _atom_site_fract_z
 _atom_site_occupancy
  Zr  Zr0  1  0.49505146  0.49110910  0.90678484  1
  Zr  Zr1  1  0.29556141  0.68502478  0.50337715  1
  Zr  Zr2  1  0.09469252  0.10549650  0.70453473  1
  Zr  Zr3  1  0.30055866  0.29661110  0.29118599  1
  Zr  Zr4  1  0.29261313  0.29769853  0.10477426  1
  Zr  Zr5  1  0.30009492  0.70363766  0.70398067  1
  Zr  Zr6  1  0.49667478  0.09089898  0.71026023  1
  Zr  Zr7  1  0.10389611  0.09623528  0.29981763  1
  Zr  Zr8  1  0.69216555  0.10414519  0.49552074  1
  Zr  Zr9  1  0.29677907  0.50593351  0.69156705  1
  Zr  Zr10  1  0.09330049  0.90000698  0.70532444  1
  Zr  Zr11  1  0.50538774  0.10274723  0.29663840  1
  Zr  Zr12  1  0.31773188  0.30676215  0.50390802  1
  Zr  Zr13  1  0.49112799  0.69491423  0.10144331  1
  Zr  Zr14  1  0.70088285  0.09869114  0.09660510  1
  Zr  Zr15  1  0.89862585  0.90217947  0.69619363  1
  Zr  Zr16  1  0.09411744  0.69887970  0.29368852  1
  Zr  Zr17  1  0.09961065  0.09770558  0.50391326  1
  Zr  Zr18  1  0.90229265  0.30059574  0.29197282  1
  Zr  Zr19  1  0.89057179  0.50545607  0.29988386  1
  Zr  Zr20  1  0.29210215  0.09769048  0.10652737  1
  Zr  Zr21  1  0.49913496  0.69928667  0.69789879  1
  Zr  Zr22  1  0.09272392  0.29863012  0.50471016  1
  Zr  Zr23  1  0.89649830  0.50302013  0.69559652  1
  Zr  Zr24  1  0.09925501  0.10006062  0.09030925  1
  Zr  Zr25  1  0.50208158  0.29769719  0.10182406  1
  Zr  Zr26  1  0.90664427  0.88638216  0.89348599  1
  Zr  Zr27  1  0.70136130  0.68878869  0.30582534  1
  Zr  Zr28  1  0.48860133  0.49692237  0.49696126  1
  Zr  Zr29  1  0.49348461  0.90042999  0.70150077  1
  Zr  Zr30  1  0.50892040  0.10449380  0.90321275  1
  Zr  Zr31  1  0.90203930  0.10226157  0.50647875  1
  Zr  Zr32  1  0.69619521  0.90050103  0.50120846  1
  Zr  Zr33  1  0.29977717  0.30953269  0.90571207  1
  Zr  Zr34  1  0.29668208  0.50135213  0.89972356  1
  Zr  Zr35  1  0.50798156  0.50020061  0.10426441  1
  Zr  Zr36  1  0.91204367  0.70096668  0.30196177  1
  Zr  Zr37  1  0.49612829  0.89608460  0.30281489  1
  Zr  Zr38  1  0.29144364  0.69853811  0.89848484  1
  Zr  Zr39  1  0.89345307  0.30254486  0.49875598  1
  Zr  Zr40  1  0.09747342  0.70207238  0.48831290  1
  Zr  Zr41  1  0.70280985  0.49660075  0.49115835  1
  Zr  Zr42  1  0.89759784  0.90753369  0.09707184  1
  Zr  Zr43  1  0.90087519  0.70237244  0.09411407  1
  Zr  Zr44  1  0.09584156  0.69576970  0.09989823  1
  Zr  Zr45  1  0.89393031  0.70114833  0.70869312  1
  Zr  Zr46  1  0.31043052  0.09864528  0.69900217  1
  Zr  Zr47  1  0.90129837  0.50071261  0.50291809  1
  Zr  Zr48  1  0.10164437  0.30213717  0.10533720  1
  Zr  Zr49  1  0.89842448  0.29309741  0.90741559  1
  Sc  Sc50  1  0.49185973  0.90610031  0.88826458  1
  Sc  Sc51  1  0.90108855  0.51244887  0.89220978  1
  Sc  Sc52  1  0.10439825  0.89456031  0.09580171  1
  Sc  Sc53  1  0.68927443  0.29922811  0.90410919  1
  Sc  Sc54  1  0.09853145  0.89590623  0.90610952  1
  Sc  Sc55  1  0.10141330  0.29708925  0.29164057  1
  Sc  Sc56  1  0.49980986  0.30082381  0.29828514  1
  Sc  Sc57  1  0.69831864  0.10418469  0.90439511  1
  Sc  Sc58  1  0.70440704  0.91062233  0.09732642  1
  Sc  Sc59  1  0.10712398  0.89379993  0.49275247  1
  Sc  Sc60  1  0.50662116  0.30903491  0.70108101  1
  Sc  Sc61  1  0.69675673  0.10038783  0.29826005  1
  Sc  Sc62  1  0.90691787  0.90042958  0.29097669  1
  Sc  Sc63  1  0.69972818  0.50378519  0.69501641  1
  Sc  Sc64  1  0.69318481  0.91045964  0.30021363  1
  Sc  Sc65  1  0.91354082  0.10531605  0.90222485  1
  Sc  Sc66  1  0.29487013  0.49570921  0.09906336  1
  Sc  Sc67  1  0.10190571  0.50911985  0.50731660  1
  Sc  Sc68  1  0.30158986  0.31461532  0.70545881  1
  Sc  Sc69  1  0.10938498  0.69815393  0.70249305  1
  Sc  Sc70  1  0.30439626  0.09282184  0.30408728  1
  Sc  Sc71  1  0.49496841  0.69204015  0.30089458  1
  Sc  Sc72  1  0.09494386  0.49446521  0.70442445  1
  Sc  Sc73  1  0.10032874  0.88981367  0.30129974  1
  Sc  Sc74  1  0.70813899  0.31065925  0.09052345  1
  Sc  Sc75  1  0.29880404  0.69936188  0.10524659  1
  Sc  Sc76  1  0.70650238  0.69080349  0.08916980  1
  Sc  Sc77  1  0.30407979  0.69498755  0.29680237  1
  Sc  Sc78  1  0.70051862  0.69542450  0.69505958  1
  Sc  Sc79  1  0.49357448  0.68456394  0.89969780  1
  Sc  Sc80  1  0.10088039  0.29433329  0.89431562  1
  Sc  Sc81  1  0.09849185  0.50537612  0.28909447  1
  Sc  Sc82  1  0.89955810  0.69216216  0.49779268  1
  Sc  Sc83  1  0.30842593  0.50141913  0.29956562  1
  Sc  Sc84  1  0.50198347  0.69691516  0.49499861  1
  Sc  Sc85  1  0.29603583  0.89713132  0.89752383  1
  Sc  Sc86  1  0.29963805  0.90264910  0.48616336  1
  Sc  Sc87  1  0.69801190  0.50441955  0.90785976  1
  Sc  Sc88  1  0.30310487  0.90005227  0.29303105  1
  Sc  Sc89  1  0.71206135  0.89887827  0.90750877  1
  Sc  Sc90  1  0.69551658  0.30031881  0.31384612  1
  Sc  Sc91  1  0.49332756  0.10562978  0.50331620  1
  Sc  Sc92  1  0.91075262  0.09414240  0.69541074  1
  Sc  Sc93  1  0.49853051  0.50329905  0.70513756  1
  Sc  Sc94  1  0.68904692  0.09520563  0.69779260  1
  Sc  Sc95  1  0.69819337  0.89649607  0.68664803  1
  Sc  Sc96  1  0.90271665  0.10014064  0.29111461  1
  Sc  Sc97  1  0.28844115  0.10477952  0.91005442  1
  Sc  Sc98  1  0.91381213  0.30802556  0.69591364  1
  Sc  Sc99  1  0.69593991  0.70102681  0.50563343  1
  Nb  Nb100  1  0.10143730  0.29820282  0.69922107  1
  Nb  Nb101  1  0.30288196  0.89783324  0.09407182  1
  Nb  Nb102  1  0.30006109  0.49756746  0.50115262  1
  Nb  Nb103  1  0.50325214  0.09981622  0.09991586  1
  Nb  Nb104  1  0.90030307  0.10917088  0.09716715  1
  Nb  Nb105  1  0.89417705  0.90194944  0.50864300  1
  Nb  Nb106  1  0.30397360  0.90055789  0.70642828  1
  Nb  Nb107  1  0.90100046  0.30001619  0.09819900  1
  Nb  Nb108  1  0.69516290  0.50020928  0.29409080  1
  Nb  Nb109  1  0.89050916  0.70298805  0.90144198  1
  Nb  Nb110  1  0.70898919  0.49838581  0.10743041  1
  Nb  Nb111  1  0.10213429  0.10092300  0.89718669  1
  Nb  Nb112  1  0.51480518  0.50347415  0.30071491  1
  Nb  Nb113  1  0.71393192  0.70183665  0.90021742  1
  Nb  Nb114  1  0.70330450  0.30571731  0.69662685  1
  Nb  Nb115  1  0.08970493  0.69600178  0.90630794  1
  Nb  Nb116  1  0.51186452  0.30415825  0.49803348  1
  Nb  Nb117  1  0.29749659  0.10438295  0.50227844  1
  Nb  Nb118  1  0.50387606  0.89044145  0.49846480  1
  Nb  Nb119  1  0.09609222  0.49771282  0.09494608  1
  Nb  Nb120  1  0.49765522  0.30267765  0.90354872  1
  Nb  Nb121  1  0.69349812  0.30100534  0.50717535  1
  Nb  Nb122  1  0.49742801  0.89561909  0.10116083  1
  Nb  Nb123  1  0.88792710  0.48921053  0.10582443  1
  Nb  Nb124  1  0.10116973  0.50775686  0.91039586  1
  Nb  Nb125  1  0.59515149  0.79770914  -0.00217043  1
  Nb  Nb126  1  0.79926524  0.20219834  0.79120929  1
  Nb  Nb127  1  0.60284154  0.79398963  0.80823132  1
  Nb  Nb128  1  0.20599371  0.20385109  0.40888991  1
  Nb  Nb129  1  -0.00505609  -0.00289737  0.40458131  1
  Nb  Nb130  1  0.39546040  0.80419521  0.59884864  1
  Nb  Nb131  1  0.00251241  0.40205609  0.39850798  1
  Nb  Nb132  1  0.80489701  0.00387856  0.79699203  1
  Nb  Nb133  1  0.20127406  0.39838157  0.40331669  1
  Nb  Nb134  1  0.79909551  0.39406043  0.79733333  1
  Nb  Nb135  1  0.80605103  -0.00266600  0.40471149  1
  Nb  Nb136  1  0.40114117  0.00075917  0.00796151  1
  Nb  Nb137  1  0.60152779  0.79828109  0.19289050  1
  Nb  Nb138  1  -0.00196336  0.40487003  0.00482969  1
  Nb  Nb139  1  0.19790997  0.00312314  0.79694218  1
  Nb  Nb140  1  0.20572149  0.20140988  0.60121419  1
  Nb  Nb141  1  0.79488795  0.79970922  0.20324403  1
  Nb  Nb142  1  0.40456949  0.19852319  0.00360785  1
  Nb  Nb143  1  0.80195847  0.80624256  0.39803016  1
  Nb  Nb144  1  0.80389410  0.20345751  0.19147955  1
  Nb  Nb145  1  0.40425909  0.20622240  0.81094700  1
  Nb  Nb146  1  0.79396309  0.20664403  0.60350167  1
  Nb  Nb147  1  0.20674411  0.00022687  0.60572122  1
  Nb  Nb148  1  -0.00272515  0.80010700  0.59964350  1
  Nb  Nb149  1  0.40175545  0.80334068  0.00160118  1
  Pd  Pd150  1  0.00418708  0.60521822  0.79762769  1
  Pd  Pd151  1  0.58937104  0.00003223  0.59277135  1
  Pd  Pd152  1  0.39910146  0.39823975  0.01246152  1
  Pd  Pd153  1  0.80545260  0.40756346  -0.01330515  1
  Pd  Pd154  1  0.20347918  0.59546944  0.19709225  1
  Pd  Pd155  1  0.39349909  0.79110112  0.40466201  1
  Pd  Pd156  1  0.19195678  0.40729958  0.80470080  1
  Pd  Pd157  1  0.40258787  0.20143753  0.39658753  1
  Pd  Pd158  1  0.40140150  0.40069111  0.38995097  1
  Pd  Pd159  1  0.59628516  0.59337654  0.59284743  1
  Pd  Pd160  1  -0.00023664  0.40733249  0.20077012  1
  Pd  Pd161  1  0.81187536  0.00869184  -0.01351102  1
  Pd  Pd162  1  -0.00077367  -0.00263975  -0.00414360  1
  Pd  Pd163  1  -0.00194905  0.39870547  0.81148149  1
  Pd  Pd164  1  0.60594870  0.79630451  0.39014246  1
  Pd  Pd165  1  0.79882876  0.19340384  0.39676244  1
  Pd  Pd166  1  0.40606149  0.21088623  0.61213759  1
  Pd  Pd167  1  0.60877724  0.39097954  0.20039389  1
  Pd  Pd168  1  0.39654348  0.59488843  0.79978945  1
  Pd  Pd169  1  0.40280546  0.00147020  0.19726060  1
  Pd  Pd170  1  0.21019401  0.19918117  0.79387019  1
  Pd  Pd171  1  0.61558631  -0.01393028  0.80598868  1
  Pd  Pd172  1  -0.01231219  0.59262233  0.00518861  1
  Pd  Pd173  1  0.19585140  0.39772619  0.59534028  1
  Pd  Pd174  1  0.40370854  0.40634195  0.20046644  1
  Pd  Pd175  1  0.80116800  0.39872177  0.39447730  1
  Pd  Pd176  1  0.19722777  0.59086434  0.39264665  1
  Pd  Pd177  1  0.60249569  0.60161008  -0.00082070  1
  Pd  Pd178  1  0.80429748  0.60836615  0.19648113  1
  Pd  Pd179  1  0.60736340  0.60258604  0.80547290  1
  Pd  Pd180  1  0.39849796  -0.01062075  0.58666294  1
  Pd  Pd181  1  0.59672328  -0.00531211  0.19729488  1
  Pd  Pd182  1  0.60712348  0.40448991  0.80326637  1
  Pd  Pd183  1  0.19174618  0.80353262  0.80702562  1
  Pd  Pd184  1  0.78860061  0.80823774  0.79193062  1
  Pd  Pd185  1  0.19443064  -0.01001351  0.19958458  1
  Pd  Pd186  1  0.20381169  0.60401983  0.00681815  1
  Pd  Pd187  1  0.00762024  -0.00139643  0.19996093  1
  Pd  Pd188  1  0.60084685  0.20668194  0.79459205  1
  Pd  Pd189  1  0.40663847  0.00261132  0.40429686  1
  Pd  Pd190  1  0.20261740  0.80700756  0.59876887  1
  Pd  Pd191  1  0.60338465  0.60816359  0.19472866  1
  Pd  Pd192  1  0.20298810  0.80020606  0.20074547  1
  Pd  Pd193  1  0.59378909  -0.01170252  -0.00555096  1
  Pd  Pd194  1  0.59704186  0.41070049  0.59930759  1
  Pd  Pd195  1  0.00461699  0.19950962  0.39318862  1
  Pd  Pd196  1  0.00485553  0.61047439  0.60694234  1
  Pd  Pd197  1  0.21083254  0.79404604  0.38954739  1
  Pd  Pd198  1  0.59526712  0.19987129  0.60750767  1
  Pd  Pd199  1  0.61441160  0.20898652  0.19520364  1
  Rh  Rh200  1  -0.00796981  0.59364070  0.19095341  1
  Rh  Rh201  1  0.40167286  0.59023372  0.20029133  1
  Rh  Rh202  1  0.00459835  0.58916758  0.39704383  1
  Rh  Rh203  1  0.40101248  0.60396972  0.59946914  1
  Rh  Rh204  1  0.59941809  0.20619693  0.00730641  1
  Rh  Rh205  1  0.00485785  0.78741204  0.79858942  1
  Rh  Rh206  1  0.38493492  0.01409432  0.81970668  1
  Rh  Rh207  1  0.79604960  0.80299910  0.01040497  1
  Rh  Rh208  1  0.40298241  0.79891367  0.19772187  1
  Rh  Rh209  1  0.18851870  0.39787723  -0.00425465  1
  Rh  Rh210  1  0.80088171  0.00739296  0.20403775  1
  Rh  Rh211  1  0.59404322  0.00299363  0.40405490  1
  Rh  Rh212  1  0.19482324  0.59945037  0.60343913  1
  Rh  Rh213  1  -0.00491129  0.80560574  0.18776502  1
  Rh  Rh214  1  0.20205071  -0.00603757  -0.00778117  1
  Rh  Rh215  1  0.40201081  0.59639603  0.39787454  1
  Rh  Rh216  1  0.79292357  0.59270113  0.80076898  1
  Rh  Rh217  1  -0.00142884  0.19500301  0.19343646  1
  Rh  Rh218  1  0.79732545  0.60113620  0.59602300  1
  Rh  Rh219  1  0.80519572  0.59150208  -0.00029303  1
  Rh  Rh220  1  0.19776946  0.20638537  0.00040498  1
  Rh  Rh221  1  0.40638425  0.79269812  0.80178979  1
  Rh  Rh222  1  0.79599392  0.19615454  -0.00008290  1
  Rh  Rh223  1  0.79239713  0.01620247  0.59998341  1
  Rh  Rh224  1  0.00135398  0.00173671  0.81177570  1
  Rh  Rh225  1  0.19420912  0.00526526  0.40234403  1
  Rh  Rh226  1  0.79820960  0.60362724  0.40449224  1
  Rh  Rh227  1  -0.00281286  0.20606705  0.60756015  1
  Rh  Rh228  1  0.20238262  0.79304795  0.00019523  1
  Rh  Rh229  1  0.79042368  0.39087900  0.20863183  1
  Rh  Rh230  1  0.59921681  0.59468424  0.40529312  1
  Rh  Rh231  1  0.59247554  0.20188196  0.40093763  1
  Rh  Rh232  1  -0.01103467  0.80889610  0.41182568  1
  Rh  Rh233  1  0.80030339  0.39827202  0.60367141  1
  Rh  Rh234  1  0.19189790  0.59406721  0.80255927  1
  Rh  Rh235  1  0.59776904  0.40283987  0.40038374  1
  Rh  Rh236  1  0.60104940  0.40464627  0.00435027  1
  Rh  Rh237  1  0.00393182  0.40328825  0.59538576  1
  Rh  Rh238  1  0.40057119  0.19210355  0.19527741  1
  Rh  Rh239  1  0.01482506  -0.01505043  0.58865875  1
  Rh  Rh240  1  0.01108558  0.20822921  0.00366896  1
  Rh  Rh241  1  -0.00548187  0.20403161  0.79733975  1
  Rh  Rh242  1  0.19913294  0.19134668  0.20810842  1
  Rh  Rh243  1  0.80656122  0.78845728  0.59296318  1
  Rh  Rh244  1  0.00092827  0.79805312  0.00015207  1
  Rh  Rh245  1  0.40202774  0.40174572  0.79765356  1
  Rh  Rh246  1  0.58954014  0.79984332  0.60697572  1
  Rh  Rh247  1  0.39011577  0.60073052  0.00232160  1
  Rh  Rh248  1  0.20035129  0.40775251  0.20732799  1
  Rh  Rh249  1  0.40897403  0.40282441  0.60589112  1
