# generated using pymatgen
data_ZrScNbPdRh
_symmetry_space_group_name_H-M   'P 1'
_cell_length_a   16.56081470
_cell_length_b   16.56095809
_cell_length_c   16.55600216
_cell_angle_alpha   89.99439477
_cell_angle_beta   89.94745767
_cell_angle_gamma   89.99892896
_symmetry_Int_Tables_number   1
_chemical_formula_structural   ZrScNbPdRh
_chemical_formula_sum   'Zr50 Sc50 Nb50 Pd50 Rh50'
_cell_volume   4540.69619535
_cell_formula_units_Z   50
loop_
 _symmetry_equiv_pos_site_id
 _symmetry_equiv_pos_as_xyz
  1  'x, y, z'
loop_
 _atom_site_type_symbol
 _atom_site_label
 _atom_site_symmetry_multiplicity
 _atom_site_fract_x
 _atom_site_fract_y
 _atom_site_fract_z
 _atom_site_occupancy
  Zr  Zr0  1  0.90061853  0.29560598  0.89951827  1
  Zr  Zr1  1  0.89273438  0.09494967  0.10064173  1
  Zr  Zr2  1  0.10806083  0.50085727  0.10290038  1
  Zr  Zr3  1  0.30312204  0.09738482  0.10840999  1
  Zr  Zr4  1  0.49979804  0.09284268  0.89034867  1
  Zr  Zr5  1  0.90219363  0.50002270  0.50198342  1
  Zr  Zr6  1  0.29169844  0.70520380  0.69908013  1
  Zr  Zr7  1  0.29905809  0.90762659  0.29657056  1
  Zr  Zr8  1  0.70370111  0.69984427  0.50214422  1
  Zr  Zr9  1  0.29844511  0.50036318  0.90625571  1
  Zr  Zr10  1  0.71054662  0.31244670  0.29473225  1
  Zr  Zr11  1  0.08888257  0.50557109  0.90818098  1
  Zr  Zr12  1  0.90530279  0.69980676  0.30368046  1
  Zr  Zr13  1  0.90080476  0.90175005  0.49898876  1
  Zr  Zr14  1  0.29443602  0.29131213  0.10779555  1
  Zr  Zr15  1  0.29192593  0.90154384  0.09974012  1
  Zr  Zr16  1  0.70104676  0.50324969  0.49196828  1
  Zr  Zr17  1  0.90291208  0.91176665  0.69686145  1
  Zr  Zr18  1  0.89645475  0.48847560  0.30860202  1
  Zr  Zr19  1  0.30052066  0.70081162  0.50333296  1
  Zr  Zr20  1  0.30525269  0.50436362  0.30107229  1
  Zr  Zr21  1  0.50682169  0.30503215  0.08981226  1
  Zr  Zr22  1  0.49676129  0.10504504  0.09477631  1
  Zr  Zr23  1  0.90342264  0.69019975  0.89109153  1
  Zr  Zr24  1  0.29428891  0.50361768  0.49706222  1
  Zr  Zr25  1  0.30582241  0.10278200  0.89156148  1
  Zr  Zr26  1  0.91199683  0.90339040  0.90406769  1
  Zr  Zr27  1  0.10812471  0.90616407  0.30185786  1
  Zr  Zr28  1  0.90022851  0.90156930  0.09580726  1
  Zr  Zr29  1  0.10208551  0.69844214  0.30346457  1
  Zr  Zr30  1  0.69447488  0.30003828  0.69633343  1
  Zr  Zr31  1  0.29633534  0.88783350  0.90101533  1
  Zr  Zr32  1  0.50230598  0.49698314  0.70202404  1
  Zr  Zr33  1  0.30463740  0.70067553  0.30299514  1
  Zr  Zr34  1  0.09676690  0.49752490  0.50204410  1
  Zr  Zr35  1  0.30319139  0.49171155  0.71231135  1
  Zr  Zr36  1  0.70480134  0.49732585  0.88842877  1
  Zr  Zr37  1  0.49942275  0.28720754  0.89362661  1
  Zr  Zr38  1  0.10273775  0.69486262  0.50402886  1
  Zr  Zr39  1  0.70694160  0.90530053  0.49926664  1
  Zr  Zr40  1  0.49657918  0.70724555  0.70134780  1
  Zr  Zr41  1  0.09841401  0.29299861  0.90329809  1
  Zr  Zr42  1  0.89843067  0.10351365  0.29713797  1
  Zr  Zr43  1  0.90405727  0.70579441  0.49743523  1
  Zr  Zr44  1  0.09478588  0.90542976  0.49906789  1
  Zr  Zr45  1  0.68427826  0.48716904  0.10316469  1
  Zr  Zr46  1  0.49799455  0.29095517  0.31446449  1
  Zr  Zr47  1  0.09489497  0.30020224  0.69773406  1
  Zr  Zr48  1  0.70304450  0.89658338  0.09260586  1
  Zr  Zr49  1  0.49414559  0.09904368  0.29470105  1
  Sc  Sc50  1  0.90113714  0.10027151  0.89031625  1
  Sc  Sc51  1  0.09720905  0.10187873  0.69217926  1
  Sc  Sc52  1  0.30220461  0.50241456  0.10717998  1
  Sc  Sc53  1  0.09715436  0.70216621  0.69771902  1
  Sc  Sc54  1  0.69091874  0.29539112  0.89234803  1
  Sc  Sc55  1  0.09503666  0.10252489  0.90298855  1
  Sc  Sc56  1  0.69327663  0.90757654  0.69706833  1
  Sc  Sc57  1  0.30064623  0.69460288  0.09158395  1
  Sc  Sc58  1  0.50226258  0.69426853  0.29819229  1
  Sc  Sc59  1  0.30207529  0.89916981  0.69256813  1
  Sc  Sc60  1  0.90063818  0.90040237  0.31356342  1
  Sc  Sc61  1  0.10346861  0.50153689  0.30211296  1
  Sc  Sc62  1  0.91774029  0.49304064  0.09551659  1
  Sc  Sc63  1  0.09373118  0.30026551  0.49785663  1
  Sc  Sc64  1  0.10257110  0.10024851  0.30880798  1
  Sc  Sc65  1  0.29472105  0.89607748  0.50370200  1
  Sc  Sc66  1  0.90610411  0.29468379  0.11493150  1
  Sc  Sc67  1  0.70643541  0.90217603  0.30572912  1
  Sc  Sc68  1  0.29692680  0.29889688  0.30135968  1
  Sc  Sc69  1  0.70073905  0.10050352  0.50233701  1
  Sc  Sc70  1  0.89127639  0.51058842  0.71009054  1
  Sc  Sc71  1  0.89597550  0.70537512  0.10100030  1
  Sc  Sc72  1  0.48989238  0.48803475  0.90464011  1
  Sc  Sc73  1  0.70530959  0.69657500  0.69570709  1
  Sc  Sc74  1  0.49740976  0.69902858  0.49951181  1
  Sc  Sc75  1  0.70050894  0.09881463  0.30609529  1
  Sc  Sc76  1  0.10117188  0.70844022  0.90083361  1
  Sc  Sc77  1  0.89666097  0.29040206  0.69650600  1
  Sc  Sc78  1  0.50068120  0.90009794  0.51310872  1
  Sc  Sc79  1  0.10932546  0.10750869  0.09369757  1
  Sc  Sc80  1  0.10006547  0.89479267  0.69855931  1
  Sc  Sc81  1  0.30552315  0.29214527  0.49593474  1
  Sc  Sc82  1  0.90074556  0.70183720  0.69675088  1
  Sc  Sc83  1  0.69570521  0.70609226  0.10435377  1
  Sc  Sc84  1  0.50548658  0.50236202  0.49125101  1
  Sc  Sc85  1  0.09565326  0.50319760  0.69710307  1
  Sc  Sc86  1  0.29845178  0.29993735  0.88694332  1
  Sc  Sc87  1  0.49311872  0.50171540  0.10507727  1
  Sc  Sc88  1  0.90095519  0.09768251  0.50741342  1
  Sc  Sc89  1  0.10214679  0.09605814  0.50094946  1
  Sc  Sc90  1  0.50231137  0.50732066  0.29791505  1
  Sc  Sc91  1  0.71207494  0.10068687  0.70046934  1
  Sc  Sc92  1  0.69749525  0.69845071  0.29732883  1
  Sc  Sc93  1  0.50450465  0.11092874  0.49742061  1
  Sc  Sc94  1  0.29599814  0.10502263  0.29488716  1
  Sc  Sc95  1  0.48861074  0.09500336  0.69907188  1
  Sc  Sc96  1  0.10781280  0.69422787  0.10122046  1
  Sc  Sc97  1  0.49993563  0.90133346  0.30023744  1
  Sc  Sc98  1  0.69918827  0.70741450  0.90075766  1
  Sc  Sc99  1  0.90681016  0.30777703  0.50362577  1
  Nb  Nb100  1  0.29691996  0.09329950  0.51261602  1
  Nb  Nb101  1  0.49962231  0.90510578  0.71375213  1
  Nb  Nb102  1  0.49441994  0.70952204  0.90545884  1
  Nb  Nb103  1  0.50741814  0.29696725  0.50704979  1
  Nb  Nb104  1  0.50484171  0.70704883  0.09587831  1
  Nb  Nb105  1  0.10209705  0.30237069  0.09923022  1
  Nb  Nb106  1  0.10373351  0.90419109  0.90646940  1
  Nb  Nb107  1  0.29895413  0.69820624  0.89911865  1
  Nb  Nb108  1  0.50057708  0.89560997  0.09292957  1
  Nb  Nb109  1  0.49636262  0.29794466  0.69097513  1
  Nb  Nb110  1  0.29623848  0.10029834  0.69360826  1
  Nb  Nb111  1  0.70018489  0.09978696  0.10141558  1
  Nb  Nb112  1  0.50417545  0.89507993  0.89584611  1
  Nb  Nb113  1  0.29957146  0.29431519  0.69711230  1
  Nb  Nb114  1  0.69510015  0.29764328  0.49960938  1
  Nb  Nb115  1  0.69729984  0.90408520  0.89538350  1
  Nb  Nb116  1  0.09215878  0.29412955  0.29647317  1
  Nb  Nb117  1  0.70005054  0.50445722  0.29686767  1
  Nb  Nb118  1  0.69440692  0.10123739  0.90085613  1
  Nb  Nb119  1  0.89801235  0.49867110  0.90122192  1
  Nb  Nb120  1  0.70022418  0.50284212  0.69791969  1
  Nb  Nb121  1  0.89992090  0.10700300  0.69733590  1
  Nb  Nb122  1  0.10142181  0.90533936  0.09132215  1
  Nb  Nb123  1  0.69842830  0.29804754  0.09746615  1
  Nb  Nb124  1  0.90303432  0.29670925  0.30533971  1
  Nb  Nb125  1  0.00725945  0.80955136  0.19872020  1
  Nb  Nb126  1  0.60308199  0.80154840  0.40513117  1
  Nb  Nb127  1  0.20129399  -0.00155631  0.79987590  1
  Nb  Nb128  1  0.60069017  0.00103620  0.18944767  1
  Nb  Nb129  1  0.80002901  0.39583606  0.00028317  1
  Nb  Nb130  1  0.00420960  -0.00519359  0.19476981  1
  Nb  Nb131  1  0.20273616  0.60246053  0.80552539  1
  Nb  Nb132  1  0.79781370  0.58865360  0.19729904  1
  Nb  Nb133  1  0.60569317  0.20002229  0.19576816  1
  Nb  Nb134  1  0.79058111  0.40382994  0.60122466  1
  Nb  Nb135  1  0.40532567  -0.00907800  -0.00337353  1
  Nb  Nb136  1  0.80262008  0.81090553  0.80353708  1
  Nb  Nb137  1  0.20819381  0.39645796  0.60344580  1
  Nb  Nb138  1  0.39564653  0.00309050  0.40450049  1
  Nb  Nb139  1  0.80251853  0.21051341  0.40015805  1
  Nb  Nb140  1  0.59663683  0.60314778  -0.00503573  1
  Nb  Nb141  1  -0.00550610  0.40162880  0.80571743  1
  Nb  Nb142  1  0.19468065  0.39592114  0.00348724  1
  Nb  Nb143  1  0.60031405  -0.00363073  -0.00365650  1
  Nb  Nb144  1  0.79567904  0.59007468  0.00313300  1
  Nb  Nb145  1  0.40252733  0.39542538  0.59868345  1
  Nb  Nb146  1  0.79102056  0.20039369  0.00418762  1
  Nb  Nb147  1  0.40386189  0.80108552  0.19107999  1
  Nb  Nb148  1  0.39621706  0.59397377  0.60470207  1
  Nb  Nb149  1  0.59393631  0.60265755  0.80540559  1
  Pd  Pd150  1  0.59783188  0.18956661  0.78439138  1
  Pd  Pd151  1  0.59190201  -0.00481270  0.39865406  1
  Pd  Pd152  1  0.59350110  0.40150749  0.80275314  1
  Pd  Pd153  1  0.79718344  0.00650387  -0.01188409  1
  Pd  Pd154  1  0.20189578  0.19907083  0.40400405  1
  Pd  Pd155  1  -0.00519545  0.61052812  0.00821144  1
  Pd  Pd156  1  -0.00979880  0.19691399  0.00880878  1
  Pd  Pd157  1  0.39346774  0.20088687  -0.00261729  1
  Pd  Pd158  1  0.80713793  0.79955748  0.20834759  1
  Pd  Pd159  1  0.01128412  0.00552029  0.79547157  1
  Pd  Pd160  1  0.00484473  0.40121384  0.20723846  1
  Pd  Pd161  1  0.80081596  0.60504527  0.39341331  1
  Pd  Pd162  1  0.40878547  0.80748367  0.39713259  1
  Pd  Pd163  1  0.18587161  0.40543732  0.80248187  1
  Pd  Pd164  1  0.40685246  0.60236147  0.00230826  1
  Pd  Pd165  1  0.39560700  0.80436439  0.79632797  1
  Pd  Pd166  1  0.40081658  0.60429944  0.80073509  1
  Pd  Pd167  1  0.60903140  0.79515788  0.79494253  1
  Pd  Pd168  1  0.40401330  0.40130997  0.40604765  1
  Pd  Pd169  1  0.79867055  -0.00704777  0.20643896  1
  Pd  Pd170  1  0.00608491  0.79183971  0.00621384  1
  Pd  Pd171  1  -0.00164519  0.80266392  0.79738846  1
  Pd  Pd172  1  0.60057500  0.40570999  0.59494872  1
  Pd  Pd173  1  0.19860505  0.80049663  0.40539669  1
  Pd  Pd174  1  0.20769918  0.00973073  -0.00892287  1
  Pd  Pd175  1  0.19384269  0.19003837  0.79625116  1
  Pd  Pd176  1  0.80125108  0.80605075  0.60997037  1
  Pd  Pd177  1  0.39024412  0.18822709  0.40638566  1
  Pd  Pd178  1  0.80296581  0.79327245  -0.00947351  1
  Pd  Pd179  1  0.58645078  0.39257297  0.21180633  1
  Pd  Pd180  1  0.60191081  0.18763143  0.60656895  1
  Pd  Pd181  1  0.80062925  0.00006655  0.80197070  1
  Pd  Pd182  1  0.59673575  0.00826254  0.60464026  1
  Pd  Pd183  1  0.00886961  0.18897639  0.19624312  1
  Pd  Pd184  1  -0.00613393  0.60405760  0.19817267  1
  Pd  Pd185  1  0.59903727  0.40075803  0.39443891  1
  Pd  Pd186  1  0.40469097  0.39294823  0.20478164  1
  Pd  Pd187  1  0.38668556  0.38911999  0.00271340  1
  Pd  Pd188  1  -0.00582259  0.19542986  0.40857562  1
  Pd  Pd189  1  -0.00693919  0.59922661  0.60591707  1
  Pd  Pd190  1  0.40350218  -0.00130130  0.59565233  1
  Pd  Pd191  1  0.59434040  0.60175843  0.60390866  1
  Pd  Pd192  1  0.19624146  0.20623430  0.59189843  1
  Pd  Pd193  1  0.19538598  0.39155574  0.40298547  1
  Pd  Pd194  1  0.60036953  0.80177008  0.59964003  1
  Pd  Pd195  1  0.19901525  0.39770938  0.20344007  1
  Pd  Pd196  1  0.20189044  0.79404496  0.19431607  1
  Pd  Pd197  1  0.80892597  0.40516391  0.18801230  1
  Pd  Pd198  1  0.80536750  0.38986879  0.79421644  1
  Pd  Pd199  1  0.59704683  0.80726944  0.20978115  1
  Rh  Rh200  1  0.60526286  0.19434872  0.00195444  1
  Rh  Rh201  1  0.39555683  0.80164148  0.00305399  1
  Rh  Rh202  1  0.60340548  0.00356281  0.79817173  1
  Rh  Rh203  1  0.60290187  0.40245501  -0.01217717  1
  Rh  Rh204  1  0.19108542  0.19930525  0.20624496  1
  Rh  Rh205  1  0.21171327  0.00673742  0.40573776  1
  Rh  Rh206  1  0.79875510  0.39326148  0.41219189  1
  Rh  Rh207  1  0.80500031  0.01433061  0.40455174  1
  Rh  Rh208  1  0.60292493  0.80001255  -0.00730041  1
  Rh  Rh209  1  0.79391317  0.20268828  0.20404904  1
  Rh  Rh210  1  0.19201432  0.80434368  0.59469983  1
  Rh  Rh211  1  0.40966218  0.21224478  0.19883766  1
  Rh  Rh212  1  0.40296855  0.79946639  0.60402920  1
  Rh  Rh213  1  0.79544627  0.19754876  0.80599660  1
  Rh  Rh214  1  0.19589768  0.80066903  0.80189472  1
  Rh  Rh215  1  0.40732525  0.38534976  0.79611122  1
  Rh  Rh216  1  -0.00892616  0.40473790  0.61546741  1
  Rh  Rh217  1  0.20026280  0.59691584  -0.00585852  1
  Rh  Rh218  1  0.79996124  0.20881847  0.59083120  1
  Rh  Rh219  1  0.40735223  -0.01044622  0.19822187  1
  Rh  Rh220  1  0.19643526  0.79349056  0.00207218  1
  Rh  Rh221  1  0.00055671  0.80147862  0.59643423  1
  Rh  Rh222  1  0.20809096  0.58914340  0.61361135  1
  Rh  Rh223  1  0.00111150  0.20033027  0.79369899  1
  Rh  Rh224  1  -0.00290401  0.00492964  0.39513447  1
  Rh  Rh225  1  0.80364113  0.59393289  0.59750986  1
  Rh  Rh226  1  -0.00156213  0.19728850  0.59632054  1
  Rh  Rh227  1  0.40113778  0.59925783  0.40587488  1
  Rh  Rh228  1  0.60354456  0.60116904  0.19019107  1
  Rh  Rh229  1  0.61346099  0.20548454  0.39186654  1
  Rh  Rh230  1  0.78986016  0.61220856  0.80366354  1
  Rh  Rh231  1  0.20859578  0.60187199  0.20538036  1
  Rh  Rh232  1  0.20793128  0.20543149  -0.00350006  1
  Rh  Rh233  1  0.39935388  0.20164011  0.59965391  1
  Rh  Rh234  1  0.79153238  0.79391433  0.39780653  1
  Rh  Rh235  1  0.19580255  -0.00381651  0.60802735  1
  Rh  Rh236  1  0.40176663  0.61182754  0.19663822  1
  Rh  Rh237  1  0.00257094  0.59467362  0.40172077  1
  Rh  Rh238  1  0.60305488  0.60864870  0.39759378  1
  Rh  Rh239  1  0.18897640  0.01030708  0.19800234  1
  Rh  Rh240  1  0.00787225  0.39911720  0.39366545  1
  Rh  Rh241  1  0.40136122  0.20200617  0.78755080  1
  Rh  Rh242  1  0.38863142  -0.00969752  0.80240136  1
  Rh  Rh243  1  0.00169776  0.00872855  0.00401666  1
  Rh  Rh244  1  0.00036547  0.38949079  -0.00300353  1
  Rh  Rh245  1  0.80140359  0.00262836  0.60012891  1
  Rh  Rh246  1  0.19971102  0.60155820  0.39621241  1
  Rh  Rh247  1  0.00154421  0.00382293  0.60236806  1
  Rh  Rh248  1  0.00815154  0.80128499  0.39702003  1
  Rh  Rh249  1  0.00813222  0.59777908  0.79704848  1
