# generated using pymatgen
data_ZrScNbPdRh
_symmetry_space_group_name_H-M   'P 1'
_cell_length_a   16.55884161
_cell_length_b   16.55726447
_cell_length_c   16.55896552
_cell_angle_alpha   90.00194297
_cell_angle_beta   90.01446254
_cell_angle_gamma   89.99397062
_symmetry_Int_Tables_number   1
_chemical_formula_structural   ZrScNbPdRh
_chemical_formula_sum   'Zr50 Sc50 Nb50 Pd50 Rh50'
_cell_volume   4539.95682888
_cell_formula_units_Z   50
loop_
 _symmetry_equiv_pos_site_id
 _symmetry_equiv_pos_as_xyz
  1  'x, y, z'
loop_
 _atom_site_type_symbol
 _atom_site_label
 _atom_site_symmetry_multiplicity
 _atom_site_fract_x
 _atom_site_fract_y
 _atom_site_fract_z
 _atom_site_occupancy
  Zr  Zr0  1  0.29536035  0.89529071  0.90503791  1
  Zr  Zr1  1  0.30739969  0.50749103  0.50085727  1
  Zr  Zr2  1  0.89698066  0.50244169  0.09322219  1
  Zr  Zr3  1  0.50289485  0.10586906  0.50643861  1
  Zr  Zr4  1  0.50174727  0.69887361  0.10510700  1
  Zr  Zr5  1  0.30374631  0.28900464  0.10648046  1
  Zr  Zr6  1  0.10258760  0.30451239  0.70262251  1
  Zr  Zr7  1  0.50606690  0.89432787  0.70208452  1
  Zr  Zr8  1  0.70517465  0.70311293  0.50078213  1
  Zr  Zr9  1  0.70046417  0.49798116  0.29716688  1
  Zr  Zr10  1  0.70554177  0.90403129  0.10105548  1
  Zr  Zr11  1  0.50210354  0.50144939  0.29693804  1
  Zr  Zr12  1  0.89947035  0.29943764  0.29251157  1
  Zr  Zr13  1  0.50735425  0.30414802  0.50401548  1
  Zr  Zr14  1  0.09919088  0.50934268  0.69783869  1
  Zr  Zr15  1  0.09707158  0.50798242  0.90444771  1
  Zr  Zr16  1  0.49855499  0.70126539  0.69618889  1
  Zr  Zr17  1  0.29933556  0.70370817  0.29246597  1
  Zr  Zr18  1  0.88889527  0.30417108  0.70650526  1
  Zr  Zr19  1  0.68898722  0.49570290  0.90272706  1
  Zr  Zr20  1  0.29968736  0.49852940  0.89796410  1
  Zr  Zr21  1  0.50717849  0.69365710  0.89839530  1
  Zr  Zr22  1  0.10257263  0.70233280  0.90084747  1
  Zr  Zr23  1  0.89226793  0.29508670  0.09570890  1
  Zr  Zr24  1  0.29898777  0.90193057  0.30368995  1
  Zr  Zr25  1  0.49878195  0.70261847  0.29894689  1
  Zr  Zr26  1  0.09862351  0.09610413  0.10535811  1
  Zr  Zr27  1  0.09306226  0.49913843  0.50102351  1
  Zr  Zr28  1  0.09504115  0.29297060  0.29804922  1
  Zr  Zr29  1  0.29037116  0.69637342  0.90281062  1
  Zr  Zr30  1  0.10369576  0.70112546  0.51570136  1
  Zr  Zr31  1  0.50782333  0.50131266  0.09781142  1
  Zr  Zr32  1  0.70266315  0.09635102  0.89257435  1
  Zr  Zr33  1  0.70575691  0.28835909  0.29002442  1
  Zr  Zr34  1  0.10190856  0.70235240  0.27834929  1
  Zr  Zr35  1  0.09705002  0.09538356  0.29584729  1
  Zr  Zr36  1  0.50259186  0.49361999  0.90693222  1
  Zr  Zr37  1  0.09901657  0.09623071  0.71535629  1
  Zr  Zr38  1  0.30194754  0.10368194  0.49935955  1
  Zr  Zr39  1  0.50596430  0.49960962  0.49418530  1
  Zr  Zr40  1  0.30624291  0.11712895  0.70494986  1
  Zr  Zr41  1  0.29268931  0.69272929  0.69287252  1
  Zr  Zr42  1  0.70361370  0.89407485  0.50589129  1
  Zr  Zr43  1  0.30730959  0.09372792  0.90683390  1
  Zr  Zr44  1  0.89932505  0.70706268  0.90432456  1
  Zr  Zr45  1  0.09155882  0.30247116  0.90842702  1
  Zr  Zr46  1  0.30657279  0.50138549  0.29871263  1
  Zr  Zr47  1  0.70578437  0.89505676  0.89479928  1
  Zr  Zr48  1  0.29887618  0.30535071  0.69808293  1
  Zr  Zr49  1  0.89569179  0.50646044  0.51122009  1
  Sc  Sc50  1  0.10086326  0.29960762  0.49987456  1
  Sc  Sc51  1  0.69674768  0.50038663  0.50500008  1
  Sc  Sc52  1  0.31114040  0.30166970  0.89213762  1
  Sc  Sc53  1  0.90549847  0.70013816  0.69588886  1
  Sc  Sc54  1  0.50084421  0.29086092  0.70482875  1
  Sc  Sc55  1  0.30746666  0.50539849  0.09670410  1
  Sc  Sc56  1  0.89753986  0.89765014  0.29129381  1
  Sc  Sc57  1  0.30100924  0.88737722  0.70470735  1
  Sc  Sc58  1  0.69597147  0.29733816  0.49432734  1
  Sc  Sc59  1  0.90089063  0.10242785  0.29866736  1
  Sc  Sc60  1  0.10036556  0.10354975  0.48999047  1
  Sc  Sc61  1  0.50199827  0.69674973  0.50017050  1
  Sc  Sc62  1  0.90098525  0.50305556  0.28900223  1
  Sc  Sc63  1  0.90192962  0.30024041  0.49598407  1
  Sc  Sc64  1  0.09765956  0.90426087  0.89285488  1
  Sc  Sc65  1  0.08724755  0.29185973  0.10360527  1
  Sc  Sc66  1  0.29950116  0.89776464  0.49368753  1
  Sc  Sc67  1  0.89220042  0.70405756  0.29501797  1
  Sc  Sc68  1  0.49365354  0.89505297  0.49175350  1
  Sc  Sc69  1  0.10531282  0.90220394  0.49833946  1
  Sc  Sc70  1  0.90048033  0.08831813  0.90291943  1
  Sc  Sc71  1  0.70482112  0.09904274  0.10973450  1
  Sc  Sc72  1  0.89500678  0.89753824  0.50510973  1
  Sc  Sc73  1  0.49464849  0.09533317  0.29784946  1
  Sc  Sc74  1  0.09566263  0.51262783  0.10249681  1
  Sc  Sc75  1  0.30863060  0.29814093  0.29604240  1
  Sc  Sc76  1  0.70151147  0.69965614  0.10434537  1
  Sc  Sc77  1  0.69769237  0.70924571  0.70074388  1
  Sc  Sc78  1  0.88850458  0.09555161  0.70782508  1
  Sc  Sc79  1  0.89271977  0.10061741  0.50267905  1
  Sc  Sc80  1  0.70008055  0.50033154  0.09964352  1
  Sc  Sc81  1  0.48136526  0.09836699  0.09945895  1
  Sc  Sc82  1  0.29962025  0.09750292  0.29249903  1
  Sc  Sc83  1  0.69760953  0.89393328  0.29026285  1
  Sc  Sc84  1  0.70512421  0.10168968  0.70440918  1
  Sc  Sc85  1  0.09665479  0.89686404  0.10865946  1
  Sc  Sc86  1  0.29782689  0.91274055  0.09999392  1
  Sc  Sc87  1  0.49369483  0.90601124  0.88980401  1
  Sc  Sc88  1  0.69999065  0.70087831  0.89646362  1
  Sc  Sc89  1  0.49905285  0.30079931  0.10401222  1
  Sc  Sc90  1  0.49391415  0.89945071  0.29357846  1
  Sc  Sc91  1  0.30623448  0.70059216  0.50122217  1
  Sc  Sc92  1  0.09248602  0.50262782  0.29049468  1
  Sc  Sc93  1  0.89222339  0.70456284  0.50352299  1
  Sc  Sc94  1  0.50568515  0.30607201  0.29691559  1
  Sc  Sc95  1  0.89462193  0.89891093  0.70625562  1
  Sc  Sc96  1  0.70102038  0.70345716  0.30006146  1
  Sc  Sc97  1  0.10137253  0.89213829  0.70358632  1
  Sc  Sc98  1  0.70410702  0.10979709  0.50364417  1
  Sc  Sc99  1  0.51597059  0.49569624  0.69423922  1
  Nb  Nb100  1  0.50266458  0.90149548  0.09728816  1
  Nb  Nb101  1  0.50227159  0.09935649  0.89297965  1
  Nb  Nb102  1  0.51273055  0.30197920  0.90243193  1
  Nb  Nb103  1  0.10870149  0.70331345  0.09884533  1
  Nb  Nb104  1  0.30114041  0.29829542  0.50372310  1
  Nb  Nb105  1  0.89175099  0.89747384  0.90872586  1
  Nb  Nb106  1  0.29568955  0.10177413  0.10137999  1
  Nb  Nb107  1  0.50020974  0.09377938  0.70594601  1
  Nb  Nb108  1  0.70105881  0.30901323  0.71182481  1
  Nb  Nb109  1  0.70226386  0.29230610  0.09673496  1
  Nb  Nb110  1  0.10386454  0.70029258  0.70130289  1
  Nb  Nb111  1  0.28603061  0.70516526  0.09706286  1
  Nb  Nb112  1  0.89941003  0.30295195  0.90716822  1
  Nb  Nb113  1  0.89474545  0.49942004  0.69943067  1
  Nb  Nb114  1  0.30265437  0.49926254  0.70095301  1
  Nb  Nb115  1  0.90717730  0.71362281  0.09966728  1
  Nb  Nb116  1  0.70074719  0.90130716  0.69950279  1
  Nb  Nb117  1  0.71310704  0.49103891  0.69878722  1
  Nb  Nb118  1  0.09950152  0.89780434  0.30320667  1
  Nb  Nb119  1  0.89692923  0.08501465  0.09997943  1
  Nb  Nb120  1  0.10153154  0.10073925  0.89870832  1
  Nb  Nb121  1  0.69972395  0.29747580  0.90059630  1
  Nb  Nb122  1  0.90092905  0.50240149  0.90392582  1
  Nb  Nb123  1  0.89309795  0.89745759  0.08952007  1
  Nb  Nb124  1  0.70297535  0.09769140  0.30261927  1
  Nb  Nb125  1  0.20038066  0.19608648  -0.00033116  1
  Nb  Nb126  1  0.60612119  0.00265351  0.40197794  1
  Nb  Nb127  1  0.00329891  0.60956286  0.40024567  1
  Nb  Nb128  1  -0.00489954  0.20502741  0.80602911  1
  Nb  Nb129  1  0.60012685  0.19690574  -0.00456371  1
  Nb  Nb130  1  0.00625327  0.79704502  0.39512216  1
  Nb  Nb131  1  0.80417394  0.59008697  0.79947981  1
  Nb  Nb132  1  0.40135169  0.00396428  0.60530917  1
  Nb  Nb133  1  0.20350815  0.00567106  0.60499188  1
  Nb  Nb134  1  -0.00084604  0.19628119  0.61143718  1
  Nb  Nb135  1  0.59615242  0.00320763  -0.00280840  1
  Nb  Nb136  1  0.40141350  0.79926343  0.00374352  1
  Nb  Nb137  1  0.40131930  0.20301920  0.40693450  1
  Nb  Nb138  1  0.80054878  0.40100968  0.39357915  1
  Nb  Nb139  1  0.59484466  0.80808180  0.00210009  1
  Nb  Nb140  1  0.00452511  0.00555355  0.60519398  1
  Nb  Nb141  1  0.20148935  0.40217366  0.39545877  1
  Nb  Nb142  1  0.79131978  -0.00011973  0.39671841  1
  Nb  Nb143  1  0.19465128  0.59914120  0.39666684  1
  Nb  Nb144  1  0.40050669  0.59374589  0.79587604  1
  Nb  Nb145  1  0.19974934  0.39790593  0.19814611  1
  Nb  Nb146  1  0.59862693  -0.00059341  0.60181518  1
  Nb  Nb147  1  -0.01004664  0.40558649  0.80504999  1
  Nb  Nb148  1  0.19834673  0.39410107  0.00677212  1
  Nb  Nb149  1  0.39878690  0.39927862  0.59970936  1
  Pd  Pd150  1  0.39348635  0.80857600  0.19072582  1
  Pd  Pd151  1  0.00121719  0.80998920  0.59726159  1
  Pd  Pd152  1  -0.00449111  0.39264763  0.60626730  1
  Pd  Pd153  1  0.80718061  0.59441048  0.39712771  1
  Pd  Pd154  1  0.59095727  0.18977961  0.19230485  1
  Pd  Pd155  1  0.00570961  -0.00697246  -0.00279660  1
  Pd  Pd156  1  0.19547991  0.78933513  0.40038421  1
  Pd  Pd157  1  0.41400944  0.40409880  0.79096872  1
  Pd  Pd158  1  0.19126990  0.40362152  0.80864477  1
  Pd  Pd159  1  0.39752603  0.80581938  0.59411015  1
  Pd  Pd160  1  0.59892828  0.80672462  0.39666863  1
  Pd  Pd161  1  -0.00033084  0.60969218  0.00744979  1
  Pd  Pd162  1  0.79424054  0.60675985  -0.00444842  1
  Pd  Pd163  1  0.60216304  0.20010856  0.79899008  1
  Pd  Pd164  1  0.00174596  0.40135487  0.18991219  1
  Pd  Pd165  1  0.60409715  0.60411707  0.39663368  1
  Pd  Pd166  1  -0.01109015  -0.00829853  0.40760594  1
  Pd  Pd167  1  -0.00686881  -0.00746922  0.19983907  1
  Pd  Pd168  1  0.19886346  0.20593388  0.81338561  1
  Pd  Pd169  1  0.79258795  0.40088879  0.00008692  1
  Pd  Pd170  1  0.79676974  0.18903973  -0.00267401  1
  Pd  Pd171  1  0.21065325  -0.00395012  0.79492903  1
  Pd  Pd172  1  -0.00252706  0.18643075  -0.00068561  1
  Pd  Pd173  1  0.39666344  0.39256899  0.00563668  1
  Pd  Pd174  1  0.60646639  0.39624116  0.19435572  1
  Pd  Pd175  1  0.39120753  -0.00257592  0.79379307  1
  Pd  Pd176  1  0.20455698  0.40753970  0.59174019  1
  Pd  Pd177  1  0.20837854  0.20665038  0.39035340  1
  Pd  Pd178  1  0.80136188  0.40401981  0.81488327  1
  Pd  Pd179  1  0.79433582  0.39047069  0.58680723  1
  Pd  Pd180  1  0.18855746  0.19452746  0.60009598  1
  Pd  Pd181  1  0.59339745  0.19534689  0.39054855  1
  Pd  Pd182  1  -0.00715085  0.60059878  0.79660158  1
  Pd  Pd183  1  0.19024267  0.00000141  0.00213793  1
  Pd  Pd184  1  -0.00361190  0.80414642  0.80142748  1
  Pd  Pd185  1  0.39788647  0.39235465  0.40437571  1
  Pd  Pd186  1  0.79991931  0.20778109  0.60239764  1
  Pd  Pd187  1  0.00991105  0.80727784  -0.00087860  1
  Pd  Pd188  1  0.39889617  0.60766961  -0.00358423  1
  Pd  Pd189  1  0.80195343  0.60430247  0.19588468  1
  Pd  Pd190  1  0.40351209  0.20422938  -0.00641859  1
  Pd  Pd191  1  0.39751766  0.78637616  0.80797208  1
  Pd  Pd192  1  -0.00452008  0.40934015  0.39484489  1
  Pd  Pd193  1  0.59514387  0.00543691  0.19850046  1
  Pd  Pd194  1  0.60930415  0.19991878  0.61420163  1
  Pd  Pd195  1  -0.00729770  0.19575859  0.40587938  1
  Pd  Pd196  1  0.60593764  0.59660464  0.79066494  1
  Pd  Pd197  1  0.60905835  0.60214594  0.60356908  1
  Pd  Pd198  1  0.39791889  0.60183493  0.19445710  1
  Pd  Pd199  1  0.20053692  0.00247689  0.40176335  1
  Rh  Rh200  1  0.20357252  0.59881550  0.79656606  1
  Rh  Rh201  1  0.00219369  0.40755953  0.00340423  1
  Rh  Rh202  1  0.19646736  0.79489932  0.79931775  1
  Rh  Rh203  1  0.60403798  0.39178977  0.60770872  1
  Rh  Rh204  1  -0.00990967  0.61077049  0.19439220  1
  Rh  Rh205  1  0.19656732  0.20175018  0.19866543  1
  Rh  Rh206  1  0.59839044  0.80263087  0.59634067  1
  Rh  Rh207  1  0.40465958  0.19737710  0.21085801  1
  Rh  Rh208  1  0.60545712  0.38756237  0.00957030  1
  Rh  Rh209  1  0.79066644  0.79382103  0.00345597  1
  Rh  Rh210  1  0.20305148  0.80821810  0.60154904  1
  Rh  Rh211  1  -0.00440149  0.80334768  0.20004118  1
  Rh  Rh212  1  0.39922288  0.60947933  0.39632503  1
  Rh  Rh213  1  0.80658111  0.80874512  0.39678756  1
  Rh  Rh214  1  0.20586126  0.81274608  0.19588935  1
  Rh  Rh215  1  0.79232432  0.00401720  -0.00019530  1
  Rh  Rh216  1  0.80121072  0.79977460  0.19337390  1
  Rh  Rh217  1  0.19739426  0.80928345  0.00496780  1
  Rh  Rh218  1  -0.01031759  0.19148305  0.19299127  1
  Rh  Rh219  1  0.40723283  0.00868527  0.40657989  1
  Rh  Rh220  1  0.40694393  -0.00649457  -0.00170543  1
  Rh  Rh221  1  -0.00838579  -0.00150680  0.80122890  1
  Rh  Rh222  1  0.80465985  0.79326935  0.79668304  1
  Rh  Rh223  1  0.20718170  0.59217926  0.19807873  1
  Rh  Rh224  1  0.80191840  -0.00825376  0.80192706  1
  Rh  Rh225  1  0.80508946  0.20434719  0.81009116  1
  Rh  Rh226  1  0.40456211  0.20500513  0.59899683  1
  Rh  Rh227  1  0.60169211  0.79933325  0.19514630  1
  Rh  Rh228  1  0.79764748  -0.00182738  0.59607877  1
  Rh  Rh229  1  0.79665998  0.39804730  0.19775766  1
  Rh  Rh230  1  -0.00366315  0.60502058  0.60029088  1
  Rh  Rh231  1  0.80340668  0.20150387  0.39611004  1
  Rh  Rh232  1  0.79321162  0.60659075  0.61096467  1
  Rh  Rh233  1  0.59990606  0.39981178  0.79736339  1
  Rh  Rh234  1  0.40907626  0.59040341  0.60817100  1
  Rh  Rh235  1  0.80762438  0.19025900  0.19518657  1
  Rh  Rh236  1  0.61216879  0.39898834  0.39282247  1
  Rh  Rh237  1  0.20067199  0.59439351  0.59631897  1
  Rh  Rh238  1  0.39577000  -0.00236140  0.19769226  1
  Rh  Rh239  1  0.60130189  0.80323418  0.80527701  1
  Rh  Rh240  1  0.19937542  0.59216831  0.00686971  1
  Rh  Rh241  1  0.80104969  0.79688189  0.60951041  1
  Rh  Rh242  1  0.60574405  -0.00418738  0.79697624  1
  Rh  Rh243  1  0.40771330  0.20284677  0.80735695  1
  Rh  Rh244  1  0.80536910  -0.00040454  0.20621628  1
  Rh  Rh245  1  0.19984726  -0.00183691  0.20493796  1
  Rh  Rh246  1  0.39966492  0.40287742  0.19422899  1
  Rh  Rh247  1  0.60683894  0.60882903  0.00536141  1
  Rh  Rh248  1  0.60354652  0.60091817  0.20428091  1
  Rh  Rh249  1  0.40012948  0.79394920  0.39767319  1
