# generated using pymatgen
data_ZrScNbPdRh
_symmetry_space_group_name_H-M   'P 1'
_cell_length_a   16.55308444
_cell_length_b   16.55205918
_cell_length_c   16.55303758
_cell_angle_alpha   89.99668494
_cell_angle_beta   89.98300540
_cell_angle_gamma   90.01143404
_symmetry_Int_Tables_number   1
_chemical_formula_structural   ZrScNbPdRh
_chemical_formula_sum   'Zr50 Sc50 Nb50 Pd50 Rh50'
_cell_volume   4535.32729313
_cell_formula_units_Z   50
loop_
 _symmetry_equiv_pos_site_id
 _symmetry_equiv_pos_as_xyz
  1  'x, y, z'
loop_
 _atom_site_type_symbol
 _atom_site_label
 _atom_site_symmetry_multiplicity
 _atom_site_fract_x
 _atom_site_fract_y
 _atom_site_fract_z
 _atom_site_occupancy
  Zr  Zr0  1  0.70448710  0.70465078  0.28743772  1
  Zr  Zr1  1  0.29762394  0.49373561  0.49576740  1
  Zr  Zr2  1  0.09901829  0.69348918  0.69824875  1
  Zr  Zr3  1  0.50495770  0.30397787  0.69077228  1
  Zr  Zr4  1  0.29911845  0.89176506  0.10357270  1
  Zr  Zr5  1  0.49845634  0.89403615  0.90438600  1
  Zr  Zr6  1  0.90307626  0.69532811  0.49514830  1
  Zr  Zr7  1  0.70588573  0.10055228  0.30593202  1
  Zr  Zr8  1  0.28674748  0.49307385  0.70391895  1
  Zr  Zr9  1  0.10845552  0.50010807  0.88782137  1
  Zr  Zr10  1  0.69810718  0.10023540  0.49900038  1
  Zr  Zr11  1  0.48946492  0.90118640  0.10231162  1
  Zr  Zr12  1  0.49763050  0.09508150  0.50087475  1
  Zr  Zr13  1  0.49696995  0.10856802  0.90697831  1
  Zr  Zr14  1  0.30218686  0.89410935  0.90899584  1
  Zr  Zr15  1  0.30062937  0.10379875  0.69952206  1
  Zr  Zr16  1  0.08934617  0.69805373  0.30182623  1
  Zr  Zr17  1  0.50557056  0.70414615  0.88953218  1
  Zr  Zr18  1  0.29730303  0.10438158  0.89437866  1
  Zr  Zr19  1  0.10419955  0.10943741  0.69774775  1
  Zr  Zr20  1  0.09536433  0.10989716  0.50249848  1
  Zr  Zr21  1  0.09724893  0.49848353  0.30305169  1
  Zr  Zr22  1  0.09554415  0.30334739  0.10274411  1
  Zr  Zr23  1  0.10053272  0.70350986  0.10380732  1
  Zr  Zr24  1  0.50549060  0.50147552  0.10622649  1
  Zr  Zr25  1  0.70027334  0.91227166  0.49950856  1
  Zr  Zr26  1  0.09396115  0.09823068  0.10363855  1
  Zr  Zr27  1  0.69913633  0.90457463  0.30391477  1
  Zr  Zr28  1  0.70257418  0.90000371  0.70232523  1
  Zr  Zr29  1  0.09693342  0.10624873  0.89684802  1
  Zr  Zr30  1  0.70663095  0.68834787  0.49475755  1
  Zr  Zr31  1  0.90763083  0.89202438  0.49902004  1
  Zr  Zr32  1  0.70987744  0.48921147  0.70184601  1
  Zr  Zr33  1  0.30697682  0.51258214  0.10177131  1
  Zr  Zr34  1  0.70508799  0.50284173  0.89912717  1
  Zr  Zr35  1  0.70555239  0.89720529  0.89525976  1
  Zr  Zr36  1  0.30775483  0.90801705  0.49694346  1
  Zr  Zr37  1  0.90112679  0.09894441  0.90146138  1
  Zr  Zr38  1  0.90603427  0.10760113  0.70279351  1
  Zr  Zr39  1  0.10118810  0.89533715  0.68516116  1
  Zr  Zr40  1  0.89618322  0.69516071  0.10972463  1
  Zr  Zr41  1  0.30580273  0.10622486  0.49826158  1
  Zr  Zr42  1  0.49977647  0.10111692  0.09882508  1
  Zr  Zr43  1  0.09771425  0.89864301  0.10147837  1
  Zr  Zr44  1  0.09844680  0.48644293  0.49864607  1
  Zr  Zr45  1  0.49394732  0.50547887  0.89580089  1
  Zr  Zr46  1  0.49525531  0.49107738  0.49811653  1
  Zr  Zr47  1  0.50500689  0.69940891  0.10018841  1
  Zr  Zr48  1  0.50147130  0.68494512  0.50068509  1
  Zr  Zr49  1  0.89898065  0.29645800  0.89739050  1
  Sc  Sc50  1  0.70316899  0.09459019  0.69344668  1
  Sc  Sc51  1  0.90509947  0.30012424  0.48973015  1
  Sc  Sc52  1  0.89702211  0.49584164  0.90444739  1
  Sc  Sc53  1  0.49896703  0.49958427  0.29839366  1
  Sc  Sc54  1  0.30065528  0.29434200  0.30923388  1
  Sc  Sc55  1  0.30528274  0.69377465  0.90912052  1
  Sc  Sc56  1  0.70155932  0.30079864  0.10742156  1
  Sc  Sc57  1  0.10227614  0.69229277  0.90581898  1
  Sc  Sc58  1  0.70098577  0.69200334  0.71144972  1
  Sc  Sc59  1  0.49929945  0.09606073  0.29892593  1
  Sc  Sc60  1  0.89284433  0.68793107  0.89464985  1
  Sc  Sc61  1  0.89956427  0.68769948  0.69389145  1
  Sc  Sc62  1  0.89920203  0.10655605  0.49959219  1
  Sc  Sc63  1  0.70196124  0.49485522  0.29839640  1
  Sc  Sc64  1  0.49999580  0.89167334  0.70809709  1
  Sc  Sc65  1  0.50544236  0.29178134  0.10021877  1
  Sc  Sc66  1  0.89475643  0.49774477  0.10275147  1
  Sc  Sc67  1  0.69719672  0.10839612  0.10912998  1
  Sc  Sc68  1  0.29516118  0.69969108  0.69063337  1
  Sc  Sc69  1  0.69952090  0.89497701  0.11129007  1
  Sc  Sc70  1  0.30907033  0.09720339  0.10399583  1
  Sc  Sc71  1  0.29799059  0.90341782  0.69231711  1
  Sc  Sc72  1  0.29621447  0.69198352  0.29685662  1
  Sc  Sc73  1  0.08850089  0.50592590  0.10150291  1
  Sc  Sc74  1  0.89557310  0.30260448  0.30089239  1
  Sc  Sc75  1  0.89888291  0.09704459  0.10017735  1
  Sc  Sc76  1  0.49713897  0.50342711  0.69890431  1
  Sc  Sc77  1  0.49641327  0.10686200  0.69062108  1
  Sc  Sc78  1  0.89437367  0.10548435  0.30388279  1
  Sc  Sc79  1  0.30061589  0.29770010  0.88684725  1
  Sc  Sc80  1  0.09573950  0.30285149  0.31230534  1
  Sc  Sc81  1  0.70521082  0.10009676  0.90396528  1
  Sc  Sc82  1  0.90132696  0.49766834  0.30309979  1
  Sc  Sc83  1  0.50517870  0.69878218  0.29775740  1
  Sc  Sc84  1  0.29988810  0.29820291  0.69706629  1
  Sc  Sc85  1  0.49751883  0.30618750  0.30237202  1
  Sc  Sc86  1  0.89842989  0.69769320  0.30398794  1
  Sc  Sc87  1  0.09736683  0.90622227  0.28888568  1
  Sc  Sc88  1  0.89864876  0.89694251  0.29273992  1
  Sc  Sc89  1  0.10614077  0.10289071  0.30238170  1
  Sc  Sc90  1  0.30426339  0.29560003  0.10928026  1
  Sc  Sc91  1  0.49381076  0.89986221  0.29924329  1
  Sc  Sc92  1  0.09257149  0.70974059  0.50462056  1
  Sc  Sc93  1  0.89977991  0.30782703  0.09905795  1
  Sc  Sc94  1  0.89412911  0.90139026  0.70011804  1
  Sc  Sc95  1  0.29792458  0.69531943  0.49660565  1
  Sc  Sc96  1  0.09163034  0.30113949  0.89335875  1
  Sc  Sc97  1  0.70284293  0.49641155  0.49589955  1
  Sc  Sc98  1  0.50149894  0.29997256  0.89685239  1
  Sc  Sc99  1  0.30067227  0.09889686  0.30611858  1
  Nb  Nb100  1  0.29785435  0.70278474  0.09576082  1
  Nb  Nb101  1  0.09955840  0.48911468  0.69708667  1
  Nb  Nb102  1  0.70200033  0.50654603  0.09666572  1
  Nb  Nb103  1  0.70103032  0.30798798  0.89584708  1
  Nb  Nb104  1  0.70779835  0.29472396  0.30934647  1
  Nb  Nb105  1  0.09538609  0.31133585  0.69202063  1
  Nb  Nb106  1  0.89660057  0.90383404  0.90112674  1
  Nb  Nb107  1  0.49658751  0.29707810  0.50258065  1
  Nb  Nb108  1  0.70069265  0.69972823  0.90645956  1
  Nb  Nb109  1  0.30181256  0.49571669  0.90310065  1
  Nb  Nb110  1  0.30932914  0.30327374  0.49616722  1
  Nb  Nb111  1  0.10076560  0.89893800  0.90067789  1
  Nb  Nb112  1  0.30037876  0.90039901  0.30334696  1
  Nb  Nb113  1  0.89697196  0.30431574  0.70340833  1
  Nb  Nb114  1  0.89311952  0.50803287  0.49830089  1
  Nb  Nb115  1  0.90219237  0.49818166  0.69302467  1
  Nb  Nb116  1  0.90407657  0.89920964  0.09695237  1
  Nb  Nb117  1  0.50154306  0.70184549  0.69652604  1
  Nb  Nb118  1  0.70135966  0.69336655  0.09930046  1
  Nb  Nb119  1  0.69514973  0.30177274  0.50356455  1
  Nb  Nb120  1  0.09936066  0.89730750  0.49873104  1
  Nb  Nb121  1  0.70224798  0.30475170  0.70335253  1
  Nb  Nb122  1  0.10325944  0.29822158  0.49998222  1
  Nb  Nb123  1  0.50176083  0.89983221  0.49800314  1
  Nb  Nb124  1  0.29419321  0.49439884  0.30114724  1
  Nb  Nb125  1  0.79741436  0.21364457  0.60480486  1
  Nb  Nb126  1  0.59503772  0.00521001  0.80641395  1
  Nb  Nb127  1  0.40197278  0.00143139  0.80452971  1
  Nb  Nb128  1  0.00488799  -0.00688342  0.80187050  1
  Nb  Nb129  1  0.00086030  0.80353525  0.80508463  1
  Nb  Nb130  1  0.20259956  0.40506948  0.20070380  1
  Nb  Nb131  1  0.20637742  0.40044306  0.00240623  1
  Nb  Nb132  1  0.41108300  0.79636727  0.59299323  1
  Nb  Nb133  1  0.19354230  0.80172408  0.80267508  1
  Nb  Nb134  1  0.19979791  0.80958231  0.39830676  1
  Nb  Nb135  1  0.59770639  -0.00071830  -0.00019089  1
  Nb  Nb136  1  0.60093733  0.20566551  0.40758703  1
  Nb  Nb137  1  0.60758962  0.20282141  0.79531064  1
  Nb  Nb138  1  0.00346616  -0.00237879  0.40413709  1
  Nb  Nb139  1  0.80209981  0.79777989  0.00103956  1
  Nb  Nb140  1  0.39919789  0.40515552  0.00053732  1
  Nb  Nb141  1  0.60168164  0.40482110  -0.00063370  1
  Nb  Nb142  1  0.19742673  0.00204324  -0.00128214  1
  Nb  Nb143  1  0.19682882  0.20092632  0.00136722  1
  Nb  Nb144  1  0.60081363  0.79436917  0.59680828  1
  Nb  Nb145  1  -0.00020325  0.20191761  0.20126008  1
  Nb  Nb146  1  0.79332183  0.79571801  0.59570648  1
  Nb  Nb147  1  0.59906684  0.80160343  0.40862024  1
  Nb  Nb148  1  -0.00840213  0.80281420  -0.00480811  1
  Nb  Nb149  1  0.79993802  0.20600910  -0.00325954  1
  Pd  Pd150  1  0.19542430  0.20704055  0.20004011  1
  Pd  Pd151  1  0.39939192  0.79307783  0.40182245  1
  Pd  Pd152  1  0.20061057  0.00531650  0.59099847  1
  Pd  Pd153  1  0.58970424  -0.00649829  0.61197398  1
  Pd  Pd154  1  0.59807024  -0.00097709  0.19789915  1
  Pd  Pd155  1  -0.00573007  0.40621403  0.80050985  1
  Pd  Pd156  1  0.19700412  0.59390051  0.00329826  1
  Pd  Pd157  1  0.39045668  0.21245991  -0.00065327  1
  Pd  Pd158  1  0.79769125  0.40062998  0.20167075  1
  Pd  Pd159  1  0.20832125  0.60885365  0.80089299  1
  Pd  Pd160  1  0.20528438  0.20918638  0.59612063  1
  Pd  Pd161  1  0.19510725  0.59617827  0.19818671  1
  Pd  Pd162  1  0.38978324  0.60544484  0.79250028  1
  Pd  Pd163  1  0.19211142  0.59540012  0.59181644  1
  Pd  Pd164  1  0.20049291  0.79734669  0.21051247  1
  Pd  Pd165  1  0.59863907  0.20478355  0.21481325  1
  Pd  Pd166  1  0.78923906  0.00067445  0.01129322  1
  Pd  Pd167  1  0.00350878  -0.00258650  -0.00395701  1
  Pd  Pd168  1  0.39701230  0.79113148  0.20461011  1
  Pd  Pd169  1  -0.00584360  0.60216179  -0.00093646  1
  Pd  Pd170  1  0.60231842  0.59498843  0.79523937  1
  Pd  Pd171  1  0.60075251  0.40867521  0.59912175  1
  Pd  Pd172  1  0.40360371  0.19979306  0.20980784  1
  Pd  Pd173  1  -0.00377670  0.00213101  0.60002086  1
  Pd  Pd174  1  0.19099529  0.60731832  0.40655000  1
  Pd  Pd175  1  0.60822825  0.59358814  0.60705189  1
  Pd  Pd176  1  -0.00385854  0.59610232  0.79834928  1
  Pd  Pd177  1  0.81118544  0.00336405  0.59742867  1
  Pd  Pd178  1  0.00877338  0.59398966  0.59353707  1
  Pd  Pd179  1  0.60580578  0.59931851  0.38911221  1
  Pd  Pd180  1  0.59767264  0.59720272  -0.00376465  1
  Pd  Pd181  1  0.79215893  0.19523834  0.79916123  1
  Pd  Pd182  1  0.19362607  -0.00070695  0.40296248  1
  Pd  Pd183  1  0.39537091  0.39727822  0.19977563  1
  Pd  Pd184  1  0.40158892  0.60561768  0.20606040  1
  Pd  Pd185  1  0.00571818  0.40623821  -0.00426872  1
  Pd  Pd186  1  0.80366926  0.00091788  0.19736722  1
  Pd  Pd187  1  0.40251720  0.39683330  0.79855855  1
  Pd  Pd188  1  0.38595636  0.79943585  0.79038864  1
  Pd  Pd189  1  0.60775234  0.80513102  0.00674700  1
  Pd  Pd190  1  0.60092359  0.39516043  0.39725849  1
  Pd  Pd191  1  0.60642900  0.39642156  0.19929862  1
  Pd  Pd192  1  0.20809928  0.00182514  0.19583235  1
  Pd  Pd193  1  0.79518892  0.80299027  0.40236769  1
  Pd  Pd194  1  0.80811774  0.39618066  0.59018953  1
  Pd  Pd195  1  0.80773564  0.79077697  0.79754129  1
  Pd  Pd196  1  0.20131175  -0.00757894  0.80173041  1
  Pd  Pd197  1  -0.01120923  0.39661367  0.59220993  1
  Pd  Pd198  1  0.39866677  0.59571940  0.39169001  1
  Pd  Pd199  1  0.39329932  0.59571930  0.60515023  1
  Rh  Rh200  1  0.20441730  0.39321908  0.59534771  1
  Rh  Rh201  1  0.40655256  -0.00819051  0.60953440  1
  Rh  Rh202  1  0.80146042  0.60393596  0.00314883  1
  Rh  Rh203  1  0.40362213  0.00265774  0.39456680  1
  Rh  Rh204  1  0.40459291  0.78668044  0.00459833  1
  Rh  Rh205  1  -0.00563543  0.79799738  0.19735651  1
  Rh  Rh206  1  0.20159105  0.20414763  0.40754564  1
  Rh  Rh207  1  0.00092196  0.59406386  0.40626560  1
  Rh  Rh208  1  0.00547600  0.20423450  0.78949798  1
  Rh  Rh209  1  0.59475179  0.39703870  0.80369389  1
  Rh  Rh210  1  0.80333558  0.80158437  0.19368740  1
  Rh  Rh211  1  0.18970603  0.21289668  0.79727760  1
  Rh  Rh212  1  0.19322400  0.79938192  -0.00342263  1
  Rh  Rh213  1  0.59295447  0.00094044  0.39292068  1
  Rh  Rh214  1  0.59733940  0.80122400  0.20505637  1
  Rh  Rh215  1  0.79075752  0.39613831  0.00252549  1
  Rh  Rh216  1  0.79638030  0.59883322  0.60327139  1
  Rh  Rh217  1  -0.00598081  0.59800130  0.20336611  1
  Rh  Rh218  1  0.80301804  0.00818560  0.79646173  1
  Rh  Rh219  1  0.60847360  0.20370925  0.60031600  1
  Rh  Rh220  1  -0.00816841  0.01114728  0.21220800  1
  Rh  Rh221  1  0.61357376  0.20519630  -0.00956235  1
  Rh  Rh222  1  0.40969345  0.19918151  0.40005612  1
  Rh  Rh223  1  0.81416755  -0.00293315  0.39991638  1
  Rh  Rh224  1  0.00896951  0.81078976  0.38799257  1
  Rh  Rh225  1  0.39452694  0.40313956  0.60213345  1
  Rh  Rh226  1  0.00413394  0.39537548  0.20715129  1
  Rh  Rh227  1  0.81080615  0.40582423  0.80103721  1
  Rh  Rh228  1  0.41131600  0.19880690  0.79051582  1
  Rh  Rh229  1  -0.00512182  0.20344385  0.01224251  1
  Rh  Rh230  1  0.39579186  0.20542875  0.59843701  1
  Rh  Rh231  1  0.00312724  0.19355895  0.39196903  1
  Rh  Rh232  1  0.40756597  0.60305032  0.00040682  1
  Rh  Rh233  1  0.79891795  0.59193765  0.20342728  1
  Rh  Rh234  1  -0.00604829  0.40336553  0.40372918  1
  Rh  Rh235  1  0.39706623  0.00216889  -0.00329668  1
  Rh  Rh236  1  0.79478808  0.20498439  0.41159479  1
  Rh  Rh237  1  0.80317180  0.59258223  0.79805272  1
  Rh  Rh238  1  0.39988456  0.40139485  0.39629974  1
  Rh  Rh239  1  0.39391737  -0.00006167  0.20575345  1
  Rh  Rh240  1  0.80053630  0.59443150  0.38988039  1
  Rh  Rh241  1  0.80886389  0.20542129  0.19278738  1
  Rh  Rh242  1  0.80123988  0.40076176  0.40410019  1
  Rh  Rh243  1  0.20393969  0.39292759  0.39680121  1
  Rh  Rh244  1  -0.00625675  0.21377518  0.60369560  1
  Rh  Rh245  1  0.19866185  0.39329589  0.80288537  1
  Rh  Rh246  1  0.60702257  0.59832044  0.20283615  1
  Rh  Rh247  1  0.60697756  0.79956740  0.79564971  1
  Rh  Rh248  1  0.21232892  0.80177134  0.59136114  1
  Rh  Rh249  1  -0.01337315  0.79637851  0.61221806  1
