# generated using pymatgen
data_ZrScNbPdRh
_symmetry_space_group_name_H-M   'P 1'
_cell_length_a   16.55447134
_cell_length_b   16.55105478
_cell_length_c   16.55474273
_cell_angle_alpha   90.00343999
_cell_angle_beta   89.99536425
_cell_angle_gamma   89.98471179
_symmetry_Int_Tables_number   1
_chemical_formula_structural   ZrScNbPdRh
_chemical_formula_sum   'Zr50 Sc50 Nb50 Pd50 Rh50'
_cell_volume   4535.89936644
_cell_formula_units_Z   50
loop_
 _symmetry_equiv_pos_site_id
 _symmetry_equiv_pos_as_xyz
  1  'x, y, z'
loop_
 _atom_site_type_symbol
 _atom_site_label
 _atom_site_symmetry_multiplicity
 _atom_site_fract_x
 _atom_site_fract_y
 _atom_site_fract_z
 _atom_site_occupancy
  Zr  Zr0  1  0.09945466  0.49422590  0.90283454  1
  Zr  Zr1  1  0.09482873  0.69692956  0.89749272  1
  Zr  Zr2  1  0.09817594  0.70339046  0.30474744  1
  Zr  Zr3  1  0.30488464  0.50143613  0.10031243  1
  Zr  Zr4  1  0.31009834  0.69555256  0.10186540  1
  Zr  Zr5  1  0.09876199  0.69684537  0.70190519  1
  Zr  Zr6  1  0.89208241  0.10013912  0.50272801  1
  Zr  Zr7  1  0.89365860  0.50424666  0.10472405  1
  Zr  Zr8  1  0.29154050  0.90223180  0.70193535  1
  Zr  Zr9  1  0.10796429  0.30218475  0.09310485  1
  Zr  Zr10  1  0.29869771  0.70972641  0.29823273  1
  Zr  Zr11  1  0.90381559  0.70722654  0.70184096  1
  Zr  Zr12  1  0.09243930  0.29193073  0.30440645  1
  Zr  Zr13  1  0.49999127  0.30208578  0.90344489  1
  Zr  Zr14  1  0.69107317  0.49406155  0.50153568  1
  Zr  Zr15  1  0.09953818  0.29979266  0.89949113  1
  Zr  Zr16  1  0.29666893  0.90005134  0.30262286  1
  Zr  Zr17  1  0.10141051  0.90533527  0.50190754  1
  Zr  Zr18  1  0.90604259  0.70139068  0.30598639  1
  Zr  Zr19  1  0.09220559  0.09496381  0.10069644  1
  Zr  Zr20  1  0.89562889  0.89426899  0.29824137  1
  Zr  Zr21  1  0.49933692  0.89943272  0.30032330  1
  Zr  Zr22  1  0.90479148  0.69923088  0.49946427  1
  Zr  Zr23  1  0.49830078  0.10165779  0.69848776  1
  Zr  Zr24  1  0.30245817  0.70414598  0.50275855  1
  Zr  Zr25  1  0.50162409  0.89878784  0.09528055  1
  Zr  Zr26  1  0.48770658  0.90248050  0.69212988  1
  Zr  Zr27  1  0.29974943  0.50290410  0.29146784  1
  Zr  Zr28  1  0.89188045  0.30469164  0.30004293  1
  Zr  Zr29  1  0.89445998  0.09006172  0.09555122  1
  Zr  Zr30  1  0.69749162  0.69955152  0.30604670  1
  Zr  Zr31  1  0.69873336  0.49529435  0.29366776  1
  Zr  Zr32  1  0.89948177  0.89533827  0.89539227  1
  Zr  Zr33  1  0.70025677  0.50317514  0.90560788  1
  Zr  Zr34  1  0.90266637  0.69937358  0.10284975  1
  Zr  Zr35  1  0.89797604  0.10294754  0.90135920  1
  Zr  Zr36  1  0.89611393  0.89864521  0.50551872  1
  Zr  Zr37  1  0.50452915  0.49853083  0.88958715  1
  Zr  Zr38  1  0.30733382  0.09838880  0.09706586  1
  Zr  Zr39  1  0.50373915  0.49040454  0.30053819  1
  Zr  Zr40  1  0.90873180  0.10842231  0.28426446  1
  Zr  Zr41  1  0.09786074  0.30351392  0.69801690  1
  Zr  Zr42  1  0.69903585  0.68097084  0.09851907  1
  Zr  Zr43  1  0.49537221  0.30672495  0.48755839  1
  Zr  Zr44  1  0.69785999  0.89876807  0.90643549  1
  Zr  Zr45  1  0.29773054  0.90138202  0.09813565  1
  Zr  Zr46  1  0.70682990  0.29072426  0.49907948  1
  Zr  Zr47  1  0.10473550  0.09611432  0.30696977  1
  Zr  Zr48  1  0.10780247  0.89437427  0.29984498  1
  Zr  Zr49  1  0.69759175  0.89545749  0.30730663  1
  Sc  Sc50  1  0.50601773  0.09931869  0.50051856  1
  Sc  Sc51  1  0.69560871  0.10009993  0.30275187  1
  Sc  Sc52  1  0.30654395  0.70085450  0.70386701  1
  Sc  Sc53  1  0.28578271  0.09879279  0.50116533  1
  Sc  Sc54  1  0.50249341  0.70414742  0.50164934  1
  Sc  Sc55  1  0.69491555  0.29983563  0.89934791  1
  Sc  Sc56  1  0.89823113  0.50223807  0.30601835  1
  Sc  Sc57  1  0.70569542  0.30551412  0.69312584  1
  Sc  Sc58  1  0.31242424  0.29776857  0.30001124  1
  Sc  Sc59  1  0.70252405  0.10318250  0.90808085  1
  Sc  Sc60  1  0.30179358  0.30070871  0.09860222  1
  Sc  Sc61  1  0.90881693  0.49823316  0.90110012  1
  Sc  Sc62  1  0.50369419  0.30594664  0.70892657  1
  Sc  Sc63  1  0.10254620  0.49644703  0.10072711  1
  Sc  Sc64  1  0.69793609  0.10868150  0.68357108  1
  Sc  Sc65  1  0.49553885  0.89463828  0.90510936  1
  Sc  Sc66  1  0.49912241  0.50029490  0.69413235  1
  Sc  Sc67  1  0.30236517  0.89992772  0.50274099  1
  Sc  Sc68  1  0.69592138  0.30204989  0.29689589  1
  Sc  Sc69  1  0.09752701  0.70447077  0.10427500  1
  Sc  Sc70  1  0.70473739  0.10147462  0.09936169  1
  Sc  Sc71  1  0.50135425  0.11300114  0.90321183  1
  Sc  Sc72  1  0.09021052  0.09749379  0.89689190  1
  Sc  Sc73  1  0.30800534  0.50226117  0.69848255  1
  Sc  Sc74  1  0.09501467  0.50454703  0.29474941  1
  Sc  Sc75  1  0.30342247  0.31044488  0.69464703  1
  Sc  Sc76  1  0.88940948  0.28170027  0.10674825  1
  Sc  Sc77  1  0.29731807  0.89560506  0.90268884  1
  Sc  Sc78  1  0.09434669  0.50068898  0.51072786  1
  Sc  Sc79  1  0.49620152  0.69677279  0.69532273  1
  Sc  Sc80  1  0.30547560  0.49471231  0.51330677  1
  Sc  Sc81  1  0.69053185  0.49435857  0.70094628  1
  Sc  Sc82  1  0.50025815  0.10162850  0.10430797  1
  Sc  Sc83  1  0.30285445  0.70458928  0.89293381  1
  Sc  Sc84  1  0.91525581  0.09294298  0.70099783  1
  Sc  Sc85  1  0.09076988  0.69776229  0.50292136  1
  Sc  Sc86  1  0.29564285  0.30146553  0.50536129  1
  Sc  Sc87  1  0.49667190  0.90233870  0.49711058  1
  Sc  Sc88  1  0.30363785  0.30076142  0.91046189  1
  Sc  Sc89  1  0.70152664  0.69824667  0.89846188  1
  Sc  Sc90  1  0.89603619  0.30764788  0.49891430  1
  Sc  Sc91  1  0.49657488  0.10993284  0.29116802  1
  Sc  Sc92  1  0.10351842  0.08817508  0.69846830  1
  Sc  Sc93  1  0.69695250  0.69881295  0.49536496  1
  Sc  Sc94  1  0.09500903  0.50261043  0.69872323  1
  Sc  Sc95  1  0.90259649  0.49646035  0.49870149  1
  Sc  Sc96  1  0.90666052  0.30276540  0.89510259  1
  Sc  Sc97  1  0.31172645  0.50555963  0.89568662  1
  Sc  Sc98  1  0.49097362  0.70097178  0.90017711  1
  Sc  Sc99  1  0.70272542  0.69919668  0.69821165  1
  Nb  Nb100  1  0.50265145  0.29728856  0.29382751  1
  Nb  Nb101  1  0.89710387  0.69556402  0.90041638  1
  Nb  Nb102  1  0.70140907  0.91013701  0.49964324  1
  Nb  Nb103  1  0.30701762  0.10682709  0.89848277  1
  Nb  Nb104  1  0.69661209  0.49908479  0.10304230  1
  Nb  Nb105  1  0.50606185  0.29739498  0.10715313  1
  Nb  Nb106  1  0.49869750  0.70551167  0.30191391  1
  Nb  Nb107  1  0.50633564  0.51012270  0.10152374  1
  Nb  Nb108  1  0.70165461  0.89693451  0.10026645  1
  Nb  Nb109  1  0.10373944  0.29986562  0.50116627  1
  Nb  Nb110  1  0.90146242  0.30187663  0.69790888  1
  Nb  Nb111  1  0.50028816  0.50368909  0.50114361  1
  Nb  Nb112  1  0.89841883  0.48948718  0.69834026  1
  Nb  Nb113  1  0.10552207  0.89547389  0.89804204  1
  Nb  Nb114  1  0.70057002  0.30359279  0.10462622  1
  Nb  Nb115  1  0.89922294  0.89798296  0.69883663  1
  Nb  Nb116  1  0.49749849  0.69481282  0.10544287  1
  Nb  Nb117  1  0.09161616  0.90296318  0.70450937  1
  Nb  Nb118  1  0.30132405  0.09759513  0.69979238  1
  Nb  Nb119  1  0.89300547  0.90027987  0.09991166  1
  Nb  Nb120  1  0.09711339  0.10312857  0.49950992  1
  Nb  Nb121  1  0.70838418  0.89622538  0.70149156  1
  Nb  Nb122  1  0.10004261  0.89989552  0.08646177  1
  Nb  Nb123  1  0.30031951  0.09542989  0.29398227  1
  Nb  Nb124  1  0.70242609  0.09678669  0.49948813  1
  Nb  Nb125  1  0.39415016  0.00541415  0.39285561  1
  Nb  Nb126  1  0.80663541  0.19742382  0.79374627  1
  Nb  Nb127  1  -0.00441912  0.39345236  0.19969667  1
  Nb  Nb128  1  0.80301150  0.79774788  0.00606825  1
  Nb  Nb129  1  0.79335260  0.40111656  0.00855982  1
  Nb  Nb130  1  0.41463448  0.40521201  0.00746129  1
  Nb  Nb131  1  0.00515890  0.20281985  0.59443724  1
  Nb  Nb132  1  0.60124853  0.80797918  0.79272219  1
  Nb  Nb133  1  0.80246377  0.59425621  0.60476163  1
  Nb  Nb134  1  0.60104406  -0.00340673  0.79515694  1
  Nb  Nb135  1  0.39885093  0.19743230  0.60238270  1
  Nb  Nb136  1  0.19360701  0.80288106  0.60798753  1
  Nb  Nb137  1  -0.00102807  0.00324675  0.40048665  1
  Nb  Nb138  1  0.59953389  0.79477177  0.19403718  1
  Nb  Nb139  1  0.39818473  0.00741618  0.80092806  1
  Nb  Nb140  1  0.19980063  0.39648842  0.80277849  1
  Nb  Nb141  1  0.20581410  0.19895110  0.79908627  1
  Nb  Nb142  1  0.60782980  0.81118728  0.60201740  1
  Nb  Nb143  1  0.80794175  0.59635430  0.79570316  1
  Nb  Nb144  1  0.20264710  0.60118327  -0.00104475  1
  Nb  Nb145  1  0.79614913  -0.00127378  0.79546709  1
  Nb  Nb146  1  0.19673712  0.40238805  0.40192004  1
  Nb  Nb147  1  0.40043006  0.60001277  0.39753156  1
  Nb  Nb148  1  0.20549211  0.59625632  0.40192433  1
  Nb  Nb149  1  0.20139125  0.19321318  0.20135429  1
  Pd  Pd150  1  0.19921463  0.19863478  0.60901729  1
  Pd  Pd151  1  0.40632963  0.00330166  -0.00849794  1
  Pd  Pd152  1  0.00309501  -0.01306905  0.20346085  1
  Pd  Pd153  1  -0.00213300  -0.00772025  -0.00692455  1
  Pd  Pd154  1  0.39350268  0.19126271  0.40875245  1
  Pd  Pd155  1  0.79110504  0.79134613  0.19546747  1
  Pd  Pd156  1  0.79188003  0.00275721  0.20550446  1
  Pd  Pd157  1  0.79911712  0.59371127  0.40811840  1
  Pd  Pd158  1  0.59421137  0.39100534  0.59829104  1
  Pd  Pd159  1  0.19284766  0.60614174  0.19762469  1
  Pd  Pd160  1  0.20368078  0.59277309  0.80427808  1
  Pd  Pd161  1  0.59139550  0.00571192  0.39756346  1
  Pd  Pd162  1  0.00513849  0.80901884  0.19471299  1
  Pd  Pd163  1  0.19773774  0.00000279  0.19338181  1
  Pd  Pd164  1  0.19363188  0.38821230  0.21092897  1
  Pd  Pd165  1  0.79710452  0.39826102  0.80835893  1
  Pd  Pd166  1  0.59082056  0.21050666  0.59523348  1
  Pd  Pd167  1  0.00677977  0.59856291  0.00567023  1
  Pd  Pd168  1  0.80344276  0.60294938  0.21102544  1
  Pd  Pd169  1  0.60273897  0.19856496  0.00834496  1
  Pd  Pd170  1  0.00362776  0.80178818  0.80211872  1
  Pd  Pd171  1  0.80706131  0.00615174  0.38994362  1
  Pd  Pd172  1  0.59627800  0.00807929  -0.00333507  1
  Pd  Pd173  1  -0.00539899  0.20441636  0.00463714  1
  Pd  Pd174  1  -0.00535212  0.80198452  -0.00056266  1
  Pd  Pd175  1  0.59119988  0.59857645  0.39914789  1
  Pd  Pd176  1  0.61283720  0.19515455  0.79661322  1
  Pd  Pd177  1  -0.01524498  0.39150057  0.01443233  1
  Pd  Pd178  1  0.80009492  0.19631894  0.39332453  1
  Pd  Pd179  1  0.21035531  0.20762981  0.39480476  1
  Pd  Pd180  1  0.19837086  0.18832286  -0.00153989  1
  Pd  Pd181  1  0.00679085  0.40576107  0.39840838  1
  Pd  Pd182  1  0.58974669  0.60606789  -0.00791529  1
  Pd  Pd183  1  0.40638191  0.39719996  0.19306277  1
  Pd  Pd184  1  0.40349303  0.80636382  0.19554032  1
  Pd  Pd185  1  0.39056068  0.40793974  0.40160385  1
  Pd  Pd186  1  0.19931901  0.00742794  -0.01022527  1
  Pd  Pd187  1  0.59962383  0.19987341  0.39754726  1
  Pd  Pd188  1  0.20304473  0.00616281  0.81023060  1
  Pd  Pd189  1  0.59992506  0.39975499  0.00614119  1
  Pd  Pd190  1  0.60357867  -0.00455288  0.60240321  1
  Pd  Pd191  1  0.60299438  0.60956593  0.79460132  1
  Pd  Pd192  1  0.20437509  0.78910154  0.00073447  1
  Pd  Pd193  1  0.20353330  0.60366574  0.59760931  1
  Pd  Pd194  1  0.60355767  -0.00349382  0.19801710  1
  Pd  Pd195  1  0.79348988  0.79214989  0.59168287  1
  Pd  Pd196  1  0.60396947  0.78777689  0.00107351  1
  Pd  Pd197  1  0.39362528  0.20683370  0.79315695  1
  Pd  Pd198  1  -0.00973008  0.19801805  0.40893085  1
  Pd  Pd199  1  0.80056616  0.00504545  0.60956048  1
  Rh  Rh200  1  -0.00200248  0.59452479  0.20029532  1
  Rh  Rh201  1  0.60418361  0.60774282  0.59816245  1
  Rh  Rh202  1  0.81183217  0.19911082  0.60694073  1
  Rh  Rh203  1  0.39509350  0.39662234  0.80781098  1
  Rh  Rh204  1  0.60415202  0.39896564  0.79861481  1
  Rh  Rh205  1  0.00593289  0.80508787  0.60334237  1
  Rh  Rh206  1  0.40148245  -0.00445764  0.20364116  1
  Rh  Rh207  1  0.79897863  0.40482499  0.59553802  1
  Rh  Rh208  1  0.19360182  0.79990336  0.79533529  1
  Rh  Rh209  1  0.00170652  0.20105159  0.78710153  1
  Rh  Rh210  1  0.39533817  0.20339791  0.19534992  1
  Rh  Rh211  1  0.19686213  0.80396329  0.18827019  1
  Rh  Rh212  1  0.40965116  0.39308375  0.60007127  1
  Rh  Rh213  1  0.79816961  0.21325163  -0.01110327  1
  Rh  Rh214  1  0.00762555  0.59545315  0.40116032  1
  Rh  Rh215  1  0.59393117  0.60468630  0.20958729  1
  Rh  Rh216  1  0.20148387  -0.00066151  0.40345411  1
  Rh  Rh217  1  0.60437784  0.20177072  0.19809739  1
  Rh  Rh218  1  0.59983505  0.80481145  0.40634016  1
  Rh  Rh219  1  0.19461999  0.79132362  0.41514319  1
  Rh  Rh220  1  0.40652193  0.20757757  0.00807121  1
  Rh  Rh221  1  -0.00145050  0.39388984  0.59785315  1
  Rh  Rh222  1  0.21693716  0.41473048  -0.00944271  1
  Rh  Rh223  1  0.40578941  0.80830629  0.79983615  1
  Rh  Rh224  1  0.78851464  0.19387551  0.20520783  1
  Rh  Rh225  1  0.79054085  0.40335952  0.40252105  1
  Rh  Rh226  1  0.79827430  0.80001267  0.40785085  1
  Rh  Rh227  1  0.40530139  0.60072670  0.59419274  1
  Rh  Rh228  1  -0.00046176  0.81022083  0.40310689  1
  Rh  Rh229  1  -0.00377468  -0.00768053  0.80520305  1
  Rh  Rh230  1  0.40450936  0.60117190  0.79458805  1
  Rh  Rh231  1  0.39787404  0.79786591  0.59915270  1
  Rh  Rh232  1  0.80353073  0.39987005  0.19577812  1
  Rh  Rh233  1  0.79541354  0.79729538  0.80936101  1
  Rh  Rh234  1  0.80541800  0.59550531  -0.00768219  1
  Rh  Rh235  1  0.60334246  0.39363873  0.39966779  1
  Rh  Rh236  1  -0.01279598  0.59580727  0.60575088  1
  Rh  Rh237  1  0.00603093  0.40368582  0.79595566  1
  Rh  Rh238  1  0.19765830  -0.00423379  0.60032176  1
  Rh  Rh239  1  0.19661603  0.40734251  0.60197453  1
  Rh  Rh240  1  0.00030379  0.00263999  0.59310607  1
  Rh  Rh241  1  0.40121675  0.59721157  -0.00181187  1
  Rh  Rh242  1  0.39567533  0.79673549  0.00359112  1
  Rh  Rh243  1  0.41146000  0.59939637  0.21091034  1
  Rh  Rh244  1  0.59754052  0.39849724  0.19554552  1
  Rh  Rh245  1  -0.00819623  0.59513999  0.79586909  1
  Rh  Rh246  1  0.80016379  -0.00884552  -0.00290805  1
  Rh  Rh247  1  0.01063117  0.20663744  0.18913043  1
  Rh  Rh248  1  0.40283641  0.80333484  0.40350249  1
  Rh  Rh249  1  0.39218725  0.01124083  0.59152892  1
