# generated using pymatgen
data_ZrScNbPdRh
_symmetry_space_group_name_H-M   'P 1'
_cell_length_a   16.56392081
_cell_length_b   16.55757997
_cell_length_c   16.56458115
_cell_angle_alpha   90.02269780
_cell_angle_beta   90.00425770
_cell_angle_gamma   90.02920063
_symmetry_Int_Tables_number   1
_chemical_formula_structural   ZrScNbPdRh
_chemical_formula_sum   'Zr50 Sc50 Nb50 Pd50 Rh50'
_cell_volume   4542.97528210
_cell_formula_units_Z   50
loop_
 _symmetry_equiv_pos_site_id
 _symmetry_equiv_pos_as_xyz
  1  'x, y, z'
loop_
 _atom_site_type_symbol
 _atom_site_label
 _atom_site_symmetry_multiplicity
 _atom_site_fract_x
 _atom_site_fract_y
 _atom_site_fract_z
 _atom_site_occupancy
  Zr  Zr0  1  0.50359109  0.50377123  0.90574094  1
  Zr  Zr1  1  0.89712825  0.50124616  0.29676976  1
  Zr  Zr2  1  0.10666575  0.69265855  0.09313445  1
  Zr  Zr3  1  0.50038666  0.70240813  0.08987833  1
  Zr  Zr4  1  0.09948145  0.90294422  0.29701847  1
  Zr  Zr5  1  0.30114641  0.10167212  0.90326464  1
  Zr  Zr6  1  0.89813700  0.10582519  0.89928719  1
  Zr  Zr7  1  0.89516758  0.90227830  0.69920030  1
  Zr  Zr8  1  0.29620885  0.49277091  0.69576724  1
  Zr  Zr9  1  0.89858249  0.89641016  0.10485168  1
  Zr  Zr10  1  0.49513933  0.89376511  0.49964497  1
  Zr  Zr11  1  0.30150874  0.49604691  0.30079815  1
  Zr  Zr12  1  0.69876977  0.90009230  0.70571036  1
  Zr  Zr13  1  0.30108851  0.69247067  0.30036957  1
  Zr  Zr14  1  0.90054152  0.09920084  0.30334595  1
  Zr  Zr15  1  0.10496085  0.49636243  0.51193797  1
  Zr  Zr16  1  0.70495916  0.09605524  0.30348220  1
  Zr  Zr17  1  0.09945442  0.70916737  0.30751994  1
  Zr  Zr18  1  0.69515944  0.69926854  0.90477465  1
  Zr  Zr19  1  0.10551878  0.10319350  0.50707223  1
  Zr  Zr20  1  0.70663205  0.30050146  0.11119574  1
  Zr  Zr21  1  0.10023761  0.30093693  0.90984497  1
  Zr  Zr22  1  0.89255589  0.29408791  0.29816905  1
  Zr  Zr23  1  0.30637638  0.89832680  0.71153428  1
  Zr  Zr24  1  0.50344297  0.69119791  0.29681797  1
  Zr  Zr25  1  0.69295933  0.89822040  0.10051081  1
  Zr  Zr26  1  0.69446728  0.49880210  0.29839356  1
  Zr  Zr27  1  0.10167017  0.90670697  0.10381509  1
  Zr  Zr28  1  0.10722038  0.30247194  0.69593414  1
  Zr  Zr29  1  0.10266744  0.49733662  0.29688961  1
  Zr  Zr30  1  0.50202955  0.69710435  0.89724792  1
  Zr  Zr31  1  0.09813381  0.10998504  0.70169117  1
  Zr  Zr32  1  0.50409204  0.50750920  0.10849733  1
  Zr  Zr33  1  0.48882549  0.10505207  0.29386267  1
  Zr  Zr34  1  0.69561314  0.49714434  0.50250026  1
  Zr  Zr35  1  0.30293536  0.90476202  0.09249662  1
  Zr  Zr36  1  0.29840971  0.29558112  0.49829363  1
  Zr  Zr37  1  0.29755069  0.29260678  0.30175534  1
  Zr  Zr38  1  0.30253364  0.70800934  0.90293861  1
  Zr  Zr39  1  0.10286123  0.90001708  0.48673901  1
  Zr  Zr40  1  0.29490147  0.09974260  0.70793714  1
  Zr  Zr41  1  0.89563845  0.29908220  0.49509647  1
  Zr  Zr42  1  0.70096186  0.69370541  0.49790686  1
  Zr  Zr43  1  0.10289390  0.09216029  0.29778186  1
  Zr  Zr44  1  0.10051383  0.69453706  0.89865578  1
  Zr  Zr45  1  0.90191580  0.49808607  0.10204042  1
  Zr  Zr46  1  0.30001549  0.90707300  0.30628970  1
  Zr  Zr47  1  0.70003183  0.09662484  0.89895048  1
  Zr  Zr48  1  0.29921624  0.10163350  0.49022251  1
  Zr  Zr49  1  0.91281056  0.89957676  0.30354969  1
  Sc  Sc50  1  0.69350269  0.69196167  0.69179724  1
  Sc  Sc51  1  0.68402154  0.10528720  0.70462408  1
  Sc  Sc52  1  0.09945664  0.69055281  0.69626349  1
  Sc  Sc53  1  0.29961110  0.09841343  0.10043633  1
  Sc  Sc54  1  0.89710799  0.90192132  0.49981677  1
  Sc  Sc55  1  0.50169789  0.10201261  0.89931053  1
  Sc  Sc56  1  0.69159242  0.50253681  0.89727695  1
  Sc  Sc57  1  0.89186753  0.70073908  0.49906556  1
  Sc  Sc58  1  0.30023337  0.29554802  0.90166282  1
  Sc  Sc59  1  0.51395927  0.29261332  0.10274903  1
  Sc  Sc60  1  0.09935789  0.29674165  0.29421503  1
  Sc  Sc61  1  0.69526199  0.29874859  0.91544298  1
  Sc  Sc62  1  0.30790889  0.49141958  0.89310577  1
  Sc  Sc63  1  0.89384957  0.69225792  0.69398612  1
  Sc  Sc64  1  0.10454843  0.49318617  0.09730829  1
  Sc  Sc65  1  0.90570790  0.09614798  0.70286608  1
  Sc  Sc66  1  0.89663762  0.11001186  0.10006052  1
  Sc  Sc67  1  0.29997528  0.49779766  0.49221754  1
  Sc  Sc68  1  0.29540782  0.90378834  0.89882758  1
  Sc  Sc69  1  0.69314017  0.90650474  0.90342408  1
  Sc  Sc70  1  0.50449306  0.69677437  0.50040641  1
  Sc  Sc71  1  0.10424612  0.70059635  0.49829289  1
  Sc  Sc72  1  0.50209174  0.10328738  0.49521044  1
  Sc  Sc73  1  0.50857110  0.30169413  0.50005794  1
  Sc  Sc74  1  0.89322979  0.49684080  0.50088540  1
  Sc  Sc75  1  0.09728019  0.29433767  0.50478427  1
  Sc  Sc76  1  0.69962208  0.71036909  0.10124513  1
  Sc  Sc77  1  0.89881283  0.50792880  0.69448890  1
  Sc  Sc78  1  0.90025795  0.30064246  0.09975941  1
  Sc  Sc79  1  0.50169250  0.30025906  0.29551481  1
  Sc  Sc80  1  0.49436490  0.29924855  0.89787060  1
  Sc  Sc81  1  0.09908119  0.10358568  0.89693693  1
  Sc  Sc82  1  0.10346212  0.91677832  0.70931791  1
  Sc  Sc83  1  0.70300022  0.09324814  0.49736239  1
  Sc  Sc84  1  0.30528859  0.70408120  0.49389404  1
  Sc  Sc85  1  0.50706461  0.49629672  0.71666205  1
  Sc  Sc86  1  0.90764602  0.30114743  0.69156940  1
  Sc  Sc87  1  0.28240090  0.29771162  0.09998932  1
  Sc  Sc88  1  0.10668550  0.10167088  0.10225441  1
  Sc  Sc89  1  0.70891907  0.89907043  0.50275368  1
  Sc  Sc90  1  0.90393967  0.30204929  0.91434830  1
  Sc  Sc91  1  0.30268951  0.30025762  0.71247287  1
  Sc  Sc92  1  0.89794204  0.69899260  0.29545689  1
  Sc  Sc93  1  0.50323891  0.90317031  0.09528919  1
  Sc  Sc94  1  0.70726440  0.69479170  0.29777232  1
  Sc  Sc95  1  0.70237319  0.49515512  0.10278374  1
  Sc  Sc96  1  0.69511455  0.10527902  0.09069157  1
  Sc  Sc97  1  0.50242386  0.90869108  0.28950774  1
  Sc  Sc98  1  0.89939821  0.09673734  0.49914564  1
  Sc  Sc99  1  0.88820087  0.91189601  0.89459406  1
  Nb  Nb100  1  0.49628791  0.09762095  0.09831231  1
  Nb  Nb101  1  0.69668974  0.90068682  0.29707409  1
  Nb  Nb102  1  0.70366190  0.49136179  0.69966472  1
  Nb  Nb103  1  0.70253917  0.29694667  0.30317378  1
  Nb  Nb104  1  0.09775385  0.29889504  0.09406900  1
  Nb  Nb105  1  0.49931280  0.89892616  0.70418979  1
  Nb  Nb106  1  0.09597058  0.89990585  0.90341128  1
  Nb  Nb107  1  0.50499857  0.29099531  0.69609416  1
  Nb  Nb108  1  0.90348072  0.50474445  0.89417868  1
  Nb  Nb109  1  0.69210425  0.30531505  0.69001124  1
  Nb  Nb110  1  0.30397049  0.69919545  0.09817006  1
  Nb  Nb111  1  0.30284115  0.70111009  0.70452316  1
  Nb  Nb112  1  0.09326337  0.50334501  0.89621093  1
  Nb  Nb113  1  0.29976800  0.90040106  0.50209712  1
  Nb  Nb114  1  0.49655582  0.10090615  0.70243979  1
  Nb  Nb115  1  0.69903263  0.30059280  0.50573629  1
  Nb  Nb116  1  0.49688590  0.50337840  0.49080614  1
  Nb  Nb117  1  0.49890162  0.89845685  0.89257573  1
  Nb  Nb118  1  0.10323232  0.49820599  0.70020177  1
  Nb  Nb119  1  0.90314702  0.69334359  0.89380001  1
  Nb  Nb120  1  0.49724803  0.50354494  0.30420477  1
  Nb  Nb121  1  0.89717874  0.69941391  0.09494321  1
  Nb  Nb122  1  0.49345581  0.70667792  0.70136061  1
  Nb  Nb123  1  0.30036982  0.10579272  0.29696074  1
  Nb  Nb124  1  0.30130570  0.50349093  0.10890596  1
  Nb  Nb125  1  0.39970019  0.40279400  0.01495486  1
  Nb  Nb126  1  0.79489745  0.21247107  0.79403947  1
  Nb  Nb127  1  0.39533989  0.79555010  0.19439467  1
  Nb  Nb128  1  0.00029885  0.40851035  0.80150137  1
  Nb  Nb129  1  0.80132834  0.79219175  0.80249298  1
  Nb  Nb130  1  0.00181257  0.59464143  0.39919178  1
  Nb  Nb131  1  -0.00482691  0.79899816  0.80132124  1
  Nb  Nb132  1  0.39869151  0.40454201  0.19797948  1
  Nb  Nb133  1  0.40068811  -0.00011314  0.60363429  1
  Nb  Nb134  1  0.20361137  0.80575513  0.60303237  1
  Nb  Nb135  1  0.40399541  0.59739163  0.60597822  1
  Nb  Nb136  1  0.40493789  0.19904403  0.60493069  1
  Nb  Nb137  1  -0.00039724  -0.00416775  0.00007308  1
  Nb  Nb138  1  0.79740230  -0.00421058  0.20314998  1
  Nb  Nb139  1  0.79129799  0.20616221  0.60397328  1
  Nb  Nb140  1  0.58837873  -0.00389838  0.60520713  1
  Nb  Nb141  1  -0.00520628  0.79913089  -0.00643817  1
  Nb  Nb142  1  0.80826867  0.60259298  -0.00332086  1
  Nb  Nb143  1  0.20026880  0.59610722  0.79812037  1
  Nb  Nb144  1  0.00526214  0.80462040  0.60469518  1
  Nb  Nb145  1  0.20772083  0.79764492  0.19668436  1
  Nb  Nb146  1  0.40687137  0.39935115  0.60141862  1
  Nb  Nb147  1  0.79993077  0.39757965  0.79629709  1
  Nb  Nb148  1  0.60425369  0.80275639  0.39379433  1
  Nb  Nb149  1  0.60908718  0.20303858  0.39763637  1
  Pd  Pd150  1  0.60304612  0.20730388  0.80792819  1
  Pd  Pd151  1  0.21142595  0.58642837  -0.00998212  1
  Pd  Pd152  1  0.60541284  0.79499203  0.79990157  1
  Pd  Pd153  1  0.59868736  0.39507243  0.39581350  1
  Pd  Pd154  1  0.60421508  0.80426609  0.59349676  1
  Pd  Pd155  1  0.80005575  0.40961966  -0.00819006  1
  Pd  Pd156  1  0.40358658  0.00229855  0.40235416  1
  Pd  Pd157  1  0.61051014  0.60668151  0.19440813  1
  Pd  Pd158  1  0.79948094  0.80275820  0.20674375  1
  Pd  Pd159  1  0.39214219  0.59252730  -0.00270361  1
  Pd  Pd160  1  0.39428498  0.21020050  0.18702887  1
  Pd  Pd161  1  0.80388082  0.00307304  0.01057454  1
  Pd  Pd162  1  0.20622080  0.40787620  -0.00325329  1
  Pd  Pd163  1  0.00810350  0.78926134  0.19032435  1
  Pd  Pd164  1  -0.00425341  0.40365691  0.60274553  1
  Pd  Pd165  1  0.58984895  0.58984528  0.60674665  1
  Pd  Pd166  1  0.00047915  0.39281849  0.19703065  1
  Pd  Pd167  1  0.19677043  0.60285699  0.20164412  1
  Pd  Pd168  1  -0.00677822  0.21419894  0.80195953  1
  Pd  Pd169  1  0.21217429  0.60899387  0.60084617  1
  Pd  Pd170  1  0.19380927  0.40138653  0.80863688  1
  Pd  Pd171  1  0.59454673  0.39940599  0.00541534  1
  Pd  Pd172  1  0.78917916  0.01350791  0.61097860  1
  Pd  Pd173  1  0.80513888  0.79764607  -0.01072441  1
  Pd  Pd174  1  0.00439365  0.40321285  0.40186948  1
  Pd  Pd175  1  0.60334587  0.01039945  0.19359268  1
  Pd  Pd176  1  0.19617454  0.59761823  0.40439549  1
  Pd  Pd177  1  0.79465045  0.40280800  0.39697222  1
  Pd  Pd178  1  0.00275881  0.60562567  0.20346419  1
  Pd  Pd179  1  -0.00376890  0.59770871  0.00468160  1
  Pd  Pd180  1  -0.00310218  0.60584733  0.59113867  1
  Pd  Pd181  1  0.59724910  -0.00202651  0.40680396  1
  Pd  Pd182  1  0.39424011  0.79747400  0.60137611  1
  Pd  Pd183  1  0.18887880  0.79462518  0.79224377  1
  Pd  Pd184  1  0.79026699  0.59764969  0.80137621  1
  Pd  Pd185  1  0.00434346  -0.00475558  0.59553817  1
  Pd  Pd186  1  0.40737812  -0.00168800  -0.00761764  1
  Pd  Pd187  1  0.40896271  0.79835302  0.38820114  1
  Pd  Pd188  1  0.00332038  0.19943889  0.19562445  1
  Pd  Pd189  1  0.19075304  0.39225527  0.40286073  1
  Pd  Pd190  1  0.20612171  -0.00475849  0.60195984  1
  Pd  Pd191  1  0.40054077  0.20938498  0.00886625  1
  Pd  Pd192  1  0.39615303  0.59872363  0.79650370  1
  Pd  Pd193  1  0.19632682  0.80424826  0.00332301  1
  Pd  Pd194  1  0.40605797  0.39170275  0.39857798  1
  Pd  Pd195  1  0.79727040  0.80332222  0.39407391  1
  Pd  Pd196  1  0.00546678  0.19639661  0.40222682  1
  Pd  Pd197  1  0.58864666  0.41071245  0.59993212  1
  Pd  Pd198  1  0.60402387  0.38994119  0.80615109  1
  Pd  Pd199  1  0.60569191  0.19130194  0.20535584  1
  Rh  Rh200  1  0.79411393  0.59383908  0.59584403  1
  Rh  Rh201  1  0.20796741  0.39196291  0.59627167  1
  Rh  Rh202  1  0.79815719  0.20184727  -0.00611537  1
  Rh  Rh203  1  0.19726828  0.19444731  -0.00074718  1
  Rh  Rh204  1  0.19800740  0.20281495  0.80472574  1
  Rh  Rh205  1  0.80311987  0.39660842  0.60541404  1
  Rh  Rh206  1  0.20142296  0.39644677  0.19954175  1
  Rh  Rh207  1  0.59182915  0.00218478  -0.00187873  1
  Rh  Rh208  1  0.80510374  -0.00983371  0.39253909  1
  Rh  Rh209  1  0.20710032  0.80277981  0.39935131  1
  Rh  Rh210  1  0.00717458  0.59767144  0.79019754  1
  Rh  Rh211  1  0.39680843  -0.00214050  0.19655742  1
  Rh  Rh212  1  0.60178815  0.60488053  0.79250946  1
  Rh  Rh213  1  0.41150455  0.20415690  0.40546330  1
  Rh  Rh214  1  0.19663565  0.19860512  0.20009138  1
  Rh  Rh215  1  0.59458843  0.19586707  -0.00130829  1
  Rh  Rh216  1  0.00077168  -0.00175019  0.80916103  1
  Rh  Rh217  1  0.40070916  0.19924593  0.79788426  1
  Rh  Rh218  1  0.59333031  -0.00199757  0.79879250  1
  Rh  Rh219  1  0.19267311  0.00562366  -0.00556823  1
  Rh  Rh220  1  -0.01272411  0.01063081  0.19052404  1
  Rh  Rh221  1  0.21208761  0.20472590  0.60552134  1
  Rh  Rh222  1  0.40316496  0.79991374  0.80876879  1
  Rh  Rh223  1  0.79279400  0.00945658  0.79441414  1
  Rh  Rh224  1  0.80409492  0.79709175  0.60856079  1
  Rh  Rh225  1  0.00460092  0.19226649  0.00668207  1
  Rh  Rh226  1  0.61358141  0.59940659  0.00897851  1
  Rh  Rh227  1  0.20160213  0.00495813  0.39828642  1
  Rh  Rh228  1  -0.00664469  0.78876894  0.41284360  1
  Rh  Rh229  1  0.60130003  0.18873066  0.59017881  1
  Rh  Rh230  1  0.79715854  0.60105496  0.18775771  1
  Rh  Rh231  1  0.40810862  0.39332748  0.79967010  1
  Rh  Rh232  1  0.79316007  0.20066787  0.41167442  1
  Rh  Rh233  1  0.19127215  0.19719574  0.39354906  1
  Rh  Rh234  1  0.39981741  0.60190916  0.40759356  1
  Rh  Rh235  1  -0.01046943  0.19570489  0.59638299  1
  Rh  Rh236  1  0.79680660  0.19470275  0.19944451  1
  Rh  Rh237  1  0.59375132  0.80658887  -0.00657477  1
  Rh  Rh238  1  0.59536296  0.40149732  0.20718006  1
  Rh  Rh239  1  0.40013768  0.59958344  0.20081042  1
  Rh  Rh240  1  0.00078814  0.40574038  -0.00145765  1
  Rh  Rh241  1  0.19736133  0.00520932  0.80914537  1
  Rh  Rh242  1  0.80166748  0.39878832  0.20573632  1
  Rh  Rh243  1  0.80540354  0.59382884  0.39991218  1
  Rh  Rh244  1  0.21131282  -0.00121463  0.20191934  1
  Rh  Rh245  1  0.40470497  0.80591446  -0.00257537  1
  Rh  Rh246  1  0.00206407  0.00788761  0.40746789  1
  Rh  Rh247  1  0.60196293  0.60329984  0.39922287  1
  Rh  Rh248  1  0.40445833  0.00233174  0.80308612  1
  Rh  Rh249  1  0.59020494  0.79586633  0.20659340  1
