# generated using pymatgen
data_ZrScNbPdRh
_symmetry_space_group_name_H-M   'P 1'
_cell_length_a   16.55186699
_cell_length_b   16.55530739
_cell_length_c   16.55522858
_cell_angle_alpha   90.01564046
_cell_angle_beta   90.01816095
_cell_angle_gamma   90.03263810
_symmetry_Int_Tables_number   1
_chemical_formula_structural   ZrScNbPdRh
_chemical_formula_sum   'Zr50 Sc50 Nb50 Pd50 Rh50'
_cell_volume   4536.48323047
_cell_formula_units_Z   50
loop_
 _symmetry_equiv_pos_site_id
 _symmetry_equiv_pos_as_xyz
  1  'x, y, z'
loop_
 _atom_site_type_symbol
 _atom_site_label
 _atom_site_symmetry_multiplicity
 _atom_site_fract_x
 _atom_site_fract_y
 _atom_site_fract_z
 _atom_site_occupancy
  Zr  Zr0  1  0.29994193  0.70051531  0.49838733  1
  Zr  Zr1  1  0.29507834  0.30848044  0.29199224  1
  Zr  Zr2  1  0.50365090  0.28889302  0.30352283  1
  Zr  Zr3  1  0.09677506  0.90679533  0.29870174  1
  Zr  Zr4  1  0.49967363  0.29423441  0.89574757  1
  Zr  Zr5  1  0.90380816  0.50161856  0.29859431  1
  Zr  Zr6  1  0.50790917  0.70887900  0.49488179  1
  Zr  Zr7  1  0.49973143  0.70049554  0.70152839  1
  Zr  Zr8  1  0.90004469  0.09968804  0.69704234  1
  Zr  Zr9  1  0.70225499  0.09597827  0.69982030  1
  Zr  Zr10  1  0.90008407  0.30176807  0.70951306  1
  Zr  Zr11  1  0.09970244  0.69910673  0.09275416  1
  Zr  Zr12  1  0.70356691  0.69662445  0.70884007  1
  Zr  Zr13  1  0.70248589  0.50208838  0.49767571  1
  Zr  Zr14  1  0.89647429  0.30232340  0.29838441  1
  Zr  Zr15  1  0.29690675  0.90184674  0.70423179  1
  Zr  Zr16  1  0.70393302  0.50164172  0.90304937  1
  Zr  Zr17  1  0.50513897  0.11203194  0.70381861  1
  Zr  Zr18  1  0.49609442  0.70807467  0.89621731  1
  Zr  Zr19  1  0.10761786  0.70141331  0.50658200  1
  Zr  Zr20  1  0.70064262  0.69895370  0.91506071  1
  Zr  Zr21  1  0.09611168  0.90525660  0.69834567  1
  Zr  Zr22  1  0.49439344  0.50279307  0.70262427  1
  Zr  Zr23  1  0.29871703  0.90118143  0.29673074  1
  Zr  Zr24  1  0.69397776  0.29871309  0.09853345  1
  Zr  Zr25  1  0.30571284  0.70081287  0.29351127  1
  Zr  Zr26  1  0.09991455  0.89750369  0.89749812  1
  Zr  Zr27  1  0.31079128  0.89483449  0.90250778  1
  Zr  Zr28  1  0.29353843  0.50337951  0.49207406  1
  Zr  Zr29  1  0.90123631  0.49970271  0.49797845  1
  Zr  Zr30  1  0.10053364  0.69748478  0.90129464  1
  Zr  Zr31  1  0.90540416  0.69717052  0.70567832  1
  Zr  Zr32  1  0.90523549  0.69113341  0.49409705  1
  Zr  Zr33  1  0.50437719  0.89613620  0.50420794  1
  Zr  Zr34  1  0.70367184  0.49964419  0.70825427  1
  Zr  Zr35  1  0.90203870  0.70229256  0.89909943  1
  Zr  Zr36  1  0.09736447  0.09565254  0.29734890  1
  Zr  Zr37  1  0.90753677  0.89576038  0.30430565  1
  Zr  Zr38  1  0.09757012  0.10254342  0.50737575  1
  Zr  Zr39  1  0.69500514  0.89058745  0.09685937  1
  Zr  Zr40  1  0.10522079  0.09564039  0.69833412  1
  Zr  Zr41  1  0.11085840  0.50042582  0.89938344  1
  Zr  Zr42  1  0.31125587  0.29959922  0.69893860  1
  Zr  Zr43  1  0.10030566  0.29840453  0.29493491  1
  Zr  Zr44  1  0.30481378  0.10172506  0.09593405  1
  Zr  Zr45  1  0.29899326  0.50164222  0.11276908  1
  Zr  Zr46  1  0.89670994  0.29681650  0.49549682  1
  Zr  Zr47  1  0.29975262  0.88901420  0.49778338  1
  Zr  Zr48  1  0.89715506  0.89732164  0.89435195  1
  Zr  Zr49  1  0.69449546  0.50869958  0.09144303  1
  Sc  Sc50  1  0.10041791  0.50412090  0.48940438  1
  Sc  Sc51  1  0.69548909  0.09968320  0.10729762  1
  Sc  Sc52  1  0.49557928  0.89487414  0.10730596  1
  Sc  Sc53  1  0.30230000  0.29540687  0.49680084  1
  Sc  Sc54  1  0.10939676  0.49493254  0.29624557  1
  Sc  Sc55  1  0.11021104  0.10711380  0.89168045  1
  Sc  Sc56  1  0.69689996  0.91225571  0.30126629  1
  Sc  Sc57  1  0.29845365  0.10630069  0.50451120  1
  Sc  Sc58  1  0.29971644  0.89793102  0.10453521  1
  Sc  Sc59  1  0.50090366  0.28731538  0.09429826  1
  Sc  Sc60  1  0.89921075  0.49818493  0.09704476  1
  Sc  Sc61  1  0.09949725  0.50196880  0.71299119  1
  Sc  Sc62  1  0.29929386  0.69543893  0.69331803  1
  Sc  Sc63  1  0.90383527  0.10198773  0.10536662  1
  Sc  Sc64  1  0.30000479  0.10235617  0.29630687  1
  Sc  Sc65  1  0.09945662  0.10767778  0.10311049  1
  Sc  Sc66  1  0.30368871  0.10179325  0.89293031  1
  Sc  Sc67  1  0.91109402  0.29874248  0.09686783  1
  Sc  Sc68  1  0.69920276  0.28882365  0.70558198  1
  Sc  Sc69  1  0.28961200  0.29921624  0.89611078  1
  Sc  Sc70  1  0.89883365  0.90669611  0.11294349  1
  Sc  Sc71  1  0.70154865  0.29794249  0.30656709  1
  Sc  Sc72  1  0.89668579  0.08937552  0.29642117  1
  Sc  Sc73  1  0.89495444  0.90641206  0.70497199  1
  Sc  Sc74  1  0.69419055  0.90402936  0.70011627  1
  Sc  Sc75  1  0.49664822  0.10133702  0.90008491  1
  Sc  Sc76  1  0.89239418  0.10695489  0.89518459  1
  Sc  Sc77  1  0.29692405  0.70750900  0.10200988  1
  Sc  Sc78  1  0.10161356  0.89674233  0.10595619  1
  Sc  Sc79  1  0.49885600  0.50883465  0.89606843  1
  Sc  Sc80  1  0.49995475  0.50766246  0.10301430  1
  Sc  Sc81  1  0.90780089  0.69618699  0.09931074  1
  Sc  Sc82  1  0.50378447  0.11018582  0.50120490  1
  Sc  Sc83  1  0.89345550  0.09715741  0.50563776  1
  Sc  Sc84  1  0.08691636  0.70438161  0.29155400  1
  Sc  Sc85  1  0.70061127  0.89377922  0.89373841  1
  Sc  Sc86  1  0.69481257  0.10363559  0.89274040  1
  Sc  Sc87  1  0.10379886  0.30411074  0.90361113  1
  Sc  Sc88  1  0.09851255  0.50114336  0.09747977  1
  Sc  Sc89  1  0.68910244  0.90241860  0.49924280  1
  Sc  Sc90  1  0.09954647  0.90147706  0.49372418  1
  Sc  Sc91  1  0.50074548  0.50031914  0.49628021  1
  Sc  Sc92  1  0.69953722  0.29237069  0.49010819  1
  Sc  Sc93  1  0.69465295  0.10075314  0.30613304  1
  Sc  Sc94  1  0.89969574  0.30217016  0.90098096  1
  Sc  Sc95  1  0.90119488  0.50291738  0.71096406  1
  Sc  Sc96  1  0.10132514  0.29701261  0.71254163  1
  Sc  Sc97  1  0.70302978  0.29766945  0.90498096  1
  Sc  Sc98  1  0.30182788  0.50149644  0.70760472  1
  Sc  Sc99  1  0.69883890  0.49497310  0.30473705  1
  Nb  Nb100  1  0.90127289  0.88983106  0.49971449  1
  Nb  Nb101  1  0.50161373  0.90105716  0.30604944  1
  Nb  Nb102  1  0.10022524  0.70168933  0.70514290  1
  Nb  Nb103  1  0.89702180  0.70074795  0.29705379  1
  Nb  Nb104  1  0.29567885  0.69904443  0.90385047  1
  Nb  Nb105  1  0.49943282  0.89929352  0.70729114  1
  Nb  Nb106  1  0.89751344  0.49700476  0.89695544  1
  Nb  Nb107  1  0.69055801  0.69876661  0.10498499  1
  Nb  Nb108  1  0.50279341  0.09525616  0.29392795  1
  Nb  Nb109  1  0.50046558  0.90013609  0.89469873  1
  Nb  Nb110  1  0.50354952  0.10112933  0.10114644  1
  Nb  Nb111  1  0.30799438  0.49995762  0.29635570  1
  Nb  Nb112  1  0.69788779  0.70122089  0.49857909  1
  Nb  Nb113  1  0.49373337  0.49954878  0.29208010  1
  Nb  Nb114  1  0.29752507  0.50633470  0.90503614  1
  Nb  Nb115  1  0.51659125  0.69912222  0.10632784  1
  Nb  Nb116  1  0.50896154  0.70095302  0.28950604  1
  Nb  Nb117  1  0.29038483  0.30180766  0.09380002  1
  Nb  Nb118  1  0.29620637  0.09839831  0.70047285  1
  Nb  Nb119  1  0.69918126  0.10155420  0.49880869  1
  Nb  Nb120  1  0.49855036  0.29908301  0.50811178  1
  Nb  Nb121  1  0.10153364  0.30220963  0.49749651  1
  Nb  Nb122  1  0.50033087  0.30188708  0.69326527  1
  Nb  Nb123  1  0.11082641  0.29710101  0.09625741  1
  Nb  Nb124  1  0.69230100  0.70104654  0.30095474  1
  Nb  Nb125  1  -0.00383387  0.79717824  0.60053976  1
  Nb  Nb126  1  0.59556335  0.39791002  0.79601268  1
  Nb  Nb127  1  0.19451473  0.39720086  0.59779704  1
  Nb  Nb128  1  0.79412779  0.60704834  0.20141670  1
  Nb  Nb129  1  0.00221575  0.39706565  0.59929408  1
  Nb  Nb130  1  0.40589305  -0.00105986  0.40072844  1
  Nb  Nb131  1  0.00199595  0.20121683  0.40067210  1
  Nb  Nb132  1  0.00058274  0.00166067  -0.00398117  1
  Nb  Nb133  1  0.79418865  0.79184587  0.20664211  1
  Nb  Nb134  1  0.60044718  0.39832812  0.60281588  1
  Nb  Nb135  1  0.40420858  0.60015095  0.38863090  1
  Nb  Nb136  1  0.60363360  0.60016465  0.59985370  1
  Nb  Nb137  1  0.39585860  0.60343322  0.00207741  1
  Nb  Nb138  1  0.19918217  -0.00070704  -0.00175406  1
  Nb  Nb139  1  0.40185721  0.40168783  0.39237347  1
  Nb  Nb140  1  0.79935173  0.20316115  0.20171843  1
  Nb  Nb141  1  0.59569903  -0.00391279  -0.00109355  1
  Nb  Nb142  1  0.40188364  -0.00084073  0.60309191  1
  Nb  Nb143  1  0.79681297  0.79338682  0.39949105  1
  Nb  Nb144  1  0.79748340  -0.00149922  0.00045775  1
  Nb  Nb145  1  0.20013769  0.79594173  0.80152903  1
  Nb  Nb146  1  0.39214681  0.40411851  0.00093628  1
  Nb  Nb147  1  0.59560590  0.39878011  0.20130268  1
  Nb  Nb148  1  0.80037286  0.39868176  0.60108804  1
  Nb  Nb149  1  0.80117353  0.79451352  0.59279357  1
  Pd  Pd150  1  0.79729382  0.60130170  0.39052606  1
  Pd  Pd151  1  0.80984902  0.80175106  0.01261533  1
  Pd  Pd152  1  0.40493965  0.79875261  0.39152458  1
  Pd  Pd153  1  -0.00636747  0.81062220  0.00903726  1
  Pd  Pd154  1  0.20987241  0.00607837  0.40510854  1
  Pd  Pd155  1  0.40930807  0.38655026  0.19304806  1
  Pd  Pd156  1  0.59217809  0.39637698  0.40101098  1
  Pd  Pd157  1  0.20626488  -0.00543288  0.58971553  1
  Pd  Pd158  1  0.00316603  0.39658190  0.40051580  1
  Pd  Pd159  1  0.00139766  0.19743754  0.80541680  1
  Pd  Pd160  1  0.79862757  -0.01078008  0.59404325  1
  Pd  Pd161  1  0.19327486  0.60374913  0.20123187  1
  Pd  Pd162  1  0.60533864  0.80081294  0.79947317  1
  Pd  Pd163  1  0.00596971  0.19369883  -0.00623967  1
  Pd  Pd164  1  0.59326878  0.59812290  0.39777736  1
  Pd  Pd165  1  0.19452585  0.79849317  0.20396663  1
  Pd  Pd166  1  0.40093007  0.80329145  0.60757330  1
  Pd  Pd167  1  0.79768928  0.59882457  0.60281405  1
  Pd  Pd168  1  0.19444011  0.58743980  0.60803602  1
  Pd  Pd169  1  -0.00532759  0.00867873  0.40933029  1
  Pd  Pd170  1  0.79677590  0.19144745  0.00921653  1
  Pd  Pd171  1  0.40052420  0.19761452  0.39906976  1
  Pd  Pd172  1  0.59327803  0.00701040  0.60052001  1
  Pd  Pd173  1  0.58552192  0.40413204  -0.00223687  1
  Pd  Pd174  1  0.40376416  -0.00036137  0.00250246  1
  Pd  Pd175  1  0.00571862  0.40006434  0.19356046  1
  Pd  Pd176  1  0.59954950  -0.00321817  0.19470684  1
  Pd  Pd177  1  0.20279310  0.19592850  0.19815089  1
  Pd  Pd178  1  0.00129254  0.20749901  0.59961138  1
  Pd  Pd179  1  0.40437514  0.00728438  0.79457060  1
  Pd  Pd180  1  -0.00224555  0.01058362  0.80659442  1
  Pd  Pd181  1  0.19147829  0.79439193  0.38933246  1
  Pd  Pd182  1  0.79376744  0.20535404  0.60025714  1
  Pd  Pd183  1  0.01040115  0.60180373  0.39095793  1
  Pd  Pd184  1  0.39355688  0.20667761  -0.00428222  1
  Pd  Pd185  1  0.80447193  0.39751023  0.00392305  1
  Pd  Pd186  1  0.40117603  -0.00026009  0.20342870  1
  Pd  Pd187  1  0.00401415  0.40156029  -0.00295927  1
  Pd  Pd188  1  0.39567714  0.40621026  0.58925988  1
  Pd  Pd189  1  0.40669806  0.79302502  0.01094825  1
  Pd  Pd190  1  0.79005199  0.40173497  0.19351904  1
  Pd  Pd191  1  -0.00404963  0.59055999  -0.00556937  1
  Pd  Pd192  1  0.00978262  0.59411834  0.60553646  1
  Pd  Pd193  1  0.19580526  0.19765174  0.39788939  1
  Pd  Pd194  1  0.19970205  0.60789414  0.38532749  1
  Pd  Pd195  1  0.20031923  0.21007868  0.60622851  1
  Pd  Pd196  1  0.79856697  -0.00623424  0.40771487  1
  Pd  Pd197  1  0.40656471  0.59929474  0.58855501  1
  Pd  Pd198  1  0.39897608  0.20354016  0.19621994  1
  Pd  Pd199  1  0.40099805  0.39983485  0.81151321  1
  Rh  Rh200  1  0.59060088  0.00787235  0.40399178  1
  Rh  Rh201  1  0.40719071  0.79816698  0.20003530  1
  Rh  Rh202  1  0.80047600  0.40381858  0.40476202  1
  Rh  Rh203  1  0.80673518  0.18782800  0.39143248  1
  Rh  Rh204  1  0.58858778  0.60445208  -0.00728607  1
  Rh  Rh205  1  -0.00387767  0.59462625  0.19970504  1
  Rh  Rh206  1  0.20545151  0.20277835  0.79430759  1
  Rh  Rh207  1  0.39674815  0.19960331  0.79647693  1
  Rh  Rh208  1  -0.00688314  0.20258214  0.20838891  1
  Rh  Rh209  1  0.20651814  -0.00680110  0.81064855  1
  Rh  Rh210  1  0.39179756  0.60759412  0.80818723  1
  Rh  Rh211  1  0.00145891  0.79435626  0.40548781  1
  Rh  Rh212  1  0.60801750  0.79258402  0.61214042  1
  Rh  Rh213  1  0.60532460  0.20322353  0.20305711  1
  Rh  Rh214  1  0.19092261  0.80407108  0.60911975  1
  Rh  Rh215  1  0.20678051  0.59843545  0.00977134  1
  Rh  Rh216  1  0.20466142  0.40085029  0.79420083  1
  Rh  Rh217  1  0.60568908  0.80608841  0.39211311  1
  Rh  Rh218  1  0.79375319  0.39465499  0.80062274  1
  Rh  Rh219  1  -0.00563151  0.80128343  0.19492896  1
  Rh  Rh220  1  0.00495119  0.80105676  0.79225417  1
  Rh  Rh221  1  0.59786634  0.19501141  0.40337577  1
  Rh  Rh222  1  0.20180421  0.19209994  -0.00112670  1
  Rh  Rh223  1  0.60057317  0.20623953  0.80255884  1
  Rh  Rh224  1  0.79266338  0.00218921  0.19426757  1
  Rh  Rh225  1  0.20353939  0.40581325  0.00471939  1
  Rh  Rh226  1  -0.00653896  -0.00822651  0.59607478  1
  Rh  Rh227  1  0.80727990  0.60396629  0.00482490  1
  Rh  Rh228  1  0.00066560  0.40291883  0.80471935  1
  Rh  Rh229  1  0.60292972  0.80943319  0.20960413  1
  Rh  Rh230  1  0.39807097  0.19128334  0.60396481  1
  Rh  Rh231  1  0.39099603  0.79379833  0.79267953  1
  Rh  Rh232  1  0.20594143  0.60746967  0.79772795  1
  Rh  Rh233  1  0.40484626  0.61319918  0.19510625  1
  Rh  Rh234  1  0.60713920  0.58777327  0.20815449  1
  Rh  Rh235  1  0.20065491  0.00467252  0.18890723  1
  Rh  Rh236  1  0.00663260  0.00122096  0.19139246  1
  Rh  Rh237  1  0.59054917  0.80604660  -0.00497896  1
  Rh  Rh238  1  0.60735439  0.20503569  0.59431878  1
  Rh  Rh239  1  0.20133159  0.80820578  -0.00578931  1
  Rh  Rh240  1  0.79829837  0.80047423  0.79136259  1
  Rh  Rh241  1  0.00052287  0.59553534  0.80833408  1
  Rh  Rh242  1  0.79436966  0.00129044  0.80592352  1
  Rh  Rh243  1  0.59598593  -0.00042202  0.80583382  1
  Rh  Rh244  1  0.60080705  0.59697128  0.80177909  1
  Rh  Rh245  1  0.19300396  0.40145686  0.19290401  1
  Rh  Rh246  1  0.80471615  0.60269764  0.81315282  1
  Rh  Rh247  1  0.60109805  0.18615193  -0.00223560  1
  Rh  Rh248  1  0.20814471  0.39688455  0.40257576  1
  Rh  Rh249  1  0.80003521  0.19986361  0.79970002  1
