# generated using pymatgen
data_ZrScNbPdRh
_symmetry_space_group_name_H-M   'P 1'
_cell_length_a   16.56601681
_cell_length_b   16.56256539
_cell_length_c   16.55816182
_cell_angle_alpha   90.03373987
_cell_angle_beta   90.00690588
_cell_angle_gamma   90.00844418
_symmetry_Int_Tables_number   1
_chemical_formula_structural   ZrScNbPdRh
_chemical_formula_sum   'Zr50 Sc50 Nb50 Pd50 Rh50'
_cell_volume   4543.15697944
_cell_formula_units_Z   50
loop_
 _symmetry_equiv_pos_site_id
 _symmetry_equiv_pos_as_xyz
  1  'x, y, z'
loop_
 _atom_site_type_symbol
 _atom_site_label
 _atom_site_symmetry_multiplicity
 _atom_site_fract_x
 _atom_site_fract_y
 _atom_site_fract_z
 _atom_site_occupancy
  Zr  Zr0  1  0.90762443  0.69744088  0.70215757  1
  Zr  Zr1  1  0.69484324  0.69536719  0.71063897  1
  Zr  Zr2  1  0.90441935  0.10400410  0.89346060  1
  Zr  Zr3  1  0.89876269  0.50028746  0.90107580  1
  Zr  Zr4  1  0.50155274  0.50561493  0.49347886  1
  Zr  Zr5  1  0.30213014  0.50488098  0.09553522  1
  Zr  Zr6  1  0.10111687  0.69456190  0.69773647  1
  Zr  Zr7  1  0.10233300  0.09873858  0.10624542  1
  Zr  Zr8  1  0.29457672  0.70398875  0.30007413  1
  Zr  Zr9  1  0.90768294  0.88783847  0.29677673  1
  Zr  Zr10  1  0.70503229  0.10373367  0.90016814  1
  Zr  Zr11  1  0.10136109  0.29828102  0.89839150  1
  Zr  Zr12  1  0.49177617  0.89801863  0.50146276  1
  Zr  Zr13  1  0.69011984  0.09909794  0.29751612  1
  Zr  Zr14  1  0.70436025  0.69873993  0.09569274  1
  Zr  Zr15  1  0.70504857  0.50507464  0.89965816  1
  Zr  Zr16  1  0.69913960  0.10345944  0.50912510  1
  Zr  Zr17  1  0.70522128  0.29643752  0.69542351  1
  Zr  Zr18  1  0.49786159  0.29600597  0.09727228  1
  Zr  Zr19  1  0.90456439  0.49167244  0.70113846  1
  Zr  Zr20  1  0.29681431  0.69574388  0.69869368  1
  Zr  Zr21  1  0.09470645  0.49964024  0.09469118  1
  Zr  Zr22  1  0.29259168  0.50058046  0.69905202  1
  Zr  Zr23  1  0.50266915  0.89200982  0.71158556  1
  Zr  Zr24  1  0.08896060  0.70172155  0.89834037  1
  Zr  Zr25  1  0.10462527  0.30070370  0.09578202  1
  Zr  Zr26  1  0.91052082  0.10123491  0.50625698  1
  Zr  Zr27  1  0.10795783  0.09603586  0.30291435  1
  Zr  Zr28  1  0.89830293  0.90278276  0.50385120  1
  Zr  Zr29  1  0.29983029  0.09628005  0.69778084  1
  Zr  Zr30  1  0.69780768  0.29573756  0.10399458  1
  Zr  Zr31  1  0.09148662  0.10419525  0.69822668  1
  Zr  Zr32  1  0.69739045  0.90555003  0.89532859  1
  Zr  Zr33  1  0.29585440  0.30874144  0.49977038  1
  Zr  Zr34  1  0.29471722  0.30041468  0.69868610  1
  Zr  Zr35  1  0.30823929  0.30315001  0.89781645  1
  Zr  Zr36  1  0.30137770  0.09773634  0.30062795  1
  Zr  Zr37  1  0.70057620  0.50175871  0.49292848  1
  Zr  Zr38  1  0.10071434  0.89932736  0.29286702  1
  Zr  Zr39  1  0.49215807  0.70434500  0.30294946  1
  Zr  Zr40  1  0.70229307  0.69400056  0.90364806  1
  Zr  Zr41  1  0.50355225  0.10310208  0.10879396  1
  Zr  Zr42  1  0.49728542  0.50175088  0.10349870  1
  Zr  Zr43  1  0.29418114  0.50066622  0.49272521  1
  Zr  Zr44  1  0.50430444  0.70106258  0.88460289  1
  Zr  Zr45  1  0.89280836  0.69600752  0.90669916  1
  Zr  Zr46  1  0.69171280  0.09669868  0.09698211  1
  Zr  Zr47  1  0.50698642  0.09124108  0.91504904  1
  Zr  Zr48  1  0.30605968  0.09398109  0.89480096  1
  Zr  Zr49  1  0.30472905  0.69956172  0.10830328  1
  Sc  Sc50  1  0.09982990  0.50316011  0.50286970  1
  Sc  Sc51  1  0.49951153  0.29925729  0.69886174  1
  Sc  Sc52  1  0.71412198  0.29831930  0.90350469  1
  Sc  Sc53  1  0.11131952  0.70137779  0.09631353  1
  Sc  Sc54  1  0.50305502  0.09309045  0.50057274  1
  Sc  Sc55  1  0.10412116  0.29370906  0.50684838  1
  Sc  Sc56  1  0.09403548  0.49946642  0.90215550  1
  Sc  Sc57  1  0.90096394  0.50991862  0.29461975  1
  Sc  Sc58  1  0.49695766  0.89784012  0.30503072  1
  Sc  Sc59  1  0.29404141  0.09319187  0.49828523  1
  Sc  Sc60  1  0.89725083  0.10437700  0.69883966  1
  Sc  Sc61  1  0.89921944  0.30138967  0.88778413  1
  Sc  Sc62  1  0.91508966  0.09806031  0.09757378  1
  Sc  Sc63  1  0.09538405  0.30646406  0.69505034  1
  Sc  Sc64  1  0.09350059  0.50347624  0.69733477  1
  Sc  Sc65  1  0.49026814  0.50578722  0.90476753  1
  Sc  Sc66  1  0.69909222  0.50396828  0.10128609  1
  Sc  Sc67  1  0.70223926  0.49774806  0.70320813  1
  Sc  Sc68  1  0.50134833  0.30251354  0.29368484  1
  Sc  Sc69  1  0.30509728  0.90314427  0.90472793  1
  Sc  Sc70  1  0.29528594  0.88886992  0.09623182  1
  Sc  Sc71  1  0.49823963  0.90145198  0.09690595  1
  Sc  Sc72  1  0.30494790  0.29993120  0.09475064  1
  Sc  Sc73  1  0.70595931  0.69974766  0.29642295  1
  Sc  Sc74  1  0.50973554  0.30584573  0.50091550  1
  Sc  Sc75  1  0.49678339  0.69171691  0.09834229  1
  Sc  Sc76  1  0.69679960  0.50218296  0.29637187  1
  Sc  Sc77  1  0.30029988  0.89583999  0.49732102  1
  Sc  Sc78  1  0.29706893  0.70338185  0.91058677  1
  Sc  Sc79  1  0.70547188  0.90182315  0.50753879  1
  Sc  Sc80  1  0.29744905  0.49485105  0.90200060  1
  Sc  Sc81  1  0.30459138  0.89357248  0.30002828  1
  Sc  Sc82  1  0.89872550  0.70440628  0.48723352  1
  Sc  Sc83  1  0.69680772  0.29815633  0.50773421  1
  Sc  Sc84  1  0.49591035  0.09020177  0.69486358  1
  Sc  Sc85  1  0.30578490  0.90769527  0.70381615  1
  Sc  Sc86  1  0.30133573  0.10091800  0.09528826  1
  Sc  Sc87  1  0.09419990  0.09534489  0.90658871  1
  Sc  Sc88  1  0.68984699  0.89734668  0.29567829  1
  Sc  Sc89  1  0.09582584  0.28562708  0.29577258  1
  Sc  Sc90  1  0.30177830  0.50211324  0.30542765  1
  Sc  Sc91  1  0.70287189  0.89133984  0.10426391  1
  Sc  Sc92  1  0.50333049  0.09741997  0.30309725  1
  Sc  Sc93  1  0.30152965  0.30540438  0.30080265  1
  Sc  Sc94  1  0.90557035  0.50492756  0.50314566  1
  Sc  Sc95  1  0.09675750  0.50961995  0.30104359  1
  Sc  Sc96  1  0.92354768  0.10535901  0.29984330  1
  Sc  Sc97  1  0.70192803  0.69890025  0.49152180  1
  Sc  Sc98  1  0.09682874  0.70478093  0.30556535  1
  Sc  Sc99  1  0.90416866  0.30948066  0.10484961  1
  Nb  Nb100  1  0.88965784  0.71012840  0.10391935  1
  Nb  Nb101  1  0.49980195  0.69320548  0.69854247  1
  Nb  Nb102  1  0.49774721  0.51153354  0.69853981  1
  Nb  Nb103  1  0.89864028  0.89744748  0.10160775  1
  Nb  Nb104  1  0.09136699  0.90114423  0.89768163  1
  Nb  Nb105  1  0.70717021  0.90209899  0.69852239  1
  Nb  Nb106  1  0.89974682  0.29854506  0.50302508  1
  Nb  Nb107  1  0.09788494  0.09529510  0.50090010  1
  Nb  Nb108  1  0.29145024  0.69936392  0.50029080  1
  Nb  Nb109  1  0.70946765  0.29914106  0.29824154  1
  Nb  Nb110  1  0.69936128  0.09976389  0.69927549  1
  Nb  Nb111  1  0.90947048  0.50761999  0.09940936  1
  Nb  Nb112  1  0.49543151  0.49903901  0.30234259  1
  Nb  Nb113  1  0.09033238  0.89876930  0.70619426  1
  Nb  Nb114  1  0.50046724  0.29947877  0.89779779  1
  Nb  Nb115  1  0.90469199  0.90144583  0.89767222  1
  Nb  Nb116  1  0.10640059  0.70494638  0.50473635  1
  Nb  Nb117  1  0.09303114  0.89950609  0.50255220  1
  Nb  Nb118  1  0.90120498  0.29729043  0.30227837  1
  Nb  Nb119  1  0.90011355  0.90198587  0.69958416  1
  Nb  Nb120  1  0.89865311  0.70264948  0.29780968  1
  Nb  Nb121  1  0.09399130  0.90390173  0.09386773  1
  Nb  Nb122  1  0.50257826  0.89871014  0.90200985  1
  Nb  Nb123  1  0.90222477  0.29985762  0.69371559  1
  Nb  Nb124  1  0.49782911  0.69969107  0.50468926  1
  Nb  Nb125  1  0.60061992  0.19982412  0.80207069  1
  Nb  Nb126  1  0.59589968  0.79388194  0.60606405  1
  Nb  Nb127  1  0.80707536  0.00244566  0.20187540  1
  Nb  Nb128  1  0.39956869  0.00065041  0.19846652  1
  Nb  Nb129  1  0.19662018  0.40378972  0.19511328  1
  Nb  Nb130  1  0.00428034  0.80349077  0.60068136  1
  Nb  Nb131  1  0.80390020  0.20058926  0.39745962  1
  Nb  Nb132  1  0.80190494  0.60226298  0.60104755  1
  Nb  Nb133  1  -0.00748710  0.80636174  0.00296463  1
  Nb  Nb134  1  -0.00688313  0.39185304  0.40011129  1
  Nb  Nb135  1  0.80825097  -0.00502648  0.00262157  1
  Nb  Nb136  1  0.80359759  0.00839817  0.39287084  1
  Nb  Nb137  1  0.19141742  0.80641701  0.80099113  1
  Nb  Nb138  1  0.39599613  0.20463519  0.59351557  1
  Nb  Nb139  1  0.60080351  0.79760465  -0.00862380  1
  Nb  Nb140  1  0.40229500  0.78781374  0.60185854  1
  Nb  Nb141  1  0.80303188  0.19528873  0.20673372  1
  Nb  Nb142  1  0.20143898  0.19823599  0.79927678  1
  Nb  Nb143  1  0.18512140  -0.00640209  0.59947350  1
  Nb  Nb144  1  0.80600121  0.39285210  0.39761465  1
  Nb  Nb145  1  0.39980471  0.20298143  0.40613925  1
  Nb  Nb146  1  0.80327949  0.80714233  0.79735442  1
  Nb  Nb147  1  0.40043054  0.40588860  0.59974054  1
  Nb  Nb148  1  0.59705924  0.39793532  -0.00432922  1
  Nb  Nb149  1  0.59661627  0.39708844  0.80601304  1
  Pd  Pd150  1  0.39141642  0.40255461  0.20055053  1
  Pd  Pd151  1  0.20364976  0.20239837  0.40293786  1
  Pd  Pd152  1  0.60317037  0.80109744  0.40808824  1
  Pd  Pd153  1  0.79920396  0.78929405  0.60669657  1
  Pd  Pd154  1  0.79260614  0.80986804  0.39414294  1
  Pd  Pd155  1  0.18227475  0.39624182  0.38768757  1
  Pd  Pd156  1  0.61057768  0.60210991  0.59709108  1
  Pd  Pd157  1  0.00701253  0.40075170  0.21008889  1
  Pd  Pd158  1  0.40734750  0.40795448  0.79228381  1
  Pd  Pd159  1  0.81149663  0.19414830  0.01304265  1
  Pd  Pd160  1  0.60637146  0.39534160  0.39250553  1
  Pd  Pd161  1  0.19899248  0.59612061  0.20487693  1
  Pd  Pd162  1  -0.00633537  0.20920449  0.00198596  1
  Pd  Pd163  1  0.39511149  0.60594713  0.39943500  1
  Pd  Pd164  1  0.00098814  0.60151166  0.40455102  1
  Pd  Pd165  1  0.19855977  0.59918127  -0.00609611  1
  Pd  Pd166  1  0.79820020  0.40444504  0.00885120  1
  Pd  Pd167  1  0.20976119  -0.00803361  0.19287651  1
  Pd  Pd168  1  -0.00186756  -0.00501531  0.39509098  1
  Pd  Pd169  1  0.59999108  0.40009329  0.19736935  1
  Pd  Pd170  1  0.80557244  -0.00004676  0.79993590  1
  Pd  Pd171  1  0.39272062  0.59790203  0.59411297  1
  Pd  Pd172  1  0.19162748  -0.00036539  0.79760425  1
  Pd  Pd173  1  0.20019677  -0.01072488  0.40502640  1
  Pd  Pd174  1  0.20205842  0.81005070  0.60987293  1
  Pd  Pd175  1  0.20446012  0.19568884  -0.00893392  1
  Pd  Pd176  1  0.59163007  0.79567449  0.19042624  1
  Pd  Pd177  1  0.59743433  0.00821453  0.79546681  1
  Pd  Pd178  1  0.59972557  -0.00992129  0.60251087  1
  Pd  Pd179  1  0.20102524  -0.00361315  0.00041432  1
  Pd  Pd180  1  0.59830962  0.20708059  0.39940968  1
  Pd  Pd181  1  0.19112151  0.39830686  0.79968610  1
  Pd  Pd182  1  0.20967134  0.20774512  0.19816402  1
  Pd  Pd183  1  0.80228271  0.59785349  0.19780701  1
  Pd  Pd184  1  0.59678962  0.60558911  0.20573254  1
  Pd  Pd185  1  0.59971066  0.60612134  0.38942009  1
  Pd  Pd186  1  0.40573321  0.19262304  0.79375756  1
  Pd  Pd187  1  0.80179573  0.40774339  0.59266867  1
  Pd  Pd188  1  0.19679024  0.80537364  0.39888916  1
  Pd  Pd189  1  0.60567657  -0.00854678  0.40701219  1
  Pd  Pd190  1  0.00872746  0.79014832  0.18955251  1
  Pd  Pd191  1  -0.00549378  0.39340838  -0.00678758  1
  Pd  Pd192  1  0.59388281  0.40841249  0.61020148  1
  Pd  Pd193  1  0.80491955  0.40313700  0.20137394  1
  Pd  Pd194  1  0.40997801  0.79564264  -0.00005004  1
  Pd  Pd195  1  0.38724720  0.79834962  0.79885200  1
  Pd  Pd196  1  0.19919184  0.60443927  0.81024027  1
  Pd  Pd197  1  0.39990797  0.19587649  -0.00168483  1
  Pd  Pd198  1  0.39021395  0.59942879  0.80695258  1
  Pd  Pd199  1  0.00077170  0.61409112  0.19367242  1
  Rh  Rh200  1  0.00508263  0.20509494  0.79596826  1
  Rh  Rh201  1  0.19805905  0.59450012  0.59492022  1
  Rh  Rh202  1  0.39061357  -0.00361033  0.59280490  1
  Rh  Rh203  1  0.39786669  0.60578368  -0.00412007  1
  Rh  Rh204  1  0.59079319  0.19340013  0.61106786  1
  Rh  Rh205  1  0.40567739  0.40031772  0.00140981  1
  Rh  Rh206  1  0.00098305  0.20572565  0.59936479  1
  Rh  Rh207  1  0.19808036  0.40882089  0.60075809  1
  Rh  Rh208  1  0.80177651  0.00783035  0.59925889  1
  Rh  Rh209  1  0.80904914  0.60167790  0.79008091  1
  Rh  Rh210  1  -0.00318696  -0.00441522  0.00019550  1
  Rh  Rh211  1  0.79707362  0.80414841  0.20877786  1
  Rh  Rh212  1  0.00217345  0.39614807  0.59121768  1
  Rh  Rh213  1  -0.00079386  0.20170341  0.19097711  1
  Rh  Rh214  1  -0.00390741  0.00646536  0.79572908  1
  Rh  Rh215  1  0.40024002  0.00604838  0.39357769  1
  Rh  Rh216  1  0.39549439  0.79190749  0.40893706  1
  Rh  Rh217  1  -0.00001650  -0.00497995  0.60666841  1
  Rh  Rh218  1  0.00352605  0.20459904  0.41036809  1
  Rh  Rh219  1  0.80584853  0.59157188  0.01238564  1
  Rh  Rh220  1  0.59535410  0.58479473  0.80477958  1
  Rh  Rh221  1  0.19558641  0.80249055  0.19769658  1
  Rh  Rh222  1  0.20183050  0.18769542  0.60446714  1
  Rh  Rh223  1  0.39857781  -0.00210565  0.00684817  1
  Rh  Rh224  1  -0.00280583  0.59032835  0.80394590  1
  Rh  Rh225  1  0.59545796  0.59900260  -0.00330902  1
  Rh  Rh226  1  -0.00430862  0.61309266  0.59001573  1
  Rh  Rh227  1  0.00367505  0.79710596  0.40614301  1
  Rh  Rh228  1  0.59390293  -0.00813312  0.19649503  1
  Rh  Rh229  1  0.79623975  0.39511936  0.79535316  1
  Rh  Rh230  1  0.39873018  0.19260339  0.21005329  1
  Rh  Rh231  1  0.20265590  0.40314875  0.00443157  1
  Rh  Rh232  1  0.60856630  0.80314315  0.79962348  1
  Rh  Rh233  1  0.40245827  0.80581928  0.19764059  1
  Rh  Rh234  1  0.18670296  0.80789324  -0.00920021  1
  Rh  Rh235  1  0.79895520  0.80991108  -0.01073458  1
  Rh  Rh236  1  0.60821670  -0.01469710  0.00791187  1
  Rh  Rh237  1  0.19479691  0.60560312  0.40151408  1
  Rh  Rh238  1  0.80469485  0.59294915  0.40016962  1
  Rh  Rh239  1  0.79733971  0.20118912  0.79052073  1
  Rh  Rh240  1  -0.00563853  0.61277701  0.00937255  1
  Rh  Rh241  1  -0.00364874  0.79992217  0.80067992  1
  Rh  Rh242  1  -0.00056607  -0.00184086  0.20253072  1
  Rh  Rh243  1  0.41044096  0.39545745  0.40421305  1
  Rh  Rh244  1  0.80377479  0.19600792  0.59887726  1
  Rh  Rh245  1  0.60188478  0.21210287  -0.01015753  1
  Rh  Rh246  1  0.00025400  0.39869867  0.79954699  1
  Rh  Rh247  1  0.60196219  0.20640147  0.20699529  1
  Rh  Rh248  1  0.41136301  -0.00020963  0.80767285  1
  Rh  Rh249  1  0.40097750  0.59800825  0.21033406  1
