# generated using pymatgen
data_ZrScNbPdRh
_symmetry_space_group_name_H-M   'P 1'
_cell_length_a   16.55564471
_cell_length_b   16.55292494
_cell_length_c   16.55476490
_cell_angle_alpha   89.98038523
_cell_angle_beta   89.98107051
_cell_angle_gamma   90.02858076
_symmetry_Int_Tables_number   1
_chemical_formula_structural   ZrScNbPdRh
_chemical_formula_sum   'Zr50 Sc50 Nb50 Pd50 Rh50'
_cell_volume   4536.73861446
_cell_formula_units_Z   50
loop_
 _symmetry_equiv_pos_site_id
 _symmetry_equiv_pos_as_xyz
  1  'x, y, z'
loop_
 _atom_site_type_symbol
 _atom_site_label
 _atom_site_symmetry_multiplicity
 _atom_site_fract_x
 _atom_site_fract_y
 _atom_site_fract_z
 _atom_site_occupancy
  Zr  Zr0  1  0.29454763  0.50425343  0.10202040  1
  Zr  Zr1  1  0.09595116  0.90823480  0.70064365  1
  Zr  Zr2  1  0.50747568  0.70699586  0.90176500  1
  Zr  Zr3  1  0.71521096  0.69920489  0.70013824  1
  Zr  Zr4  1  0.90732273  0.09399643  0.69611025  1
  Zr  Zr5  1  0.09340731  0.90147261  0.30262381  1
  Zr  Zr6  1  0.09618459  0.29322445  0.29768924  1
  Zr  Zr7  1  0.90188379  0.69260387  0.30435005  1
  Zr  Zr8  1  0.09308995  0.29839584  0.68487816  1
  Zr  Zr9  1  0.29935186  0.90430999  0.49361107  1
  Zr  Zr10  1  0.30081880  0.70277314  0.69892437  1
  Zr  Zr11  1  0.69621777  0.29217832  0.49793129  1
  Zr  Zr12  1  0.68635990  0.69463590  0.09960967  1
  Zr  Zr13  1  0.49740725  0.29184155  0.90776932  1
  Zr  Zr14  1  0.49498810  0.10690730  0.30425477  1
  Zr  Zr15  1  0.30739691  0.30128588  0.90511693  1
  Zr  Zr16  1  0.50119882  0.51113815  0.10561113  1
  Zr  Zr17  1  0.70023690  0.29722061  0.69906016  1
  Zr  Zr18  1  0.69973234  0.09781355  0.69547256  1
  Zr  Zr19  1  0.90579771  0.70045376  0.51123151  1
  Zr  Zr20  1  0.89002128  0.50207205  0.70312048  1
  Zr  Zr21  1  0.30243186  0.29839459  0.29964041  1
  Zr  Zr22  1  0.10344988  0.90450743  0.09584246  1
  Zr  Zr23  1  0.89664731  0.68792215  0.10745544  1
  Zr  Zr24  1  0.49695735  0.50444157  0.50254128  1
  Zr  Zr25  1  0.50658666  0.10493134  0.50258958  1
  Zr  Zr26  1  0.70152881  0.49416840  0.49388865  1
  Zr  Zr27  1  0.29829270  0.09721142  0.69220936  1
  Zr  Zr28  1  0.30458335  0.90674738  0.69967643  1
  Zr  Zr29  1  0.49732860  0.89285779  0.11079692  1
  Zr  Zr30  1  0.70621323  0.10340742  0.90540778  1
  Zr  Zr31  1  0.70607625  0.49960082  0.10231607  1
  Zr  Zr32  1  0.69468301  0.89819307  0.89612864  1
  Zr  Zr33  1  0.90168121  0.89102212  0.69923638  1
  Zr  Zr34  1  0.29586832  0.89934452  0.89824472  1
  Zr  Zr35  1  0.10004391  0.49472583  0.10716365  1
  Zr  Zr36  1  0.49952810  0.89766151  0.71009895  1
  Zr  Zr37  1  0.29757447  0.90404619  0.10093203  1
  Zr  Zr38  1  0.90566896  0.49688354  0.49315208  1
  Zr  Zr39  1  0.89812660  0.29837743  0.91011430  1
  Zr  Zr40  1  0.29734764  0.50174562  0.29414145  1
  Zr  Zr41  1  0.10683899  0.69286149  0.49980581  1
  Zr  Zr42  1  0.30061290  0.49851622  0.90128324  1
  Zr  Zr43  1  0.09643796  0.70718732  0.69559287  1
  Zr  Zr44  1  0.88938670  0.10088891  0.10084351  1
  Zr  Zr45  1  0.09804218  0.09700244  0.10637128  1
  Zr  Zr46  1  0.49705519  0.09512107  0.69980265  1
  Zr  Zr47  1  0.90126976  0.49905508  0.29224122  1
  Zr  Zr48  1  0.49418804  0.49223413  0.30842296  1
  Zr  Zr49  1  0.29973618  0.50223689  0.49214719  1
  Sc  Sc50  1  0.70016333  0.29616927  0.89451869  1
  Sc  Sc51  1  0.49935974  0.30385344  0.48698798  1
  Sc  Sc52  1  0.71005295  0.49567114  0.89309624  1
  Sc  Sc53  1  0.70131997  0.10022971  0.50433901  1
  Sc  Sc54  1  0.70550369  0.90486114  0.10284205  1
  Sc  Sc55  1  0.48927380  0.49267123  0.89186857  1
  Sc  Sc56  1  0.70026612  0.69768702  0.90320225  1
  Sc  Sc57  1  0.50599977  0.91031582  0.49953937  1
  Sc  Sc58  1  0.70364786  0.70260430  0.50026642  1
  Sc  Sc59  1  0.30810723  0.50648976  0.70035021  1
  Sc  Sc60  1  0.29898765  0.69933150  0.49295896  1
  Sc  Sc61  1  0.10638968  0.70744704  0.89184741  1
  Sc  Sc62  1  0.70105819  0.29804625  0.30668703  1
  Sc  Sc63  1  0.90188108  0.09665936  0.30013667  1
  Sc  Sc64  1  0.30012074  0.29499243  0.50091671  1
  Sc  Sc65  1  0.30595155  0.09812692  0.49668248  1
  Sc  Sc66  1  0.29615882  0.69888504  0.30310830  1
  Sc  Sc67  1  0.49259467  0.29578020  0.09921278  1
  Sc  Sc68  1  0.10651310  0.50026345  0.68376926  1
  Sc  Sc69  1  0.08905240  0.29907904  0.91008809  1
  Sc  Sc70  1  0.50020945  0.11637265  0.09852383  1
  Sc  Sc71  1  0.10027737  0.90079897  0.89719169  1
  Sc  Sc72  1  0.90509533  0.91072219  0.50343130  1
  Sc  Sc73  1  0.09361455  0.29831188  0.10561150  1
  Sc  Sc74  1  0.09905382  0.69900517  0.30408678  1
  Sc  Sc75  1  0.10226276  0.69480381  0.10577943  1
  Sc  Sc76  1  0.08534316  0.09274230  0.89872921  1
  Sc  Sc77  1  0.69714116  0.90754839  0.50042108  1
  Sc  Sc78  1  0.90231263  0.29426044  0.29989956  1
  Sc  Sc79  1  0.90758941  0.29748825  0.49908109  1
  Sc  Sc80  1  0.70567915  0.49510827  0.70215349  1
  Sc  Sc81  1  0.50698928  0.70656529  0.28389380  1
  Sc  Sc82  1  0.50152986  0.29867985  0.70651099  1
  Sc  Sc83  1  0.09901620  0.90280431  0.49199092  1
  Sc  Sc84  1  0.10700583  0.49984624  0.90882165  1
  Sc  Sc85  1  0.29877282  0.30293763  0.10167181  1
  Sc  Sc86  1  0.70171401  0.28763040  0.10213775  1
  Sc  Sc87  1  0.90057390  0.29727008  0.69418728  1
  Sc  Sc88  1  0.09715280  0.10398888  0.30251071  1
  Sc  Sc89  1  0.89644288  0.49135646  0.10195996  1
  Sc  Sc90  1  0.29382747  0.69694715  0.89151994  1
  Sc  Sc91  1  0.30540092  0.09811980  0.89360879  1
  Sc  Sc92  1  0.29489991  0.10286330  0.30350966  1
  Sc  Sc93  1  0.30082576  0.29443680  0.69263008  1
  Sc  Sc94  1  0.30623811  0.90963847  0.30010038  1
  Sc  Sc95  1  0.71191737  0.49729512  0.30359744  1
  Sc  Sc96  1  0.09518780  0.10036324  0.49693447  1
  Sc  Sc97  1  0.90309480  0.91017985  0.11182745  1
  Sc  Sc98  1  0.69406331  0.90266160  0.30547873  1
  Sc  Sc99  1  0.70710156  0.10815820  0.30244802  1
  Nb  Nb100  1  0.50008193  0.90221230  0.30257073  1
  Nb  Nb101  1  0.70333771  0.70228053  0.30624333  1
  Nb  Nb102  1  0.29028647  0.09527518  0.09621652  1
  Nb  Nb103  1  0.49698133  0.69472815  0.69408538  1
  Nb  Nb104  1  0.30544814  0.70186745  0.10807847  1
  Nb  Nb105  1  0.90181534  0.49694390  0.90003721  1
  Nb  Nb106  1  0.10031548  0.49577017  0.29714847  1
  Nb  Nb107  1  0.50598881  0.70341659  0.50149652  1
  Nb  Nb108  1  0.50075427  0.50763669  0.69652161  1
  Nb  Nb109  1  0.89561606  0.09559591  0.89996223  1
  Nb  Nb110  1  0.90035146  0.89982747  0.89974969  1
  Nb  Nb111  1  0.69588800  0.09793633  0.10393461  1
  Nb  Nb112  1  0.90037068  0.09930621  0.49694342  1
  Nb  Nb113  1  0.90091177  0.70127966  0.89487291  1
  Nb  Nb114  1  0.10071504  0.49172302  0.49620286  1
  Nb  Nb115  1  0.50255347  0.29827492  0.29860236  1
  Nb  Nb116  1  0.49961238  0.10006579  0.90563781  1
  Nb  Nb117  1  0.49854144  0.70115618  0.09820304  1
  Nb  Nb118  1  0.90508845  0.70187097  0.70408588  1
  Nb  Nb119  1  0.09208937  0.31112179  0.49851447  1
  Nb  Nb120  1  0.89971011  0.89729407  0.29961541  1
  Nb  Nb121  1  0.09634894  0.10302980  0.70202657  1
  Nb  Nb122  1  0.69943936  0.90244972  0.69735277  1
  Nb  Nb123  1  0.90246700  0.30218405  0.10252640  1
  Nb  Nb124  1  0.49966207  0.90186085  0.90527744  1
  Nb  Nb125  1  0.59864003  0.39627837  0.20034608  1
  Nb  Nb126  1  0.00117467  0.40623690  0.80105276  1
  Nb  Nb127  1  0.59828565  0.39941095  0.00431445  1
  Nb  Nb128  1  0.59693423  0.00766351  0.19858374  1
  Nb  Nb129  1  -0.00866428  0.79637381  -0.00083879  1
  Nb  Nb130  1  0.59485730  0.60035286  0.78977973  1
  Nb  Nb131  1  -0.00469461  0.60218261  -0.00630292  1
  Nb  Nb132  1  0.40463721  -0.00194399  0.00088548  1
  Nb  Nb133  1  0.20175649  0.80514556  0.59878080  1
  Nb  Nb134  1  0.59544674  0.00297489  0.00320353  1
  Nb  Nb135  1  0.39987480  0.60874689  0.00365318  1
  Nb  Nb136  1  0.80818776  0.79939467  0.00296702  1
  Nb  Nb137  1  -0.00417945  0.59910131  0.80117437  1
  Nb  Nb138  1  0.19158952  0.20207744  0.79990897  1
  Nb  Nb139  1  0.80620387  0.80109339  0.39666906  1
  Nb  Nb140  1  0.59964930  0.60578786  0.40078534  1
  Nb  Nb141  1  0.80089754  0.79613666  0.20497515  1
  Nb  Nb142  1  0.19578785  0.39160883  0.79819650  1
  Nb  Nb143  1  0.59805107  0.79664200  0.60683752  1
  Nb  Nb144  1  0.41276086  0.80349753  0.39690667  1
  Nb  Nb145  1  0.19846878  0.19385778  -0.00305789  1
  Nb  Nb146  1  0.59669490  0.40475585  0.60088850  1
  Nb  Nb147  1  0.39967129  0.79888828  0.00412991  1
  Nb  Nb148  1  0.19261224  0.39865474  0.39940105  1
  Nb  Nb149  1  0.20250767  0.80440243  0.19975051  1
  Pd  Pd150  1  0.39473017  0.19723425  0.79675320  1
  Pd  Pd151  1  0.79139813  0.39193841  0.00242046  1
  Pd  Pd152  1  0.19625592  0.38913783  -0.00096288  1
  Pd  Pd153  1  0.00031946  0.19208067  0.00694216  1
  Pd  Pd154  1  0.39347272  0.39563599  0.78966361  1
  Pd  Pd155  1  0.80224059  0.20312373  0.20302402  1
  Pd  Pd156  1  0.20006071  0.60926092  0.00186177  1
  Pd  Pd157  1  0.80577794  0.19652288  0.59520707  1
  Pd  Pd158  1  0.80909742  0.19946932  0.79723552  1
  Pd  Pd159  1  0.61177711  0.60019050  0.59907701  1
  Pd  Pd160  1  0.19871869  0.79052780  0.00593945  1
  Pd  Pd161  1  0.80031544  -0.00292052  0.39744444  1
  Pd  Pd162  1  0.40433045  0.39931263  0.19488428  1
  Pd  Pd163  1  0.59358487  0.58490213  -0.01636463  1
  Pd  Pd164  1  0.59916611  0.40610365  0.80112025  1
  Pd  Pd165  1  0.61105740  0.80790311  0.20031520  1
  Pd  Pd166  1  0.79565687  0.81017861  0.59045009  1
  Pd  Pd167  1  -0.00418284  0.79997986  0.40822046  1
  Pd  Pd168  1  0.39206904  0.60388535  0.59423878  1
  Pd  Pd169  1  0.79872632  0.80181834  0.80597510  1
  Pd  Pd170  1  0.19610069  0.00961037  0.80415639  1
  Pd  Pd171  1  0.80855844  0.38889484  0.39789603  1
  Pd  Pd172  1  0.59978037  0.00777554  0.80587168  1
  Pd  Pd173  1  0.60613468  0.59104639  0.21604203  1
  Pd  Pd174  1  0.41073235  0.61564191  0.39073878  1
  Pd  Pd175  1  0.19569536  0.20435392  0.40879376  1
  Pd  Pd176  1  0.40547260  0.01344926  0.19501866  1
  Pd  Pd177  1  0.00207700  0.79872535  0.19370492  1
  Pd  Pd178  1  0.60359596  0.01136288  0.39263854  1
  Pd  Pd179  1  0.19315296  0.00036756  0.59168949  1
  Pd  Pd180  1  0.80307888  -0.00276139  0.79524748  1
  Pd  Pd181  1  0.19634377  -0.00141406  0.21198135  1
  Pd  Pd182  1  0.60471572  0.79129133  0.79100390  1
  Pd  Pd183  1  0.79653731  -0.00671926  0.00050584  1
  Pd  Pd184  1  -0.00515381  -0.00474866  0.00063394  1
  Pd  Pd185  1  0.59877160  0.19262029  0.80155724  1
  Pd  Pd186  1  0.79903480  0.39521390  0.59528134  1
  Pd  Pd187  1  0.40797831  0.20515171  0.59605528  1
  Pd  Pd188  1  0.40196827  0.80573837  0.58879371  1
  Pd  Pd189  1  -0.00119520  0.20667339  0.80097107  1
  Pd  Pd190  1  0.39070753  0.19522351  0.19629011  1
  Pd  Pd191  1  0.00626647  0.59598902  0.39938048  1
  Pd  Pd192  1  0.39814278  0.79473017  0.80748026  1
  Pd  Pd193  1  0.40491524  0.39599591  0.60095538  1
  Pd  Pd194  1  0.19019629  0.58991605  0.79335722  1
  Pd  Pd195  1  0.21137763  0.40113236  0.59819532  1
  Pd  Pd196  1  -0.00067396  0.59228793  0.60530722  1
  Pd  Pd197  1  0.79979396  0.59641788  0.59341799  1
  Pd  Pd198  1  0.19218828  0.19485561  0.59484588  1
  Pd  Pd199  1  0.80358304  0.60191781  -0.00539248  1
  Rh  Rh200  1  0.20118666  0.80805715  0.78730979  1
  Rh  Rh201  1  0.19720783  0.00438566  0.39721905  1
  Rh  Rh202  1  0.39248053  0.79660108  0.20782327  1
  Rh  Rh203  1  0.00216505  0.39887541  0.39024011  1
  Rh  Rh204  1  -0.00125378  0.40844550  0.00193402  1
  Rh  Rh205  1  0.20343242  0.00945578  -0.01237441  1
  Rh  Rh206  1  -0.00021038  0.00423481  0.20451592  1
  Rh  Rh207  1  0.80226195  -0.00036619  0.60295814  1
  Rh  Rh208  1  0.79097063  -0.00476171  0.20994641  1
  Rh  Rh209  1  0.60065300  0.79566728  0.40740443  1
  Rh  Rh210  1  0.60049846  0.20248670  0.20676702  1
  Rh  Rh211  1  -0.00343295  0.00361443  0.39683929  1
  Rh  Rh212  1  -0.00300520  0.19790858  0.40383967  1
  Rh  Rh213  1  0.38543107  0.18911996  0.00438563  1
  Rh  Rh214  1  -0.00742962  0.19625373  0.19648362  1
  Rh  Rh215  1  0.40696217  0.41428505  0.01049796  1
  Rh  Rh216  1  -0.00404880  0.39657926  0.20159914  1
  Rh  Rh217  1  0.38947709  0.39287399  0.40005956  1
  Rh  Rh218  1  0.60076667  0.40478831  0.39745537  1
  Rh  Rh219  1  0.00281173  0.00284912  0.59746303  1
  Rh  Rh220  1  0.79967201  0.60391494  0.80565977  1
  Rh  Rh221  1  0.00217136  0.80002173  0.80636278  1
  Rh  Rh222  1  -0.00873627  0.40821915  0.60552061  1
  Rh  Rh223  1  0.40783844  0.60799964  0.80763849  1
  Rh  Rh224  1  0.19735821  0.39135850  0.20699361  1
  Rh  Rh225  1  0.00597588  0.59351983  0.19655119  1
  Rh  Rh226  1  0.40668910  -0.00172792  0.59699184  1
  Rh  Rh227  1  0.80632524  0.19780824  0.40558622  1
  Rh  Rh228  1  0.00997959  0.80570494  0.59328582  1
  Rh  Rh229  1  0.80023516  0.20072559  0.00357444  1
  Rh  Rh230  1  0.60236335  0.19741471  0.39711831  1
  Rh  Rh231  1  -0.00773198  -0.00280770  0.80079954  1
  Rh  Rh232  1  0.20702569  0.60547488  0.59767344  1
  Rh  Rh233  1  0.40304014  -0.00049202  0.40194055  1
  Rh  Rh234  1  0.20190601  0.19969326  0.19050742  1
  Rh  Rh235  1  0.40356701  0.00258048  0.80524695  1
  Rh  Rh236  1  0.59408109  0.20997003  0.60139457  1
  Rh  Rh237  1  0.59923729  -0.00711522  0.60643107  1
  Rh  Rh238  1  0.19296905  0.58933805  0.39544397  1
  Rh  Rh239  1  0.60463026  0.81091531  0.00885026  1
  Rh  Rh240  1  0.40013023  0.20123450  0.40239690  1
  Rh  Rh241  1  0.79831969  0.60739803  0.40725044  1
  Rh  Rh242  1  0.60646983  0.20257126  -0.00210111  1
  Rh  Rh243  1  0.79571142  0.38995043  0.19980377  1
  Rh  Rh244  1  0.79106236  0.60317532  0.20393533  1
  Rh  Rh245  1  0.21013734  0.80717373  0.39548925  1
  Rh  Rh246  1  0.80990829  0.38787430  0.80154395  1
  Rh  Rh247  1  -0.00035380  0.19319646  0.59088512  1
  Rh  Rh248  1  0.19652848  0.60895019  0.20555285  1
  Rh  Rh249  1  0.39906533  0.60277619  0.20185794  1
