# generated using pymatgen
data_ZrScNbPdRh
_symmetry_space_group_name_H-M   'P 1'
_cell_length_a   16.55668671
_cell_length_b   16.55309260
_cell_length_c   16.55506847
_cell_angle_alpha   90.00642491
_cell_angle_beta   89.98138109
_cell_angle_gamma   89.99990992
_symmetry_Int_Tables_number   1
_chemical_formula_structural   ZrScNbPdRh
_chemical_formula_sum   'Zr50 Sc50 Nb50 Pd50 Rh50'
_cell_volume   4537.15411391
_cell_formula_units_Z   50
loop_
 _symmetry_equiv_pos_site_id
 _symmetry_equiv_pos_as_xyz
  1  'x, y, z'
loop_
 _atom_site_type_symbol
 _atom_site_label
 _atom_site_symmetry_multiplicity
 _atom_site_fract_x
 _atom_site_fract_y
 _atom_site_fract_z
 _atom_site_occupancy
  Zr  Zr0  1  0.09916774  0.28757448  0.49446864  1
  Zr  Zr1  1  0.09567601  0.70327157  0.90453773  1
  Zr  Zr2  1  0.29669198  0.89907476  0.89870417  1
  Zr  Zr3  1  0.70522865  0.29584439  0.69835662  1
  Zr  Zr4  1  0.70334114  0.89876223  0.89883175  1
  Zr  Zr5  1  0.09992330  0.10135246  0.89719216  1
  Zr  Zr6  1  0.89135775  0.09924866  0.09950993  1
  Zr  Zr7  1  0.49821654  0.70069596  0.08822925  1
  Zr  Zr8  1  0.89194656  0.49317194  0.70326236  1
  Zr  Zr9  1  0.89473352  0.89670330  0.51191551  1
  Zr  Zr10  1  0.09445411  0.90365857  0.10254994  1
  Zr  Zr11  1  0.09196314  0.49450009  0.29310605  1
  Zr  Zr12  1  0.50031526  0.50808561  0.49722532  1
  Zr  Zr13  1  0.69049676  0.09892156  0.29842749  1
  Zr  Zr14  1  0.09873455  0.52068499  0.50735945  1
  Zr  Zr15  1  0.30840041  0.09914318  0.29835521  1
  Zr  Zr16  1  0.09626440  0.70067658  0.30072846  1
  Zr  Zr17  1  0.50628554  0.50510216  0.90855045  1
  Zr  Zr18  1  0.69841899  0.09998523  0.49686185  1
  Zr  Zr19  1  0.29670307  0.10352956  0.90291751  1
  Zr  Zr20  1  0.50674737  0.69742169  0.30434500  1
  Zr  Zr21  1  0.29749612  0.51212511  0.10350125  1
  Zr  Zr22  1  0.30166918  0.90455675  0.09713993  1
  Zr  Zr23  1  0.09856265  0.69105856  0.67974406  1
  Zr  Zr24  1  0.69924759  0.89518318  0.69177571  1
  Zr  Zr25  1  0.49943084  0.89794730  0.69105984  1
  Zr  Zr26  1  0.69738387  0.70718966  0.10634490  1
  Zr  Zr27  1  0.69660693  0.09769881  0.69935387  1
  Zr  Zr28  1  0.90202585  0.70219340  0.09681637  1
  Zr  Zr29  1  0.49859992  0.91671134  0.30027936  1
  Zr  Zr30  1  0.70843712  0.50232539  0.89306950  1
  Zr  Zr31  1  0.89762595  0.70038483  0.89515943  1
  Zr  Zr32  1  0.90814814  0.89125345  0.89671131  1
  Zr  Zr33  1  0.89358117  0.69616303  0.29326733  1
  Zr  Zr34  1  0.50003743  0.30844758  0.09492266  1
  Zr  Zr35  1  0.29613990  0.10262903  0.10164045  1
  Zr  Zr36  1  0.09891025  0.09231421  0.50033188  1
  Zr  Zr37  1  0.11006307  0.30004339  0.88742471  1
  Zr  Zr38  1  0.69900131  0.29981956  0.10669070  1
  Zr  Zr39  1  0.91148896  0.69770340  0.50629015  1
  Zr  Zr40  1  0.89471143  0.50219949  0.90191801  1
  Zr  Zr41  1  0.30231973  0.69407164  0.30001697  1
  Zr  Zr42  1  0.30279709  0.70323080  0.91334449  1
  Zr  Zr43  1  0.10046826  0.71214729  0.49292857  1
  Zr  Zr44  1  0.50035379  0.90629354  0.50150659  1
  Zr  Zr45  1  0.10246250  0.29460719  0.29882832  1
  Zr  Zr46  1  0.70321606  0.29791665  0.90057828  1
  Zr  Zr47  1  0.30767492  0.29729816  0.90522843  1
  Zr  Zr48  1  0.29709107  0.29735601  0.70478662  1
  Zr  Zr49  1  0.50414435  0.10117210  0.68899691  1
  Sc  Sc50  1  0.09760366  0.10703898  0.11170191  1
  Sc  Sc51  1  0.70010003  0.69649754  0.30000544  1
  Sc  Sc52  1  0.10149956  0.89655684  0.89602130  1
  Sc  Sc53  1  0.30330596  0.29816648  0.10248728  1
  Sc  Sc54  1  0.70861594  0.49655913  0.49661074  1
  Sc  Sc55  1  0.09911223  0.29596557  0.70277145  1
  Sc  Sc56  1  0.10003851  0.50683157  0.10572929  1
  Sc  Sc57  1  0.90410136  0.29394520  0.10443066  1
  Sc  Sc58  1  0.09838355  0.69533640  0.10224327  1
  Sc  Sc59  1  0.30684284  0.50992592  0.49246756  1
  Sc  Sc60  1  0.09928426  0.10060177  0.69594915  1
  Sc  Sc61  1  0.09535605  0.90653215  0.30594564  1
  Sc  Sc62  1  0.30292363  0.89954756  0.69360123  1
  Sc  Sc63  1  0.70159953  0.89551761  0.29865300  1
  Sc  Sc64  1  0.30419447  0.90100260  0.49843700  1
  Sc  Sc65  1  0.09583312  0.90012064  0.70232292  1
  Sc  Sc66  1  0.69827452  0.68923558  0.90256098  1
  Sc  Sc67  1  0.30173804  0.50121953  0.90556635  1
  Sc  Sc68  1  0.89771779  0.09797854  0.50452722  1
  Sc  Sc69  1  0.29890537  0.50158013  0.69806186  1
  Sc  Sc70  1  0.49919843  0.10027584  0.12332535  1
  Sc  Sc71  1  0.49639357  0.49938007  0.29775359  1
  Sc  Sc72  1  0.29979507  0.10342175  0.49903943  1
  Sc  Sc73  1  0.50751076  0.10875120  0.88772854  1
  Sc  Sc74  1  0.70123113  0.69496760  0.70171834  1
  Sc  Sc75  1  0.69518013  0.70417245  0.49649229  1
  Sc  Sc76  1  0.89427007  0.10487876  0.90319653  1
  Sc  Sc77  1  0.49949029  0.49655798  0.10078446  1
  Sc  Sc78  1  0.69533879  0.50083674  0.09556554  1
  Sc  Sc79  1  0.49395847  0.29935644  0.30089577  1
  Sc  Sc80  1  0.70113470  0.89986253  0.50257742  1
  Sc  Sc81  1  0.91169578  0.30590277  0.30622387  1
  Sc  Sc82  1  0.89516184  0.90144788  0.29645302  1
  Sc  Sc83  1  0.89599739  0.29514922  0.89646235  1
  Sc  Sc84  1  0.09613137  0.30030589  0.11357543  1
  Sc  Sc85  1  0.89755974  0.29813120  0.49995346  1
  Sc  Sc86  1  0.49566742  0.88882836  0.90375541  1
  Sc  Sc87  1  0.69630863  0.29605814  0.30477044  1
  Sc  Sc88  1  0.70653301  0.10053919  0.89843800  1
  Sc  Sc89  1  0.10307691  0.10197579  0.30366351  1
  Sc  Sc90  1  0.70848862  0.29522233  0.49949299  1
  Sc  Sc91  1  0.90106459  0.50593049  0.10157444  1
  Sc  Sc92  1  0.30090879  0.09800404  0.69327493  1
  Sc  Sc93  1  0.90102389  0.09978039  0.69564123  1
  Sc  Sc94  1  0.89596819  0.29340828  0.69458084  1
  Sc  Sc95  1  0.29660887  0.70207908  0.49725971  1
  Sc  Sc96  1  0.30119229  0.70858542  0.69210491  1
  Sc  Sc97  1  0.89252960  0.90752115  0.10805653  1
  Sc  Sc98  1  0.49971361  0.70178072  0.50220930  1
  Sc  Sc99  1  0.89707441  0.09560930  0.29381617  1
  Nb  Nb100  1  0.50509971  0.50394861  0.69765675  1
  Nb  Nb101  1  0.50384693  0.69600524  0.69894241  1
  Nb  Nb102  1  0.89748067  0.49521053  0.49765324  1
  Nb  Nb103  1  0.30312485  0.30435608  0.49517561  1
  Nb  Nb104  1  0.50079967  0.30337160  0.89866836  1
  Nb  Nb105  1  0.30740152  0.89922627  0.29564440  1
  Nb  Nb106  1  0.69973022  0.49748641  0.70057256  1
  Nb  Nb107  1  0.69868134  0.90763032  0.10004529  1
  Nb  Nb108  1  0.50301838  0.90069358  0.10026119  1
  Nb  Nb109  1  0.90136021  0.70596783  0.69940362  1
  Nb  Nb110  1  0.50202213  0.10003605  0.31351941  1
  Nb  Nb111  1  0.09276767  0.90271041  0.49739569  1
  Nb  Nb112  1  0.50079382  0.10214013  0.48793151  1
  Nb  Nb113  1  0.89257533  0.88393846  0.70506925  1
  Nb  Nb114  1  0.29906303  0.49625097  0.29879503  1
  Nb  Nb115  1  0.10210998  0.49679901  0.89149613  1
  Nb  Nb116  1  0.29873772  0.30347347  0.31261764  1
  Nb  Nb117  1  0.50195427  0.29797362  0.70105720  1
  Nb  Nb118  1  0.49919451  0.69691419  0.89820632  1
  Nb  Nb119  1  0.10402939  0.49399988  0.70326680  1
  Nb  Nb120  1  0.49381131  0.30095582  0.49716939  1
  Nb  Nb121  1  0.69876945  0.49773307  0.30411315  1
  Nb  Nb122  1  0.89163842  0.49625610  0.30772296  1
  Nb  Nb123  1  0.70457242  0.09866275  0.09820432  1
  Nb  Nb124  1  0.29791998  0.70079649  0.10313504  1
  Nb  Nb125  1  0.40417214  0.39625189  0.60142176  1
  Nb  Nb126  1  0.00835791  0.40087097  -0.00667070  1
  Nb  Nb127  1  0.80376830  -0.01067008  0.79501849  1
  Nb  Nb128  1  0.79895016  0.80264488  0.00276130  1
  Nb  Nb129  1  0.59359235  0.79155211  0.79876472  1
  Nb  Nb130  1  0.40814388  0.00319920  -0.00137556  1
  Nb  Nb131  1  0.59578744  0.39906570  0.40647480  1
  Nb  Nb132  1  0.59855079  0.00284451  0.00674776  1
  Nb  Nb133  1  0.59747357  0.40024474  0.79457351  1
  Nb  Nb134  1  0.60095062  0.19709434  0.00510320  1
  Nb  Nb135  1  -0.00191900  0.00309856  -0.00018860  1
  Nb  Nb136  1  0.40497151  0.60281826  0.79931321  1
  Nb  Nb137  1  0.40190945  -0.00101381  0.80315611  1
  Nb  Nb138  1  0.41065474  0.40231921  0.79677766  1
  Nb  Nb139  1  0.20109925  0.40212757  0.40164196  1
  Nb  Nb140  1  0.00403586  0.59612314  0.79475131  1
  Nb  Nb141  1  0.40032816  0.80130187  0.19708639  1
  Nb  Nb142  1  0.79956822  0.40523492  0.20893897  1
  Nb  Nb143  1  0.20061782  0.39981980  0.59211988  1
  Nb  Nb144  1  0.80552468  0.59631729  0.60088079  1
  Nb  Nb145  1  0.59541499  0.39906142  0.60150171  1
  Nb  Nb146  1  0.19845315  0.60134421  0.80052197  1
  Nb  Nb147  1  0.19375141  0.40173852  -0.00127784  1
  Nb  Nb148  1  0.00482018  0.40505171  0.59818420  1
  Nb  Nb149  1  0.20781679  0.80100946  0.20264812  1
  Pd  Pd150  1  -0.00440494  0.19808302  0.79560474  1
  Pd  Pd151  1  0.81106869  0.39493701  0.01166856  1
  Pd  Pd152  1  0.19644920  0.79048088  0.79210208  1
  Pd  Pd153  1  0.39985780  0.20750891  0.20543771  1
  Pd  Pd154  1  0.19290189  0.79913595  0.01014926  1
  Pd  Pd155  1  0.79534991  0.59225190  0.19630356  1
  Pd  Pd156  1  -0.00496688  0.59880077  0.39293604  1
  Pd  Pd157  1  0.19873938  -0.00695452  0.59757362  1
  Pd  Pd158  1  0.59399905  0.80620669  0.20668520  1
  Pd  Pd159  1  0.40365423  0.79902447  0.39828715  1
  Pd  Pd160  1  0.20725139  -0.00389734  0.39891623  1
  Pd  Pd161  1  0.60611973  0.39761507  -0.00606198  1
  Pd  Pd162  1  0.60066709  0.20501436  0.58931176  1
  Pd  Pd163  1  0.39531341  0.39747518  0.19983368  1
  Pd  Pd164  1  0.59602872  -0.01034016  0.80757482  1
  Pd  Pd165  1  0.39896295  0.20160939  0.59482491  1
  Pd  Pd166  1  0.19695530  -0.00244399  0.20700071  1
  Pd  Pd167  1  -0.00460792  -0.00542620  0.60680243  1
  Pd  Pd168  1  0.19705041  0.81195477  0.59503846  1
  Pd  Pd169  1  0.80429764  0.20799757  0.20990580  1
  Pd  Pd170  1  0.80405201  0.79575650  0.40338276  1
  Pd  Pd171  1  0.80693288  0.20099799  0.39378011  1
  Pd  Pd172  1  0.39979717  0.19636571  0.79665851  1
  Pd  Pd173  1  0.60603745  0.80220189  -0.00670652  1
  Pd  Pd174  1  0.59728012  0.59452189  0.19679250  1
  Pd  Pd175  1  0.00926821  0.40329912  0.41027937  1
  Pd  Pd176  1  0.59516905  0.20408635  0.20141533  1
  Pd  Pd177  1  0.79899092  -0.00216747  0.39825011  1
  Pd  Pd178  1  -0.00869720  0.18750868  0.39853292  1
  Pd  Pd179  1  0.18875483  0.21007923  0.00815303  1
  Pd  Pd180  1  0.39401805  0.60159675  0.60438989  1
  Pd  Pd181  1  -0.00781212  0.00397090  0.80174883  1
  Pd  Pd182  1  0.59866632  0.80716013  0.39823413  1
  Pd  Pd183  1  0.19879957  0.20355592  0.60064959  1
  Pd  Pd184  1  0.19926264  0.59412319  0.39325976  1
  Pd  Pd185  1  0.20571978  0.39742101  0.19789340  1
  Pd  Pd186  1  -0.01021060  0.00126204  0.39953276  1
  Pd  Pd187  1  0.41523630  0.18916536  0.00415045  1
  Pd  Pd188  1  0.79811693  0.60619861  0.40864260  1
  Pd  Pd189  1  0.00232728  0.80259029  0.20209815  1
  Pd  Pd190  1  0.61240553  0.59799732  0.59348866  1
  Pd  Pd191  1  -0.01195414  0.80697095  0.39471007  1
  Pd  Pd192  1  0.00496202  0.59195437  -0.00514597  1
  Pd  Pd193  1  0.20317462  0.81086938  0.39405078  1
  Pd  Pd194  1  -0.00897141  0.39670475  0.79918963  1
  Pd  Pd195  1  0.20641582  0.00192589  0.79312571  1
  Pd  Pd196  1  0.19223724  0.00339985  0.00067533  1
  Pd  Pd197  1  0.40331877  0.79903472  0.79446269  1
  Pd  Pd198  1  0.00573870  0.20279086  0.00010799  1
  Pd  Pd199  1  0.40854272  0.60388247  0.19944406  1
  Rh  Rh200  1  0.20650773  0.19897229  0.39871416  1
  Rh  Rh201  1  0.80336946  -0.00733665  -0.00873737  1
  Rh  Rh202  1  0.79352167  0.20563918  0.00456252  1
  Rh  Rh203  1  0.39991825  0.80537215  0.00619930  1
  Rh  Rh204  1  0.59510658  0.20814363  0.40269290  1
  Rh  Rh205  1  0.40175455  0.60269055  0.39512955  1
  Rh  Rh206  1  0.40038738  -0.00144607  0.19446387  1
  Rh  Rh207  1  -0.00054090  0.00535162  0.19685685  1
  Rh  Rh208  1  0.20248754  0.18936577  0.79401286  1
  Rh  Rh209  1  -0.01311672  0.58814374  0.60992963  1
  Rh  Rh210  1  0.39435357  0.00485129  0.40601038  1
  Rh  Rh211  1  0.79677161  0.39107290  0.79983215  1
  Rh  Rh212  1  0.59938480  0.00425346  0.58951999  1
  Rh  Rh213  1  0.21228975  0.59589040  0.60341502  1
  Rh  Rh214  1  0.59626507  0.59917415  0.80108454  1
  Rh  Rh215  1  0.79300147  0.39363880  0.39565090  1
  Rh  Rh216  1  0.59927154  0.79388109  0.60340864  1
  Rh  Rh217  1  0.39965555  0.40684232  0.40252317  1
  Rh  Rh218  1  0.39895504  0.59721578  -0.00061704  1
  Rh  Rh219  1  0.79621686  0.78669012  0.59546051  1
  Rh  Rh220  1  0.00632098  0.81014573  0.60170436  1
  Rh  Rh221  1  0.60799034  -0.00387812  0.40314873  1
  Rh  Rh222  1  0.60563248  0.40201358  0.21214753  1
  Rh  Rh223  1  0.21730147  0.40677067  0.80187072  1
  Rh  Rh224  1  0.60379491  0.00047740  0.19929874  1
  Rh  Rh225  1  0.80118034  0.40324997  0.59641788  1
  Rh  Rh226  1  0.80009887  0.19249918  0.59796117  1
  Rh  Rh227  1  0.19598884  0.59609488  -0.00413678  1
  Rh  Rh228  1  0.19614224  0.60615210  0.20681396  1
  Rh  Rh229  1  -0.00563705  0.81049382  0.01099016  1
  Rh  Rh230  1  -0.00455562  0.19594013  0.20837965  1
  Rh  Rh231  1  0.60352342  0.60044774  0.00435143  1
  Rh  Rh232  1  0.78971146  0.00083061  0.20719930  1
  Rh  Rh233  1  0.80222020  -0.00100042  0.60812286  1
  Rh  Rh234  1  0.01297314  0.78778652  0.78880699  1
  Rh  Rh235  1  0.39174563  0.40492199  -0.00090510  1
  Rh  Rh236  1  0.79985941  0.18895403  0.79466031  1
  Rh  Rh237  1  0.20812898  0.20309350  0.20603009  1
  Rh  Rh238  1  0.00038314  0.20477740  0.59899323  1
  Rh  Rh239  1  0.40246946  0.00614503  0.59906629  1
  Rh  Rh240  1  0.79813268  0.80237693  0.19512538  1
  Rh  Rh241  1  0.80673035  0.60661440  0.79048564  1
  Rh  Rh242  1  0.78799566  0.79540671  0.80463792  1
  Rh  Rh243  1  0.60563764  0.20800332  0.80496920  1
  Rh  Rh244  1  -0.00628894  0.59752771  0.20599694  1
  Rh  Rh245  1  0.60342574  0.59415071  0.40004036  1
  Rh  Rh246  1  0.40288110  0.79594746  0.59342687  1
  Rh  Rh247  1  0.79389686  0.60949755  0.00927547  1
  Rh  Rh248  1  -0.01362747  0.40503865  0.19173883  1
  Rh  Rh249  1  0.39842012  0.19653805  0.39996010  1
