# generated using pymatgen
data_ZrScNbPdRh
_symmetry_space_group_name_H-M   'P 1'
_cell_length_a   16.57047776
_cell_length_b   16.56472132
_cell_length_c   16.56258623
_cell_angle_alpha   89.97448536
_cell_angle_beta   89.99794726
_cell_angle_gamma   90.03081081
_symmetry_Int_Tables_number   1
_chemical_formula_structural   ZrScNbPdRh
_chemical_formula_sum   'Zr50 Sc50 Nb50 Pd50 Rh50'
_cell_volume   4546.18610434
_cell_formula_units_Z   50
loop_
 _symmetry_equiv_pos_site_id
 _symmetry_equiv_pos_as_xyz
  1  'x, y, z'
loop_
 _atom_site_type_symbol
 _atom_site_label
 _atom_site_symmetry_multiplicity
 _atom_site_fract_x
 _atom_site_fract_y
 _atom_site_fract_z
 _atom_site_occupancy
  Zr  Zr0  1  0.70168746  0.69539423  0.10852909  1
  Zr  Zr1  1  0.09435413  0.89109651  0.70215242  1
  Zr  Zr2  1  0.69800828  0.69817234  0.69926494  1
  Zr  Zr3  1  0.49986375  0.09692994  0.90549142  1
  Zr  Zr4  1  0.10809203  0.89323913  0.89820540  1
  Zr  Zr5  1  0.30216676  0.09952257  0.90129389  1
  Zr  Zr6  1  0.29515075  0.69420408  0.69401603  1
  Zr  Zr7  1  0.50807051  0.49645467  0.10109023  1
  Zr  Zr8  1  0.10286215  0.29922019  0.50277105  1
  Zr  Zr9  1  0.50096011  0.90889391  0.50366860  1
  Zr  Zr10  1  0.30516676  0.49867734  0.29456036  1
  Zr  Zr11  1  0.90525077  0.29557196  0.50072922  1
  Zr  Zr12  1  0.09572539  0.49927554  0.10027337  1
  Zr  Zr13  1  0.70615672  0.29882226  0.50286910  1
  Zr  Zr14  1  0.90242467  0.50905032  0.89982270  1
  Zr  Zr15  1  0.69543447  0.10719059  0.89544256  1
  Zr  Zr16  1  0.89855823  0.89956756  0.29141901  1
  Zr  Zr17  1  0.90483334  0.10609912  0.89523965  1
  Zr  Zr18  1  0.10486291  0.69713083  0.09319676  1
  Zr  Zr19  1  0.70426256  0.49563276  0.90804451  1
  Zr  Zr20  1  0.10207999  0.09949233  0.90144744  1
  Zr  Zr21  1  0.48855486  0.09168381  0.69396453  1
  Zr  Zr22  1  0.70008068  0.89934568  0.69315017  1
  Zr  Zr23  1  0.89806349  0.70303349  0.10536580  1
  Zr  Zr24  1  0.30734282  0.10570740  0.51230106  1
  Zr  Zr25  1  0.29247006  0.89711827  0.29991436  1
  Zr  Zr26  1  0.70544364  0.89872459  0.10749023  1
  Zr  Zr27  1  0.49927579  0.49931039  0.50186766  1
  Zr  Zr28  1  0.09830856  0.10190117  0.69875384  1
  Zr  Zr29  1  0.50411885  0.72171655  0.90240570  1
  Zr  Zr30  1  0.09965758  0.30047944  0.09851798  1
  Zr  Zr31  1  0.09913069  0.30500648  0.30428290  1
  Zr  Zr32  1  0.30018980  0.51090607  0.08729450  1
  Zr  Zr33  1  0.09767743  0.29644992  0.90297356  1
  Zr  Zr34  1  0.29383473  0.89492291  0.70287134  1
  Zr  Zr35  1  0.48453507  0.50199128  0.90016783  1
  Zr  Zr36  1  0.69626099  0.10421506  0.09901124  1
  Zr  Zr37  1  0.30256196  0.30223570  0.90227318  1
  Zr  Zr38  1  0.30911634  0.29434436  0.30042742  1
  Zr  Zr39  1  0.49609569  0.70225914  0.50078982  1
  Zr  Zr40  1  0.48656498  0.30157588  0.49950706  1
  Zr  Zr41  1  0.89682450  0.09186746  0.10929899  1
  Zr  Zr42  1  0.10760830  0.09741129  0.09847815  1
  Zr  Zr43  1  0.70080309  0.30160410  0.89881191  1
  Zr  Zr44  1  0.68467444  0.88926045  0.90457079  1
  Zr  Zr45  1  0.70385513  0.90548210  0.49598841  1
  Zr  Zr46  1  0.51004900  0.30673609  0.69778015  1
  Zr  Zr47  1  0.49466343  0.30661543  0.29827680  1
  Zr  Zr48  1  0.70347270  0.29818423  0.70532446  1
  Zr  Zr49  1  0.49917663  0.90097878  0.08298324  1
  Sc  Sc50  1  0.69212012  0.49680097  0.69863017  1
  Sc  Sc51  1  0.29806250  0.29187383  0.09677517  1
  Sc  Sc52  1  0.90446554  0.90374019  0.49484499  1
  Sc  Sc53  1  0.50318786  0.50031908  0.29635380  1
  Sc  Sc54  1  0.90161624  0.09830523  0.50183028  1
  Sc  Sc55  1  0.09375508  0.49441110  0.30612749  1
  Sc  Sc56  1  0.90197282  0.09928288  0.69369314  1
  Sc  Sc57  1  0.09687719  0.90196040  0.30188960  1
  Sc  Sc58  1  0.49096050  0.89667399  0.29703035  1
  Sc  Sc59  1  0.90108255  0.30608419  0.89463578  1
  Sc  Sc60  1  0.30477845  0.89977013  0.90107991  1
  Sc  Sc61  1  0.10697438  0.89438320  0.10323914  1
  Sc  Sc62  1  0.48951150  0.50427698  0.69828684  1
  Sc  Sc63  1  0.91640006  0.89049912  0.89181887  1
  Sc  Sc64  1  0.30082695  0.09898095  0.70536592  1
  Sc  Sc65  1  0.70242411  0.69599254  0.29842925  1
  Sc  Sc66  1  0.50347920  0.69928212  0.29769538  1
  Sc  Sc67  1  0.10196579  0.70862331  0.29633523  1
  Sc  Sc68  1  0.09711796  0.70217405  0.50575838  1
  Sc  Sc69  1  0.70703458  0.09275570  0.50002166  1
  Sc  Sc70  1  0.09731660  0.51080064  0.69732444  1
  Sc  Sc71  1  0.09089768  0.09470100  0.49893578  1
  Sc  Sc72  1  0.09315646  0.89734769  0.49736370  1
  Sc  Sc73  1  0.90443368  0.51089344  0.49455575  1
  Sc  Sc74  1  0.29794167  0.88728934  0.49699812  1
  Sc  Sc75  1  0.29918721  0.30418249  0.50258679  1
  Sc  Sc76  1  0.50720906  0.29516483  0.10374379  1
  Sc  Sc77  1  0.89971246  0.31379402  0.10520921  1
  Sc  Sc78  1  0.70873268  0.10533986  0.69775771  1
  Sc  Sc79  1  0.49613512  0.70280332  0.10480071  1
  Sc  Sc80  1  0.89744880  0.49486821  0.30195854  1
  Sc  Sc81  1  0.70897082  0.10024234  0.29716747  1
  Sc  Sc82  1  0.69905058  0.50571172  0.29732756  1
  Sc  Sc83  1  0.70654780  0.49279098  0.10501678  1
  Sc  Sc84  1  0.10456026  0.08670412  0.29846244  1
  Sc  Sc85  1  0.50682734  0.29604634  0.90065023  1
  Sc  Sc86  1  0.29876119  0.90060154  0.09842948  1
  Sc  Sc87  1  0.90494229  0.29429034  0.70271363  1
  Sc  Sc88  1  0.70703658  0.30289311  0.29237808  1
  Sc  Sc89  1  0.69771806  0.50633146  0.49677102  1
  Sc  Sc90  1  0.49024965  0.10990925  0.29283490  1
  Sc  Sc91  1  0.29585445  0.29246915  0.69516100  1
  Sc  Sc92  1  0.30179683  0.09620874  0.10306002  1
  Sc  Sc93  1  0.29912783  0.50206978  0.51768466  1
  Sc  Sc94  1  0.49423053  0.89164576  0.70063057  1
  Sc  Sc95  1  0.10046542  0.49526981  0.50118231  1
  Sc  Sc96  1  0.09669086  0.50965144  0.90479772  1
  Sc  Sc97  1  0.09816869  0.30050782  0.69590211  1
  Sc  Sc98  1  0.69976715  0.69149254  0.49184603  1
  Sc  Sc99  1  0.89990890  0.30398423  0.30638940  1
  Nb  Nb100  1  0.29835062  0.69922522  0.49722654  1
  Nb  Nb101  1  0.50415618  0.09629887  0.09702675  1
  Nb  Nb102  1  0.70019294  0.30671320  0.09300871  1
  Nb  Nb103  1  0.90396243  0.69288030  0.69913394  1
  Nb  Nb104  1  0.90129774  0.50371587  0.10320518  1
  Nb  Nb105  1  0.30249299  0.70318584  0.30237877  1
  Nb  Nb106  1  0.29371143  0.68364566  0.89752405  1
  Nb  Nb107  1  0.09035493  0.70225963  0.89565582  1
  Nb  Nb108  1  0.90010963  0.69565474  0.89845995  1
  Nb  Nb109  1  0.90886761  0.09763175  0.29484340  1
  Nb  Nb110  1  0.89951637  0.50574561  0.69924800  1
  Nb  Nb111  1  0.29828573  0.09735619  0.30134797  1
  Nb  Nb112  1  0.10418409  0.70369109  0.70494833  1
  Nb  Nb113  1  0.49986355  0.70010630  0.70212594  1
  Nb  Nb114  1  0.89849769  0.89575652  0.69677318  1
  Nb  Nb115  1  0.49943748  0.90335601  0.89870665  1
  Nb  Nb116  1  0.89843989  0.90159605  0.10010063  1
  Nb  Nb117  1  0.89841111  0.70206441  0.49165455  1
  Nb  Nb118  1  0.29762263  0.51497246  0.71848288  1
  Nb  Nb119  1  0.70159113  0.69934422  0.90059658  1
  Nb  Nb120  1  0.30112134  0.50475891  0.89374662  1
  Nb  Nb121  1  0.49689874  0.10126564  0.49959778  1
  Nb  Nb122  1  0.29118381  0.69571607  0.10879815  1
  Nb  Nb123  1  0.89890850  0.69878709  0.30515579  1
  Nb  Nb124  1  0.69629987  0.90221507  0.30242704  1
  Nb  Nb125  1  0.60180663  0.80795004  0.39946501  1
  Nb  Nb126  1  0.59658309  0.60733995  0.80783872  1
  Nb  Nb127  1  0.79842262  -0.01012335  0.80416198  1
  Nb  Nb128  1  0.39540709  0.00520658  0.40076455  1
  Nb  Nb129  1  0.19759641  -0.00442544  0.60266975  1
  Nb  Nb130  1  0.20142894  0.40125463  0.19755249  1
  Nb  Nb131  1  0.79883072  0.20073190  0.00319144  1
  Nb  Nb132  1  0.60146790  0.60269613  -0.00514976  1
  Nb  Nb133  1  0.59928835  -0.00311486  0.80132279  1
  Nb  Nb134  1  0.59793778  0.39203170  0.40220049  1
  Nb  Nb135  1  0.00114374  0.19761631  0.20290185  1
  Nb  Nb136  1  0.80466214  0.79406225  0.79843428  1
  Nb  Nb137  1  0.80471806  0.79899134  -0.00538696  1
  Nb  Nb138  1  0.59670539  0.00069285  0.19701530  1
  Nb  Nb139  1  0.80676761  0.40458542  0.60275731  1
  Nb  Nb140  1  -0.00278532  -0.00430500  0.00303835  1
  Nb  Nb141  1  0.20800709  0.60401303  0.40028605  1
  Nb  Nb142  1  0.20460541  0.40931625  0.80371358  1
  Nb  Nb143  1  0.59589046  0.19874785  0.59255118  1
  Nb  Nb144  1  0.20475737  0.19508909  0.39870885  1
  Nb  Nb145  1  0.39229965  0.60528531  0.40150866  1
  Nb  Nb146  1  0.59606249  0.20099103  0.40397005  1
  Nb  Nb147  1  0.80437578  -0.00480421  -0.00686681  1
  Nb  Nb148  1  -0.00490497  0.60104131  0.19940134  1
  Nb  Nb149  1  0.80847296  0.79245166  0.59851722  1
  Pd  Pd150  1  0.38991182  0.79532244  0.80133401  1
  Pd  Pd151  1  0.20630568  0.00456520  0.41343006  1
  Pd  Pd152  1  0.79607145  0.40760607  0.40671731  1
  Pd  Pd153  1  0.00364854  0.60471451  0.59695412  1
  Pd  Pd154  1  0.80949828  0.00476503  0.39372725  1
  Pd  Pd155  1  0.20105248  -0.00000983  0.79758494  1
  Pd  Pd156  1  0.80539543  0.40634082  0.79336764  1
  Pd  Pd157  1  0.39433385  0.39172948  0.79191847  1
  Pd  Pd158  1  0.80894672  0.20915222  0.19591317  1
  Pd  Pd159  1  0.79342391  0.59798106  0.79723175  1
  Pd  Pd160  1  0.80126768  0.59743362  0.59598943  1
  Pd  Pd161  1  -0.00559582  0.79533048  0.59783195  1
  Pd  Pd162  1  0.21024719  0.40224565  0.39777640  1
  Pd  Pd163  1  0.18934965  0.59444450  0.21113960  1
  Pd  Pd164  1  0.39473159  0.80053585  0.19545945  1
  Pd  Pd165  1  0.01054831  0.60608627  0.39322354  1
  Pd  Pd166  1  0.20099885  0.40520475  -0.00244575  1
  Pd  Pd167  1  0.40534302  0.20572151  0.79671532  1
  Pd  Pd168  1  0.60082420  0.19912541  0.20600108  1
  Pd  Pd169  1  0.00244252  0.79749942  0.19999435  1
  Pd  Pd170  1  0.79772059  0.60214233  0.00602883  1
  Pd  Pd171  1  0.79865645  0.19251648  0.39916047  1
  Pd  Pd172  1  -0.00179666  0.80261123  0.00409907  1
  Pd  Pd173  1  0.58883516  0.00589150  0.38613314  1
  Pd  Pd174  1  0.00977528  0.40667899  0.79716480  1
  Pd  Pd175  1  0.60674867  0.79541496  0.59001710  1
  Pd  Pd176  1  0.19793648  0.20799833  0.80076102  1
  Pd  Pd177  1  -0.00632716  0.40496325  0.60030150  1
  Pd  Pd178  1  0.20899327  0.79301568  -0.00493591  1
  Pd  Pd179  1  0.19069127  0.79494746  0.40291365  1
  Pd  Pd180  1  0.40332606  0.19963232  0.00623457  1
  Pd  Pd181  1  0.00796391  0.19281108  0.39307679  1
  Pd  Pd182  1  0.39248328  0.39845579  0.18382933  1
  Pd  Pd183  1  0.40308566  -0.00046731  0.20134846  1
  Pd  Pd184  1  0.40670113  0.61350733  0.00084785  1
  Pd  Pd185  1  0.19530337  0.20362361  0.20820457  1
  Pd  Pd186  1  0.60452921  0.00951782  0.60718052  1
  Pd  Pd187  1  -0.00371368  0.00001730  0.79968903  1
  Pd  Pd188  1  0.79528135  0.79949530  0.39973306  1
  Pd  Pd189  1  0.59448744  0.41325730  0.80688413  1
  Pd  Pd190  1  -0.01096686  0.19664073  0.01229256  1
  Pd  Pd191  1  0.20270141  0.40833987  0.61582870  1
  Pd  Pd192  1  0.38869986  0.40326328  0.61266504  1
  Pd  Pd193  1  -0.00630468  0.40234193  -0.00411778  1
  Pd  Pd194  1  0.40462384  0.39260046  0.00550492  1
  Pd  Pd195  1  0.40417791  0.60328354  0.20285964  1
  Pd  Pd196  1  0.39716145  0.79967414  0.60074583  1
  Pd  Pd197  1  0.38486442  0.79137266  0.00261884  1
  Pd  Pd198  1  0.59773507  0.80578829  0.20424192  1
  Pd  Pd199  1  0.59535593  0.59993761  0.60541507  1
  Rh  Rh200  1  0.00274953  0.60270205  0.79673348  1
  Rh  Rh201  1  0.39600655  0.19131843  0.40015049  1
  Rh  Rh202  1  0.80050794  0.40218911  0.20091188  1
  Rh  Rh203  1  0.39928497  0.60357518  0.59914846  1
  Rh  Rh204  1  -0.00569207  0.40034147  0.40894707  1
  Rh  Rh205  1  0.80271008  0.60006492  0.39483315  1
  Rh  Rh206  1  0.00418299  0.40154693  0.20321162  1
  Rh  Rh207  1  0.19602294  0.60255416  -0.00613578  1
  Rh  Rh208  1  0.00443194  -0.00340254  0.60318636  1
  Rh  Rh209  1  0.20244008  0.80045798  0.19986703  1
  Rh  Rh210  1  0.59550003  0.40335180  -0.00335090  1
  Rh  Rh211  1  0.40496576  -0.00461013  0.80258010  1
  Rh  Rh212  1  0.60733551  0.39767073  0.20675953  1
  Rh  Rh213  1  0.58956402  0.60019664  0.39726022  1
  Rh  Rh214  1  0.80943373  0.59525759  0.20724352  1
  Rh  Rh215  1  0.79941119  0.20508422  0.60112495  1
  Rh  Rh216  1  0.58827241  0.18636037  0.78281138  1
  Rh  Rh217  1  0.40931496  0.61468689  0.80342435  1
  Rh  Rh218  1  0.40605619  0.20785140  0.60919913  1
  Rh  Rh219  1  -0.00379565  0.60471911  0.00660961  1
  Rh  Rh220  1  0.79995872  0.79970533  0.20526936  1
  Rh  Rh221  1  0.80783247  -0.00648067  0.60378340  1
  Rh  Rh222  1  0.39582112  0.00200191  -0.00104903  1
  Rh  Rh223  1  0.20604581  0.19663714  -0.00410577  1
  Rh  Rh224  1  0.19610747  0.80180538  0.59870974  1
  Rh  Rh225  1  0.60608699  0.79051137  0.01535782  1
  Rh  Rh226  1  0.60416222  0.20726393  0.00471921  1
  Rh  Rh227  1  0.79300181  -0.00220466  0.20401360  1
  Rh  Rh228  1  0.60011383  0.59701565  0.19309466  1
  Rh  Rh229  1  0.00445834  0.20305790  0.79565493  1
  Rh  Rh230  1  0.39956924  0.41584983  0.40432059  1
  Rh  Rh231  1  -0.00563981  -0.00196975  0.39543323  1
  Rh  Rh232  1  -0.00229638  0.79894640  0.39710892  1
  Rh  Rh233  1  0.00912695  0.00094437  0.19421757  1
  Rh  Rh234  1  0.60448330  0.00164618  0.00050298  1
  Rh  Rh235  1  0.00096475  0.19826622  0.59888172  1
  Rh  Rh236  1  0.61220347  0.39584088  0.59161815  1
  Rh  Rh237  1  0.19772296  -0.00229496  -0.00170553  1
  Rh  Rh238  1  0.60153417  0.80094999  0.79036616  1
  Rh  Rh239  1  0.18632648  0.60191259  0.80458743  1
  Rh  Rh240  1  0.39934754  0.19633982  0.19174208  1
  Rh  Rh241  1  0.40875496  0.79964152  0.39936131  1
  Rh  Rh242  1  0.20197318  -0.00652695  0.19844818  1
  Rh  Rh243  1  0.80812632  0.39561528  0.00064318  1
  Rh  Rh244  1  0.19557493  0.60241132  0.59585520  1
  Rh  Rh245  1  0.38508038  -0.01394455  0.59468474  1
  Rh  Rh246  1  0.80719137  0.19776700  0.80346319  1
  Rh  Rh247  1  0.20489346  0.78914776  0.80801962  1
  Rh  Rh248  1  -0.00420950  0.78808573  0.79352889  1
  Rh  Rh249  1  0.19235665  0.19090859  0.59177491  1
