# generated using pymatgen
data_ZrScNbPdRh
_symmetry_space_group_name_H-M   'P 1'
_cell_length_a   16.56019792
_cell_length_b   16.56175941
_cell_length_c   16.55811846
_cell_angle_alpha   90.01250498
_cell_angle_beta   90.03451420
_cell_angle_gamma   89.98028612
_symmetry_Int_Tables_number   1
_chemical_formula_structural   ZrScNbPdRh
_chemical_formula_sum   'Zr50 Sc50 Nb50 Pd50 Rh50'
_cell_volume   4541.32794274
_cell_formula_units_Z   50
loop_
 _symmetry_equiv_pos_site_id
 _symmetry_equiv_pos_as_xyz
  1  'x, y, z'
loop_
 _atom_site_type_symbol
 _atom_site_label
 _atom_site_symmetry_multiplicity
 _atom_site_fract_x
 _atom_site_fract_y
 _atom_site_fract_z
 _atom_site_occupancy
  Zr  Zr0  1  0.29444656  0.09332845  0.30326146  1
  Zr  Zr1  1  0.70244651  0.69727376  0.29752004  1
  Zr  Zr2  1  0.10777324  0.49823530  0.49581393  1
  Zr  Zr3  1  0.09435649  0.09508594  0.29722517  1
  Zr  Zr4  1  0.69839334  0.09826331  0.90405576  1
  Zr  Zr5  1  0.91342854  0.29582299  0.69923659  1
  Zr  Zr6  1  0.49071225  0.89849077  0.29699174  1
  Zr  Zr7  1  0.69922915  0.90679636  0.89992304  1
  Zr  Zr8  1  0.49727605  0.49883615  0.90694633  1
  Zr  Zr9  1  0.49873784  0.70732069  0.69420290  1
  Zr  Zr10  1  0.09329986  0.11035916  0.69716930  1
  Zr  Zr11  1  0.49980596  0.30657861  0.48429574  1
  Zr  Zr12  1  0.30102146  0.69455681  0.69604996  1
  Zr  Zr13  1  0.09195225  0.89911939  0.50055110  1
  Zr  Zr14  1  0.90132126  0.69762530  0.30239498  1
  Zr  Zr15  1  0.10571298  0.30073099  0.29584038  1
  Zr  Zr16  1  0.69619788  0.90279546  0.70113801  1
  Zr  Zr17  1  0.29490965  0.70231952  0.29237689  1
  Zr  Zr18  1  0.10081194  0.09957520  0.10563831  1
  Zr  Zr19  1  0.90262579  0.30461966  0.11153374  1
  Zr  Zr20  1  0.50534317  0.89466150  0.70085413  1
  Zr  Zr21  1  0.89778691  0.49155596  0.28860415  1
  Zr  Zr22  1  0.49943563  0.89958338  0.50343934  1
  Zr  Zr23  1  0.90209900  0.90821568  0.30616556  1
  Zr  Zr24  1  0.10288863  0.89782321  0.30287869  1
  Zr  Zr25  1  0.69764319  0.09882962  0.49087836  1
  Zr  Zr26  1  0.49162290  0.30172677  0.70976501  1
  Zr  Zr27  1  0.29897733  0.89629640  0.29922682  1
  Zr  Zr28  1  0.50168928  0.51234193  0.70536305  1
  Zr  Zr29  1  0.50156190  0.90679999  0.90104305  1
  Zr  Zr30  1  0.89034388  0.68923704  0.70139720  1
  Zr  Zr31  1  0.29456305  0.30205211  0.70442933  1
  Zr  Zr32  1  0.70739898  0.29053964  0.30969670  1
  Zr  Zr33  1  0.90491024  0.10354160  0.10502937  1
  Zr  Zr34  1  0.28664681  0.30084661  0.49539458  1
  Zr  Zr35  1  0.89911685  0.49873672  0.70040437  1
  Zr  Zr36  1  0.49939757  0.09608228  0.90771654  1
  Zr  Zr37  1  0.50232892  0.50536843  0.48666482  1
  Zr  Zr38  1  0.49752842  0.70145376  0.49631034  1
  Zr  Zr39  1  0.49725698  0.10724221  0.29766431  1
  Zr  Zr40  1  0.70294834  0.69873510  0.10050474  1
  Zr  Zr41  1  0.09385346  0.49308282  0.10244475  1
  Zr  Zr42  1  0.49340355  0.70059446  0.30264355  1
  Zr  Zr43  1  0.29155378  0.09862823  0.09926536  1
  Zr  Zr44  1  0.49531942  0.30354866  0.10821733  1
  Zr  Zr45  1  0.50367533  0.48952039  0.29569584  1
  Zr  Zr46  1  0.70102389  0.29561472  0.70408023  1
  Zr  Zr47  1  0.10392653  0.51200030  0.29669123  1
  Zr  Zr48  1  0.10030568  0.69792520  0.49480209  1
  Zr  Zr49  1  0.70704084  0.51007113  0.69745322  1
  Sc  Sc50  1  0.49916252  0.09601220  0.70606748  1
  Sc  Sc51  1  0.69907644  0.28923444  0.90664172  1
  Sc  Sc52  1  0.10795215  0.09490734  0.89642917  1
  Sc  Sc53  1  0.70113240  0.29929828  0.10068057  1
  Sc  Sc54  1  0.30408887  0.90818398  0.49984621  1
  Sc  Sc55  1  0.69072532  0.89921554  0.09226892  1
  Sc  Sc56  1  0.08755983  0.91032505  0.70158681  1
  Sc  Sc57  1  0.90243191  0.70518115  0.49523501  1
  Sc  Sc58  1  0.49964274  0.09155008  0.49381727  1
  Sc  Sc59  1  0.50208087  0.29594471  0.90508895  1
  Sc  Sc60  1  0.90777435  0.30125275  0.90693785  1
  Sc  Sc61  1  0.29812322  0.50274167  0.29915980  1
  Sc  Sc62  1  0.30853806  0.29784270  0.29991359  1
  Sc  Sc63  1  0.10075136  0.89477381  0.09203524  1
  Sc  Sc64  1  0.29561082  0.69890632  0.90562930  1
  Sc  Sc65  1  0.10593608  0.10184906  0.50742758  1
  Sc  Sc66  1  0.88877179  0.30397917  0.49738524  1
  Sc  Sc67  1  0.89345841  0.08957063  0.90161383  1
  Sc  Sc68  1  0.70749401  0.10555379  0.09742702  1
  Sc  Sc69  1  0.09706194  0.70386941  0.91028964  1
  Sc  Sc70  1  0.90861147  0.91184548  0.09374301  1
  Sc  Sc71  1  0.10685686  0.69750730  0.10130542  1
  Sc  Sc72  1  0.10856982  0.49362900  0.70070911  1
  Sc  Sc73  1  0.50690710  0.70464052  0.89139640  1
  Sc  Sc74  1  0.68948575  0.69416216  0.70887009  1
  Sc  Sc75  1  0.70357445  0.69200566  0.49507310  1
  Sc  Sc76  1  0.70265426  0.09210215  0.70850199  1
  Sc  Sc77  1  0.29415615  0.90001622  0.10522772  1
  Sc  Sc78  1  0.70012858  0.49432187  0.48749165  1
  Sc  Sc79  1  0.09645433  0.50207522  0.90249769  1
  Sc  Sc80  1  0.89185781  0.49684449  0.50137412  1
  Sc  Sc81  1  0.90287548  0.91273314  0.70312299  1
  Sc  Sc82  1  0.30217005  0.50098032  0.89406454  1
  Sc  Sc83  1  0.69713968  0.91079039  0.49977490  1
  Sc  Sc84  1  0.30674761  0.29462576  0.88939017  1
  Sc  Sc85  1  0.90428702  0.09577480  0.50036371  1
  Sc  Sc86  1  0.31174719  0.90739598  0.69981585  1
  Sc  Sc87  1  0.90622833  0.69072440  0.90232685  1
  Sc  Sc88  1  0.50655656  0.71673365  0.10406169  1
  Sc  Sc89  1  0.31165329  0.49896617  0.09011724  1
  Sc  Sc90  1  0.70763248  0.50654665  0.90740759  1
  Sc  Sc91  1  0.29472553  0.70385748  0.09804406  1
  Sc  Sc92  1  0.89028575  0.09833195  0.29825474  1
  Sc  Sc93  1  0.29336402  0.50717214  0.49741517  1
  Sc  Sc94  1  0.90525695  0.90107682  0.50088823  1
  Sc  Sc95  1  0.09912734  0.69473792  0.70338406  1
  Sc  Sc96  1  0.90193690  0.50060278  0.90744036  1
  Sc  Sc97  1  0.09256469  0.28421509  0.09687355  1
  Sc  Sc98  1  0.30489478  0.69834147  0.49620801  1
  Sc  Sc99  1  0.89112112  0.49771012  0.09847261  1
  Nb  Nb100  1  0.30435172  0.50018568  0.69861291  1
  Nb  Nb101  1  0.50452970  0.49476302  0.10060614  1
  Nb  Nb102  1  0.90188685  0.10125684  0.69912616  1
  Nb  Nb103  1  0.69871605  0.29727962  0.50226201  1
  Nb  Nb104  1  0.29801073  0.10684205  0.70041613  1
  Nb  Nb105  1  0.09737641  0.29531848  0.69796266  1
  Nb  Nb106  1  0.70224437  0.70282832  0.90584917  1
  Nb  Nb107  1  0.89747598  0.70685334  0.10037371  1
  Nb  Nb108  1  0.09542172  0.89402015  0.89580807  1
  Nb  Nb109  1  0.29716365  0.90869663  0.89949639  1
  Nb  Nb110  1  0.69990860  0.09116356  0.30172706  1
  Nb  Nb111  1  0.09998038  0.30285994  0.89453375  1
  Nb  Nb112  1  0.69806221  0.50191844  0.10782445  1
  Nb  Nb113  1  0.70194203  0.90859740  0.30257634  1
  Nb  Nb114  1  0.70202397  0.50196609  0.29049863  1
  Nb  Nb115  1  0.90838450  0.89496299  0.89979663  1
  Nb  Nb116  1  0.49875334  0.09816725  0.09947125  1
  Nb  Nb117  1  0.90096608  0.29756180  0.30199498  1
  Nb  Nb118  1  0.30617919  0.08819752  0.89498418  1
  Nb  Nb119  1  0.29452884  0.29672212  0.09873167  1
  Nb  Nb120  1  0.49858034  0.90720430  0.09489690  1
  Nb  Nb121  1  0.10050860  0.69992109  0.29838235  1
  Nb  Nb122  1  0.09656126  0.29981652  0.50364288  1
  Nb  Nb123  1  0.49815112  0.30204142  0.29728653  1
  Nb  Nb124  1  0.29971083  0.10374457  0.51113735  1
  Nb  Nb125  1  0.79910256  0.80070315  0.60770835  1
  Nb  Nb126  1  0.59848068  0.20488283  0.59713398  1
  Nb  Nb127  1  0.59912773  0.59725916  0.00990738  1
  Nb  Nb128  1  0.80433157  0.80529823  0.19800333  1
  Nb  Nb129  1  0.79939895  0.39799363  0.79934840  1
  Nb  Nb130  1  0.79644590  0.19707801  0.60143613  1
  Nb  Nb131  1  0.80648331  0.80161529  -0.00269264  1
  Nb  Nb132  1  0.59819780  0.00418721  0.20124628  1
  Nb  Nb133  1  0.00297625  0.39499635  0.39721996  1
  Nb  Nb134  1  0.60595805  0.40471212  0.79858445  1
  Nb  Nb135  1  0.39496863  0.19251364  0.00542609  1
  Nb  Nb136  1  0.00055751  0.20739571  0.40076203  1
  Nb  Nb137  1  0.80245701  0.80097843  0.80491122  1
  Nb  Nb138  1  0.39861259  0.20440013  0.59832459  1
  Nb  Nb139  1  0.40020881  0.40210328  0.60058056  1
  Nb  Nb140  1  0.40868868  0.59731683  0.19396746  1
  Nb  Nb141  1  0.59661786  0.39714458  0.60174772  1
  Nb  Nb142  1  0.40150126  0.81326522  -0.00291397  1
  Nb  Nb143  1  0.19815122  0.38934805  -0.00092628  1
  Nb  Nb144  1  0.19859168  0.80228286  0.60535552  1
  Nb  Nb145  1  0.19869381  0.80840054  0.80014454  1
  Nb  Nb146  1  -0.00303612  0.79645575  0.20267404  1
  Nb  Nb147  1  0.60099321  0.80366183  0.39418418  1
  Nb  Nb148  1  0.00073017  0.59570380  0.59811255  1
  Nb  Nb149  1  0.20381665  0.39646041  0.18992311  1
  Pd  Pd150  1  0.59564696  0.19918152  0.80007462  1
  Pd  Pd151  1  0.19819087  0.00200316  0.40922652  1
  Pd  Pd152  1  0.61020145  0.38947239  0.20607412  1
  Pd  Pd153  1  0.39972592  0.00126754  0.19696423  1
  Pd  Pd154  1  0.39071317  0.79939031  0.80756081  1
  Pd  Pd155  1  0.19963715  0.19741669  0.80442932  1
  Pd  Pd156  1  0.60415396  0.59576960  0.58998753  1
  Pd  Pd157  1  -0.00625496  0.60586997  0.19111120  1
  Pd  Pd158  1  0.19975757  0.58805647  0.00245579  1
  Pd  Pd159  1  0.79315793  0.80917542  0.40526322  1
  Pd  Pd160  1  0.20470204  0.79853582  0.40899157  1
  Pd  Pd161  1  0.00770376  0.00551533  -0.00607747  1
  Pd  Pd162  1  0.60682304  0.19757661  0.19731434  1
  Pd  Pd163  1  -0.00043122  0.19153300  -0.00841207  1
  Pd  Pd164  1  0.61263734  0.79574266  0.58825704  1
  Pd  Pd165  1  -0.00111171  0.79466625  0.79474024  1
  Pd  Pd166  1  0.60915334  0.40283717  -0.00502728  1
  Pd  Pd167  1  0.60713860  0.81219362  0.20683088  1
  Pd  Pd168  1  -0.00099842  0.60167852  0.00945137  1
  Pd  Pd169  1  0.59696898  0.19862952  0.39946452  1
  Pd  Pd170  1  0.00193355  0.40483915  0.59234702  1
  Pd  Pd171  1  0.80943061  0.20309890  0.00163283  1
  Pd  Pd172  1  0.19691118  -0.00616066  0.60700594  1
  Pd  Pd173  1  0.00573656  0.59437434  0.79710937  1
  Pd  Pd174  1  0.39912526  0.60758280  0.80543575  1
  Pd  Pd175  1  0.79387476  0.39399298  0.60489683  1
  Pd  Pd176  1  0.19432552  0.19458944  0.39844194  1
  Pd  Pd177  1  0.79666461  0.39627746  -0.00308664  1
  Pd  Pd178  1  -0.00307060  0.79164684  0.60929042  1
  Pd  Pd179  1  0.39588418  0.19429221  0.40585720  1
  Pd  Pd180  1  0.19675116  0.60560336  0.80495100  1
  Pd  Pd181  1  0.20484968  0.20249848  -0.01416796  1
  Pd  Pd182  1  -0.00314658  0.19215055  0.81290873  1
  Pd  Pd183  1  0.20383789  0.40075125  0.60354188  1
  Pd  Pd184  1  0.19866868  0.40221632  0.80587444  1
  Pd  Pd185  1  0.41278109  0.61828609  0.00718694  1
  Pd  Pd186  1  0.39266330  0.38789905  -0.00411139  1
  Pd  Pd187  1  0.80230038  0.00069631  0.59781486  1
  Pd  Pd188  1  -0.00649629  0.58964119  0.40587234  1
  Pd  Pd189  1  0.40020848  0.59435180  0.59405238  1
  Pd  Pd190  1  0.38775686  0.40675390  0.40132770  1
  Pd  Pd191  1  0.79230677  -0.00597939  0.18789935  1
  Pd  Pd192  1  0.19477207  -0.00509590  0.00076070  1
  Pd  Pd193  1  -0.00208046  0.40548646  0.80404183  1
  Pd  Pd194  1  0.40557739  0.00767588  0.60438286  1
  Pd  Pd195  1  0.80446832  0.59230329  0.39822978  1
  Pd  Pd196  1  0.80944753  0.20244494  0.79986400  1
  Pd  Pd197  1  0.19770846  -0.00330361  0.78856617  1
  Pd  Pd198  1  0.39191295  0.19811627  0.19664888  1
  Pd  Pd199  1  0.59238630  0.60161374  0.19816172  1
  Rh  Rh200  1  0.40048491  0.80492539  0.40588152  1
  Rh  Rh201  1  -0.00250416  0.79735318  0.00626687  1
  Rh  Rh202  1  0.80515073  0.60169924  0.19686370  1
  Rh  Rh203  1  0.79131947  0.39345876  0.20298695  1
  Rh  Rh204  1  0.79751859  0.60380394  0.00478494  1
  Rh  Rh205  1  0.39906551  0.18736622  0.80459639  1
  Rh  Rh206  1  0.79994713  0.40284117  0.39153665  1
  Rh  Rh207  1  0.20244325  0.20479073  0.60500012  1
  Rh  Rh208  1  0.21303637  0.59091885  0.19005851  1
  Rh  Rh209  1  0.39621129  0.59625650  0.38902710  1
  Rh  Rh210  1  0.00757516  0.39602475  0.20369376  1
  Rh  Rh211  1  0.39111248  0.79996619  0.59729679  1
  Rh  Rh212  1  0.80098833  -0.00628592  0.00126415  1
  Rh  Rh213  1  0.20668583  0.80720671  -0.01086603  1
  Rh  Rh214  1  0.59044803  -0.00697246  0.38852567  1
  Rh  Rh215  1  0.18985057  0.80170736  0.19901659  1
  Rh  Rh216  1  0.40316097  0.00175319  0.79509414  1
  Rh  Rh217  1  0.00145186  0.79950546  0.39140742  1
  Rh  Rh218  1  0.00746140  0.39510472  0.00077947  1
  Rh  Rh219  1  0.39067824  -0.00001045  0.00663949  1
  Rh  Rh220  1  0.20479823  0.20276425  0.20717049  1
  Rh  Rh221  1  -0.00626059  0.19654796  0.21042365  1
  Rh  Rh222  1  0.60336208  0.59389217  0.81583370  1
  Rh  Rh223  1  0.60754184  0.80212069  0.80446235  1
  Rh  Rh224  1  0.40484258  0.41060809  0.79905466  1
  Rh  Rh225  1  0.19610253  0.40103235  0.38976314  1
  Rh  Rh226  1  0.39542352  0.00436116  0.40078489  1
  Rh  Rh227  1  0.59015600  0.19904028  0.00909778  1
  Rh  Rh228  1  0.80539638  0.00138527  0.40673809  1
  Rh  Rh229  1  0.59641936  0.00269550  0.79939214  1
  Rh  Rh230  1  0.59698965  0.79622905  -0.00725998  1
  Rh  Rh231  1  0.80444591  0.60771672  0.58856837  1
  Rh  Rh232  1  0.00495213  -0.00934346  0.19977527  1
  Rh  Rh233  1  0.80543141  -0.00451654  0.80362194  1
  Rh  Rh234  1  0.00168515  0.00704386  0.59876426  1
  Rh  Rh235  1  0.79921233  0.19942734  0.20232967  1
  Rh  Rh236  1  0.59666687  0.00909339  0.60382498  1
  Rh  Rh237  1  0.19552459  0.60567880  0.60197631  1
  Rh  Rh238  1  0.39270457  0.40451429  0.19820743  1
  Rh  Rh239  1  0.19432704  -0.00547857  0.19823758  1
  Rh  Rh240  1  0.60924600  0.39819851  0.39237792  1
  Rh  Rh241  1  -0.00812668  0.20159837  0.58955830  1
  Rh  Rh242  1  0.00271968  0.00942786  0.40269388  1
  Rh  Rh243  1  0.39422582  0.79634857  0.18699862  1
  Rh  Rh244  1  0.60654487  0.01047290  0.01041289  1
  Rh  Rh245  1  0.79915517  0.59966664  0.81161388  1
  Rh  Rh246  1  0.60224309  0.60380615  0.39214508  1
  Rh  Rh247  1  0.20480773  0.60922271  0.39671590  1
  Rh  Rh248  1  0.80739459  0.19237982  0.40648617  1
  Rh  Rh249  1  -0.00149143  0.00740227  0.80480447  1
