# generated using pymatgen
data_ZrScNbPdRh
_symmetry_space_group_name_H-M   'P 1'
_cell_length_a   16.55512195
_cell_length_b   16.55725091
_cell_length_c   16.55742592
_cell_angle_alpha   90.01056498
_cell_angle_beta   90.00655000
_cell_angle_gamma   90.02327856
_symmetry_Int_Tables_number   1
_chemical_formula_structural   ZrScNbPdRh
_chemical_formula_sum   'Zr50 Sc50 Nb50 Pd50 Rh50'
_cell_volume   4538.51096545
_cell_formula_units_Z   50
loop_
 _symmetry_equiv_pos_site_id
 _symmetry_equiv_pos_as_xyz
  1  'x, y, z'
loop_
 _atom_site_type_symbol
 _atom_site_label
 _atom_site_symmetry_multiplicity
 _atom_site_fract_x
 _atom_site_fract_y
 _atom_site_fract_z
 _atom_site_occupancy
  Zr  Zr0  1  0.29563100  0.50869299  0.69546987  1
  Zr  Zr1  1  0.69160583  0.30549314  0.10279261  1
  Zr  Zr2  1  0.10811476  0.49972413  0.49880572  1
  Zr  Zr3  1  0.29556724  0.10621066  0.50421595  1
  Zr  Zr4  1  0.88614526  0.90220508  0.89880750  1
  Zr  Zr5  1  0.30339616  0.70753851  0.69605176  1
  Zr  Zr6  1  0.10720358  0.90400000  0.91154069  1
  Zr  Zr7  1  0.29907973  0.29186625  0.90050622  1
  Zr  Zr8  1  0.50220932  0.69315962  0.29942092  1
  Zr  Zr9  1  0.71020716  0.09289250  0.89825294  1
  Zr  Zr10  1  0.70741564  0.89123419  0.50271584  1
  Zr  Zr11  1  0.29835689  0.10643160  0.29490150  1
  Zr  Zr12  1  0.69965948  0.29890778  0.70386920  1
  Zr  Zr13  1  0.09650733  0.89704162  0.50322080  1
  Zr  Zr14  1  0.70158496  0.70068901  0.29784722  1
  Zr  Zr15  1  0.09465344  0.09866656  0.50761381  1
  Zr  Zr16  1  0.49898293  0.90211263  0.89449787  1
  Zr  Zr17  1  0.49572031  0.10435727  0.10490470  1
  Zr  Zr18  1  0.90079952  0.69862085  0.29680756  1
  Zr  Zr19  1  0.09529253  0.69865142  0.89883415  1
  Zr  Zr20  1  0.90498850  0.28702184  0.49236738  1
  Zr  Zr21  1  0.50321050  0.49258003  0.70459689  1
  Zr  Zr22  1  0.48790291  0.30701592  0.50787797  1
  Zr  Zr23  1  0.89798580  0.09547279  0.10498098  1
  Zr  Zr24  1  0.08830389  0.70514236  0.09484692  1
  Zr  Zr25  1  0.09836851  0.90895075  0.68974720  1
  Zr  Zr26  1  0.50252076  0.70208186  0.10289525  1
  Zr  Zr27  1  0.49838089  0.70221945  0.49757216  1
  Zr  Zr28  1  0.70095149  0.50498982  0.70384426  1
  Zr  Zr29  1  0.69694542  0.09471754  0.10383445  1
  Zr  Zr30  1  0.49489229  0.50020050  0.50195913  1
  Zr  Zr31  1  0.90266556  0.10020540  0.90531198  1
  Zr  Zr32  1  0.70306372  0.09594669  0.70391115  1
  Zr  Zr33  1  0.29866282  0.70549026  0.89130256  1
  Zr  Zr34  1  0.70123192  0.29921469  0.29497845  1
  Zr  Zr35  1  0.70113596  0.09708187  0.29896940  1
  Zr  Zr36  1  0.29978564  0.50050739  0.30765684  1
  Zr  Zr37  1  0.90490232  0.51200588  0.89754295  1
  Zr  Zr38  1  0.29829855  0.09539007  0.90668671  1
  Zr  Zr39  1  0.10226904  0.30115471  0.69697549  1
  Zr  Zr40  1  0.30480697  0.88994447  0.50162161  1
  Zr  Zr41  1  0.90790169  0.89789216  0.50199719  1
  Zr  Zr42  1  0.29896098  0.89940872  0.69781410  1
  Zr  Zr43  1  0.89856609  0.30285191  0.10737593  1
  Zr  Zr44  1  0.49716871  0.30082461  0.09497648  1
  Zr  Zr45  1  0.90252241  0.49791340  0.30068170  1
  Zr  Zr46  1  0.49655996  0.29643800  0.88655591  1
  Zr  Zr47  1  0.69951824  0.09140768  0.49446659  1
  Zr  Zr48  1  0.09011543  0.89533921  0.29680245  1
  Zr  Zr49  1  0.09855874  0.69725993  0.30158103  1
  Sc  Sc50  1  0.90495597  0.51304774  0.50375918  1
  Sc  Sc51  1  0.90275448  0.29021324  0.90003498  1
  Sc  Sc52  1  0.29725873  0.90329572  0.08260772  1
  Sc  Sc53  1  0.69891226  0.89297169  0.70763519  1
  Sc  Sc54  1  0.09553212  0.10488489  0.29553369  1
  Sc  Sc55  1  0.30688727  0.50287518  0.10461209  1
  Sc  Sc56  1  0.90176350  0.90782004  0.29863918  1
  Sc  Sc57  1  0.50939708  0.89464601  0.50110485  1
  Sc  Sc58  1  0.30295693  0.90076154  0.89429179  1
  Sc  Sc59  1  0.89539027  0.70221485  0.90404902  1
  Sc  Sc60  1  0.49860962  0.70211883  0.89912574  1
  Sc  Sc61  1  0.69761113  0.30024602  0.50098034  1
  Sc  Sc62  1  0.69912047  0.89428830  0.89980101  1
  Sc  Sc63  1  0.50569089  0.88803920  0.30493673  1
  Sc  Sc64  1  0.09095386  0.50471214  0.69804870  1
  Sc  Sc65  1  0.30387914  0.69475014  0.50559827  1
  Sc  Sc66  1  0.70342252  0.89577772  0.10086364  1
  Sc  Sc67  1  0.09509894  0.30296890  0.30491459  1
  Sc  Sc68  1  0.70411336  0.70234789  0.89591617  1
  Sc  Sc69  1  0.10100822  0.70163302  0.69626492  1
  Sc  Sc70  1  0.89599020  0.69513441  0.69844588  1
  Sc  Sc71  1  0.70435051  0.29121353  0.89802424  1
  Sc  Sc72  1  0.70216422  0.90124397  0.29714616  1
  Sc  Sc73  1  0.70102748  0.50922514  0.29524725  1
  Sc  Sc74  1  0.29362438  0.30794311  0.50603256  1
  Sc  Sc75  1  0.69378048  0.51408173  0.89929143  1
  Sc  Sc76  1  0.50598646  0.50242885  0.09931497  1
  Sc  Sc77  1  0.30331375  0.49717435  0.49957106  1
  Sc  Sc78  1  0.49598660  0.30417130  0.28757600  1
  Sc  Sc79  1  0.50350033  0.89720006  0.70470306  1
  Sc  Sc80  1  0.30791188  0.69741184  0.08703609  1
  Sc  Sc81  1  0.91089169  0.29757058  0.70386314  1
  Sc  Sc82  1  0.10148555  0.49771369  0.30454953  1
  Sc  Sc83  1  0.50025514  0.70115155  0.70137354  1
  Sc  Sc84  1  0.90711416  0.09456868  0.71268092  1
  Sc  Sc85  1  0.90281971  0.89932466  0.10354495  1
  Sc  Sc86  1  0.10202681  0.29668946  0.50363579  1
  Sc  Sc87  1  0.49954798  0.09333524  0.71006154  1
  Sc  Sc88  1  0.10129053  0.29438610  0.89441540  1
  Sc  Sc89  1  0.30904752  0.69301383  0.30619374  1
  Sc  Sc90  1  0.29866647  0.51072158  0.89250746  1
  Sc  Sc91  1  0.10103282  0.51063834  0.89282536  1
  Sc  Sc92  1  0.08979001  0.69994955  0.50218384  1
  Sc  Sc93  1  0.09466893  0.09690057  0.09486464  1
  Sc  Sc94  1  0.29177621  0.30399332  0.29314416  1
  Sc  Sc95  1  0.50773058  0.89718756  0.09193105  1
  Sc  Sc96  1  0.30132140  0.30025867  0.69739285  1
  Sc  Sc97  1  0.89948602  0.51241580  0.10411268  1
  Sc  Sc98  1  0.10254854  0.29633445  0.11199663  1
  Sc  Sc99  1  0.29105473  0.09435978  0.70349255  1
  Nb  Nb100  1  0.30138303  0.29285480  0.09515598  1
  Nb  Nb101  1  0.89670081  0.29759703  0.30369439  1
  Nb  Nb102  1  0.10012784  0.90063303  0.10784096  1
  Nb  Nb103  1  0.71290095  0.69385355  0.50192085  1
  Nb  Nb104  1  0.49795233  0.09661743  0.90222495  1
  Nb  Nb105  1  0.49989454  0.49644897  0.89764114  1
  Nb  Nb106  1  0.30049217  0.89906763  0.30050765  1
  Nb  Nb107  1  0.90098358  0.49829061  0.70449916  1
  Nb  Nb108  1  0.30018757  0.10996063  0.10115783  1
  Nb  Nb109  1  0.70328711  0.50224516  0.09210778  1
  Nb  Nb110  1  0.89150057  0.10886894  0.31245683  1
  Nb  Nb111  1  0.70682579  0.69241034  0.10212609  1
  Nb  Nb112  1  0.89093589  0.70743606  0.50174166  1
  Nb  Nb113  1  0.90109431  0.89653817  0.69733718  1
  Nb  Nb114  1  0.49918283  0.10173744  0.30034989  1
  Nb  Nb115  1  0.10002583  0.09658371  0.89244445  1
  Nb  Nb116  1  0.70457332  0.50011369  0.49759291  1
  Nb  Nb117  1  0.89414973  0.09725540  0.49226359  1
  Nb  Nb118  1  0.50407833  0.30110642  0.69831920  1
  Nb  Nb119  1  0.70053445  0.69777017  0.70275286  1
  Nb  Nb120  1  0.50008726  0.09940847  0.49943607  1
  Nb  Nb121  1  0.10283947  0.50193885  0.09423419  1
  Nb  Nb122  1  0.48874158  0.50410332  0.30555388  1
  Nb  Nb123  1  0.89227782  0.70029422  0.09687141  1
  Nb  Nb124  1  0.10242935  0.09579610  0.70228835  1
  Nb  Nb125  1  0.80533033  0.40601797  0.80085649  1
  Nb  Nb126  1  0.80206237  0.40608930  -0.00181461  1
  Nb  Nb127  1  0.80593776  -0.00044945  0.59992267  1
  Nb  Nb128  1  0.20452860  0.79987435  0.19871272  1
  Nb  Nb129  1  0.39749813  0.39800186  -0.00692818  1
  Nb  Nb130  1  0.39656661  -0.00257066  0.20239948  1
  Nb  Nb131  1  0.59149189  0.20230478  0.40176724  1
  Nb  Nb132  1  0.80448530  0.39964279  0.60062097  1
  Nb  Nb133  1  0.00343720  0.40441351  0.00412501  1
  Nb  Nb134  1  0.59855179  0.40387503  0.39812655  1
  Nb  Nb135  1  0.40234739  0.00138146  0.59314160  1
  Nb  Nb136  1  0.20277871  -0.00497303  0.19837558  1
  Nb  Nb137  1  0.79981149  0.19470650  0.59850084  1
  Nb  Nb138  1  0.40057179  0.00376680  0.39880523  1
  Nb  Nb139  1  -0.00269219  0.80805072  0.79867758  1
  Nb  Nb140  1  0.19806554  0.60485690  0.19637622  1
  Nb  Nb141  1  0.20229352  0.39937449  0.00287902  1
  Nb  Nb142  1  0.39447762  0.80521154  0.19841211  1
  Nb  Nb143  1  0.40337916  0.19837327  0.40060232  1
  Nb  Nb144  1  0.20276486  -0.00485402  0.39657713  1
  Nb  Nb145  1  0.60985142  0.60142432  0.59610867  1
  Nb  Nb146  1  0.19981727  0.80157492  0.39543993  1
  Nb  Nb147  1  0.79930618  0.40089842  0.40261663  1
  Nb  Nb148  1  0.59526511  0.19904688  0.60042168  1
  Nb  Nb149  1  0.59507393  0.19365307  -0.00421014  1
  Pd  Pd150  1  0.61195615  0.40077210  0.81063928  1
  Pd  Pd151  1  0.19658153  0.60568527  0.59711551  1
  Pd  Pd152  1  0.60095537  0.39448622  -0.01188589  1
  Pd  Pd153  1  0.60720710  0.79274140  -0.00221437  1
  Pd  Pd154  1  0.40591739  0.59267278  -0.00417080  1
  Pd  Pd155  1  0.40584804  0.60275222  0.79645757  1
  Pd  Pd156  1  0.20370864  0.59780374  0.00167563  1
  Pd  Pd157  1  0.20001492  0.40496480  0.80418777  1
  Pd  Pd158  1  0.00441499  0.00713491  0.39585074  1
  Pd  Pd159  1  0.00225102  -0.00704420  0.80544887  1
  Pd  Pd160  1  0.79903546  0.40958491  0.19896969  1
  Pd  Pd161  1  -0.00385502  0.40016735  0.40795838  1
  Pd  Pd162  1  0.39725323  0.40138680  0.19361810  1
  Pd  Pd163  1  0.59945173  0.19092005  0.80076623  1
  Pd  Pd164  1  0.79297887  0.20537115  0.00951336  1
  Pd  Pd165  1  0.39479263  0.19154870  0.79154100  1
  Pd  Pd166  1  0.60323746  0.59630281  0.40504211  1
  Pd  Pd167  1  -0.00037938  0.39818605  0.81113827  1
  Pd  Pd168  1  0.19978560  0.19662166  0.79532141  1
  Pd  Pd169  1  0.59588803  -0.00251519  0.39436952  1
  Pd  Pd170  1  0.18932091  0.80626768  0.79530900  1
  Pd  Pd171  1  0.00324425  0.40321277  0.19634498  1
  Pd  Pd172  1  0.80346209  0.80346954  0.19909946  1
  Pd  Pd173  1  0.60941690  0.79499970  0.40086174  1
  Pd  Pd174  1  -0.00897671  0.80787842  -0.00523220  1
  Pd  Pd175  1  0.60093199  0.59453207  0.19750426  1
  Pd  Pd176  1  -0.00442361  0.19795742  0.20597811  1
  Pd  Pd177  1  -0.00281133  -0.00530939  0.00073816  1
  Pd  Pd178  1  0.20244011  0.79523759  0.00360244  1
  Pd  Pd179  1  0.59870558  0.60862544  -0.00334167  1
  Pd  Pd180  1  0.79894511  0.19695943  0.19706299  1
  Pd  Pd181  1  0.60348762  0.00261215  -0.00378418  1
  Pd  Pd182  1  0.59935830  0.00043185  0.60672223  1
  Pd  Pd183  1  0.80595158  0.80415212  0.39154906  1
  Pd  Pd184  1  0.00712766  0.20743912  0.00183913  1
  Pd  Pd185  1  0.40268489  0.19298012  0.60643884  1
  Pd  Pd186  1  0.00535010  0.59791541  0.19643244  1
  Pd  Pd187  1  -0.00533460  0.19187314  0.60722853  1
  Pd  Pd188  1  0.18794358  0.20045666  0.00374470  1
  Pd  Pd189  1  -0.00418119  0.40213456  0.59169023  1
  Pd  Pd190  1  0.60423012  0.79071071  0.60460279  1
  Pd  Pd191  1  0.59663817  0.41448903  0.20704026  1
  Pd  Pd192  1  0.20072379  0.40657333  0.19506747  1
  Pd  Pd193  1  0.38958739  0.40180937  0.79936236  1
  Pd  Pd194  1  0.59216031  -0.00971426  0.20400042  1
  Pd  Pd195  1  -0.00350688  0.60377090  0.40544314  1
  Pd  Pd196  1  0.19984100  0.20212190  0.40008234  1
  Pd  Pd197  1  0.80234759  0.59537153  0.60328954  1
  Pd  Pd198  1  0.40159724  -0.00134212  0.00565564  1
  Pd  Pd199  1  0.60701194  0.40137077  0.59449324  1
  Rh  Rh200  1  0.79794426  0.60036073  -0.00074442  1
  Rh  Rh201  1  0.19837949  0.00836492  0.00588772  1
  Rh  Rh202  1  0.20225537  0.60515457  0.39824365  1
  Rh  Rh203  1  0.59432677  0.60553694  0.79660550  1
  Rh  Rh204  1  0.40001102  0.79746091  0.39666064  1
  Rh  Rh205  1  0.80408133  0.79578034  0.79491825  1
  Rh  Rh206  1  -0.00111206  0.00828354  0.20318949  1
  Rh  Rh207  1  0.40600126  0.20184525  -0.00557374  1
  Rh  Rh208  1  -0.01014755  0.00909858  0.60160207  1
  Rh  Rh209  1  0.80269067  0.60131120  0.80169584  1
  Rh  Rh210  1  0.80550864  0.59799303  0.39573970  1
  Rh  Rh211  1  -0.00371577  0.60410171  0.60108947  1
  Rh  Rh212  1  -0.00338826  0.79421874  0.40048966  1
  Rh  Rh213  1  0.59915227  0.79819419  0.19763807  1
  Rh  Rh214  1  -0.00537214  0.79707706  0.19692011  1
  Rh  Rh215  1  0.19569454  0.79505091  0.59178992  1
  Rh  Rh216  1  0.39733328  0.60096906  0.40795583  1
  Rh  Rh217  1  0.40886596  0.59734040  0.60424332  1
  Rh  Rh218  1  0.80389988  0.00160682  0.20388904  1
  Rh  Rh219  1  0.39621637  0.00097052  0.79449511  1
  Rh  Rh220  1  0.60048503  0.79513721  0.80196121  1
  Rh  Rh221  1  0.80033711  0.80262594  0.60727560  1
  Rh  Rh222  1  0.19704705  0.60586948  0.79410468  1
  Rh  Rh223  1  -0.00298314  0.59876409  0.00293932  1
  Rh  Rh224  1  0.40114810  0.39083526  0.39163638  1
  Rh  Rh225  1  0.79815682  -0.00689845  0.79307247  1
  Rh  Rh226  1  0.19626779  0.19599476  0.19547840  1
  Rh  Rh227  1  0.79967086  0.59912645  0.19995200  1
  Rh  Rh228  1  0.19922081  0.39674936  0.40237730  1
  Rh  Rh229  1  0.80245375  -0.00990419  0.40219057  1
  Rh  Rh230  1  0.19895604  -0.00327302  0.80469795  1
  Rh  Rh231  1  0.20659741  -0.00024716  0.59328509  1
  Rh  Rh232  1  -0.00076871  0.61344257  0.79331276  1
  Rh  Rh233  1  0.39286969  0.40552125  0.61228498  1
  Rh  Rh234  1  -0.00511787  0.79094270  0.60754454  1
  Rh  Rh235  1  0.39747951  0.20309105  0.20377958  1
  Rh  Rh236  1  0.39693801  0.60585896  0.19917017  1
  Rh  Rh237  1  0.40312996  0.80289743  0.00108801  1
  Rh  Rh238  1  0.79630318  0.79669591  0.00675238  1
  Rh  Rh239  1  0.60274868  -0.00250512  0.80627159  1
  Rh  Rh240  1  0.40943784  0.80650792  0.60331137  1
  Rh  Rh241  1  0.00776264  0.19486234  0.79956379  1
  Rh  Rh242  1  0.80002247  -0.00462333  0.00639750  1
  Rh  Rh243  1  0.40288629  0.80126378  0.80007581  1
  Rh  Rh244  1  0.19759792  0.40393750  0.60372662  1
  Rh  Rh245  1  0.60104893  0.19787588  0.19904261  1
  Rh  Rh246  1  0.19545519  0.20037544  0.60770639  1
  Rh  Rh247  1  0.78813222  0.20738468  0.40370175  1
  Rh  Rh248  1  0.00578657  0.19593382  0.39605746  1
  Rh  Rh249  1  0.81101198  0.20536516  0.79262251  1
