# generated using pymatgen
data_ZrScNbPdRh
_symmetry_space_group_name_H-M   'P 1'
_cell_length_a   16.55718994
_cell_length_b   16.56095465
_cell_length_c   16.55462917
_cell_angle_alpha   89.96928855
_cell_angle_beta   89.98199837
_cell_angle_gamma   89.99162712
_symmetry_Int_Tables_number   1
_chemical_formula_structural   ZrScNbPdRh
_chemical_formula_sum   'Zr50 Sc50 Nb50 Pd50 Rh50'
_cell_volume   4539.32593570
_cell_formula_units_Z   50
loop_
 _symmetry_equiv_pos_site_id
 _symmetry_equiv_pos_as_xyz
  1  'x, y, z'
loop_
 _atom_site_type_symbol
 _atom_site_label
 _atom_site_symmetry_multiplicity
 _atom_site_fract_x
 _atom_site_fract_y
 _atom_site_fract_z
 _atom_site_occupancy
  Zr  Zr0  1  0.09799040  0.69853195  0.08998989  1
  Zr  Zr1  1  0.69336003  0.30132172  0.29944861  1
  Zr  Zr2  1  0.10694254  0.10201290  0.89843139  1
  Zr  Zr3  1  0.10127803  0.90398584  0.49896239  1
  Zr  Zr4  1  0.30265781  0.50694561  0.70120364  1
  Zr  Zr5  1  0.49622673  0.08877353  0.09795926  1
  Zr  Zr6  1  0.69698494  0.89646787  0.69777882  1
  Zr  Zr7  1  0.30186166  0.88772665  0.69810919  1
  Zr  Zr8  1  0.49869107  0.30640251  0.90139350  1
  Zr  Zr9  1  0.50729043  0.10167769  0.30476612  1
  Zr  Zr10  1  0.69844712  0.89912957  0.90245486  1
  Zr  Zr11  1  0.69755337  0.30704997  0.89187435  1
  Zr  Zr12  1  0.70137067  0.89948894  0.09046293  1
  Zr  Zr13  1  0.09463628  0.11069352  0.10483415  1
  Zr  Zr14  1  0.90187193  0.50095908  0.69966969  1
  Zr  Zr15  1  0.30551262  0.89498150  0.10728941  1
  Zr  Zr16  1  0.50260097  0.09767592  0.70215306  1
  Zr  Zr17  1  0.90061030  0.30311972  0.69061228  1
  Zr  Zr18  1  0.09819873  0.50161665  0.30174468  1
  Zr  Zr19  1  0.90037302  0.69861792  0.69780213  1
  Zr  Zr20  1  0.29721795  0.50053023  0.49878512  1
  Zr  Zr21  1  0.28762990  0.90080293  0.30158474  1
  Zr  Zr22  1  0.09988266  0.50496187  0.70199440  1
  Zr  Zr23  1  0.70382826  0.90103864  0.30692320  1
  Zr  Zr24  1  0.89940711  0.09899178  0.70601648  1
  Zr  Zr25  1  0.29692201  0.89350882  0.49667765  1
  Zr  Zr26  1  0.50192907  0.10402459  0.50357246  1
  Zr  Zr27  1  0.28505385  0.30631728  0.10594601  1
  Zr  Zr28  1  0.49567079  0.89916277  0.29674204  1
  Zr  Zr29  1  0.69601144  0.70254811  0.30027758  1
  Zr  Zr30  1  0.90897120  0.49913681  0.09082094  1
  Zr  Zr31  1  0.89591793  0.70243449  0.50200014  1
  Zr  Zr32  1  0.68701235  0.70607740  0.09718998  1
  Zr  Zr33  1  0.90154676  0.10095015  0.09403507  1
  Zr  Zr34  1  0.09522782  0.89670667  0.70065345  1
  Zr  Zr35  1  0.71152433  0.30129822  0.70342316  1
  Zr  Zr36  1  0.09854663  0.09335237  0.69451282  1
  Zr  Zr37  1  0.30070741  0.69864706  0.90389456  1
  Zr  Zr38  1  0.30275802  0.08978545  0.30164070  1
  Zr  Zr39  1  0.69021172  0.50013464  0.10016884  1
  Zr  Zr40  1  0.49745231  0.30751354  0.30037062  1
  Zr  Zr41  1  0.50585975  0.90616253  0.90119036  1
  Zr  Zr42  1  0.29703956  0.30307910  0.70829424  1
  Zr  Zr43  1  0.69432458  0.69736278  0.89548365  1
  Zr  Zr44  1  0.49914750  0.09081770  0.90146064  1
  Zr  Zr45  1  0.09554093  0.69650331  0.49971905  1
  Zr  Zr46  1  0.90206030  0.90198661  0.29861534  1
  Zr  Zr47  1  0.30024513  0.30403339  0.49967018  1
  Zr  Zr48  1  0.49829993  0.49982402  0.29711808  1
  Zr  Zr49  1  0.09926053  0.69868589  0.70591849  1
  Sc  Sc50  1  0.29524899  0.69682931  0.50603370  1
  Sc  Sc51  1  0.51014462  0.70207636  0.29733877  1
  Sc  Sc52  1  0.89777561  0.50528334  0.50285662  1
  Sc  Sc53  1  0.90312178  0.09805367  0.29268087  1
  Sc  Sc54  1  0.49145009  0.49833217  0.49394428  1
  Sc  Sc55  1  0.50313613  0.89273198  0.50946822  1
  Sc  Sc56  1  0.90928402  0.70279185  0.90104746  1
  Sc  Sc57  1  0.70742273  0.50323069  0.71260044  1
  Sc  Sc58  1  0.69339083  0.69867719  0.69971519  1
  Sc  Sc59  1  0.50157453  0.89545912  0.70606440  1
  Sc  Sc60  1  0.50398141  0.30782522  0.50639208  1
  Sc  Sc61  1  0.90722362  0.69367335  0.30193249  1
  Sc  Sc62  1  0.49796562  0.70775297  0.70296492  1
  Sc  Sc63  1  0.10537257  0.29422957  0.29084957  1
  Sc  Sc64  1  0.09608190  0.50277341  0.50249007  1
  Sc  Sc65  1  0.71086645  0.10877062  0.70056309  1
  Sc  Sc66  1  0.70661703  0.09727295  0.89531478  1
  Sc  Sc67  1  0.30225146  0.69617327  0.70688653  1
  Sc  Sc68  1  0.29011500  0.70165785  0.29995916  1
  Sc  Sc69  1  0.50504611  0.50242598  0.89940191  1
  Sc  Sc70  1  0.70807901  0.09967720  0.09731331  1
  Sc  Sc71  1  0.30600537  0.50464550  0.89912232  1
  Sc  Sc72  1  0.09877094  0.69785727  0.29525502  1
  Sc  Sc73  1  0.10044011  0.88778875  0.89010682  1
  Sc  Sc74  1  0.90482195  0.90295726  0.69338462  1
  Sc  Sc75  1  0.30431971  0.89644291  0.89761389  1
  Sc  Sc76  1  0.29632246  0.09165846  0.10513049  1
  Sc  Sc77  1  0.29845107  0.50256922  0.09601524  1
  Sc  Sc78  1  0.29846805  0.09460845  0.70007869  1
  Sc  Sc79  1  0.69971299  0.70777249  0.49676991  1
  Sc  Sc80  1  0.89992144  0.89966769  0.09307609  1
  Sc  Sc81  1  0.09398346  0.09081419  0.29743477  1
  Sc  Sc82  1  0.50268924  0.31292479  0.10425228  1
  Sc  Sc83  1  0.10565685  0.50114895  0.09241467  1
  Sc  Sc84  1  0.09064779  0.29285065  0.50967382  1
  Sc  Sc85  1  0.90078421  0.90155025  0.89713787  1
  Sc  Sc86  1  0.89405379  0.50067578  0.30317628  1
  Sc  Sc87  1  0.50510323  0.30200642  0.69980500  1
  Sc  Sc88  1  0.69986748  0.30618134  0.50876038  1
  Sc  Sc89  1  0.30115297  0.08990254  0.50679945  1
  Sc  Sc90  1  0.71116497  0.89348733  0.49700084  1
  Sc  Sc91  1  0.90793952  0.09905725  0.50512248  1
  Sc  Sc92  1  0.89225665  0.29844880  0.29610254  1
  Sc  Sc93  1  0.90186693  0.29130602  0.09764611  1
  Sc  Sc94  1  0.49784969  0.50015696  0.09454196  1
  Sc  Sc95  1  0.90269385  0.29865519  0.90607519  1
  Sc  Sc96  1  0.90159817  0.50479165  0.89201490  1
  Sc  Sc97  1  0.69949854  0.30016298  0.10535465  1
  Sc  Sc98  1  0.69495041  0.49808040  0.30315634  1
  Sc  Sc99  1  0.29797651  0.48881789  0.30047647  1
  Nb  Nb100  1  0.49720568  0.70739277  0.10094076  1
  Nb  Nb101  1  0.10092078  0.90278515  0.10512631  1
  Nb  Nb102  1  0.90204500  0.89061215  0.50170458  1
  Nb  Nb103  1  0.69859820  0.09877732  0.49338947  1
  Nb  Nb104  1  0.10879089  0.29989686  0.90608711  1
  Nb  Nb105  1  0.50583680  0.89725202  0.10050826  1
  Nb  Nb106  1  0.89976010  0.29977516  0.49969398  1
  Nb  Nb107  1  0.10021821  0.89819883  0.29686565  1
  Nb  Nb108  1  0.10212847  0.30120542  0.70397935  1
  Nb  Nb109  1  0.10392629  0.10080618  0.49729972  1
  Nb  Nb110  1  0.29434035  0.29171700  0.90309114  1
  Nb  Nb111  1  0.10193587  0.69310804  0.89506965  1
  Nb  Nb112  1  0.09514194  0.50546616  0.90327615  1
  Nb  Nb113  1  0.70355830  0.50212288  0.89905319  1
  Nb  Nb114  1  0.30073975  0.10059216  0.91003111  1
  Nb  Nb115  1  0.29994963  0.30060671  0.30110222  1
  Nb  Nb116  1  0.69184348  0.50232102  0.49880212  1
  Nb  Nb117  1  0.89664457  0.70109390  0.09644191  1
  Nb  Nb118  1  0.30466111  0.69681480  0.09298730  1
  Nb  Nb119  1  0.09478612  0.30425727  0.09206287  1
  Nb  Nb120  1  0.49582500  0.50865677  0.69979671  1
  Nb  Nb121  1  0.49739511  0.70006111  0.89967147  1
  Nb  Nb122  1  0.69707494  0.09926022  0.30847060  1
  Nb  Nb123  1  0.90703827  0.10097853  0.89955570  1
  Nb  Nb124  1  0.49939305  0.70431945  0.49869697  1
  Nb  Nb125  1  0.39799804  0.20336943  0.20211465  1
  Nb  Nb126  1  0.79538538  0.19679735  0.40356112  1
  Nb  Nb127  1  0.00344399  0.39907335  0.19840140  1
  Nb  Nb128  1  0.39933140  0.60877521  0.19297908  1
  Nb  Nb129  1  0.00855563  0.20490226  0.80074476  1
  Nb  Nb130  1  0.19703788  0.39864257  0.60730919  1
  Nb  Nb131  1  0.39883770  0.79742015  0.40173863  1
  Nb  Nb132  1  0.39622620  0.20301873  0.39713085  1
  Nb  Nb133  1  0.80070223  0.79389143  0.19591796  1
  Nb  Nb134  1  0.00263702  0.80599885  0.39999897  1
  Nb  Nb135  1  0.60735710  0.00467193  0.59752426  1
  Nb  Nb136  1  0.59316459  0.19994127  -0.00271116  1
  Nb  Nb137  1  0.39544415  0.19920763  0.81003955  1
  Nb  Nb138  1  0.79838860  0.60484968  0.19028073  1
  Nb  Nb139  1  -0.00408445  0.39379607  0.39930385  1
  Nb  Nb140  1  0.79568242  0.40820972  -0.00346770  1
  Nb  Nb141  1  0.00838541  0.00162777  -0.00254888  1
  Nb  Nb142  1  0.19480966  -0.00468851  0.00241096  1
  Nb  Nb143  1  0.79869399  0.79863342  0.79935273  1
  Nb  Nb144  1  0.01107518  0.39421679  0.80270907  1
  Nb  Nb145  1  0.79680793  0.60151004  0.00115534  1
  Nb  Nb146  1  0.60426629  -0.00051414  0.20333625  1
  Nb  Nb147  1  0.39583230  0.20280898  0.00324489  1
  Nb  Nb148  1  0.59485144  0.59673146  0.59656964  1
  Nb  Nb149  1  0.20245619  0.19532426  0.40220856  1
  Pd  Pd150  1  0.59532998  0.19606642  0.80528284  1
  Pd  Pd151  1  -0.00318922  0.59380887  0.19707097  1
  Pd  Pd152  1  -0.00163468  0.19515959  0.60600222  1
  Pd  Pd153  1  0.59620789  0.40980413  0.79136979  1
  Pd  Pd154  1  0.18425032  0.38865985  0.40845285  1
  Pd  Pd155  1  0.39264911  0.00056356  0.79808199  1
  Pd  Pd156  1  0.19564264  0.79235442  0.19414450  1
  Pd  Pd157  1  0.19733543  0.41033291  0.80573022  1
  Pd  Pd158  1  0.40577743  0.80585195  -0.00409964  1
  Pd  Pd159  1  0.78649966  0.60020063  0.59982777  1
  Pd  Pd160  1  0.59686712  0.60067786  0.40560900  1
  Pd  Pd161  1  0.20348422  0.20211119  0.59618680  1
  Pd  Pd162  1  0.39584556  0.60869429  0.38937081  1
  Pd  Pd163  1  0.60925247  0.19839439  0.60147887  1
  Pd  Pd164  1  -0.00013205  0.20499004  0.39237742  1
  Pd  Pd165  1  0.40783107  -0.00860873  0.60320354  1
  Pd  Pd166  1  0.00235063  0.80565485  -0.00357568  1
  Pd  Pd167  1  0.60007691  0.21233876  0.40907766  1
  Pd  Pd168  1  0.20565053  -0.00640221  0.80444593  1
  Pd  Pd169  1  0.79981681  -0.00743591  0.80135155  1
  Pd  Pd170  1  0.60363443  0.41270567  0.61026260  1
  Pd  Pd171  1  -0.00365491  -0.00309143  0.40322669  1
  Pd  Pd172  1  -0.00347482  0.79999921  0.20153184  1
  Pd  Pd173  1  0.40143082  0.39933739  0.80137525  1
  Pd  Pd174  1  0.20632047  0.59822861  0.19571060  1
  Pd  Pd175  1  0.20201104  0.19345390  0.79572572  1
  Pd  Pd176  1  0.40551172  0.60789008  0.59845023  1
  Pd  Pd177  1  0.19859758  0.80452459  -0.00140840  1
  Pd  Pd178  1  0.80106885  0.39514080  0.40657519  1
  Pd  Pd179  1  0.39685394  0.79253935  0.20983124  1
  Pd  Pd180  1  0.79666945  0.41060408  0.59483411  1
  Pd  Pd181  1  0.39655829  0.39980067  0.60394925  1
  Pd  Pd182  1  0.79715636  0.19479743  0.20764468  1
  Pd  Pd183  1  0.81218020  0.00785267  0.40643040  1
  Pd  Pd184  1  0.79581354  0.60139206  0.39543934  1
  Pd  Pd185  1  0.20413541  0.19324146  0.20493284  1
  Pd  Pd186  1  0.59627882  0.19291436  0.18971104  1
  Pd  Pd187  1  0.79828979  0.00085315  0.59320892  1
  Pd  Pd188  1  0.59481285  0.60163632  -0.00167848  1
  Pd  Pd189  1  0.40545003  -0.00450577  0.40894029  1
  Pd  Pd190  1  0.39073780  0.39745009  0.00212075  1
  Pd  Pd191  1  0.79029025  0.20733881  -0.00716687  1
  Pd  Pd192  1  0.79619999  -0.00346665  0.19762881  1
  Pd  Pd193  1  0.80683974  0.40744342  0.19053037  1
  Pd  Pd194  1  0.20369270  0.40920836  -0.00780127  1
  Pd  Pd195  1  0.19706239  0.79257219  0.60344037  1
  Pd  Pd196  1  0.39658682  0.20363376  0.60503212  1
  Pd  Pd197  1  0.59628007  -0.01166381  0.40686612  1
  Pd  Pd198  1  0.20143221  -0.00504193  0.60092319  1
  Pd  Pd199  1  0.20161353  0.60107448  0.39871026  1
  Rh  Rh200  1  0.60797365  0.00729211  0.00776411  1
  Rh  Rh201  1  -0.00015026  -0.00011254  0.59552042  1
  Rh  Rh202  1  -0.00188857  0.59883106  0.40266138  1
  Rh  Rh203  1  0.60241341  0.79766436  0.59650712  1
  Rh  Rh204  1  0.59013203  0.79886433  -0.00751617  1
  Rh  Rh205  1  0.20320344  0.19479276  0.01096794  1
  Rh  Rh206  1  -0.00724469  0.79820747  0.79693448  1
  Rh  Rh207  1  -0.00191970  0.39747879  -0.00371431  1
  Rh  Rh208  1  0.81377238  0.39569434  0.80775756  1
  Rh  Rh209  1  0.00195869  0.00390451  0.80552116  1
  Rh  Rh210  1  0.59265230  0.59648866  0.19846518  1
  Rh  Rh211  1  0.40643901  -0.00115639  0.19996754  1
  Rh  Rh212  1  0.59882918  0.40530034  0.20277424  1
  Rh  Rh213  1  -0.00103665  0.60385654  -0.00386969  1
  Rh  Rh214  1  0.19333839  0.00594360  0.39911087  1
  Rh  Rh215  1  0.00593724  0.19694376  -0.00741738  1
  Rh  Rh216  1  0.19033086  0.40598749  0.19898125  1
  Rh  Rh217  1  0.79970438  0.79827273  0.60875724  1
  Rh  Rh218  1  0.39433371  0.40563738  0.19640027  1
  Rh  Rh219  1  -0.00007485  0.59758203  0.80185865  1
  Rh  Rh220  1  0.19499410  0.79630574  0.39934094  1
  Rh  Rh221  1  0.60029144  0.40064667  0.40262585  1
  Rh  Rh222  1  0.00507089  0.40291324  0.59824809  1
  Rh  Rh223  1  0.19983855  0.59471518  0.60148596  1
  Rh  Rh224  1  -0.00063302  -0.00439618  0.19018206  1
  Rh  Rh225  1  0.20314345  0.79416562  0.79982906  1
  Rh  Rh226  1  0.20255499  0.59946755  0.80730363  1
  Rh  Rh227  1  0.60029532  0.79891157  0.80491019  1
  Rh  Rh228  1  0.60777199  0.81304933  0.20078325  1
  Rh  Rh229  1  0.39782068  0.79445482  0.59679886  1
  Rh  Rh230  1  -0.00150332  0.60029335  0.59983017  1
  Rh  Rh231  1  0.61084487  0.00516620  0.78767059  1
  Rh  Rh232  1  0.00247550  0.79935195  0.59571272  1
  Rh  Rh233  1  0.59304829  0.80390216  0.40335882  1
  Rh  Rh234  1  0.81419346  0.20585464  0.80501237  1
  Rh  Rh235  1  0.59189800  0.59878848  0.79237162  1
  Rh  Rh236  1  0.38927067  -0.00700561  0.00495568  1
  Rh  Rh237  1  0.81325425  0.79484445  0.38918966  1
  Rh  Rh238  1  0.19905981  0.60011929  -0.00533637  1
  Rh  Rh239  1  0.80095058  0.79303893  -0.00534705  1
  Rh  Rh240  1  0.81128048  0.00320872  -0.00756554  1
  Rh  Rh241  1  0.80388325  0.61137204  0.80583129  1
  Rh  Rh242  1  0.19256112  0.00005400  0.19699209  1
  Rh  Rh243  1  0.40184726  0.39642840  0.40223533  1
  Rh  Rh244  1  0.40322996  0.79851052  0.80564802  1
  Rh  Rh245  1  -0.00295678  0.20928681  0.20357971  1
  Rh  Rh246  1  0.40586025  0.60311420  0.80435686  1
  Rh  Rh247  1  0.80043644  0.19607835  0.58892779  1
  Rh  Rh248  1  0.40754701  0.60267895  0.00339229  1
  Rh  Rh249  1  0.60884688  0.39358992  -0.00008880  1
