# generated using pymatgen
data_ZrScNbPdRh
_symmetry_space_group_name_H-M   'P 1'
_cell_length_a   16.55975586
_cell_length_b   16.56070656
_cell_length_c   16.56322508
_cell_angle_alpha   89.96690830
_cell_angle_beta   90.04335836
_cell_angle_gamma   90.02899083
_symmetry_Int_Tables_number   1
_chemical_formula_structural   ZrScNbPdRh
_chemical_formula_sum   'Zr50 Sc50 Nb50 Pd50 Rh50'
_cell_volume   4542.31703596
_cell_formula_units_Z   50
loop_
 _symmetry_equiv_pos_site_id
 _symmetry_equiv_pos_as_xyz
  1  'x, y, z'
loop_
 _atom_site_type_symbol
 _atom_site_label
 _atom_site_symmetry_multiplicity
 _atom_site_fract_x
 _atom_site_fract_y
 _atom_site_fract_z
 _atom_site_occupancy
  Zr  Zr0  1  0.90020896  0.10299478  0.89703818  1
  Zr  Zr1  1  0.88995620  0.69771060  0.29521130  1
  Zr  Zr2  1  0.30400939  0.89640616  0.09631614  1
  Zr  Zr3  1  0.30485407  0.51069578  0.50161030  1
  Zr  Zr4  1  0.09445455  0.10705883  0.89586601  1
  Zr  Zr5  1  0.48874948  0.70009768  0.49189424  1
  Zr  Zr6  1  0.69798543  0.50064888  0.29851540  1
  Zr  Zr7  1  0.89626400  0.89905303  0.49663431  1
  Zr  Zr8  1  0.29496401  0.49723512  0.10283887  1
  Zr  Zr9  1  0.70033507  0.70021835  0.50543032  1
  Zr  Zr10  1  0.30572748  0.29499138  0.30300756  1
  Zr  Zr11  1  0.69504338  0.09762903  0.29251614  1
  Zr  Zr12  1  0.09722150  0.49885764  0.29128202  1
  Zr  Zr13  1  0.50722990  0.70382354  0.70299019  1
  Zr  Zr14  1  0.30414113  0.89942964  0.90311050  1
  Zr  Zr15  1  0.49303115  0.09620530  0.29991631  1
  Zr  Zr16  1  0.50369743  0.09944022  0.68597232  1
  Zr  Zr17  1  0.91655991  0.90398022  0.69393453  1
  Zr  Zr18  1  0.89760839  0.09578660  0.50373787  1
  Zr  Zr19  1  0.30385810  0.90376139  0.29189254  1
  Zr  Zr20  1  0.89236622  0.29299814  0.70348206  1
  Zr  Zr21  1  0.70238338  0.30618595  0.50107561  1
  Zr  Zr22  1  0.89416067  0.30301809  0.10348258  1
  Zr  Zr23  1  0.50048483  0.70317715  0.10190158  1
  Zr  Zr24  1  0.29933574  0.10010090  0.89862936  1
  Zr  Zr25  1  0.89071755  0.29565963  0.30007695  1
  Zr  Zr26  1  0.50095952  0.30594291  0.69308014  1
  Zr  Zr27  1  0.50466979  0.50138382  0.30123662  1
  Zr  Zr28  1  0.30403435  0.89849111  0.70166160  1
  Zr  Zr29  1  0.30509373  0.09341129  0.10176985  1
  Zr  Zr30  1  0.69718746  0.30171550  0.10247283  1
  Zr  Zr31  1  0.10615201  0.89264502  0.10011026  1
  Zr  Zr32  1  0.70256441  0.70461219  0.11370488  1
  Zr  Zr33  1  0.11218114  0.69638718  0.50534472  1
  Zr  Zr34  1  0.70949676  0.11405730  0.70187847  1
  Zr  Zr35  1  0.89951393  0.49795130  0.10820531  1
  Zr  Zr36  1  0.29437517  0.29431391  0.88797801  1
  Zr  Zr37  1  0.50377446  0.91455607  0.50501558  1
  Zr  Zr38  1  0.50133617  0.90046061  0.10245943  1
  Zr  Zr39  1  0.69945500  0.49223714  0.90309997  1
  Zr  Zr40  1  0.10143982  0.50238506  0.50149057  1
  Zr  Zr41  1  0.90896877  0.09984754  0.29261056  1
  Zr  Zr42  1  0.09967605  0.69722676  0.09574484  1
  Zr  Zr43  1  0.89804781  0.30084752  0.50118000  1
  Zr  Zr44  1  0.50175700  0.90214166  0.30955414  1
  Zr  Zr45  1  0.89592222  0.90634371  0.30203822  1
  Zr  Zr46  1  0.30567084  0.30009457  0.10750659  1
  Zr  Zr47  1  0.49845461  0.89728758  0.89779867  1
  Zr  Zr48  1  0.09582073  0.88377903  0.89615277  1
  Zr  Zr49  1  0.69514600  0.30420119  0.70118316  1
  Sc  Sc50  1  0.70415867  0.90517147  0.10360058  1
  Sc  Sc51  1  0.89235193  0.89795444  0.09684045  1
  Sc  Sc52  1  0.69456896  0.29499196  0.90170360  1
  Sc  Sc53  1  0.08879170  0.30511811  0.10373166  1
  Sc  Sc54  1  0.70543403  0.90193814  0.91320244  1
  Sc  Sc55  1  0.70420501  0.49045248  0.10097152  1
  Sc  Sc56  1  0.29858756  0.10593581  0.70019181  1
  Sc  Sc57  1  0.49449927  0.49939326  0.50120949  1
  Sc  Sc58  1  0.10546849  0.10366461  0.50083553  1
  Sc  Sc59  1  0.09887686  0.50401639  0.70073169  1
  Sc  Sc60  1  0.89089331  0.70007656  0.50093816  1
  Sc  Sc61  1  0.89849829  0.50636147  0.90377991  1
  Sc  Sc62  1  0.49572761  0.30509182  0.29373286  1
  Sc  Sc63  1  0.08729922  0.09090291  0.10246731  1
  Sc  Sc64  1  0.69866357  0.70007536  0.30432294  1
  Sc  Sc65  1  0.49903069  0.50372712  0.69550114  1
  Sc  Sc66  1  0.50680984  0.10322909  0.10364681  1
  Sc  Sc67  1  0.10718541  0.69605615  0.29140379  1
  Sc  Sc68  1  0.91264026  0.30131055  0.90079701  1
  Sc  Sc69  1  0.69311876  0.09170782  0.09795556  1
  Sc  Sc70  1  0.89698253  0.50198937  0.51058589  1
  Sc  Sc71  1  0.69330442  0.50147147  0.49880379  1
  Sc  Sc72  1  0.31181678  0.89747542  0.49976241  1
  Sc  Sc73  1  0.09692690  0.49869652  0.89043724  1
  Sc  Sc74  1  0.69128752  0.89290891  0.68766051  1
  Sc  Sc75  1  0.50658795  0.50194928  0.88924330  1
  Sc  Sc76  1  0.68769664  0.50582739  0.70188678  1
  Sc  Sc77  1  0.50813216  0.29771691  0.90447996  1
  Sc  Sc78  1  0.69700830  0.09609309  0.50683146  1
  Sc  Sc79  1  0.10277039  0.30449963  0.71406450  1
  Sc  Sc80  1  0.30524193  0.49206078  0.30069358  1
  Sc  Sc81  1  0.30359165  0.29470541  0.69481116  1
  Sc  Sc82  1  0.51110200  0.70148320  0.30042518  1
  Sc  Sc83  1  0.29201470  0.50749311  0.88690812  1
  Sc  Sc84  1  0.90271091  0.69475800  0.69802838  1
  Sc  Sc85  1  0.90778159  0.49774021  0.70366347  1
  Sc  Sc86  1  0.50466806  0.29775357  0.10217802  1
  Sc  Sc87  1  0.30204258  0.50791770  0.69769183  1
  Sc  Sc88  1  0.29525628  0.70683975  0.09753962  1
  Sc  Sc89  1  0.50467594  0.10235580  0.90849629  1
  Sc  Sc90  1  0.08812263  0.28727968  0.29998093  1
  Sc  Sc91  1  0.30994610  0.70043915  0.30740752  1
  Sc  Sc92  1  0.09845959  0.90352720  0.51614799  1
  Sc  Sc93  1  0.89999139  0.89418649  0.90924325  1
  Sc  Sc94  1  0.70423057  0.69226388  0.89636514  1
  Sc  Sc95  1  0.89660826  0.69836840  0.09632512  1
  Sc  Sc96  1  0.70223592  0.90171643  0.49270024  1
  Sc  Sc97  1  0.49831104  0.70035361  0.89169408  1
  Sc  Sc98  1  0.30235605  0.11283502  0.49900656  1
  Sc  Sc99  1  0.09558067  0.50394176  0.10408813  1
  Nb  Nb100  1  0.50222574  0.49739800  0.09853429  1
  Nb  Nb101  1  0.90325568  0.10203039  0.70355601  1
  Nb  Nb102  1  0.90426850  0.50095159  0.29740864  1
  Nb  Nb103  1  0.29984572  0.69620171  0.89065332  1
  Nb  Nb104  1  0.69610385  0.30005975  0.30173172  1
  Nb  Nb105  1  0.10613547  0.30153521  0.89959565  1
  Nb  Nb106  1  0.29925997  0.69737443  0.69541545  1
  Nb  Nb107  1  0.70053672  0.89830684  0.29691296  1
  Nb  Nb108  1  0.09783843  0.09159598  0.29732780  1
  Nb  Nb109  1  0.10043758  0.30014374  0.50209401  1
  Nb  Nb110  1  0.70113504  0.09632612  0.90096037  1
  Nb  Nb111  1  0.29876941  0.09871724  0.29897113  1
  Nb  Nb112  1  0.90215912  0.70556977  0.90194731  1
  Nb  Nb113  1  0.10688085  0.72149110  0.70715291  1
  Nb  Nb114  1  0.69938342  0.70242544  0.70223287  1
  Nb  Nb115  1  0.50503103  0.10007969  0.49381219  1
  Nb  Nb116  1  0.30160041  0.69646055  0.50245841  1
  Nb  Nb117  1  0.48756824  0.30257837  0.50313862  1
  Nb  Nb118  1  0.09562610  0.70299621  0.89637673  1
  Nb  Nb119  1  0.10357940  0.89794558  0.70272181  1
  Nb  Nb120  1  0.89476068  0.09686137  0.09873610  1
  Nb  Nb121  1  0.09761742  0.90168767  0.29776649  1
  Nb  Nb122  1  0.50115380  0.90586916  0.70321657  1
  Nb  Nb123  1  0.29939088  0.30568771  0.49986812  1
  Nb  Nb124  1  0.09176878  0.08919802  0.69967504  1
  Nb  Nb125  1  0.79916881  -0.00239272  0.79654813  1
  Nb  Nb126  1  0.80144612  0.19470876  0.00083223  1
  Nb  Nb127  1  0.19228286  -0.00541932  0.79631239  1
  Nb  Nb128  1  0.19560783  0.39348363  0.40470930  1
  Nb  Nb129  1  0.39982280  0.39834452  0.80146800  1
  Nb  Nb130  1  0.79735830  0.39810651  0.80160904  1
  Nb  Nb131  1  0.00050653  0.80309111  0.20509547  1
  Nb  Nb132  1  0.19847170  0.19005988  0.20141465  1
  Nb  Nb133  1  0.80188824  0.80109175  0.79606663  1
  Nb  Nb134  1  0.00088187  0.19753188  0.60648350  1
  Nb  Nb135  1  0.59615711  0.20380098  0.40108761  1
  Nb  Nb136  1  0.19729649  0.80649782  0.39862352  1
  Nb  Nb137  1  0.59645293  0.60081374  0.00562815  1
  Nb  Nb138  1  -0.00084268  0.59974661  0.39693944  1
  Nb  Nb139  1  0.20140614  0.39469782  -0.00461303  1
  Nb  Nb140  1  0.20174771  0.39846470  0.59336485  1
  Nb  Nb141  1  0.40006589  0.59697830  -0.00124267  1
  Nb  Nb142  1  0.40599830  0.59640935  0.19243303  1
  Nb  Nb143  1  0.19983835  -0.00067707  0.39255428  1
  Nb  Nb144  1  0.00003939  0.40281497  0.40215334  1
  Nb  Nb145  1  0.00624878  0.79696998  0.39653734  1
  Nb  Nb146  1  0.60006888  0.79485877  0.00273600  1
  Nb  Nb147  1  0.19721934  0.20292349  0.00546601  1
  Nb  Nb148  1  0.39599839  0.40579886  -0.00612138  1
  Nb  Nb149  1  0.60447053  0.00044054  0.79693903  1
  Pd  Pd150  1  0.39829761  0.20728867  0.00172113  1
  Pd  Pd151  1  0.40297913  0.79345375  0.20711017  1
  Pd  Pd152  1  0.00490621  0.40868538  -0.00306923  1
  Pd  Pd153  1  0.20038777  0.59930171  0.39008241  1
  Pd  Pd154  1  0.21439042  0.60646816  0.20542925  1
  Pd  Pd155  1  0.79360377  0.60209935  0.00575225  1
  Pd  Pd156  1  0.19089119  0.60721428  0.79249187  1
  Pd  Pd157  1  0.60384804  0.80107132  0.40673174  1
  Pd  Pd158  1  0.78936331  0.19111934  0.40293698  1
  Pd  Pd159  1  0.00683518  0.39193406  0.60342915  1
  Pd  Pd160  1  0.20824589  0.00068198  0.59913956  1
  Pd  Pd161  1  0.61363907  0.80847466  0.80936473  1
  Pd  Pd162  1  0.80350885  0.80221606  0.60737774  1
  Pd  Pd163  1  0.20457005  0.79132276  -0.00919132  1
  Pd  Pd164  1  -0.00032336  0.20239492  0.00868416  1
  Pd  Pd165  1  -0.00220362  -0.00747348  0.80910852  1
  Pd  Pd166  1  0.40618066  0.20033504  0.40128373  1
  Pd  Pd167  1  0.79410099  0.00874045  0.39612848  1
  Pd  Pd168  1  0.41290542  0.20162160  0.79740151  1
  Pd  Pd169  1  0.00485631  0.60903565  0.60022336  1
  Pd  Pd170  1  0.19130581  0.00506943  -0.00826314  1
  Pd  Pd171  1  0.59871006  0.20645590  0.58930219  1
  Pd  Pd172  1  0.59308002  0.19388749  0.80092548  1
  Pd  Pd173  1  0.79605748  0.59353681  0.61000060  1
  Pd  Pd174  1  0.19552735  0.19829096  0.39252500  1
  Pd  Pd175  1  0.00060695  0.19881934  0.40785454  1
  Pd  Pd176  1  0.00954839  -0.00394895  0.40989088  1
  Pd  Pd177  1  0.80074800  0.59744674  0.79485637  1
  Pd  Pd178  1  0.20114421  0.59513277  -0.00677642  1
  Pd  Pd179  1  -0.00046044  -0.00768737  -0.00081439  1
  Pd  Pd180  1  0.40676177  0.79843798  0.60358586  1
  Pd  Pd181  1  0.79378209  0.41153593  0.61130781  1
  Pd  Pd182  1  0.79551044  -0.00443640  0.60901044  1
  Pd  Pd183  1  0.20871128  0.80413546  0.59412578  1
  Pd  Pd184  1  0.80539344  0.40989857  0.39781447  1
  Pd  Pd185  1  0.40423358  0.01042324  0.79822939  1
  Pd  Pd186  1  0.79325390  0.19381090  0.19205916  1
  Pd  Pd187  1  0.00086048  0.59704479  -0.00335076  1
  Pd  Pd188  1  0.00295340  0.60773485  0.79877588  1
  Pd  Pd189  1  0.19198485  0.38575473  0.20528210  1
  Pd  Pd190  1  0.39649480  0.79445624  0.79576715  1
  Pd  Pd191  1  0.59243935  0.80019651  0.59080762  1
  Pd  Pd192  1  0.40940696  0.00425266  0.00168429  1
  Pd  Pd193  1  0.59182038  0.39354417  0.40383615  1
  Pd  Pd194  1  0.80245876  0.59370911  0.40235332  1
  Pd  Pd195  1  0.19129956  0.20627487  0.60941292  1
  Pd  Pd196  1  -0.00106175  0.79051383  0.59208440  1
  Pd  Pd197  1  0.39124037  0.00948854  0.59607607  1
  Pd  Pd198  1  0.19849930  0.00197850  0.19862082  1
  Pd  Pd199  1  0.59409191  0.60237367  0.59482811  1
  Rh  Rh200  1  0.59626057  -0.00649321  0.20440440  1
  Rh  Rh201  1  0.19925602  0.79809537  0.20603036  1
  Rh  Rh202  1  -0.00507023  0.39319296  0.20935997  1
  Rh  Rh203  1  0.19311823  0.18898331  0.79664221  1
  Rh  Rh204  1  0.59705636  0.40211902  0.59274508  1
  Rh  Rh205  1  0.60972141  0.19800434  0.00634323  1
  Rh  Rh206  1  0.00194888  0.00728844  0.59327626  1
  Rh  Rh207  1  0.39672012  0.40233817  0.40307887  1
  Rh  Rh208  1  -0.00191897  0.79547972  0.00987055  1
  Rh  Rh209  1  0.60415063  0.80960874  0.20014533  1
  Rh  Rh210  1  0.40142731  0.78931568  -0.00928454  1
  Rh  Rh211  1  0.39052973  0.00464764  0.40572801  1
  Rh  Rh212  1  0.59847336  0.39927831  0.79864592  1
  Rh  Rh213  1  0.00564113  0.20461479  0.79218854  1
  Rh  Rh214  1  0.60049525  0.60455552  0.40606165  1
  Rh  Rh215  1  0.40277776  0.19877305  0.59486709  1
  Rh  Rh216  1  0.80116137  0.00163715  0.20029531  1
  Rh  Rh217  1  0.21098096  0.80163987  0.80361848  1
  Rh  Rh218  1  0.59367038  0.40335721  -0.00098526  1
  Rh  Rh219  1  0.20857994  0.40322704  0.79373301  1
  Rh  Rh220  1  0.39260226  0.40204664  0.60522972  1
  Rh  Rh221  1  0.79745518  0.40188574  0.21018783  1
  Rh  Rh222  1  0.00099787  0.19635789  0.19417074  1
  Rh  Rh223  1  -0.00651047  0.40073560  0.80262009  1
  Rh  Rh224  1  0.39705822  0.80328285  0.39945947  1
  Rh  Rh225  1  0.79799070  0.79952837  0.39868693  1
  Rh  Rh226  1  0.39889556  0.19451062  0.19938048  1
  Rh  Rh227  1  0.40581827  0.00010656  0.19670090  1
  Rh  Rh228  1  0.40538806  0.60990007  0.60628850  1
  Rh  Rh229  1  0.19708797  0.60128126  0.61161982  1
  Rh  Rh230  1  0.60649902  0.00152251  0.60462010  1
  Rh  Rh231  1  0.60076661  0.39783122  0.19997503  1
  Rh  Rh232  1  0.79598524  0.59211619  0.19807864  1
  Rh  Rh233  1  0.40717998  0.40665271  0.19560377  1
  Rh  Rh234  1  0.80339114  0.00861618  -0.00409510  1
  Rh  Rh235  1  0.80384428  0.80696187  0.20497317  1
  Rh  Rh236  1  0.40269849  0.59877332  0.79782148  1
  Rh  Rh237  1  0.79283039  0.78996135  -0.00604536  1
  Rh  Rh238  1  -0.00562294  0.61214737  0.20025845  1
  Rh  Rh239  1  0.60098909  0.60281368  0.80350834  1
  Rh  Rh240  1  0.40277763  0.59745398  0.39077176  1
  Rh  Rh241  1  -0.01114789  0.79440458  0.79693763  1
  Rh  Rh242  1  0.59949302  0.20379242  0.20739439  1
  Rh  Rh243  1  -0.00683235  -0.00977928  0.19141872  1
  Rh  Rh244  1  0.80327836  0.38697976  -0.01153308  1
  Rh  Rh245  1  0.60050377  0.59356558  0.19607816  1
  Rh  Rh246  1  0.60624174  0.00566783  0.39701251  1
  Rh  Rh247  1  0.80596824  0.19951956  0.59317008  1
  Rh  Rh248  1  0.79939173  0.20362396  0.81268268  1
  Rh  Rh249  1  0.59538573  -0.00798359  -0.00533313  1
