# generated using pymatgen
data_ZrScNbPdRh
_symmetry_space_group_name_H-M   'P 1'
_cell_length_a   16.55561354
_cell_length_b   16.55786885
_cell_length_c   16.55357371
_cell_angle_alpha   90.00517370
_cell_angle_beta   89.98533941
_cell_angle_gamma   90.02255867
_symmetry_Int_Tables_number   1
_chemical_formula_structural   ZrScNbPdRh
_chemical_formula_sum   'Zr50 Sc50 Nb50 Pd50 Rh50'
_cell_volume   4537.75909350
_cell_formula_units_Z   50
loop_
 _symmetry_equiv_pos_site_id
 _symmetry_equiv_pos_as_xyz
  1  'x, y, z'
loop_
 _atom_site_type_symbol
 _atom_site_label
 _atom_site_symmetry_multiplicity
 _atom_site_fract_x
 _atom_site_fract_y
 _atom_site_fract_z
 _atom_site_occupancy
  Zr  Zr0  1  0.88917358  0.10759261  0.49870838  1
  Zr  Zr1  1  0.70646008  0.29927978  0.10039531  1
  Zr  Zr2  1  0.49515473  0.09773407  0.89864104  1
  Zr  Zr3  1  0.50072083  0.29832798  0.50585849  1
  Zr  Zr4  1  0.09964802  0.50116557  0.49403118  1
  Zr  Zr5  1  0.89670587  0.09242552  0.29812121  1
  Zr  Zr6  1  0.69857855  0.10566997  0.89632821  1
  Zr  Zr7  1  0.09721604  0.89661406  0.69857783  1
  Zr  Zr8  1  0.69472919  0.69901840  0.91430224  1
  Zr  Zr9  1  0.89113485  0.30483890  0.30024670  1
  Zr  Zr10  1  0.71185228  0.30321087  0.50445675  1
  Zr  Zr11  1  0.50297689  0.30806979  0.30576930  1
  Zr  Zr12  1  0.89544332  0.91253233  0.49494071  1
  Zr  Zr13  1  0.09718290  0.49473100  0.90344027  1
  Zr  Zr14  1  0.70291232  0.90277152  0.69964406  1
  Zr  Zr15  1  0.09172615  0.69368306  0.90030038  1
  Zr  Zr16  1  0.09716922  0.70981360  0.30668632  1
  Zr  Zr17  1  0.09976909  0.09643469  0.29379148  1
  Zr  Zr18  1  0.50457597  0.49278561  0.49782388  1
  Zr  Zr19  1  0.29552147  0.29948912  0.09933264  1
  Zr  Zr20  1  0.31113832  0.69734827  0.70045427  1
  Zr  Zr21  1  0.91200857  0.69876784  0.70263583  1
  Zr  Zr22  1  0.09655000  0.09976960  0.10079520  1
  Zr  Zr23  1  0.10306410  0.29948230  0.09306799  1
  Zr  Zr24  1  0.29241304  0.49938085  0.50710145  1
  Zr  Zr25  1  0.90005108  0.89828146  0.70647996  1
  Zr  Zr26  1  0.29685540  0.90193730  0.10368713  1
  Zr  Zr27  1  0.10070638  0.49665429  0.09080323  1
  Zr  Zr28  1  0.49868514  0.10737493  0.29815095  1
  Zr  Zr29  1  0.29320749  0.91192735  0.70325716  1
  Zr  Zr30  1  0.69562646  0.30133046  0.71056610  1
  Zr  Zr31  1  0.90056374  0.10137539  0.69914006  1
  Zr  Zr32  1  0.29954287  0.08947935  0.30043928  1
  Zr  Zr33  1  0.09831864  0.30588974  0.50734733  1
  Zr  Zr34  1  0.30272444  0.29901291  0.69937534  1
  Zr  Zr35  1  0.30114836  0.70239289  0.49171355  1
  Zr  Zr36  1  0.09566508  0.29914241  0.70527236  1
  Zr  Zr37  1  0.90543984  0.70377950  0.30107558  1
  Zr  Zr38  1  0.29728504  0.90230184  0.49569425  1
  Zr  Zr39  1  0.69781494  0.49950731  0.09319442  1
  Zr  Zr40  1  0.89922008  0.29813982  0.68935135  1
  Zr  Zr41  1  0.30389561  0.50140359  0.70069221  1
  Zr  Zr42  1  0.50036518  0.50084160  0.69597518  1
  Zr  Zr43  1  0.70562959  0.10212999  0.10201598  1
  Zr  Zr44  1  0.70380769  0.49317531  0.69839300  1
  Zr  Zr45  1  0.49987013  0.49740211  0.10094781  1
  Zr  Zr46  1  0.49604973  0.70141979  0.50882528  1
  Zr  Zr47  1  0.50077542  0.29656980  0.11149818  1
  Zr  Zr48  1  0.50561680  0.09296594  0.49852290  1
  Zr  Zr49  1  0.70371024  0.29319766  0.89936431  1
  Sc  Sc50  1  0.90119041  0.09852098  0.90482238  1
  Sc  Sc51  1  0.70111646  0.30085874  0.29301531  1
  Sc  Sc52  1  0.89765441  0.89528306  0.90408429  1
  Sc  Sc53  1  0.09656607  0.10260669  0.89835816  1
  Sc  Sc54  1  0.90152944  0.49923638  0.70561105  1
  Sc  Sc55  1  0.90265977  0.90194076  0.09880011  1
  Sc  Sc56  1  0.30276312  0.29934897  0.29788645  1
  Sc  Sc57  1  0.30243000  0.50275109  0.30630608  1
  Sc  Sc58  1  0.70704813  0.10379386  0.29777144  1
  Sc  Sc59  1  0.90042594  0.71045474  0.09469563  1
  Sc  Sc60  1  0.71089068  0.90506732  0.29251952  1
  Sc  Sc61  1  0.30244790  0.09643311  0.88817491  1
  Sc  Sc62  1  0.69397805  0.91469019  0.50428670  1
  Sc  Sc63  1  0.90316887  0.09883721  0.09921273  1
  Sc  Sc64  1  0.10015447  0.09382675  0.50287762  1
  Sc  Sc65  1  0.49697287  0.90353997  0.50242683  1
  Sc  Sc66  1  0.51218335  0.28947201  0.89372808  1
  Sc  Sc67  1  0.90136594  0.69994196  0.89946870  1
  Sc  Sc68  1  0.89983477  0.29557207  0.09584335  1
  Sc  Sc69  1  0.69859150  0.09506790  0.69922722  1
  Sc  Sc70  1  0.69787631  0.69764287  0.50172253  1
  Sc  Sc71  1  0.49887751  0.69329272  0.08975038  1
  Sc  Sc72  1  0.29210019  0.50517467  0.89924394  1
  Sc  Sc73  1  0.08745134  0.90774598  0.89541595  1
  Sc  Sc74  1  0.10293313  0.50087725  0.70016097  1
  Sc  Sc75  1  0.90446657  0.29355120  0.89768548  1
  Sc  Sc76  1  0.70773070  0.70066940  0.30077215  1
  Sc  Sc77  1  0.30229403  0.10458156  0.10477425  1
  Sc  Sc78  1  0.50311587  0.89202969  0.70374232  1
  Sc  Sc79  1  0.10111721  0.09249897  0.70829165  1
  Sc  Sc80  1  0.90557528  0.50826284  0.90027052  1
  Sc  Sc81  1  0.49467919  0.70721321  0.89933104  1
  Sc  Sc82  1  0.49133614  0.89601315  0.08998305  1
  Sc  Sc83  1  0.70758101  0.88947327  0.09206739  1
  Sc  Sc84  1  0.89704378  0.49313935  0.09188343  1
  Sc  Sc85  1  0.29885787  0.50274262  0.09637303  1
  Sc  Sc86  1  0.48541178  0.69423393  0.30893337  1
  Sc  Sc87  1  0.91456573  0.68995219  0.49167470  1
  Sc  Sc88  1  0.69665940  0.89291453  0.89458409  1
  Sc  Sc89  1  0.30510545  0.69598260  0.89685325  1
  Sc  Sc90  1  0.49210104  0.10533476  0.10009068  1
  Sc  Sc91  1  0.49614421  0.10770362  0.69722055  1
  Sc  Sc92  1  0.11038870  0.30296466  0.29326506  1
  Sc  Sc93  1  0.30089554  0.30974462  0.50004423  1
  Sc  Sc94  1  0.30355015  0.08956546  0.50521723  1
  Sc  Sc95  1  0.70235010  0.49490416  0.90047247  1
  Sc  Sc96  1  0.69278257  0.70270378  0.70067866  1
  Sc  Sc97  1  0.29274909  0.28890242  0.89385976  1
  Sc  Sc98  1  0.09134706  0.70937104  0.10065938  1
  Sc  Sc99  1  0.49006134  0.90763937  0.30805496  1
  Nb  Nb100  1  0.09966418  0.90239030  0.10101816  1
  Nb  Nb101  1  0.10210095  0.70364475  0.51037605  1
  Nb  Nb102  1  0.29552337  0.70735812  0.29969996  1
  Nb  Nb103  1  0.09853335  0.50165744  0.29803340  1
  Nb  Nb104  1  0.89544045  0.49455546  0.48591277  1
  Nb  Nb105  1  0.69362473  0.69831034  0.10381226  1
  Nb  Nb106  1  0.29007480  0.89549593  0.29913537  1
  Nb  Nb107  1  0.90654550  0.90081765  0.29923490  1
  Nb  Nb108  1  0.70033402  0.09891030  0.49706557  1
  Nb  Nb109  1  0.10072855  0.30237912  0.90641949  1
  Nb  Nb110  1  0.50086831  0.50155221  0.90187029  1
  Nb  Nb111  1  0.10453568  0.90235545  0.50410006  1
  Nb  Nb112  1  0.29420421  0.70150779  0.10837732  1
  Nb  Nb113  1  0.89922916  0.50541701  0.30769046  1
  Nb  Nb114  1  0.70849463  0.50152957  0.49438200  1
  Nb  Nb115  1  0.49057177  0.90126519  0.90489082  1
  Nb  Nb116  1  0.90484640  0.29811279  0.50078691  1
  Nb  Nb117  1  0.29178809  0.10497648  0.70336076  1
  Nb  Nb118  1  0.30758622  0.89917023  0.90133350  1
  Nb  Nb119  1  0.49907719  0.30462483  0.70079814  1
  Nb  Nb120  1  0.51048160  0.49723976  0.30015201  1
  Nb  Nb121  1  0.10114236  0.90468389  0.29363163  1
  Nb  Nb122  1  0.49613706  0.69327523  0.70123991  1
  Nb  Nb123  1  0.70914935  0.49767768  0.30520375  1
  Nb  Nb124  1  0.09655807  0.70703863  0.69698655  1
  Nb  Nb125  1  0.20006233  0.19810692  0.60186464  1
  Nb  Nb126  1  0.40340493  0.39630493  -0.00709380  1
  Nb  Nb127  1  -0.00246762  -0.00337126  0.59958138  1
  Nb  Nb128  1  0.19779115  0.19743301  0.40501770  1
  Nb  Nb129  1  0.80518705  0.79622271  0.59594932  1
  Nb  Nb130  1  0.00060739  0.20364298  0.40146134  1
  Nb  Nb131  1  0.20073087  0.80576520  -0.00388494  1
  Nb  Nb132  1  0.80164453  0.80378801  0.40460379  1
  Nb  Nb133  1  -0.00106057  0.59421770  0.20350869  1
  Nb  Nb134  1  0.40708426  0.39944277  0.80387641  1
  Nb  Nb135  1  0.60316211  0.60005212  0.20679498  1
  Nb  Nb136  1  0.59930489  -0.00482659  0.19141091  1
  Nb  Nb137  1  0.59639538  -0.00132470  -0.00123671  1
  Nb  Nb138  1  0.59335694  0.59867523  0.80045390  1
  Nb  Nb139  1  0.80122230  0.59618427  0.20142685  1
  Nb  Nb140  1  0.20232743  -0.00701924  -0.00126666  1
  Nb  Nb141  1  0.19971626  0.80120177  0.80283200  1
  Nb  Nb142  1  0.59303428  0.79727976  0.20347495  1
  Nb  Nb143  1  0.60294176  0.59546989  0.39686893  1
  Nb  Nb144  1  0.39314856  0.79694246  0.20385231  1
  Nb  Nb145  1  0.60494381  0.19984682  0.40658960  1
  Nb  Nb146  1  0.80403471  0.59836183  0.59472209  1
  Nb  Nb147  1  -0.00106583  0.40762374  0.20320341  1
  Nb  Nb148  1  0.19600045  0.60687585  0.20466565  1
  Nb  Nb149  1  0.60205884  0.79807230  0.39501182  1
  Pd  Pd150  1  0.00063617  0.19810924  0.80306183  1
  Pd  Pd151  1  0.60763144  -0.00080181  0.38661955  1
  Pd  Pd152  1  0.79102568  0.60550199  0.79454783  1
  Pd  Pd153  1  0.20277422  0.41108146  0.20078085  1
  Pd  Pd154  1  0.39860585  0.60270251  0.20203752  1
  Pd  Pd155  1  0.39246114  0.40419403  0.19748866  1
  Pd  Pd156  1  0.60661624  0.19791208  0.60056890  1
  Pd  Pd157  1  0.39271025  0.19824829  0.59598421  1
  Pd  Pd158  1  0.80615275  0.60467873  0.00615893  1
  Pd  Pd159  1  0.40474278  -0.00179978  0.60831030  1
  Pd  Pd160  1  0.19408073  0.60832336  0.79317732  1
  Pd  Pd161  1  -0.00436563  0.40051646  0.80355181  1
  Pd  Pd162  1  0.40575853  -0.00022703  0.79057889  1
  Pd  Pd163  1  0.20960663  0.79647421  0.60592421  1
  Pd  Pd164  1  0.81053538  0.39791829  0.80623569  1
  Pd  Pd165  1  0.20596930  0.39843638  0.80280370  1
  Pd  Pd166  1  0.00523840  0.39232947  0.39145774  1
  Pd  Pd167  1  0.59443964  0.39215135  -0.00444073  1
  Pd  Pd168  1  0.59785144  0.19453994  0.00653887  1
  Pd  Pd169  1  0.40577406  -0.00683286  0.19698804  1
  Pd  Pd170  1  0.80763728  0.39578671  -0.00970342  1
  Pd  Pd171  1  0.39685667  0.19775603  0.40522801  1
  Pd  Pd172  1  0.79821319  0.78875356  0.79807874  1
  Pd  Pd173  1  0.40281713  0.59161339  0.40515899  1
  Pd  Pd174  1  0.59463005  0.79406807  0.80448098  1
  Pd  Pd175  1  0.00611117  0.00443629  0.40337187  1
  Pd  Pd176  1  0.60714274  0.59696131  0.59963995  1
  Pd  Pd177  1  0.00148043  0.80915453  0.40825114  1
  Pd  Pd178  1  0.80069710  0.79771246  0.20173801  1
  Pd  Pd179  1  0.60568223  0.80391077  0.59287737  1
  Pd  Pd180  1  0.19241872  0.80539085  0.40416391  1
  Pd  Pd181  1  0.19578551  0.60250536  0.39621247  1
  Pd  Pd182  1  -0.00837757  0.80621165  0.58778277  1
  Pd  Pd183  1  -0.00508201  0.41218512  0.59976756  1
  Pd  Pd184  1  -0.00386945  0.58943349  0.59766999  1
  Pd  Pd185  1  0.39666068  0.20510267  -0.00541540  1
  Pd  Pd186  1  0.80291254  0.00237209  0.80873807  1
  Pd  Pd187  1  0.59287541  -0.00020113  0.80182512  1
  Pd  Pd188  1  -0.00324733  0.21064047  0.20551322  1
  Pd  Pd189  1  0.19926155  0.60725838  0.60450428  1
  Pd  Pd190  1  0.19790909  0.61097595  0.00735541  1
  Pd  Pd191  1  0.39548790  0.40495132  0.39973331  1
  Pd  Pd192  1  0.39484400  0.80874517  0.60479654  1
  Pd  Pd193  1  0.60576810  0.39954250  0.59723949  1
  Pd  Pd194  1  0.39548195  0.59745917  -0.00202323  1
  Pd  Pd195  1  0.79344975  -0.00319699  -0.00411043  1
  Pd  Pd196  1  0.39177778  0.79044729  0.00577420  1
  Pd  Pd197  1  0.78999950  0.19734409  0.60713708  1
  Pd  Pd198  1  0.60966510  0.40442925  0.20070236  1
  Pd  Pd199  1  0.20240077  0.18693964  -0.00553816  1
  Rh  Rh200  1  0.80272115  0.19869824  0.79568315  1
  Rh  Rh201  1  0.01150512  0.60010505  0.39989597  1
  Rh  Rh202  1  0.80520469  0.40751060  0.19733482  1
  Rh  Rh203  1  0.79389017  -0.00272692  0.39324492  1
  Rh  Rh204  1  0.59743927  0.80776611  0.00376461  1
  Rh  Rh205  1  0.60238270  0.19378215  0.20616903  1
  Rh  Rh206  1  0.40277484  0.80660680  0.39534787  1
  Rh  Rh207  1  -0.00413161  0.60138358  0.00856350  1
  Rh  Rh208  1  0.20158280  0.39636817  0.39644594  1
  Rh  Rh209  1  -0.00366695  -0.00668175  0.19613267  1
  Rh  Rh210  1  0.19633863  0.79914856  0.19630197  1
  Rh  Rh211  1  0.59707694  0.59740485  -0.00290309  1
  Rh  Rh212  1  0.80614089  0.19810659  0.19718722  1
  Rh  Rh213  1  0.21128317  0.39533626  -0.00897199  1
  Rh  Rh214  1  0.39796840  0.59717436  0.59133019  1
  Rh  Rh215  1  0.79599082  0.60860620  0.40228257  1
  Rh  Rh216  1  0.40071709  0.40164590  0.60428000  1
  Rh  Rh217  1  0.19738342  0.39609698  0.60652987  1
  Rh  Rh218  1  0.00331731  0.80520366  -0.00338579  1
  Rh  Rh219  1  0.81074305  0.40831861  0.59613423  1
  Rh  Rh220  1  0.00666313  0.18935252  0.59323347  1
  Rh  Rh221  1  0.00506161  0.79759482  0.80744539  1
  Rh  Rh222  1  0.39690621  0.80344206  0.79552814  1
  Rh  Rh223  1  0.00650410  0.59689305  0.79697049  1
  Rh  Rh224  1  0.00198990  0.20120252  -0.00180100  1
  Rh  Rh225  1  0.19350617  0.00594303  0.60142311  1
  Rh  Rh226  1  0.80426793  0.19800275  0.00038133  1
  Rh  Rh227  1  0.20606512  0.19422994  0.20729497  1
  Rh  Rh228  1  0.61108277  0.39655133  0.40258601  1
  Rh  Rh229  1  -0.00385563  0.39423222  0.00115377  1
  Rh  Rh230  1  0.39716597  0.00811520  -0.00002489  1
  Rh  Rh231  1  0.79853435  0.20462305  0.39754411  1
  Rh  Rh232  1  0.80222075  -0.00128603  0.60478699  1
  Rh  Rh233  1  0.79763027  0.39343044  0.40077613  1
  Rh  Rh234  1  0.19823578  0.00174303  0.19363118  1
  Rh  Rh235  1  0.80104894  -0.00231476  0.19504967  1
  Rh  Rh236  1  0.59638249  0.00196128  0.60729242  1
  Rh  Rh237  1  0.19145472  0.20023586  0.79650276  1
  Rh  Rh238  1  0.39429897  -0.00229939  0.40056241  1
  Rh  Rh239  1  0.40680008  0.59307342  0.80505599  1
  Rh  Rh240  1  0.39743302  0.20477490  0.20607647  1
  Rh  Rh241  1  0.80012582  0.79583969  -0.00178354  1
  Rh  Rh242  1  0.00489912  0.00139030  0.00303669  1
  Rh  Rh243  1  0.19634843  0.00036064  0.39901552  1
  Rh  Rh244  1  0.40433799  0.20578618  0.79662709  1
  Rh  Rh245  1  0.59877680  0.19371871  0.79090965  1
  Rh  Rh246  1  0.20003753  -0.00611066  0.81111671  1
  Rh  Rh247  1  -0.00843166  0.00194047  0.79745119  1
  Rh  Rh248  1  0.00031218  0.80538272  0.19899482  1
  Rh  Rh249  1  0.59457290  0.40663666  0.80384342  1
