# generated using pymatgen
data_ZrScNbPdRh
_symmetry_space_group_name_H-M   'P 1'
_cell_length_a   16.56850990
_cell_length_b   16.56626039
_cell_length_c   16.56718310
_cell_angle_alpha   89.98756855
_cell_angle_beta   90.04354441
_cell_angle_gamma   89.98116246
_symmetry_Int_Tables_number   1
_chemical_formula_structural   ZrScNbPdRh
_chemical_formula_sum   'Zr50 Sc50 Nb50 Pd50 Rh50'
_cell_volume   4547.32974676
_cell_formula_units_Z   50
loop_
 _symmetry_equiv_pos_site_id
 _symmetry_equiv_pos_as_xyz
  1  'x, y, z'
loop_
 _atom_site_type_symbol
 _atom_site_label
 _atom_site_symmetry_multiplicity
 _atom_site_fract_x
 _atom_site_fract_y
 _atom_site_fract_z
 _atom_site_occupancy
  Zr  Zr0  1  0.09371678  0.30786864  0.30265402  1
  Zr  Zr1  1  0.49800412  0.30468919  0.09728791  1
  Zr  Zr2  1  0.29945892  0.30239387  0.68536019  1
  Zr  Zr3  1  0.70540131  0.89377164  0.70129429  1
  Zr  Zr4  1  0.09906662  0.09489609  0.09296339  1
  Zr  Zr5  1  0.49049132  0.50470870  0.29627303  1
  Zr  Zr6  1  0.89917817  0.30479427  0.29651321  1
  Zr  Zr7  1  0.69867405  0.49707715  0.50363588  1
  Zr  Zr8  1  0.11342152  0.49803459  0.09664948  1
  Zr  Zr9  1  0.50341796  0.30165461  0.69354290  1
  Zr  Zr10  1  0.30410756  0.30608628  0.30266757  1
  Zr  Zr11  1  0.70437927  0.50755529  0.29778963  1
  Zr  Zr12  1  0.49659058  0.89966077  0.70030373  1
  Zr  Zr13  1  0.09065813  0.50888070  0.89921889  1
  Zr  Zr14  1  0.09766789  0.29741600  0.69955925  1
  Zr  Zr15  1  0.10425837  0.89735504  0.30020770  1
  Zr  Zr16  1  0.70374682  0.69301307  0.50350339  1
  Zr  Zr17  1  0.29850371  0.31316362  0.09787174  1
  Zr  Zr18  1  0.89959422  0.89765026  0.30044919  1
  Zr  Zr19  1  0.31067083  0.70096268  0.30436994  1
  Zr  Zr20  1  0.49895076  0.10722794  0.30197782  1
  Zr  Zr21  1  0.30091826  0.89146850  0.69821465  1
  Zr  Zr22  1  0.29993699  0.09715130  0.69239134  1
  Zr  Zr23  1  0.10358068  0.49908606  0.30134947  1
  Zr  Zr24  1  0.88690176  0.09358975  0.29474207  1
  Zr  Zr25  1  0.91001976  0.70558465  0.50569404  1
  Zr  Zr26  1  0.10399027  0.09669445  0.49872665  1
  Zr  Zr27  1  0.69753331  0.09133863  0.69648789  1
  Zr  Zr28  1  0.50179342  0.89443522  0.90311443  1
  Zr  Zr29  1  0.30452972  0.10123584  0.30567037  1
  Zr  Zr30  1  0.49712194  0.69849762  0.30343386  1
  Zr  Zr31  1  0.29728544  0.10342761  0.10128122  1
  Zr  Zr32  1  0.30331854  0.30109005  0.90513470  1
  Zr  Zr33  1  0.49185896  0.89421714  0.30751533  1
  Zr  Zr34  1  0.70188838  0.51082977  0.70705721  1
  Zr  Zr35  1  0.49790742  0.09560553  0.69437567  1
  Zr  Zr36  1  0.10651038  0.89610945  0.09958227  1
  Zr  Zr37  1  0.71111265  0.90244726  0.30711397  1
  Zr  Zr38  1  0.89947317  0.10145554  0.09756731  1
  Zr  Zr39  1  0.89443573  0.70304949  0.70450085  1
  Zr  Zr40  1  0.90212978  0.49486435  0.29319300  1
  Zr  Zr41  1  0.90194028  0.50246950  0.49174929  1
  Zr  Zr42  1  0.29350532  0.50100893  0.91671275  1
  Zr  Zr43  1  0.68753227  0.30543082  0.89969158  1
  Zr  Zr44  1  0.90027131  0.30629242  0.88111961  1
  Zr  Zr45  1  0.29706944  0.10265924  0.49899816  1
  Zr  Zr46  1  0.10319575  0.50018823  0.69528275  1
  Zr  Zr47  1  0.90159607  0.70217835  0.09477620  1
  Zr  Zr48  1  0.90238910  0.49821625  0.72103865  1
  Zr  Zr49  1  0.49406686  0.70271034  0.49443947  1
  Sc  Sc50  1  0.49705275  0.30231668  0.30012623  1
  Sc  Sc51  1  0.50036795  0.49498718  0.50186231  1
  Sc  Sc52  1  0.68821759  0.30689515  0.29833113  1
  Sc  Sc53  1  0.09941444  0.50825337  0.49575407  1
  Sc  Sc54  1  0.49569842  0.90138398  0.50272405  1
  Sc  Sc55  1  0.50534932  0.10543781  0.90546467  1
  Sc  Sc56  1  0.89583593  0.89563498  0.70742437  1
  Sc  Sc57  1  0.70486142  0.69933472  0.10026905  1
  Sc  Sc58  1  0.10693708  0.89798977  0.70625863  1
  Sc  Sc59  1  0.50148619  0.69857214  0.90827348  1
  Sc  Sc60  1  0.11246286  0.69892407  0.30235264  1
  Sc  Sc61  1  0.30185854  0.70182423  0.09837398  1
  Sc  Sc62  1  0.69893594  0.29619302  0.70311152  1
  Sc  Sc63  1  0.70081935  0.10310352  0.09982568  1
  Sc  Sc64  1  0.10071402  0.09431737  0.89888778  1
  Sc  Sc65  1  0.88859063  0.69793125  0.29333772  1
  Sc  Sc66  1  0.50805480  0.49638340  0.69544406  1
  Sc  Sc67  1  0.50317234  0.11040767  0.09976860  1
  Sc  Sc68  1  0.10021937  0.10116504  0.30483731  1
  Sc  Sc69  1  0.69272973  0.30712265  0.10541027  1
  Sc  Sc70  1  0.69903678  0.10037024  0.90640477  1
  Sc  Sc71  1  0.10839121  0.09870413  0.69735492  1
  Sc  Sc72  1  0.29367843  0.09916280  0.90040057  1
  Sc  Sc73  1  0.49196552  0.69798408  0.10085409  1
  Sc  Sc74  1  0.90444640  0.09465325  0.89798663  1
  Sc  Sc75  1  0.49776029  0.10302028  0.50191422  1
  Sc  Sc76  1  0.09797570  0.70464530  0.69824248  1
  Sc  Sc77  1  0.90525734  0.89648584  0.09700330  1
  Sc  Sc78  1  0.30106880  0.70525313  0.90916481  1
  Sc  Sc79  1  0.29453155  0.89561122  0.89852431  1
  Sc  Sc80  1  0.70360208  0.88948048  0.90235898  1
  Sc  Sc81  1  0.29302444  0.48779314  0.50307725  1
  Sc  Sc82  1  0.90751487  0.29499350  0.49170184  1
  Sc  Sc83  1  0.89320473  0.10480692  0.69946909  1
  Sc  Sc84  1  0.29622416  0.89605664  0.30220472  1
  Sc  Sc85  1  0.51600969  0.50352589  0.90167183  1
  Sc  Sc86  1  0.89787266  0.10472570  0.49983336  1
  Sc  Sc87  1  0.69697895  0.09799603  0.50610348  1
  Sc  Sc88  1  0.91391420  0.69780294  0.89837425  1
  Sc  Sc89  1  0.70996256  0.90185637  0.50359558  1
  Sc  Sc90  1  0.29289788  0.90191524  0.49939345  1
  Sc  Sc91  1  0.70204834  0.89369359  0.08592091  1
  Sc  Sc92  1  0.49599810  0.50363807  0.10074469  1
  Sc  Sc93  1  0.50301896  0.88636912  0.09573713  1
  Sc  Sc94  1  0.10000410  0.89506191  0.89925119  1
  Sc  Sc95  1  0.49943601  0.70227064  0.70757203  1
  Sc  Sc96  1  0.69256288  0.49743164  0.10540500  1
  Sc  Sc97  1  0.29645878  0.49904562  0.29966788  1
  Sc  Sc98  1  0.10326884  0.29695959  0.49690540  1
  Sc  Sc99  1  0.09839723  0.29185241  0.89929989  1
  Nb  Nb100  1  0.70502391  0.50092664  0.89748334  1
  Nb  Nb101  1  0.30097937  0.50090058  0.10148838  1
  Nb  Nb102  1  0.29864324  0.70165705  0.69904396  1
  Nb  Nb103  1  0.89905625  0.50055116  0.10145317  1
  Nb  Nb104  1  0.50492139  0.30671642  0.50200648  1
  Nb  Nb105  1  0.10386243  0.70918432  0.50127602  1
  Nb  Nb106  1  0.10360813  0.70066110  0.90438922  1
  Nb  Nb107  1  0.50251250  0.30208442  0.89527109  1
  Nb  Nb108  1  0.29563326  0.70878869  0.50924506  1
  Nb  Nb109  1  0.29808178  0.49742938  0.69847022  1
  Nb  Nb110  1  0.90472437  0.89696671  0.49601826  1
  Nb  Nb111  1  0.09486913  0.69902960  0.08703319  1
  Nb  Nb112  1  0.09687357  0.30184881  0.10336093  1
  Nb  Nb113  1  0.89933860  0.49846172  0.90005437  1
  Nb  Nb114  1  0.69416554  0.70065782  0.30102496  1
  Nb  Nb115  1  0.69180906  0.30296686  0.49622732  1
  Nb  Nb116  1  0.89849477  0.88984903  0.89859099  1
  Nb  Nb117  1  0.69721283  0.09867545  0.30121822  1
  Nb  Nb118  1  0.09693915  0.89243766  0.49712747  1
  Nb  Nb119  1  0.89951837  0.30776236  0.10306656  1
  Nb  Nb120  1  0.30121312  0.90164829  0.09947631  1
  Nb  Nb121  1  0.69790006  0.69285648  0.89399734  1
  Nb  Nb122  1  0.30821631  0.30291380  0.50172383  1
  Nb  Nb123  1  0.89950701  0.30434073  0.69735395  1
  Nb  Nb124  1  0.70301588  0.70053905  0.70130566  1
  Nb  Nb125  1  0.60221214  0.00235697  0.39420479  1
  Nb  Nb126  1  0.60389737  0.79987968  0.21089952  1
  Nb  Nb127  1  0.80236523  0.59223888  -0.00613069  1
  Nb  Nb128  1  0.39906495  0.40129845  0.80076837  1
  Nb  Nb129  1  -0.00286158  -0.00745819  0.40369316  1
  Nb  Nb130  1  0.39171583  0.59220369  0.79715961  1
  Nb  Nb131  1  0.39715061  -0.00297052  0.00696781  1
  Nb  Nb132  1  0.20601776  0.60131299  0.79785599  1
  Nb  Nb133  1  0.59892755  -0.00508465  0.79850020  1
  Nb  Nb134  1  0.00129953  -0.00781103  0.59328352  1
  Nb  Nb135  1  0.40234497  0.20665338  0.79774222  1
  Nb  Nb136  1  0.80658412  0.21396067  0.00082048  1
  Nb  Nb137  1  0.80478316  0.39811623  0.60195814  1
  Nb  Nb138  1  0.60497272  0.79534894  0.60310847  1
  Nb  Nb139  1  0.39028847  0.60243712  0.60586250  1
  Nb  Nb140  1  -0.00061041  0.20399415  0.19454671  1
  Nb  Nb141  1  0.78816611  0.20049217  0.39521345  1
  Nb  Nb142  1  -0.00677798  0.40007421  0.60371799  1
  Nb  Nb143  1  0.80355428  0.40342393  -0.00284506  1
  Nb  Nb144  1  0.40313535  -0.00247779  0.19560848  1
  Nb  Nb145  1  0.19475883  0.20671936  0.19813996  1
  Nb  Nb146  1  0.00434539  0.59801361  0.19183919  1
  Nb  Nb147  1  0.59845402  -0.00592047  0.20494072  1
  Nb  Nb148  1  -0.00620000  0.40021323  0.00295852  1
  Nb  Nb149  1  0.20505889  0.40463765  0.79968228  1
  Pd  Pd150  1  0.20182829  0.60459438  0.59769018  1
  Pd  Pd151  1  0.79458076  0.00053687  0.80852347  1
  Pd  Pd152  1  0.20224168  0.20778268  0.39571803  1
  Pd  Pd153  1  -0.00194254  -0.01029664  -0.00533664  1
  Pd  Pd154  1  0.20299185  0.79117178  0.19530861  1
  Pd  Pd155  1  0.00040726  0.61152886  0.38743002  1
  Pd  Pd156  1  0.60705601  0.60178394  0.00665350  1
  Pd  Pd157  1  0.79349984  0.80535845  0.19387033  1
  Pd  Pd158  1  0.40111269  0.19498428  -0.00444126  1
  Pd  Pd159  1  0.59324639  -0.00092265  0.00297567  1
  Pd  Pd160  1  0.79603750  0.21086420  0.59041305  1
  Pd  Pd161  1  0.79078953  -0.00965826  0.18468236  1
  Pd  Pd162  1  0.38800128  0.59090393  0.41482028  1
  Pd  Pd163  1  0.20256624  -0.00244350  0.80205636  1
  Pd  Pd164  1  0.60187086  0.79900377  0.79911154  1
  Pd  Pd165  1  -0.00449038  0.59622413  0.60611867  1
  Pd  Pd166  1  0.20819651  0.20413635  0.79782154  1
  Pd  Pd167  1  0.40452257  0.00890042  0.81378099  1
  Pd  Pd168  1  0.79636639  0.21006946  0.19941636  1
  Pd  Pd169  1  0.59823059  0.59255137  0.40178251  1
  Pd  Pd170  1  0.20518186  0.00651310  0.20629721  1
  Pd  Pd171  1  0.00093144  0.19637470  0.60358662  1
  Pd  Pd172  1  0.79553602  0.19584442  0.80605963  1
  Pd  Pd173  1  0.60100705  0.20071918  0.59619604  1
  Pd  Pd174  1  0.41342972  0.40977174  -0.00624407  1
  Pd  Pd175  1  0.00364151  0.00534544  0.20581725  1
  Pd  Pd176  1  0.20840783  0.60246104  0.40917588  1
  Pd  Pd177  1  0.79770579  0.39178533  0.40335113  1
  Pd  Pd178  1  -0.00676857  0.20678792  -0.00049672  1
  Pd  Pd179  1  -0.00027753  -0.00117280  0.79021041  1
  Pd  Pd180  1  0.59688448  0.18939526  0.79753170  1
  Pd  Pd181  1  0.39788970  0.79039424  0.80637547  1
  Pd  Pd182  1  0.59841614  0.60725814  0.19516253  1
  Pd  Pd183  1  0.00048558  0.79277369  0.38772015  1
  Pd  Pd184  1  0.59372049  0.40878799  0.39245499  1
  Pd  Pd185  1  0.60683436  0.80831341  0.40688935  1
  Pd  Pd186  1  0.00422114  0.78822069  0.20469994  1
  Pd  Pd187  1  0.80090642  0.79095755  0.40583202  1
  Pd  Pd188  1  0.19658984  0.20350685  0.00350506  1
  Pd  Pd189  1  0.81157315  0.59289873  0.60348331  1
  Pd  Pd190  1  0.00193142  0.80795135  0.61132249  1
  Pd  Pd191  1  0.39457651  -0.00432231  0.59130538  1
  Pd  Pd192  1  0.40708154  0.20838395  0.40883907  1
  Pd  Pd193  1  0.20170347  0.60812997  0.19437111  1
  Pd  Pd194  1  0.80363298  0.60526984  0.39917479  1
  Pd  Pd195  1  0.81196916  -0.00362781  0.59782092  1
  Pd  Pd196  1  0.00013046  0.18827282  0.79426857  1
  Pd  Pd197  1  0.80381879  0.00274765  -0.00309886  1
  Pd  Pd198  1  0.58825322  0.60858465  0.60333544  1
  Pd  Pd199  1  0.60190607  0.19873201  0.19793542  1
  Rh  Rh200  1  0.59956016  0.40549012  0.79546211  1
  Rh  Rh201  1  0.60027089  0.40312541  0.00147297  1
  Rh  Rh202  1  0.39179850  0.59894361  0.19594341  1
  Rh  Rh203  1  0.39886442  0.40487413  0.19850863  1
  Rh  Rh204  1  0.59406181  0.60265285  0.79828662  1
  Rh  Rh205  1  0.20307860  -0.00664756  -0.00559516  1
  Rh  Rh206  1  0.18828461  0.39420986  0.59701201  1
  Rh  Rh207  1  0.40067770  0.59705369  -0.00270741  1
  Rh  Rh208  1  0.40573605  0.79485687  0.59825135  1
  Rh  Rh209  1  0.38903773  0.80403416  0.40859390  1
  Rh  Rh210  1  -0.01507249  0.18611018  0.38516765  1
  Rh  Rh211  1  0.18604230  0.39265562  -0.00913031  1
  Rh  Rh212  1  0.20365570  0.61024731  0.00169011  1
  Rh  Rh213  1  0.60219240  0.19732660  0.40702263  1
  Rh  Rh214  1  0.40225775  0.40076468  0.40463987  1
  Rh  Rh215  1  0.79883323  0.79774472  0.59558426  1
  Rh  Rh216  1  0.60687167  0.20796513  0.00554262  1
  Rh  Rh217  1  0.79065895  0.40278551  0.19803802  1
  Rh  Rh218  1  0.80143408  0.79135107  0.80988543  1
  Rh  Rh219  1  0.61315108  0.39841232  0.60536782  1
  Rh  Rh220  1  0.00252781  0.80044720  0.80236904  1
  Rh  Rh221  1  0.39741742  0.80691055  -0.00011471  1
  Rh  Rh222  1  0.80356258  0.78650603  -0.00968239  1
  Rh  Rh223  1  0.20094034  0.20226372  0.59300721  1
  Rh  Rh224  1  0.39042654  0.20071057  0.19811672  1
  Rh  Rh225  1  0.19491986  0.80385847  0.60141617  1
  Rh  Rh226  1  0.40382345  0.80339895  0.19868786  1
  Rh  Rh227  1  0.19906969  0.79046188  0.80328269  1
  Rh  Rh228  1  0.40262295  -0.00002280  0.39818812  1
  Rh  Rh229  1  0.40272319  0.20195458  0.59713569  1
  Rh  Rh230  1  0.01383822  0.39772106  0.80021359  1
  Rh  Rh231  1  0.80282931  0.60925339  0.80832070  1
  Rh  Rh232  1  0.19942402  0.39774940  0.40359683  1
  Rh  Rh233  1  0.00228795  0.80612274  -0.00544661  1
  Rh  Rh234  1  0.00933870  0.61018209  0.79531566  1
  Rh  Rh235  1  0.19953634  0.80020853  0.00316263  1
  Rh  Rh236  1  0.19363457  -0.00484956  0.39974539  1
  Rh  Rh237  1  0.60387031  0.78706821  0.00595104  1
  Rh  Rh238  1  0.20390519  0.79652992  0.40230103  1
  Rh  Rh239  1  0.80192430  0.59900486  0.19444500  1
  Rh  Rh240  1  0.59941082  -0.01263127  0.59926658  1
  Rh  Rh241  1  0.20304930  0.39724200  0.20433124  1
  Rh  Rh242  1  0.00554195  0.40454431  0.41109932  1
  Rh  Rh243  1  0.58989749  0.40630025  0.20485111  1
  Rh  Rh244  1  0.00756323  0.40675306  0.19254183  1
  Rh  Rh245  1  0.78776585  0.39724473  0.79682951  1
  Rh  Rh246  1  0.80060070  0.01019632  0.41029440  1
  Rh  Rh247  1  0.19433154  -0.00800064  0.59852604  1
  Rh  Rh248  1  0.40543469  0.40548314  0.59871527  1
  Rh  Rh249  1  -0.00387614  0.59425625  0.00599246  1
