# generated using pymatgen
data_ZrScNbPdRh
_symmetry_space_group_name_H-M   'P 1'
_cell_length_a   16.55215885
_cell_length_b   16.55314103
_cell_length_c   16.55323028
_cell_angle_alpha   89.96954068
_cell_angle_beta   89.98424134
_cell_angle_gamma   89.98659454
_symmetry_Int_Tables_number   1
_chemical_formula_structural   ZrScNbPdRh
_chemical_formula_sum   'Zr50 Sc50 Nb50 Pd50 Rh50'
_cell_volume   4535.42226690
_cell_formula_units_Z   50
loop_
 _symmetry_equiv_pos_site_id
 _symmetry_equiv_pos_as_xyz
  1  'x, y, z'
loop_
 _atom_site_type_symbol
 _atom_site_label
 _atom_site_symmetry_multiplicity
 _atom_site_fract_x
 _atom_site_fract_y
 _atom_site_fract_z
 _atom_site_occupancy
  Zr  Zr0  1  0.10178108  0.09532836  0.89681262  1
  Zr  Zr1  1  0.68956973  0.29433920  0.29464494  1
  Zr  Zr2  1  0.90592986  0.69610345  0.70247099  1
  Zr  Zr3  1  0.89094876  0.50320999  0.10616645  1
  Zr  Zr4  1  0.90148651  0.89773550  0.68586842  1
  Zr  Zr5  1  0.10454042  0.28854950  0.30302756  1
  Zr  Zr6  1  0.90232133  0.10044462  0.69179364  1
  Zr  Zr7  1  0.29872603  0.09612965  0.50604520  1
  Zr  Zr8  1  0.50280883  0.10190338  0.49612586  1
  Zr  Zr9  1  0.30142607  0.30836034  0.30065042  1
  Zr  Zr10  1  0.10250018  0.50453146  0.10154039  1
  Zr  Zr11  1  0.49487764  0.69626359  0.90320248  1
  Zr  Zr12  1  0.09718995  0.89598731  0.70405340  1
  Zr  Zr13  1  0.48959465  0.69743171  0.29984128  1
  Zr  Zr14  1  0.30310343  0.29890795  0.09864636  1
  Zr  Zr15  1  0.70177748  0.09373344  0.70326209  1
  Zr  Zr16  1  0.69586147  0.69160734  0.49910081  1
  Zr  Zr17  1  0.69891189  0.10252612  0.29795193  1
  Zr  Zr18  1  0.30015961  0.10632164  0.89440500  1
  Zr  Zr19  1  0.09447839  0.30802141  0.69207253  1
  Zr  Zr20  1  0.30352997  0.30604920  0.90373181  1
  Zr  Zr21  1  0.10303244  0.30552337  0.50124124  1
  Zr  Zr22  1  0.10313035  0.89008070  0.09378167  1
  Zr  Zr23  1  0.49293055  0.09406960  0.70196282  1
  Zr  Zr24  1  0.48951154  0.09747422  0.10209526  1
  Zr  Zr25  1  0.70330793  0.30784970  0.70162156  1
  Zr  Zr26  1  0.49598347  0.10130137  0.90197157  1
  Zr  Zr27  1  0.09334356  0.90156086  0.30690467  1
  Zr  Zr28  1  0.48982268  0.90140719  0.09918105  1
  Zr  Zr29  1  0.10648181  0.50240978  0.50714372  1
  Zr  Zr30  1  0.49553250  0.89098021  0.90868772  1
  Zr  Zr31  1  0.28948398  0.49792640  0.09457529  1
  Zr  Zr32  1  0.50313014  0.70023343  0.50021169  1
  Zr  Zr33  1  0.10804231  0.69878994  0.09757432  1
  Zr  Zr34  1  0.89749908  0.30973256  0.89577669  1
  Zr  Zr35  1  0.70496825  0.10907243  0.09804383  1
  Zr  Zr36  1  0.49528621  0.31250106  0.90218955  1
  Zr  Zr37  1  0.89907618  0.69952071  0.50296030  1
  Zr  Zr38  1  0.50134458  0.50514318  0.49708947  1
  Zr  Zr39  1  0.50426167  0.30702765  0.70141407  1
  Zr  Zr40  1  0.50279020  0.70411624  0.09178109  1
  Zr  Zr41  1  0.90813384  0.29994812  0.51223627  1
  Zr  Zr42  1  0.49164226  0.89428467  0.69959568  1
  Zr  Zr43  1  0.90446104  0.49913975  0.49172356  1
  Zr  Zr44  1  0.90103830  0.50039595  0.30345776  1
  Zr  Zr45  1  0.89296104  0.08892730  0.91206012  1
  Zr  Zr46  1  0.69119491  0.30142124  0.90645111  1
  Zr  Zr47  1  0.30078045  0.90651984  0.69577821  1
  Zr  Zr48  1  0.10248035  0.89563480  0.90022119  1
  Zr  Zr49  1  0.28902286  0.29943877  0.50080178  1
  Sc  Sc50  1  0.90512539  0.10002758  0.50238282  1
  Sc  Sc51  1  0.89508627  0.49450823  0.70798888  1
  Sc  Sc52  1  0.29576711  0.30159604  0.69995915  1
  Sc  Sc53  1  0.69781656  0.68889228  0.10010441  1
  Sc  Sc54  1  0.70461002  0.69496366  0.68417522  1
  Sc  Sc55  1  0.29637268  0.70296784  0.10935843  1
  Sc  Sc56  1  0.10465544  0.10711364  0.49303248  1
  Sc  Sc57  1  0.29702522  0.88713659  0.30190968  1
  Sc  Sc58  1  0.50283208  0.30246099  0.10271325  1
  Sc  Sc59  1  0.69190738  0.49582550  0.89841818  1
  Sc  Sc60  1  0.89049954  0.70145488  0.30519167  1
  Sc  Sc61  1  0.69842545  0.50369135  0.50357239  1
  Sc  Sc62  1  0.69767038  0.50103083  0.69634066  1
  Sc  Sc63  1  0.10646007  0.50172415  0.31263289  1
  Sc  Sc64  1  0.11233278  0.29759784  0.10670506  1
  Sc  Sc65  1  0.10887930  0.09534618  0.69804391  1
  Sc  Sc66  1  0.10475555  0.51080766  0.90845364  1
  Sc  Sc67  1  0.90530731  0.90561727  0.08682214  1
  Sc  Sc68  1  0.11318751  0.70226983  0.30507778  1
  Sc  Sc69  1  0.91752884  0.89548069  0.89585720  1
  Sc  Sc70  1  0.30073872  0.89925488  0.49531779  1
  Sc  Sc71  1  0.69669791  0.69696318  0.29900155  1
  Sc  Sc72  1  0.50484572  0.50227219  0.09866883  1
  Sc  Sc73  1  0.90118120  0.30140925  0.31024407  1
  Sc  Sc74  1  0.70393183  0.91162760  0.89547265  1
  Sc  Sc75  1  0.30455287  0.50653383  0.30306607  1
  Sc  Sc76  1  0.70432744  0.11117637  0.49960627  1
  Sc  Sc77  1  0.09166566  0.70311130  0.90123401  1
  Sc  Sc78  1  0.30062640  0.49770394  0.49493815  1
  Sc  Sc79  1  0.30610695  0.69356607  0.90258638  1
  Sc  Sc80  1  0.50369611  0.10261862  0.29338997  1
  Sc  Sc81  1  0.70436325  0.89968479  0.69609677  1
  Sc  Sc82  1  0.29825546  0.70103226  0.49797582  1
  Sc  Sc83  1  0.49754538  0.49769340  0.30256058  1
  Sc  Sc84  1  0.09803513  0.89394923  0.49531054  1
  Sc  Sc85  1  0.91883134  0.10085898  0.29625095  1
  Sc  Sc86  1  0.49528260  0.49765829  0.69394270  1
  Sc  Sc87  1  0.50775492  0.30982295  0.50101442  1
  Sc  Sc88  1  0.89179958  0.69670401  0.09952974  1
  Sc  Sc89  1  0.10578639  0.30238095  0.90108537  1
  Sc  Sc90  1  0.29877738  0.10316842  0.30045975  1
  Sc  Sc91  1  0.30310795  0.51326791  0.69645362  1
  Sc  Sc92  1  0.49103974  0.89392699  0.49812825  1
  Sc  Sc93  1  0.70066651  0.29986580  0.49743798  1
  Sc  Sc94  1  0.69835177  0.49757519  0.29381167  1
  Sc  Sc95  1  0.70284662  0.89220087  0.29423735  1
  Sc  Sc96  1  0.69067989  0.69468234  0.90930024  1
  Sc  Sc97  1  0.49224695  0.89871125  0.29997371  1
  Sc  Sc98  1  0.70214817  0.88508175  0.50329234  1
  Sc  Sc99  1  0.89679210  0.50903306  0.89670848  1
  Nb  Nb100  1  0.10172134  0.69495454  0.50434792  1
  Nb  Nb101  1  0.90122794  0.29886622  0.70710762  1
  Nb  Nb102  1  0.90346434  0.89865378  0.30204409  1
  Nb  Nb103  1  0.30611562  0.70612438  0.70227647  1
  Nb  Nb104  1  0.89566260  0.70377203  0.89759655  1
  Nb  Nb105  1  0.69774964  0.90011412  0.09788984  1
  Nb  Nb106  1  0.89993387  0.29727336  0.10314547  1
  Nb  Nb107  1  0.48802470  0.70176019  0.70322049  1
  Nb  Nb108  1  0.69900687  0.10142853  0.90056579  1
  Nb  Nb109  1  0.10870446  0.50814547  0.70188579  1
  Nb  Nb110  1  0.10299273  0.09957964  0.29044106  1
  Nb  Nb111  1  0.90657360  0.89679652  0.48640993  1
  Nb  Nb112  1  0.29773085  0.89625500  0.90515833  1
  Nb  Nb113  1  0.30716126  0.49521775  0.90107698  1
  Nb  Nb114  1  0.30053685  0.09844509  0.69859047  1
  Nb  Nb115  1  0.70031662  0.30435968  0.10388208  1
  Nb  Nb116  1  0.69742534  0.49236497  0.10315077  1
  Nb  Nb117  1  0.11111681  0.69267491  0.69279897  1
  Nb  Nb118  1  0.49870455  0.30138557  0.30345034  1
  Nb  Nb119  1  0.09643963  0.10202064  0.10708493  1
  Nb  Nb120  1  0.49327829  0.49890404  0.89648849  1
  Nb  Nb121  1  0.29849864  0.90023609  0.09707547  1
  Nb  Nb122  1  0.30005993  0.09859039  0.09642936  1
  Nb  Nb123  1  0.29906875  0.70009515  0.30119781  1
  Nb  Nb124  1  0.90414795  0.10281028  0.10018160  1
  Nb  Nb125  1  0.60722595  -0.00167310  0.40206717  1
  Nb  Nb126  1  0.19772324  0.00093597  0.19391426  1
  Nb  Nb127  1  0.39804597  0.19783958  0.59897060  1
  Nb  Nb128  1  0.58771721  0.60554654  0.79695633  1
  Nb  Nb129  1  0.60032530  0.79489621  0.79830238  1
  Nb  Nb130  1  0.00039042  0.40150143  0.19944908  1
  Nb  Nb131  1  0.80459981  -0.00538131  0.39405796  1
  Nb  Nb132  1  0.00154022  0.60152939  0.20368513  1
  Nb  Nb133  1  0.79839569  0.80164050  -0.00693396  1
  Nb  Nb134  1  0.20135410  0.41211302  0.79949882  1
  Nb  Nb135  1  0.79728178  0.39763964  0.00923613  1
  Nb  Nb136  1  0.60179171  0.00407527  0.00169755  1
  Nb  Nb137  1  0.80009832  0.79519403  0.80254414  1
  Nb  Nb138  1  -0.00214080  0.79740651  0.20246567  1
  Nb  Nb139  1  0.20409854  0.79531606  0.79403435  1
  Nb  Nb140  1  0.60286725  0.19733159  0.80372706  1
  Nb  Nb141  1  0.20418864  0.00202718  0.00449159  1
  Nb  Nb142  1  0.59518165  0.80084450  0.19183074  1
  Nb  Nb143  1  -0.00651249  0.20079950  0.80202002  1
  Nb  Nb144  1  0.59780973  -0.00055340  0.59546231  1
  Nb  Nb145  1  0.40199417  0.20675300  0.40343397  1
  Nb  Nb146  1  0.80759705  -0.00073540  0.19820504  1
  Nb  Nb147  1  -0.00491178  0.39798772  0.00948801  1
  Nb  Nb148  1  0.79943194  0.19842193  0.80304756  1
  Nb  Nb149  1  -0.00201731  0.20082808  0.00401759  1
  Pd  Pd150  1  0.79672413  0.80029122  0.40140855  1
  Pd  Pd151  1  0.19502047  0.19609358  0.00286676  1
  Pd  Pd152  1  0.00413782  0.79553842  0.59659767  1
  Pd  Pd153  1  0.79267459  0.59684330  -0.00393323  1
  Pd  Pd154  1  0.80241230  0.40404129  0.59708096  1
  Pd  Pd155  1  0.59819689  0.80474416  0.38933963  1
  Pd  Pd156  1  -0.00690287  0.60035240  0.00530603  1
  Pd  Pd157  1  0.59146289  0.19767928  0.00347264  1
  Pd  Pd158  1  -0.00443059  0.41317275  0.60473764  1
  Pd  Pd159  1  0.40300158  0.20904240  0.79332464  1
  Pd  Pd160  1  0.60598429  0.40474672  0.39891409  1
  Pd  Pd161  1  0.79217753  0.39750046  0.39984919  1
  Pd  Pd162  1  0.19233834  0.20936281  0.79122634  1
  Pd  Pd163  1  0.59665243  0.19746830  0.60753930  1
  Pd  Pd164  1  0.60630144  -0.00597493  0.20034971  1
  Pd  Pd165  1  0.80983249  0.19656947  0.20919892  1
  Pd  Pd166  1  -0.00022747  0.19843601  0.40436291  1
  Pd  Pd167  1  0.59746142  0.60266114  0.20271280  1
  Pd  Pd168  1  0.39402084  0.39535876  0.59837198  1
  Pd  Pd169  1  -0.00457167  0.59103146  0.60536145  1
  Pd  Pd170  1  0.00693387  0.60972790  0.39440159  1
  Pd  Pd171  1  0.20459487  0.60422922  0.80782773  1
  Pd  Pd172  1  0.40514206  0.40792743  0.19596896  1
  Pd  Pd173  1  0.40380234  0.00592737  0.39307273  1
  Pd  Pd174  1  0.00509981  0.59984648  0.79996556  1
  Pd  Pd175  1  0.00094847  -0.01038690  0.19356179  1
  Pd  Pd176  1  0.39886905  0.20267906  0.20591839  1
  Pd  Pd177  1  0.38695249  -0.00432678  0.21105420  1
  Pd  Pd178  1  0.39635167  0.59661011  0.19326521  1
  Pd  Pd179  1  0.20413916  0.80158284  0.59954690  1
  Pd  Pd180  1  0.19999346  0.00130035  0.39348296  1
  Pd  Pd181  1  0.79155516  0.59660794  0.39657491  1
  Pd  Pd182  1  0.81092347  0.19342600  0.39717455  1
  Pd  Pd183  1  0.81156890  -0.00667364  0.79918705  1
  Pd  Pd184  1  0.19564801  0.40625904  0.20920621  1
  Pd  Pd185  1  0.80477685  0.20844328  -0.00402993  1
  Pd  Pd186  1  0.78515674  0.60489469  0.80018882  1
  Pd  Pd187  1  0.39711065  0.60510937  0.59272631  1
  Pd  Pd188  1  0.79412644  -0.00459683  0.58292280  1
  Pd  Pd189  1  0.39584360  0.59596682  0.00931576  1
  Pd  Pd190  1  0.80147721  0.80399229  0.18857808  1
  Pd  Pd191  1  0.01065166  0.00205320  0.58875187  1
  Pd  Pd192  1  0.39416289  -0.00663835  0.80799956  1
  Pd  Pd193  1  0.79925900  0.20489035  0.60474437  1
  Pd  Pd194  1  0.59569307  -0.00531689  0.80113379  1
  Pd  Pd195  1  0.59804653  0.80121915  0.60769361  1
  Pd  Pd196  1  -0.00567013  0.00462557  0.79601560  1
  Pd  Pd197  1  0.19188940  -0.00502058  0.59390534  1
  Pd  Pd198  1  0.80299000  0.39368039  0.20447047  1
  Pd  Pd199  1  0.01211658  0.40709347  0.80891859  1
  Rh  Rh200  1  0.59012002  0.60144913  0.60771954  1
  Rh  Rh201  1  0.59440535  0.39833404  0.20196418  1
  Rh  Rh202  1  0.20984104  0.19346911  0.19942580  1
  Rh  Rh203  1  0.80687838  0.79701259  0.59865832  1
  Rh  Rh204  1  0.61152856  0.81133677  -0.00233065  1
  Rh  Rh205  1  0.19557527  0.40026457  -0.00875418  1
  Rh  Rh206  1  0.20505365  0.41155200  0.60991651  1
  Rh  Rh207  1  0.20542678  0.60306938  0.40480560  1
  Rh  Rh208  1  0.20852293  0.60261999  0.59516547  1
  Rh  Rh209  1  0.19856243  0.79611946  0.40550691  1
  Rh  Rh210  1  0.39578685  0.00188669  -0.00685265  1
  Rh  Rh211  1  0.39668051  0.79335309  0.40021609  1
  Rh  Rh212  1  -0.00112565  0.00677722  0.40313380  1
  Rh  Rh213  1  0.59791350  0.58708111  -0.00579929  1
  Rh  Rh214  1  0.79891660  0.59993827  0.20641566  1
  Rh  Rh215  1  0.60007618  0.40505334  0.00531525  1
  Rh  Rh216  1  0.59313868  0.19886236  0.39579672  1
  Rh  Rh217  1  0.40134680  0.20413554  0.00239104  1
  Rh  Rh218  1  0.38767900  0.79283116  0.00578450  1
  Rh  Rh219  1  0.20726371  0.60603309  -0.00446656  1
  Rh  Rh220  1  0.19862717  0.59874318  0.20695389  1
  Rh  Rh221  1  0.81021082  0.59129045  0.59720830  1
  Rh  Rh222  1  0.20007206  0.40301912  0.39821409  1
  Rh  Rh223  1  0.59335990  0.20383599  0.19442531  1
  Rh  Rh224  1  0.20822730  -0.00837693  0.80554158  1
  Rh  Rh225  1  0.20186321  0.19626431  0.60682033  1
  Rh  Rh226  1  0.40112860  0.79840510  0.19763320  1
  Rh  Rh227  1  0.00863274  0.39391164  0.39740747  1
  Rh  Rh228  1  0.40365310  0.00190012  0.59507717  1
  Rh  Rh229  1  0.79213766  -0.00540852  0.00818369  1
  Rh  Rh230  1  0.00433723  0.79066661  0.79116680  1
  Rh  Rh231  1  0.79168993  0.40058697  0.80594848  1
  Rh  Rh232  1  0.20625629  0.19603070  0.39535463  1
  Rh  Rh233  1  0.39427919  0.79673230  0.59317949  1
  Rh  Rh234  1  0.20595044  0.79543914  -0.00871974  1
  Rh  Rh235  1  -0.01142932  0.78746982  0.01007232  1
  Rh  Rh236  1  0.19549831  0.80614623  0.20500769  1
  Rh  Rh237  1  0.39466149  0.80391078  0.80457238  1
  Rh  Rh238  1  0.40326717  0.40456621  0.00912893  1
  Rh  Rh239  1  0.01266810  0.00792010  0.00347793  1
  Rh  Rh240  1  0.00112767  0.21075575  0.19659364  1
  Rh  Rh241  1  0.60524464  0.40503709  0.59683133  1
  Rh  Rh242  1  0.39873979  0.60253420  0.40260498  1
  Rh  Rh243  1  0.00752721  0.19699776  0.60552526  1
  Rh  Rh244  1  0.60010894  0.59582881  0.39481785  1
  Rh  Rh245  1  0.40216777  0.39516137  0.40293256  1
  Rh  Rh246  1  0.00273916  0.78951904  0.39676927  1
  Rh  Rh247  1  0.39040236  0.40557343  0.79171831  1
  Rh  Rh248  1  0.59709922  0.40681914  0.79653795  1
  Rh  Rh249  1  0.40287706  0.59437217  0.79842160  1
