# generated using pymatgen
data_ZrScNbPdRh
_symmetry_space_group_name_H-M   'P 1'
_cell_length_a   16.56352637
_cell_length_b   16.55813098
_cell_length_c   16.56213892
_cell_angle_alpha   89.99562017
_cell_angle_beta   90.01980191
_cell_angle_gamma   90.01743602
_symmetry_Int_Tables_number   1
_chemical_formula_structural   ZrScNbPdRh
_chemical_formula_sum   'Zr50 Sc50 Nb50 Pd50 Rh50'
_cell_volume   4542.34893864
_cell_formula_units_Z   50
loop_
 _symmetry_equiv_pos_site_id
 _symmetry_equiv_pos_as_xyz
  1  'x, y, z'
loop_
 _atom_site_type_symbol
 _atom_site_label
 _atom_site_symmetry_multiplicity
 _atom_site_fract_x
 _atom_site_fract_y
 _atom_site_fract_z
 _atom_site_occupancy
  Zr  Zr0  1  0.69944490  0.31000051  0.30716602  1
  Zr  Zr1  1  0.30295662  0.09957554  0.89826491  1
  Zr  Zr2  1  0.50392971  0.50933829  0.91294619  1
  Zr  Zr3  1  0.31482330  0.29765642  0.10818593  1
  Zr  Zr4  1  0.90399151  0.69928058  0.10170694  1
  Zr  Zr5  1  0.10020697  0.50009671  0.29873050  1
  Zr  Zr6  1  0.89822054  0.50075009  0.29971031  1
  Zr  Zr7  1  0.71101685  0.30299581  0.89394840  1
  Zr  Zr8  1  0.10383238  0.09737651  0.09857851  1
  Zr  Zr9  1  0.10531383  0.09881697  0.90372281  1
  Zr  Zr10  1  0.89561436  0.68680122  0.90184223  1
  Zr  Zr11  1  0.68949814  0.69638455  0.50846805  1
  Zr  Zr12  1  0.70863985  0.50324705  0.90176061  1
  Zr  Zr13  1  0.51293189  0.31343380  0.49486165  1
  Zr  Zr14  1  0.10220378  0.09592436  0.69749685  1
  Zr  Zr15  1  0.89503869  0.89594614  0.29768452  1
  Zr  Zr16  1  0.69780357  0.30814132  0.10063816  1
  Zr  Zr17  1  0.90409781  0.09765747  0.50044987  1
  Zr  Zr18  1  0.30650774  0.70459335  0.50270249  1
  Zr  Zr19  1  0.10525914  0.89677950  0.89906744  1
  Zr  Zr20  1  0.70545062  0.69890044  0.10129409  1
  Zr  Zr21  1  0.49520932  0.08924065  0.90028507  1
  Zr  Zr22  1  0.29788542  0.09569232  0.49727419  1
  Zr  Zr23  1  0.10239387  0.50048587  0.09594020  1
  Zr  Zr24  1  0.09679554  0.89567465  0.69085855  1
  Zr  Zr25  1  0.30778085  0.50039177  0.10369809  1
  Zr  Zr26  1  0.69467730  0.09425215  0.90585384  1
  Zr  Zr27  1  0.49538695  0.30157905  0.70185358  1
  Zr  Zr28  1  0.10187364  0.29562661  0.10176628  1
  Zr  Zr29  1  0.49126801  0.30130798  0.89961207  1
  Zr  Zr30  1  0.70149670  0.09164830  0.10153991  1
  Zr  Zr31  1  0.89661532  0.09856833  0.70155497  1
  Zr  Zr32  1  0.69861677  0.10640374  0.70853846  1
  Zr  Zr33  1  0.30284703  0.70309400  0.89218228  1
  Zr  Zr34  1  0.30231056  0.70120255  0.29764644  1
  Zr  Zr35  1  0.49401909  0.70580837  0.30787533  1
  Zr  Zr36  1  0.69322101  0.49740985  0.49648458  1
  Zr  Zr37  1  0.70122583  0.51176689  0.69409216  1
  Zr  Zr38  1  0.69541906  0.30444688  0.69556137  1
  Zr  Zr39  1  0.10455230  0.09254603  0.50379761  1
  Zr  Zr40  1  0.29850438  0.10034656  0.69516662  1
  Zr  Zr41  1  0.10171318  0.30204633  0.90271113  1
  Zr  Zr42  1  0.10316061  0.89421288  0.10247105  1
  Zr  Zr43  1  0.29929037  0.09613598  0.09803555  1
  Zr  Zr44  1  0.29708427  0.89711250  0.10258583  1
  Zr  Zr45  1  0.29895318  0.30076654  0.29935811  1
  Zr  Zr46  1  0.90536554  0.50213172  0.09744710  1
  Zr  Zr47  1  0.10570320  0.50360415  0.69830855  1
  Zr  Zr48  1  0.89436214  0.50360535  0.50302442  1
  Zr  Zr49  1  0.50298827  0.89757868  0.30255550  1
  Sc  Sc50  1  0.49842006  0.08240636  0.49044659  1
  Sc  Sc51  1  0.69902319  0.70580705  0.30096115  1
  Sc  Sc52  1  0.29732962  0.50528753  0.29938156  1
  Sc  Sc53  1  0.10226872  0.50352610  0.50259565  1
  Sc  Sc54  1  0.30408439  0.90513980  0.50331406  1
  Sc  Sc55  1  0.89874067  0.69187286  0.29077176  1
  Sc  Sc56  1  0.10238444  0.70379631  0.70328724  1
  Sc  Sc57  1  0.70434121  0.88307525  0.49327836  1
  Sc  Sc58  1  0.49858743  0.89238671  0.70336221  1
  Sc  Sc59  1  0.29824215  0.89189350  0.69672437  1
  Sc  Sc60  1  0.49989819  0.89533318  0.10185654  1
  Sc  Sc61  1  0.89934036  0.10017301  0.30064669  1
  Sc  Sc62  1  0.89447672  0.50954054  0.70122343  1
  Sc  Sc63  1  0.09963142  0.69547615  0.51421896  1
  Sc  Sc64  1  0.10314473  0.29435959  0.29909553  1
  Sc  Sc65  1  0.90403012  0.30095858  0.10212998  1
  Sc  Sc66  1  0.10449679  0.69511415  0.89768235  1
  Sc  Sc67  1  0.50137775  0.51011259  0.29863180  1
  Sc  Sc68  1  0.29726676  0.50829641  0.89330951  1
  Sc  Sc69  1  0.49867118  0.30631102  0.29432551  1
  Sc  Sc70  1  0.29734999  0.50314926  0.69773176  1
  Sc  Sc71  1  0.49379614  0.09944854  0.09615006  1
  Sc  Sc72  1  0.10666318  0.29281282  0.49674415  1
  Sc  Sc73  1  0.29922350  0.70078200  0.10269013  1
  Sc  Sc74  1  0.87550758  0.29779531  0.70417466  1
  Sc  Sc75  1  0.89758362  0.10033208  0.10451254  1
  Sc  Sc76  1  0.30219448  0.30865773  0.70507796  1
  Sc  Sc77  1  0.49617809  0.70581420  0.69338395  1
  Sc  Sc78  1  0.10280394  0.69487835  0.09835713  1
  Sc  Sc79  1  0.09899285  0.69462787  0.28828803  1
  Sc  Sc80  1  0.90121026  0.89836223  0.50257081  1
  Sc  Sc81  1  0.69886594  0.09948476  0.49078317  1
  Sc  Sc82  1  0.70316550  0.50667545  0.29582421  1
  Sc  Sc83  1  0.29156799  0.30478462  0.50699300  1
  Sc  Sc84  1  0.49726835  0.09982109  0.71138898  1
  Sc  Sc85  1  0.50976100  0.09257492  0.30391166  1
  Sc  Sc86  1  0.90467097  0.89060517  0.90829018  1
  Sc  Sc87  1  0.49195782  0.50506130  0.69110779  1
  Sc  Sc88  1  0.90033231  0.69843503  0.69555325  1
  Sc  Sc89  1  0.70347896  0.08995858  0.29397996  1
  Sc  Sc90  1  0.89766128  0.69644989  0.50098831  1
  Sc  Sc91  1  0.30147913  0.89552807  0.29983530  1
  Sc  Sc92  1  0.30688948  0.89828394  0.90167061  1
  Sc  Sc93  1  0.89540517  0.10153173  0.91055459  1
  Sc  Sc94  1  0.29658846  0.50950169  0.50487702  1
  Sc  Sc95  1  0.11664018  0.30260001  0.69803237  1
  Sc  Sc96  1  0.89954162  0.89134659  0.10207440  1
  Sc  Sc97  1  0.29916549  0.10093263  0.30180939  1
  Sc  Sc98  1  0.10197702  0.50551733  0.90049148  1
  Sc  Sc99  1  0.10608002  0.10166862  0.31144363  1
  Nb  Nb100  1  0.29819947  0.30369965  0.89762640  1
  Nb  Nb101  1  0.50098801  0.70697463  0.89785420  1
  Nb  Nb102  1  0.89233623  0.30394680  0.50406276  1
  Nb  Nb103  1  0.49793060  0.88971719  0.49597580  1
  Nb  Nb104  1  0.69772367  0.89117564  0.69772900  1
  Nb  Nb105  1  0.69925053  0.70070074  0.89801840  1
  Nb  Nb106  1  0.69915263  0.90003550  0.10870859  1
  Nb  Nb107  1  0.50151350  0.30963896  0.09809355  1
  Nb  Nb108  1  0.50922768  0.49572030  0.09700197  1
  Nb  Nb109  1  0.09990453  0.90197731  0.49721619  1
  Nb  Nb110  1  0.90035129  0.30993714  0.89833542  1
  Nb  Nb111  1  0.10169468  0.89657916  0.29982683  1
  Nb  Nb112  1  0.50103748  0.89164429  0.89925219  1
  Nb  Nb113  1  0.90276243  0.49148820  0.89952032  1
  Nb  Nb114  1  0.29769005  0.70256699  0.69652811  1
  Nb  Nb115  1  0.69573637  0.70728307  0.69950660  1
  Nb  Nb116  1  0.50197201  0.68958113  0.09348685  1
  Nb  Nb117  1  0.89702248  0.89956245  0.70187100  1
  Nb  Nb118  1  0.69767086  0.89981902  0.28126543  1
  Nb  Nb119  1  0.89778877  0.30357029  0.30369841  1
  Nb  Nb120  1  0.69138661  0.89788671  0.90092907  1
  Nb  Nb121  1  0.70271388  0.30681091  0.50160615  1
  Nb  Nb122  1  0.67992204  0.50246679  0.09470785  1
  Nb  Nb123  1  0.49941494  0.51629836  0.49546998  1
  Nb  Nb124  1  0.49922854  0.70051232  0.49426607  1
  Nb  Nb125  1  0.40415181  0.20730044  0.40675453  1
  Nb  Nb126  1  -0.00446472  0.20642414  0.60433001  1
  Nb  Nb127  1  0.19150311  0.80166808  0.40279178  1
  Nb  Nb128  1  -0.00339206  -0.00051814  0.79995395  1
  Nb  Nb129  1  0.60049668  0.20463341  0.19182511  1
  Nb  Nb130  1  -0.00222573  0.20308425  0.79887832  1
  Nb  Nb131  1  0.60110347  0.60805740  0.80217841  1
  Nb  Nb132  1  0.79243327  -0.00609515  0.60715144  1
  Nb  Nb133  1  0.60525361  -0.00509571  0.60166228  1
  Nb  Nb134  1  0.79279979  0.80034980  0.80003626  1
  Nb  Nb135  1  0.60142994  0.79790187  -0.00337482  1
  Nb  Nb136  1  0.00704358  0.80058314  0.39739843  1
  Nb  Nb137  1  0.20782196  0.39587503  0.00104928  1
  Nb  Nb138  1  0.40751992  0.20068218  0.59279835  1
  Nb  Nb139  1  0.40022184  -0.00305383  0.20035312  1
  Nb  Nb140  1  0.59732629  0.20616008  0.00270076  1
  Nb  Nb141  1  0.79718317  -0.01193989  0.80162813  1
  Nb  Nb142  1  0.59594983  0.19676699  0.59305856  1
  Nb  Nb143  1  0.80101852  0.21162468  0.40203998  1
  Nb  Nb144  1  -0.00449889  0.39560147  0.79693289  1
  Nb  Nb145  1  0.40088375  0.40379314  0.40313108  1
  Nb  Nb146  1  -0.00669808  0.39559309  0.40456178  1
  Nb  Nb147  1  0.59976641  0.40958963  0.80165669  1
  Nb  Nb148  1  -0.00536265  0.39258165  0.60226506  1
  Nb  Nb149  1  0.00701511  -0.00556971  0.20363510  1
  Pd  Pd150  1  0.41174186  0.18981770  0.21137292  1
  Pd  Pd151  1  0.79338206  0.80476125  -0.00217021  1
  Pd  Pd152  1  -0.00713078  0.20198261  -0.00277209  1
  Pd  Pd153  1  0.59309569  0.79085492  0.19311981  1
  Pd  Pd154  1  0.00071599  0.59476088  0.79806282  1
  Pd  Pd155  1  0.00244789  0.19116836  0.20580794  1
  Pd  Pd156  1  0.39686203  0.40079442  0.59083613  1
  Pd  Pd157  1  0.59882438  0.60856479  0.20544697  1
  Pd  Pd158  1  0.59722528  0.40319462  0.20795747  1
  Pd  Pd159  1  0.59622123  0.20834634  0.80656873  1
  Pd  Pd160  1  -0.00340724  -0.00236355  0.00359448  1
  Pd  Pd161  1  0.20167221  0.39929330  0.19535583  1
  Pd  Pd162  1  0.20119990  0.79348479  -0.00259070  1
  Pd  Pd163  1  0.40710258  0.59989647  0.19805907  1
  Pd  Pd164  1  0.79876761  0.40819804  0.19282158  1
  Pd  Pd165  1  0.00225218  0.39758814  0.20649608  1
  Pd  Pd166  1  0.59207880  -0.00531486  0.00858961  1
  Pd  Pd167  1  0.20183890  0.20155833  0.79753683  1
  Pd  Pd168  1  -0.00510815  0.20702688  0.40626297  1
  Pd  Pd169  1  0.59662531  0.40753840  0.60527743  1
  Pd  Pd170  1  0.20079824  -0.00896330  0.79767338  1
  Pd  Pd171  1  0.80672782  0.79187903  0.39604818  1
  Pd  Pd172  1  0.39387089  0.60420155  0.00091098  1
  Pd  Pd173  1  -0.00663977  0.79992256  0.80200435  1
  Pd  Pd174  1  0.80146939  0.40426580  0.01018549  1
  Pd  Pd175  1  0.00683192  0.78937816  -0.00254758  1
  Pd  Pd176  1  0.41104254  0.00072946  0.60641367  1
  Pd  Pd177  1  0.60256824  0.20033308  0.39664013  1
  Pd  Pd178  1  0.79402020  0.20252352  0.20815964  1
  Pd  Pd179  1  0.79556454  -0.00149736  0.40291682  1
  Pd  Pd180  1  0.21060853  0.20628448  0.00414780  1
  Pd  Pd181  1  0.59955488  -0.00770218  0.79294953  1
  Pd  Pd182  1  0.39284080  0.40655572  -0.00517353  1
  Pd  Pd183  1  0.40674868  0.60331410  0.79433861  1
  Pd  Pd184  1  0.61247829  -0.01446698  0.40496266  1
  Pd  Pd185  1  0.40410712  0.79753411  0.00594080  1
  Pd  Pd186  1  0.20101032  0.00243456  0.20917084  1
  Pd  Pd187  1  -0.00194864  -0.00644557  0.39287381  1
  Pd  Pd188  1  0.19642173  0.61068677  0.40118642  1
  Pd  Pd189  1  0.80517080  -0.01216548  0.00040921  1
  Pd  Pd190  1  -0.00506861  0.79695156  0.59397558  1
  Pd  Pd191  1  0.79994224  0.59422780  0.00695298  1
  Pd  Pd192  1  0.00443109  0.60249174  0.40218754  1
  Pd  Pd193  1  0.19862407  0.40248548  0.40422566  1
  Pd  Pd194  1  0.79348354  0.60682690  0.40080234  1
  Pd  Pd195  1  0.79306939  0.19152878  0.58984919  1
  Pd  Pd196  1  0.40217616  0.19970876  -0.00197713  1
  Pd  Pd197  1  0.79786926  0.20466395  0.00209203  1
  Pd  Pd198  1  0.40305841  0.41385497  0.80439849  1
  Pd  Pd199  1  0.39611257  -0.01060054  0.79407668  1
  Rh  Rh200  1  0.20665359  0.59604576  0.00117720  1
  Rh  Rh201  1  0.19696937  0.40541163  0.80876789  1
  Rh  Rh202  1  0.59152617  0.00502387  0.19340372  1
  Rh  Rh203  1  0.60018649  0.79613195  0.80428333  1
  Rh  Rh204  1  0.79584503  0.60761177  0.79714946  1
  Rh  Rh205  1  0.79658446  0.60760578  0.59576052  1
  Rh  Rh206  1  0.80517654  0.79883286  0.60457324  1
  Rh  Rh207  1  0.20232650  0.60524050  0.60487919  1
  Rh  Rh208  1  0.79924609  0.41157467  0.79212153  1
  Rh  Rh209  1  0.39484495  0.59571866  0.40145137  1
  Rh  Rh210  1  0.20155830  0.59967186  0.19747371  1
  Rh  Rh211  1  0.59451749  0.41528832  0.39339967  1
  Rh  Rh212  1  0.60305551  0.80142880  0.39757769  1
  Rh  Rh213  1  0.39905397  0.60711172  0.59903322  1
  Rh  Rh214  1  0.40729663  0.41055793  0.20697198  1
  Rh  Rh215  1  0.81037708  -0.00533612  0.19593150  1
  Rh  Rh216  1  0.80043274  0.79644772  0.20109031  1
  Rh  Rh217  1  0.39127153  0.80479910  0.40366160  1
  Rh  Rh218  1  0.39645353  -0.00073917  0.38966944  1
  Rh  Rh219  1  0.19639123  0.19588496  0.19988203  1
  Rh  Rh220  1  0.39995666  -0.00804439  0.00490045  1
  Rh  Rh221  1  0.39073510  0.19930823  0.79475381  1
  Rh  Rh222  1  0.00173441  0.80255517  0.20426318  1
  Rh  Rh223  1  0.00698074  0.40187413  -0.00458749  1
  Rh  Rh224  1  0.00148224  0.60021600  -0.00390627  1
  Rh  Rh225  1  0.20458351  -0.00841188  0.40003971  1
  Rh  Rh226  1  0.59114015  0.80352834  0.59341564  1
  Rh  Rh227  1  0.20157970  0.80081518  0.59376058  1
  Rh  Rh228  1  0.21009668  0.20049149  0.40133094  1
  Rh  Rh229  1  -0.00486372  0.00177296  0.60432755  1
  Rh  Rh230  1  0.20147253  -0.00800783  0.59941922  1
  Rh  Rh231  1  0.19464382  0.40462190  0.59787271  1
  Rh  Rh232  1  0.40268582  0.80048798  0.59807847  1
  Rh  Rh233  1  0.60335414  0.60404154  0.39563059  1
  Rh  Rh234  1  0.60050788  0.39216485  -0.01150939  1
  Rh  Rh235  1  0.20000672  0.79368482  0.20529288  1
  Rh  Rh236  1  0.00221242  0.59621158  0.19666192  1
  Rh  Rh237  1  0.80283756  0.40205728  0.40045888  1
  Rh  Rh238  1  0.20242528  0.60626283  0.79458385  1
  Rh  Rh239  1  0.60269453  0.61007417  -0.00337069  1
  Rh  Rh240  1  0.20501792  -0.00562197  -0.00556246  1
  Rh  Rh241  1  0.80027913  0.40894281  0.60420819  1
  Rh  Rh242  1  0.00088090  0.59436576  0.60437566  1
  Rh  Rh243  1  0.20462115  0.19936463  0.60107257  1
  Rh  Rh244  1  0.39645568  0.79951663  0.79638202  1
  Rh  Rh245  1  0.20279934  0.80040123  0.79911328  1
  Rh  Rh246  1  0.59138239  0.60475475  0.60469085  1
  Rh  Rh247  1  0.79499353  0.59378118  0.19207459  1
  Rh  Rh248  1  0.40471151  0.79998962  0.19563553  1
  Rh  Rh249  1  0.80531542  0.19013178  0.81511385  1
