# generated using pymatgen
data_ZrScNbPdRh
_symmetry_space_group_name_H-M   'P 1'
_cell_length_a   16.55438427
_cell_length_b   16.55583794
_cell_length_c   16.55879305
_cell_angle_alpha   89.98180671
_cell_angle_beta   89.99758148
_cell_angle_gamma   90.01828245
_symmetry_Int_Tables_number   1
_chemical_formula_structural   ZrScNbPdRh
_chemical_formula_sum   'Zr50 Sc50 Nb50 Pd50 Rh50'
_cell_volume   4538.29614794
_cell_formula_units_Z   50
loop_
 _symmetry_equiv_pos_site_id
 _symmetry_equiv_pos_as_xyz
  1  'x, y, z'
loop_
 _atom_site_type_symbol
 _atom_site_label
 _atom_site_symmetry_multiplicity
 _atom_site_fract_x
 _atom_site_fract_y
 _atom_site_fract_z
 _atom_site_occupancy
  Zr  Zr0  1  0.70266171  0.69917262  0.09984635  1
  Zr  Zr1  1  0.70067053  0.50333515  0.90157824  1
  Zr  Zr2  1  0.50178366  0.89427853  0.49467910  1
  Zr  Zr3  1  0.49649585  0.09707567  0.70022323  1
  Zr  Zr4  1  0.29502612  0.69033611  0.90563274  1
  Zr  Zr5  1  0.90383644  0.30055189  0.30937631  1
  Zr  Zr6  1  0.89271730  0.10646055  0.69391281  1
  Zr  Zr7  1  0.50206719  0.49936192  0.89399614  1
  Zr  Zr8  1  0.89891614  0.69147069  0.50894379  1
  Zr  Zr9  1  0.69069461  0.30597149  0.49661214  1
  Zr  Zr10  1  0.10819586  0.70003046  0.29429053  1
  Zr  Zr11  1  0.48856958  0.89660467  0.70432514  1
  Zr  Zr12  1  0.29485233  0.69956982  0.10962257  1
  Zr  Zr13  1  0.49402495  0.29718706  0.30372315  1
  Zr  Zr14  1  0.49508694  0.69466395  0.10329664  1
  Zr  Zr15  1  0.10721172  0.90706031  0.70938945  1
  Zr  Zr16  1  0.10684755  0.49627096  0.69579331  1
  Zr  Zr17  1  0.50421627  0.89499155  0.09739289  1
  Zr  Zr18  1  0.10346755  0.30355435  0.89506033  1
  Zr  Zr19  1  0.10059252  0.49930724  0.50026234  1
  Zr  Zr20  1  0.31227089  0.10712635  0.90066374  1
  Zr  Zr21  1  0.90327897  0.49843659  0.49715373  1
  Zr  Zr22  1  0.50692149  0.30171419  0.10051327  1
  Zr  Zr23  1  0.70335598  0.70114829  0.89646983  1
  Zr  Zr24  1  0.69582284  0.10215585  0.69428483  1
  Zr  Zr25  1  0.30032092  0.90429190  0.49840839  1
  Zr  Zr26  1  0.69729638  0.49311882  0.10465736  1
  Zr  Zr27  1  0.70363844  0.70294170  0.29806740  1
  Zr  Zr28  1  0.89260681  0.29856478  0.70103714  1
  Zr  Zr29  1  0.10392296  0.10552402  0.49744915  1
  Zr  Zr30  1  0.50150137  0.70248460  0.89818950  1
  Zr  Zr31  1  0.09799564  0.69918737  0.70514051  1
  Zr  Zr32  1  0.89485632  0.50730839  0.09869551  1
  Zr  Zr33  1  0.29907569  0.10277879  0.30587019  1
  Zr  Zr34  1  0.10999936  0.10787017  0.70055995  1
  Zr  Zr35  1  0.10371870  0.10210724  0.90092345  1
  Zr  Zr36  1  0.69443181  0.10359124  0.10717116  1
  Zr  Zr37  1  0.89658549  0.70318371  0.70634908  1
  Zr  Zr38  1  0.10056017  0.89465851  0.10313607  1
  Zr  Zr39  1  0.50084632  0.10245008  0.08640192  1
  Zr  Zr40  1  0.69828977  0.49420512  0.30412461  1
  Zr  Zr41  1  0.29991326  0.09520468  0.70067637  1
  Zr  Zr42  1  0.50374079  0.90205137  0.89305339  1
  Zr  Zr43  1  0.90093815  0.89657147  0.70671650  1
  Zr  Zr44  1  0.49403367  0.29620603  0.50498152  1
  Zr  Zr45  1  0.90074691  0.30985266  0.89913430  1
  Zr  Zr46  1  0.70048128  0.08753469  0.49954586  1
  Zr  Zr47  1  0.49781604  0.30099087  0.89806385  1
  Zr  Zr48  1  0.69566985  0.50444091  0.50213702  1
  Zr  Zr49  1  0.29262393  0.49795006  0.50858836  1
  Sc  Sc50  1  0.30030730  0.30048105  0.49980076  1
  Sc  Sc51  1  0.30220309  0.29945507  0.30893104  1
  Sc  Sc52  1  0.11070070  0.49151516  0.90229003  1
  Sc  Sc53  1  0.89864749  0.50806291  0.69276932  1
  Sc  Sc54  1  0.49726891  0.50006502  0.70035248  1
  Sc  Sc55  1  0.30273498  0.49520893  0.29976824  1
  Sc  Sc56  1  0.10203058  0.30257121  0.08849877  1
  Sc  Sc57  1  0.30206637  0.10443538  0.50291417  1
  Sc  Sc58  1  0.29871087  0.29898269  0.09403064  1
  Sc  Sc59  1  0.89751875  0.09777377  0.30606957  1
  Sc  Sc60  1  0.30101084  0.49923327  0.70138371  1
  Sc  Sc61  1  0.70057345  0.09581671  0.29691668  1
  Sc  Sc62  1  0.09850446  0.10346610  0.09861138  1
  Sc  Sc63  1  0.29724845  0.89139288  0.30842028  1
  Sc  Sc64  1  0.50151386  0.70941923  0.29586480  1
  Sc  Sc65  1  0.69015219  0.90268219  0.70186504  1
  Sc  Sc66  1  0.50742402  0.49512361  0.50523197  1
  Sc  Sc67  1  0.10551184  0.70280247  0.10323467  1
  Sc  Sc68  1  0.30447552  0.50784721  0.10651438  1
  Sc  Sc69  1  0.09811567  0.50394757  0.10735398  1
  Sc  Sc70  1  0.90277069  0.70673040  0.28987896  1
  Sc  Sc71  1  0.69523426  0.09400521  0.90368015  1
  Sc  Sc72  1  0.10123069  0.69142410  0.49577266  1
  Sc  Sc73  1  0.49788910  0.70031451  0.69807355  1
  Sc  Sc74  1  0.10685591  0.10359073  0.30560906  1
  Sc  Sc75  1  0.49582313  0.49365510  0.29069754  1
  Sc  Sc76  1  0.49660708  0.30803794  0.69415553  1
  Sc  Sc77  1  0.29718832  0.30306496  0.69637405  1
  Sc  Sc78  1  0.30217168  0.89802433  0.88937002  1
  Sc  Sc79  1  0.09577958  0.50187169  0.30422138  1
  Sc  Sc80  1  0.69954722  0.31242256  0.89547196  1
  Sc  Sc81  1  0.69690885  0.69703612  0.70011026  1
  Sc  Sc82  1  0.68682022  0.70084734  0.49909561  1
  Sc  Sc83  1  0.90363416  0.49491653  0.29229809  1
  Sc  Sc84  1  0.70022755  0.90550495  0.30625764  1
  Sc  Sc85  1  0.90390652  0.08539539  0.10033238  1
  Sc  Sc86  1  0.29605872  0.30513492  0.89721879  1
  Sc  Sc87  1  0.70600850  0.29446754  0.29238161  1
  Sc  Sc88  1  0.89832855  0.90733510  0.48535494  1
  Sc  Sc89  1  0.10241866  0.89200989  0.90153941  1
  Sc  Sc90  1  0.90057474  0.89158713  0.90710948  1
  Sc  Sc91  1  0.89948694  0.30991535  0.10389299  1
  Sc  Sc92  1  0.69532494  0.89381271  0.89941028  1
  Sc  Sc93  1  0.68919631  0.50215529  0.69883889  1
  Sc  Sc94  1  0.70363661  0.90236174  0.10093159  1
  Sc  Sc95  1  0.29623557  0.70185257  0.49998001  1
  Sc  Sc96  1  0.90086275  0.89840343  0.29525443  1
  Sc  Sc97  1  0.49368692  0.09702624  0.50463561  1
  Sc  Sc98  1  0.50949593  0.09393261  0.29705455  1
  Sc  Sc99  1  0.09954703  0.89702261  0.30784388  1
  Nb  Nb100  1  0.90684876  0.89059059  0.10613907  1
  Nb  Nb101  1  0.30464010  0.09803299  0.09883584  1
  Nb  Nb102  1  0.29937325  0.69554755  0.29929958  1
  Nb  Nb103  1  0.49970619  0.90619888  0.29604662  1
  Nb  Nb104  1  0.70252061  0.89866290  0.49945903  1
  Nb  Nb105  1  0.49700264  0.49898569  0.10055485  1
  Nb  Nb106  1  0.09940431  0.30000639  0.49409034  1
  Nb  Nb107  1  0.89787040  0.70583749  0.09883043  1
  Nb  Nb108  1  0.90595500  0.29373464  0.49822224  1
  Nb  Nb109  1  0.90111001  0.10332240  0.90146529  1
  Nb  Nb110  1  0.30128292  0.89867471  0.69991365  1
  Nb  Nb111  1  0.90278168  0.10496096  0.50032601  1
  Nb  Nb112  1  0.69646614  0.29688356  0.69633921  1
  Nb  Nb113  1  0.10301038  0.29869358  0.30631923  1
  Nb  Nb114  1  0.89577956  0.69810660  0.90012087  1
  Nb  Nb115  1  0.89779557  0.50535115  0.90231999  1
  Nb  Nb116  1  0.29758374  0.89597084  0.09572108  1
  Nb  Nb117  1  0.10210044  0.89964198  0.50050545  1
  Nb  Nb118  1  0.29790802  0.70429282  0.69978347  1
  Nb  Nb119  1  0.49845554  0.69579096  0.49790760  1
  Nb  Nb120  1  0.69964284  0.29405702  0.09846993  1
  Nb  Nb121  1  0.30513319  0.49748489  0.90524800  1
  Nb  Nb122  1  0.49951564  0.10247258  0.89475927  1
  Nb  Nb123  1  0.10157345  0.30147768  0.70023984  1
  Nb  Nb124  1  0.09643183  0.69679542  0.90161019  1
  Nb  Nb125  1  -0.00240284  0.20231931  0.80051715  1
  Nb  Nb126  1  -0.00435060  0.00961318  0.80049831  1
  Nb  Nb127  1  0.20795884  -0.00112600  0.00456460  1
  Nb  Nb128  1  0.79992491  0.20044813  0.00148659  1
  Nb  Nb129  1  -0.00666853  0.60599282  -0.00539626  1
  Nb  Nb130  1  0.39933528  0.19283471  0.19547685  1
  Nb  Nb131  1  0.59872291  0.19987700  0.79684580  1
  Nb  Nb132  1  0.39701528  0.79722202  0.00118234  1
  Nb  Nb133  1  0.19736496  0.39295970  0.20492521  1
  Nb  Nb134  1  0.80193736  0.39418665  0.59601384  1
  Nb  Nb135  1  0.80508289  0.00404094  0.80221826  1
  Nb  Nb136  1  0.00275255  0.80844051  0.59724957  1
  Nb  Nb137  1  0.00129761  0.00164434  0.59902460  1
  Nb  Nb138  1  0.40301550  0.60456956  0.40274783  1
  Nb  Nb139  1  -0.00150351  0.38985963  0.59672137  1
  Nb  Nb140  1  0.40452961  0.40768709  0.00092001  1
  Nb  Nb141  1  0.20872765  -0.00012665  0.19450182  1
  Nb  Nb142  1  0.59912651  0.19841851  0.40376543  1
  Nb  Nb143  1  0.79954843  0.80436702  0.59504921  1
  Nb  Nb144  1  0.59842147  0.59668043  0.00430761  1
  Nb  Nb145  1  0.39709756  -0.00215631  0.19475911  1
  Nb  Nb146  1  0.79857943  0.60015703  0.39905589  1
  Nb  Nb147  1  0.00401222  0.20519404  0.20501832  1
  Nb  Nb148  1  -0.00083017  0.59928631  0.81064565  1
  Nb  Nb149  1  0.19803793  0.80480721  0.60438860  1
  Pd  Pd150  1  0.40284096  0.20925009  0.79058603  1
  Pd  Pd151  1  0.60262358  0.39277409  0.20511174  1
  Pd  Pd152  1  0.80035188  0.59432374  0.79414184  1
  Pd  Pd153  1  0.01141875  0.00629887  0.20789767  1
  Pd  Pd154  1  0.19187756  0.59409093  0.00674966  1
  Pd  Pd155  1  0.80087001  0.00038442  -0.00342896  1
  Pd  Pd156  1  0.39723384  0.60256647  0.79498454  1
  Pd  Pd157  1  0.39811187  -0.01054940  -0.00347726  1
  Pd  Pd158  1  0.80156155  0.40290541  0.40272896  1
  Pd  Pd159  1  0.00185393  0.79383578  0.00210116  1
  Pd  Pd160  1  0.39388407  0.79767923  0.59670790  1
  Pd  Pd161  1  0.40306527  0.00279750  0.39480595  1
  Pd  Pd162  1  0.20412119  0.19641665  -0.00049872  1
  Pd  Pd163  1  0.79580150  0.41216842  0.78855116  1
  Pd  Pd164  1  0.20406501  0.79574737  0.80189229  1
  Pd  Pd165  1  -0.00957597  0.60483660  0.38820349  1
  Pd  Pd166  1  0.60182539  0.79936877  0.60367743  1
  Pd  Pd167  1  0.39954333  0.79376872  0.39760267  1
  Pd  Pd168  1  0.00324614  0.41156802  0.00283692  1
  Pd  Pd169  1  -0.00069463  0.79299696  0.40418843  1
  Pd  Pd170  1  0.40247014  0.41180297  0.40794478  1
  Pd  Pd171  1  -0.00963557  0.20461384  0.00464859  1
  Pd  Pd172  1  0.80301272  0.79352462  0.40532453  1
  Pd  Pd173  1  0.80710607  -0.00982205  0.60121807  1
  Pd  Pd174  1  0.59595600  0.59848620  0.20235575  1
  Pd  Pd175  1  0.79879840  0.80512817  0.00303500  1
  Pd  Pd176  1  0.80160101  -0.00444225  0.20188007  1
  Pd  Pd177  1  -0.00096913  0.40558021  0.79233866  1
  Pd  Pd178  1  0.19934262  -0.00097384  0.59565189  1
  Pd  Pd179  1  0.60330973  -0.00328825  -0.00152235  1
  Pd  Pd180  1  0.39485142  0.80577693  0.19983413  1
  Pd  Pd181  1  0.79221986  0.19601149  0.81254891  1
  Pd  Pd182  1  0.20890996  0.59533622  0.39584362  1
  Pd  Pd183  1  0.00657607  -0.00749358  -0.00544698  1
  Pd  Pd184  1  0.80344952  0.59936914  0.20765347  1
  Pd  Pd185  1  0.60815711  0.80744878  0.20284007  1
  Pd  Pd186  1  0.59903925  0.80392801  0.39464155  1
  Pd  Pd187  1  0.39892308  0.59884263  0.59611833  1
  Pd  Pd188  1  0.79195132  0.20613064  0.58572844  1
  Pd  Pd189  1  0.79664916  0.39519666  0.00441139  1
  Pd  Pd190  1  0.19907649  0.59313370  0.80054250  1
  Pd  Pd191  1  0.00258426  0.00475537  0.39976302  1
  Pd  Pd192  1  0.59037973  -0.00693523  0.59807367  1
  Pd  Pd193  1  0.59391306  0.59937901  0.39042077  1
  Pd  Pd194  1  0.60926223  0.20464448  -0.01214028  1
  Pd  Pd195  1  0.20049847  0.20248764  0.19717892  1
  Pd  Pd196  1  0.81441526  0.19672672  0.19116523  1
  Pd  Pd197  1  0.00904167  0.39306500  0.19947818  1
  Pd  Pd198  1  0.79181973  0.19502365  0.40500142  1
  Pd  Pd199  1  0.00638721  0.20135645  0.60379129  1
  Rh  Rh200  1  0.21183984  0.41052979  0.01196601  1
  Rh  Rh201  1  0.20460863  0.00484396  0.81185884  1
  Rh  Rh202  1  -0.00262262  0.60809560  0.19207459  1
  Rh  Rh203  1  0.59746985  0.60307105  0.80355194  1
  Rh  Rh204  1  0.40735635  0.59959762  -0.00240259  1
  Rh  Rh205  1  0.79120562  0.80795898  0.79542431  1
  Rh  Rh206  1  0.39656921  0.00052190  0.80146706  1
  Rh  Rh207  1  0.20173586  0.80732188  0.20877883  1
  Rh  Rh208  1  0.59592258  0.20041408  0.59883058  1
  Rh  Rh209  1  0.00121993  0.79692554  0.80327482  1
  Rh  Rh210  1  0.79702658  0.60298566  0.00254932  1
  Rh  Rh211  1  0.60099068  0.39334529  0.79108602  1
  Rh  Rh212  1  0.79887603  0.80716141  0.19613699  1
  Rh  Rh213  1  0.00971370  0.59717705  0.61020426  1
  Rh  Rh214  1  0.78797703  0.60268424  0.59349773  1
  Rh  Rh215  1  0.20641494  0.80137122  -0.00709617  1
  Rh  Rh216  1  0.59331781  0.20214128  0.20925504  1
  Rh  Rh217  1  0.19998723  -0.00039708  0.39725857  1
  Rh  Rh218  1  0.60258144  0.40009796  0.60526327  1
  Rh  Rh219  1  0.39755894  0.40396887  0.59878706  1
  Rh  Rh220  1  0.40119533  0.21151383  0.00296931  1
  Rh  Rh221  1  0.00440345  0.40044391  0.40380634  1
  Rh  Rh222  1  0.39983711  -0.00485867  0.59963102  1
  Rh  Rh223  1  0.19861800  0.40033686  0.39620402  1
  Rh  Rh224  1  0.20368575  0.20662309  0.59630211  1
  Rh  Rh225  1  0.00115301  0.19462937  0.39327434  1
  Rh  Rh226  1  0.20198606  0.61103659  0.60423666  1
  Rh  Rh227  1  0.59648552  0.40687444  0.00237917  1
  Rh  Rh228  1  0.39001892  0.39052755  0.18894779  1
  Rh  Rh229  1  0.60489191  0.00766448  0.80030322  1
  Rh  Rh230  1  0.59237888  0.60404486  0.60341468  1
  Rh  Rh231  1  0.59646882  0.79174502  0.00145315  1
  Rh  Rh232  1  0.40821754  0.19133941  0.39529774  1
  Rh  Rh233  1  0.19746084  0.79567122  0.40596006  1
  Rh  Rh234  1  0.39409127  0.79194430  0.80517505  1
  Rh  Rh235  1  0.59792401  -0.00015030  0.40368481  1
  Rh  Rh236  1  0.19993673  0.58918767  0.20627812  1
  Rh  Rh237  1  0.19310336  0.39060354  0.59665835  1
  Rh  Rh238  1  0.39467886  0.40189630  0.80427697  1
  Rh  Rh239  1  0.79847476  0.39673822  0.19968412  1
  Rh  Rh240  1  0.39512338  0.19976108  0.60504614  1
  Rh  Rh241  1  0.20824520  0.40157145  0.79757455  1
  Rh  Rh242  1  0.60014075  0.79751091  0.79231988  1
  Rh  Rh243  1  0.20070838  0.20592469  0.80041318  1
  Rh  Rh244  1  0.40045211  0.60045929  0.21311810  1
  Rh  Rh245  1  0.80176592  0.00202037  0.39787925  1
  Rh  Rh246  1  0.59629079  -0.00298480  0.19599832  1
  Rh  Rh247  1  0.59281241  0.39206884  0.39328416  1
  Rh  Rh248  1  0.00422202  0.79751681  0.20037524  1
  Rh  Rh249  1  0.20436021  0.20468308  0.40779902  1
