# generated using pymatgen
data_ZrScNbPdRh
_symmetry_space_group_name_H-M   'P 1'
_cell_length_a   16.55762428
_cell_length_b   16.55695784
_cell_length_c   16.55488316
_cell_angle_alpha   90.00661179
_cell_angle_beta   89.99532462
_cell_angle_gamma   90.00560885
_symmetry_Int_Tables_number   1
_chemical_formula_structural   ZrScNbPdRh
_chemical_formula_sum   'Zr50 Sc50 Nb50 Pd50 Rh50'
_cell_volume   4538.41995383
_cell_formula_units_Z   50
loop_
 _symmetry_equiv_pos_site_id
 _symmetry_equiv_pos_as_xyz
  1  'x, y, z'
loop_
 _atom_site_type_symbol
 _atom_site_label
 _atom_site_symmetry_multiplicity
 _atom_site_fract_x
 _atom_site_fract_y
 _atom_site_fract_z
 _atom_site_occupancy
  Zr  Zr0  1  0.49668020  0.89021370  0.90023168  1
  Zr  Zr1  1  0.91007082  0.29629504  0.09216548  1
  Zr  Zr2  1  0.89669210  0.29352534  0.29690332  1
  Zr  Zr3  1  0.09644287  0.50796794  0.30695853  1
  Zr  Zr4  1  0.50381072  0.70144228  0.70079596  1
  Zr  Zr5  1  0.70158107  0.69882040  0.49745236  1
  Zr  Zr6  1  0.89315777  0.29630557  0.50167941  1
  Zr  Zr7  1  0.49145499  0.09681896  0.10322998  1
  Zr  Zr8  1  0.90216505  0.89138093  0.30994130  1
  Zr  Zr9  1  0.09886542  0.30280231  0.29884324  1
  Zr  Zr10  1  0.49407025  0.30533779  0.09880562  1
  Zr  Zr11  1  0.49480779  0.29486193  0.69934816  1
  Zr  Zr12  1  0.29494993  0.50376595  0.89987774  1
  Zr  Zr13  1  0.90480383  0.69948426  0.90537190  1
  Zr  Zr14  1  0.70468922  0.49624659  0.69806074  1
  Zr  Zr15  1  0.49809270  0.30127590  0.90277343  1
  Zr  Zr16  1  0.10772190  0.29594092  0.09861552  1
  Zr  Zr17  1  0.69999634  0.49287276  0.29404090  1
  Zr  Zr18  1  0.29900305  0.90650184  0.09639615  1
  Zr  Zr19  1  0.49936562  0.90397865  0.50147552  1
  Zr  Zr20  1  0.29703431  0.10795422  0.09816317  1
  Zr  Zr21  1  0.50347193  0.89785296  0.10300708  1
  Zr  Zr22  1  0.71011768  0.09274404  0.10173202  1
  Zr  Zr23  1  0.09770837  0.10280944  0.09222061  1
  Zr  Zr24  1  0.90145368  0.90172269  0.51735570  1
  Zr  Zr25  1  0.70376762  0.49378558  0.49759435  1
  Zr  Zr26  1  0.09208154  0.90344112  0.70551070  1
  Zr  Zr27  1  0.29621007  0.09639033  0.70876927  1
  Zr  Zr28  1  0.09922070  0.68893359  0.50651519  1
  Zr  Zr29  1  0.90208483  0.71092305  0.49130654  1
  Zr  Zr30  1  0.10292886  0.70787789  0.09565867  1
  Zr  Zr31  1  0.29476749  0.69409635  0.29535225  1
  Zr  Zr32  1  0.49725571  0.90213616  0.69681809  1
  Zr  Zr33  1  0.49366822  0.30285608  0.49918477  1
  Zr  Zr34  1  0.90365090  0.69086529  0.29671430  1
  Zr  Zr35  1  0.09485238  0.50453370  0.69495894  1
  Zr  Zr36  1  0.90150431  0.09640372  0.69057507  1
  Zr  Zr37  1  0.90426400  0.49326754  0.90913307  1
  Zr  Zr38  1  0.49709920  0.49662343  0.10377428  1
  Zr  Zr39  1  0.50637687  0.70651615  0.50450304  1
  Zr  Zr40  1  0.90419689  0.89851286  0.89388900  1
  Zr  Zr41  1  0.69469726  0.89392276  0.49974427  1
  Zr  Zr42  1  0.29889041  0.29389058  0.49509586  1
  Zr  Zr43  1  0.30832171  0.10324415  0.30228787  1
  Zr  Zr44  1  0.50988577  0.90715969  0.30587133  1
  Zr  Zr45  1  0.49717474  0.49957569  0.69105830  1
  Zr  Zr46  1  0.90259833  0.10332460  0.10995995  1
  Zr  Zr47  1  0.90409626  0.29975490  0.70811154  1
  Zr  Zr48  1  0.70291618  0.90247614  0.09999125  1
  Zr  Zr49  1  0.09633664  0.70215691  0.90137085  1
  Sc  Sc50  1  0.49725136  0.49688621  0.90550966  1
  Sc  Sc51  1  0.49652407  0.09714174  0.50065594  1
  Sc  Sc52  1  0.30447011  0.50018899  0.51157096  1
  Sc  Sc53  1  0.71262560  0.30273244  0.90299711  1
  Sc  Sc54  1  0.48962912  0.70551578  0.09525585  1
  Sc  Sc55  1  0.10610340  0.09980774  0.29289980  1
  Sc  Sc56  1  0.10168567  0.10680419  0.51218660  1
  Sc  Sc57  1  0.70445074  0.30353545  0.30011083  1
  Sc  Sc58  1  0.49533830  0.31321655  0.30028245  1
  Sc  Sc59  1  0.10768953  0.49880952  0.09064647  1
  Sc  Sc60  1  0.29424549  0.10188047  0.90114655  1
  Sc  Sc61  1  0.30197778  0.29978073  0.70267244  1
  Sc  Sc62  1  0.90321598  0.49891620  0.49800049  1
  Sc  Sc63  1  0.29467076  0.90241052  0.88922132  1
  Sc  Sc64  1  0.70891362  0.09908064  0.29485673  1
  Sc  Sc65  1  0.49766108  0.09667669  0.69600000  1
  Sc  Sc66  1  0.69911944  0.89941718  0.29647307  1
  Sc  Sc67  1  0.89990274  0.70495772  0.70096564  1
  Sc  Sc68  1  0.71065937  0.70452772  0.30115212  1
  Sc  Sc69  1  0.10322960  0.50213030  0.89692904  1
  Sc  Sc70  1  0.30046406  0.29956333  0.89868866  1
  Sc  Sc71  1  0.30037195  0.69707876  0.10310500  1
  Sc  Sc72  1  0.30408856  0.09514403  0.49146279  1
  Sc  Sc73  1  0.70744202  0.10846719  0.50920852  1
  Sc  Sc74  1  0.89796227  0.10413528  0.90602907  1
  Sc  Sc75  1  0.71382307  0.29700041  0.69516517  1
  Sc  Sc76  1  0.09611040  0.10698514  0.70554480  1
  Sc  Sc77  1  0.90417822  0.91354118  0.09588011  1
  Sc  Sc78  1  0.90275264  0.69042217  0.09886309  1
  Sc  Sc79  1  0.70093738  0.70008644  0.89538940  1
  Sc  Sc80  1  0.29323156  0.50063663  0.70350090  1
  Sc  Sc81  1  0.69844405  0.30478972  0.10227286  1
  Sc  Sc82  1  0.10250768  0.69704533  0.69847478  1
  Sc  Sc83  1  0.49409844  0.70606542  0.29139818  1
  Sc  Sc84  1  0.70484115  0.70090298  0.10446572  1
  Sc  Sc85  1  0.09190731  0.88912952  0.50717616  1
  Sc  Sc86  1  0.10271367  0.90770351  0.09424849  1
  Sc  Sc87  1  0.09752395  0.30102119  0.90368137  1
  Sc  Sc88  1  0.29968824  0.70453440  0.89773154  1
  Sc  Sc89  1  0.29417869  0.91225524  0.30352248  1
  Sc  Sc90  1  0.29324110  0.70356287  0.69587206  1
  Sc  Sc91  1  0.70500533  0.49545784  0.09723976  1
  Sc  Sc92  1  0.29829249  0.29925220  0.29403478  1
  Sc  Sc93  1  0.69918214  0.69633218  0.69565081  1
  Sc  Sc94  1  0.70920198  0.90676501  0.89148894  1
  Sc  Sc95  1  0.70440915  0.09293709  0.70305699  1
  Sc  Sc96  1  0.10133876  0.69347141  0.30454427  1
  Sc  Sc97  1  0.48668128  0.10067092  0.89603440  1
  Sc  Sc98  1  0.30194177  0.50243956  0.10118580  1
  Sc  Sc99  1  0.10245514  0.09938143  0.89795280  1
  Nb  Nb100  1  0.90345840  0.50277018  0.10296197  1
  Nb  Nb101  1  0.49920159  0.49562578  0.49505058  1
  Nb  Nb102  1  0.90040519  0.09818192  0.49874724  1
  Nb  Nb103  1  0.29980021  0.89869395  0.50507730  1
  Nb  Nb104  1  0.49967586  0.69989365  0.89827980  1
  Nb  Nb105  1  0.09996490  0.89761684  0.30460647  1
  Nb  Nb106  1  0.90696331  0.30078376  0.89879096  1
  Nb  Nb107  1  0.09414153  0.29381689  0.68993615  1
  Nb  Nb108  1  0.29669411  0.70467199  0.50117450  1
  Nb  Nb109  1  0.30038370  0.50632672  0.29631245  1
  Nb  Nb110  1  0.09627137  0.49418224  0.49903877  1
  Nb  Nb111  1  0.09515725  0.90110110  0.90618382  1
  Nb  Nb112  1  0.69823612  0.49733553  0.89955327  1
  Nb  Nb113  1  0.09295754  0.30244935  0.49776766  1
  Nb  Nb114  1  0.71127512  0.90018069  0.70521706  1
  Nb  Nb115  1  0.29464894  0.29955389  0.09873077  1
  Nb  Nb116  1  0.50464894  0.09953041  0.30281275  1
  Nb  Nb117  1  0.89005200  0.90431132  0.70428970  1
  Nb  Nb118  1  0.89951928  0.10069200  0.30043633  1
  Nb  Nb119  1  0.89477421  0.49290581  0.70572510  1
  Nb  Nb120  1  0.90329749  0.50073452  0.29023735  1
  Nb  Nb121  1  0.69645350  0.09969567  0.90332072  1
  Nb  Nb122  1  0.49705517  0.49884521  0.30029360  1
  Nb  Nb123  1  0.29694492  0.89852346  0.69493941  1
  Nb  Nb124  1  0.69974410  0.30006142  0.49614550  1
  Nb  Nb125  1  0.40248398  0.60112341  0.40270932  1
  Nb  Nb126  1  0.80506454  0.80224117  -0.00377145  1
  Nb  Nb127  1  0.59999463  0.20329169  0.39756039  1
  Nb  Nb128  1  0.39324822  0.79942089  0.40476734  1
  Nb  Nb129  1  0.40490640  0.60372015  0.80075260  1
  Nb  Nb130  1  -0.00182852  0.40497488  0.19780789  1
  Nb  Nb131  1  0.20300066  -0.00695720  0.60456791  1
  Nb  Nb132  1  0.00483832  0.80237091  0.20154447  1
  Nb  Nb133  1  0.59982852  0.80330255  0.79844104  1
  Nb  Nb134  1  0.80347092  0.59006262  0.80314185  1
  Nb  Nb135  1  0.60279433  0.39676792  0.79636130  1
  Nb  Nb136  1  0.59625639  0.59560922  0.19977545  1
  Nb  Nb137  1  -0.00438570  0.19517981  0.40111369  1
  Nb  Nb138  1  0.59881425  0.00301814  -0.00372844  1
  Nb  Nb139  1  0.59519310  0.19687383  0.20101833  1
  Nb  Nb140  1  0.20332448  0.79915024  0.40635931  1
  Nb  Nb141  1  0.59286759  0.59391651  0.39479315  1
  Nb  Nb142  1  0.59956062  0.39602868  0.59626424  1
  Nb  Nb143  1  0.60002881  0.19392051  0.00075426  1
  Nb  Nb144  1  -0.00131284  0.00436232  0.40221445  1
  Nb  Nb145  1  0.80837323  0.00183413  0.40511923  1
  Nb  Nb146  1  0.59822271  0.60036462  0.00008262  1
  Nb  Nb147  1  0.60283747  0.20151669  0.80572764  1
  Nb  Nb148  1  0.19558632  0.40445619  0.40548290  1
  Nb  Nb149  1  0.18837655  0.39332513  0.59571875  1
  Pd  Pd150  1  0.20601090  0.80514956  -0.00503887  1
  Pd  Pd151  1  -0.00589449  0.59731394  0.79931332  1
  Pd  Pd152  1  0.18627774  -0.00498412  0.41508669  1
  Pd  Pd153  1  0.60331143  0.20410175  0.60158941  1
  Pd  Pd154  1  0.39990541  -0.00579240  0.20660261  1
  Pd  Pd155  1  0.40229320  0.40859422  0.79873575  1
  Pd  Pd156  1  0.19547347  0.20795120  0.80335920  1
  Pd  Pd157  1  0.39968231  -0.00248572  -0.00631305  1
  Pd  Pd158  1  0.79183622  0.60350808  -0.00213850  1
  Pd  Pd159  1  0.60062851  0.59698925  0.80662160  1
  Pd  Pd160  1  0.19748711  0.40975762  0.20517101  1
  Pd  Pd161  1  0.79901765  0.19415699  0.80059208  1
  Pd  Pd162  1  -0.00521913  0.39955652  0.60143908  1
  Pd  Pd163  1  0.39904594  0.79793049  0.60075284  1
  Pd  Pd164  1  0.79673354  0.79594276  0.60392834  1
  Pd  Pd165  1  0.19511480  0.80065620  0.80024104  1
  Pd  Pd166  1  0.39080758  0.81147760  0.20857787  1
  Pd  Pd167  1  0.60202338  0.79148099  0.20186343  1
  Pd  Pd168  1  -0.00377886  0.00882001  0.80511756  1
  Pd  Pd169  1  -0.01180295  0.60097201  0.59962833  1
  Pd  Pd170  1  0.20957397  0.59552756  0.41065817  1
  Pd  Pd171  1  0.38824285  0.40080255  0.00203885  1
  Pd  Pd172  1  0.60154506  0.59154077  0.59030548  1
  Pd  Pd173  1  0.39119788  0.19089467  0.59907870  1
  Pd  Pd174  1  0.81495310  0.80410711  0.18928361  1
  Pd  Pd175  1  0.61204340  0.79978849  -0.00737841  1
  Pd  Pd176  1  0.79916806  0.59377159  0.39483558  1
  Pd  Pd177  1  0.61522751  0.01493201  0.40558620  1
  Pd  Pd178  1  0.00950786  0.39871341  0.80192163  1
  Pd  Pd179  1  0.19257564  0.20121592  0.39725677  1
  Pd  Pd180  1  0.00109983  0.79709378  0.79459360  1
  Pd  Pd181  1  0.00255177  -0.00576501  0.20745726  1
  Pd  Pd182  1  0.39754148  -0.00226156  0.80100539  1
  Pd  Pd183  1  0.59726549  0.00122529  0.80452367  1
  Pd  Pd184  1  0.20663204  0.19810382  0.60146755  1
  Pd  Pd185  1  0.38436997  0.40656378  0.39663758  1
  Pd  Pd186  1  0.19041398  0.39215643  0.79143302  1
  Pd  Pd187  1  0.20228151  0.60483103  -0.00010919  1
  Pd  Pd188  1  0.80887610  0.40414392  0.39665625  1
  Pd  Pd189  1  0.80310909  0.39743998  0.00330220  1
  Pd  Pd190  1  0.60783130  0.00048078  0.60056710  1
  Pd  Pd191  1  0.40493561  0.20837196  0.20461234  1
  Pd  Pd192  1  0.39554436  0.60485001  0.60174966  1
  Pd  Pd193  1  0.38849865  0.79925596  -0.00093571  1
  Pd  Pd194  1  0.81006917  0.60095810  0.60433226  1
  Pd  Pd195  1  0.19676791  0.80424885  0.20625138  1
  Pd  Pd196  1  0.01224887  0.60077250  0.19014570  1
  Pd  Pd197  1  0.19794935  0.00422796  0.19703997  1
  Pd  Pd198  1  0.80846986  0.39544066  0.19184301  1
  Pd  Pd199  1  0.79847815  0.20278603  0.00382890  1
  Rh  Rh200  1  0.38943283  0.40068321  0.20013935  1
  Rh  Rh201  1  0.80411976  0.20072109  0.60393589  1
  Rh  Rh202  1  0.79604973  0.19350103  0.39863626  1
  Rh  Rh203  1  0.79921792  0.40293239  0.80694032  1
  Rh  Rh204  1  0.79624233  0.80770412  0.40344688  1
  Rh  Rh205  1  0.40257910  -0.00609319  0.39963925  1
  Rh  Rh206  1  0.40437899  0.59707553  0.20370541  1
  Rh  Rh207  1  0.41084848  0.19923831  0.39445242  1
  Rh  Rh208  1  0.19382350  0.80506293  0.59855256  1
  Rh  Rh209  1  -0.00653016  0.20094854  0.59554276  1
  Rh  Rh210  1  0.79382199  0.20545360  0.19427907  1
  Rh  Rh211  1  0.79504569  0.79057542  0.80163082  1
  Rh  Rh212  1  0.19670344  0.59728344  0.19171825  1
  Rh  Rh213  1  0.59543654  0.78825528  0.39042192  1
  Rh  Rh214  1  0.00778956  0.59561695  0.00157917  1
  Rh  Rh215  1  0.79257418  -0.00154966  0.59670441  1
  Rh  Rh216  1  0.00897680  0.00207243  0.59881323  1
  Rh  Rh217  1  0.00494106  0.40177375  0.00513953  1
  Rh  Rh218  1  0.60395216  0.39955354  -0.00583081  1
  Rh  Rh219  1  0.39000277  0.00456942  0.60116894  1
  Rh  Rh220  1  0.80195806  0.39653571  0.59699328  1
  Rh  Rh221  1  0.59792462  0.39863115  0.19849049  1
  Rh  Rh222  1  0.79964452  -0.00508331  -0.00740420  1
  Rh  Rh223  1  0.60888554  0.80983121  0.61349485  1
  Rh  Rh224  1  0.80793740  0.01033498  0.80229544  1
  Rh  Rh225  1  -0.00165511  0.79633691  0.61154078  1
  Rh  Rh226  1  0.01181297  0.79584675  0.39459003  1
  Rh  Rh227  1  0.60048688  0.00583078  0.19318772  1
  Rh  Rh228  1  0.00425815  0.20419934  0.20504719  1
  Rh  Rh229  1  0.19933375  -0.00036195  -0.00631393  1
  Rh  Rh230  1  0.39629402  0.20406752  -0.00029274  1
  Rh  Rh231  1  -0.00861014  0.59909015  0.40625750  1
  Rh  Rh232  1  -0.00577070  0.80642617  0.01022358  1
  Rh  Rh233  1  0.79213171  0.59572142  0.20007988  1
  Rh  Rh234  1  0.20133559  0.19508574  0.20068634  1
  Rh  Rh235  1  0.39545396  0.39711260  0.60190373  1
  Rh  Rh236  1  0.00041949  0.00477781  -0.00604869  1
  Rh  Rh237  1  0.20269499  0.20300555  -0.00474444  1
  Rh  Rh238  1  -0.00091107  0.20179711  0.80424891  1
  Rh  Rh239  1  0.20404116  0.39674229  -0.00321033  1
  Rh  Rh240  1  0.40140535  0.19673884  0.79898733  1
  Rh  Rh241  1  0.40242110  0.79529553  0.79334924  1
  Rh  Rh242  1  0.80770472  -0.00893273  0.21239814  1
  Rh  Rh243  1  0.20057277  0.59130027  0.59875397  1
  Rh  Rh244  1  -0.00272626  0.39618539  0.39039222  1
  Rh  Rh245  1  0.00131244  0.19711218  -0.00696101  1
  Rh  Rh246  1  0.40419389  0.60394984  -0.00709493  1
  Rh  Rh247  1  0.19474323  -0.00469184  0.79731714  1
  Rh  Rh248  1  0.20613608  0.60615074  0.79967106  1
  Rh  Rh249  1  0.60053824  0.39712525  0.40462300  1
