# generated using pymatgen
data_ZrScNbPdRh
_symmetry_space_group_name_H-M   'P 1'
_cell_length_a   16.55922343
_cell_length_b   16.56073455
_cell_length_c   16.56057342
_cell_angle_alpha   90.01486038
_cell_angle_beta   90.01206022
_cell_angle_gamma   89.98704143
_symmetry_Int_Tables_number   1
_chemical_formula_structural   ZrScNbPdRh
_chemical_formula_sum   'Zr50 Sc50 Nb50 Pd50 Rh50'
_cell_volume   4541.45376424
_cell_formula_units_Z   50
loop_
 _symmetry_equiv_pos_site_id
 _symmetry_equiv_pos_as_xyz
  1  'x, y, z'
loop_
 _atom_site_type_symbol
 _atom_site_label
 _atom_site_symmetry_multiplicity
 _atom_site_fract_x
 _atom_site_fract_y
 _atom_site_fract_z
 _atom_site_occupancy
  Zr  Zr0  1  0.69295670  0.69549108  0.89909979  1
  Zr  Zr1  1  0.10062565  0.69903876  0.09875433  1
  Zr  Zr2  1  0.10602630  0.49548393  0.49535176  1
  Zr  Zr3  1  0.71069212  0.89911501  0.10807956  1
  Zr  Zr4  1  0.49590872  0.91256436  0.10067252  1
  Zr  Zr5  1  0.30044274  0.89528097  0.10030442  1
  Zr  Zr6  1  0.09740727  0.49919643  0.10073482  1
  Zr  Zr7  1  0.90123843  0.29391684  0.30225393  1
  Zr  Zr8  1  0.50231323  0.69721214  0.70653564  1
  Zr  Zr9  1  0.49629746  0.70368384  0.89844280  1
  Zr  Zr10  1  0.30925505  0.69857445  0.89556359  1
  Zr  Zr11  1  0.09817984  0.10151197  0.90228543  1
  Zr  Zr12  1  0.49917677  0.69511242  0.50148242  1
  Zr  Zr13  1  0.30203602  0.70452912  0.49864329  1
  Zr  Zr14  1  0.31168817  0.89236204  0.90466368  1
  Zr  Zr15  1  0.29381159  0.10788017  0.89740844  1
  Zr  Zr16  1  0.68807926  0.70260209  0.29416950  1
  Zr  Zr17  1  0.89796991  0.49959303  0.09849556  1
  Zr  Zr18  1  0.70566953  0.70209629  0.09943678  1
  Zr  Zr19  1  0.30544769  0.50101621  0.50473820  1
  Zr  Zr20  1  0.90211823  0.89918272  0.70839139  1
  Zr  Zr21  1  0.10447602  0.90738771  0.50290394  1
  Zr  Zr22  1  0.29311809  0.10541735  0.30674139  1
  Zr  Zr23  1  0.29906382  0.70052001  0.08755739  1
  Zr  Zr24  1  0.90147314  0.09448487  0.90236128  1
  Zr  Zr25  1  0.09935616  0.89637488  0.69427080  1
  Zr  Zr26  1  0.69252892  0.50084423  0.30782558  1
  Zr  Zr27  1  0.90109189  0.89807434  0.91345497  1
  Zr  Zr28  1  0.09413484  0.89659022  0.09216681  1
  Zr  Zr29  1  0.69602611  0.09067199  0.70123731  1
  Zr  Zr30  1  0.69947894  0.89473113  0.69942203  1
  Zr  Zr31  1  0.89216089  0.09996581  0.70025970  1
  Zr  Zr32  1  0.29286228  0.49634405  0.29995422  1
  Zr  Zr33  1  0.29364133  0.90551468  0.69103688  1
  Zr  Zr34  1  0.30141828  0.49339591  0.70217610  1
  Zr  Zr35  1  0.09329459  0.69497213  0.30047896  1
  Zr  Zr36  1  0.70384507  0.09109714  0.30073784  1
  Zr  Zr37  1  0.29605221  0.29476255  0.69432062  1
  Zr  Zr38  1  0.50376717  0.70736922  0.30494563  1
  Zr  Zr39  1  0.50731908  0.50131568  0.49905854  1
  Zr  Zr40  1  0.09777029  0.49347689  0.90007379  1
  Zr  Zr41  1  0.89530262  0.69853929  0.50109421  1
  Zr  Zr42  1  0.30276287  0.50037949  0.09889578  1
  Zr  Zr43  1  0.90659399  0.29947136  0.68752098  1
  Zr  Zr44  1  0.11177904  0.09569954  0.69789296  1
  Zr  Zr45  1  0.90323044  0.10369924  0.50496533  1
  Zr  Zr46  1  0.09512723  0.50000419  0.30175089  1
  Zr  Zr47  1  0.09758667  0.10541250  0.29828213  1
  Zr  Zr48  1  0.69716543  0.09716769  0.09651542  1
  Zr  Zr49  1  0.51449781  0.30569824  0.90198715  1
  Sc  Sc50  1  0.70117265  0.10348207  0.89708937  1
  Sc  Sc51  1  0.69546347  0.29544165  0.08623474  1
  Sc  Sc52  1  0.50995673  0.09687883  0.89890604  1
  Sc  Sc53  1  0.50639002  0.69511494  0.10452335  1
  Sc  Sc54  1  0.49933643  0.10273432  0.69694530  1
  Sc  Sc55  1  0.89975524  0.49934807  0.70841657  1
  Sc  Sc56  1  0.30083679  0.50686561  0.90029487  1
  Sc  Sc57  1  0.70617357  0.09315551  0.50234443  1
  Sc  Sc58  1  0.50041884  0.50060482  0.69531401  1
  Sc  Sc59  1  0.70460667  0.30820903  0.70267104  1
  Sc  Sc60  1  0.49356553  0.30315216  0.70306095  1
  Sc  Sc61  1  0.49816392  0.30748891  0.50454759  1
  Sc  Sc62  1  0.89364715  0.69653929  0.70116845  1
  Sc  Sc63  1  0.30031494  0.30216004  0.89238205  1
  Sc  Sc64  1  0.29933453  0.29352322  0.29448534  1
  Sc  Sc65  1  0.50792538  0.90386795  0.70168502  1
  Sc  Sc66  1  0.29530208  0.29589594  0.50567138  1
  Sc  Sc67  1  0.08710462  0.90393282  0.89114039  1
  Sc  Sc68  1  0.09698631  0.89985268  0.31375694  1
  Sc  Sc69  1  0.49403894  0.09975488  0.50115548  1
  Sc  Sc70  1  0.90925191  0.90129218  0.50092714  1
  Sc  Sc71  1  0.09832482  0.29054503  0.10050940  1
  Sc  Sc72  1  0.49280664  0.49943606  0.09895206  1
  Sc  Sc73  1  0.89784563  0.09449024  0.30777170  1
  Sc  Sc74  1  0.09582600  0.11165420  0.09719289  1
  Sc  Sc75  1  0.29734412  0.90403135  0.49226009  1
  Sc  Sc76  1  0.70049230  0.49366800  0.89335212  1
  Sc  Sc77  1  0.10202451  0.71680039  0.49495819  1
  Sc  Sc78  1  0.10286442  0.69455374  0.89767890  1
  Sc  Sc79  1  0.70143443  0.50411803  0.09603677  1
  Sc  Sc80  1  0.29975789  0.10186458  0.50213433  1
  Sc  Sc81  1  0.10768753  0.29628124  0.30088770  1
  Sc  Sc82  1  0.30456414  0.10316378  0.10374180  1
  Sc  Sc83  1  0.89652050  0.69140853  0.29907466  1
  Sc  Sc84  1  0.89753698  0.30445230  0.89981285  1
  Sc  Sc85  1  0.30177158  0.70856103  0.30080332  1
  Sc  Sc86  1  0.31054772  0.89749632  0.30007722  1
  Sc  Sc87  1  0.89898108  0.49343416  0.89698251  1
  Sc  Sc88  1  0.90325370  0.50805427  0.30605377  1
  Sc  Sc89  1  0.90380559  0.29651631  0.08949534  1
  Sc  Sc90  1  0.49763449  0.09893375  0.29402960  1
  Sc  Sc91  1  0.50406914  0.89492227  0.89717241  1
  Sc  Sc92  1  0.69087481  0.89896132  0.50520895  1
  Sc  Sc93  1  0.50491516  0.51225662  0.30031704  1
  Sc  Sc94  1  0.49584300  0.29405112  0.29679747  1
  Sc  Sc95  1  0.50006374  0.90094638  0.49536441  1
  Sc  Sc96  1  0.90392069  0.50038667  0.49720250  1
  Sc  Sc97  1  0.09626975  0.29788200  0.90440920  1
  Sc  Sc98  1  0.50425110  0.50348442  0.89417029  1
  Sc  Sc99  1  0.10180810  0.49163832  0.71135180  1
  Nb  Nb100  1  0.10056616  0.30115444  0.69358766  1
  Nb  Nb101  1  0.88699740  0.90102096  0.29210884  1
  Nb  Nb102  1  0.49821581  0.29616381  0.10130956  1
  Nb  Nb103  1  0.89637665  0.70543823  0.09396876  1
  Nb  Nb104  1  0.09458328  0.29756829  0.51442651  1
  Nb  Nb105  1  0.30469708  0.69893262  0.70124053  1
  Nb  Nb106  1  0.10168132  0.09779819  0.49143978  1
  Nb  Nb107  1  0.69245286  0.49682404  0.50343911  1
  Nb  Nb108  1  0.69945884  0.51242131  0.70031364  1
  Nb  Nb109  1  0.89452942  0.70175370  0.90465119  1
  Nb  Nb110  1  0.30350069  0.10369135  0.70044300  1
  Nb  Nb111  1  0.30737465  0.30242604  0.10059269  1
  Nb  Nb112  1  0.70389640  0.69831019  0.69569425  1
  Nb  Nb113  1  0.69844975  0.89441766  0.30111668  1
  Nb  Nb114  1  0.89680034  0.89789429  0.09833343  1
  Nb  Nb115  1  0.89902071  0.09576006  0.09963098  1
  Nb  Nb116  1  0.70016271  0.29895761  0.30234217  1
  Nb  Nb117  1  0.69800916  0.30733502  0.49856600  1
  Nb  Nb118  1  0.69876299  0.30326174  0.89969581  1
  Nb  Nb119  1  0.50343208  0.11020660  0.09787087  1
  Nb  Nb120  1  0.69720697  0.89720856  0.89978139  1
  Nb  Nb121  1  0.70311499  0.69888518  0.51185671  1
  Nb  Nb122  1  0.10458701  0.70181221  0.69713785  1
  Nb  Nb123  1  0.90066072  0.29860883  0.50432060  1
  Nb  Nb124  1  0.51445987  0.89100759  0.30329329  1
  Nb  Nb125  1  -0.00499107  -0.00542829  0.19683572  1
  Nb  Nb126  1  0.79612631  0.79639216  0.80560636  1
  Nb  Nb127  1  0.79527711  0.39525217  0.40427133  1
  Nb  Nb128  1  -0.00535676  0.39841935  0.20169818  1
  Nb  Nb129  1  0.39287623  0.00515407  0.79743504  1
  Nb  Nb130  1  0.39955289  0.40340767  0.39900892  1
  Nb  Nb131  1  0.40797889  0.20546100  0.00325541  1
  Nb  Nb132  1  0.20040003  0.60018009  0.19899919  1
  Nb  Nb133  1  0.00041770  0.19922771  0.79070565  1
  Nb  Nb134  1  0.19457799  -0.00219277  0.19681157  1
  Nb  Nb135  1  0.39834391  0.79742688  0.60318643  1
  Nb  Nb136  1  0.20126415  -0.00042084  0.00258465  1
  Nb  Nb137  1  0.19860240  0.60455800  0.60495317  1
  Nb  Nb138  1  0.60255925  0.39335900  0.19985948  1
  Nb  Nb139  1  0.60547521  0.20449551  0.59487986  1
  Nb  Nb140  1  0.20453502  0.39765762  0.00538291  1
  Nb  Nb141  1  0.60720280  0.20532868  0.40355260  1
  Nb  Nb142  1  0.79717271  0.39378716  0.20537211  1
  Nb  Nb143  1  -0.01043481  0.80357612  0.19649400  1
  Nb  Nb144  1  0.20338320  0.79716424  0.79273577  1
  Nb  Nb145  1  -0.00682227  0.60395706  -0.00120385  1
  Nb  Nb146  1  0.00107717  0.20385509  0.41265766  1
  Nb  Nb147  1  0.01121001  0.60312467  0.60316035  1
  Nb  Nb148  1  0.79214288  0.80079506  0.39723726  1
  Nb  Nb149  1  0.79803552  0.19983388  0.19849954  1
  Pd  Pd150  1  0.39769582  0.39656935  -0.00961204  1
  Pd  Pd151  1  0.39595462  0.00543938  0.20648593  1
  Pd  Pd152  1  0.80258452  0.59245830  -0.00956235  1
  Pd  Pd153  1  0.79698819  -0.00862071  0.80827213  1
  Pd  Pd154  1  -0.00122139  0.78866542  0.80255373  1
  Pd  Pd155  1  -0.00359355  0.39117227  0.39805380  1
  Pd  Pd156  1  0.39365725  0.60737496  0.20397325  1
  Pd  Pd157  1  0.78782014  0.20233270  0.60034322  1
  Pd  Pd158  1  0.19254066  0.39615572  0.19350653  1
  Pd  Pd159  1  0.60084434  0.20298555  0.79112477  1
  Pd  Pd160  1  -0.00728131  0.79331719  0.60223114  1
  Pd  Pd161  1  0.80045733  0.39834972  0.79701938  1
  Pd  Pd162  1  0.40830225  0.79632906  0.19531374  1
  Pd  Pd163  1  0.00063240  0.41543987  0.60298903  1
  Pd  Pd164  1  0.59661459  0.59407299  0.00013339  1
  Pd  Pd165  1  0.19095982  0.80285776  0.20918757  1
  Pd  Pd166  1  0.60163210  0.40832894  0.00707366  1
  Pd  Pd167  1  0.59078449  0.79822687  0.59936622  1
  Pd  Pd168  1  0.20201919  0.60151274  0.79648503  1
  Pd  Pd169  1  0.79971995  0.20221987  0.40195012  1
  Pd  Pd170  1  0.59804465  0.80537412  0.00816668  1
  Pd  Pd171  1  -0.00353078  0.60576569  0.80096025  1
  Pd  Pd172  1  0.00124170  0.00527271  0.60498507  1
  Pd  Pd173  1  0.40937457  0.40208922  0.20980368  1
  Pd  Pd174  1  0.78943035  0.60004110  0.40423992  1
  Pd  Pd175  1  0.40317371  -0.00446659  0.60245464  1
  Pd  Pd176  1  0.40444108  -0.00210285  0.39258431  1
  Pd  Pd177  1  0.20603631  -0.01078417  0.81027943  1
  Pd  Pd178  1  0.80203922  -0.01104960  0.59400036  1
  Pd  Pd179  1  0.40241798  0.40344005  0.80509783  1
  Pd  Pd180  1  0.19950692  0.60781990  0.40129923  1
  Pd  Pd181  1  0.59792698  -0.00235757  0.20213818  1
  Pd  Pd182  1  0.80817929  0.58802997  0.60031624  1
  Pd  Pd183  1  0.60603916  0.20269289  0.20463196  1
  Pd  Pd184  1  0.80319671  0.20837616  0.80042637  1
  Pd  Pd185  1  0.60477933  -0.00355211  -0.00283945  1
  Pd  Pd186  1  0.39742671  0.59747875  0.39225461  1
  Pd  Pd187  1  0.40991794  0.19603155  0.80681958  1
  Pd  Pd188  1  -0.01413422  0.80070616  0.39146649  1
  Pd  Pd189  1  0.39721294  0.01323457  -0.00793060  1
  Pd  Pd190  1  0.59898733  0.39667673  0.61086037  1
  Pd  Pd191  1  0.19058344  0.80637003  -0.01698196  1
  Pd  Pd192  1  0.19096452  0.21026335  0.79787624  1
  Pd  Pd193  1  0.79708888  0.59673909  0.20234537  1
  Pd  Pd194  1  0.40687670  0.20747002  0.40598073  1
  Pd  Pd195  1  0.80159997  0.19922983  0.00060835  1
  Pd  Pd196  1  0.80140167  0.41027417  0.59616496  1
  Pd  Pd197  1  0.80112422  -0.01287349  0.41104677  1
  Pd  Pd198  1  0.20611638  0.38695723  0.40426295  1
  Pd  Pd199  1  0.59489529  0.00746413  0.40116732  1
  Rh  Rh200  1  0.60335086  0.58909892  0.19181638  1
  Rh  Rh201  1  0.39621583  0.60311369  0.60536073  1
  Rh  Rh202  1  0.40425559  0.59257833  0.79766491  1
  Rh  Rh203  1  -0.00157710  0.01083505  0.79241594  1
  Rh  Rh204  1  0.20693127  0.19595714  0.19458985  1
  Rh  Rh205  1  0.41427437  0.79549446  0.01102026  1
  Rh  Rh206  1  0.39420945  0.81465238  0.78609485  1
  Rh  Rh207  1  0.00000994  0.38589000  0.79648569  1
  Rh  Rh208  1  0.39800317  0.19606353  0.19541653  1
  Rh  Rh209  1  -0.00120529  0.60216245  0.18935932  1
  Rh  Rh210  1  0.20901074  0.79539707  0.60182386  1
  Rh  Rh211  1  -0.01069682  0.19642390  0.20617371  1
  Rh  Rh212  1  0.79616834  0.60400647  0.80272378  1
  Rh  Rh213  1  0.60878041  0.79694347  0.79722140  1
  Rh  Rh214  1  0.59275509  0.39328412  0.39122481  1
  Rh  Rh215  1  0.59817722  0.19878196  -0.00537376  1
  Rh  Rh216  1  0.59612578  -0.00175639  0.80200341  1
  Rh  Rh217  1  0.60069980  0.59885763  0.79668213  1
  Rh  Rh218  1  0.19804324  0.19388626  0.59578013  1
  Rh  Rh219  1  0.60791183  0.79435792  0.41101580  1
  Rh  Rh220  1  0.19150815  0.20555775  0.40925704  1
  Rh  Rh221  1  0.20321282  0.00911426  0.59126867  1
  Rh  Rh222  1  0.19378624  0.59061888  0.00222636  1
  Rh  Rh223  1  0.59544941  0.00968092  0.59745175  1
  Rh  Rh224  1  0.19794981  0.39329394  0.80743638  1
  Rh  Rh225  1  0.79398558  -0.00071287  -0.00276128  1
  Rh  Rh226  1  0.80381707  0.78995792  0.20746955  1
  Rh  Rh227  1  0.39841337  0.39772514  0.59483769  1
  Rh  Rh228  1  0.79041585  0.80227154  -0.00672113  1
  Rh  Rh229  1  0.00930357  0.18977648  0.60175359  1
  Rh  Rh230  1  0.60390202  0.60030418  0.60124853  1
  Rh  Rh231  1  0.20307075  0.80493124  0.39462824  1
  Rh  Rh232  1  0.59458213  0.80898260  0.18905102  1
  Rh  Rh233  1  0.40803278  0.60231762  -0.00318135  1
  Rh  Rh234  1  0.60688039  0.61003694  0.40997526  1
  Rh  Rh235  1  0.80344918  0.00852630  0.19639015  1
  Rh  Rh236  1  0.20375490  -0.00056164  0.39297980  1
  Rh  Rh237  1  0.00194134  0.79055268  -0.00153557  1
  Rh  Rh238  1  0.00574011  0.40268061  0.00560734  1
  Rh  Rh239  1  -0.00816360  0.19915661  -0.00986528  1
  Rh  Rh240  1  0.80357923  0.80485150  0.60110246  1
  Rh  Rh241  1  0.40462530  0.20287446  0.59981145  1
  Rh  Rh242  1  0.60511656  0.40312731  0.79389478  1
  Rh  Rh243  1  0.79311248  0.39754866  0.00038850  1
  Rh  Rh244  1  0.00534524  0.60787754  0.41551183  1
  Rh  Rh245  1  0.00572359  0.00751626  0.00909625  1
  Rh  Rh246  1  -0.00298491  0.00415137  0.39415574  1
  Rh  Rh247  1  0.21341835  0.20540505  0.00580843  1
  Rh  Rh248  1  0.40491579  0.80455182  0.40616654  1
  Rh  Rh249  1  0.19854693  0.40471417  0.60261654  1
