# generated using pymatgen
data_ZrScNbPdRh
_symmetry_space_group_name_H-M   'P 1'
_cell_length_a   16.55735491
_cell_length_b   16.55520469
_cell_length_c   16.54839342
_cell_angle_alpha   90.01293812
_cell_angle_beta   90.01797328
_cell_angle_gamma   90.02903544
_symmetry_Int_Tables_number   1
_chemical_formula_structural   ZrScNbPdRh
_chemical_formula_sum   'Zr50 Sc50 Nb50 Pd50 Rh50'
_cell_volume   4536.08581251
_cell_formula_units_Z   50
loop_
 _symmetry_equiv_pos_site_id
 _symmetry_equiv_pos_as_xyz
  1  'x, y, z'
loop_
 _atom_site_type_symbol
 _atom_site_label
 _atom_site_symmetry_multiplicity
 _atom_site_fract_x
 _atom_site_fract_y
 _atom_site_fract_z
 _atom_site_occupancy
  Zr  Zr0  1  0.90424446  0.90443975  0.30257285  1
  Zr  Zr1  1  0.70683573  0.50002421  0.69183569  1
  Zr  Zr2  1  0.29075787  0.69912273  0.90420852  1
  Zr  Zr3  1  0.09695687  0.90024059  0.69049084  1
  Zr  Zr4  1  0.10049577  0.31153507  0.70260245  1
  Zr  Zr5  1  0.29124262  0.49922068  0.49670878  1
  Zr  Zr6  1  0.29322892  0.90352987  0.50434890  1
  Zr  Zr7  1  0.10020443  0.29696714  0.90845180  1
  Zr  Zr8  1  0.70601889  0.29721269  0.09102689  1
  Zr  Zr9  1  0.50042234  0.90239304  0.70924679  1
  Zr  Zr10  1  0.69925171  0.89774820  0.29777554  1
  Zr  Zr11  1  0.29509447  0.90169142  0.29792518  1
  Zr  Zr12  1  0.89552200  0.70192054  0.89780926  1
  Zr  Zr13  1  0.69873869  0.70778558  0.09595128  1
  Zr  Zr14  1  0.29861482  0.09517086  0.69376139  1
  Zr  Zr15  1  0.70444653  0.70441155  0.90258281  1
  Zr  Zr16  1  0.10660751  0.49302174  0.30175970  1
  Zr  Zr17  1  0.89469722  0.28649823  0.89678877  1
  Zr  Zr18  1  0.09400915  0.30232575  0.49338021  1
  Zr  Zr19  1  0.69836751  0.50779751  0.88746561  1
  Zr  Zr20  1  0.90224579  0.10757505  0.70106355  1
  Zr  Zr21  1  0.10038711  0.70080297  0.49997825  1
  Zr  Zr22  1  0.70552482  0.69245750  0.50727829  1
  Zr  Zr23  1  0.89660291  0.70348683  0.49579775  1
  Zr  Zr24  1  0.09914785  0.30023873  0.10127526  1
  Zr  Zr25  1  0.10260210  0.90023981  0.90240460  1
  Zr  Zr26  1  0.09849036  0.49547779  0.50572898  1
  Zr  Zr27  1  0.28825381  0.49503260  0.70554238  1
  Zr  Zr28  1  0.29657980  0.10621458  0.30459643  1
  Zr  Zr29  1  0.90434636  0.49564595  0.69800119  1
  Zr  Zr30  1  0.49583222  0.70412623  0.29620206  1
  Zr  Zr31  1  0.09054476  0.10423552  0.89479230  1
  Zr  Zr32  1  0.29927943  0.70552149  0.49692786  1
  Zr  Zr33  1  0.09567505  0.49273965  0.09252908  1
  Zr  Zr34  1  0.69528693  0.89889212  0.90548364  1
  Zr  Zr35  1  0.49672028  0.09687822  0.28550083  1
  Zr  Zr36  1  0.68701476  0.10402779  0.09782269  1
  Zr  Zr37  1  0.10780167  0.69885711  0.09290044  1
  Zr  Zr38  1  0.90454790  0.31066099  0.09907583  1
  Zr  Zr39  1  0.70091244  0.30336593  0.30211035  1
  Zr  Zr40  1  0.10028332  0.50409982  0.89532248  1
  Zr  Zr41  1  0.50042314  0.09566817  0.70435330  1
  Zr  Zr42  1  0.51470668  0.69639846  0.90848498  1
  Zr  Zr43  1  0.89220063  0.69616947  0.09540808  1
  Zr  Zr44  1  0.30535827  0.09178627  0.10794964  1
  Zr  Zr45  1  0.69391450  0.10768206  0.30549640  1
  Zr  Zr46  1  0.89696694  0.70327182  0.69342090  1
  Zr  Zr47  1  0.29647138  0.28731369  0.49409334  1
  Zr  Zr48  1  0.90825919  0.89459922  0.50175666  1
  Zr  Zr49  1  0.70756811  0.69908269  0.30236257  1
  Sc  Sc50  1  0.50993766  0.90188593  0.11312877  1
  Sc  Sc51  1  0.69152335  0.90761400  0.49662834  1
  Sc  Sc52  1  0.51013611  0.09759487  0.49627455  1
  Sc  Sc53  1  0.09064114  0.09805221  0.30046970  1
  Sc  Sc54  1  0.30119484  0.30474381  0.29630026  1
  Sc  Sc55  1  0.10192596  0.69512956  0.89956016  1
  Sc  Sc56  1  0.10930807  0.90611010  0.10445905  1
  Sc  Sc57  1  0.09487345  0.29750545  0.30005891  1
  Sc  Sc58  1  0.50207863  0.49652469  0.50170679  1
  Sc  Sc59  1  0.30322054  0.49005459  0.91160795  1
  Sc  Sc60  1  0.89796582  0.29744209  0.49921755  1
  Sc  Sc61  1  0.69274391  0.90589381  0.70373323  1
  Sc  Sc62  1  0.10562062  0.10364865  0.50047209  1
  Sc  Sc63  1  0.09079119  0.10134504  0.69360867  1
  Sc  Sc64  1  0.89989595  0.10120838  0.11555482  1
  Sc  Sc65  1  0.90461140  0.50455804  0.90584058  1
  Sc  Sc66  1  0.49955528  0.70196838  0.50012431  1
  Sc  Sc67  1  0.49774893  0.29752319  0.30574588  1
  Sc  Sc68  1  0.89145543  0.70905458  0.30747173  1
  Sc  Sc69  1  0.50373718  0.89750938  0.30373904  1
  Sc  Sc70  1  0.90363814  0.29551000  0.30431242  1
  Sc  Sc71  1  0.89059219  0.30070942  0.69587819  1
  Sc  Sc72  1  0.89242206  0.90614173  0.10816185  1
  Sc  Sc73  1  0.29877422  0.70199580  0.29563964  1
  Sc  Sc74  1  0.70367963  0.68965771  0.70406887  1
  Sc  Sc75  1  0.89640466  0.49098041  0.50297164  1
  Sc  Sc76  1  0.30218848  0.89752545  0.89269620  1
  Sc  Sc77  1  0.49754723  0.30195707  0.88958825  1
  Sc  Sc78  1  0.30647328  0.89954770  0.69640746  1
  Sc  Sc79  1  0.29419972  0.89679791  0.09932699  1
  Sc  Sc80  1  0.11036903  0.69977683  0.30163542  1
  Sc  Sc81  1  0.51072262  0.50079781  0.70714647  1
  Sc  Sc82  1  0.29761966  0.10026123  0.89185518  1
  Sc  Sc83  1  0.70272730  0.29566383  0.49409454  1
  Sc  Sc84  1  0.50071062  0.29810289  0.09608288  1
  Sc  Sc85  1  0.69273915  0.11012381  0.69458603  1
  Sc  Sc86  1  0.50516952  0.69883609  0.70412602  1
  Sc  Sc87  1  0.30188964  0.69478471  0.10543826  1
  Sc  Sc88  1  0.49716382  0.89863597  0.49790541  1
  Sc  Sc89  1  0.89613689  0.89955231  0.89653902  1
  Sc  Sc90  1  0.29478894  0.70523568  0.70219945  1
  Sc  Sc91  1  0.49131271  0.49112749  0.29580868  1
  Sc  Sc92  1  0.72450860  0.50222152  0.10101478  1
  Sc  Sc93  1  0.09994656  0.69242438  0.70085864  1
  Sc  Sc94  1  0.69644540  0.10536881  0.49885271  1
  Sc  Sc95  1  0.09941147  0.90095909  0.49667774  1
  Sc  Sc96  1  0.29675619  0.49362359  0.10446187  1
  Sc  Sc97  1  0.70417515  0.90162369  0.10274888  1
  Sc  Sc98  1  0.90940828  0.90199886  0.70064096  1
  Sc  Sc99  1  0.48626041  0.50305701  0.09342343  1
  Nb  Nb100  1  0.89202607  0.50787712  0.29707961  1
  Nb  Nb101  1  0.09444238  0.89822499  0.29953252  1
  Nb  Nb102  1  0.90186013  0.09896774  0.88989605  1
  Nb  Nb103  1  0.49773498  0.10157088  0.09642086  1
  Nb  Nb104  1  0.50258850  0.89857747  0.89563519  1
  Nb  Nb105  1  0.70296370  0.50228081  0.30233236  1
  Nb  Nb106  1  0.50603919  0.09452778  0.90693315  1
  Nb  Nb107  1  0.09794615  0.49737601  0.69939132  1
  Nb  Nb108  1  0.29454638  0.30344441  0.08387574  1
  Nb  Nb109  1  0.69736480  0.50013744  0.49955648  1
  Nb  Nb110  1  0.49991616  0.29734569  0.69737369  1
  Nb  Nb111  1  0.49593648  0.30205409  0.50313674  1
  Nb  Nb112  1  0.30107112  0.50498811  0.29772508  1
  Nb  Nb113  1  0.09787391  0.10081307  0.09912601  1
  Nb  Nb114  1  0.70190609  0.29370615  0.90118742  1
  Nb  Nb115  1  0.70382042  0.10959034  0.90784274  1
  Nb  Nb116  1  0.50214719  0.50216327  0.90359661  1
  Nb  Nb117  1  0.30937441  0.29562675  0.71172875  1
  Nb  Nb118  1  0.69767538  0.30276673  0.70485005  1
  Nb  Nb119  1  0.29437192  0.09717680  0.49789708  1
  Nb  Nb120  1  0.90726723  0.50431805  0.10113970  1
  Nb  Nb121  1  0.30091822  0.29570146  0.90175498  1
  Nb  Nb122  1  0.50349181  0.69886434  0.10293926  1
  Nb  Nb123  1  0.90187952  0.10197333  0.30625366  1
  Nb  Nb124  1  0.89838167  0.10502561  0.50299498  1
  Nb  Nb125  1  0.39690902  0.59292458  0.60295145  1
  Nb  Nb126  1  0.60032751  0.59396713  0.39459361  1
  Nb  Nb127  1  0.19829178  0.20065982  0.18996986  1
  Nb  Nb128  1  0.40929635  -0.00190736  -0.00243644  1
  Nb  Nb129  1  0.00296044  0.79705499  0.19839002  1
  Nb  Nb130  1  0.40084648  0.19430201  -0.00342823  1
  Nb  Nb131  1  0.19388267  -0.00041009  0.79415074  1
  Nb  Nb132  1  0.40101069  0.20281241  0.60207231  1
  Nb  Nb133  1  0.60525567  0.40200494  -0.00436935  1
  Nb  Nb134  1  0.79776913  0.01139028  0.80173599  1
  Nb  Nb135  1  0.59917193  0.39243400  0.60078262  1
  Nb  Nb136  1  0.80410109  0.00622933  0.59937601  1
  Nb  Nb137  1  -0.00170382  0.59507041  0.39479153  1
  Nb  Nb138  1  0.60716050  0.40727701  0.19487460  1
  Nb  Nb139  1  0.60110188  0.79890226  0.60316704  1
  Nb  Nb140  1  0.39810383  0.59706686  0.40014808  1
  Nb  Nb141  1  0.60199272  0.59501247  0.20149908  1
  Nb  Nb142  1  0.41114303  0.80173209  0.00011527  1
  Nb  Nb143  1  0.39168645  0.00327115  0.39947949  1
  Nb  Nb144  1  -0.00072120  0.00252000  0.00114253  1
  Nb  Nb145  1  0.40084276  0.59609457  0.80505733  1
  Nb  Nb146  1  0.40017100  0.39385564  0.60575691  1
  Nb  Nb147  1  0.00013118  0.80487745  0.00555902  1
  Nb  Nb148  1  0.80733426  0.00670675  0.40249340  1
  Nb  Nb149  1  -0.00344126  0.60031043  0.20232784  1
  Pd  Pd150  1  0.19386874  0.19596493  0.79301288  1
  Pd  Pd151  1  0.78922156  0.81473295  0.60351346  1
  Pd  Pd152  1  0.59747518  -0.00706822  0.00541528  1
  Pd  Pd153  1  0.39199037  0.21259085  0.19018566  1
  Pd  Pd154  1  0.40283816  0.40788974  0.80034637  1
  Pd  Pd155  1  0.19242800  0.00749801  0.20782567  1
  Pd  Pd156  1  0.59727169  0.21240754  0.19907981  1
  Pd  Pd157  1  0.20190010  0.20697944  0.60790433  1
  Pd  Pd158  1  0.39337929  0.60683081  -0.00263195  1
  Pd  Pd159  1  0.40175244  0.39388523  0.19184093  1
  Pd  Pd160  1  0.00540897  0.79620689  0.80482296  1
  Pd  Pd161  1  0.59839049  0.20652062  0.59435849  1
  Pd  Pd162  1  0.80590413  0.40045175  0.80569106  1
  Pd  Pd163  1  0.59824082  0.40277788  0.39913072  1
  Pd  Pd164  1  0.40786355  0.79332948  0.60391567  1
  Pd  Pd165  1  0.60143618  0.39789381  0.80017023  1
  Pd  Pd166  1  0.79514002  0.81108892  0.79140487  1
  Pd  Pd167  1  -0.01100079  0.19268559  0.00787398  1
  Pd  Pd168  1  0.39763783  0.80568079  0.19172942  1
  Pd  Pd169  1  0.20140884  0.39707944  0.81098051  1
  Pd  Pd170  1  0.40445335  0.19048539  0.80307948  1
  Pd  Pd171  1  0.80728133  0.00630174  -0.00324737  1
  Pd  Pd172  1  0.19495990  0.80525315  0.79394017  1
  Pd  Pd173  1  0.20716004  0.18841620  0.00252767  1
  Pd  Pd174  1  -0.00742663  0.39504917  0.80689073  1
  Pd  Pd175  1  0.20337285  0.00480724  -0.00932891  1
  Pd  Pd176  1  0.60004676  0.19702190  0.80699189  1
  Pd  Pd177  1  0.20341167  0.60410386  0.60453944  1
  Pd  Pd178  1  0.61157036  0.01041126  0.80412853  1
  Pd  Pd179  1  0.00161591  0.00687486  0.40835705  1
  Pd  Pd180  1  -0.00363603  0.60319230  0.79649632  1
  Pd  Pd181  1  0.20742271  0.38802477  0.59960223  1
  Pd  Pd182  1  0.80204290  0.39655303  0.20361412  1
  Pd  Pd183  1  0.40848800  0.00610510  0.58978694  1
  Pd  Pd184  1  0.61012792  0.58620108  0.01448081  1
  Pd  Pd185  1  0.80508974  0.40029201  0.40067047  1
  Pd  Pd186  1  0.20350028  0.39209446  0.39434054  1
  Pd  Pd187  1  -0.00491520  0.40457685  0.20966120  1
  Pd  Pd188  1  0.40421429  0.78731222  0.80808307  1
  Pd  Pd189  1  0.80234912  0.20298669  0.20146860  1
  Pd  Pd190  1  0.80072873  0.40577760  -0.01239452  1
  Pd  Pd191  1  0.79166179  0.00957790  0.20908009  1
  Pd  Pd192  1  0.00049248  0.20883765  0.60012705  1
  Pd  Pd193  1  -0.00465139  0.59982585  0.59306437  1
  Pd  Pd194  1  0.19871550  0.80387721  0.39858270  1
  Pd  Pd195  1  0.39655837  0.40433313  0.40507452  1
  Pd  Pd196  1  0.19505773  0.59522810  0.19674703  1
  Pd  Pd197  1  0.60467048  0.79213940  0.40792903  1
  Pd  Pd198  1  0.81172904  0.18911041  0.00875185  1
  Pd  Pd199  1  0.40776521  0.19024068  0.40598889  1
  Rh  Rh200  1  0.78968894  0.19664886  0.79518476  1
  Rh  Rh201  1  0.59088017  0.21098092  -0.00879403  1
  Rh  Rh202  1  0.19530558  0.80096839  0.20027925  1
  Rh  Rh203  1  0.60139889  -0.00798916  0.60154779  1
  Rh  Rh204  1  0.40416900  0.59804433  0.20664121  1
  Rh  Rh205  1  0.00291753  0.21167416  0.79233933  1
  Rh  Rh206  1  -0.00414558  0.39793861  -0.00884167  1
  Rh  Rh207  1  0.59250356  0.20398662  0.39894264  1
  Rh  Rh208  1  -0.00696804  0.40707249  0.39719087  1
  Rh  Rh209  1  0.80114855  0.60658404  0.20043661  1
  Rh  Rh210  1  0.39229523  0.80468851  0.39938410  1
  Rh  Rh211  1  0.60465125  0.79330082  0.20047748  1
  Rh  Rh212  1  0.80618779  0.80941413  0.00215606  1
  Rh  Rh213  1  0.00045852  0.60822748  0.00343848  1
  Rh  Rh214  1  0.39413451  0.00182657  0.80755777  1
  Rh  Rh215  1  0.20503827  0.59084731  0.00193859  1
  Rh  Rh216  1  0.40260547  -0.00985528  0.20111601  1
  Rh  Rh217  1  -0.00450299  0.00445425  0.59240078  1
  Rh  Rh218  1  0.00522037  0.79252461  0.60072985  1
  Rh  Rh219  1  0.59374721  0.59938622  0.59130003  1
  Rh  Rh220  1  0.00353275  0.19946319  0.20099966  1
  Rh  Rh221  1  0.00027274  0.19683664  0.40328466  1
  Rh  Rh222  1  0.20145910  0.59966234  0.39706813  1
  Rh  Rh223  1  0.60572982  0.79463903  0.79481485  1
  Rh  Rh224  1  0.59492369  0.80950532  0.00638295  1
  Rh  Rh225  1  -0.00008507  -0.00563077  0.80588305  1
  Rh  Rh226  1  0.40887136  0.38760658  -0.00344812  1
  Rh  Rh227  1  0.00725032  0.78952428  0.39022503  1
  Rh  Rh228  1  0.00423669  -0.00596592  0.19522092  1
  Rh  Rh229  1  0.78890276  0.39206619  0.59589355  1
  Rh  Rh230  1  0.80132228  0.59234763  0.40897609  1
  Rh  Rh231  1  0.20466411  0.80006207  0.00251993  1
  Rh  Rh232  1  0.79414444  0.81700051  0.40722252  1
  Rh  Rh233  1  0.79451547  0.20076609  0.60158413  1
  Rh  Rh234  1  0.80416367  0.79863985  0.19903572  1
  Rh  Rh235  1  0.19731890  0.79963822  0.60211520  1
  Rh  Rh236  1  0.59603289  0.00318170  0.39295622  1
  Rh  Rh237  1  0.20479145  0.39299987  0.19969252  1
  Rh  Rh238  1  0.19839864  -0.00058995  0.39748107  1
  Rh  Rh239  1  0.79847125  0.59641064  -0.00585053  1
  Rh  Rh240  1  0.80937062  0.59346542  0.59803978  1
  Rh  Rh241  1  0.19151625  0.20030839  0.38958349  1
  Rh  Rh242  1  0.19621055  0.40209635  -0.00585921  1
  Rh  Rh243  1  -0.00173650  0.39500556  0.60059486  1
  Rh  Rh244  1  0.20461444  0.59475887  0.80262183  1
  Rh  Rh245  1  0.60361083  0.00276578  0.20063934  1
  Rh  Rh246  1  0.19467558  -0.00044722  0.60341477  1
  Rh  Rh247  1  0.80914803  0.59750209  0.79768416  1
  Rh  Rh248  1  0.59739553  0.60402596  0.79895745  1
  Rh  Rh249  1  0.80310934  0.19596493  0.39963144  1
