# generated using pymatgen
data_ZrScNbPdRh
_symmetry_space_group_name_H-M   'P 1'
_cell_length_a   16.55383972
_cell_length_b   16.55443138
_cell_length_c   16.55192349
_cell_angle_alpha   89.99276908
_cell_angle_beta   90.00176951
_cell_angle_gamma   89.99657276
_symmetry_Int_Tables_number   1
_chemical_formula_structural   ZrScNbPdRh
_chemical_formula_sum   'Zr50 Sc50 Nb50 Pd50 Rh50'
_cell_volume   4535.87919819
_cell_formula_units_Z   50
loop_
 _symmetry_equiv_pos_site_id
 _symmetry_equiv_pos_as_xyz
  1  'x, y, z'
loop_
 _atom_site_type_symbol
 _atom_site_label
 _atom_site_symmetry_multiplicity
 _atom_site_fract_x
 _atom_site_fract_y
 _atom_site_fract_z
 _atom_site_occupancy
  Zr  Zr0  1  0.90771539  0.49165164  0.09361768  1
  Zr  Zr1  1  0.50852473  0.09764775  0.49529669  1
  Zr  Zr2  1  0.50089809  0.70507310  0.09060530  1
  Zr  Zr3  1  0.89570079  0.49527035  0.49239400  1
  Zr  Zr4  1  0.70079277  0.48391898  0.70281362  1
  Zr  Zr5  1  0.08910855  0.90144318  0.90015498  1
  Zr  Zr6  1  0.10418992  0.09526518  0.89746341  1
  Zr  Zr7  1  0.50186391  0.30063715  0.09744466  1
  Zr  Zr8  1  0.49711811  0.70058374  0.49908719  1
  Zr  Zr9  1  0.91110370  0.29556312  0.29883091  1
  Zr  Zr10  1  0.29573006  0.90167449  0.49822953  1
  Zr  Zr11  1  0.09791495  0.70238102  0.69869645  1
  Zr  Zr12  1  0.50447134  0.29895691  0.49797646  1
  Zr  Zr13  1  0.09698548  0.49687206  0.90272481  1
  Zr  Zr14  1  0.89296952  0.10320910  0.49597689  1
  Zr  Zr15  1  0.09878150  0.09543798  0.50221866  1
  Zr  Zr16  1  0.89754320  0.30358468  0.70341940  1
  Zr  Zr17  1  0.08801585  0.70554126  0.49958574  1
  Zr  Zr18  1  0.70085037  0.10753757  0.71008764  1
  Zr  Zr19  1  0.49926745  0.48780590  0.10529005  1
  Zr  Zr20  1  0.30440780  0.09451175  0.09161960  1
  Zr  Zr21  1  0.29660905  0.49797267  0.90009253  1
  Zr  Zr22  1  0.10260790  0.29490028  0.90184121  1
  Zr  Zr23  1  0.30925950  0.70330678  0.89757995  1
  Zr  Zr24  1  0.50159908  0.10052094  0.09768190  1
  Zr  Zr25  1  0.70654346  0.70670063  0.29554287  1
  Zr  Zr26  1  0.50519595  0.09666770  0.30105224  1
  Zr  Zr27  1  0.69533659  0.90739189  0.70204474  1
  Zr  Zr28  1  0.29795446  0.10432679  0.89937510  1
  Zr  Zr29  1  0.10463034  0.11353284  0.30162179  1
  Zr  Zr30  1  0.29505404  0.90888860  0.90020245  1
  Zr  Zr31  1  0.90286414  0.89754731  0.50923555  1
  Zr  Zr32  1  0.09069345  0.30332542  0.10883742  1
  Zr  Zr33  1  0.89952666  0.49814737  0.89804252  1
  Zr  Zr34  1  0.90496864  0.70535087  0.89346171  1
  Zr  Zr35  1  0.70652594  0.50355617  0.30709747  1
  Zr  Zr36  1  0.69596586  0.70710065  0.09907958  1
  Zr  Zr37  1  0.50458778  0.09627257  0.69616250  1
  Zr  Zr38  1  0.49488777  0.70313969  0.70937038  1
  Zr  Zr39  1  0.89697934  0.10276823  0.30033963  1
  Zr  Zr40  1  0.30649940  0.29702560  0.90173050  1
  Zr  Zr41  1  0.30084971  0.49614805  0.30498883  1
  Zr  Zr42  1  0.10332871  0.29928092  0.49256024  1
  Zr  Zr43  1  0.10059131  0.70482703  0.10828988  1
  Zr  Zr44  1  0.49785645  0.69940430  0.90207410  1
  Zr  Zr45  1  0.90325096  0.09919762  0.70202947  1
  Zr  Zr46  1  0.89905827  0.50661350  0.30282815  1
  Zr  Zr47  1  0.30014860  0.09924592  0.29380324  1
  Zr  Zr48  1  0.30876712  0.30857133  0.70393051  1
  Zr  Zr49  1  0.89782804  0.29895442  0.49485259  1
  Sc  Sc50  1  0.30012055  0.30914399  0.09985545  1
  Sc  Sc51  1  0.09064858  0.90953602  0.69390886  1
  Sc  Sc52  1  0.90421643  0.30020158  0.90573813  1
  Sc  Sc53  1  0.28910960  0.30287038  0.30088442  1
  Sc  Sc54  1  0.89273169  0.71213381  0.69645497  1
  Sc  Sc55  1  0.70003634  0.69434139  0.90078624  1
  Sc  Sc56  1  0.70550206  0.09846690  0.30509272  1
  Sc  Sc57  1  0.09836542  0.89606184  0.09666684  1
  Sc  Sc58  1  0.30443118  0.91095005  0.29766489  1
  Sc  Sc59  1  0.89877642  0.70536174  0.49719575  1
  Sc  Sc60  1  0.69685353  0.29238569  0.89310420  1
  Sc  Sc61  1  0.29852061  0.30993965  0.49817001  1
  Sc  Sc62  1  0.10460769  0.50087994  0.29743843  1
  Sc  Sc63  1  0.49938080  0.49185241  0.49112475  1
  Sc  Sc64  1  0.10203336  0.69949074  0.90747369  1
  Sc  Sc65  1  0.70710034  0.49875415  0.90283144  1
  Sc  Sc66  1  0.08971529  0.69911602  0.29688708  1
  Sc  Sc67  1  0.70492583  0.70538286  0.69891240  1
  Sc  Sc68  1  0.29406787  0.70139912  0.09737748  1
  Sc  Sc69  1  0.70143761  0.90317757  0.49124999  1
  Sc  Sc70  1  0.29774607  0.09409695  0.49599656  1
  Sc  Sc71  1  0.69748884  0.29467570  0.29868309  1
  Sc  Sc72  1  0.49558240  0.88681621  0.89678049  1
  Sc  Sc73  1  0.10781336  0.48808449  0.70092210  1
  Sc  Sc74  1  0.50936062  0.70926789  0.30941257  1
  Sc  Sc75  1  0.50891698  0.30419543  0.29331209  1
  Sc  Sc76  1  0.29167829  0.69630440  0.30052836  1
  Sc  Sc77  1  0.29387014  0.90473555  0.69554012  1
  Sc  Sc78  1  0.90728315  0.90494211  0.09641447  1
  Sc  Sc79  1  0.90093741  0.89934817  0.70817660  1
  Sc  Sc80  1  0.49744382  0.49604313  0.90712501  1
  Sc  Sc81  1  0.69247720  0.29257125  0.09995537  1
  Sc  Sc82  1  0.88739390  0.89606867  0.30177928  1
  Sc  Sc83  1  0.49568329  0.10808085  0.90749678  1
  Sc  Sc84  1  0.10472144  0.50088501  0.10080079  1
  Sc  Sc85  1  0.70081493  0.91114512  0.89972004  1
  Sc  Sc86  1  0.89847860  0.09694422  0.90373728  1
  Sc  Sc87  1  0.29675650  0.69436282  0.70390245  1
  Sc  Sc88  1  0.70004178  0.70277302  0.49670484  1
  Sc  Sc89  1  0.50090342  0.89814879  0.09128483  1
  Sc  Sc90  1  0.30289390  0.90600711  0.09832610  1
  Sc  Sc91  1  0.89158531  0.10374864  0.09812636  1
  Sc  Sc92  1  0.70101826  0.90047244  0.09513485  1
  Sc  Sc93  1  0.10357271  0.10421699  0.09494353  1
  Sc  Sc94  1  0.10648568  0.49782176  0.49893843  1
  Sc  Sc95  1  0.90504868  0.69827378  0.11017637  1
  Sc  Sc96  1  0.50335543  0.49070773  0.30336786  1
  Sc  Sc97  1  0.29297527  0.69481224  0.49854999  1
  Sc  Sc98  1  0.49792195  0.90543432  0.48602006  1
  Sc  Sc99  1  0.70084970  0.49649496  0.09460954  1
  Nb  Nb100  1  0.30497724  0.49519972  0.69277430  1
  Nb  Nb101  1  0.70710376  0.29137257  0.50484731  1
  Nb  Nb102  1  0.09791777  0.29736025  0.69900640  1
  Nb  Nb103  1  0.90112474  0.69677356  0.30368334  1
  Nb  Nb104  1  0.09347585  0.89877974  0.49874932  1
  Nb  Nb105  1  0.09383942  0.89958374  0.29712114  1
  Nb  Nb106  1  0.48942873  0.29843686  0.89729329  1
  Nb  Nb107  1  0.90147376  0.49635951  0.70181797  1
  Nb  Nb108  1  0.69042536  0.89689936  0.29541253  1
  Nb  Nb109  1  0.10097289  0.10292482  0.70311878  1
  Nb  Nb110  1  0.90674109  0.89930389  0.90642666  1
  Nb  Nb111  1  0.49797655  0.48969450  0.69640160  1
  Nb  Nb112  1  0.49865382  0.89909217  0.70033355  1
  Nb  Nb113  1  0.69484562  0.09734270  0.08825708  1
  Nb  Nb114  1  0.50229108  0.30475861  0.70545208  1
  Nb  Nb115  1  0.70409780  0.10243467  0.91146119  1
  Nb  Nb116  1  0.30193775  0.49543487  0.50326920  1
  Nb  Nb117  1  0.70543409  0.49676050  0.49776904  1
  Nb  Nb118  1  0.30284206  0.49849960  0.11264141  1
  Nb  Nb119  1  0.50380713  0.90244505  0.29824988  1
  Nb  Nb120  1  0.69730540  0.29414559  0.69824662  1
  Nb  Nb121  1  0.30113432  0.10323387  0.70326153  1
  Nb  Nb122  1  0.90256397  0.30329303  0.10839800  1
  Nb  Nb123  1  0.09990567  0.29695104  0.29999867  1
  Nb  Nb124  1  0.70233820  0.10756939  0.50084687  1
  Nb  Nb125  1  0.40241890  0.79879403  0.60109422  1
  Nb  Nb126  1  -0.00821810  0.59288381  0.60526418  1
  Nb  Nb127  1  0.60357789  -0.00158526  0.19890998  1
  Nb  Nb128  1  0.40507717  0.79810128  0.20238003  1
  Nb  Nb129  1  0.40206552  0.59310710  0.60160232  1
  Nb  Nb130  1  0.00182923  -0.00484528  0.39752022  1
  Nb  Nb131  1  0.40143784  0.19844666  0.20205186  1
  Nb  Nb132  1  0.39971864  0.20071527  0.60107557  1
  Nb  Nb133  1  0.79512902  0.00756852  0.60034647  1
  Nb  Nb134  1  0.18893354  0.80888772  0.39942546  1
  Nb  Nb135  1  0.59142446  0.80223123  0.60228765  1
  Nb  Nb136  1  0.40176725  0.19983476  0.39803119  1
  Nb  Nb137  1  0.80744217  0.39659614  0.19940484  1
  Nb  Nb138  1  0.00533168  0.20189731  0.60413952  1
  Nb  Nb139  1  0.59712988  0.60301404  0.19880502  1
  Nb  Nb140  1  0.40586195  0.60223827  0.20065252  1
  Nb  Nb141  1  0.19668094  0.80371200  0.80115016  1
  Nb  Nb142  1  0.59621898  0.59248548  0.79027025  1
  Nb  Nb143  1  0.39995183  0.00373151  0.79433253  1
  Nb  Nb144  1  0.00173770  0.00353381  0.20814523  1
  Nb  Nb145  1  -0.00395750  0.59709239  0.79279479  1
  Nb  Nb146  1  0.20081693  0.19999162  0.60827754  1
  Nb  Nb147  1  0.59922797  0.59464315  0.60280590  1
  Nb  Nb148  1  0.79809751  0.58821910  0.60014907  1
  Nb  Nb149  1  0.80781427  0.80186079  -0.00494204  1
  Pd  Pd150  1  -0.00405070  0.19938512  0.80239140  1
  Pd  Pd151  1  0.00391551  0.59366367  0.20061555  1
  Pd  Pd152  1  0.79545363  0.59314224  0.19065776  1
  Pd  Pd153  1  0.79977019  0.39010592  0.80759049  1
  Pd  Pd154  1  -0.00061899  0.60529448  -0.00194335  1
  Pd  Pd155  1  -0.00282840  0.19642003  0.00474445  1
  Pd  Pd156  1  0.20815815  0.80731069  0.20823030  1
  Pd  Pd157  1  0.60613488  -0.00593587  0.59116033  1
  Pd  Pd158  1  0.20368837  0.59901337  0.00503910  1
  Pd  Pd159  1  0.60886894  0.79481582  0.80156544  1
  Pd  Pd160  1  0.19319500  -0.00390264  0.39488336  1
  Pd  Pd161  1  0.60212365  0.39959480  0.59258550  1
  Pd  Pd162  1  0.59348151  -0.00512956  -0.00433071  1
  Pd  Pd163  1  0.79815750  0.60011071  0.79072427  1
  Pd  Pd164  1  0.79876791  0.39619549  0.59838404  1
  Pd  Pd165  1  0.19331801  0.60257291  0.80021870  1
  Pd  Pd166  1  0.20185893  0.80362633  -0.00469582  1
  Pd  Pd167  1  0.20049470  0.39522369  0.80054265  1
  Pd  Pd168  1  0.40403544  0.58754257  0.79666609  1
  Pd  Pd169  1  0.20251684  0.79997804  0.60006040  1
  Pd  Pd170  1  0.79347812  0.80802408  0.80898947  1
  Pd  Pd171  1  0.19876836  0.59491338  0.59919612  1
  Pd  Pd172  1  0.40144038  0.59772821  0.39801202  1
  Pd  Pd173  1  0.80654309  0.80804561  0.19015570  1
  Pd  Pd174  1  0.00410322  0.39926335  0.59781659  1
  Pd  Pd175  1  0.19215445  0.60521720  0.40035863  1
  Pd  Pd176  1  0.79920338  0.80044012  0.40241941  1
  Pd  Pd177  1  0.79474897  0.38731779  0.00423202  1
  Pd  Pd178  1  0.79253502  0.20243479  0.19681923  1
  Pd  Pd179  1  0.39433855  0.59267275  0.00942085  1
  Pd  Pd180  1  0.79700862  -0.00356265  0.19346048  1
  Pd  Pd181  1  0.60039626  0.59426587  -0.00119530  1
  Pd  Pd182  1  0.59648601  0.40176817  0.81023379  1
  Pd  Pd183  1  0.19825628  0.00454580  0.60525931  1
  Pd  Pd184  1  0.61097213  0.39225962  0.40304977  1
  Pd  Pd185  1  0.80149098  0.20653590  0.00040224  1
  Pd  Pd186  1  0.20810482  0.20568221  0.18945216  1
  Pd  Pd187  1  0.60283558  0.60197347  0.39962489  1
  Pd  Pd188  1  0.00773789  0.40653743  0.39438260  1
  Pd  Pd189  1  0.59369414  0.19694672  0.80782737  1
  Pd  Pd190  1  0.59711008  0.20395021  0.60232862  1
  Pd  Pd191  1  0.58863735  0.00681402  0.81380985  1
  Pd  Pd192  1  0.38689685  0.80077004  0.39571709  1
  Pd  Pd193  1  0.39991857  -0.00129382  0.60018823  1
  Pd  Pd194  1  0.80678200  0.60916395  0.00646423  1
  Pd  Pd195  1  0.20247505  0.20494425  0.79678510  1
  Pd  Pd196  1  0.19892106  0.39852349  0.00605978  1
  Pd  Pd197  1  0.60403286  0.39252007  -0.00854705  1
  Pd  Pd198  1  0.80572208  0.00150381  0.80259692  1
  Pd  Pd199  1  0.19100000  -0.00286201  0.19269949  1
  Rh  Rh200  1  -0.00002059  0.00819178  0.00664741  1
  Rh  Rh201  1  0.60378876  0.80384066  0.40596968  1
  Rh  Rh202  1  0.40270766  0.40667193  0.80695619  1
  Rh  Rh203  1  0.19241333  -0.00050423  0.00392835  1
  Rh  Rh204  1  -0.00117961  0.00307754  0.80424778  1
  Rh  Rh205  1  0.80176618  0.20186491  0.80504657  1
  Rh  Rh206  1  0.40937712  0.19516381  0.78990457  1
  Rh  Rh207  1  0.60059526  0.18654049  0.19791010  1
  Rh  Rh208  1  0.19524720  0.39928598  0.20172400  1
  Rh  Rh209  1  0.40458258  0.39830025  0.59396880  1
  Rh  Rh210  1  -0.00310311  0.79749193  0.60671024  1
  Rh  Rh211  1  -0.00538793  0.79306203  0.00807710  1
  Rh  Rh212  1  0.61057630  0.00034231  0.39364898  1
  Rh  Rh213  1  0.38252328  0.81396157  0.79346386  1
  Rh  Rh214  1  0.78926341  0.81093014  0.60076850  1
  Rh  Rh215  1  0.00726098  0.79784617  0.79656180  1
  Rh  Rh216  1  0.20931923  0.20277141  0.40919961  1
  Rh  Rh217  1  0.39548903  0.40248919  -0.00206716  1
  Rh  Rh218  1  0.40553399  -0.00453748  -0.01350598  1
  Rh  Rh219  1  0.19729953  0.40262990  0.39725239  1
  Rh  Rh220  1  0.39797524  0.39174923  0.39650077  1
  Rh  Rh221  1  0.79499122  0.20609176  0.39432998  1
  Rh  Rh222  1  -0.00039033  0.59827522  0.40615882  1
  Rh  Rh223  1  0.39626674  0.39660063  0.20814110  1
  Rh  Rh224  1  -0.00222900  0.80367742  0.38987537  1
  Rh  Rh225  1  0.39141891  0.80334949  0.00701750  1
  Rh  Rh226  1  0.20188591  0.20531715  0.00331861  1
  Rh  Rh227  1  0.80427914  0.19800321  0.60779266  1
  Rh  Rh228  1  -0.00771120  0.00774849  0.59623305  1
  Rh  Rh229  1  0.59907824  0.20432381  -0.00659556  1
  Rh  Rh230  1  0.20085802  -0.00399355  0.79413650  1
  Rh  Rh231  1  0.00463762  0.39403612  -0.00210221  1
  Rh  Rh232  1  0.20051570  0.39490280  0.60115300  1
  Rh  Rh233  1  -0.00063689  0.40698677  0.20789904  1
  Rh  Rh234  1  0.61355886  0.80457735  -0.01069254  1
  Rh  Rh235  1  0.41344492  -0.00290437  0.19779475  1
  Rh  Rh236  1  0.00063504  0.19001568  0.19313858  1
  Rh  Rh237  1  0.00302365  0.40178152  0.80401356  1
  Rh  Rh238  1  0.60166159  0.20193000  0.40031066  1
  Rh  Rh239  1  0.20588252  0.59832782  0.20014882  1
  Rh  Rh240  1  0.79515440  0.38838028  0.39179444  1
  Rh  Rh241  1  0.39745775  0.20625287  0.01078766  1
  Rh  Rh242  1  0.59227145  0.80298927  0.19820612  1
  Rh  Rh243  1  0.61727875  0.41187467  0.20402846  1
  Rh  Rh244  1  0.80081298  -0.00165832  0.40552087  1
  Rh  Rh245  1  0.00251788  0.19463383  0.40656252  1
  Rh  Rh246  1  0.80371056  -0.00480042  -0.00082836  1
  Rh  Rh247  1  0.80228071  0.61102242  0.40853830  1
  Rh  Rh248  1  -0.00848269  0.80732566  0.20406264  1
  Rh  Rh249  1  0.39983462  0.00570771  0.39785358  1
