# generated using pymatgen
data_ZrScNbPdRh
_symmetry_space_group_name_H-M   'P 1'
_cell_length_a   16.55829746
_cell_length_b   16.55859657
_cell_length_c   16.55868739
_cell_angle_alpha   90.03919424
_cell_angle_beta   89.98106441
_cell_angle_gamma   90.01846443
_symmetry_Int_Tables_number   1
_chemical_formula_structural   ZrScNbPdRh
_chemical_formula_sum   'Zr50 Sc50 Nb50 Pd50 Rh50'
_cell_volume   4540.09525621
_cell_formula_units_Z   50
loop_
 _symmetry_equiv_pos_site_id
 _symmetry_equiv_pos_as_xyz
  1  'x, y, z'
loop_
 _atom_site_type_symbol
 _atom_site_label
 _atom_site_symmetry_multiplicity
 _atom_site_fract_x
 _atom_site_fract_y
 _atom_site_fract_z
 _atom_site_occupancy
  Zr  Zr0  1  0.90556780  0.89827054  0.29887521  1
  Zr  Zr1  1  0.09767501  0.69406122  0.10479883  1
  Zr  Zr2  1  0.69816545  0.10262982  0.90345323  1
  Zr  Zr3  1  0.90116801  0.28542053  0.49812223  1
  Zr  Zr4  1  0.69836475  0.89802875  0.70188530  1
  Zr  Zr5  1  0.89876296  0.70021840  0.49697867  1
  Zr  Zr6  1  0.70771314  0.90235827  0.10889516  1
  Zr  Zr7  1  0.69817273  0.49722247  0.50360116  1
  Zr  Zr8  1  0.49586782  0.49633562  0.50261685  1
  Zr  Zr9  1  0.50226622  0.89720243  0.70972316  1
  Zr  Zr10  1  0.69264388  0.49244294  0.70187837  1
  Zr  Zr11  1  0.91581042  0.90551900  0.90736312  1
  Zr  Zr12  1  0.10246014  0.90793269  0.69895493  1
  Zr  Zr13  1  0.89725704  0.49639620  0.29608171  1
  Zr  Zr14  1  0.49362768  0.29987037  0.50208402  1
  Zr  Zr15  1  0.91166249  0.10774629  0.68908539  1
  Zr  Zr16  1  0.90063539  0.48944481  0.70486481  1
  Zr  Zr17  1  0.09313986  0.70267627  0.29901079  1
  Zr  Zr18  1  0.70209353  0.30075492  0.89031766  1
  Zr  Zr19  1  0.69709356  0.49447212  0.30068130  1
  Zr  Zr20  1  0.31451293  0.50733206  0.29679691  1
  Zr  Zr21  1  0.50414294  0.10565212  0.30097681  1
  Zr  Zr22  1  0.90392511  0.50022031  0.50331903  1
  Zr  Zr23  1  0.30542269  0.70560810  0.30810851  1
  Zr  Zr24  1  0.11011601  0.10237241  0.69706620  1
  Zr  Zr25  1  0.49430250  0.69786687  0.49301133  1
  Zr  Zr26  1  0.30304225  0.29657384  0.29826532  1
  Zr  Zr27  1  0.29679837  0.89370044  0.49076817  1
  Zr  Zr28  1  0.09884644  0.68572468  0.49367299  1
  Zr  Zr29  1  0.70176112  0.70096241  0.09863843  1
  Zr  Zr30  1  0.29152827  0.48916087  0.50023439  1
  Zr  Zr31  1  0.49690984  0.90238234  0.90774395  1
  Zr  Zr32  1  0.69435040  0.29968308  0.09954301  1
  Zr  Zr33  1  0.70987080  0.69439402  0.29699422  1
  Zr  Zr34  1  0.50528003  0.30194216  0.70145581  1
  Zr  Zr35  1  0.30289827  0.49348963  0.90319262  1
  Zr  Zr36  1  0.89813385  0.70631395  0.11112396  1
  Zr  Zr37  1  0.70344913  0.90861401  0.29821183  1
  Zr  Zr38  1  0.49662529  0.89914304  0.09549332  1
  Zr  Zr39  1  0.49706862  0.11125402  0.69945479  1
  Zr  Zr40  1  0.89910042  0.48812520  0.90263309  1
  Zr  Zr41  1  0.30214374  0.30296380  0.09528193  1
  Zr  Zr42  1  0.49729415  0.49567777  0.10437935  1
  Zr  Zr43  1  0.70841222  0.69570141  0.50080375  1
  Zr  Zr44  1  0.49870221  0.09956585  0.09604781  1
  Zr  Zr45  1  0.70616138  0.10810715  0.49144279  1
  Zr  Zr46  1  0.30171358  0.69404419  0.10476633  1
  Zr  Zr47  1  0.49807119  0.29576151  0.10233472  1
  Zr  Zr48  1  0.10274258  0.49973986  0.09346489  1
  Zr  Zr49  1  0.09759079  0.49732241  0.89855700  1
  Sc  Sc50  1  0.30133505  0.10336293  0.50077474  1
  Sc  Sc51  1  0.50198668  0.10569233  0.49568419  1
  Sc  Sc52  1  0.29928566  0.11410050  0.09940428  1
  Sc  Sc53  1  0.30668915  0.89651654  0.90663619  1
  Sc  Sc54  1  0.10885891  0.09507412  0.29991190  1
  Sc  Sc55  1  0.70139724  0.69507574  0.69597257  1
  Sc  Sc56  1  0.09248378  0.09519109  0.89283073  1
  Sc  Sc57  1  0.89694725  0.49544695  0.10065152  1
  Sc  Sc58  1  0.30485121  0.51425400  0.70322293  1
  Sc  Sc59  1  0.10127380  0.29610530  0.69523879  1
  Sc  Sc60  1  0.09834828  0.70283150  0.90308071  1
  Sc  Sc61  1  0.30414013  0.89668706  0.09545946  1
  Sc  Sc62  1  0.50053554  0.70698033  0.10093688  1
  Sc  Sc63  1  0.69196809  0.11325853  0.70616246  1
  Sc  Sc64  1  0.09520833  0.50423480  0.30591790  1
  Sc  Sc65  1  0.50260749  0.30559452  0.30307505  1
  Sc  Sc66  1  0.91091758  0.89295208  0.69367013  1
  Sc  Sc67  1  0.89755707  0.29922862  0.70082823  1
  Sc  Sc68  1  0.88570595  0.08456490  0.08807900  1
  Sc  Sc69  1  0.89366070  0.09717804  0.31590861  1
  Sc  Sc70  1  0.10222431  0.49663523  0.68947950  1
  Sc  Sc71  1  0.90397010  0.09944670  0.49864164  1
  Sc  Sc72  1  0.09410948  0.30910685  0.30435349  1
  Sc  Sc73  1  0.89891897  0.10097312  0.89917577  1
  Sc  Sc74  1  0.30525796  0.29805384  0.90367312  1
  Sc  Sc75  1  0.10222704  0.90741791  0.49044622  1
  Sc  Sc76  1  0.89925633  0.30425674  0.89833571  1
  Sc  Sc77  1  0.70995884  0.89638546  0.49641388  1
  Sc  Sc78  1  0.68932639  0.29682886  0.30161960  1
  Sc  Sc79  1  0.68393207  0.89792795  0.89759815  1
  Sc  Sc80  1  0.90194424  0.70596678  0.90899272  1
  Sc  Sc81  1  0.29775028  0.70064159  0.50164702  1
  Sc  Sc82  1  0.10696173  0.30035741  0.10090307  1
  Sc  Sc83  1  0.30363123  0.10726302  0.89984228  1
  Sc  Sc84  1  0.49061017  0.69363535  0.70091942  1
  Sc  Sc85  1  0.49465022  0.90373907  0.49072713  1
  Sc  Sc86  1  0.09664699  0.70310901  0.69719882  1
  Sc  Sc87  1  0.30154418  0.28587003  0.69361174  1
  Sc  Sc88  1  0.11174484  0.10158972  0.10771296  1
  Sc  Sc89  1  0.09378114  0.10201985  0.50350902  1
  Sc  Sc90  1  0.90317655  0.90409065  0.49710002  1
  Sc  Sc91  1  0.09558451  0.30523837  0.90387558  1
  Sc  Sc92  1  0.50754683  0.69984333  0.90326722  1
  Sc  Sc93  1  0.90499581  0.69174791  0.30058962  1
  Sc  Sc94  1  0.29846686  0.69785841  0.90044106  1
  Sc  Sc95  1  0.50065110  0.10205609  0.90117753  1
  Sc  Sc96  1  0.09590363  0.89817517  0.09602185  1
  Sc  Sc97  1  0.69522244  0.69552731  0.90916750  1
  Sc  Sc98  1  0.90383718  0.70529742  0.69174108  1
  Sc  Sc99  1  0.49577533  0.89786601  0.29981436  1
  Nb  Nb100  1  0.69698985  0.29942791  0.50503192  1
  Nb  Nb101  1  0.10778938  0.90596722  0.29674631  1
  Nb  Nb102  1  0.11651654  0.31243960  0.50062449  1
  Nb  Nb103  1  0.90074671  0.90146741  0.10353204  1
  Nb  Nb104  1  0.29628232  0.71372666  0.70040772  1
  Nb  Nb105  1  0.29976040  0.09817424  0.70054571  1
  Nb  Nb106  1  0.69568288  0.50381235  0.09685076  1
  Nb  Nb107  1  0.50293457  0.49939318  0.70792037  1
  Nb  Nb108  1  0.69478021  0.50514239  0.90161647  1
  Nb  Nb109  1  0.30066685  0.89868003  0.69460333  1
  Nb  Nb110  1  0.69704574  0.29867634  0.69193762  1
  Nb  Nb111  1  0.30132074  0.49848516  0.09893962  1
  Nb  Nb112  1  0.10480462  0.48805407  0.49891358  1
  Nb  Nb113  1  0.50343224  0.50387528  0.30494905  1
  Nb  Nb114  1  0.69961538  0.09983219  0.29622409  1
  Nb  Nb115  1  0.69732718  0.10096894  0.10879865  1
  Nb  Nb116  1  0.49518170  0.69136331  0.30145562  1
  Nb  Nb117  1  0.29243113  0.09952726  0.29074149  1
  Nb  Nb118  1  0.29671721  0.30326237  0.49793807  1
  Nb  Nb119  1  0.89695410  0.29850033  0.29702059  1
  Nb  Nb120  1  0.49554386  0.30764598  0.89781185  1
  Nb  Nb121  1  0.89913601  0.29943465  0.10450320  1
  Nb  Nb122  1  0.10037928  0.90163878  0.89697550  1
  Nb  Nb123  1  0.28665358  0.90944922  0.30351769  1
  Nb  Nb124  1  0.50403042  0.49898411  0.89062951  1
  Nb  Nb125  1  -0.00623991  0.59602007  0.80092797  1
  Nb  Nb126  1  0.20757668  0.40760961  0.19882254  1
  Nb  Nb127  1  0.20326358  0.40119508  0.79925059  1
  Nb  Nb128  1  0.59817864  0.40560141  -0.00729314  1
  Nb  Nb129  1  0.20110287  0.80745418  0.79630444  1
  Nb  Nb130  1  0.80054940  0.19643917  0.19989848  1
  Nb  Nb131  1  0.20255013  0.20679266  0.40244466  1
  Nb  Nb132  1  0.80238726  0.59796043  0.80508310  1
  Nb  Nb133  1  0.60009575  -0.00138475  0.60042456  1
  Nb  Nb134  1  0.40294231  0.59041762  0.00026193  1
  Nb  Nb135  1  0.39910422  -0.00146725  0.60658415  1
  Nb  Nb136  1  0.80120356  -0.00367200  0.79546897  1
  Nb  Nb137  1  -0.00572298  0.19934805  0.01208890  1
  Nb  Nb138  1  0.79554797  0.00436256  0.60748925  1
  Nb  Nb139  1  0.80289069  0.80203093  0.80272801  1
  Nb  Nb140  1  0.60115302  0.79237230  0.39746303  1
  Nb  Nb141  1  -0.01090263  0.19649783  0.19886268  1
  Nb  Nb142  1  0.59715865  0.80106771  0.59304266  1
  Nb  Nb143  1  0.39100194  0.00420643  0.20450250  1
  Nb  Nb144  1  0.19878187  0.80283785  0.20529191  1
  Nb  Nb145  1  -0.00363383  0.00123629  0.19815147  1
  Nb  Nb146  1  0.80087574  0.39175159  0.40245576  1
  Nb  Nb147  1  0.39535011  0.00004583  0.79280531  1
  Nb  Nb148  1  0.19752472  -0.00207900  -0.00493916  1
  Nb  Nb149  1  0.59792946  0.59783011  0.20310629  1
  Pd  Pd150  1  0.40667587  0.80541411  0.59535075  1
  Pd  Pd151  1  0.80517568  0.19573627  0.79426432  1
  Pd  Pd152  1  0.59324441  0.60437047  0.60471641  1
  Pd  Pd153  1  0.20558081  0.00274886  0.59031812  1
  Pd  Pd154  1  0.01086554  0.80437016  0.58599958  1
  Pd  Pd155  1  0.59534531  0.20684399  -0.00697766  1
  Pd  Pd156  1  0.18867404  0.19400555  -0.01121271  1
  Pd  Pd157  1  0.19894406  0.59858515  0.20924789  1
  Pd  Pd158  1  0.39266568  0.80876721  0.20633274  1
  Pd  Pd159  1  0.39425616  0.19647659  0.39838534  1
  Pd  Pd160  1  0.60522938  0.78383545  0.79500468  1
  Pd  Pd161  1  0.80753031  0.59879991  -0.00125860  1
  Pd  Pd162  1  0.00345362  0.79843045  0.00617044  1
  Pd  Pd163  1  0.39343604  0.00694576  0.39665852  1
  Pd  Pd164  1  0.79262219  0.39786181  0.00202974  1
  Pd  Pd165  1  0.20477950  0.60057384  -0.00456966  1
  Pd  Pd166  1  0.00065617  0.38938702  0.59800895  1
  Pd  Pd167  1  0.00088055  0.20634492  0.80712673  1
  Pd  Pd168  1  0.39378086  0.60114630  0.59740807  1
  Pd  Pd169  1  0.40050803  0.39585806  0.20533392  1
  Pd  Pd170  1  0.79111511  0.39319417  0.20331018  1
  Pd  Pd171  1  0.20247744  0.60164001  0.60244158  1
  Pd  Pd172  1  0.79018509  -0.01058715  -0.01151421  1
  Pd  Pd173  1  0.79539788  0.80992821  -0.00746050  1
  Pd  Pd174  1  0.60415957  -0.00552373  0.40548781  1
  Pd  Pd175  1  0.80142120  0.80132573  0.39265645  1
  Pd  Pd176  1  0.00888718  0.39898478  0.19439983  1
  Pd  Pd177  1  -0.00648252  0.00229870  0.79145546  1
  Pd  Pd178  1  0.19864634  0.20910098  0.80699569  1
  Pd  Pd179  1  0.59967970  0.79319405  0.20817476  1
  Pd  Pd180  1  0.39001427  0.39464373  0.78896118  1
  Pd  Pd181  1  0.19093731  0.60391131  0.79695071  1
  Pd  Pd182  1  0.19826091  0.80317380  0.00081132  1
  Pd  Pd183  1  0.39562527  0.79892461  0.80794112  1
  Pd  Pd184  1  0.80420102  0.20278049  0.00532877  1
  Pd  Pd185  1  0.80264572  0.39162073  0.59574034  1
  Pd  Pd186  1  0.19069042  0.79905037  0.59760572  1
  Pd  Pd187  1  0.00125857  0.59705099  0.60431652  1
  Pd  Pd188  1  0.39412622  0.40016689  0.61150870  1
  Pd  Pd189  1  0.00514970  0.80428658  0.40337757  1
  Pd  Pd190  1  0.60746472  -0.00136636  0.00555672  1
  Pd  Pd191  1  0.80469987  0.59700291  0.61027765  1
  Pd  Pd192  1  0.01199291  0.19790477  0.39414704  1
  Pd  Pd193  1  0.21121492  -0.00551090  0.80958343  1
  Pd  Pd194  1  -0.00680664  0.39812892  0.40477597  1
  Pd  Pd195  1  0.20342315  0.59550322  0.39529518  1
  Pd  Pd196  1  0.60320558  0.60275336  0.39809005  1
  Pd  Pd197  1  -0.00875005  0.60006106  -0.00079197  1
  Pd  Pd198  1  0.40099065  0.60699304  0.80768459  1
  Pd  Pd199  1  0.58928413  -0.00073603  0.19950578  1
  Rh  Rh200  1  -0.00346241  -0.00172701  0.59907767  1
  Rh  Rh201  1  0.40251118  0.78518160  -0.00405778  1
  Rh  Rh202  1  0.59346775  0.39866073  0.59899447  1
  Rh  Rh203  1  -0.00235491  0.59169482  0.40257301  1
  Rh  Rh204  1  0.79905175  -0.00132302  0.40606163  1
  Rh  Rh205  1  0.79710561  0.80627594  0.60584560  1
  Rh  Rh206  1  0.20050137  0.01363565  0.40791646  1
  Rh  Rh207  1  0.60492270  0.60210790  0.79537187  1
  Rh  Rh208  1  0.19994021  0.19780562  0.59123855  1
  Rh  Rh209  1  0.20584835  0.39955810  0.38661236  1
  Rh  Rh210  1  0.80843867  0.00829250  0.20629142  1
  Rh  Rh211  1  0.40855712  0.40318781  -0.00201198  1
  Rh  Rh212  1  0.01259096  0.00949674  0.01013941  1
  Rh  Rh213  1  0.40372619  0.80342800  0.39517534  1
  Rh  Rh214  1  0.60147579  0.19789148  0.20219599  1
  Rh  Rh215  1  0.39735562  0.19684178  0.59478440  1
  Rh  Rh216  1  0.00606013  0.80795762  0.19869917  1
  Rh  Rh217  1  0.40603603  0.19515392  0.20192321  1
  Rh  Rh218  1  0.79184056  0.20849241  0.39150777  1
  Rh  Rh219  1  0.59550378  0.01225305  0.79826867  1
  Rh  Rh220  1  0.79074563  0.40285903  0.79796727  1
  Rh  Rh221  1  -0.00445526  0.59207502  0.19663464  1
  Rh  Rh222  1  0.19226897  0.79586432  0.39564346  1
  Rh  Rh223  1  0.20954491  0.39966351  0.61334878  1
  Rh  Rh224  1  0.01061343  0.20754213  0.59462424  1
  Rh  Rh225  1  0.40599198  0.20211837  -0.00346585  1
  Rh  Rh226  1  0.60338678  0.39565163  0.80235725  1
  Rh  Rh227  1  0.60043274  0.19867169  0.59273898  1
  Rh  Rh228  1  0.40191493  0.19896869  0.80346657  1
  Rh  Rh229  1  0.01224668  0.40097269  0.79325944  1
  Rh  Rh230  1  0.79595683  0.19554039  0.60479778  1
  Rh  Rh231  1  0.80410048  0.80135071  0.20649049  1
  Rh  Rh232  1  0.40933372  0.60280481  0.19238208  1
  Rh  Rh233  1  0.00320622  0.79210778  0.80425974  1
  Rh  Rh234  1  0.59530018  0.20717914  0.80638730  1
  Rh  Rh235  1  -0.00084256  0.39010608  0.00757208  1
  Rh  Rh236  1  0.40234453  0.40279749  0.39888541  1
  Rh  Rh237  1  0.20288632  -0.01088437  0.18481534  1
  Rh  Rh238  1  0.60123126  0.40599833  0.19534157  1
  Rh  Rh239  1  0.39459578  0.59344069  0.41078849  1
  Rh  Rh240  1  0.60084564  0.20516822  0.40179107  1
  Rh  Rh241  1  0.18842158  0.21594144  0.21436799  1
  Rh  Rh242  1  0.58970562  0.59368901  0.00824388  1
  Rh  Rh243  1  0.60340716  0.80464886  0.00815310  1
  Rh  Rh244  1  0.79699162  0.59463160  0.19307182  1
  Rh  Rh245  1  0.60130075  0.39722477  0.40909312  1
  Rh  Rh246  1  0.20029365  0.39881112  -0.00085767  1
  Rh  Rh247  1  0.38802876  0.00957512  0.00294666  1
  Rh  Rh248  1  0.00565581  0.00226931  0.39153093  1
  Rh  Rh249  1  0.80618784  0.58788383  0.40184523  1
