# generated using pymatgen
data_ZrScNbPdRh
_symmetry_space_group_name_H-M   'P 1'
_cell_length_a   16.55204327
_cell_length_b   16.55575041
_cell_length_c   16.55430349
_cell_angle_alpha   89.99912595
_cell_angle_beta   90.01752477
_cell_angle_gamma   90.01697287
_symmetry_Int_Tables_number   1
_chemical_formula_structural   ZrScNbPdRh
_chemical_formula_sum   'Zr50 Sc50 Nb50 Pd50 Rh50'
_cell_volume   4536.40015835
_cell_formula_units_Z   50
loop_
 _symmetry_equiv_pos_site_id
 _symmetry_equiv_pos_as_xyz
  1  'x, y, z'
loop_
 _atom_site_type_symbol
 _atom_site_label
 _atom_site_symmetry_multiplicity
 _atom_site_fract_x
 _atom_site_fract_y
 _atom_site_fract_z
 _atom_site_occupancy
  Zr  Zr0  1  0.69571492  0.69659856  0.30172820  1
  Zr  Zr1  1  0.09744955  0.91777885  0.69869185  1
  Zr  Zr2  1  0.70421816  0.89893716  0.29499983  1
  Zr  Zr3  1  0.50291689  0.70288536  0.89449990  1
  Zr  Zr4  1  0.10018726  0.50137047  0.50263215  1
  Zr  Zr5  1  0.89880918  0.30051559  0.09413315  1
  Zr  Zr6  1  0.89653574  0.10746791  0.10546032  1
  Zr  Zr7  1  0.70161453  0.90851397  0.89670194  1
  Zr  Zr8  1  0.71309559  0.69535774  0.50093326  1
  Zr  Zr9  1  0.30423608  0.69829793  0.49939289  1
  Zr  Zr10  1  0.70567230  0.69854749  0.89671511  1
  Zr  Zr11  1  0.29855376  0.69344368  0.10164687  1
  Zr  Zr12  1  0.69820701  0.10325287  0.09122926  1
  Zr  Zr13  1  0.29482999  0.50287400  0.50125452  1
  Zr  Zr14  1  0.30382910  0.30127844  0.49067926  1
  Zr  Zr15  1  0.50035405  0.30584325  0.70242859  1
  Zr  Zr16  1  0.90033117  0.69791955  0.09868314  1
  Zr  Zr17  1  0.49949699  0.30344993  0.30662086  1
  Zr  Zr18  1  0.50296903  0.49528859  0.89826663  1
  Zr  Zr19  1  0.49887574  0.29989598  0.90032919  1
  Zr  Zr20  1  0.10314847  0.69476831  0.71183493  1
  Zr  Zr21  1  0.90760149  0.10074686  0.29825914  1
  Zr  Zr22  1  0.49920660  0.90018394  0.69323525  1
  Zr  Zr23  1  0.89762110  0.89691208  0.49922138  1
  Zr  Zr24  1  0.89085657  0.71180128  0.30304815  1
  Zr  Zr25  1  0.30171092  0.90665426  0.10256343  1
  Zr  Zr26  1  0.30546371  0.49449777  0.90512716  1
  Zr  Zr27  1  0.50445352  0.89966425  0.90063101  1
  Zr  Zr28  1  0.09243655  0.50248790  0.90308562  1
  Zr  Zr29  1  0.50084048  0.90093645  0.49970041  1
  Zr  Zr30  1  0.10238140  0.08723807  0.89185490  1
  Zr  Zr31  1  0.70048438  0.69613080  0.69612252  1
  Zr  Zr32  1  0.70395157  0.10015876  0.69759457  1
  Zr  Zr33  1  0.30130151  0.09639753  0.70189427  1
  Zr  Zr34  1  0.29743753  0.10438371  0.49219651  1
  Zr  Zr35  1  0.30591427  0.09503822  0.10891982  1
  Zr  Zr36  1  0.89066017  0.10136458  0.49524519  1
  Zr  Zr37  1  0.09167555  0.30156877  0.30445207  1
  Zr  Zr38  1  0.89650576  0.89295262  0.89864793  1
  Zr  Zr39  1  0.50958113  0.29333291  0.10628693  1
  Zr  Zr40  1  0.69339558  0.91439961  0.49563530  1
  Zr  Zr41  1  0.89189924  0.50199173  0.90442864  1
  Zr  Zr42  1  0.30484149  0.09738837  0.90997052  1
  Zr  Zr43  1  0.89159675  0.50632172  0.50021962  1
  Zr  Zr44  1  0.29846270  0.30026267  0.90716824  1
  Zr  Zr45  1  0.89743501  0.30245438  0.69384932  1
  Zr  Zr46  1  0.29858584  0.29573750  0.09593356  1
  Zr  Zr47  1  0.29406273  0.70033293  0.89824154  1
  Zr  Zr48  1  0.50054669  0.70890133  0.69823229  1
  Zr  Zr49  1  0.89572332  0.29270360  0.29493984  1
  Sc  Sc50  1  0.49858927  0.68904921  0.30506200  1
  Sc  Sc51  1  0.09835657  0.49843706  0.69329164  1
  Sc  Sc52  1  0.89949960  0.29930362  0.49660191  1
  Sc  Sc53  1  0.09543280  0.50338291  0.10679093  1
  Sc  Sc54  1  0.09263824  0.30949699  0.50403107  1
  Sc  Sc55  1  0.89109947  0.90162696  0.70333977  1
  Sc  Sc56  1  0.30441371  0.50306985  0.31173074  1
  Sc  Sc57  1  0.88833418  0.09882022  0.90615311  1
  Sc  Sc58  1  0.50117060  0.11037639  0.69736606  1
  Sc  Sc59  1  0.49753688  0.68719237  0.10066304  1
  Sc  Sc60  1  0.69490401  0.90679232  0.09869431  1
  Sc  Sc61  1  0.70610016  0.30086755  0.50728578  1
  Sc  Sc62  1  0.09779322  0.30339947  0.08780129  1
  Sc  Sc63  1  0.50225615  0.49973932  0.10234142  1
  Sc  Sc64  1  0.70094131  0.29890729  0.10060534  1
  Sc  Sc65  1  0.50497737  0.09369978  0.09680513  1
  Sc  Sc66  1  0.09724637  0.50202981  0.29469139  1
  Sc  Sc67  1  0.71281498  0.09509925  0.29716298  1
  Sc  Sc68  1  0.90461553  0.89869725  0.10822563  1
  Sc  Sc69  1  0.50202993  0.49919318  0.49479401  1
  Sc  Sc70  1  0.70493325  0.90151896  0.69706371  1
  Sc  Sc71  1  0.90478893  0.49866738  0.09609286  1
  Sc  Sc72  1  0.09724349  0.89477703  0.09931787  1
  Sc  Sc73  1  0.49875791  0.29868813  0.50283236  1
  Sc  Sc74  1  0.09978398  0.69634955  0.09816601  1
  Sc  Sc75  1  0.30948408  0.29642084  0.70381831  1
  Sc  Sc76  1  0.50152734  0.09831088  0.50817670  1
  Sc  Sc77  1  0.70206010  0.30035802  0.69925223  1
  Sc  Sc78  1  0.29382647  0.90214945  0.90125360  1
  Sc  Sc79  1  0.51331043  0.50015410  0.70222687  1
  Sc  Sc80  1  0.70564299  0.30018381  0.90643695  1
  Sc  Sc81  1  0.69462635  0.50580778  0.50605289  1
  Sc  Sc82  1  0.51149937  0.90056034  0.30595468  1
  Sc  Sc83  1  0.49378795  0.10956186  0.29072143  1
  Sc  Sc84  1  0.30369495  0.88877131  0.70046267  1
  Sc  Sc85  1  0.70139236  0.49973969  0.70222201  1
  Sc  Sc86  1  0.70086901  0.49004357  0.09761644  1
  Sc  Sc87  1  0.09271065  0.09102992  0.10423837  1
  Sc  Sc88  1  0.50600710  0.70768412  0.49784916  1
  Sc  Sc89  1  0.09355754  0.89454163  0.90072880  1
  Sc  Sc90  1  0.29311599  0.89149711  0.49936027  1
  Sc  Sc91  1  0.90632824  0.49780378  0.28824803  1
  Sc  Sc92  1  0.90764025  0.69520715  0.89364408  1
  Sc  Sc93  1  0.11062753  0.70794578  0.49516860  1
  Sc  Sc94  1  0.89869126  0.09791405  0.69209499  1
  Sc  Sc95  1  0.10473778  0.90006037  0.29447292  1
  Sc  Sc96  1  0.10091458  0.69797242  0.28893362  1
  Sc  Sc97  1  0.29980445  0.50263758  0.09750147  1
  Sc  Sc98  1  0.28692092  0.50415316  0.69771899  1
  Sc  Sc99  1  0.29856147  0.69807958  0.30393686  1
  Nb  Nb100  1  0.50962935  0.09788522  0.89881870  1
  Nb  Nb101  1  0.70286315  0.10269678  0.49616509  1
  Nb  Nb102  1  0.89622526  0.70311119  0.69358210  1
  Nb  Nb103  1  0.10731285  0.09549436  0.30798793  1
  Nb  Nb104  1  0.89766809  0.70113807  0.50061855  1
  Nb  Nb105  1  0.09966288  0.29954573  0.89985538  1
  Nb  Nb106  1  0.90047955  0.90423286  0.30138597  1
  Nb  Nb107  1  0.29830494  0.91234673  0.29585877  1
  Nb  Nb108  1  0.09460487  0.29779718  0.70070993  1
  Nb  Nb109  1  0.69324460  0.09770460  0.90123363  1
  Nb  Nb110  1  0.90772444  0.30046663  0.90294187  1
  Nb  Nb111  1  0.29518483  0.10137843  0.30228219  1
  Nb  Nb112  1  0.09952666  0.10072115  0.69717265  1
  Nb  Nb113  1  0.69703868  0.30725483  0.29684835  1
  Nb  Nb114  1  0.69029720  0.50093708  0.29883271  1
  Nb  Nb115  1  0.50122060  0.89717383  0.10017140  1
  Nb  Nb116  1  0.30582151  0.28846672  0.30459412  1
  Nb  Nb117  1  0.09422517  0.69993334  0.90223995  1
  Nb  Nb118  1  0.70034632  0.50334258  0.90427487  1
  Nb  Nb119  1  0.09899535  0.08525987  0.50824785  1
  Nb  Nb120  1  0.70125482  0.69775164  0.10182026  1
  Nb  Nb121  1  0.09735393  0.90544731  0.50302787  1
  Nb  Nb122  1  0.50744782  0.49601696  0.29914319  1
  Nb  Nb123  1  0.90501204  0.50305033  0.70118640  1
  Nb  Nb124  1  0.30304453  0.69964443  0.70115498  1
  Nb  Nb125  1  0.59686483  0.79486408  0.19555924  1
  Nb  Nb126  1  0.20078769  0.19884863  0.20882776  1
  Nb  Nb127  1  0.60760519  0.59896398  -0.00435776  1
  Nb  Nb128  1  0.39828692  0.40801419  0.60082409  1
  Nb  Nb129  1  0.40592902  0.00136463  0.80359732  1
  Nb  Nb130  1  0.40079246  0.80040006  0.00636866  1
  Nb  Nb131  1  -0.00073157  0.79822736  0.60000517  1
  Nb  Nb132  1  0.00252071  0.20277553  0.80001167  1
  Nb  Nb133  1  0.20876293  0.38975143  0.20456996  1
  Nb  Nb134  1  0.60921721  0.20107618  0.39949749  1
  Nb  Nb135  1  0.79741678  0.79617905  0.00170503  1
  Nb  Nb136  1  -0.00494617  0.61007240  0.59750247  1
  Nb  Nb137  1  0.19260896  0.39139305  0.80351193  1
  Nb  Nb138  1  0.19340469  0.20013559  0.79897602  1
  Nb  Nb139  1  0.00410148  -0.00167571  0.40173924  1
  Nb  Nb140  1  -0.00660416  0.60817080  0.40468135  1
  Nb  Nb141  1  0.19230830  0.19695106  0.60297183  1
  Nb  Nb142  1  0.79256214  0.60011789  0.20117066  1
  Nb  Nb143  1  0.40353718  0.80477428  0.19882099  1
  Nb  Nb144  1  0.39843539  0.39467633  0.20818078  1
  Nb  Nb145  1  -0.00174445  0.39464634  0.80060405  1
  Nb  Nb146  1  0.79257933  0.40422459  0.38970628  1
  Nb  Nb147  1  0.40014890  0.60246364  0.60463833  1
  Nb  Nb148  1  0.39311418  0.00119980  0.39539300  1
  Nb  Nb149  1  0.39821945  0.60249454  0.79514445  1
  Pd  Pd150  1  0.79985524  0.40543847  0.20009577  1
  Pd  Pd151  1  0.00198501  0.79959190  0.20032811  1
  Pd  Pd152  1  0.21280451  -0.00100164  0.60031030  1
  Pd  Pd153  1  0.80592243  -0.00796513  0.00808617  1
  Pd  Pd154  1  0.00852865  0.19235448  0.41216911  1
  Pd  Pd155  1  0.41241847  -0.00522609  0.20869817  1
  Pd  Pd156  1  0.39762314  0.59382021  0.20960329  1
  Pd  Pd157  1  0.39830236  0.19353776  0.80581897  1
  Pd  Pd158  1  0.80134378  -0.00058875  0.19235319  1
  Pd  Pd159  1  0.40885266  0.39776912  0.01411874  1
  Pd  Pd160  1  0.60360332  0.20310243  0.59504889  1
  Pd  Pd161  1  0.80213215  0.39931856  0.80379497  1
  Pd  Pd162  1  0.00857601  0.80147909  0.40140722  1
  Pd  Pd163  1  0.39387886  -0.00345777  0.59709367  1
  Pd  Pd164  1  0.19422677  0.80830424  0.79876952  1
  Pd  Pd165  1  0.79094036  0.80789212  0.40435884  1
  Pd  Pd166  1  0.19885376  0.40056846  0.39137909  1
  Pd  Pd167  1  0.59576772  0.00137308  0.78822791  1
  Pd  Pd168  1  0.19236322  0.79780755  0.60793784  1
  Pd  Pd169  1  0.61110848  0.80105431  0.59399977  1
  Pd  Pd170  1  -0.01151778  0.40965440  0.40029765  1
  Pd  Pd171  1  0.61293590  0.39367185  0.80414894  1
  Pd  Pd172  1  0.20102711  0.80103120  0.00259634  1
  Pd  Pd173  1  0.41104735  0.19475277  0.00468792  1
  Pd  Pd174  1  0.19756795  0.80542443  0.39096952  1
  Pd  Pd175  1  -0.00713271  -0.00150814  0.00056061  1
  Pd  Pd176  1  0.19338698  -0.00210777  0.00652114  1
  Pd  Pd177  1  0.19010668  0.60178268  0.39392554  1
  Pd  Pd178  1  0.19016937  0.18744179  0.00391231  1
  Pd  Pd179  1  -0.01542776  0.00672382  0.80051898  1
  Pd  Pd180  1  0.80464984  0.19734380  0.80340790  1
  Pd  Pd181  1  0.60983868  0.80577670  0.79366784  1
  Pd  Pd182  1  0.60710871  0.39391702  0.41154670  1
  Pd  Pd183  1  0.20125314  0.59084986  0.80586715  1
  Pd  Pd184  1  0.20755988  0.79926824  0.20049125  1
  Pd  Pd185  1  0.18604808  0.20323485  0.40749317  1
  Pd  Pd186  1  0.39943180  0.80778298  0.39001470  1
  Pd  Pd187  1  0.01178210  0.20259104  0.19511735  1
  Pd  Pd188  1  0.59718667  0.60202176  0.40808250  1
  Pd  Pd189  1  0.61077390  0.19284731  0.20909284  1
  Pd  Pd190  1  0.19358685  0.59555305  0.00121370  1
  Pd  Pd191  1  0.59126782  0.01687343  0.39071778  1
  Pd  Pd192  1  0.00426536  0.18897789  -0.00655817  1
  Pd  Pd193  1  0.20738371  0.38618471  0.60802957  1
  Pd  Pd194  1  0.79821905  0.40611839  0.59513627  1
  Pd  Pd195  1  0.00042997  0.80259490  0.79152799  1
  Pd  Pd196  1  0.60670581  0.20643692  0.80311151  1
  Pd  Pd197  1  0.00019736  0.19720292  0.59649213  1
  Pd  Pd198  1  0.60148672  0.79380543  0.00728788  1
  Pd  Pd199  1  0.80334550  0.60012232  0.79446112  1
  Rh  Rh200  1  0.79074832  0.21173345  0.39456827  1
  Rh  Rh201  1  0.59456877  0.60381150  0.59901110  1
  Rh  Rh202  1  0.79870006  0.80615632  0.59839019  1
  Rh  Rh203  1  0.79897203  0.00764296  0.79991923  1
  Rh  Rh204  1  0.80697365  -0.00306295  0.39747781  1
  Rh  Rh205  1  0.39436760  0.80272734  0.81087040  1
  Rh  Rh206  1  -0.00302192  0.59603264  0.79523847  1
  Rh  Rh207  1  0.19714980  0.61165627  0.59831181  1
  Rh  Rh208  1  0.60314705  0.00626205  0.60425187  1
  Rh  Rh209  1  0.59782383  0.59827410  0.80469006  1
  Rh  Rh210  1  0.59988107  0.20203405  -0.00669898  1
  Rh  Rh211  1  0.00810969  0.39133632  0.19253083  1
  Rh  Rh212  1  0.79828307  0.00018727  0.59714982  1
  Rh  Rh213  1  0.80262596  0.59498431  0.60933754  1
  Rh  Rh214  1  0.79569209  0.60255892  0.00852665  1
  Rh  Rh215  1  0.80111233  0.39679454  -0.00092843  1
  Rh  Rh216  1  0.00182170  0.60317511  0.00060463  1
  Rh  Rh217  1  0.79743932  0.20156045  -0.00287327  1
  Rh  Rh218  1  0.80772047  0.58836102  0.38400159  1
  Rh  Rh219  1  0.39875877  0.79553073  0.59325405  1
  Rh  Rh220  1  0.41345260  0.18815586  0.40582005  1
  Rh  Rh221  1  0.60419953  0.59850677  0.19165757  1
  Rh  Rh222  1  0.19357416  0.40866742  0.00286812  1
  Rh  Rh223  1  0.60054598  0.40143554  -0.00096601  1
  Rh  Rh224  1  0.79298303  0.79860383  0.19335623  1
  Rh  Rh225  1  0.20737056  0.58833598  0.20221069  1
  Rh  Rh226  1  0.59924432  -0.00136410  0.20101635  1
  Rh  Rh227  1  0.40999110  0.60541796  -0.01314751  1
  Rh  Rh228  1  0.79435822  0.20138117  0.19867088  1
  Rh  Rh229  1  -0.01149203  -0.00518357  0.59590779  1
  Rh  Rh230  1  0.19982337  -0.00719064  0.40236814  1
  Rh  Rh231  1  0.59851406  0.00093742  0.00141530  1
  Rh  Rh232  1  -0.01138350  0.60961065  0.20642743  1
  Rh  Rh233  1  0.00347355  -0.00365006  0.21012354  1
  Rh  Rh234  1  0.41005157  -0.00400868  -0.00767068  1
  Rh  Rh235  1  0.40644008  0.59730401  0.40638033  1
  Rh  Rh236  1  0.20971731  -0.00078474  0.79775109  1
  Rh  Rh237  1  -0.00546351  0.40771436  0.60269341  1
  Rh  Rh238  1  0.60517347  0.79628262  0.39647054  1
  Rh  Rh239  1  0.79933463  0.19967946  0.59991870  1
  Rh  Rh240  1  -0.00115189  0.40446359  -0.00189573  1
  Rh  Rh241  1  0.40205768  0.40570584  0.40031465  1
  Rh  Rh242  1  -0.00560684  0.79557568  -0.00061778  1
  Rh  Rh243  1  0.39318338  0.20942492  0.59479668  1
  Rh  Rh244  1  0.79870540  0.79633823  0.80294533  1
  Rh  Rh245  1  0.39499087  0.20393087  0.19503595  1
  Rh  Rh246  1  0.19220173  0.00613305  0.19710889  1
  Rh  Rh247  1  0.59347960  0.40237221  0.19594481  1
  Rh  Rh248  1  0.59456984  0.39921359  0.60026689  1
  Rh  Rh249  1  0.38807409  0.41378344  0.78688216  1
