# generated using pymatgen
data_ZrScNbPdRh
_symmetry_space_group_name_H-M   'P 1'
_cell_length_a   16.56187489
_cell_length_b   16.56250638
_cell_length_c   16.56002728
_cell_angle_alpha   89.93731230
_cell_angle_beta   90.02044665
_cell_angle_gamma   90.02958783
_symmetry_Int_Tables_number   1
_chemical_formula_structural   ZrScNbPdRh
_chemical_formula_sum   'Zr50 Sc50 Nb50 Pd50 Rh50'
_cell_volume   4542.51385648
_cell_formula_units_Z   50
loop_
 _symmetry_equiv_pos_site_id
 _symmetry_equiv_pos_as_xyz
  1  'x, y, z'
loop_
 _atom_site_type_symbol
 _atom_site_label
 _atom_site_symmetry_multiplicity
 _atom_site_fract_x
 _atom_site_fract_y
 _atom_site_fract_z
 _atom_site_occupancy
  Zr  Zr0  1  0.09740461  0.89765466  0.49632461  1
  Zr  Zr1  1  0.70687906  0.09535062  0.90052461  1
  Zr  Zr2  1  0.90557444  0.89457562  0.49675986  1
  Zr  Zr3  1  0.90066211  0.09453486  0.70241489  1
  Zr  Zr4  1  0.29746773  0.49661036  0.90465819  1
  Zr  Zr5  1  0.69837584  0.30768684  0.50146345  1
  Zr  Zr6  1  0.70536390  0.50139299  0.90233874  1
  Zr  Zr7  1  0.71142701  0.30049177  0.90413223  1
  Zr  Zr8  1  0.30195606  0.09828022  0.90133075  1
  Zr  Zr9  1  0.50672701  0.89775787  0.70276830  1
  Zr  Zr10  1  0.88884756  0.89876744  0.69972029  1
  Zr  Zr11  1  0.50780655  0.90086062  0.29918165  1
  Zr  Zr12  1  0.70364117  0.50426934  0.69735287  1
  Zr  Zr13  1  0.70832195  0.90590432  0.49068715  1
  Zr  Zr14  1  0.49906885  0.49626608  0.90139860  1
  Zr  Zr15  1  0.90221629  0.30920604  0.30059307  1
  Zr  Zr16  1  0.89799086  0.89739097  0.30395171  1
  Zr  Zr17  1  0.50247857  0.69961222  0.28219553  1
  Zr  Zr18  1  0.08712637  0.69909316  0.50856424  1
  Zr  Zr19  1  0.70588709  0.30672283  0.69804487  1
  Zr  Zr20  1  0.68905542  0.69886940  0.09212707  1
  Zr  Zr21  1  0.09342999  0.49323643  0.29476255  1
  Zr  Zr22  1  0.10454189  0.29874943  0.29852716  1
  Zr  Zr23  1  0.49437139  0.10223096  0.69522266  1
  Zr  Zr24  1  0.51052889  0.49829938  0.29533408  1
  Zr  Zr25  1  0.10229032  0.49954390  0.49875925  1
  Zr  Zr26  1  0.49368370  0.30114071  0.90068185  1
  Zr  Zr27  1  0.69711290  0.31859493  0.29784491  1
  Zr  Zr28  1  0.09368858  0.29489552  0.49736647  1
  Zr  Zr29  1  0.30257571  0.29869877  0.89776653  1
  Zr  Zr30  1  0.30184216  0.70013004  0.29699855  1
  Zr  Zr31  1  0.49517847  0.29952968  0.70178957  1
  Zr  Zr32  1  0.69972530  0.50018505  0.50180664  1
  Zr  Zr33  1  0.70048226  0.30839829  0.09616338  1
  Zr  Zr34  1  0.10472179  0.10104859  0.70353431  1
  Zr  Zr35  1  0.09887995  0.50453111  0.90827723  1
  Zr  Zr36  1  0.30189050  0.30131414  0.09934363  1
  Zr  Zr37  1  0.29899480  0.30222570  0.29777742  1
  Zr  Zr38  1  0.49668697  0.90125677  0.89894574  1
  Zr  Zr39  1  0.90137975  0.89649376  0.90095106  1
  Zr  Zr40  1  0.70803862  0.09381382  0.70142200  1
  Zr  Zr41  1  0.90096900  0.09113504  0.49963868  1
  Zr  Zr42  1  0.90008605  0.50564776  0.29115324  1
  Zr  Zr43  1  0.10779766  0.09696577  0.89729109  1
  Zr  Zr44  1  0.89822236  0.69762745  0.29704695  1
  Zr  Zr45  1  0.29950637  0.90037315  0.49875402  1
  Zr  Zr46  1  0.09730525  0.69786638  0.70992971  1
  Zr  Zr47  1  0.09763681  0.29681973  0.69608054  1
  Zr  Zr48  1  0.30930156  0.10057097  0.09678917  1
  Zr  Zr49  1  0.50405473  0.09974095  0.49976242  1
  Sc  Sc50  1  0.10101462  0.89933325  0.30771516  1
  Sc  Sc51  1  0.50777956  0.89891616  0.10196551  1
  Sc  Sc52  1  0.90311333  0.09111797  0.29371984  1
  Sc  Sc53  1  0.31086112  0.09630876  0.50605042  1
  Sc  Sc54  1  0.71202176  0.09191929  0.09565052  1
  Sc  Sc55  1  0.90558536  0.09521130  0.09854751  1
  Sc  Sc56  1  0.28687576  0.70491661  0.89509753  1
  Sc  Sc57  1  0.08861287  0.30724868  0.90474270  1
  Sc  Sc58  1  0.31263696  0.89625115  0.71006555  1
  Sc  Sc59  1  0.89545135  0.69533781  0.09788541  1
  Sc  Sc60  1  0.50076996  0.30751821  0.50925141  1
  Sc  Sc61  1  0.08522542  0.89872165  0.71369782  1
  Sc  Sc62  1  0.09525777  0.10143389  0.49560992  1
  Sc  Sc63  1  0.90048539  0.70230536  0.49666548  1
  Sc  Sc64  1  0.09912387  0.69801062  0.09983479  1
  Sc  Sc65  1  0.70400551  0.69532022  0.90045210  1
  Sc  Sc66  1  0.29936619  0.10449512  0.70480063  1
  Sc  Sc67  1  0.50095084  0.69731041  0.50541645  1
  Sc  Sc68  1  0.29631259  0.89354417  0.30264184  1
  Sc  Sc69  1  0.70655017  0.69815549  0.29616019  1
  Sc  Sc70  1  0.90041983  0.50840330  0.50171409  1
  Sc  Sc71  1  0.09766618  0.70498157  0.90275455  1
  Sc  Sc72  1  0.49788509  0.09274380  0.28914650  1
  Sc  Sc73  1  0.89475575  0.69503871  0.90521751  1
  Sc  Sc74  1  0.30143637  0.29297411  0.70191784  1
  Sc  Sc75  1  0.30262080  0.10339577  0.29527252  1
  Sc  Sc76  1  0.70009917  0.08432295  0.30228078  1
  Sc  Sc77  1  0.49301939  0.50044781  0.69547161  1
  Sc  Sc78  1  0.29381291  0.30433208  0.49806973  1
  Sc  Sc79  1  0.90093631  0.70663617  0.69919097  1
  Sc  Sc80  1  0.29760899  0.90666780  0.90342505  1
  Sc  Sc81  1  0.70286799  0.50171004  0.29952626  1
  Sc  Sc82  1  0.30363988  0.49913405  0.50114542  1
  Sc  Sc83  1  0.29312641  0.90090970  0.09686514  1
  Sc  Sc84  1  0.51241963  0.69966124  0.89871857  1
  Sc  Sc85  1  0.49531231  0.30351183  0.09643519  1
  Sc  Sc86  1  0.29567147  0.70149354  0.11479008  1
  Sc  Sc87  1  0.89604022  0.49046648  0.69867206  1
  Sc  Sc88  1  0.09085477  0.49438217  0.69705662  1
  Sc  Sc89  1  0.49328299  0.90281674  0.50101018  1
  Sc  Sc90  1  0.10573044  0.69840265  0.29789981  1
  Sc  Sc91  1  0.70589717  0.89844183  0.29196457  1
  Sc  Sc92  1  0.50065185  0.50192216  0.50438396  1
  Sc  Sc93  1  0.70609267  0.89781100  0.09611959  1
  Sc  Sc94  1  0.28574785  0.49790496  0.30156769  1
  Sc  Sc95  1  0.30839361  0.70037843  0.50161298  1
  Sc  Sc96  1  0.10279654  0.90118860  0.90731839  1
  Sc  Sc97  1  0.70309905  0.69262304  0.50040625  1
  Sc  Sc98  1  0.49885009  0.70659075  0.69976597  1
  Sc  Sc99  1  0.69960451  0.89799908  0.90047295  1
  Nb  Nb100  1  0.49852244  0.69698907  0.09938494  1
  Nb  Nb101  1  0.68984318  0.49864650  0.09432913  1
  Nb  Nb102  1  0.90053912  0.30052729  0.70298759  1
  Nb  Nb103  1  0.09590362  0.09919068  0.10331203  1
  Nb  Nb104  1  0.90643733  0.90650161  0.10396504  1
  Nb  Nb105  1  0.09391342  0.90727579  0.09870871  1
  Nb  Nb106  1  0.90015238  0.29176590  0.09182972  1
  Nb  Nb107  1  0.29540166  0.50596684  0.70507151  1
  Nb  Nb108  1  0.88807168  0.11050894  0.89954772  1
  Nb  Nb109  1  0.10032776  0.49583566  0.09990830  1
  Nb  Nb110  1  0.70328697  0.89553703  0.69669420  1
  Nb  Nb111  1  0.70077076  0.10204365  0.49689164  1
  Nb  Nb112  1  0.29974877  0.49801496  0.10031751  1
  Nb  Nb113  1  0.70007024  0.71030162  0.70302191  1
  Nb  Nb114  1  0.91106160  0.51046807  0.09491352  1
  Nb  Nb115  1  0.89492601  0.30154051  0.89728285  1
  Nb  Nb116  1  0.50051104  0.09699056  0.90603425  1
  Nb  Nb117  1  0.29810876  0.69662120  0.70412443  1
  Nb  Nb118  1  0.49569905  0.10499221  0.09598660  1
  Nb  Nb119  1  0.90132434  0.28988177  0.50392734  1
  Nb  Nb120  1  0.09698842  0.29331855  0.10370222  1
  Nb  Nb121  1  0.90453337  0.49573660  0.89944357  1
  Nb  Nb122  1  0.50373012  0.30365947  0.29827621  1
  Nb  Nb123  1  0.50095381  0.51042924  0.10138052  1
  Nb  Nb124  1  0.10052801  0.10031286  0.29448505  1
  Nb  Nb125  1  0.40316545  0.59966386  0.38783654  1
  Nb  Nb126  1  0.40038927  0.40647235  0.19989335  1
  Nb  Nb127  1  -0.00158022  0.80639566  0.19540172  1
  Nb  Nb128  1  0.60104731  0.19936102  0.80529057  1
  Nb  Nb129  1  0.60806455  -0.00201737  0.60062575  1
  Nb  Nb130  1  0.19996143  -0.01015005  0.60268977  1
  Nb  Nb131  1  0.39286791  0.60165339  0.80324099  1
  Nb  Nb132  1  0.60186575  0.20264057  0.39298934  1
  Nb  Nb133  1  0.40998948  0.20591895  0.39554895  1
  Nb  Nb134  1  0.20105287  0.60439124  0.60663978  1
  Nb  Nb135  1  0.39836643  0.60449356  0.00336777  1
  Nb  Nb136  1  -0.00343895  0.59205498  0.80620527  1
  Nb  Nb137  1  0.19070066  0.00523608  0.19677007  1
  Nb  Nb138  1  -0.00947243  0.20309232  0.80353672  1
  Nb  Nb139  1  0.60015345  0.80049945  0.39633552  1
  Nb  Nb140  1  0.60316224  0.39659805  0.80130141  1
  Nb  Nb141  1  0.40316179  0.79125418  0.00239263  1
  Nb  Nb142  1  0.19940884  0.79923440  0.60633387  1
  Nb  Nb143  1  0.19259430  0.20007814  0.00705495  1
  Nb  Nb144  1  0.19848876  0.40299580  0.80062850  1
  Nb  Nb145  1  0.59857074  0.19496952  -0.00007495  1
  Nb  Nb146  1  0.79597700  0.20230849  0.39868013  1
  Nb  Nb147  1  0.60315818  0.20084882  0.19749531  1
  Nb  Nb148  1  0.80335918  0.20027404  0.59556367  1
  Nb  Nb149  1  0.79694917  0.20698387  0.20331262  1
  Pd  Pd150  1  0.59635150  0.60703480  0.39697106  1
  Pd  Pd151  1  0.60688806  0.79891063  0.80664025  1
  Pd  Pd152  1  0.39249063  -0.01048711  0.19760876  1
  Pd  Pd153  1  -0.00521430  0.00558376  0.81073571  1
  Pd  Pd154  1  -0.00678137  0.40044131  0.59185094  1
  Pd  Pd155  1  0.60203922  0.00331971  0.79529486  1
  Pd  Pd156  1  0.59327897  0.59555718  0.79174845  1
  Pd  Pd157  1  0.39046259  0.39892889  0.60367546  1
  Pd  Pd158  1  0.59930583  0.00051297  0.00628555  1
  Pd  Pd159  1  0.60599902  0.80571801  0.58826065  1
  Pd  Pd160  1  0.20386463  0.79805939  0.00696601  1
  Pd  Pd161  1  0.20387805  0.18957958  0.59144523  1
  Pd  Pd162  1  -0.00401082  0.39690647  0.18866472  1
  Pd  Pd163  1  0.20587548  0.60821350  0.00836481  1
  Pd  Pd164  1  0.19383662  0.59433526  0.19724570  1
  Pd  Pd165  1  0.19451350  0.39141313  0.00175929  1
  Pd  Pd166  1  0.80429060  0.79978970  0.19001293  1
  Pd  Pd167  1  0.80533357  0.60810351  0.60529819  1
  Pd  Pd168  1  0.00808762  -0.00507921  0.60227224  1
  Pd  Pd169  1  0.19915193  0.81156403  0.79813406  1
  Pd  Pd170  1  0.39649485  0.80056882  0.60302585  1
  Pd  Pd171  1  0.41144216  0.79225908  0.39772527  1
  Pd  Pd172  1  0.80973414  0.40532410  0.40737239  1
  Pd  Pd173  1  0.60724798  0.19544463  0.60268617  1
  Pd  Pd174  1  0.20256727  0.19454028  0.19452950  1
  Pd  Pd175  1  0.39867798  0.81079017  0.19218651  1
  Pd  Pd176  1  0.59785348  0.60350762  0.60865519  1
  Pd  Pd177  1  -0.00519753  0.00768797  -0.00989289  1
  Pd  Pd178  1  0.39845962  0.00669312  0.39150563  1
  Pd  Pd179  1  0.20973047  0.19247476  0.40549225  1
  Pd  Pd180  1  0.79241150  0.59356600  0.18832288  1
  Pd  Pd181  1  0.80182305  0.80109637  0.00300752  1
  Pd  Pd182  1  0.81166285  0.40981559  0.00818482  1
  Pd  Pd183  1  0.19721396  0.78808650  0.40794604  1
  Pd  Pd184  1  0.20373566  0.40524672  0.60606362  1
  Pd  Pd185  1  0.79728730  0.79354415  0.59250858  1
  Pd  Pd186  1  0.00164100  0.19354029  -0.00796176  1
  Pd  Pd187  1  -0.00741058  0.19446885  0.38788312  1
  Pd  Pd188  1  0.40420803  0.40374151  0.39448269  1
  Pd  Pd189  1  0.80900135  0.60319463  0.79488215  1
  Pd  Pd190  1  0.00004111  0.60150195  0.39440574  1
  Pd  Pd191  1  -0.00250311  0.79448236  0.00615708  1
  Pd  Pd192  1  0.60560304  0.00527720  0.18958345  1
  Pd  Pd193  1  -0.00910932  0.20132155  0.20462400  1
  Pd  Pd194  1  -0.00506269  0.39822244  0.00765001  1
  Pd  Pd195  1  0.20270821  0.01029765  0.39897741  1
  Pd  Pd196  1  0.81012444  0.40502550  0.18525467  1
  Pd  Pd197  1  0.20595511  0.60485836  0.41093488  1
  Pd  Pd198  1  -0.00534808  0.40339594  0.40779288  1
  Pd  Pd199  1  0.39980530  0.00508039  0.79854907  1
  Rh  Rh200  1  0.00115332  0.60380817  -0.00277020  1
  Rh  Rh201  1  0.40724281  0.19162554  0.80523932  1
  Rh  Rh202  1  0.00232408  0.00300447  0.39563476  1
  Rh  Rh203  1  0.59462131  0.40216656  0.41020673  1
  Rh  Rh204  1  0.40074846  0.78889606  0.81367145  1
  Rh  Rh205  1  0.79549690  0.79764189  0.80364095  1
  Rh  Rh206  1  0.79719196  0.00062465  0.59542126  1
  Rh  Rh207  1  0.00016723  0.59926886  0.61258781  1
  Rh  Rh208  1  0.00051215  0.79069682  0.38764068  1
  Rh  Rh209  1  0.80141534  -0.01098314  0.80778688  1
  Rh  Rh210  1  0.19968930  0.40070550  0.19258724  1
  Rh  Rh211  1  0.20360640  -0.00777840  0.79072768  1
  Rh  Rh212  1  0.39370292  0.59005164  0.20023320  1
  Rh  Rh213  1  0.39419638  0.60179781  0.60252937  1
  Rh  Rh214  1  0.18702914  0.81397903  0.19782978  1
  Rh  Rh215  1  0.40564402  -0.01154042  0.00508254  1
  Rh  Rh216  1  0.59311412  0.39939830  -0.00185574  1
  Rh  Rh217  1  0.00065424  0.39852442  0.80097473  1
  Rh  Rh218  1  0.80177726  0.59642936  0.39865516  1
  Rh  Rh219  1  0.80117169  0.20304919  0.79057565  1
  Rh  Rh220  1  0.80885561  0.39562189  0.59306414  1
  Rh  Rh221  1  -0.00803939  0.79057579  0.80891996  1
  Rh  Rh222  1  -0.00571810  0.19659287  0.61012432  1
  Rh  Rh223  1  0.61188665  0.60001729  0.19845631  1
  Rh  Rh224  1  0.40984574  0.20974001  0.20690775  1
  Rh  Rh225  1  0.39960429  0.19760528  -0.00679548  1
  Rh  Rh226  1  0.80589787  0.00317344  0.39610168  1
  Rh  Rh227  1  0.00652879  0.60602554  0.19585538  1
  Rh  Rh228  1  0.59168014  0.40065778  0.18606272  1
  Rh  Rh229  1  0.59648851  0.59777334  -0.00230133  1
  Rh  Rh230  1  0.00120449  0.80597682  0.60460753  1
  Rh  Rh231  1  0.19258674  0.39816224  0.40193569  1
  Rh  Rh232  1  0.59523376  -0.00437602  0.40635242  1
  Rh  Rh233  1  0.19171049  0.59098826  0.79653303  1
  Rh  Rh234  1  0.79862575  0.40496485  0.80163752  1
  Rh  Rh235  1  0.80327460  0.00135736  0.19683174  1
  Rh  Rh236  1  0.79797808  0.19826216  0.01008911  1
  Rh  Rh237  1  0.59823151  0.41004429  0.60719328  1
  Rh  Rh238  1  0.80949639  -0.00546630  -0.00334510  1
  Rh  Rh239  1  0.39625963  0.40838855  0.79202004  1
  Rh  Rh240  1  0.40536256  0.41099714  0.01193584  1
  Rh  Rh241  1  0.59544091  0.80219012  -0.00218217  1
  Rh  Rh242  1  0.40016012  -0.00624010  0.60856729  1
  Rh  Rh243  1  0.39285176  0.20843523  0.58926718  1
  Rh  Rh244  1  0.79230789  0.79347088  0.40168083  1
  Rh  Rh245  1  0.60777770  0.79935228  0.20065402  1
  Rh  Rh246  1  0.79875331  0.59193080  0.00443327  1
  Rh  Rh247  1  0.00676417  -0.00753648  0.20788631  1
  Rh  Rh248  1  0.18747148  0.21610624  0.81336211  1
  Rh  Rh249  1  0.19871968  0.00904330  0.00897195  1
