# generated using pymatgen
data_ZrScNbPdRh
_symmetry_space_group_name_H-M   'P 1'
_cell_length_a   16.55444147
_cell_length_b   16.55482247
_cell_length_c   16.55206163
_cell_angle_alpha   89.99737510
_cell_angle_beta   89.99720954
_cell_angle_gamma   90.02688385
_symmetry_Int_Tables_number   1
_chemical_formula_structural   ZrScNbPdRh
_chemical_formula_sum   'Zr50 Sc50 Nb50 Pd50 Rh50'
_cell_volume   4536.18863754
_cell_formula_units_Z   50
loop_
 _symmetry_equiv_pos_site_id
 _symmetry_equiv_pos_as_xyz
  1  'x, y, z'
loop_
 _atom_site_type_symbol
 _atom_site_label
 _atom_site_symmetry_multiplicity
 _atom_site_fract_x
 _atom_site_fract_y
 _atom_site_fract_z
 _atom_site_occupancy
  Zr  Zr0  1  0.50444424  0.30109630  0.48850730  1
  Zr  Zr1  1  0.10373808  0.90064770  0.49370921  1
  Zr  Zr2  1  0.30351666  0.10608811  0.08955028  1
  Zr  Zr3  1  0.49801281  0.10089551  0.89659564  1
  Zr  Zr4  1  0.70236505  0.49518184  0.29488785  1
  Zr  Zr5  1  0.10273000  0.10735307  0.90834515  1
  Zr  Zr6  1  0.89312934  0.90091549  0.49252011  1
  Zr  Zr7  1  0.10626181  0.31056740  0.29832373  1
  Zr  Zr8  1  0.89593171  0.49745374  0.69244381  1
  Zr  Zr9  1  0.09105817  0.89793964  0.90510401  1
  Zr  Zr10  1  0.70739695  0.70310907  0.30025257  1
  Zr  Zr11  1  0.10466737  0.70030543  0.09972042  1
  Zr  Zr12  1  0.69543773  0.50224735  0.70378374  1
  Zr  Zr13  1  0.70033648  0.30827131  0.09967940  1
  Zr  Zr14  1  0.89364645  0.89552651  0.70145674  1
  Zr  Zr15  1  0.90164331  0.68971675  0.50245381  1
  Zr  Zr16  1  0.69711831  0.90030440  0.48813817  1
  Zr  Zr17  1  0.50317661  0.69356879  0.70099121  1
  Zr  Zr18  1  0.70095185  0.28954910  0.49862254  1
  Zr  Zr19  1  0.10233313  0.10213362  0.49935234  1
  Zr  Zr20  1  0.49823846  0.90425866  0.09618318  1
  Zr  Zr21  1  0.29723643  0.70244136  0.10724225  1
  Zr  Zr22  1  0.69761231  0.49635833  0.90424489  1
  Zr  Zr23  1  0.70254868  0.69350769  0.69972987  1
  Zr  Zr24  1  0.30014049  0.30036586  0.10614395  1
  Zr  Zr25  1  0.49359887  0.48613381  0.30570888  1
  Zr  Zr26  1  0.11798286  0.70511433  0.30458269  1
  Zr  Zr27  1  0.50179607  0.29663261  0.10155263  1
  Zr  Zr28  1  0.90070109  0.70216865  0.10224087  1
  Zr  Zr29  1  0.29953547  0.49923917  0.50378812  1
  Zr  Zr30  1  0.50443234  0.90412963  0.89969543  1
  Zr  Zr31  1  0.90365317  0.49658216  0.89162178  1
  Zr  Zr32  1  0.49942776  0.48869991  0.09992280  1
  Zr  Zr33  1  0.28769683  0.50466218  0.08963997  1
  Zr  Zr34  1  0.90280149  0.09576994  0.29239556  1
  Zr  Zr35  1  0.71072491  0.90127727  0.30416585  1
  Zr  Zr36  1  0.90245767  0.50097060  0.31144281  1
  Zr  Zr37  1  0.09873531  0.90347852  0.10074561  1
  Zr  Zr38  1  0.49554593  0.70006688  0.90008283  1
  Zr  Zr39  1  0.30123860  0.28410307  0.90203248  1
  Zr  Zr40  1  0.29727095  0.49703287  0.30627890  1
  Zr  Zr41  1  0.30513533  0.90230966  0.09768659  1
  Zr  Zr42  1  0.49391332  0.69283161  0.29549671  1
  Zr  Zr43  1  0.30633941  0.50427040  0.70028265  1
  Zr  Zr44  1  0.50831642  0.90485602  0.30014450  1
  Zr  Zr45  1  0.10057645  0.70318316  0.89441233  1
  Zr  Zr46  1  0.49550168  0.90089170  0.50249754  1
  Zr  Zr47  1  0.49155172  0.29988694  0.29627440  1
  Zr  Zr48  1  0.09673941  0.89513228  0.70695079  1
  Zr  Zr49  1  0.90108938  0.49304280  0.50014068  1
  Sc  Sc50  1  0.69266205  0.91938761  0.10138718  1
  Sc  Sc51  1  0.49830983  0.10812872  0.29927373  1
  Sc  Sc52  1  0.49410385  0.89546736  0.70217858  1
  Sc  Sc53  1  0.49656553  0.09869385  0.70105877  1
  Sc  Sc54  1  0.49886220  0.70055188  0.51140889  1
  Sc  Sc55  1  0.90055453  0.70164399  0.89818838  1
  Sc  Sc56  1  0.89877259  0.11136957  0.70047871  1
  Sc  Sc57  1  0.89966754  0.11434242  0.49379353  1
  Sc  Sc58  1  0.69586087  0.10944351  0.70507721  1
  Sc  Sc59  1  0.69601122  0.70098265  0.50355368  1
  Sc  Sc60  1  0.70656684  0.48666377  0.50331822  1
  Sc  Sc61  1  0.50310231  0.29610872  0.89656627  1
  Sc  Sc62  1  0.09750068  0.29916464  0.89854200  1
  Sc  Sc63  1  0.48489453  0.70158969  0.09699254  1
  Sc  Sc64  1  0.70170741  0.10089849  0.29856583  1
  Sc  Sc65  1  0.68787231  0.29985789  0.69662276  1
  Sc  Sc66  1  0.50302909  0.09399795  0.10371560  1
  Sc  Sc67  1  0.49427081  0.09990244  0.49218747  1
  Sc  Sc68  1  0.70108670  0.89385930  0.71012399  1
  Sc  Sc69  1  0.09465460  0.11154459  0.69750578  1
  Sc  Sc70  1  0.30740601  0.10787528  0.69662729  1
  Sc  Sc71  1  0.70051812  0.11009682  0.10366518  1
  Sc  Sc72  1  0.90812552  0.91012588  0.10074079  1
  Sc  Sc73  1  0.29128571  0.89701481  0.30241396  1
  Sc  Sc74  1  0.09751944  0.50107345  0.70519896  1
  Sc  Sc75  1  0.08968173  0.10336173  0.10112070  1
  Sc  Sc76  1  0.30158892  0.90570107  0.49844388  1
  Sc  Sc77  1  0.30239686  0.10164519  0.49831094  1
  Sc  Sc78  1  0.10584139  0.50349656  0.49400034  1
  Sc  Sc79  1  0.90577177  0.29910862  0.29941454  1
  Sc  Sc80  1  0.90063718  0.11044537  0.10242771  1
  Sc  Sc81  1  0.10898688  0.50067010  0.89957667  1
  Sc  Sc82  1  0.29694494  0.68915261  0.50491627  1
  Sc  Sc83  1  0.69025508  0.29333646  0.29715766  1
  Sc  Sc84  1  0.09770887  0.10798500  0.30419558  1
  Sc  Sc85  1  0.10416966  0.90879417  0.30555294  1
  Sc  Sc86  1  0.89877647  0.69605985  0.69765782  1
  Sc  Sc87  1  0.91106214  0.30542644  0.69791846  1
  Sc  Sc88  1  0.10022186  0.30072556  0.10464624  1
  Sc  Sc89  1  0.30541350  0.68978025  0.90273597  1
  Sc  Sc90  1  0.88155964  0.49808205  0.10495732  1
  Sc  Sc91  1  0.71333247  0.69070924  0.10382266  1
  Sc  Sc92  1  0.10285391  0.29939093  0.50164783  1
  Sc  Sc93  1  0.89994449  0.29237394  0.89972453  1
  Sc  Sc94  1  0.10145947  0.29861092  0.69597183  1
  Sc  Sc95  1  0.70312434  0.69444749  0.88827236  1
  Sc  Sc96  1  0.31137174  0.90078416  0.70029956  1
  Sc  Sc97  1  0.69730847  0.28901927  0.90534724  1
  Sc  Sc98  1  0.31158411  0.90184023  0.89839510  1
  Sc  Sc99  1  0.30782806  0.69922940  0.69995799  1
  Nb  Nb100  1  0.49714132  0.49410427  0.49852223  1
  Nb  Nb101  1  0.89601578  0.70004865  0.29750742  1
  Nb  Nb102  1  0.89877879  0.29449285  0.09753116  1
  Nb  Nb103  1  0.70255140  0.10015619  0.50093578  1
  Nb  Nb104  1  0.69384956  0.49655466  0.09830561  1
  Nb  Nb105  1  0.30510818  0.49802708  0.89839285  1
  Nb  Nb106  1  0.70326104  0.09335472  0.90101031  1
  Nb  Nb107  1  0.29938104  0.10001672  0.89815124  1
  Nb  Nb108  1  0.10299012  0.70113247  0.50392129  1
  Nb  Nb109  1  0.09776574  0.49414274  0.29894217  1
  Nb  Nb110  1  0.89880478  0.30921940  0.50425039  1
  Nb  Nb111  1  0.70459520  0.90722183  0.90210520  1
  Nb  Nb112  1  0.89316876  0.90481967  0.89923319  1
  Nb  Nb113  1  0.09824289  0.49945022  0.10164330  1
  Nb  Nb114  1  0.50202368  0.49380670  0.70278260  1
  Nb  Nb115  1  0.30225892  0.70063501  0.30161336  1
  Nb  Nb116  1  0.29709341  0.29932381  0.50793376  1
  Nb  Nb117  1  0.49685523  0.29762366  0.70206099  1
  Nb  Nb118  1  0.30285584  0.29920016  0.30077208  1
  Nb  Nb119  1  0.89011446  0.10229804  0.90068308  1
  Nb  Nb120  1  0.49474723  0.50292754  0.89609689  1
  Nb  Nb121  1  0.30371388  0.29970868  0.69507565  1
  Nb  Nb122  1  0.10385368  0.70464094  0.69772523  1
  Nb  Nb123  1  0.29945930  0.11035349  0.29672525  1
  Nb  Nb124  1  0.89807439  0.89421517  0.30177884  1
  Nb  Nb125  1  0.21368746  0.39609225  0.79911373  1
  Nb  Nb126  1  0.19350541  -0.00215812  0.60767829  1
  Nb  Nb127  1  0.20083865  0.80109911  -0.00176894  1
  Nb  Nb128  1  0.79625474  0.00441240  0.59609827  1
  Nb  Nb129  1  0.60849028  0.79777373  0.00199374  1
  Nb  Nb130  1  0.79796719  0.39995067  0.79847077  1
  Nb  Nb131  1  -0.00220489  0.40472484  0.00614287  1
  Nb  Nb132  1  0.39758265  0.79453834  0.39689476  1
  Nb  Nb133  1  0.59537922  0.59143589  0.39749934  1
  Nb  Nb134  1  -0.00426039  0.00300345  0.80391626  1
  Nb  Nb135  1  -0.00335304  0.79370995  0.39649326  1
  Nb  Nb136  1  0.00208285  0.59397361  0.00711472  1
  Nb  Nb137  1  0.60198180  0.79629913  0.19501153  1
  Nb  Nb138  1  0.60693446  0.00051661  0.59532325  1
  Nb  Nb139  1  0.79591867  0.81140839  -0.00457275  1
  Nb  Nb140  1  0.19595288  0.80064163  0.60278919  1
  Nb  Nb141  1  0.59891927  0.59873440  0.00417995  1
  Nb  Nb142  1  0.00262720  0.59906708  0.20479635  1
  Nb  Nb143  1  0.59903104  0.59707357  0.19845380  1
  Nb  Nb144  1  -0.00367444  -0.00157826  0.60206944  1
  Nb  Nb145  1  0.39566163  0.40079300  -0.00810253  1
  Nb  Nb146  1  0.40595238  0.39580275  0.60479696  1
  Nb  Nb147  1  -0.00098717  0.79768513  0.20994618  1
  Nb  Nb148  1  0.20450820  0.00877483  0.19866599  1
  Nb  Nb149  1  0.19692547  0.00441470  0.80105312  1
  Pd  Pd150  1  -0.00099662  0.19750742  0.80486803  1
  Pd  Pd151  1  0.80122473  0.60437045  -0.00652270  1
  Pd  Pd152  1  -0.00400211  -0.00052499  0.40077553  1
  Pd  Pd153  1  0.60193202  0.79899652  0.80559975  1
  Pd  Pd154  1  0.39810560  0.58847352  0.19511507  1
  Pd  Pd155  1  0.20356109  -0.00378328  -0.00174987  1
  Pd  Pd156  1  0.80623129  0.39330537  -0.00712973  1
  Pd  Pd157  1  0.40259679  0.80850741  0.20845343  1
  Pd  Pd158  1  0.39409451  -0.00344527  0.39102606  1
  Pd  Pd159  1  -0.01017108  0.01114004  -0.00493321  1
  Pd  Pd160  1  0.80317223  0.20367605  0.60647594  1
  Pd  Pd161  1  0.19342202  0.19491274  0.19622694  1
  Pd  Pd162  1  0.59966145  0.19212080  0.00125413  1
  Pd  Pd163  1  0.40349702  0.60495157  0.40868648  1
  Pd  Pd164  1  0.58981424  0.19088052  0.59694395  1
  Pd  Pd165  1  0.79579592  0.38671020  0.39303112  1
  Pd  Pd166  1  0.60052161  0.01114716  0.39924969  1
  Pd  Pd167  1  0.79570491  0.21127335  0.79520793  1
  Pd  Pd168  1  0.20431483  0.20517375  0.40353755  1
  Pd  Pd169  1  0.39313390  0.00456143  0.20801755  1
  Pd  Pd170  1  0.60396894  0.80946807  0.60582948  1
  Pd  Pd171  1  0.00175558  0.80238088  0.59256116  1
  Pd  Pd172  1  0.19700004  0.39161243  -0.00742595  1
  Pd  Pd173  1  -0.01084222  0.79901501  0.80011094  1
  Pd  Pd174  1  0.80332888  0.00506467  0.01031947  1
  Pd  Pd175  1  0.19970906  0.40382438  0.60714708  1
  Pd  Pd176  1  0.39852285  0.39232538  0.80163727  1
  Pd  Pd177  1  0.00038304  0.21044783  0.39993943  1
  Pd  Pd178  1  0.21403085  0.80562474  0.80173422  1
  Pd  Pd179  1  0.59020224  0.78777991  0.39458337  1
  Pd  Pd180  1  0.01284852  0.40359812  0.59524563  1
  Pd  Pd181  1  0.01069383  0.60548934  0.39466855  1
  Pd  Pd182  1  0.79837210  0.81470658  0.18511761  1
  Pd  Pd183  1  0.20102299  0.19937541  0.79108073  1
  Pd  Pd184  1  0.80169407  0.20243084  0.39097468  1
  Pd  Pd185  1  0.60372741  0.39388796  0.80741533  1
  Pd  Pd186  1  0.60076112  0.58982524  0.59100284  1
  Pd  Pd187  1  0.19733436  0.59228125  0.20734728  1
  Pd  Pd188  1  0.78937358  0.59957069  0.40766702  1
  Pd  Pd189  1  0.00852926  0.59452109  0.60267244  1
  Pd  Pd190  1  0.80427241  0.39299801  0.20679464  1
  Pd  Pd191  1  0.20280905  0.59732825  0.79662526  1
  Pd  Pd192  1  0.59712793  0.39895910  0.59665621  1
  Pd  Pd193  1  0.79342006  0.80206454  0.59543202  1
  Pd  Pd194  1  0.60145326  0.00210073  0.79130835  1
  Pd  Pd195  1  0.80182992  0.00751270  0.79018257  1
  Pd  Pd196  1  0.00039211  0.60214351  0.79926728  1
  Pd  Pd197  1  -0.00979277  0.40395274  0.19325302  1
  Pd  Pd198  1  0.40831075  0.20309014  0.59245295  1
  Pd  Pd199  1  0.80199812  0.00138802  0.19533721  1
  Rh  Rh200  1  0.60054650  0.19616345  0.39859534  1
  Rh  Rh201  1  0.79665193  0.38945133  0.60974416  1
  Rh  Rh202  1  0.58985200  0.40341461  -0.00974422  1
  Rh  Rh203  1  -0.00376606  0.20706731  0.00043327  1
  Rh  Rh204  1  0.39762776  0.80130018  -0.00495306  1
  Rh  Rh205  1  0.20804755  0.01448606  0.39487098  1
  Rh  Rh206  1  0.39262586  0.20602121  0.40070599  1
  Rh  Rh207  1  0.80557239  0.59336110  0.79652047  1
  Rh  Rh208  1  0.40298489  0.00057581  0.60155733  1
  Rh  Rh209  1  -0.00349288  0.20250792  0.59090622  1
  Rh  Rh210  1  0.20265987  0.39667415  0.40144961  1
  Rh  Rh211  1  0.40804474  0.20174360  0.00097624  1
  Rh  Rh212  1  0.20485555  0.40447299  0.20217245  1
  Rh  Rh213  1  0.39322410  0.00622673  0.79899843  1
  Rh  Rh214  1  0.19442524  0.60577444  0.60662641  1
  Rh  Rh215  1  0.79677235  0.19673181  0.00120569  1
  Rh  Rh216  1  0.80634652  0.78755715  0.40887720  1
  Rh  Rh217  1  0.60106678  0.39805125  0.20418069  1
  Rh  Rh218  1  0.40471052  0.59078692  0.00455681  1
  Rh  Rh219  1  0.80114023  0.79540105  0.80721661  1
  Rh  Rh220  1  0.00720206  -0.00402494  0.20876859  1
  Rh  Rh221  1  0.60325056  0.00153046  0.20770519  1
  Rh  Rh222  1  0.59897095  0.19678445  0.80270545  1
  Rh  Rh223  1  0.19472257  0.60775895  -0.00781262  1
  Rh  Rh224  1  0.40368266  0.60144569  0.79583222  1
  Rh  Rh225  1  0.00203288  0.20633189  0.20201808  1
  Rh  Rh226  1  0.19907164  0.81358587  0.19315733  1
  Rh  Rh227  1  0.59386972  0.59763166  0.80615834  1
  Rh  Rh228  1  0.19970828  0.59755819  0.39812764  1
  Rh  Rh229  1  0.59716033  0.20036186  0.19870320  1
  Rh  Rh230  1  0.41027888  0.59096975  0.60176077  1
  Rh  Rh231  1  0.60085692  0.00399515  -0.00456941  1
  Rh  Rh232  1  0.38763241  0.40511692  0.19217339  1
  Rh  Rh233  1  0.79463566  0.59713160  0.59632927  1
  Rh  Rh234  1  0.38957198  0.79960341  0.59057366  1
  Rh  Rh235  1  0.60698106  0.40087444  0.40069084  1
  Rh  Rh236  1  0.20875490  0.79277830  0.41436815  1
  Rh  Rh237  1  0.40046153  0.79452643  0.80166343  1
  Rh  Rh238  1  0.20116495  0.19270946  0.60122931  1
  Rh  Rh239  1  0.40214288  0.19688015  0.19728308  1
  Rh  Rh240  1  0.80656707  0.01262604  0.40094891  1
  Rh  Rh241  1  0.40448570  0.00618144  -0.00554444  1
  Rh  Rh242  1  0.80194492  0.20657837  0.19980003  1
  Rh  Rh243  1  0.38677276  0.38989622  0.41141654  1
  Rh  Rh244  1  0.00457777  0.39719548  0.80684005  1
  Rh  Rh245  1  0.00452039  0.39590514  0.40681681  1
  Rh  Rh246  1  -0.00300712  0.79366322  0.00443286  1
  Rh  Rh247  1  0.19417892  0.20395838  0.00788220  1
  Rh  Rh248  1  0.80012492  0.59162482  0.20506804  1
  Rh  Rh249  1  0.40233907  0.19843488  0.79832430  1
