# generated using pymatgen
data_ZrScNbPdRh
_symmetry_space_group_name_H-M   'P 1'
_cell_length_a   16.56199047
_cell_length_b   16.56595925
_cell_length_c   16.56215940
_cell_angle_alpha   90.04280814
_cell_angle_beta   90.01452342
_cell_angle_gamma   90.02601187
_symmetry_Int_Tables_number   1
_chemical_formula_structural   ZrScNbPdRh
_chemical_formula_sum   'Zr50 Sc50 Nb50 Pd50 Rh50'
_cell_volume   4544.07927324
_cell_formula_units_Z   50
loop_
 _symmetry_equiv_pos_site_id
 _symmetry_equiv_pos_as_xyz
  1  'x, y, z'
loop_
 _atom_site_type_symbol
 _atom_site_label
 _atom_site_symmetry_multiplicity
 _atom_site_fract_x
 _atom_site_fract_y
 _atom_site_fract_z
 _atom_site_occupancy
  Zr  Zr0  1  0.10258150  0.90548938  0.48801538  1
  Zr  Zr1  1  0.70086642  0.90630766  0.30000528  1
  Zr  Zr2  1  0.89286480  0.90235452  0.88772520  1
  Zr  Zr3  1  0.29294519  0.69775425  0.89325755  1
  Zr  Zr4  1  0.30279479  0.10165587  0.09950258  1
  Zr  Zr5  1  0.50284933  0.29630731  0.09392210  1
  Zr  Zr6  1  0.70543833  0.70355608  0.29692205  1
  Zr  Zr7  1  0.89681890  0.69538450  0.10536971  1
  Zr  Zr8  1  0.90572925  0.90308699  0.09967654  1
  Zr  Zr9  1  0.31131443  0.70415265  0.49932531  1
  Zr  Zr10  1  0.69415250  0.29286935  0.90640036  1
  Zr  Zr11  1  0.09596027  0.10478244  0.69731016  1
  Zr  Zr12  1  0.10201363  0.70474548  0.89877358  1
  Zr  Zr13  1  0.30711403  0.29812559  0.10314038  1
  Zr  Zr14  1  0.09228446  0.90359058  0.29648521  1
  Zr  Zr15  1  0.90313687  0.30392060  0.90006394  1
  Zr  Zr16  1  0.10097355  0.90206518  0.09933458  1
  Zr  Zr17  1  0.69472432  0.29963820  0.69606814  1
  Zr  Zr18  1  0.09839795  0.30121401  0.09579675  1
  Zr  Zr19  1  0.90580348  0.29983340  0.29910186  1
  Zr  Zr20  1  0.70035016  0.90149093  0.09883863  1
  Zr  Zr21  1  0.70056423  0.89680469  0.70462881  1
  Zr  Zr22  1  0.50212616  0.69994976  0.11736578  1
  Zr  Zr23  1  0.70400742  0.50440605  0.50839030  1
  Zr  Zr24  1  0.50221863  0.90118709  0.90161945  1
  Zr  Zr25  1  0.89962825  0.30015336  0.49839829  1
  Zr  Zr26  1  0.29424375  0.70142806  0.10292461  1
  Zr  Zr27  1  0.49005016  0.89600712  0.70598977  1
  Zr  Zr28  1  0.09960960  0.90415368  0.91090831  1
  Zr  Zr29  1  0.31469545  0.29835249  0.49790174  1
  Zr  Zr30  1  0.30121400  0.49437296  0.50151573  1
  Zr  Zr31  1  0.89052011  0.69874090  0.49088392  1
  Zr  Zr32  1  0.90648776  0.10835885  0.30458566  1
  Zr  Zr33  1  0.29324770  0.49599484  0.09110805  1
  Zr  Zr34  1  0.30525471  0.70611808  0.70008545  1
  Zr  Zr35  1  0.09901673  0.30118994  0.90172626  1
  Zr  Zr36  1  0.30492593  0.89884231  0.89331623  1
  Zr  Zr37  1  0.31590838  0.69589791  0.29793418  1
  Zr  Zr38  1  0.49701762  0.50440765  0.29882765  1
  Zr  Zr39  1  0.09852397  0.50592699  0.10448438  1
  Zr  Zr40  1  0.69834853  0.90367565  0.49583531  1
  Zr  Zr41  1  0.90621400  0.08805189  0.70127960  1
  Zr  Zr42  1  0.89403569  0.89989648  0.29542394  1
  Zr  Zr43  1  0.89737500  0.50050210  0.10036274  1
  Zr  Zr44  1  0.90119519  0.50069873  0.90265343  1
  Zr  Zr45  1  0.50102065  0.89846463  0.10686125  1
  Zr  Zr46  1  0.49998489  0.30653759  0.89879766  1
  Zr  Zr47  1  0.89721430  0.49381533  0.69896197  1
  Zr  Zr48  1  0.70299417  0.09033343  0.90303805  1
  Zr  Zr49  1  0.09974169  0.29805907  0.69905958  1
  Sc  Sc50  1  0.90035386  0.29437809  0.10590744  1
  Sc  Sc51  1  0.70128741  0.50415166  0.10072169  1
  Sc  Sc52  1  0.10043533  0.69609690  0.70336014  1
  Sc  Sc53  1  0.49896975  0.09384963  0.29895747  1
  Sc  Sc54  1  0.71118562  0.30033009  0.30013495  1
  Sc  Sc55  1  0.69633469  0.49762418  0.69472679  1
  Sc  Sc56  1  0.70155013  0.10545102  0.09735525  1
  Sc  Sc57  1  0.49950821  0.89746877  0.50266118  1
  Sc  Sc58  1  0.49975950  0.49720160  0.70081851  1
  Sc  Sc59  1  0.70431532  0.49569592  0.29791308  1
  Sc  Sc60  1  0.10068031  0.50137471  0.68319500  1
  Sc  Sc61  1  0.10146447  0.70578378  0.09847418  1
  Sc  Sc62  1  0.10183962  0.69906028  0.28892194  1
  Sc  Sc63  1  0.49846017  0.49156853  0.50312657  1
  Sc  Sc64  1  0.90589803  0.70332158  0.71241118  1
  Sc  Sc65  1  0.89616097  0.69970600  0.29376058  1
  Sc  Sc66  1  0.70013315  0.69658181  0.10325384  1
  Sc  Sc67  1  0.69954594  0.09851765  0.29640164  1
  Sc  Sc68  1  0.89237330  0.91654659  0.49329961  1
  Sc  Sc69  1  0.30085064  0.30228846  0.91249454  1
  Sc  Sc70  1  0.69193073  0.09140222  0.70138604  1
  Sc  Sc71  1  0.09264293  0.09848080  0.09215235  1
  Sc  Sc72  1  0.50271358  0.90076934  0.29456989  1
  Sc  Sc73  1  0.49914631  0.49610507  0.89656007  1
  Sc  Sc74  1  0.10356818  0.50165997  0.91160112  1
  Sc  Sc75  1  0.90654853  0.30376828  0.69700403  1
  Sc  Sc76  1  0.70255067  0.29187145  0.10228629  1
  Sc  Sc77  1  0.50018915  0.09607955  0.50103748  1
  Sc  Sc78  1  0.90415646  0.50128464  0.29363736  1
  Sc  Sc79  1  0.29882474  0.10631430  0.70205118  1
  Sc  Sc80  1  0.09400584  0.10395432  0.90174519  1
  Sc  Sc81  1  0.30789260  0.50459374  0.69523285  1
  Sc  Sc82  1  0.09860727  0.69196950  0.49914152  1
  Sc  Sc83  1  0.69025035  0.49848051  0.90261782  1
  Sc  Sc84  1  0.50039173  0.10051107  0.10694616  1
  Sc  Sc85  1  0.89983314  0.70372476  0.90125509  1
  Sc  Sc86  1  0.50231245  0.09850076  0.70126206  1
  Sc  Sc87  1  0.48895639  0.29960343  0.30204453  1
  Sc  Sc88  1  0.50326349  0.09486545  0.89891256  1
  Sc  Sc89  1  0.29581439  0.90318739  0.09647080  1
  Sc  Sc90  1  0.70460686  0.70029860  0.90888064  1
  Sc  Sc91  1  0.08458757  0.90615632  0.70811951  1
  Sc  Sc92  1  0.09352877  0.30969692  0.49855892  1
  Sc  Sc93  1  0.49864574  0.69718738  0.69002901  1
  Sc  Sc94  1  0.69051870  0.69347651  0.69131015  1
  Sc  Sc95  1  0.50407951  0.49907180  0.09425509  1
  Sc  Sc96  1  0.29884803  0.89929767  0.31185070  1
  Sc  Sc97  1  0.89661874  0.10457906  0.09562789  1
  Sc  Sc98  1  0.90686298  0.49965838  0.50030280  1
  Sc  Sc99  1  0.70083121  0.31219113  0.50110168  1
  Nb  Nb100  1  0.10099042  0.49314312  0.30666036  1
  Nb  Nb101  1  0.29206608  0.09596736  0.49127943  1
  Nb  Nb102  1  0.30010535  0.90083089  0.70081639  1
  Nb  Nb103  1  0.69664152  0.70166385  0.50178787  1
  Nb  Nb104  1  0.50678093  0.70144129  0.50230753  1
  Nb  Nb105  1  0.10149417  0.10492387  0.31154390  1
  Nb  Nb106  1  0.49908918  0.70053201  0.90308485  1
  Nb  Nb107  1  0.10192275  0.50190294  0.49120369  1
  Nb  Nb108  1  0.89556807  0.89323342  0.70229156  1
  Nb  Nb109  1  0.30400686  0.48971274  0.30463703  1
  Nb  Nb110  1  0.29494064  0.89950047  0.50156572  1
  Nb  Nb111  1  0.30161562  0.49809411  0.89763596  1
  Nb  Nb112  1  0.09431946  0.10043905  0.49548675  1
  Nb  Nb113  1  0.29973532  0.09613154  0.89872240  1
  Nb  Nb114  1  0.09509189  0.29887461  0.29794799  1
  Nb  Nb115  1  0.50433614  0.69925300  0.30165723  1
  Nb  Nb116  1  0.50618868  0.29773361  0.50858973  1
  Nb  Nb117  1  0.90233953  0.10530343  0.50180861  1
  Nb  Nb118  1  0.49259349  0.29706320  0.69403851  1
  Nb  Nb119  1  0.30250312  0.30177320  0.69865194  1
  Nb  Nb120  1  0.89308185  0.10013930  0.90308551  1
  Nb  Nb121  1  0.70139142  0.89781358  0.89732849  1
  Nb  Nb122  1  0.29777941  0.10960242  0.30741156  1
  Nb  Nb123  1  0.70191822  0.09197658  0.49678899  1
  Nb  Nb124  1  0.30130699  0.29889885  0.30093949  1
  Nb  Nb125  1  0.38497592  -0.00215954  0.59757474  1
  Nb  Nb126  1  0.20117944  0.39579670  0.21175044  1
  Nb  Nb127  1  0.20160544  0.19635884  0.59073896  1
  Nb  Nb128  1  0.19840289  0.20152500  0.21019762  1
  Nb  Nb129  1  0.40324612  0.79339320  -0.00051882  1
  Nb  Nb130  1  0.19904432  0.01287078  0.21014066  1
  Nb  Nb131  1  0.60140829  0.20186058  0.40771391  1
  Nb  Nb132  1  0.20506570  0.58990172  0.39545057  1
  Nb  Nb133  1  0.79869447  0.59520846  0.80088562  1
  Nb  Nb134  1  0.80128845  0.39834765  -0.00065511  1
  Nb  Nb135  1  0.80043572  0.19147513  0.59876426  1
  Nb  Nb136  1  0.80309130  0.80209702  0.59942309  1
  Nb  Nb137  1  0.20306088  0.00270131  0.79857627  1
  Nb  Nb138  1  0.19820227  0.80905381  0.59938599  1
  Nb  Nb139  1  -0.00385417  0.80157093  0.40090922  1
  Nb  Nb140  1  -0.00483648  0.80470109  0.59338337  1
  Nb  Nb141  1  0.39864525  0.20677091  0.79927447  1
  Nb  Nb142  1  0.20000432  0.00151058  0.59849093  1
  Nb  Nb143  1  0.39774986  0.60521453  -0.00420904  1
  Nb  Nb144  1  0.20751476  0.39903349  0.79874480  1
  Nb  Nb145  1  0.60143672  0.79265251  0.40104781  1
  Nb  Nb146  1  0.59903578  0.79913735  0.80661611  1
  Nb  Nb147  1  0.59776372  0.39689387  0.20069341  1
  Nb  Nb148  1  0.59920311  0.60576748  0.40250257  1
  Nb  Nb149  1  0.80036305  0.19700250  0.79673172  1
  Pd  Pd150  1  0.80085028  0.01029549  0.19587696  1
  Pd  Pd151  1  0.18904060  0.81030337  0.79127600  1
  Pd  Pd152  1  0.40692268  0.19295230  -0.00945232  1
  Pd  Pd153  1  0.20093827  0.39406297  0.40112244  1
  Pd  Pd154  1  0.60001577  0.00429442  0.00633532  1
  Pd  Pd155  1  0.19328250  0.21427814  0.40534043  1
  Pd  Pd156  1  0.19389924  0.78445088  0.40083419  1
  Pd  Pd157  1  0.59683467  0.19780271  0.80135105  1
  Pd  Pd158  1  0.40619502  0.60105203  0.80155839  1
  Pd  Pd159  1  0.79884026  -0.00004180  0.60494355  1
  Pd  Pd160  1  0.79516380  0.59193793  0.39505409  1
  Pd  Pd161  1  0.20412472  0.59051357  0.20977390  1
  Pd  Pd162  1  0.20192545  0.39357466  0.60129531  1
  Pd  Pd163  1  0.20770463  0.20247812  0.80110212  1
  Pd  Pd164  1  0.59520271  0.60235485  0.00209924  1
  Pd  Pd165  1  0.41156372  0.19548285  0.40164527  1
  Pd  Pd166  1  0.78903858  0.39893316  0.80520470  1
  Pd  Pd167  1  0.59990616  0.39888361  0.79395209  1
  Pd  Pd168  1  0.39648998  0.58863938  0.18988631  1
  Pd  Pd169  1  0.00236170  -0.00730501  0.59389203  1
  Pd  Pd170  1  0.39632725  0.18879400  0.60123043  1
  Pd  Pd171  1  0.40380262  -0.00286590  0.40309070  1
  Pd  Pd172  1  0.40283061  0.40357868  0.19450433  1
  Pd  Pd173  1  0.00330518  0.40199155  0.19751528  1
  Pd  Pd174  1  0.01682142  0.41221403  0.79796155  1
  Pd  Pd175  1  0.79134643  0.19735384  0.40595522  1
  Pd  Pd176  1  0.80467726  0.80225909  0.00431067  1
  Pd  Pd177  1  0.59771979  0.20606830  0.21388351  1
  Pd  Pd178  1  0.80756711  0.40947477  0.39934403  1
  Pd  Pd179  1  0.59788081  0.79522993  0.00122483  1
  Pd  Pd180  1  0.59003827  -0.00547042  0.60115549  1
  Pd  Pd181  1  0.60277316  0.60634530  0.80169784  1
  Pd  Pd182  1  0.60908957  0.19563664  0.59348079  1
  Pd  Pd183  1  0.59587611  0.39817987  0.39402670  1
  Pd  Pd184  1  -0.00926501  0.19682201  0.80362989  1
  Pd  Pd185  1  0.40441952  0.59529042  0.40834410  1
  Pd  Pd186  1  -0.00640191  0.79823756  -0.00067184  1
  Pd  Pd187  1  0.19487675  0.58575221  0.79494655  1
  Pd  Pd188  1  0.00551641  0.60618213  0.39033246  1
  Pd  Pd189  1  0.40197738  -0.00421007  0.00357212  1
  Pd  Pd190  1  0.38902214  -0.00138172  0.20717773  1
  Pd  Pd191  1  0.20571554  0.60859699  0.59284626  1
  Pd  Pd192  1  0.41143321  0.80733242  0.39813410  1
  Pd  Pd193  1  0.19891166  0.19543548  0.00461244  1
  Pd  Pd194  1  0.80929734  0.60945889  0.61057857  1
  Pd  Pd195  1  0.00359668  0.01282507  0.19969335  1
  Pd  Pd196  1  0.00140157  0.59293961  0.80054167  1
  Pd  Pd197  1  0.20669725  0.81128080  0.20537862  1
  Pd  Pd198  1  -0.00642105  0.60701761  0.60011644  1
  Pd  Pd199  1  0.00184697  0.60910909  0.00188059  1
  Rh  Rh200  1  0.79839547  0.00672566  0.79701984  1
  Rh  Rh201  1  -0.00766535  0.00067495  0.39714273  1
  Rh  Rh202  1  0.59202828  0.59142289  0.59165515  1
  Rh  Rh203  1  0.40814535  0.39543556  0.40373147  1
  Rh  Rh204  1  0.00372827  0.59998246  0.20254931  1
  Rh  Rh205  1  0.00436115  0.20618794  0.40612994  1
  Rh  Rh206  1  0.19804301  0.39810856  -0.00174447  1
  Rh  Rh207  1  0.00537585  0.80228211  0.80102659  1
  Rh  Rh208  1  0.60081586  -0.00930072  0.80186256  1
  Rh  Rh209  1  0.39701743  0.80558125  0.59745456  1
  Rh  Rh210  1  0.60293597  0.00221525  0.19508207  1
  Rh  Rh211  1  0.60561359  0.80617714  0.60091586  1
  Rh  Rh212  1  0.59735877  0.00133769  0.39817817  1
  Rh  Rh213  1  0.20628409  0.80033162  -0.00006558  1
  Rh  Rh214  1  0.80401587  0.19749272  0.20321613  1
  Rh  Rh215  1  0.20068426  0.00262305  0.39486858  1
  Rh  Rh216  1  0.80379982  0.20638321  -0.00716585  1
  Rh  Rh217  1  -0.00500161  0.20098135  -0.00111828  1
  Rh  Rh218  1  0.79363925  0.39790822  0.19067647  1
  Rh  Rh219  1  0.40441263  0.59844668  0.59648751  1
  Rh  Rh220  1  0.60974277  0.39694947  0.01244693  1
  Rh  Rh221  1  0.20304381  0.60443391  -0.00255848  1
  Rh  Rh222  1  0.00272844  0.00141264  0.81073914  1
  Rh  Rh223  1  0.00079895  0.40435035  0.59585386  1
  Rh  Rh224  1  0.20250183  0.00507069  -0.00334765  1
  Rh  Rh225  1  0.40367862  0.40132070  0.60283243  1
  Rh  Rh226  1  0.60672718  0.80313882  0.20730766  1
  Rh  Rh227  1  -0.00320166  0.79496076  0.20331818  1
  Rh  Rh228  1  0.59509638  0.19252415  -0.00086453  1
  Rh  Rh229  1  0.80246786  0.39222677  0.60045432  1
  Rh  Rh230  1  0.79853007  0.80254734  0.19084261  1
  Rh  Rh231  1  0.79754038  0.59214437  -0.00750716  1
  Rh  Rh232  1  0.39385677  0.01456785  0.79246301  1
  Rh  Rh233  1  0.79746500  0.59827021  0.20187483  1
  Rh  Rh234  1  0.79831653  0.80461774  0.40522485  1
  Rh  Rh235  1  0.39812713  0.19528775  0.20371638  1
  Rh  Rh236  1  0.39463388  0.80637420  0.19849559  1
  Rh  Rh237  1  -0.00465999  0.40140005  0.39918775  1
  Rh  Rh238  1  0.60486426  0.59049976  0.20889426  1
  Rh  Rh239  1  0.59525674  0.40136101  0.60434865  1
  Rh  Rh240  1  0.78529514  0.78335676  0.79049723  1
  Rh  Rh241  1  -0.01082086  0.00169014  -0.00580856  1
  Rh  Rh242  1  0.80209044  -0.00684112  0.00200657  1
  Rh  Rh243  1  0.40205225  0.40986846  -0.00179070  1
  Rh  Rh244  1  -0.00632029  0.39988616  0.00728499  1
  Rh  Rh245  1  0.00654812  0.19529393  0.19810576  1
  Rh  Rh246  1  0.80395238  0.01116169  0.39228176  1
  Rh  Rh247  1  0.40830427  0.78988531  0.80376560  1
  Rh  Rh248  1  0.39438293  0.39357066  0.79852517  1
  Rh  Rh249  1  -0.00083457  0.20222561  0.59328651  1
