# generated using pymatgen
data_ZrScNbPdRh
_symmetry_space_group_name_H-M   'P 1'
_cell_length_a   16.55909007
_cell_length_b   16.55537097
_cell_length_c   16.56219405
_cell_angle_alpha   90.01648573
_cell_angle_beta   90.04507850
_cell_angle_gamma   89.96379740
_symmetry_Int_Tables_number   1
_chemical_formula_structural   ZrScNbPdRh
_chemical_formula_sum   'Zr50 Sc50 Nb50 Pd50 Rh50'
_cell_volume   4540.38850127
_cell_formula_units_Z   50
loop_
 _symmetry_equiv_pos_site_id
 _symmetry_equiv_pos_as_xyz
  1  'x, y, z'
loop_
 _atom_site_type_symbol
 _atom_site_label
 _atom_site_symmetry_multiplicity
 _atom_site_fract_x
 _atom_site_fract_y
 _atom_site_fract_z
 _atom_site_occupancy
  Zr  Zr0  1  0.69991222  0.10174651  0.50458286  1
  Zr  Zr1  1  0.50191617  0.89216948  0.09465256  1
  Zr  Zr2  1  0.49284572  0.89883486  0.49400361  1
  Zr  Zr3  1  0.91436816  0.90046057  0.09639860  1
  Zr  Zr4  1  0.48752081  0.69939595  0.29575569  1
  Zr  Zr5  1  0.89189457  0.69560670  0.29556901  1
  Zr  Zr6  1  0.09531251  0.88718123  0.49402623  1
  Zr  Zr7  1  0.10239729  0.08881065  0.09940897  1
  Zr  Zr8  1  0.70080741  0.69845384  0.10239895  1
  Zr  Zr9  1  0.50831565  0.30418883  0.51930767  1
  Zr  Zr10  1  0.69113131  0.49815589  0.08857737  1
  Zr  Zr11  1  0.90161185  0.90100163  0.30649863  1
  Zr  Zr12  1  0.71360368  0.30464732  0.29858891  1
  Zr  Zr13  1  0.10089372  0.89721630  0.28949769  1
  Zr  Zr14  1  0.50818635  0.69724120  0.69333154  1
  Zr  Zr15  1  0.49606538  0.50563412  0.50146404  1
  Zr  Zr16  1  0.49469280  0.10013167  0.10171721  1
  Zr  Zr17  1  0.90268261  0.29468776  0.29924554  1
  Zr  Zr18  1  0.70905426  0.30181704  0.09823367  1
  Zr  Zr19  1  0.50183328  0.89528472  0.70515370  1
  Zr  Zr20  1  0.10214977  0.69684638  0.11180683  1
  Zr  Zr21  1  0.90704975  0.69822476  0.89720867  1
  Zr  Zr22  1  0.90070289  0.49152715  0.29946951  1
  Zr  Zr23  1  0.69507699  0.90473025  0.89728875  1
  Zr  Zr24  1  0.88874361  0.10956141  0.88750305  1
  Zr  Zr25  1  0.89903023  0.50133414  0.90044587  1
  Zr  Zr26  1  0.69708917  0.10604025  0.08857416  1
  Zr  Zr27  1  0.49015580  0.30763640  0.29165868  1
  Zr  Zr28  1  0.90617462  0.89851875  0.89368678  1
  Zr  Zr29  1  0.09405648  0.29652770  0.10059385  1
  Zr  Zr30  1  0.70864285  0.10188857  0.30064197  1
  Zr  Zr31  1  0.71143481  0.69403075  0.90339885  1
  Zr  Zr32  1  0.70304709  0.90830155  0.49735202  1
  Zr  Zr33  1  0.89834042  0.90183767  0.50064118  1
  Zr  Zr34  1  0.10125858  0.10550407  0.50798892  1
  Zr  Zr35  1  0.69465917  0.70041703  0.28682138  1
  Zr  Zr36  1  0.29496572  0.70193267  0.70669473  1
  Zr  Zr37  1  0.49976826  0.90252355  0.89741114  1
  Zr  Zr38  1  0.28838015  0.29901297  0.49551956  1
  Zr  Zr39  1  0.90211151  0.71026341  0.70161184  1
  Zr  Zr40  1  0.30746872  0.31017897  0.71249326  1
  Zr  Zr41  1  0.29474601  0.09959352  0.50397378  1
  Zr  Zr42  1  0.70210299  0.89083276  0.09970662  1
  Zr  Zr43  1  0.29885341  0.90043184  0.69914797  1
  Zr  Zr44  1  0.29958338  0.09641178  0.90219903  1
  Zr  Zr45  1  0.30010993  0.10094741  0.09973168  1
  Zr  Zr46  1  0.50672691  0.69116765  0.10132201  1
  Zr  Zr47  1  0.10371002  0.30892765  0.89636336  1
  Zr  Zr48  1  0.50202438  0.48008080  0.69597664  1
  Zr  Zr49  1  0.30846897  0.09718137  0.29752313  1
  Sc  Sc50  1  0.50599570  0.09557516  0.50085822  1
  Sc  Sc51  1  0.90640457  0.29744487  0.71002394  1
  Sc  Sc52  1  0.68803777  0.30873762  0.70082278  1
  Sc  Sc53  1  0.30750674  0.70049104  0.10031385  1
  Sc  Sc54  1  0.69866748  0.70586042  0.70071883  1
  Sc  Sc55  1  0.49012351  0.69975933  0.91323017  1
  Sc  Sc56  1  0.50488871  0.09537606  0.70291079  1
  Sc  Sc57  1  0.50004481  0.49984224  0.91682001  1
  Sc  Sc58  1  0.28715209  0.09563042  0.70766793  1
  Sc  Sc59  1  0.91010517  0.11648966  0.10261456  1
  Sc  Sc60  1  0.90197789  0.49368365  0.49248719  1
  Sc  Sc61  1  0.30588149  0.89162837  0.30195969  1
  Sc  Sc62  1  0.30466836  0.89740985  0.89537305  1
  Sc  Sc63  1  0.30793913  0.30316703  0.10009078  1
  Sc  Sc64  1  0.89904623  0.90303394  0.69740767  1
  Sc  Sc65  1  0.29868120  0.49477890  0.50131530  1
  Sc  Sc66  1  0.09759838  0.90601242  0.69999398  1
  Sc  Sc67  1  0.90665462  0.49101372  0.70810224  1
  Sc  Sc68  1  0.09525153  0.49720208  0.10175999  1
  Sc  Sc69  1  0.70819336  0.89606844  0.29944698  1
  Sc  Sc70  1  0.69844602  0.89835938  0.70008265  1
  Sc  Sc71  1  0.49647232  0.70169966  0.50241187  1
  Sc  Sc72  1  0.49819680  0.30923073  0.09720214  1
  Sc  Sc73  1  0.29704334  0.71204494  0.49727973  1
  Sc  Sc74  1  0.90257522  0.71438815  0.49763643  1
  Sc  Sc75  1  0.90474817  0.09971875  0.49691642  1
  Sc  Sc76  1  0.29913611  0.49067125  0.90080412  1
  Sc  Sc77  1  0.70717679  0.50178260  0.29341794  1
  Sc  Sc78  1  0.89975312  0.30424047  0.90117909  1
  Sc  Sc79  1  0.10579155  0.70043524  0.70124499  1
  Sc  Sc80  1  0.09074121  0.29584062  0.50248866  1
  Sc  Sc81  1  0.48733334  0.30413226  0.89703493  1
  Sc  Sc82  1  0.29620356  0.50016638  0.10298989  1
  Sc  Sc83  1  0.10054784  0.48600708  0.50450253  1
  Sc  Sc84  1  0.10368360  0.70616726  0.29757058  1
  Sc  Sc85  1  0.09570902  0.10264258  0.70058554  1
  Sc  Sc86  1  0.49516981  0.09310238  0.30137620  1
  Sc  Sc87  1  0.71397509  0.30171395  0.90375079  1
  Sc  Sc88  1  0.29377796  0.90416563  0.10411148  1
  Sc  Sc89  1  0.08917489  0.10353545  0.30025284  1
  Sc  Sc90  1  0.10366269  0.09749007  0.90143951  1
  Sc  Sc91  1  0.09740956  0.30302034  0.30810517  1
  Sc  Sc92  1  0.10076070  0.50248150  0.28565724  1
  Sc  Sc93  1  0.69905457  0.50374624  0.49682685  1
  Sc  Sc94  1  0.29801702  0.29936505  0.90222632  1
  Sc  Sc95  1  0.70467979  0.09656997  0.70230821  1
  Sc  Sc96  1  0.90307516  0.09934621  0.69924780  1
  Sc  Sc97  1  0.50107992  0.09057404  0.90596280  1
  Sc  Sc98  1  0.10675651  0.49535236  0.70130539  1
  Sc  Sc99  1  0.68904985  0.69822598  0.50853780  1
  Nb  Nb100  1  0.90058097  0.10029357  0.29447794  1
  Nb  Nb101  1  0.70144282  0.30117555  0.49907154  1
  Nb  Nb102  1  0.70133815  0.50111397  0.70327640  1
  Nb  Nb103  1  0.29624321  0.90341662  0.49773348  1
  Nb  Nb104  1  0.29498304  0.69276926  0.30073682  1
  Nb  Nb105  1  0.49128520  0.50261845  0.30137262  1
  Nb  Nb106  1  0.10160992  0.90014840  0.09640828  1
  Nb  Nb107  1  0.49812542  0.90124601  0.29935737  1
  Nb  Nb108  1  0.69922700  0.10626188  0.89958739  1
  Nb  Nb109  1  0.10305607  0.69803536  0.89701703  1
  Nb  Nb110  1  0.09229937  0.30594171  0.69834328  1
  Nb  Nb111  1  0.30491592  0.50116094  0.70003088  1
  Nb  Nb112  1  0.90025397  0.30601559  0.49761849  1
  Nb  Nb113  1  0.09699404  0.50628029  0.90003383  1
  Nb  Nb114  1  0.89959588  0.30577713  0.10207238  1
  Nb  Nb115  1  0.09847562  0.69649343  0.49591435  1
  Nb  Nb116  1  0.29686893  0.69679038  0.90198774  1
  Nb  Nb117  1  0.49939634  0.29556521  0.70236656  1
  Nb  Nb118  1  0.09257350  0.90017631  0.91764844  1
  Nb  Nb119  1  0.70627249  0.49856443  0.89306470  1
  Nb  Nb120  1  0.30892680  0.49950781  0.30530724  1
  Nb  Nb121  1  0.49869982  0.50189518  0.10248624  1
  Nb  Nb122  1  0.89690904  0.69634084  0.10142443  1
  Nb  Nb123  1  0.30172872  0.30100547  0.29815459  1
  Nb  Nb124  1  0.90810411  0.49671401  0.10436803  1
  Nb  Nb125  1  0.59694764  0.40116680  0.39630983  1
  Nb  Nb126  1  0.80069299  0.00420155  -0.00055566  1
  Nb  Nb127  1  0.60066665  0.59100132  0.80319073  1
  Nb  Nb128  1  0.59845890  0.20946755  0.39625357  1
  Nb  Nb129  1  0.40288471  0.20532260  0.40599695  1
  Nb  Nb130  1  0.39339092  0.59877018  0.60782927  1
  Nb  Nb131  1  0.80004165  0.39914654  0.59970421  1
  Nb  Nb132  1  0.59449085  0.79865292  0.39338100  1
  Nb  Nb133  1  0.39390358  -0.00064726  0.59950517  1
  Nb  Nb134  1  -0.00057887  0.60161476  0.59527100  1
  Nb  Nb135  1  0.20043964  0.59976152  0.39762320  1
  Nb  Nb136  1  0.80405801  0.00349059  0.19295581  1
  Nb  Nb137  1  0.80732185  0.59560966  0.60384937  1
  Nb  Nb138  1  0.20346915  0.20240453  0.20185397  1
  Nb  Nb139  1  0.60409416  0.00011115  0.19716653  1
  Nb  Nb140  1  0.00558126  0.60203849  0.40171318  1
  Nb  Nb141  1  0.19526068  0.60466610  -0.00717575  1
  Nb  Nb142  1  0.19889719  -0.00386151  0.40264743  1
  Nb  Nb143  1  0.19334643  0.79656133  -0.00282318  1
  Nb  Nb144  1  0.80005172  0.21112573  0.59671984  1
  Nb  Nb145  1  0.39838006  0.19951920  0.60366157  1
  Nb  Nb146  1  0.59130025  0.59930945  0.38992182  1
  Nb  Nb147  1  0.60108553  0.20023670  0.20336195  1
  Nb  Nb148  1  0.60099649  0.20084125  0.80504467  1
  Nb  Nb149  1  0.40181621  0.59609214  0.79707125  1
  Pd  Pd150  1  0.20051062  0.59950998  0.59052695  1
  Pd  Pd151  1  0.00464713  0.78468805  0.00382950  1
  Pd  Pd152  1  0.80539175  0.59284357  0.00773562  1
  Pd  Pd153  1  0.00059566  -0.00065697  0.59945062  1
  Pd  Pd154  1  0.79861875  0.60548973  0.41028068  1
  Pd  Pd155  1  -0.00169137  0.40035297  -0.00282206  1
  Pd  Pd156  1  0.79359570  0.79666572  0.59839206  1
  Pd  Pd157  1  0.80384682  0.19691278  0.40719444  1
  Pd  Pd158  1  0.59443576  -0.00416672  0.60483730  1
  Pd  Pd159  1  0.59960794  0.78458869  0.81096709  1
  Pd  Pd160  1  0.60068937  0.39186849  -0.00880985  1
  Pd  Pd161  1  0.60267434  -0.00158926  0.38967344  1
  Pd  Pd162  1  0.00978732  0.80534319  0.79482623  1
  Pd  Pd163  1  0.78715269  0.78943098  0.40528025  1
  Pd  Pd164  1  0.40368800  0.39221291  0.41055517  1
  Pd  Pd165  1  0.00734889  0.19914265  0.80444939  1
  Pd  Pd166  1  0.59070275  0.21238108  -0.00468634  1
  Pd  Pd167  1  0.39367968  -0.00824614  0.00366969  1
  Pd  Pd168  1  0.00661605  0.00326050  0.40198763  1
  Pd  Pd169  1  -0.00445448  0.79554197  0.20241921  1
  Pd  Pd170  1  0.19834362  0.40547116  0.00416076  1
  Pd  Pd171  1  0.20167688  0.39250078  0.60699590  1
  Pd  Pd172  1  0.00390260  0.59729389  0.78831529  1
  Pd  Pd173  1  0.00413387  0.60348038  0.00520176  1
  Pd  Pd174  1  0.20507911  0.59009979  0.80474654  1
  Pd  Pd175  1  0.19077895  0.81131957  0.80885296  1
  Pd  Pd176  1  0.20320205  0.20993440  0.61517661  1
  Pd  Pd177  1  0.39535220  0.80184845  0.19581461  1
  Pd  Pd178  1  0.19455189  0.20483325  0.79728836  1
  Pd  Pd179  1  0.40422013  0.79017534  0.80323093  1
  Pd  Pd180  1  0.59879440  0.39704089  0.81354529  1
  Pd  Pd181  1  0.19396046  0.40993463  0.39007745  1
  Pd  Pd182  1  0.20010948  0.00465748  0.20998346  1
  Pd  Pd183  1  -0.00025473  0.19997085  -0.00960495  1
  Pd  Pd184  1  0.39467847  0.59518891  0.19359803  1
  Pd  Pd185  1  0.39703645  0.79966483  0.60032397  1
  Pd  Pd186  1  0.40228942  0.20271778  -0.00277387  1
  Pd  Pd187  1  0.20239880  0.39465965  0.20207911  1
  Pd  Pd188  1  0.19504059  0.80113534  0.60057285  1
  Pd  Pd189  1  -0.01181824  0.01736199  -0.00815759  1
  Pd  Pd190  1  0.20028542  0.20331759  0.00574530  1
  Pd  Pd191  1  0.80648528  0.80456934  -0.00435406  1
  Pd  Pd192  1  0.60188463  0.79066950  -0.00819497  1
  Pd  Pd193  1  0.60117964  0.40173139  0.20356076  1
  Pd  Pd194  1  0.80039493  0.60236815  0.79050673  1
  Pd  Pd195  1  0.40616914  0.18835905  0.79777663  1
  Pd  Pd196  1  0.79786574  -0.00380397  0.79887393  1
  Pd  Pd197  1  0.20162109  0.19171162  0.38927403  1
  Pd  Pd198  1  0.80046014  0.58877094  0.18904353  1
  Pd  Pd199  1  0.19131698  -0.00791290  0.80784548  1
  Rh  Rh200  1  0.39958149  0.79740517  0.39732236  1
  Rh  Rh201  1  -0.00762022  0.20601070  0.60046727  1
  Rh  Rh202  1  0.79984334  0.80381680  0.80273675  1
  Rh  Rh203  1  0.00494562  0.40391795  0.80569541  1
  Rh  Rh204  1  0.38916168  0.39431067  0.59606663  1
  Rh  Rh205  1  0.60233223  0.00885363  0.80127946  1
  Rh  Rh206  1  0.20654265  0.79875825  0.19351639  1
  Rh  Rh207  1  0.60051756  0.59129268  0.60552850  1
  Rh  Rh208  1  0.20236298  0.79974364  0.39405380  1
  Rh  Rh209  1  -0.00636042  0.19974863  0.40204529  1
  Rh  Rh210  1  0.80253501  0.40686479  0.18916210  1
  Rh  Rh211  1  0.39901125  0.00356837  0.79221033  1
  Rh  Rh212  1  0.59408539  0.80878533  0.20680411  1
  Rh  Rh213  1  0.79955453  0.19665369  0.19247840  1
  Rh  Rh214  1  0.80485909  0.00827683  0.60040404  1
  Rh  Rh215  1  0.39650411  0.40448966  0.00467445  1
  Rh  Rh216  1  0.39283034  0.60629564  0.40902227  1
  Rh  Rh217  1  0.81008640  0.19858506  0.00214712  1
  Rh  Rh218  1  0.39957280  0.20208843  0.20322616  1
  Rh  Rh219  1  0.80682256  0.00674477  0.39622362  1
  Rh  Rh220  1  0.40779333  -0.01031598  0.19328738  1
  Rh  Rh221  1  -0.00655076  0.40098489  0.60316880  1
  Rh  Rh222  1  0.00630797  0.79557959  0.60539907  1
  Rh  Rh223  1  0.19726442  -0.00742643  0.59400919  1
  Rh  Rh224  1  -0.00101201  0.79195248  0.39001661  1
  Rh  Rh225  1  0.61343376  0.40917982  0.59274155  1
  Rh  Rh226  1  0.39005691  0.80380539  0.00146048  1
  Rh  Rh227  1  0.78784787  0.20876146  0.78721382  1
  Rh  Rh228  1  0.39487794  0.40924638  0.19428352  1
  Rh  Rh229  1  0.00324147  0.00023253  0.80482913  1
  Rh  Rh230  1  0.60349888  0.81335758  0.58823686  1
  Rh  Rh231  1  0.60391590  0.60125449  -0.00706853  1
  Rh  Rh232  1  0.79391768  0.40478924  0.40686615  1
  Rh  Rh233  1  0.00449885  0.40537409  0.39590174  1
  Rh  Rh234  1  -0.00486899  0.00131192  0.19925946  1
  Rh  Rh235  1  0.20660093  0.59823217  0.20182340  1
  Rh  Rh236  1  -0.00565723  0.60107891  0.20576154  1
  Rh  Rh237  1  0.80139763  0.39522329  0.79533117  1
  Rh  Rh238  1  0.20682688  -0.00947532  -0.00681791  1
  Rh  Rh239  1  0.60583477  -0.00260145  0.00250689  1
  Rh  Rh240  1  0.40363071  0.40815064  0.80742184  1
  Rh  Rh241  1  0.00739631  0.20507547  0.20254102  1
  Rh  Rh242  1  0.60427094  0.19600401  0.60727477  1
  Rh  Rh243  1  0.39243076  0.00424803  0.40706828  1
  Rh  Rh244  1  -0.00028639  0.39286160  0.20188978  1
  Rh  Rh245  1  0.39005468  0.59375836  -0.00085997  1
  Rh  Rh246  1  0.80789614  0.40762903  0.00342538  1
  Rh  Rh247  1  0.59661458  0.58788539  0.20370080  1
  Rh  Rh248  1  0.81287516  0.80744913  0.19433198  1
  Rh  Rh249  1  0.19753725  0.40312605  0.79879015  1
