# generated using pymatgen
data_ZrScNbPdRh
_symmetry_space_group_name_H-M   'P 1'
_cell_length_a   16.55285178
_cell_length_b   16.55344992
_cell_length_c   16.55249252
_cell_angle_alpha   90.00564109
_cell_angle_beta   89.99571395
_cell_angle_gamma   89.98701525
_symmetry_Int_Tables_number   1
_chemical_formula_structural   ZrScNbPdRh
_chemical_formula_sum   'Zr50 Sc50 Nb50 Pd50 Rh50'
_cell_volume   4535.49540557
_cell_formula_units_Z   50
loop_
 _symmetry_equiv_pos_site_id
 _symmetry_equiv_pos_as_xyz
  1  'x, y, z'
loop_
 _atom_site_type_symbol
 _atom_site_label
 _atom_site_symmetry_multiplicity
 _atom_site_fract_x
 _atom_site_fract_y
 _atom_site_fract_z
 _atom_site_occupancy
  Zr  Zr0  1  0.10323613  0.30100969  0.29871378  1
  Zr  Zr1  1  0.09794450  0.09743970  0.50864789  1
  Zr  Zr2  1  0.49880113  0.69845652  0.89472214  1
  Zr  Zr3  1  0.09836279  0.90136899  0.90649926  1
  Zr  Zr4  1  0.30776470  0.69580631  0.09911986  1
  Zr  Zr5  1  0.30720897  0.49751165  0.70677481  1
  Zr  Zr6  1  0.30268812  0.30536468  0.30698919  1
  Zr  Zr7  1  0.90337991  0.49454077  0.49807813  1
  Zr  Zr8  1  0.49034717  0.30214171  0.50042086  1
  Zr  Zr9  1  0.49740125  0.89765702  0.89699283  1
  Zr  Zr10  1  0.90122945  0.10235468  0.29886315  1
  Zr  Zr11  1  0.89688686  0.70736752  0.50868564  1
  Zr  Zr12  1  0.90127580  0.50062246  0.90219711  1
  Zr  Zr13  1  0.30233324  0.09974228  0.51426490  1
  Zr  Zr14  1  0.90176247  0.90379451  0.89877201  1
  Zr  Zr15  1  0.30124857  0.09743604  0.29806697  1
  Zr  Zr16  1  0.09814635  0.70850097  0.10123872  1
  Zr  Zr17  1  0.50464394  0.90314166  0.29728138  1
  Zr  Zr18  1  0.49734455  0.30868968  0.30267791  1
  Zr  Zr19  1  0.50510868  0.69828512  0.10678961  1
  Zr  Zr20  1  0.69949069  0.48831852  0.69534326  1
  Zr  Zr21  1  0.10086947  0.09656709  0.29993222  1
  Zr  Zr22  1  0.89543698  0.49513931  0.70261999  1
  Zr  Zr23  1  0.70065385  0.30146779  0.50432273  1
  Zr  Zr24  1  0.10116538  0.70450381  0.29462475  1
  Zr  Zr25  1  0.69827246  0.50085432  0.10035237  1
  Zr  Zr26  1  0.50151295  0.89708440  0.10315068  1
  Zr  Zr27  1  0.50418790  0.10305008  0.09879978  1
  Zr  Zr28  1  0.49351975  0.89594079  0.49782775  1
  Zr  Zr29  1  0.89969155  0.49529188  0.29806658  1
  Zr  Zr30  1  0.09642317  0.70750100  0.89964227  1
  Zr  Zr31  1  0.69999553  0.90067852  0.10202011  1
  Zr  Zr32  1  0.90636014  0.69988205  0.70321280  1
  Zr  Zr33  1  0.70231385  0.90929578  0.50985827  1
  Zr  Zr34  1  0.50082738  0.09134070  0.50157377  1
  Zr  Zr35  1  0.09509219  0.90636809  0.50829900  1
  Zr  Zr36  1  0.70052804  0.49405949  0.89580070  1
  Zr  Zr37  1  0.89607061  0.29408173  0.09718088  1
  Zr  Zr38  1  0.89586750  0.88960109  0.68885156  1
  Zr  Zr39  1  0.10897454  0.49375608  0.69050254  1
  Zr  Zr40  1  0.90217457  0.69404252  0.90025723  1
  Zr  Zr41  1  0.69351007  0.09301913  0.69938726  1
  Zr  Zr42  1  0.30516236  0.10344309  0.09713544  1
  Zr  Zr43  1  0.10580056  0.09745683  0.69968106  1
  Zr  Zr44  1  0.70114670  0.90016947  0.89795087  1
  Zr  Zr45  1  0.50640099  0.29944761  0.09812800  1
  Zr  Zr46  1  0.09717170  0.49800852  0.49630800  1
  Zr  Zr47  1  0.90499038  0.09345245  0.50426436  1
  Zr  Zr48  1  0.90795372  0.10447059  0.70900322  1
  Zr  Zr49  1  0.69796198  0.10100228  0.29602024  1
  Sc  Sc50  1  0.89644928  0.90218239  0.10171959  1
  Sc  Sc51  1  0.09759011  0.30044635  0.90341345  1
  Sc  Sc52  1  0.90619154  0.69823978  0.10215244  1
  Sc  Sc53  1  0.89473123  0.10206505  0.09726722  1
  Sc  Sc54  1  0.50272462  0.69903696  0.30354867  1
  Sc  Sc55  1  0.10008600  0.31405111  0.50532594  1
  Sc  Sc56  1  0.90313753  0.50228924  0.09154831  1
  Sc  Sc57  1  0.70068143  0.68878963  0.90798221  1
  Sc  Sc58  1  0.49415177  0.31109787  0.70612634  1
  Sc  Sc59  1  0.10441207  0.10841333  0.10271656  1
  Sc  Sc60  1  0.30495619  0.49133497  0.29579193  1
  Sc  Sc61  1  0.10232279  0.49720587  0.89824383  1
  Sc  Sc62  1  0.89211317  0.29761841  0.29660091  1
  Sc  Sc63  1  0.30051131  0.90199434  0.69982893  1
  Sc  Sc64  1  0.10807345  0.69488922  0.49114370  1
  Sc  Sc65  1  0.70374725  0.30150879  0.28872037  1
  Sc  Sc66  1  0.10083439  0.70359133  0.70419017  1
  Sc  Sc67  1  0.09971608  0.49794676  0.08567796  1
  Sc  Sc68  1  0.49629361  0.69644170  0.49540380  1
  Sc  Sc69  1  0.30266977  0.89446911  0.29765547  1
  Sc  Sc70  1  0.29744580  0.10965051  0.90517533  1
  Sc  Sc71  1  0.49812155  0.50598170  0.11179835  1
  Sc  Sc72  1  0.69958569  0.50506082  0.50559397  1
  Sc  Sc73  1  0.30044543  0.70833001  0.30750158  1
  Sc  Sc74  1  0.69628111  0.49812965  0.30600718  1
  Sc  Sc75  1  0.50770059  0.50099992  0.50112709  1
  Sc  Sc76  1  0.89927130  0.29243803  0.89392966  1
  Sc  Sc77  1  0.10022179  0.49974181  0.30859845  1
  Sc  Sc78  1  0.28953388  0.50428294  0.50906709  1
  Sc  Sc79  1  0.69306859  0.69880862  0.10119026  1
  Sc  Sc80  1  0.49412589  0.49325632  0.88563701  1
  Sc  Sc81  1  0.70280360  0.89279552  0.29484263  1
  Sc  Sc82  1  0.09590794  0.90165873  0.70740902  1
  Sc  Sc83  1  0.29491007  0.90268973  0.90347721  1
  Sc  Sc84  1  0.50346782  0.29593325  0.90041191  1
  Sc  Sc85  1  0.90263975  0.30520122  0.49927245  1
  Sc  Sc86  1  0.09677283  0.29872597  0.70439573  1
  Sc  Sc87  1  0.70209830  0.10734855  0.09845707  1
  Sc  Sc88  1  0.29835086  0.69280421  0.89071545  1
  Sc  Sc89  1  0.11103502  0.89489742  0.29628392  1
  Sc  Sc90  1  0.49884202  0.90323909  0.69837631  1
  Sc  Sc91  1  0.48223839  0.69823274  0.69241698  1
  Sc  Sc92  1  0.69769809  0.69249224  0.49117428  1
  Sc  Sc93  1  0.29601519  0.90424206  0.10482823  1
  Sc  Sc94  1  0.29958163  0.29717225  0.89462033  1
  Sc  Sc95  1  0.09736690  0.10058543  0.89133395  1
  Sc  Sc96  1  0.89757164  0.10022416  0.90467621  1
  Sc  Sc97  1  0.29308804  0.30473501  0.10731032  1
  Sc  Sc98  1  0.71382266  0.69035633  0.68324356  1
  Sc  Sc99  1  0.89838024  0.70734917  0.29619600  1
  Nb  Nb100  1  0.50227932  0.10593629  0.90122082  1
  Nb  Nb101  1  0.09104358  0.30119498  0.10293932  1
  Nb  Nb102  1  0.69870775  0.30274862  0.09377115  1
  Nb  Nb103  1  0.69633693  0.10479878  0.89418108  1
  Nb  Nb104  1  0.70230816  0.69744409  0.29606037  1
  Nb  Nb105  1  0.29822097  0.10841193  0.70352820  1
  Nb  Nb106  1  0.70031170  0.10013919  0.50375045  1
  Nb  Nb107  1  0.69692847  0.29379582  0.89585098  1
  Nb  Nb108  1  0.10066771  0.89903480  0.10604722  1
  Nb  Nb109  1  0.90357877  0.90196058  0.50019185  1
  Nb  Nb110  1  0.90104495  0.90153006  0.30253136  1
  Nb  Nb111  1  0.50008421  0.50080369  0.30382942  1
  Nb  Nb112  1  0.70430277  0.29632104  0.70929613  1
  Nb  Nb113  1  0.30028892  0.89554872  0.49692938  1
  Nb  Nb114  1  0.50107903  0.50155695  0.69897270  1
  Nb  Nb115  1  0.30179203  0.29917520  0.50410644  1
  Nb  Nb116  1  0.50505654  0.10246313  0.29791943  1
  Nb  Nb117  1  0.30022000  0.29933978  0.69315475  1
  Nb  Nb118  1  0.89056386  0.29944739  0.70212039  1
  Nb  Nb119  1  0.30121868  0.50294129  0.09642598  1
  Nb  Nb120  1  0.30225398  0.70939795  0.50225532  1
  Nb  Nb121  1  0.70060035  0.89766015  0.69807749  1
  Nb  Nb122  1  0.50162340  0.10306221  0.70436309  1
  Nb  Nb123  1  0.29783321  0.69407675  0.68826944  1
  Nb  Nb124  1  0.29958974  0.49933253  0.90641642  1
  Nb  Nb125  1  -0.00292250  0.80933930  0.40160047  1
  Nb  Nb126  1  0.00129016  0.59711269  0.59938763  1
  Nb  Nb127  1  0.79644840  0.19894487  0.60539977  1
  Nb  Nb128  1  0.00640240  0.19863986  0.40110491  1
  Nb  Nb129  1  0.60052320  0.19896456  0.60221361  1
  Nb  Nb130  1  0.40646083  0.20097248  0.20406899  1
  Nb  Nb131  1  0.59921948  0.19731598  0.40369671  1
  Nb  Nb132  1  0.79719788  0.59947958  0.20211233  1
  Nb  Nb133  1  0.00230442  -0.00367895  0.20121147  1
  Nb  Nb134  1  0.59741540  0.60022914  0.78756653  1
  Nb  Nb135  1  0.79566098  -0.00124517  0.79591875  1
  Nb  Nb136  1  0.79985014  0.79957847  -0.00072007  1
  Nb  Nb137  1  0.79242666  0.39258668  -0.00287308  1
  Nb  Nb138  1  0.00099307  0.39558788  0.19425473  1
  Nb  Nb139  1  0.20212013  0.19890998  0.40848231  1
  Nb  Nb140  1  0.20631095  0.79832373  0.59674424  1
  Nb  Nb141  1  0.20334531  0.59870304  0.19422695  1
  Nb  Nb142  1  0.40329081  0.79689061  0.00115185  1
  Nb  Nb143  1  0.20326111  0.00173896  0.40772605  1
  Nb  Nb144  1  0.60586493  0.79246017  0.78994980  1
  Nb  Nb145  1  0.80435465  -0.00098870  0.40363527  1
  Nb  Nb146  1  0.40235188  0.01488463  0.80046560  1
  Nb  Nb147  1  0.59859823  0.00577914  -0.00685610  1
  Nb  Nb148  1  0.39362079  0.40643726  0.00215017  1
  Nb  Nb149  1  0.60117806  0.80031407  0.60296502  1
  Pd  Pd150  1  0.39433283  -0.00284186  0.39610897  1
  Pd  Pd151  1  0.40217183  0.59215524  0.59075704  1
  Pd  Pd152  1  0.19009084  0.41261254  0.19612914  1
  Pd  Pd153  1  -0.00443637  0.21137089  0.59817432  1
  Pd  Pd154  1  0.40270077  0.00326428  0.20026588  1
  Pd  Pd155  1  0.39373471  0.41566782  0.41393474  1
  Pd  Pd156  1  0.59306518  0.40634409  -0.00523813  1
  Pd  Pd157  1  0.00348445  0.58869290  0.19839865  1
  Pd  Pd158  1  0.21010807  0.79775239  0.00268120  1
  Pd  Pd159  1  0.40068441  0.20262718  0.79906919  1
  Pd  Pd160  1  0.21133896  0.59590851  0.39029670  1
  Pd  Pd161  1  0.20865530  0.00339070  0.80297711  1
  Pd  Pd162  1  0.19380475  0.00749726  0.00318553  1
  Pd  Pd163  1  0.79390670  0.40064122  0.40140612  1
  Pd  Pd164  1  0.19675729  0.20581212  -0.00049737  1
  Pd  Pd165  1  0.20395714  0.39198167  -0.00145403  1
  Pd  Pd166  1  -0.00120702  0.39560002  0.79984706  1
  Pd  Pd167  1  0.79917653  0.80604545  0.40391835  1
  Pd  Pd168  1  0.80311730  0.00195993  0.20389712  1
  Pd  Pd169  1  0.60312561  0.79968784  0.40439180  1
  Pd  Pd170  1  -0.00917918  0.80360710  0.00397350  1
  Pd  Pd171  1  0.79127327  0.60129171  0.79722485  1
  Pd  Pd172  1  0.79487515  0.79509749  0.80394825  1
  Pd  Pd173  1  0.39457841  0.80381383  0.79927776  1
  Pd  Pd174  1  0.19391106  0.60602970  0.00096486  1
  Pd  Pd175  1  0.40066010  0.19408326  0.39727799  1
  Pd  Pd176  1  0.59890167  0.40482778  0.20349112  1
  Pd  Pd177  1  0.39452063  0.59606526  0.40170374  1
  Pd  Pd178  1  0.20671540  0.20167990  0.20318716  1
  Pd  Pd179  1  0.80493709  0.59976777  0.39503604  1
  Pd  Pd180  1  0.60872289  0.00035690  0.39648588  1
  Pd  Pd181  1  -0.00793284  0.61295775  0.40162370  1
  Pd  Pd182  1  0.80065692  0.19532932  0.40671456  1
  Pd  Pd183  1  0.40227903  -0.00366332  -0.00671521  1
  Pd  Pd184  1  0.00308369  0.19459571  -0.00392497  1
  Pd  Pd185  1  0.40909235  0.59711095  -0.00628339  1
  Pd  Pd186  1  0.20378052  0.39507656  0.80144485  1
  Pd  Pd187  1  0.01141748  0.59247942  0.79436749  1
  Pd  Pd188  1  0.00624711  0.00709159  0.01132593  1
  Pd  Pd189  1  0.60606071  0.39596188  0.40112933  1
  Pd  Pd190  1  0.59708109  -0.00610895  0.80210607  1
  Pd  Pd191  1  0.40917225  0.20230573  0.60934791  1
  Pd  Pd192  1  0.20661723  0.80054171  0.79370257  1
  Pd  Pd193  1  0.59577992  0.39239071  0.60343366  1
  Pd  Pd194  1  0.19771050  0.59837395  0.79841885  1
  Pd  Pd195  1  0.58810366  0.58724089  -0.00892174  1
  Pd  Pd196  1  0.60144623  0.80230190  -0.00665409  1
  Pd  Pd197  1  0.39737417  -0.00284262  0.60984446  1
  Pd  Pd198  1  0.39511037  0.60161782  0.21410365  1
  Pd  Pd199  1  0.19352550  0.20974911  0.60039755  1
  Rh  Rh200  1  0.39856375  0.59773992  0.79837567  1
  Rh  Rh201  1  -0.00712354  -0.00469677  0.79842700  1
  Rh  Rh202  1  0.80176701  0.39375049  0.59845539  1
  Rh  Rh203  1  0.39627912  0.40665345  0.59893021  1
  Rh  Rh204  1  0.81134893  0.59146560  0.59519926  1
  Rh  Rh205  1  0.79853025  0.19200863  0.79856117  1
  Rh  Rh206  1  0.40559660  0.39647252  0.19050522  1
  Rh  Rh207  1  0.39257900  0.39658117  0.80536738  1
  Rh  Rh208  1  0.19588805  -0.00189374  0.19949233  1
  Rh  Rh209  1  0.59159575  -0.00304533  0.60204298  1
  Rh  Rh210  1  0.80122753  0.39532940  0.80982405  1
  Rh  Rh211  1  0.39504222  0.21481930  0.00993822  1
  Rh  Rh212  1  0.40238003  0.79808930  0.19747415  1
  Rh  Rh213  1  -0.00433354  0.38817547  0.38603588  1
  Rh  Rh214  1  -0.00473032  0.20121171  0.20326333  1
  Rh  Rh215  1  0.59475217  0.20666182  0.79452705  1
  Rh  Rh216  1  -0.00530421  0.40218923  0.60946668  1
  Rh  Rh217  1  0.39859722  0.80344840  0.60034366  1
  Rh  Rh218  1  0.19263352  0.81024267  0.40932582  1
  Rh  Rh219  1  0.60054870  0.39983766  0.79646802  1
  Rh  Rh220  1  0.78991806  -0.00079549  -0.00800264  1
  Rh  Rh221  1  0.20691784  0.39435839  0.60127213  1
  Rh  Rh222  1  0.60713940  0.19490865  -0.00321062  1
  Rh  Rh223  1  0.59823091  0.59823179  0.39614383  1
  Rh  Rh224  1  0.01557333  0.78819015  0.59108730  1
  Rh  Rh225  1  0.80923788  0.00612642  0.60515830  1
  Rh  Rh226  1  0.80649671  0.40772302  0.18569247  1
  Rh  Rh227  1  -0.00507208  -0.00253537  0.61557768  1
  Rh  Rh228  1  0.59868566  0.20579629  0.20622892  1
  Rh  Rh229  1  0.00779344  0.60288101  -0.00544775  1
  Rh  Rh230  1  0.20654575  0.39714043  0.40826788  1
  Rh  Rh231  1  0.60301306  0.00078540  0.19383332  1
  Rh  Rh232  1  0.20903201  0.79223640  0.19340945  1
  Rh  Rh233  1  0.40553378  0.80119781  0.39423616  1
  Rh  Rh234  1  -0.00266773  0.81118785  0.20449030  1
  Rh  Rh235  1  0.79990057  0.78990328  0.18972582  1
  Rh  Rh236  1  0.20745306  -0.00886470  0.60174473  1
  Rh  Rh237  1  0.80134769  0.60346145  0.01163401  1
  Rh  Rh238  1  0.00221347  -0.00254979  0.38945630  1
  Rh  Rh239  1  -0.00949717  0.39471184  0.00088264  1
  Rh  Rh240  1  0.19838460  0.20365266  0.79592789  1
  Rh  Rh241  1  0.79284656  0.20425509  -0.00479352  1
  Rh  Rh242  1  -0.00080478  0.80597213  0.80300933  1
  Rh  Rh243  1  0.78997622  0.79875880  0.59146944  1
  Rh  Rh244  1  0.79548280  0.20020862  0.19397715  1
  Rh  Rh245  1  0.00287957  0.20326532  0.80195970  1
  Rh  Rh246  1  0.19181376  0.61022469  0.60071872  1
  Rh  Rh247  1  0.59232899  0.60852573  0.60416442  1
  Rh  Rh248  1  0.60112941  0.79664561  0.20799009  1
  Rh  Rh249  1  0.60530716  0.59714988  0.21125911  1
