# generated using pymatgen
data_ZrScNbPdRh
_symmetry_space_group_name_H-M   'P 1'
_cell_length_a   16.56123140
_cell_length_b   16.55899064
_cell_length_c   16.56331837
_cell_angle_alpha   90.00865421
_cell_angle_beta   90.02244534
_cell_angle_gamma   89.98181620
_symmetry_Int_Tables_number   1
_chemical_formula_structural   ZrScNbPdRh
_chemical_formula_sum   'Zr50 Sc50 Nb50 Pd50 Rh50'
_cell_volume   4542.27867991
_cell_formula_units_Z   50
loop_
 _symmetry_equiv_pos_site_id
 _symmetry_equiv_pos_as_xyz
  1  'x, y, z'
loop_
 _atom_site_type_symbol
 _atom_site_label
 _atom_site_symmetry_multiplicity
 _atom_site_fract_x
 _atom_site_fract_y
 _atom_site_fract_z
 _atom_site_occupancy
  Zr  Zr0  1  0.50911364  0.09282034  0.09885571  1
  Zr  Zr1  1  0.70534742  0.49973561  0.30487857  1
  Zr  Zr2  1  0.49983407  0.49723394  0.09716367  1
  Zr  Zr3  1  0.89300625  0.09795111  0.10053722  1
  Zr  Zr4  1  0.10143455  0.49575536  0.29634628  1
  Zr  Zr5  1  0.69930533  0.10228645  0.29943847  1
  Zr  Zr6  1  0.69155899  0.29862932  0.09404110  1
  Zr  Zr7  1  0.29662843  0.89173466  0.70425268  1
  Zr  Zr8  1  0.50205648  0.09838502  0.49495578  1
  Zr  Zr9  1  0.10272588  0.50434451  0.68846960  1
  Zr  Zr10  1  0.10917391  0.68672858  0.50664594  1
  Zr  Zr11  1  0.09762569  0.89669156  0.09930696  1
  Zr  Zr12  1  0.90614626  0.48900304  0.10291103  1
  Zr  Zr13  1  0.51236007  0.69509010  0.10037768  1
  Zr  Zr14  1  0.68527952  0.50666419  0.09633261  1
  Zr  Zr15  1  0.90539695  0.69853525  0.89825771  1
  Zr  Zr16  1  0.89627691  0.10232355  0.90066862  1
  Zr  Zr17  1  0.51107108  0.90493777  0.70440132  1
  Zr  Zr18  1  0.89786629  0.29649299  0.89540696  1
  Zr  Zr19  1  0.69780404  0.89366830  0.69662252  1
  Zr  Zr20  1  0.29704353  0.09857505  0.29847279  1
  Zr  Zr21  1  0.50202399  0.89509000  0.09170929  1
  Zr  Zr22  1  0.50073807  0.30636562  0.09955827  1
  Zr  Zr23  1  0.69834042  0.90625004  0.09973413  1
  Zr  Zr24  1  0.10254118  0.89493526  0.89902578  1
  Zr  Zr25  1  0.10262261  0.69039718  0.09550969  1
  Zr  Zr26  1  0.70130286  0.70699648  0.10108691  1
  Zr  Zr27  1  0.90487060  0.29928064  0.70042782  1
  Zr  Zr28  1  0.90583389  0.89327836  0.69601158  1
  Zr  Zr29  1  0.09719840  0.30586162  0.69992707  1
  Zr  Zr30  1  0.69112267  0.09243844  0.69959196  1
  Zr  Zr31  1  0.09963632  0.89923301  0.70403955  1
  Zr  Zr32  1  0.89782217  0.49832241  0.49294200  1
  Zr  Zr33  1  0.69973092  0.09767584  0.48854564  1
  Zr  Zr34  1  0.69733167  0.50026553  0.70545666  1
  Zr  Zr35  1  0.89917700  0.70345879  0.09267306  1
  Zr  Zr36  1  0.70399169  0.30088711  0.70798880  1
  Zr  Zr37  1  0.49936986  0.89610253  0.90109787  1
  Zr  Zr38  1  0.09845651  0.70043322  0.70332790  1
  Zr  Zr39  1  0.28657151  0.09973431  0.49065166  1
  Zr  Zr40  1  0.30061688  0.10382363  0.09041048  1
  Zr  Zr41  1  0.90145854  0.50840710  0.89774460  1
  Zr  Zr42  1  0.29480186  0.30393142  0.08667486  1
  Zr  Zr43  1  0.90268708  0.69710791  0.70672709  1
  Zr  Zr44  1  0.89886979  0.30354794  0.50578591  1
  Zr  Zr45  1  0.50566237  0.89114276  0.49720871  1
  Zr  Zr46  1  0.90387966  0.49644324  0.69120853  1
  Zr  Zr47  1  0.30474397  0.70065443  0.30599630  1
  Zr  Zr48  1  0.71080020  0.68924626  0.89999540  1
  Zr  Zr49  1  0.30598491  0.29519771  0.49866756  1
  Sc  Sc50  1  0.70780558  0.50214145  0.50548719  1
  Sc  Sc51  1  0.69253560  0.89560397  0.89514952  1
  Sc  Sc52  1  0.89330216  0.70252641  0.50724460  1
  Sc  Sc53  1  0.70530870  0.70126796  0.70038874  1
  Sc  Sc54  1  0.69667812  0.10880904  0.90505508  1
  Sc  Sc55  1  0.50107253  0.10050149  0.90039553  1
  Sc  Sc56  1  0.29522573  0.49480841  0.09390037  1
  Sc  Sc57  1  0.90679187  0.10598188  0.70324493  1
  Sc  Sc58  1  0.69682434  0.70358982  0.30301791  1
  Sc  Sc59  1  0.11485535  0.69435218  0.29963486  1
  Sc  Sc60  1  0.10241061  0.90886408  0.29894822  1
  Sc  Sc61  1  0.50298204  0.09789283  0.29970864  1
  Sc  Sc62  1  0.49992387  0.71005870  0.30567353  1
  Sc  Sc63  1  0.10321342  0.29756334  0.50854816  1
  Sc  Sc64  1  0.09573643  0.10171267  0.68885520  1
  Sc  Sc65  1  0.10092190  0.09664149  0.30180762  1
  Sc  Sc66  1  0.49194985  0.70196752  0.90326714  1
  Sc  Sc67  1  0.09820004  0.91603865  0.50835062  1
  Sc  Sc68  1  0.90538540  0.89589593  0.89805100  1
  Sc  Sc69  1  0.29985127  0.30209639  0.30544961  1
  Sc  Sc70  1  0.30279908  0.51543600  0.50756768  1
  Sc  Sc71  1  0.30437314  0.11164146  0.69634603  1
  Sc  Sc72  1  0.50020531  0.29800848  0.89557127  1
  Sc  Sc73  1  0.70750684  0.89457516  0.30630414  1
  Sc  Sc74  1  0.29707861  0.49981098  0.29798327  1
  Sc  Sc75  1  0.69970453  0.70673360  0.49882499  1
  Sc  Sc76  1  0.89651788  0.31520060  0.29904342  1
  Sc  Sc77  1  0.30698565  0.30860675  0.70314191  1
  Sc  Sc78  1  0.09940025  0.29997343  0.29905916  1
  Sc  Sc79  1  0.09866593  0.30489151  0.90955687  1
  Sc  Sc80  1  0.30543839  0.90176284  0.10365505  1
  Sc  Sc81  1  0.89718892  0.90450279  0.30031335  1
  Sc  Sc82  1  0.30561264  0.49132657  0.90291970  1
  Sc  Sc83  1  0.70450718  0.29975384  0.48917538  1
  Sc  Sc84  1  0.88500166  0.70640837  0.30824138  1
  Sc  Sc85  1  0.49382826  0.90003131  0.29585866  1
  Sc  Sc86  1  0.90156931  0.09107885  0.29786220  1
  Sc  Sc87  1  0.09827035  0.09728958  0.91402213  1
  Sc  Sc88  1  0.09865766  0.50298925  0.90933489  1
  Sc  Sc89  1  0.49212330  0.50596097  0.70237375  1
  Sc  Sc90  1  0.09654959  0.69895386  0.90709253  1
  Sc  Sc91  1  0.09011263  0.09982600  0.10337398  1
  Sc  Sc92  1  0.30498333  0.70265340  0.69589041  1
  Sc  Sc93  1  0.30357809  0.88703447  0.90538671  1
  Sc  Sc94  1  0.30191474  0.90635009  0.29800828  1
  Sc  Sc95  1  0.89182913  0.90158076  0.10547294  1
  Sc  Sc96  1  0.49788839  0.69710761  0.70301881  1
  Sc  Sc97  1  0.29877977  0.70000007  0.09655072  1
  Sc  Sc98  1  0.50145094  0.50473633  0.90132474  1
  Sc  Sc99  1  0.50109995  0.10252685  0.70273836  1
  Nb  Nb100  1  0.29997576  0.11032566  0.89930717  1
  Nb  Nb101  1  0.90014265  0.90422066  0.49543968  1
  Nb  Nb102  1  0.49735200  0.30641440  0.30143895  1
  Nb  Nb103  1  0.10281018  0.50346354  0.49858818  1
  Nb  Nb104  1  0.09609293  0.10379578  0.49560374  1
  Nb  Nb105  1  0.49820767  0.29755720  0.69061487  1
  Nb  Nb106  1  0.90417070  0.09425971  0.49830185  1
  Nb  Nb107  1  0.70032146  0.30554812  0.89753741  1
  Nb  Nb108  1  0.48595576  0.69311733  0.49745424  1
  Nb  Nb109  1  0.09573944  0.31193012  0.10295817  1
  Nb  Nb110  1  0.10268322  0.48988522  0.09950344  1
  Nb  Nb111  1  0.69510876  0.29625002  0.30205819  1
  Nb  Nb112  1  0.90174795  0.29900709  0.10032613  1
  Nb  Nb113  1  0.50239563  0.49820125  0.29449053  1
  Nb  Nb114  1  0.30132645  0.89807900  0.50511670  1
  Nb  Nb115  1  0.49537074  0.30403626  0.49758572  1
  Nb  Nb116  1  0.89858097  0.50363484  0.30165479  1
  Nb  Nb117  1  0.49968216  0.50151514  0.50118958  1
  Nb  Nb118  1  0.29914575  0.50439239  0.70893775  1
  Nb  Nb119  1  0.30863550  0.70626702  0.49871656  1
  Nb  Nb120  1  0.69946149  0.49276514  0.89992659  1
  Nb  Nb121  1  0.70286092  0.89935143  0.50516599  1
  Nb  Nb122  1  0.29920611  0.29061305  0.90059763  1
  Nb  Nb123  1  0.69885796  0.10069739  0.10120839  1
  Nb  Nb124  1  0.29793553  0.69684239  0.89429012  1
  Nb  Nb125  1  -0.00027305  0.60134051  0.39636047  1
  Nb  Nb126  1  0.40003657  0.20393295  0.19740881  1
  Nb  Nb127  1  0.79571393  0.20451075  0.19590183  1
  Nb  Nb128  1  0.59125436  0.40124968  0.40080325  1
  Nb  Nb129  1  -0.00195010  0.19681841  0.40598679  1
  Nb  Nb130  1  0.20266655  0.80319218  0.41027552  1
  Nb  Nb131  1  0.79904415  -0.00045069  0.79302497  1
  Nb  Nb132  1  0.79623705  0.39702777  -0.00357821  1
  Nb  Nb133  1  0.20672217  0.00744985  0.80402758  1
  Nb  Nb134  1  0.59934982  0.20825450  0.59431281  1
  Nb  Nb135  1  0.80275996  0.59650774  0.19878091  1
  Nb  Nb136  1  0.59264105  0.39628719  0.59656860  1
  Nb  Nb137  1  0.79647382  0.19271440  0.59784540  1
  Nb  Nb138  1  0.39272279  0.00062446  0.79932214  1
  Nb  Nb139  1  0.39797946  -0.00465015  0.59871952  1
  Nb  Nb140  1  0.20477263  0.59861077  0.80026203  1
  Nb  Nb141  1  0.19906323  0.40554425  0.40871441  1
  Nb  Nb142  1  0.20232440  0.20500915  0.19246203  1
  Nb  Nb143  1  0.58985880  0.59463482  0.40426708  1
  Nb  Nb144  1  0.00143223  0.79135271  0.20599968  1
  Nb  Nb145  1  0.00730657  0.79766680  0.40112273  1
  Nb  Nb146  1  -0.00484885  0.59972328  0.20491975  1
  Nb  Nb147  1  0.80188700  -0.00051481  0.59632974  1
  Nb  Nb148  1  0.20184662  0.20065933  0.80607288  1
  Nb  Nb149  1  0.40863315  0.59678860  0.20018009  1
  Pd  Pd150  1  0.39714777  0.40916997  0.60120274  1
  Pd  Pd151  1  0.79396923  -0.00508198  -0.01234454  1
  Pd  Pd152  1  0.40426025  0.19676340  0.39007549  1
  Pd  Pd153  1  0.58729605  0.40109130  0.79495413  1
  Pd  Pd154  1  0.20585299  0.00677797  0.60806751  1
  Pd  Pd155  1  0.40548949  0.39730848  0.80391924  1
  Pd  Pd156  1  0.60097859  0.78535368  0.80534241  1
  Pd  Pd157  1  0.78973262  0.39969523  0.19298710  1
  Pd  Pd158  1  -0.00415008  0.20420487  0.20885248  1
  Pd  Pd159  1  0.60291311  -0.00885130  0.20742260  1
  Pd  Pd160  1  0.59868494  0.60403029  0.80416077  1
  Pd  Pd161  1  0.40418331  0.19130311  0.59514951  1
  Pd  Pd162  1  0.20103917  0.20416240  0.60830970  1
  Pd  Pd163  1  0.79940794  0.60261966  0.60305192  1
  Pd  Pd164  1  0.40243349  0.59120218  0.39147617  1
  Pd  Pd165  1  0.39859590  -0.00442124  0.40414676  1
  Pd  Pd166  1  0.39014817  0.40094779  0.19803777  1
  Pd  Pd167  1  0.19907757  0.00741291  0.19237184  1
  Pd  Pd168  1  0.39643181  -0.00153253  -0.00754293  1
  Pd  Pd169  1  0.00828055  0.39715360  0.40509523  1
  Pd  Pd170  1  0.39580806  0.60072971  0.00517836  1
  Pd  Pd171  1  0.59921492  0.60024411  0.59562095  1
  Pd  Pd172  1  0.19802269  0.80331498  0.20663182  1
  Pd  Pd173  1  0.00469283  0.79815131  0.58890841  1
  Pd  Pd174  1  0.60193584  0.80765818  0.20622246  1
  Pd  Pd175  1  0.39381002  0.41109287  0.40274626  1
  Pd  Pd176  1  0.40012229  0.79267295  0.19473025  1
  Pd  Pd177  1  0.20585367  -0.00423544  -0.00384313  1
  Pd  Pd178  1  0.00678056  0.40767345  0.80452860  1
  Pd  Pd179  1  0.41246143  0.20165255  0.00262243  1
  Pd  Pd180  1  0.59420634  0.78525650  0.59684989  1
  Pd  Pd181  1  0.81386560  0.20148654  0.39268179  1
  Pd  Pd182  1  0.41012737  0.80386129  0.60700808  1
  Pd  Pd183  1  0.20355899  0.79825760  0.00236916  1
  Pd  Pd184  1  0.19459555  0.79967388  0.59590640  1
  Pd  Pd185  1  0.01557473  0.19489889  0.80624195  1
  Pd  Pd186  1  0.59587800  0.20198256  0.20284307  1
  Pd  Pd187  1  0.80677809  0.40654001  0.80206308  1
  Pd  Pd188  1  0.19733770  0.40068687  0.80736433  1
  Pd  Pd189  1  0.79842673  0.80972717  -0.00773503  1
  Pd  Pd190  1  0.20690016  0.59487239  0.19315425  1
  Pd  Pd191  1  0.00306741  0.00630849  0.79994160  1
  Pd  Pd192  1  0.60693890  0.39903214  0.20625158  1
  Pd  Pd193  1  0.60165261  -0.01163682  0.39247912  1
  Pd  Pd194  1  0.00218649  0.20410254  0.00444667  1
  Pd  Pd195  1  0.21079003  0.40139696  0.59433718  1
  Pd  Pd196  1  0.59712376  0.20136602  0.79811379  1
  Pd  Pd197  1  0.80089312  0.59008482  0.00794522  1
  Pd  Pd198  1  -0.00839085  -0.00696005  0.00479319  1
  Pd  Pd199  1  0.79776871  0.20525523  0.00379245  1
  Rh  Rh200  1  0.79855453  -0.00460782  0.40206663  1
  Rh  Rh201  1  0.80408761  0.80492440  0.40789614  1
  Rh  Rh202  1  0.39264123  0.60257556  0.80268856  1
  Rh  Rh203  1  0.00361993  0.79613175  0.80495099  1
  Rh  Rh204  1  0.39321184  0.80960512  0.39991655  1
  Rh  Rh205  1  0.59670806  0.20176089  -0.00380166  1
  Rh  Rh206  1  0.39797613  0.79263145  0.00538507  1
  Rh  Rh207  1  -0.00510073  0.00374465  0.60167599  1
  Rh  Rh208  1  0.20191870  0.59952498  0.40199590  1
  Rh  Rh209  1  0.79572449  0.19041445  0.79429988  1
  Rh  Rh210  1  0.79400518  0.39774808  0.39892572  1
  Rh  Rh211  1  0.80036492  0.59396792  0.79402145  1
  Rh  Rh212  1  0.18886813  0.20777514  0.39346791  1
  Rh  Rh213  1  0.80243056  0.80505991  0.80113195  1
  Rh  Rh214  1  0.59079545  0.21059852  0.40052822  1
  Rh  Rh215  1  0.79620829  0.60407024  0.39891351  1
  Rh  Rh216  1  0.59869918  0.00242535  0.81008378  1
  Rh  Rh217  1  0.19782101  -0.00840990  0.40350071  1
  Rh  Rh218  1  0.18741218  0.20366323  0.00259704  1
  Rh  Rh219  1  0.20253102  0.39249411  0.20561499  1
  Rh  Rh220  1  0.60605022  0.00139284  -0.00393744  1
  Rh  Rh221  1  0.39732143  0.19911592  0.79791668  1
  Rh  Rh222  1  -0.00104358  0.80451882  0.00668659  1
  Rh  Rh223  1  -0.00906443  0.39727289  -0.00365408  1
  Rh  Rh224  1  0.00437352  0.40317769  0.59325913  1
  Rh  Rh225  1  0.00365127  0.00035484  0.39856759  1
  Rh  Rh226  1  0.40365920  0.39619538  -0.00777596  1
  Rh  Rh227  1  -0.00927750  0.59850827  0.59137326  1
  Rh  Rh228  1  0.59903290  0.79470774  0.40482396  1
  Rh  Rh229  1  -0.00123427  -0.01063230  0.19836401  1
  Rh  Rh230  1  0.59901217  0.39752354  -0.01136774  1
  Rh  Rh231  1  0.40218711  0.00864381  0.19500427  1
  Rh  Rh232  1  0.39880047  0.60093862  0.60536464  1
  Rh  Rh233  1  0.79069166  0.39256199  0.60117984  1
  Rh  Rh234  1  0.19820562  0.40098227  -0.00701370  1
  Rh  Rh235  1  0.40325430  0.80205383  0.79814355  1
  Rh  Rh236  1  0.21309815  0.60329457  0.60892073  1
  Rh  Rh237  1  0.20518974  0.59566674  -0.00772783  1
  Rh  Rh238  1  0.59769093  0.00558683  0.59093110  1
  Rh  Rh239  1  0.80308314  0.80502675  0.59866099  1
  Rh  Rh240  1  -0.00654420  0.19856876  0.59279771  1
  Rh  Rh241  1  0.80393750  0.79482056  0.19876909  1
  Rh  Rh242  1  0.79324858  0.00798180  0.20299547  1
  Rh  Rh243  1  0.60437595  0.79406578  -0.00572541  1
  Rh  Rh244  1  0.01133558  0.59583409  0.79873747  1
  Rh  Rh245  1  0.60102601  0.60476695  -0.01140580  1
  Rh  Rh246  1  0.00178163  0.40046819  0.20342822  1
  Rh  Rh247  1  0.19791467  0.79298465  0.80450487  1
  Rh  Rh248  1  0.00230281  0.59279113  0.01048333  1
  Rh  Rh249  1  0.60044591  0.60465550  0.21254340  1
