# generated using pymatgen
data_ZrScNbPdRh
_symmetry_space_group_name_H-M   'P 1'
_cell_length_a   16.55555814
_cell_length_b   16.55326853
_cell_length_c   16.55474902
_cell_angle_alpha   89.96448811
_cell_angle_beta   90.03755973
_cell_angle_gamma   90.02716515
_symmetry_Int_Tables_number   1
_chemical_formula_structural   ZrScNbPdRh
_chemical_formula_sum   'Zr50 Sc50 Nb50 Pd50 Rh50'
_cell_volume   4536.80342760
_cell_formula_units_Z   50
loop_
 _symmetry_equiv_pos_site_id
 _symmetry_equiv_pos_as_xyz
  1  'x, y, z'
loop_
 _atom_site_type_symbol
 _atom_site_label
 _atom_site_symmetry_multiplicity
 _atom_site_fract_x
 _atom_site_fract_y
 _atom_site_fract_z
 _atom_site_occupancy
  Zr  Zr0  1  0.50837868  0.50093902  0.50113228  1
  Zr  Zr1  1  0.70623459  0.30675506  0.29651353  1
  Zr  Zr2  1  0.49663195  0.90865422  0.90077661  1
  Zr  Zr3  1  0.90209556  0.49899887  0.49506371  1
  Zr  Zr4  1  0.09457967  0.89595063  0.49660750  1
  Zr  Zr5  1  0.30260605  0.30690290  0.29532678  1
  Zr  Zr6  1  0.69823507  0.48775500  0.90797422  1
  Zr  Zr7  1  0.90761024  0.89728321  0.70210429  1
  Zr  Zr8  1  0.69930585  0.90197966  0.09809042  1
  Zr  Zr9  1  0.09291748  0.09551583  0.09810987  1
  Zr  Zr10  1  0.09844542  0.50034485  0.30340822  1
  Zr  Zr11  1  0.10304577  0.90593343  0.30789833  1
  Zr  Zr12  1  0.50110975  0.10386324  0.10882774  1
  Zr  Zr13  1  0.69461957  0.49209361  0.49077918  1
  Zr  Zr14  1  0.90622707  0.90623451  0.09655358  1
  Zr  Zr15  1  0.09625114  0.70169657  0.09455309  1
  Zr  Zr16  1  0.90696984  0.09939860  0.69922774  1
  Zr  Zr17  1  0.10007207  0.50267865  0.70143414  1
  Zr  Zr18  1  0.51175710  0.29670192  0.69492427  1
  Zr  Zr19  1  0.10194166  0.09390522  0.90127503  1
  Zr  Zr20  1  0.49967979  0.29464159  0.09986132  1
  Zr  Zr21  1  0.89549562  0.90476708  0.50480123  1
  Zr  Zr22  1  0.30704374  0.49708184  0.10437351  1
  Zr  Zr23  1  0.49806828  0.50028464  0.89667619  1
  Zr  Zr24  1  0.68972317  0.68632751  0.50414217  1
  Zr  Zr25  1  0.70237559  0.90483118  0.69415202  1
  Zr  Zr26  1  0.90179238  0.69591474  0.30199738  1
  Zr  Zr27  1  0.50393852  0.30319202  0.89430128  1
  Zr  Zr28  1  0.29091882  0.90325043  0.49823648  1
  Zr  Zr29  1  0.69539549  0.30671850  0.09726984  1
  Zr  Zr30  1  0.29658437  0.30127571  0.50322559  1
  Zr  Zr31  1  0.09857823  0.29928155  0.29823348  1
  Zr  Zr32  1  0.29351661  0.89153833  0.30555012  1
  Zr  Zr33  1  0.29997432  0.10400557  0.89466477  1
  Zr  Zr34  1  0.90643265  0.49822348  0.70274255  1
  Zr  Zr35  1  0.29298144  0.29993356  0.09978116  1
  Zr  Zr36  1  0.09034857  0.70382212  0.70594009  1
  Zr  Zr37  1  0.30696312  0.50223091  0.49772902  1
  Zr  Zr38  1  0.30709687  0.70518506  0.49976063  1
  Zr  Zr39  1  0.69871846  0.11179774  0.09838648  1
  Zr  Zr40  1  0.90427277  0.69982717  0.09913736  1
  Zr  Zr41  1  0.69902479  0.29093949  0.89344561  1
  Zr  Zr42  1  0.89318815  0.30302808  0.88491820  1
  Zr  Zr43  1  0.09859897  0.89656999  0.70523335  1
  Zr  Zr44  1  0.10561236  0.29730723  0.90594003  1
  Zr  Zr45  1  0.90106632  0.09436881  0.89720590  1
  Zr  Zr46  1  0.70962434  0.70252406  0.89859967  1
  Zr  Zr47  1  0.09307437  0.29658590  0.69456224  1
  Zr  Zr48  1  0.89118777  0.29060450  0.11405711  1
  Zr  Zr49  1  0.90208654  0.29666454  0.30574002  1
  Sc  Sc50  1  0.90683507  0.90075937  0.31213525  1
  Sc  Sc51  1  0.29831302  0.69797562  0.70303574  1
  Sc  Sc52  1  0.90536603  0.70192656  0.89728711  1
  Sc  Sc53  1  0.49915782  0.90048242  0.50517314  1
  Sc  Sc54  1  0.30030262  0.09857118  0.70054974  1
  Sc  Sc55  1  0.49795401  0.50066406  0.70218378  1
  Sc  Sc56  1  0.48748553  0.69600209  0.90766439  1
  Sc  Sc57  1  0.89937689  0.48876172  0.29552025  1
  Sc  Sc58  1  0.30981090  0.51221486  0.89396160  1
  Sc  Sc59  1  0.49868745  0.70439450  0.68531806  1
  Sc  Sc60  1  0.69352968  0.69611942  0.29396434  1
  Sc  Sc61  1  0.49789466  0.10704390  0.90810129  1
  Sc  Sc62  1  0.90491971  0.69978335  0.49777364  1
  Sc  Sc63  1  0.51078435  0.10572075  0.49615124  1
  Sc  Sc64  1  0.29550294  0.90279935  0.90323102  1
  Sc  Sc65  1  0.10184899  0.49695175  0.50600489  1
  Sc  Sc66  1  0.30077513  0.89827905  0.09521225  1
  Sc  Sc67  1  0.08918782  0.49679462  0.90393170  1
  Sc  Sc68  1  0.90133325  0.49625706  0.90023959  1
  Sc  Sc69  1  0.68617236  0.09856569  0.30806054  1
  Sc  Sc70  1  0.30569874  0.10538251  0.10090805  1
  Sc  Sc71  1  0.69824518  0.91067213  0.49829640  1
  Sc  Sc72  1  0.09796156  0.71038329  0.30226499  1
  Sc  Sc73  1  0.69623528  0.70136734  0.11038719  1
  Sc  Sc74  1  0.10233447  0.90017062  0.09549064  1
  Sc  Sc75  1  0.49313613  0.69047090  0.49771638  1
  Sc  Sc76  1  0.68837883  0.30127933  0.49550996  1
  Sc  Sc77  1  0.09541519  0.09511637  0.49929153  1
  Sc  Sc78  1  0.69776183  0.90114729  0.30652387  1
  Sc  Sc79  1  0.70110252  0.50655137  0.68803743  1
  Sc  Sc80  1  0.49764749  0.70780800  0.10820672  1
  Sc  Sc81  1  0.49988692  0.90801459  0.69219638  1
  Sc  Sc82  1  0.50348897  0.90296728  0.29221105  1
  Sc  Sc83  1  0.50086237  0.29190461  0.30159110  1
  Sc  Sc84  1  0.29794374  0.10229417  0.50607914  1
  Sc  Sc85  1  0.30102114  0.50773907  0.70053951  1
  Sc  Sc86  1  0.90404467  0.49994670  0.10162872  1
  Sc  Sc87  1  0.50241274  0.29811480  0.49668468  1
  Sc  Sc88  1  0.30021584  0.70624073  0.89925016  1
  Sc  Sc89  1  0.49477476  0.50142157  0.29874839  1
  Sc  Sc90  1  0.09490023  0.49377068  0.09484709  1
  Sc  Sc91  1  0.49897793  0.10245387  0.69521546  1
  Sc  Sc92  1  0.30483660  0.90718764  0.69816656  1
  Sc  Sc93  1  0.29960050  0.28575978  0.70056051  1
  Sc  Sc94  1  0.09150135  0.69099055  0.49937033  1
  Sc  Sc95  1  0.09058069  0.09940786  0.30361252  1
  Sc  Sc96  1  0.30994097  0.70840497  0.09741049  1
  Sc  Sc97  1  0.90652403  0.10229291  0.10106092  1
  Sc  Sc98  1  0.10339321  0.89595856  0.90000528  1
  Sc  Sc99  1  0.49726970  0.90202611  0.10232981  1
  Nb  Nb100  1  0.90732269  0.29188962  0.50351952  1
  Nb  Nb101  1  0.09820656  0.29290026  0.49806591  1
  Nb  Nb102  1  0.70281027  0.69929465  0.70065423  1
  Nb  Nb103  1  0.89015795  0.90264141  0.90031146  1
  Nb  Nb104  1  0.89785776  0.10099622  0.49830148  1
  Nb  Nb105  1  0.70592139  0.90411322  0.90048984  1
  Nb  Nb106  1  0.09967621  0.09871245  0.71086298  1
  Nb  Nb107  1  0.70110629  0.09878896  0.89557015  1
  Nb  Nb108  1  0.30020339  0.49996206  0.29767031  1
  Nb  Nb109  1  0.70337105  0.29038640  0.69959790  1
  Nb  Nb110  1  0.50063441  0.49632554  0.09316580  1
  Nb  Nb111  1  0.49399447  0.10060285  0.30094318  1
  Nb  Nb112  1  0.69450594  0.49967567  0.10629867  1
  Nb  Nb113  1  0.69980898  0.49767146  0.29861582  1
  Nb  Nb114  1  0.70429315  0.09654494  0.50476254  1
  Nb  Nb115  1  0.30717051  0.69872312  0.30230604  1
  Nb  Nb116  1  0.10040340  0.29442946  0.09651148  1
  Nb  Nb117  1  0.49632259  0.70667101  0.30167672  1
  Nb  Nb118  1  0.69657887  0.10512630  0.69641297  1
  Nb  Nb119  1  0.30116923  0.29816019  0.90018282  1
  Nb  Nb120  1  0.89618120  0.69778675  0.69933647  1
  Nb  Nb121  1  0.89730379  0.29717709  0.69721094  1
  Nb  Nb122  1  0.10687410  0.70403473  0.90076227  1
  Nb  Nb123  1  0.30128134  0.10499057  0.29825293  1
  Nb  Nb124  1  0.90244516  0.10446289  0.29556651  1
  Nb  Nb125  1  0.79300940  0.59673060  0.00576674  1
  Nb  Nb126  1  0.20180087  0.00211077  0.20563702  1
  Nb  Nb127  1  0.59594398  0.79416424  0.39985066  1
  Nb  Nb128  1  0.80306503  0.19715036  0.40708300  1
  Nb  Nb129  1  0.39906844  0.00599303  0.39303724  1
  Nb  Nb130  1  0.80445366  0.80689170  0.20166122  1
  Nb  Nb131  1  0.20131941  0.39529913  0.80268206  1
  Nb  Nb132  1  0.80409063  0.38812294  0.59873331  1
  Nb  Nb133  1  0.19824785  0.20458920  0.39929586  1
  Nb  Nb134  1  0.60378040  0.80081626  -0.00920776  1
  Nb  Nb135  1  0.39991366  0.39672914  -0.00341586  1
  Nb  Nb136  1  0.79415243  0.59278864  0.39500433  1
  Nb  Nb137  1  0.20604380  0.60223047  0.20232934  1
  Nb  Nb138  1  0.60229914  0.80252065  0.80200576  1
  Nb  Nb139  1  0.80257469  0.00183391  0.20295110  1
  Nb  Nb140  1  0.60793394  0.00124436  0.80339506  1
  Nb  Nb141  1  0.80083668  0.19908805  0.59853387  1
  Nb  Nb142  1  0.79848484  0.79247904  0.60358744  1
  Nb  Nb143  1  0.60383712  0.60918629  0.80303637  1
  Nb  Nb144  1  0.19871594  0.60378382  0.00398870  1
  Nb  Nb145  1  0.20997524  0.59972172  0.39224447  1
  Nb  Nb146  1  0.40006518  0.39685739  0.59973779  1
  Nb  Nb147  1  0.60230061  0.59955496  0.00244413  1
  Nb  Nb148  1  0.19514184  0.80021768  0.60020937  1
  Nb  Nb149  1  0.40776989  0.80574098  0.79859889  1
  Pd  Pd150  1  0.19757437  0.40101302  0.40252387  1
  Pd  Pd151  1  0.21030699  0.41384296  -0.01079808  1
  Pd  Pd152  1  0.19281906  0.19140515  0.20414169  1
  Pd  Pd153  1  0.80190862  0.80234498  0.79390399  1
  Pd  Pd154  1  0.59136879  0.39919600  0.20559271  1
  Pd  Pd155  1  0.19929459  0.60868144  0.59279025  1
  Pd  Pd156  1  0.78850566  0.78870461  0.40351304  1
  Pd  Pd157  1  0.80755181  0.40149698  0.00880566  1
  Pd  Pd158  1  0.19175332  0.40581597  0.19646676  1
  Pd  Pd159  1  0.20737478  0.39968856  0.61130543  1
  Pd  Pd160  1  0.40674375  0.39990676  0.40275922  1
  Pd  Pd161  1  0.20300058  0.19072554  0.00306249  1
  Pd  Pd162  1  0.80266047  0.60002477  0.20067972  1
  Pd  Pd163  1  0.40482088  0.00871777  0.58895457  1
  Pd  Pd164  1  0.58754158  0.59729731  0.19902170  1
  Pd  Pd165  1  0.19155428  0.19000468  0.59849763  1
  Pd  Pd166  1  0.41009640  0.81171427  0.40046277  1
  Pd  Pd167  1  -0.00304941  0.80908790  0.20510664  1
  Pd  Pd168  1  0.80132690  0.01029240  0.00841097  1
  Pd  Pd169  1  0.80282989  0.00818175  0.39053022  1
  Pd  Pd170  1  0.79820816  0.00515221  0.79130262  1
  Pd  Pd171  1  0.60011794  0.00111903  -0.00163416  1
  Pd  Pd172  1  0.61022426  0.40870077  0.78736846  1
  Pd  Pd173  1  0.80684141  0.59853784  0.59159687  1
  Pd  Pd174  1  0.60575584  0.00132827  0.20145290  1
  Pd  Pd175  1  0.39343705  0.19629822  0.40511989  1
  Pd  Pd176  1  0.40704830  0.19664321  0.79657213  1
  Pd  Pd177  1  0.00622527  0.00377897  0.60038110  1
  Pd  Pd178  1  0.80534143  0.19851668  -0.00472153  1
  Pd  Pd179  1  0.38950827  0.39517120  0.79372578  1
  Pd  Pd180  1  0.00277887  0.39449264  0.19316321  1
  Pd  Pd181  1  0.20449575  -0.00404402  0.79907880  1
  Pd  Pd182  1  0.40301935  0.60316363  0.19816865  1
  Pd  Pd183  1  0.39022430  -0.00612947  0.20431711  1
  Pd  Pd184  1  0.39474191  0.00514793  0.00278874  1
  Pd  Pd185  1  -0.00179970  0.40059889  0.59721121  1
  Pd  Pd186  1  -0.00982036  0.20663950  -0.00446468  1
  Pd  Pd187  1  0.19423978  0.59494829  0.81026113  1
  Pd  Pd188  1  0.00769938  0.59837067  0.20244126  1
  Pd  Pd189  1  0.00350824  0.20238323  0.80518345  1
  Pd  Pd190  1  0.20270237  0.79965505  0.19400197  1
  Pd  Pd191  1  0.79892924  0.79442997  0.00918380  1
  Pd  Pd192  1  0.19097392  -0.00094932  0.60480420  1
  Pd  Pd193  1  0.79050877  0.40771993  0.78803344  1
  Pd  Pd194  1  -0.01145680  0.38620277  0.00495553  1
  Pd  Pd195  1  -0.00020123  0.60195891  0.80668254  1
  Pd  Pd196  1  0.60499778  0.80068294  0.59562434  1
  Pd  Pd197  1  -0.00098909  0.80667622  -0.00933336  1
  Pd  Pd198  1  0.00384976  0.39858977  0.40528249  1
  Pd  Pd199  1  0.79763977  0.59033082  0.80725123  1
  Rh  Rh200  1  -0.00075017  0.79920200  0.40376748  1
  Rh  Rh201  1  0.40558924  0.00139487  0.80028400  1
  Rh  Rh202  1  0.60388939  0.80473158  0.20302445  1
  Rh  Rh203  1  -0.00592098  0.80158650  0.80823901  1
  Rh  Rh204  1  0.60608160  0.19767651  0.59372302  1
  Rh  Rh205  1  0.38780508  0.80316667  0.60604526  1
  Rh  Rh206  1  0.39986012  0.59683492  0.39508298  1
  Rh  Rh207  1  -0.00745062  0.00339635  0.40312060  1
  Rh  Rh208  1  0.60680882  0.20016081  0.39839320  1
  Rh  Rh209  1  0.60124686  0.20045755  -0.00552248  1
  Rh  Rh210  1  0.40697721  0.80755737  -0.00558348  1
  Rh  Rh211  1  0.41118177  0.61645090  0.78973815  1
  Rh  Rh212  1  0.40548463  0.20562485  0.59780535  1
  Rh  Rh213  1  0.19355323  0.78363489  0.41082139  1
  Rh  Rh214  1  0.00061537  0.60345316  -0.00444135  1
  Rh  Rh215  1  0.59290709  0.59740033  0.61003934  1
  Rh  Rh216  1  0.40024702  0.20629811  0.20093881  1
  Rh  Rh217  1  0.00004228  -0.00634161  -0.00919561  1
  Rh  Rh218  1  -0.00359776  0.79385738  0.59827407  1
  Rh  Rh219  1  0.00125983  0.19515671  0.40272515  1
  Rh  Rh220  1  0.19556498  0.20281474  0.79888235  1
  Rh  Rh221  1  0.00166155  -0.00868235  0.80787926  1
  Rh  Rh222  1  0.40681320  0.39504005  0.19494500  1
  Rh  Rh223  1  0.80117110  0.19074861  0.79386948  1
  Rh  Rh224  1  0.39906550  0.59574526  0.00897062  1
  Rh  Rh225  1  0.60107100  0.39902687  0.60373637  1
  Rh  Rh226  1  0.39832264  0.80564279  0.20212127  1
  Rh  Rh227  1  0.59364406  0.39860638  0.38878947  1
  Rh  Rh228  1  0.00112842  -0.00293226  0.20500523  1
  Rh  Rh229  1  0.20921455  0.01533738  0.39301499  1
  Rh  Rh230  1  0.60186320  0.20118062  0.20623232  1
  Rh  Rh231  1  -0.00186404  0.59538276  0.39455425  1
  Rh  Rh232  1  0.80218785  0.39614234  0.40665796  1
  Rh  Rh233  1  0.59805962  0.00683582  0.60255732  1
  Rh  Rh234  1  0.21032327  0.80401002  0.79290824  1
  Rh  Rh235  1  0.20296361  0.00586774  0.00856481  1
  Rh  Rh236  1  0.58714205  -0.00665350  0.40402362  1
  Rh  Rh237  1  0.59676823  0.18952448  0.80312919  1
  Rh  Rh238  1  0.40230667  0.59189566  0.60318632  1
  Rh  Rh239  1  0.78976080  0.18877578  0.21359620  1
  Rh  Rh240  1  0.59343627  0.39936397  0.00200308  1
  Rh  Rh241  1  0.80000632  0.40591375  0.19471204  1
  Rh  Rh242  1  0.00632121  0.20223700  0.19738584  1
  Rh  Rh243  1  0.00805121  0.39406459  0.79907172  1
  Rh  Rh244  1  0.80363017  0.00197220  0.60505924  1
  Rh  Rh245  1  0.00184457  0.19250093  0.60026360  1
  Rh  Rh246  1  -0.00399067  0.59895752  0.60440480  1
  Rh  Rh247  1  0.39820559  0.20655442  0.00018900  1
  Rh  Rh248  1  0.20155985  0.79284899  0.00164138  1
  Rh  Rh249  1  0.59904973  0.60378567  0.38671009  1
