# generated using pymatgen
data_ZrScNbPdRh
_symmetry_space_group_name_H-M   'P 1'
_cell_length_a   16.55653095
_cell_length_b   16.55885627
_cell_length_c   16.55792441
_cell_angle_alpha   90.01242286
_cell_angle_beta   89.99979666
_cell_angle_gamma   89.96626546
_symmetry_Int_Tables_number   1
_chemical_formula_structural   ZrScNbPdRh
_chemical_formula_sum   'Zr50 Sc50 Nb50 Pd50 Rh50'
_cell_volume   4539.47357436
_cell_formula_units_Z   50
loop_
 _symmetry_equiv_pos_site_id
 _symmetry_equiv_pos_as_xyz
  1  'x, y, z'
loop_
 _atom_site_type_symbol
 _atom_site_label
 _atom_site_symmetry_multiplicity
 _atom_site_fract_x
 _atom_site_fract_y
 _atom_site_fract_z
 _atom_site_occupancy
  Zr  Zr0  1  0.68875619  0.10375169  0.69932172  1
  Zr  Zr1  1  0.10128369  0.09887686  0.89737107  1
  Zr  Zr2  1  0.30010095  0.49614393  0.51040744  1
  Zr  Zr3  1  0.09238094  0.09664388  0.10039189  1
  Zr  Zr4  1  0.29499778  0.89942621  0.49524983  1
  Zr  Zr5  1  0.30184996  0.90164046  0.91025055  1
  Zr  Zr6  1  0.70124270  0.49681864  0.70392053  1
  Zr  Zr7  1  0.90132741  0.70628509  0.70190949  1
  Zr  Zr8  1  0.69768625  0.69485731  0.89820441  1
  Zr  Zr9  1  0.10279199  0.90320469  0.49940023  1
  Zr  Zr10  1  0.69915690  0.30150935  0.69949695  1
  Zr  Zr11  1  0.10338845  0.30743852  0.10545745  1
  Zr  Zr12  1  0.30630920  0.28877259  0.89205787  1
  Zr  Zr13  1  0.09591342  0.09407836  0.50115026  1
  Zr  Zr14  1  0.90226557  0.69314954  0.50211178  1
  Zr  Zr15  1  0.29653469  0.31230585  0.69149216  1
  Zr  Zr16  1  0.70274273  0.50069656  0.10018096  1
  Zr  Zr17  1  0.31006754  0.10790288  0.30344184  1
  Zr  Zr18  1  0.89704817  0.10164228  0.09102504  1
  Zr  Zr19  1  0.50367516  0.89928728  0.70462977  1
  Zr  Zr20  1  0.09082138  0.30674148  0.90047443  1
  Zr  Zr21  1  0.11505568  0.89262994  0.30153807  1
  Zr  Zr22  1  0.09902697  0.70541780  0.49426708  1
  Zr  Zr23  1  0.69644835  0.89715832  0.70819727  1
  Zr  Zr24  1  0.50330350  0.69361153  0.50057246  1
  Zr  Zr25  1  0.29420374  0.10103330  0.50197193  1
  Zr  Zr26  1  0.70454868  0.10372081  0.50177492  1
  Zr  Zr27  1  0.09570881  0.90131199  0.10824561  1
  Zr  Zr28  1  0.70200197  0.69921325  0.30455160  1
  Zr  Zr29  1  0.09815102  0.69464422  0.29910019  1
  Zr  Zr30  1  0.90650483  0.09825192  0.90647071  1
  Zr  Zr31  1  0.49441425  0.89374136  0.09188595  1
  Zr  Zr32  1  0.09663029  0.50157210  0.09729971  1
  Zr  Zr33  1  0.90074681  0.10407083  0.29570843  1
  Zr  Zr34  1  0.29801321  0.69179662  0.50327985  1
  Zr  Zr35  1  0.29599797  0.10852071  0.71005616  1
  Zr  Zr36  1  0.50429686  0.69468505  0.29930095  1
  Zr  Zr37  1  0.90005758  0.69090967  0.30188779  1
  Zr  Zr38  1  0.29472853  0.69784062  0.89426912  1
  Zr  Zr39  1  0.10124736  0.31075966  0.70416214  1
  Zr  Zr40  1  0.30913552  0.09376716  0.08951798  1
  Zr  Zr41  1  0.89956607  0.29529568  0.90278790  1
  Zr  Zr42  1  0.69745410  0.89115139  0.90188404  1
  Zr  Zr43  1  0.29960177  0.30718540  0.29903509  1
  Zr  Zr44  1  0.90143599  0.09782637  0.69824934  1
  Zr  Zr45  1  0.50375811  0.09604128  0.49621189  1
  Zr  Zr46  1  0.89874403  0.71148200  0.90118939  1
  Zr  Zr47  1  0.70018062  0.90103587  0.49458248  1
  Zr  Zr48  1  0.90777271  0.70417567  0.10043808  1
  Zr  Zr49  1  0.69246883  0.90697703  0.08737709  1
  Sc  Sc50  1  0.90338157  0.89579906  0.29166005  1
  Sc  Sc51  1  0.89123986  0.50465215  0.50082766  1
  Sc  Sc52  1  0.70425470  0.10973841  0.29469603  1
  Sc  Sc53  1  0.30746037  0.29908359  0.11322342  1
  Sc  Sc54  1  0.90482797  0.10467189  0.49575095  1
  Sc  Sc55  1  0.49779873  0.70181148  0.90173907  1
  Sc  Sc56  1  0.69374136  0.09705958  0.91436994  1
  Sc  Sc57  1  0.30069042  0.30313985  0.49933380  1
  Sc  Sc58  1  0.30605143  0.50137241  0.11032137  1
  Sc  Sc59  1  0.29414017  0.89430300  0.10363346  1
  Sc  Sc60  1  0.89412631  0.29676263  0.50265750  1
  Sc  Sc61  1  0.50145841  0.50027913  0.49699082  1
  Sc  Sc62  1  0.89763057  0.30534918  0.70033343  1
  Sc  Sc63  1  0.49908681  0.69036685  0.09923114  1
  Sc  Sc64  1  0.70372759  0.89767715  0.30797488  1
  Sc  Sc65  1  0.50635148  0.11129538  0.09265052  1
  Sc  Sc66  1  0.49744838  0.69755498  0.70327478  1
  Sc  Sc67  1  0.30024038  0.89056807  0.70770873  1
  Sc  Sc68  1  0.29437469  0.70044822  0.29165125  1
  Sc  Sc69  1  0.50590904  0.90242364  0.49258622  1
  Sc  Sc70  1  0.50297029  0.29114073  0.89573805  1
  Sc  Sc71  1  0.70187846  0.68823848  0.70517869  1
  Sc  Sc72  1  0.09738579  0.09277248  0.69954877  1
  Sc  Sc73  1  0.50714235  0.50143299  0.69270580  1
  Sc  Sc74  1  0.50671733  0.29890611  0.70231134  1
  Sc  Sc75  1  0.90034491  0.49538420  0.10622417  1
  Sc  Sc76  1  0.49867053  0.31810145  0.49812104  1
  Sc  Sc77  1  0.89697604  0.48493768  0.90369978  1
  Sc  Sc78  1  0.50170698  0.51290431  0.89761097  1
  Sc  Sc79  1  0.09653250  0.70351694  0.70214073  1
  Sc  Sc80  1  0.70587478  0.30280553  0.29819978  1
  Sc  Sc81  1  0.70104797  0.69356256  0.10294256  1
  Sc  Sc82  1  0.90996737  0.90390421  0.50065955  1
  Sc  Sc83  1  0.09505108  0.09955911  0.29831080  1
  Sc  Sc84  1  0.09735392  0.50497984  0.28895132  1
  Sc  Sc85  1  0.49431094  0.30459609  0.29869944  1
  Sc  Sc86  1  0.89941648  0.30043445  0.09857433  1
  Sc  Sc87  1  0.89318555  0.50517899  0.69666270  1
  Sc  Sc88  1  0.69623606  0.49807073  0.50559547  1
  Sc  Sc89  1  0.09714032  0.29639634  0.29378286  1
  Sc  Sc90  1  0.49964065  0.49965950  0.30181446  1
  Sc  Sc91  1  0.10299235  0.49643989  0.89879544  1
  Sc  Sc92  1  0.70256410  0.30936745  0.50150477  1
  Sc  Sc93  1  0.30164196  0.70287964  0.09667133  1
  Sc  Sc94  1  0.09940854  0.28856110  0.49903811  1
  Sc  Sc95  1  0.50875927  0.89495481  0.90464351  1
  Sc  Sc96  1  0.30110722  0.50489765  0.29900791  1
  Sc  Sc97  1  0.09854819  0.89912901  0.89383821  1
  Sc  Sc98  1  0.89645131  0.30341528  0.29765837  1
  Sc  Sc99  1  0.10477443  0.52007980  0.49944113  1
  Nb  Nb100  1  0.50081317  0.10111309  0.70184853  1
  Nb  Nb101  1  0.10519206  0.49499993  0.70264455  1
  Nb  Nb102  1  0.08469534  0.89713973  0.69506983  1
  Nb  Nb103  1  0.90508658  0.89561754  0.70916235  1
  Nb  Nb104  1  0.70104238  0.70442748  0.49989059  1
  Nb  Nb105  1  0.29937791  0.69918868  0.69740014  1
  Nb  Nb106  1  0.89456154  0.90025454  0.89881031  1
  Nb  Nb107  1  0.30295890  0.10060082  0.90139530  1
  Nb  Nb108  1  0.70328782  0.30471931  0.89533385  1
  Nb  Nb109  1  0.50380963  0.49719978  0.10307617  1
  Nb  Nb110  1  0.30427237  0.89541813  0.29685027  1
  Nb  Nb111  1  0.70679599  0.49314306  0.29770032  1
  Nb  Nb112  1  0.89476694  0.49337601  0.30105518  1
  Nb  Nb113  1  0.30017178  0.49845518  0.89461661  1
  Nb  Nb114  1  0.70050123  0.10388555  0.10398131  1
  Nb  Nb115  1  0.70154388  0.49304104  0.89838300  1
  Nb  Nb116  1  0.50433440  0.30786125  0.09930131  1
  Nb  Nb117  1  0.28532259  0.50099419  0.70055044  1
  Nb  Nb118  1  0.50564545  0.90284589  0.30282412  1
  Nb  Nb119  1  0.69462681  0.28647133  0.10265918  1
  Nb  Nb120  1  0.50533909  0.09801571  0.30354609  1
  Nb  Nb121  1  0.90000230  0.90562092  0.09041906  1
  Nb  Nb122  1  0.09664228  0.69257635  0.90919503  1
  Nb  Nb123  1  0.09485834  0.69411884  0.09404358  1
  Nb  Nb124  1  0.48289818  0.10590778  0.90013086  1
  Nb  Nb125  1  0.19331686  0.40388478  0.39936283  1
  Nb  Nb126  1  0.21240600  0.39731766  -0.00204586  1
  Nb  Nb127  1  0.60390546  0.39989035  0.19333207  1
  Nb  Nb128  1  0.40814961  -0.00291063  0.20714676  1
  Nb  Nb129  1  0.40444733  0.40190695  -0.00273164  1
  Nb  Nb130  1  0.40303404  0.19473062  0.60111670  1
  Nb  Nb131  1  0.00136352  0.40484326  0.40293880  1
  Nb  Nb132  1  0.60618614  0.79590910  0.59656219  1
  Nb  Nb133  1  0.40069474  0.00480605  0.60690931  1
  Nb  Nb134  1  0.79883857  0.80325566  0.60073988  1
  Nb  Nb135  1  0.20180059  0.20181112  -0.00061754  1
  Nb  Nb136  1  0.79767169  0.00008882  0.18867047  1
  Nb  Nb137  1  0.79497642  0.19631444  0.80414355  1
  Nb  Nb138  1  0.19931873  0.79808998  0.60202672  1
  Nb  Nb139  1  0.40075334  0.00642934  0.80231199  1
  Nb  Nb140  1  0.59799635  0.80558638  0.20245078  1
  Nb  Nb141  1  0.59724046  0.20157908  0.39806314  1
  Nb  Nb142  1  0.00250206  0.60119696  0.80572383  1
  Nb  Nb143  1  0.39439317  0.40700264  0.80000777  1
  Nb  Nb144  1  0.00506183  0.40638575  0.59508107  1
  Nb  Nb145  1  0.59917725  0.00116336  0.19982833  1
  Nb  Nb146  1  0.80113591  -0.00011128  0.80271253  1
  Nb  Nb147  1  0.80062167  -0.00567627  0.60848211  1
  Nb  Nb148  1  0.40052587  0.80181747  0.39388837  1
  Nb  Nb149  1  0.60225419  0.39895253  0.00010073  1
  Pd  Pd150  1  0.60006849  -0.00726243  0.59765864  1
  Pd  Pd151  1  0.40878203  0.21031671  0.40917650  1
  Pd  Pd152  1  0.20157718  0.60378569  0.19131398  1
  Pd  Pd153  1  0.39928794  0.59485159  0.79034285  1
  Pd  Pd154  1  0.79612612  0.20669511  0.39978207  1
  Pd  Pd155  1  0.80342375  0.00183069  0.39487873  1
  Pd  Pd156  1  0.40745551  0.79956412  0.20370618  1
  Pd  Pd157  1  0.00004354  0.20743811  0.60448028  1
  Pd  Pd158  1  0.79158864  0.59290892  0.40413257  1
  Pd  Pd159  1  0.19540649  0.20497047  0.39478678  1
  Pd  Pd160  1  0.39430816  0.59611277  0.00195787  1
  Pd  Pd161  1  0.80445224  0.59910255  0.19870142  1
  Pd  Pd162  1  -0.00584566  0.20519151  0.19647238  1
  Pd  Pd163  1  0.79102637  0.80854900  0.19132989  1
  Pd  Pd164  1  0.19044973  0.20478948  0.80174805  1
  Pd  Pd165  1  0.40224432  0.80303101  0.80749754  1
  Pd  Pd166  1  0.60836426  0.59020843  0.39903589  1
  Pd  Pd167  1  0.58904485  0.40496245  0.80633481  1
  Pd  Pd168  1  0.19210941  0.79823961  0.00384181  1
  Pd  Pd169  1  -0.00469999  0.80341220  0.39673016  1
  Pd  Pd170  1  0.40099537  0.59247301  0.60841600  1
  Pd  Pd171  1  0.39397782  0.60245234  0.39658123  1
  Pd  Pd172  1  0.00541279  0.59540909  0.61052832  1
  Pd  Pd173  1  0.60147686  0.59706415  -0.00184809  1
  Pd  Pd174  1  -0.00061660  -0.00363829  0.39038435  1
  Pd  Pd175  1  -0.01104580  0.58939450  -0.00770800  1
  Pd  Pd176  1  0.39690103  -0.00538263  0.40069760  1
  Pd  Pd177  1  0.21173369  0.00722357  0.20465286  1
  Pd  Pd178  1  0.20912216  0.59171415  0.00487992  1
  Pd  Pd179  1  0.80819444  0.59796319  -0.00265118  1
  Pd  Pd180  1  0.19189803  0.79874938  0.79783154  1
  Pd  Pd181  1  0.19125122  0.60430937  0.79764998  1
  Pd  Pd182  1  0.59202831  0.21262936  0.58722595  1
  Pd  Pd183  1  0.20295964  0.19082912  0.19441651  1
  Pd  Pd184  1  0.79542273  0.79568450  0.00826090  1
  Pd  Pd185  1  0.20197319  0.00837478  0.38872310  1
  Pd  Pd186  1  0.59552258  0.00875016  0.81551963  1
  Pd  Pd187  1  0.81360240  0.80195462  0.40667602  1
  Pd  Pd188  1  0.81037241  0.59405012  0.81033164  1
  Pd  Pd189  1  0.20530777  -0.01032873  0.61413702  1
  Pd  Pd190  1  0.41034225  0.19445836  0.19570062  1
  Pd  Pd191  1  0.00311280  0.79832598  0.20183730  1
  Pd  Pd192  1  0.40278228  0.80719497  0.59263926  1
  Pd  Pd193  1  0.00649282  0.80866547  -0.00319920  1
  Pd  Pd194  1  -0.00307697  0.20021534  0.79327601  1
  Pd  Pd195  1  0.19918390  0.20212499  0.60245527  1
  Pd  Pd196  1  0.20305724  -0.00784453  0.79523511  1
  Pd  Pd197  1  0.19308078  0.00162924  0.00122464  1
  Pd  Pd198  1  0.60053309  0.20351925  -0.00647033  1
  Pd  Pd199  1  0.79387674  0.39135925  0.00865814  1
  Rh  Rh200  1  -0.00565574  -0.00033873  0.60034311  1
  Rh  Rh201  1  0.59155568  0.79382847  0.40013172  1
  Rh  Rh202  1  0.40294122  0.60043378  0.19948011  1
  Rh  Rh203  1  -0.00698869  0.59817265  0.19915213  1
  Rh  Rh204  1  0.19148864  0.79085522  0.19159351  1
  Rh  Rh205  1  -0.00961824  -0.00224739  0.20083824  1
  Rh  Rh206  1  -0.00420351  0.58924254  0.39160191  1
  Rh  Rh207  1  0.60115017  0.78458233  0.00776712  1
  Rh  Rh208  1  0.20368772  0.59688483  0.39383826  1
  Rh  Rh209  1  0.80526044  0.40176297  0.40320724  1
  Rh  Rh210  1  0.39392655  0.21167665  0.00859831  1
  Rh  Rh211  1  -0.00437075  0.40165834  0.20713984  1
  Rh  Rh212  1  0.20617574  0.39691136  0.81011080  1
  Rh  Rh213  1  0.40758923  0.40596129  0.20030360  1
  Rh  Rh214  1  0.39575241  0.79284689  -0.00529033  1
  Rh  Rh215  1  0.40663599  -0.00421179  -0.00132314  1
  Rh  Rh216  1  0.80526692  0.40282760  0.60128345  1
  Rh  Rh217  1  0.79312970  0.20559567  -0.00471868  1
  Rh  Rh218  1  -0.00410791  -0.00386258  0.80458723  1
  Rh  Rh219  1  0.40461081  0.40192153  0.60857118  1
  Rh  Rh220  1  0.60114098  0.40062402  0.60208474  1
  Rh  Rh221  1  0.80266815  0.39469169  0.79721491  1
  Rh  Rh222  1  0.60403430  0.59630341  0.20688197  1
  Rh  Rh223  1  0.59942953  0.78583072  0.79469542  1
  Rh  Rh224  1  0.00758456  0.79421111  0.81054175  1
  Rh  Rh225  1  0.79951925  0.19395668  0.60797699  1
  Rh  Rh226  1  0.00370485  0.40080426  0.00622264  1
  Rh  Rh227  1  0.59443901  0.20382472  0.20944992  1
  Rh  Rh228  1  0.38850247  0.40667406  0.39901492  1
  Rh  Rh229  1  0.18533160  0.40358909  0.58447539  1
  Rh  Rh230  1  0.80018670  -0.00002468  -0.00267589  1
  Rh  Rh231  1  -0.00371288  0.20649859  0.39708103  1
  Rh  Rh232  1  -0.00076235  0.80096594  0.59417366  1
  Rh  Rh233  1  0.60036786  0.59784183  0.80167698  1
  Rh  Rh234  1  0.20026318  0.40568680  0.20210467  1
  Rh  Rh235  1  0.21036715  0.79083932  0.40244899  1
  Rh  Rh236  1  0.19500711  0.60986530  0.61038662  1
  Rh  Rh237  1  0.00489863  -0.00848228  -0.00424246  1
  Rh  Rh238  1  0.58819133  0.00946004  0.00158261  1
  Rh  Rh239  1  0.79565465  0.80166963  0.79734919  1
  Rh  Rh240  1  0.60381184  0.60466513  0.59998526  1
  Rh  Rh241  1  0.40495457  0.20313716  0.78727649  1
  Rh  Rh242  1  0.80546660  0.19874170  0.19540679  1
  Rh  Rh243  1  0.60428468  0.19466202  0.80991116  1
  Rh  Rh244  1  0.79231369  0.60722467  0.59682389  1
  Rh  Rh245  1  0.01150834  0.20661163  0.00668657  1
  Rh  Rh246  1  0.60592476  0.39738991  0.38743853  1
  Rh  Rh247  1  0.79474769  0.39508990  0.19456857  1
  Rh  Rh248  1  0.61608965  0.01267342  0.38988458  1
  Rh  Rh249  1  -0.00883455  0.41362927  0.78784982  1
