# generated using pymatgen
data_ZrScNbPdRh
_symmetry_space_group_name_H-M   'P 1'
_cell_length_a   16.55978073
_cell_length_b   16.55837620
_cell_length_c   16.55908641
_cell_angle_alpha   90.00810612
_cell_angle_beta   89.99439981
_cell_angle_gamma   90.00630841
_symmetry_Int_Tables_number   1
_chemical_formula_structural   ZrScNbPdRh
_chemical_formula_sum   'Zr50 Sc50 Nb50 Pd50 Rh50'
_cell_volume   4540.55238846
_cell_formula_units_Z   50
loop_
 _symmetry_equiv_pos_site_id
 _symmetry_equiv_pos_as_xyz
  1  'x, y, z'
loop_
 _atom_site_type_symbol
 _atom_site_label
 _atom_site_symmetry_multiplicity
 _atom_site_fract_x
 _atom_site_fract_y
 _atom_site_fract_z
 _atom_site_occupancy
  Zr  Zr0  1  0.50466411  0.89149023  0.90505014  1
  Zr  Zr1  1  0.89766354  0.29918713  0.29786732  1
  Zr  Zr2  1  0.29237200  0.09815291  0.30197568  1
  Zr  Zr3  1  0.71268959  0.09889812  0.50133961  1
  Zr  Zr4  1  0.89914532  0.30085797  0.10282364  1
  Zr  Zr5  1  0.49603067  0.09714230  0.09922140  1
  Zr  Zr6  1  0.90269585  0.10765653  0.30018793  1
  Zr  Zr7  1  0.30373197  0.10411613  0.89625018  1
  Zr  Zr8  1  0.69563204  0.09495024  0.70170410  1
  Zr  Zr9  1  0.89057075  0.69990784  0.10159458  1
  Zr  Zr10  1  0.89116765  0.49685368  0.30293460  1
  Zr  Zr11  1  0.09769740  0.30029080  0.69273522  1
  Zr  Zr12  1  0.11143564  0.10624144  0.89574397  1
  Zr  Zr13  1  0.09414063  0.10020294  0.30664037  1
  Zr  Zr14  1  0.09470756  0.90076891  0.89778192  1
  Zr  Zr15  1  0.69651200  0.70109811  0.49437516  1
  Zr  Zr16  1  0.29700275  0.10092626  0.50575309  1
  Zr  Zr17  1  0.09794037  0.48865459  0.50238038  1
  Zr  Zr18  1  0.29223481  0.30113946  0.49976533  1
  Zr  Zr19  1  0.29477779  0.49680648  0.88997303  1
  Zr  Zr20  1  0.09587768  0.29476195  0.49872462  1
  Zr  Zr21  1  0.28543532  0.29395490  0.89934358  1
  Zr  Zr22  1  0.70414920  0.90182378  0.51128789  1
  Zr  Zr23  1  0.90768582  0.50685951  0.90353635  1
  Zr  Zr24  1  0.50029451  0.88702843  0.49678577  1
  Zr  Zr25  1  0.51089590  0.70941383  0.31238703  1
  Zr  Zr26  1  0.09997138  0.70399222  0.70481085  1
  Zr  Zr27  1  0.70908288  0.29152717  0.69860215  1
  Zr  Zr28  1  0.51472196  0.30305789  0.69648701  1
  Zr  Zr29  1  0.90621054  0.69506329  0.29786027  1
  Zr  Zr30  1  0.90243294  0.89305173  0.70333630  1
  Zr  Zr31  1  0.49173669  0.50408875  0.29346348  1
  Zr  Zr32  1  0.09118289  0.49569139  0.30862137  1
  Zr  Zr33  1  0.30587226  0.70173724  0.51304677  1
  Zr  Zr34  1  0.29158920  0.89142611  0.69437485  1
  Zr  Zr35  1  0.29743428  0.09630177  0.70286577  1
  Zr  Zr36  1  0.29742842  0.70074395  0.29798799  1
  Zr  Zr37  1  0.50180457  0.70012294  0.50286722  1
  Zr  Zr38  1  0.29676543  0.89868741  0.10042402  1
  Zr  Zr39  1  0.50728027  0.70000451  0.89882216  1
  Zr  Zr40  1  0.90698598  0.69609665  0.70426193  1
  Zr  Zr41  1  0.29869371  0.30552555  0.09982062  1
  Zr  Zr42  1  0.10352660  0.70495207  0.10298268  1
  Zr  Zr43  1  0.09383683  0.49759020  0.89965563  1
  Zr  Zr44  1  0.89644981  0.89523754  0.90141914  1
  Zr  Zr45  1  0.29852734  0.50392726  0.68766822  1
  Zr  Zr46  1  0.49664131  0.29334080  0.50138284  1
  Zr  Zr47  1  0.30073790  0.10754474  0.09573157  1
  Zr  Zr48  1  0.29574364  0.89803974  0.30589703  1
  Zr  Zr49  1  0.50119870  0.09609310  0.89302603  1
  Sc  Sc50  1  0.70389629  0.70889398  0.69604482  1
  Sc  Sc51  1  0.71393871  0.10294183  0.29959773  1
  Sc  Sc52  1  0.90356603  0.49805869  0.50373619  1
  Sc  Sc53  1  0.70699308  0.29640152  0.50756526  1
  Sc  Sc54  1  0.70031223  0.09986027  0.89749935  1
  Sc  Sc55  1  0.09980675  0.30836988  0.09685611  1
  Sc  Sc56  1  0.89979491  0.29347882  0.50570074  1
  Sc  Sc57  1  0.70499008  0.50826035  0.09534207  1
  Sc  Sc58  1  0.49656352  0.30176937  0.09757074  1
  Sc  Sc59  1  0.69982739  0.48815892  0.70075678  1
  Sc  Sc60  1  0.49802629  0.09783485  0.69913352  1
  Sc  Sc61  1  0.49793343  0.50008924  0.50448125  1
  Sc  Sc62  1  0.89669259  0.08623748  0.90676162  1
  Sc  Sc63  1  0.69535217  0.29804804  0.89358807  1
  Sc  Sc64  1  0.11064097  0.90381749  0.30041232  1
  Sc  Sc65  1  0.50155040  0.49715574  0.70051905  1
  Sc  Sc66  1  0.69705327  0.89549144  0.28900792  1
  Sc  Sc67  1  0.30330338  0.89613614  0.89970434  1
  Sc  Sc68  1  0.29450068  0.89529889  0.50184541  1
  Sc  Sc69  1  0.89723572  0.68709759  0.50571494  1
  Sc  Sc70  1  0.51562448  0.49964759  0.89297141  1
  Sc  Sc71  1  0.50034318  0.70655144  0.69827411  1
  Sc  Sc72  1  0.70710739  0.10531825  0.09146074  1
  Sc  Sc73  1  0.50516637  0.30052219  0.89327506  1
  Sc  Sc74  1  0.90226553  0.31531388  0.88814196  1
  Sc  Sc75  1  0.09006777  0.69227166  0.50452260  1
  Sc  Sc76  1  0.10522223  0.09248678  0.69126315  1
  Sc  Sc77  1  0.70548635  0.88893412  0.10039997  1
  Sc  Sc78  1  0.50537498  0.70124602  0.09561885  1
  Sc  Sc79  1  0.49846997  0.50266338  0.09851578  1
  Sc  Sc80  1  0.89838606  0.09878678  0.10243846  1
  Sc  Sc81  1  0.29511433  0.69905918  0.10194137  1
  Sc  Sc82  1  0.71083037  0.50664226  0.49177233  1
  Sc  Sc83  1  0.30069586  0.29959949  0.69837049  1
  Sc  Sc84  1  0.09563607  0.10220203  0.10794192  1
  Sc  Sc85  1  0.69547621  0.70006229  0.91297628  1
  Sc  Sc86  1  0.70553648  0.29919058  0.09405166  1
  Sc  Sc87  1  0.09656828  0.50166893  0.69853209  1
  Sc  Sc88  1  0.30516740  0.50585281  0.11767563  1
  Sc  Sc89  1  0.89520440  0.10260472  0.70069570  1
  Sc  Sc90  1  0.89863233  0.50530804  0.10477516  1
  Sc  Sc91  1  0.70192320  0.89728624  0.89873281  1
  Sc  Sc92  1  0.49328452  0.09881280  0.29088716  1
  Sc  Sc93  1  0.09615257  0.50229942  0.09460554  1
  Sc  Sc94  1  0.50803606  0.89912509  0.70431280  1
  Sc  Sc95  1  0.89703387  0.90663245  0.28729332  1
  Sc  Sc96  1  0.28477203  0.70853989  0.90266465  1
  Sc  Sc97  1  0.10058105  0.90233009  0.10625092  1
  Sc  Sc98  1  0.70713275  0.69998472  0.30293772  1
  Sc  Sc99  1  0.89550523  0.30536006  0.69648626  1
  Nb  Nb100  1  0.69930098  0.89982048  0.70186213  1
  Nb  Nb101  1  0.50405316  0.90185685  0.29795250  1
  Nb  Nb102  1  0.09358243  0.89967461  0.69249717  1
  Nb  Nb103  1  0.49909284  0.30262757  0.30005800  1
  Nb  Nb104  1  0.69996716  0.49838313  0.30166969  1
  Nb  Nb105  1  0.29973656  0.69783504  0.69858536  1
  Nb  Nb106  1  0.09172383  0.09220880  0.49751500  1
  Nb  Nb107  1  0.70281943  0.50288088  0.90035170  1
  Nb  Nb108  1  0.49752293  0.09749168  0.49407591  1
  Nb  Nb109  1  0.89918288  0.49423609  0.70718441  1
  Nb  Nb110  1  0.08998866  0.69563549  0.90573634  1
  Nb  Nb111  1  0.09991107  0.30258757  0.90154179  1
  Nb  Nb112  1  0.29655647  0.30825494  0.29950154  1
  Nb  Nb113  1  0.90638379  0.69799766  0.90020384  1
  Nb  Nb114  1  0.08854302  0.91737697  0.50408498  1
  Nb  Nb115  1  0.90573297  0.90928363  0.49738497  1
  Nb  Nb116  1  0.29929292  0.49917089  0.30211802  1
  Nb  Nb117  1  0.70549570  0.30213188  0.29929365  1
  Nb  Nb118  1  0.89613139  0.89879499  0.09119660  1
  Nb  Nb119  1  0.29816803  0.50135591  0.49709593  1
  Nb  Nb120  1  0.70075044  0.69812571  0.10464932  1
  Nb  Nb121  1  0.50466574  0.90144026  0.10878821  1
  Nb  Nb122  1  0.09931121  0.70299161  0.30499464  1
  Nb  Nb123  1  0.91080050  0.08996459  0.49137360  1
  Nb  Nb124  1  0.09633773  0.29935762  0.30410603  1
  Nb  Nb125  1  -0.00250592  0.80575635  0.40234236  1
  Nb  Nb126  1  0.80013895  0.40765413  -0.00728117  1
  Nb  Nb127  1  0.40767332  0.80643369  0.20293860  1
  Nb  Nb128  1  0.59838637  0.39430283  0.39387492  1
  Nb  Nb129  1  0.59936028  0.19981659  0.39549650  1
  Nb  Nb130  1  0.20219677  0.00460333  -0.00255344  1
  Nb  Nb131  1  -0.00508573  0.79888721  0.00082721  1
  Nb  Nb132  1  0.19745246  0.20976582  0.20851396  1
  Nb  Nb133  1  0.39358493  0.60534269  0.79900255  1
  Nb  Nb134  1  0.59626655  0.00393940  0.39936336  1
  Nb  Nb135  1  0.39295694  0.59807854  0.40061897  1
  Nb  Nb136  1  0.39608904  0.40076412  0.39652387  1
  Nb  Nb137  1  0.39825042  0.59711643  -0.01206483  1
  Nb  Nb138  1  0.00230094  0.20528320  -0.00880808  1
  Nb  Nb139  1  0.60451794  0.59920107  0.20468273  1
  Nb  Nb140  1  0.40474855  -0.00224548  0.40078630  1
  Nb  Nb141  1  0.00575077  0.20145454  0.80499171  1
  Nb  Nb142  1  0.81076839  0.80557226  0.40477973  1
  Nb  Nb143  1  0.20217682  0.59722542  0.40094560  1
  Nb  Nb144  1  0.59502453  -0.00443448  0.00568175  1
  Nb  Nb145  1  0.80217736  0.59809212  0.80550044  1
  Nb  Nb146  1  0.39532992  0.40587879  -0.00690576  1
  Nb  Nb147  1  0.60302208  0.60250642  0.59720116  1
  Nb  Nb148  1  0.60533364  0.40002761  0.20560413  1
  Nb  Nb149  1  0.60183641  0.20767869  0.20669676  1
  Pd  Pd150  1  0.61156010  0.01302998  0.19846303  1
  Pd  Pd151  1  0.40429162  0.40210475  0.80132761  1
  Pd  Pd152  1  -0.00012047  -0.00338992  0.20003565  1
  Pd  Pd153  1  0.81050946  0.19812635  0.80920970  1
  Pd  Pd154  1  0.39995620  0.20054198  0.60795309  1
  Pd  Pd155  1  0.40023814  -0.01167536  0.79652387  1
  Pd  Pd156  1  0.81051620  0.79904539  0.59545240  1
  Pd  Pd157  1  0.79355458  0.78920156  0.80663185  1
  Pd  Pd158  1  0.19113550  0.40211430  0.20188012  1
  Pd  Pd159  1  -0.00343961  0.79875512  0.59095218  1
  Pd  Pd160  1  0.59584276  0.19546318  0.00414360  1
  Pd  Pd161  1  0.39985614  0.79186741  0.00837255  1
  Pd  Pd162  1  0.79981806  0.39368394  0.40945394  1
  Pd  Pd163  1  0.79442089  -0.00899220  0.39231122  1
  Pd  Pd164  1  0.61082496  0.40813791  0.58582712  1
  Pd  Pd165  1  0.18890585  0.59547999  0.20793545  1
  Pd  Pd166  1  0.81024103  0.00005382  0.60774808  1
  Pd  Pd167  1  0.60248659  0.40310837  0.00600172  1
  Pd  Pd168  1  0.19873732  0.60433147  0.80003203  1
  Pd  Pd169  1  0.19435900  0.39949889  0.78913775  1
  Pd  Pd170  1  0.00036750  0.80754806  0.20161004  1
  Pd  Pd171  1  0.79533510  0.00274598  0.19148516  1
  Pd  Pd172  1  0.00702362  0.00266781  0.00443426  1
  Pd  Pd173  1  0.40052856  0.19949280  0.39359615  1
  Pd  Pd174  1  0.60149352  0.18993117  0.59393486  1
  Pd  Pd175  1  0.00086152  0.40195730  0.19869273  1
  Pd  Pd176  1  0.40060135  -0.00497839  -0.00353653  1
  Pd  Pd177  1  0.19272525  0.80154457  0.80175606  1
  Pd  Pd178  1  0.20587531  0.59358279  0.00180722  1
  Pd  Pd179  1  0.18514606  0.80092417  0.59117461  1
  Pd  Pd180  1  0.59338764  0.00097029  0.59601149  1
  Pd  Pd181  1  0.20650136  0.41218276  0.00586381  1
  Pd  Pd182  1  0.39893396  0.39828425  0.59545797  1
  Pd  Pd183  1  0.19540555  0.19894325  0.39982884  1
  Pd  Pd184  1  -0.00027951  0.00877085  0.79377664  1
  Pd  Pd185  1  0.60715591  0.60475144  0.78696052  1
  Pd  Pd186  1  0.40297799  -0.00918344  0.59686095  1
  Pd  Pd187  1  0.79802368  -0.00245668  0.79899656  1
  Pd  Pd188  1  0.00506050  0.59788219  0.19767766  1
  Pd  Pd189  1  0.18718908  0.79466976  0.41356157  1
  Pd  Pd190  1  0.40432043  0.20856416  0.79341963  1
  Pd  Pd191  1  0.39820008  0.79532391  0.79676302  1
  Pd  Pd192  1  0.39222232  -0.00548492  0.20477262  1
  Pd  Pd193  1  0.79444340  0.59263599  0.61220655  1
  Pd  Pd194  1  0.39665926  0.20695744  0.20413164  1
  Pd  Pd195  1  0.81267868  0.21061597  -0.01273578  1
  Pd  Pd196  1  -0.00415371  0.19174506  0.60580248  1
  Pd  Pd197  1  0.19149945  0.60078765  0.59467611  1
  Pd  Pd198  1  0.20117917  -0.00939804  0.80169483  1
  Pd  Pd199  1  0.40767481  0.21150331  -0.00846128  1
  Rh  Rh200  1  0.20304270  0.00098120  0.41209557  1
  Rh  Rh201  1  -0.00771287  0.40209409  0.60221755  1
  Rh  Rh202  1  0.79998809  0.60033572  -0.00638634  1
  Rh  Rh203  1  -0.00705164  0.00448818  0.61101374  1
  Rh  Rh204  1  0.19752566  0.19535354  0.59877787  1
  Rh  Rh205  1  0.00301431  0.60210182  0.40033288  1
  Rh  Rh206  1  0.20353048  0.01114173  0.19065493  1
  Rh  Rh207  1  0.80813342  0.19037389  0.59724357  1
  Rh  Rh208  1  -0.00130833  -0.00896113  0.38571196  1
  Rh  Rh209  1  0.60829605  0.79949048  0.79836904  1
  Rh  Rh210  1  0.40316852  0.39415086  0.19640437  1
  Rh  Rh211  1  0.80146039  0.40325083  0.59841729  1
  Rh  Rh212  1  0.19984990  -0.00277727  0.59673334  1
  Rh  Rh213  1  0.59111014  0.58634440  0.40161097  1
  Rh  Rh214  1  -0.00029288  0.59260136  0.60745851  1
  Rh  Rh215  1  0.00730919  0.39623997  0.79354721  1
  Rh  Rh216  1  0.40191120  0.80538559  0.60958388  1
  Rh  Rh217  1  0.41118432  0.62006496  0.20350109  1
  Rh  Rh218  1  0.18632252  0.80993522  -0.00034211  1
  Rh  Rh219  1  0.20359678  0.79962989  0.20035650  1
  Rh  Rh220  1  0.00564731  0.20749215  0.19393568  1
  Rh  Rh221  1  0.19489686  0.20506527  0.78643719  1
  Rh  Rh222  1  0.60442622  0.80635107  0.00787687  1
  Rh  Rh223  1  0.59742159  0.59760147  0.00857182  1
  Rh  Rh224  1  -0.00534980  0.20362617  0.40380019  1
  Rh  Rh225  1  0.61903496  0.81599454  0.40097152  1
  Rh  Rh226  1  0.80747383  0.60516401  0.39598522  1
  Rh  Rh227  1  0.79253395  0.59857513  0.20547961  1
  Rh  Rh228  1  0.20076362  0.40298782  0.39840894  1
  Rh  Rh229  1  0.39608556  0.80034407  0.39363751  1
  Rh  Rh230  1  -0.00031374  0.59649683  0.79515906  1
  Rh  Rh231  1  -0.00922777  0.39594806  0.00283710  1
  Rh  Rh232  1  0.18793813  0.19585695  0.01405637  1
  Rh  Rh233  1  0.79487733  0.40717499  0.80452857  1
  Rh  Rh234  1  0.20032233  0.39830876  0.60092698  1
  Rh  Rh235  1  0.78837145  -0.00673170  0.00303961  1
  Rh  Rh236  1  0.00006124  0.60905928  0.01152263  1
  Rh  Rh237  1  0.80251270  0.79469042  -0.00210121  1
  Rh  Rh238  1  0.60171012  0.79753594  0.60505479  1
  Rh  Rh239  1  0.00514561  0.80005493  0.80540881  1
  Rh  Rh240  1  0.59788534  0.78952372  0.19622071  1
  Rh  Rh241  1  0.40894704  0.59825312  0.60447960  1
  Rh  Rh242  1  0.79368134  0.40433515  0.18761294  1
  Rh  Rh243  1  0.80442739  0.79792546  0.20474227  1
  Rh  Rh244  1  0.80399575  0.20171182  0.40450873  1
  Rh  Rh245  1  0.60257134  -0.00394844  0.80696196  1
  Rh  Rh246  1  0.59942060  0.19627388  0.79452041  1
  Rh  Rh247  1  0.60759295  0.39582488  0.79819036  1
  Rh  Rh248  1  0.79668138  0.19824399  0.19710342  1
  Rh  Rh249  1  -0.00992987  0.39114822  0.40342367  1
