# generated using pymatgen
data_ZrScNbPdRh
_symmetry_space_group_name_H-M   'P 1'
_cell_length_a   16.56072788
_cell_length_b   16.55799762
_cell_length_c   16.56429309
_cell_angle_alpha   89.96414347
_cell_angle_beta   89.97594756
_cell_angle_gamma   90.00340766
_symmetry_Int_Tables_number   1
_chemical_formula_structural   ZrScNbPdRh
_chemical_formula_sum   'Zr50 Sc50 Nb50 Pd50 Rh50'
_cell_volume   4542.13480096
_cell_formula_units_Z   50
loop_
 _symmetry_equiv_pos_site_id
 _symmetry_equiv_pos_as_xyz
  1  'x, y, z'
loop_
 _atom_site_type_symbol
 _atom_site_label
 _atom_site_symmetry_multiplicity
 _atom_site_fract_x
 _atom_site_fract_y
 _atom_site_fract_z
 _atom_site_occupancy
  Zr  Zr0  1  0.09584414  0.10439923  0.69195797  1
  Zr  Zr1  1  0.50455064  0.89552985  0.90017692  1
  Zr  Zr2  1  0.28883558  0.89727800  0.49994260  1
  Zr  Zr3  1  0.29650033  0.50465978  0.70053439  1
  Zr  Zr4  1  0.69990013  0.50661197  0.50703729  1
  Zr  Zr5  1  0.30584432  0.49895678  0.09757903  1
  Zr  Zr6  1  0.49050205  0.70161541  0.49967415  1
  Zr  Zr7  1  0.30857309  0.89869688  0.28728671  1
  Zr  Zr8  1  0.69304962  0.29830161  0.49450257  1
  Zr  Zr9  1  0.90249487  0.09258849  0.70216397  1
  Zr  Zr10  1  0.50412511  0.49955316  0.10179454  1
  Zr  Zr11  1  0.49810052  0.10250733  0.90229740  1
  Zr  Zr12  1  0.50228099  0.10612617  0.50014016  1
  Zr  Zr13  1  0.49825803  0.29809604  0.29995523  1
  Zr  Zr14  1  0.49868229  0.09972739  0.29521594  1
  Zr  Zr15  1  0.09329475  0.70551459  0.30687184  1
  Zr  Zr16  1  0.10243666  0.49372107  0.70263710  1
  Zr  Zr17  1  0.50699794  0.50739345  0.70594865  1
  Zr  Zr18  1  0.71058384  0.90079735  0.49942780  1
  Zr  Zr19  1  0.69235342  0.30180831  0.29668034  1
  Zr  Zr20  1  0.30560558  0.69132644  0.90071086  1
  Zr  Zr21  1  0.90276655  0.29994701  0.09756939  1
  Zr  Zr22  1  0.50511714  0.29975395  0.10341266  1
  Zr  Zr23  1  0.90323966  0.90327774  0.89138136  1
  Zr  Zr24  1  0.49184564  0.29798510  0.69387809  1
  Zr  Zr25  1  0.30375605  0.89797403  0.90099320  1
  Zr  Zr26  1  0.89640145  0.49334600  0.69897362  1
  Zr  Zr27  1  0.50100456  0.89778196  0.70554884  1
  Zr  Zr28  1  0.70448129  0.70060751  0.49739344  1
  Zr  Zr29  1  0.89956474  0.69415917  0.69868811  1
  Zr  Zr30  1  0.89618992  0.90216289  0.69529054  1
  Zr  Zr31  1  0.29761995  0.10347024  0.69238204  1
  Zr  Zr32  1  0.10882048  0.49812564  0.89916488  1
  Zr  Zr33  1  0.69723568  0.69525278  0.09963707  1
  Zr  Zr34  1  0.69768485  0.70167627  0.90586607  1
  Zr  Zr35  1  0.29698714  0.49346172  0.29752681  1
  Zr  Zr36  1  0.90001933  0.10383913  0.09890615  1
  Zr  Zr37  1  0.30057796  0.50317550  0.49516954  1
  Zr  Zr38  1  0.10150398  0.29967217  0.90277729  1
  Zr  Zr39  1  0.90953448  0.50646874  0.30570395  1
  Zr  Zr40  1  0.69164018  0.89663433  0.29755751  1
  Zr  Zr41  1  0.10613669  0.09527981  0.09228132  1
  Zr  Zr42  1  0.09928297  0.90270526  0.90459186  1
  Zr  Zr43  1  0.49296490  0.49767519  0.49826687  1
  Zr  Zr44  1  0.50359986  0.09520023  0.69805337  1
  Zr  Zr45  1  0.10629482  0.09288768  0.49892455  1
  Zr  Zr46  1  0.10128892  0.69557847  0.69416027  1
  Zr  Zr47  1  0.69581390  0.90792248  0.70026617  1
  Zr  Zr48  1  0.70179114  0.31176575  0.70302751  1
  Zr  Zr49  1  0.09475382  0.89598074  0.29841306  1
  Sc  Sc50  1  0.31044926  0.69888801  0.31060938  1
  Sc  Sc51  1  0.90263122  0.69772575  0.29885240  1
  Sc  Sc52  1  0.69636613  0.49867981  0.89650417  1
  Sc  Sc53  1  0.69921041  0.68485748  0.69988906  1
  Sc  Sc54  1  0.49317510  0.30044516  0.49374864  1
  Sc  Sc55  1  0.29691969  0.70584409  0.70351279  1
  Sc  Sc56  1  0.31407204  0.69572286  0.09905900  1
  Sc  Sc57  1  0.08302664  0.70027686  0.09707194  1
  Sc  Sc58  1  0.90797852  0.30899636  0.50354443  1
  Sc  Sc59  1  0.09936952  0.29360580  0.09875553  1
  Sc  Sc60  1  0.50106272  0.89588283  0.50154084  1
  Sc  Sc61  1  0.28769442  0.10432846  0.49851031  1
  Sc  Sc62  1  0.89446543  0.50118466  0.90909549  1
  Sc  Sc63  1  0.69291170  0.50789319  0.29151941  1
  Sc  Sc64  1  0.90521085  0.08819193  0.50807897  1
  Sc  Sc65  1  0.69762953  0.30569151  0.90473090  1
  Sc  Sc66  1  0.29915974  0.30215781  0.09887508  1
  Sc  Sc67  1  0.10155094  0.29887332  0.50395033  1
  Sc  Sc68  1  0.69507979  0.09309488  0.50068055  1
  Sc  Sc69  1  0.29529493  0.10677626  0.29686883  1
  Sc  Sc70  1  0.09657995  0.89530127  0.70671368  1
  Sc  Sc71  1  0.69702010  0.08975500  0.30239445  1
  Sc  Sc72  1  0.91069901  0.30025780  0.29949364  1
  Sc  Sc73  1  0.50314263  0.50374161  0.90175160  1
  Sc  Sc74  1  0.50501969  0.69614230  0.09621494  1
  Sc  Sc75  1  0.29902271  0.89633943  0.70287143  1
  Sc  Sc76  1  0.50341973  0.30054911  0.90608453  1
  Sc  Sc77  1  0.30109672  0.30165482  0.49950334  1
  Sc  Sc78  1  0.90591344  0.89701476  0.30033337  1
  Sc  Sc79  1  0.69587762  0.89356599  0.90594548  1
  Sc  Sc80  1  0.70750289  0.10453247  0.91327046  1
  Sc  Sc81  1  0.90793344  0.09246878  0.29018162  1
  Sc  Sc82  1  0.10070602  0.50327153  0.09385956  1
  Sc  Sc83  1  0.09911417  0.70259244  0.90142091  1
  Sc  Sc84  1  0.29672884  0.30132547  0.29641698  1
  Sc  Sc85  1  0.90235033  0.29646632  0.90746411  1
  Sc  Sc86  1  0.90355927  0.09655028  0.90526022  1
  Sc  Sc87  1  0.90335566  0.69932617  0.49882316  1
  Sc  Sc88  1  0.90566338  0.50418905  0.49753973  1
  Sc  Sc89  1  0.50393626  0.69877236  0.89825181  1
  Sc  Sc90  1  0.49284437  0.49616263  0.29661641  1
  Sc  Sc91  1  0.10602459  0.30125417  0.29679245  1
  Sc  Sc92  1  0.69345891  0.29875621  0.09200706  1
  Sc  Sc93  1  0.70464677  0.50364475  0.70793225  1
  Sc  Sc94  1  0.90749182  0.90167828  0.10163188  1
  Sc  Sc95  1  0.89662668  0.69595863  0.91172270  1
  Sc  Sc96  1  0.30398674  0.10560646  0.91094975  1
  Sc  Sc97  1  0.29668510  0.30146440  0.68935953  1
  Sc  Sc98  1  0.10311820  0.50656381  0.49415041  1
  Sc  Sc99  1  0.10104091  0.10291559  0.29280743  1
  Nb  Nb100  1  0.11245936  0.71124341  0.49713442  1
  Nb  Nb101  1  0.69429034  0.70329457  0.29595288  1
  Nb  Nb102  1  0.49850130  0.89697817  0.29166048  1
  Nb  Nb103  1  0.30142771  0.90355881  0.10051473  1
  Nb  Nb104  1  0.10655731  0.10109335  0.90119968  1
  Nb  Nb105  1  0.90843127  0.29430309  0.69732811  1
  Nb  Nb106  1  0.70009684  0.10109340  0.69592972  1
  Nb  Nb107  1  0.50384753  0.70949291  0.29969945  1
  Nb  Nb108  1  0.09972142  0.89236437  0.48954266  1
  Nb  Nb109  1  0.29732195  0.70197631  0.50581254  1
  Nb  Nb110  1  0.69911843  0.50515103  0.10290840  1
  Nb  Nb111  1  0.30273610  0.08867159  0.09733533  1
  Nb  Nb112  1  0.89350763  0.51313657  0.10448921  1
  Nb  Nb113  1  0.08932009  0.29772633  0.70456037  1
  Nb  Nb114  1  0.69213447  0.89824410  0.10454557  1
  Nb  Nb115  1  0.90001585  0.89752044  0.50199906  1
  Nb  Nb116  1  0.10734112  0.89733285  0.10232209  1
  Nb  Nb117  1  0.29531676  0.30627464  0.89737989  1
  Nb  Nb118  1  0.29815594  0.49710768  0.89816647  1
  Nb  Nb119  1  0.70204740  0.09625356  0.10250971  1
  Nb  Nb120  1  0.50154497  0.10177924  0.09788523  1
  Nb  Nb121  1  0.10102822  0.49991892  0.29909996  1
  Nb  Nb122  1  0.89090504  0.69027871  0.10122499  1
  Nb  Nb123  1  0.49411242  0.90207117  0.11519987  1
  Nb  Nb124  1  0.50215165  0.69869691  0.69855820  1
  Nb  Nb125  1  0.79868419  0.39900218  0.39346050  1
  Nb  Nb126  1  0.79977998  0.20049667  0.79069687  1
  Nb  Nb127  1  0.19813737  0.60342523  0.20372423  1
  Nb  Nb128  1  0.39858223  -0.00045714  0.59475076  1
  Nb  Nb129  1  0.80549904  0.20138462  0.40008329  1
  Nb  Nb130  1  0.80235913  0.20172332  0.60280027  1
  Nb  Nb131  1  0.59522627  0.60987102  0.39587171  1
  Nb  Nb132  1  0.80378017  0.40340250  0.19863232  1
  Nb  Nb133  1  0.79519941  0.79533380  0.19503788  1
  Nb  Nb134  1  0.39628690  0.60558308  0.60066009  1
  Nb  Nb135  1  0.40002940  -0.00182471  0.39870385  1
  Nb  Nb136  1  0.59706855  0.40294730  0.60056486  1
  Nb  Nb137  1  0.60038198  0.79456979  0.60274256  1
  Nb  Nb138  1  -0.00124738  0.19655169  0.40298941  1
  Nb  Nb139  1  0.60617482  0.19751106  0.79498653  1
  Nb  Nb140  1  -0.00232399  0.40973757  0.19764086  1
  Nb  Nb141  1  0.20456451  0.80425862  0.00889505  1
  Nb  Nb142  1  0.00069211  0.59512955  0.79902884  1
  Nb  Nb143  1  0.19608353  0.20339899  0.80140158  1
  Nb  Nb144  1  0.19811596  0.00944557  0.80341410  1
  Nb  Nb145  1  0.39205264  0.40262507  0.80395058  1
  Nb  Nb146  1  0.59656525  0.00001852  0.01417094  1
  Nb  Nb147  1  0.20164888  0.79606390  0.19385981  1
  Nb  Nb148  1  0.79824498  0.20240304  0.20141390  1
  Nb  Nb149  1  0.79946222  0.80005853  0.79825845  1
  Pd  Pd150  1  0.00728500  0.59912969  0.19931137  1
  Pd  Pd151  1  0.01012547  -0.01492547  0.59706852  1
  Pd  Pd152  1  0.80788255  0.79965989  0.38950913  1
  Pd  Pd153  1  0.19544491  0.80587837  0.60683273  1
  Pd  Pd154  1  0.39198148  0.19651827  0.40182028  1
  Pd  Pd155  1  0.39598641  0.80901539  0.40185262  1
  Pd  Pd156  1  0.79787577  0.39748863  0.59179944  1
  Pd  Pd157  1  0.00760746  0.40582738  0.59464407  1
  Pd  Pd158  1  0.40782217  -0.00440956  0.00317317  1
  Pd  Pd159  1  0.19927130  0.61108544  0.01021278  1
  Pd  Pd160  1  -0.00344337  0.80114136  0.00339549  1
  Pd  Pd161  1  0.60485280  0.20799149  0.60347092  1
  Pd  Pd162  1  0.80188032  -0.00522921  0.20110638  1
  Pd  Pd163  1  0.20551681  -0.00299602  0.38678551  1
  Pd  Pd164  1  0.38991138  0.00477516  0.79530856  1
  Pd  Pd165  1  0.79327814  0.59552062  0.39323622  1
  Pd  Pd166  1  0.19754158  -0.00198468  0.20469798  1
  Pd  Pd167  1  0.79396627  0.40458940  0.00637013  1
  Pd  Pd168  1  0.00342621  0.59675335  0.59765104  1
  Pd  Pd169  1  -0.00644264  0.78879737  0.80267930  1
  Pd  Pd170  1  0.80920572  0.00490305  0.39671458  1
  Pd  Pd171  1  0.79107723  0.00178457  0.80837975  1
  Pd  Pd172  1  -0.00188861  0.00276865  0.39952236  1
  Pd  Pd173  1  0.40137226  0.79267191  0.79949795  1
  Pd  Pd174  1  0.80604967  0.80787853  0.00361675  1
  Pd  Pd175  1  0.59119228  -0.00719333  0.40218846  1
  Pd  Pd176  1  0.79585671  -0.00986185  0.00201816  1
  Pd  Pd177  1  0.79311832  0.79412263  0.60878495  1
  Pd  Pd178  1  0.60691192  0.19249073  0.20099066  1
  Pd  Pd179  1  0.19506676  0.60690569  0.80186597  1
  Pd  Pd180  1  0.81039882  0.39226871  0.80859429  1
  Pd  Pd181  1  0.39625195  0.20809298  0.80188573  1
  Pd  Pd182  1  0.61096473  0.01004028  0.81685950  1
  Pd  Pd183  1  -0.00217370  0.19504168  0.80918627  1
  Pd  Pd184  1  0.39258378  0.19873160  0.19166576  1
  Pd  Pd185  1  -0.00811735  0.40470162  0.80889162  1
  Pd  Pd186  1  0.60256629  0.41298776  0.40060247  1
  Pd  Pd187  1  0.40363291  0.40015928  -0.00612411  1
  Pd  Pd188  1  0.00031858  0.40798735  0.00603891  1
  Pd  Pd189  1  0.19732487  0.39345623  0.40209168  1
  Pd  Pd190  1  0.00360364  0.80326086  0.59497092  1
  Pd  Pd191  1  0.59820863  0.80080780  0.40714376  1
  Pd  Pd192  1  0.20352319  0.19970198  0.19030538  1
  Pd  Pd193  1  0.19857108  0.39715622  0.00809628  1
  Pd  Pd194  1  0.40095604  0.60323803  0.20632199  1
  Pd  Pd195  1  0.19952725  0.60594729  0.39462656  1
  Pd  Pd196  1  0.19507318  0.39845190  0.59793956  1
  Pd  Pd197  1  0.40366623  0.79917671  0.00451672  1
  Pd  Pd198  1  0.39542664  0.20730532  0.00579420  1
  Pd  Pd199  1  0.00057932  0.00069784  0.00346984  1
  Rh  Rh200  1  0.58847909  0.60008317  0.58992480  1
  Rh  Rh201  1  0.80628502  0.60600327  0.80679905  1
  Rh  Rh202  1  0.19037073  0.20381658  0.40018323  1
  Rh  Rh203  1  0.00386557  0.19388024  -0.00099388  1
  Rh  Rh204  1  -0.00137295  0.20524233  0.20220879  1
  Rh  Rh205  1  0.60345488  0.60579160  0.80856182  1
  Rh  Rh206  1  0.00961382  0.60789677  0.40778613  1
  Rh  Rh207  1  0.40457198  0.59353799  -0.00557083  1
  Rh  Rh208  1  0.80039742  0.20221856  0.00308849  1
  Rh  Rh209  1  0.60238876  0.59463610  -0.00123271  1
  Rh  Rh210  1  -0.00025196  0.59549706  -0.00776439  1
  Rh  Rh211  1  0.58535716  0.38994059  0.79433058  1
  Rh  Rh212  1  0.60109254  0.19209027  -0.00410001  1
  Rh  Rh213  1  0.40583922  0.41352264  0.61095898  1
  Rh  Rh214  1  0.60359546  0.40377134  0.19492839  1
  Rh  Rh215  1  0.19924561  -0.00944938  0.60809003  1
  Rh  Rh216  1  0.58908250  0.80867864  0.01198514  1
  Rh  Rh217  1  0.20747727  0.79971258  0.39022540  1
  Rh  Rh218  1  0.20550713  -0.00558712  -0.00552961  1
  Rh  Rh219  1  0.00313582  0.39597499  0.39428860  1
  Rh  Rh220  1  0.59590027  0.00363768  0.19707336  1
  Rh  Rh221  1  0.40349798  0.60075145  0.40175313  1
  Rh  Rh222  1  0.40016606  0.59696746  0.79704588  1
  Rh  Rh223  1  0.39915158  0.01024858  0.20249669  1
  Rh  Rh224  1  0.20471106  0.60224193  0.59566179  1
  Rh  Rh225  1  0.00768614  -0.00182980  0.19450327  1
  Rh  Rh226  1  0.59925512  0.79498219  0.19400634  1
  Rh  Rh227  1  0.60971679  0.79065617  0.78865639  1
  Rh  Rh228  1  0.60113051  0.40649504  0.00392958  1
  Rh  Rh229  1  0.60608740  0.19278708  0.39449354  1
  Rh  Rh230  1  0.40032820  0.79170177  0.19527197  1
  Rh  Rh231  1  0.19382685  0.20983852  0.60400130  1
  Rh  Rh232  1  -0.00766784  0.79930490  0.40896723  1
  Rh  Rh233  1  0.40124165  0.39352215  0.19941120  1
  Rh  Rh234  1  0.79031758  0.59366704  -0.00314064  1
  Rh  Rh235  1  0.59543657  -0.00909855  0.59388247  1
  Rh  Rh236  1  -0.00515138  0.79751085  0.19282478  1
  Rh  Rh237  1  0.80844051  0.59687277  0.59877737  1
  Rh  Rh238  1  0.20650095  0.20161843  -0.00033856  1
  Rh  Rh239  1  -0.00419485  0.19992597  0.59014534  1
  Rh  Rh240  1  0.20099480  0.80444588  0.81176731  1
  Rh  Rh241  1  0.19214649  0.41002014  0.19351286  1
  Rh  Rh242  1  0.39443598  0.39303060  0.39169081  1
  Rh  Rh243  1  0.39429069  0.19095124  0.58937571  1
  Rh  Rh244  1  0.79768074  0.00566384  0.59549779  1
  Rh  Rh245  1  0.20441394  0.38966085  0.79208824  1
  Rh  Rh246  1  0.59070836  0.60325632  0.20634203  1
  Rh  Rh247  1  0.01014049  0.00612803  0.80077021  1
  Rh  Rh248  1  0.40369778  0.79996829  0.60561270  1
  Rh  Rh249  1  0.79666044  0.60336844  0.20616713  1
