# generated using pymatgen
data_ZrScNbPdRh
_symmetry_space_group_name_H-M   'P 1'
_cell_length_a   16.55950132
_cell_length_b   16.56439523
_cell_length_c   16.56086914
_cell_angle_alpha   89.98518033
_cell_angle_beta   90.02044719
_cell_angle_gamma   89.98533628
_symmetry_Int_Tables_number   1
_chemical_formula_structural   ZrScNbPdRh
_chemical_formula_sum   'Zr50 Sc50 Nb50 Pd50 Rh50'
_cell_volume   4542.61475781
_cell_formula_units_Z   50
loop_
 _symmetry_equiv_pos_site_id
 _symmetry_equiv_pos_as_xyz
  1  'x, y, z'
loop_
 _atom_site_type_symbol
 _atom_site_label
 _atom_site_symmetry_multiplicity
 _atom_site_fract_x
 _atom_site_fract_y
 _atom_site_fract_z
 _atom_site_occupancy
  Zr  Zr0  1  0.49843907  0.89989274  0.29890503  1
  Zr  Zr1  1  0.09280151  0.69598457  0.90159940  1
  Zr  Zr2  1  0.29580797  0.70077650  0.50678685  1
  Zr  Zr3  1  0.31014340  0.29777661  0.70497063  1
  Zr  Zr4  1  0.70006258  0.30741146  0.29701119  1
  Zr  Zr5  1  0.70372572  0.70318528  0.49163288  1
  Zr  Zr6  1  0.90049681  0.70752098  0.70204965  1
  Zr  Zr7  1  0.90027558  0.49551616  0.09731475  1
  Zr  Zr8  1  0.89777344  0.89612389  0.09608634  1
  Zr  Zr9  1  0.30370889  0.48994528  0.89953110  1
  Zr  Zr10  1  0.29817366  0.70237566  0.29332607  1
  Zr  Zr11  1  0.50362411  0.50314643  0.90227219  1
  Zr  Zr12  1  0.90862270  0.70231463  0.49651481  1
  Zr  Zr13  1  0.89238233  0.69911108  0.89641743  1
  Zr  Zr14  1  0.09646157  0.09928922  0.09742798  1
  Zr  Zr15  1  0.49938787  0.70213257  0.89728107  1
  Zr  Zr16  1  0.70063117  0.70845685  0.70416693  1
  Zr  Zr17  1  0.90528906  0.89374165  0.50589991  1
  Zr  Zr18  1  0.29937584  0.89683621  0.11238162  1
  Zr  Zr19  1  0.29847111  0.30129636  0.50169664  1
  Zr  Zr20  1  0.10140067  0.09721757  0.50071703  1
  Zr  Zr21  1  0.29679078  0.30132121  0.89645237  1
  Zr  Zr22  1  0.09881067  0.90669786  0.90312365  1
  Zr  Zr23  1  0.30277562  0.09078762  0.51055366  1
  Zr  Zr24  1  0.49963558  0.10161959  0.10300321  1
  Zr  Zr25  1  0.29688108  0.69217993  0.10115384  1
  Zr  Zr26  1  0.50610474  0.50423061  0.29214532  1
  Zr  Zr27  1  0.49920169  0.89339116  0.89895228  1
  Zr  Zr28  1  0.49979802  0.69462366  0.09987292  1
  Zr  Zr29  1  0.69728971  0.11378834  0.09504557  1
  Zr  Zr30  1  0.08633480  0.90531972  0.69712892  1
  Zr  Zr31  1  0.70840007  0.49227679  0.48878499  1
  Zr  Zr32  1  0.30343494  0.30053595  0.29907859  1
  Zr  Zr33  1  0.09558014  0.90513219  0.10297984  1
  Zr  Zr34  1  0.50872763  0.30263976  0.50945864  1
  Zr  Zr35  1  0.30067539  0.89584274  0.90071183  1
  Zr  Zr36  1  0.50082920  0.89071874  0.70184647  1
  Zr  Zr37  1  0.90532157  0.09366274  0.70215147  1
  Zr  Zr38  1  0.89331954  0.30535495  0.50489403  1
  Zr  Zr39  1  0.90045954  0.70316799  0.09869430  1
  Zr  Zr40  1  0.69660528  0.51015538  0.70313810  1
  Zr  Zr41  1  0.50194189  0.49817238  0.49458858  1
  Zr  Zr42  1  0.09714804  0.69954660  0.10437573  1
  Zr  Zr43  1  0.09219984  0.09511268  0.89640483  1
  Zr  Zr44  1  0.90336734  0.50252482  0.50188483  1
  Zr  Zr45  1  0.89718090  0.29475897  0.70208781  1
  Zr  Zr46  1  0.29633867  0.09996884  0.90352522  1
  Zr  Zr47  1  0.50146502  0.70608146  0.69811054  1
  Zr  Zr48  1  0.50271152  0.90060754  0.09343416  1
  Zr  Zr49  1  0.71568020  0.10332979  0.70562075  1
  Sc  Sc50  1  0.49944706  0.30475454  0.30227650  1
  Sc  Sc51  1  0.48546641  0.30913630  0.90278055  1
  Sc  Sc52  1  0.30152227  0.89710591  0.68601663  1
  Sc  Sc53  1  0.70219048  0.30363742  0.10725767  1
  Sc  Sc54  1  0.29816104  0.09259541  0.30115994  1
  Sc  Sc55  1  0.30225554  0.70559215  0.68952340  1
  Sc  Sc56  1  0.09267239  0.29849852  0.89955435  1
  Sc  Sc57  1  0.90538643  0.30300254  0.90178045  1
  Sc  Sc58  1  0.69816829  0.71368987  0.10140229  1
  Sc  Sc59  1  0.30238894  0.70467833  0.90931184  1
  Sc  Sc60  1  0.49262150  0.10575115  0.69110481  1
  Sc  Sc61  1  0.71173956  0.90251823  0.49185472  1
  Sc  Sc62  1  0.69402361  0.51012820  0.90207785  1
  Sc  Sc63  1  0.90461760  0.70105589  0.30486507  1
  Sc  Sc64  1  0.89387651  0.50409884  0.31078580  1
  Sc  Sc65  1  0.50210006  0.09968187  0.49844722  1
  Sc  Sc66  1  0.50191336  0.30400641  0.10844617  1
  Sc  Sc67  1  0.10323607  0.29328031  0.50194550  1
  Sc  Sc68  1  0.10072460  0.51783623  0.29802398  1
  Sc  Sc69  1  0.09662527  0.49678378  0.69471484  1
  Sc  Sc70  1  0.90147523  0.29440421  0.29595081  1
  Sc  Sc71  1  0.90631410  0.09997902  0.30092390  1
  Sc  Sc72  1  0.49857124  0.90414423  0.50307304  1
  Sc  Sc73  1  0.89350633  0.29509895  0.09547433  1
  Sc  Sc74  1  0.70337375  0.29361804  0.68093670  1
  Sc  Sc75  1  0.90388578  0.89917696  0.31095443  1
  Sc  Sc76  1  0.09630125  0.51291016  0.09434710  1
  Sc  Sc77  1  0.10185886  0.89433468  0.49748551  1
  Sc  Sc78  1  0.09955847  0.70571801  0.30551732  1
  Sc  Sc79  1  0.30687251  0.29196165  0.10175390  1
  Sc  Sc80  1  0.89943501  0.89845529  0.89624854  1
  Sc  Sc81  1  0.29841858  0.50430624  0.50413630  1
  Sc  Sc82  1  0.50034331  0.09623875  0.91264485  1
  Sc  Sc83  1  0.10554031  0.30769983  0.70387465  1
  Sc  Sc84  1  0.49886726  0.49498681  0.69426989  1
  Sc  Sc85  1  0.29096754  0.48835548  0.69737882  1
  Sc  Sc86  1  0.70865335  0.29122222  0.91359090  1
  Sc  Sc87  1  0.10134241  0.09204307  0.29847227  1
  Sc  Sc88  1  0.90464006  0.49971787  0.89813062  1
  Sc  Sc89  1  0.90197014  0.08991914  0.49140463  1
  Sc  Sc90  1  0.30817815  0.50637012  0.29493619  1
  Sc  Sc91  1  0.69818734  0.30394808  0.50048348  1
  Sc  Sc92  1  0.50284873  0.10471905  0.30397389  1
  Sc  Sc93  1  0.49962933  0.49733116  0.09765987  1
  Sc  Sc94  1  0.69936703  0.10424915  0.30031109  1
  Sc  Sc95  1  0.69609058  0.69894851  0.89368222  1
  Sc  Sc96  1  0.89517208  0.10892466  0.89130776  1
  Sc  Sc97  1  0.69936575  0.10335153  0.49998792  1
  Sc  Sc98  1  0.09212687  0.49276280  0.89624802  1
  Sc  Sc99  1  0.09888098  0.27835701  0.30328639  1
  Nb  Nb100  1  0.29831579  0.09729344  0.69966643  1
  Nb  Nb101  1  0.68943478  0.69885521  0.29781424  1
  Nb  Nb102  1  0.30232648  0.89822630  0.49286789  1
  Nb  Nb103  1  0.50789278  0.29937533  0.70109477  1
  Nb  Nb104  1  0.69835257  0.09920291  0.89953147  1
  Nb  Nb105  1  0.09901693  0.09602494  0.70217367  1
  Nb  Nb106  1  0.89658376  0.09263143  0.10165738  1
  Nb  Nb107  1  0.70689753  0.90170949  0.70341084  1
  Nb  Nb108  1  0.70287562  0.90223624  0.09761743  1
  Nb  Nb109  1  0.69979262  0.50268739  0.29708898  1
  Nb  Nb110  1  0.49795601  0.70020725  0.49760561  1
  Nb  Nb111  1  0.12222174  0.90146366  0.29782483  1
  Nb  Nb112  1  0.88939132  0.90045539  0.69655919  1
  Nb  Nb113  1  0.69809122  0.90637402  0.90405167  1
  Nb  Nb114  1  0.69659899  0.50226331  0.10528407  1
  Nb  Nb115  1  0.29235478  0.89701407  0.30365280  1
  Nb  Nb116  1  0.70014052  0.89843397  0.29382981  1
  Nb  Nb117  1  0.09982311  0.69061099  0.51095411  1
  Nb  Nb118  1  0.10467363  0.70317803  0.69491875  1
  Nb  Nb119  1  0.50384162  0.69785026  0.30441989  1
  Nb  Nb120  1  0.10135444  0.50307082  0.49937914  1
  Nb  Nb121  1  0.29752307  0.49797946  0.10457748  1
  Nb  Nb122  1  0.09873737  0.30163838  0.10135026  1
  Nb  Nb123  1  0.89440173  0.49535837  0.69943501  1
  Nb  Nb124  1  0.30072511  0.09911979  0.09868887  1
  Nb  Nb125  1  0.79611928  -0.00363219  0.19591055  1
  Nb  Nb126  1  0.00875252  0.39852790  0.20272750  1
  Nb  Nb127  1  0.19442853  0.40235314  0.39400699  1
  Nb  Nb128  1  0.80091285  0.20374089  0.39884545  1
  Nb  Nb129  1  0.60757696  -0.00330546  0.61205564  1
  Nb  Nb130  1  0.60460706  0.39016570  0.79755298  1
  Nb  Nb131  1  0.40038289  0.00086061  0.79666709  1
  Nb  Nb132  1  0.80019530  0.60323534  0.60000553  1
  Nb  Nb133  1  0.79365310  0.40102800  0.79662764  1
  Nb  Nb134  1  0.59888785  0.20106122  0.80058237  1
  Nb  Nb135  1  0.00229175  0.19362978  0.60430292  1
  Nb  Nb136  1  0.79747068  0.60124685  0.00945149  1
  Nb  Nb137  1  0.60689978  -0.00391960  0.19523953  1
  Nb  Nb138  1  0.00915922  0.40172177  0.39839639  1
  Nb  Nb139  1  0.60178999  0.60568049  0.59171638  1
  Nb  Nb140  1  0.19307178  0.79709302  0.79678586  1
  Nb  Nb141  1  0.20130603  0.19018005  0.79597965  1
  Nb  Nb142  1  0.39925249  0.79719893  0.39814873  1
  Nb  Nb143  1  0.19396556  0.39872663  0.20013904  1
  Nb  Nb144  1  0.79018534  0.60151131  0.20163122  1
  Nb  Nb145  1  0.20082778  0.60554814  0.79755818  1
  Nb  Nb146  1  0.60118716  0.00304926  0.79898447  1
  Nb  Nb147  1  0.39457487  0.60060657  0.79836310  1
  Nb  Nb148  1  0.19858329  0.39773889  0.01059320  1
  Nb  Nb149  1  0.79506778  0.00298435  0.00206657  1
  Pd  Pd150  1  0.60839178  0.80530833  0.58901485  1
  Pd  Pd151  1  0.19756007  -0.00933663  0.59783050  1
  Pd  Pd152  1  0.39810783  0.59612135  -0.00279586  1
  Pd  Pd153  1  0.39905426  0.19756001  0.40596499  1
  Pd  Pd154  1  0.59575071  0.80312075  0.19852055  1
  Pd  Pd155  1  0.20753444  -0.00659860  0.79340837  1
  Pd  Pd156  1  0.19968572  0.79315127  0.40728441  1
  Pd  Pd157  1  0.79887099  0.00244829  0.59256005  1
  Pd  Pd158  1  0.59488619  0.80864310  0.40553235  1
  Pd  Pd159  1  -0.01159971  0.59486058  0.20535914  1
  Pd  Pd160  1  0.40416150  0.20433869  0.00150127  1
  Pd  Pd161  1  0.00137731  0.80438070  0.79925954  1
  Pd  Pd162  1  0.80211762  0.79763142  0.39084503  1
  Pd  Pd163  1  0.00417314  0.80842714  0.21115108  1
  Pd  Pd164  1  -0.00676245  0.19664217  0.00302486  1
  Pd  Pd165  1  -0.00017169  0.80102272  -0.00391413  1
  Pd  Pd166  1  0.40339551  0.00486508  0.20533922  1
  Pd  Pd167  1  0.00691010  0.39215044  0.59690958  1
  Pd  Pd168  1  0.20849438  0.19488465  0.39984638  1
  Pd  Pd169  1  0.39489273  0.40518016  0.39916153  1
  Pd  Pd170  1  0.39436183  -0.00408137  -0.00089313  1
  Pd  Pd171  1  0.00411992  0.59638876  0.79160364  1
  Pd  Pd172  1  0.39640081  0.60501105  0.39877356  1
  Pd  Pd173  1  -0.00472179  -0.00817311  0.20878596  1
  Pd  Pd174  1  -0.00546692  0.59992370  0.60902186  1
  Pd  Pd175  1  0.60612432  -0.00292082  0.40059046  1
  Pd  Pd176  1  0.40379948  0.59708245  0.60670310  1
  Pd  Pd177  1  0.58927623  0.21277613  -0.00526603  1
  Pd  Pd178  1  0.79457187  0.40946707  -0.00885986  1
  Pd  Pd179  1  0.20373965  0.59812922  0.39953523  1
  Pd  Pd180  1  0.40456084  0.19051526  0.80385184  1
  Pd  Pd181  1  0.60546643  0.20656084  0.39983312  1
  Pd  Pd182  1  0.39932099  -0.00288419  0.39736024  1
  Pd  Pd183  1  0.80250544  0.79853707  0.20890929  1
  Pd  Pd184  1  0.60435670  0.79458100  -0.00484677  1
  Pd  Pd185  1  0.20455970  -0.00176738  0.00881711  1
  Pd  Pd186  1  0.19523321  0.20486871  -0.00423036  1
  Pd  Pd187  1  0.20310578  0.19677759  0.19829010  1
  Pd  Pd188  1  0.40207599  0.20236191  0.59472781  1
  Pd  Pd189  1  0.60358618  0.59627126  0.40267090  1
  Pd  Pd190  1  0.00971571  -0.00892352  0.39642051  1
  Pd  Pd191  1  0.19604109  0.80127279  0.00198003  1
  Pd  Pd192  1  0.39906438  0.40003589  0.60134753  1
  Pd  Pd193  1  0.40503718  0.79573418  0.20260529  1
  Pd  Pd194  1  0.60433681  0.39534021  -0.00420182  1
  Pd  Pd195  1  0.40113600  0.19594102  0.20570451  1
  Pd  Pd196  1  0.19830081  0.59033283  -0.01022774  1
  Pd  Pd197  1  -0.00509705  0.20126453  0.19280618  1
  Pd  Pd198  1  0.80957623  0.40561873  0.20511247  1
  Pd  Pd199  1  0.19618027  0.20215871  0.61029725  1
  Rh  Rh200  1  0.80805037  0.19285332  -0.00077339  1
  Rh  Rh201  1  0.60517071  0.40945235  0.60298679  1
  Rh  Rh202  1  -0.00938074  0.60139882  -0.00281010  1
  Rh  Rh203  1  0.59984943  0.18806046  0.60451172  1
  Rh  Rh204  1  0.19473992  0.80526775  0.59953139  1
  Rh  Rh205  1  0.00608598  0.40062817  0.00929713  1
  Rh  Rh206  1  0.01239985  0.80084585  0.40172505  1
  Rh  Rh207  1  0.61008771  0.80871456  0.80640071  1
  Rh  Rh208  1  0.80764317  0.59249079  0.80201841  1
  Rh  Rh209  1  0.00494149  0.59943223  0.40285712  1
  Rh  Rh210  1  0.58314515  0.59682893  0.79056698  1
  Rh  Rh211  1  0.38320464  0.79754514  0.79811986  1
  Rh  Rh212  1  0.20343565  0.00783677  0.19477651  1
  Rh  Rh213  1  0.60833786  0.60519059  0.00890259  1
  Rh  Rh214  1  -0.00966291  -0.00462812  0.80288101  1
  Rh  Rh215  1  0.80885566  0.39112053  0.39081171  1
  Rh  Rh216  1  0.01035844  0.20392078  0.79158535  1
  Rh  Rh217  1  0.40665819  -0.00328723  0.60438172  1
  Rh  Rh218  1  0.79412011  0.79976958  -0.00969943  1
  Rh  Rh219  1  0.40444102  0.60072243  0.19855569  1
  Rh  Rh220  1  0.79141539  0.41186370  0.60749109  1
  Rh  Rh221  1  0.39691496  0.40309909  0.19867727  1
  Rh  Rh222  1  0.79720598  0.60916480  0.39484948  1
  Rh  Rh223  1  0.19970173  0.59943165  0.20108944  1
  Rh  Rh224  1  0.20083391  0.00211053  0.40533899  1
  Rh  Rh225  1  -0.01430928  0.00687302  -0.00734009  1
  Rh  Rh226  1  0.19372487  0.39858889  0.81032490  1
  Rh  Rh227  1  0.59804287  0.40000488  0.39485949  1
  Rh  Rh228  1  0.00278140  0.79876406  0.60058931  1
  Rh  Rh229  1  0.19434022  0.79656954  0.19508165  1
  Rh  Rh230  1  0.59867652  0.40125754  0.20015770  1
  Rh  Rh231  1  0.81233807  0.18815893  0.58609283  1
  Rh  Rh232  1  0.19872158  0.59565011  0.60808945  1
  Rh  Rh233  1  -0.01004167  0.39809872  0.79438767  1
  Rh  Rh234  1  0.19806556  0.40024844  0.58825622  1
  Rh  Rh235  1  -0.00233183  0.00238286  0.59627168  1
  Rh  Rh236  1  0.60560322  0.00239796  0.00244246  1
  Rh  Rh237  1  0.59748419  0.19957872  0.20340005  1
  Rh  Rh238  1  0.39825892  0.79932712  0.01077164  1
  Rh  Rh239  1  0.79173009  0.21417822  0.80408730  1
  Rh  Rh240  1  0.41024676  0.40839284  0.79348256  1
  Rh  Rh241  1  0.40099488  0.80398328  0.58631133  1
  Rh  Rh242  1  0.80205787  0.19157769  0.20695255  1
  Rh  Rh243  1  0.79587099  0.80730919  0.80577095  1
  Rh  Rh244  1  0.79504883  0.00859727  0.38758293  1
  Rh  Rh245  1  -0.01115437  0.20885687  0.41433878  1
  Rh  Rh246  1  0.79891750  0.79608708  0.59932560  1
  Rh  Rh247  1  0.80040481  -0.00667725  0.80937138  1
  Rh  Rh248  1  0.60245448  0.60317544  0.19509358  1
  Rh  Rh249  1  0.39200422  0.39880467  0.01243903  1
