# generated using pymatgen
data_ZrScNbPdRh
_symmetry_space_group_name_H-M   'P 1'
_cell_length_a   16.55345191
_cell_length_b   16.55422545
_cell_length_c   16.55220672
_cell_angle_alpha   89.99519086
_cell_angle_beta   89.98777505
_cell_angle_gamma   89.99158428
_symmetry_Int_Tables_number   1
_chemical_formula_structural   ZrScNbPdRh
_chemical_formula_sum   'Zr50 Sc50 Nb50 Pd50 Rh50'
_cell_volume   4535.79400129
_cell_formula_units_Z   50
loop_
 _symmetry_equiv_pos_site_id
 _symmetry_equiv_pos_as_xyz
  1  'x, y, z'
loop_
 _atom_site_type_symbol
 _atom_site_label
 _atom_site_symmetry_multiplicity
 _atom_site_fract_x
 _atom_site_fract_y
 _atom_site_fract_z
 _atom_site_occupancy
  Zr  Zr0  1  0.90171669  0.70286537  0.48566538  1
  Zr  Zr1  1  0.49739299  0.29099649  0.10055875  1
  Zr  Zr2  1  0.49428363  0.28823002  0.49590375  1
  Zr  Zr3  1  0.29688820  0.49706070  0.29555319  1
  Zr  Zr4  1  0.90169958  0.09980938  0.30422754  1
  Zr  Zr5  1  0.89742158  0.49737503  0.50145403  1
  Zr  Zr6  1  0.90202635  0.70919535  0.10446026  1
  Zr  Zr7  1  0.69402313  0.70740772  0.30078932  1
  Zr  Zr8  1  0.69684243  0.30127706  0.49827277  1
  Zr  Zr9  1  0.09531240  0.90640949  0.89308936  1
  Zr  Zr10  1  0.69690326  0.69543588  0.49348036  1
  Zr  Zr11  1  0.29945085  0.30041649  0.11086660  1
  Zr  Zr12  1  0.10360570  0.89607171  0.49783496  1
  Zr  Zr13  1  0.10435898  0.09400750  0.10368805  1
  Zr  Zr14  1  0.89491213  0.50286039  0.89445329  1
  Zr  Zr15  1  0.69043897  0.91142626  0.70452280  1
  Zr  Zr16  1  0.90278233  0.09513585  0.50691545  1
  Zr  Zr17  1  0.71163600  0.50089393  0.69451206  1
  Zr  Zr18  1  0.30748882  0.29866579  0.89538683  1
  Zr  Zr19  1  0.69950970  0.49811800  0.30130231  1
  Zr  Zr20  1  0.29828398  0.50264357  0.49951215  1
  Zr  Zr21  1  0.30232245  0.90984689  0.10139444  1
  Zr  Zr22  1  0.89913843  0.89632045  0.90332156  1
  Zr  Zr23  1  0.69971313  0.90087940  0.89966160  1
  Zr  Zr24  1  0.10174210  0.09533626  0.70771833  1
  Zr  Zr25  1  0.49401667  0.10564477  0.90877024  1
  Zr  Zr26  1  0.30375597  0.69512934  0.29992580  1
  Zr  Zr27  1  0.09810048  0.90100760  0.09464041  1
  Zr  Zr28  1  0.71016762  0.30075438  0.29732116  1
  Zr  Zr29  1  0.49341453  0.89731017  0.69632296  1
  Zr  Zr30  1  0.10647204  0.50063718  0.69835064  1
  Zr  Zr31  1  0.10119181  0.49925719  0.49981471  1
  Zr  Zr32  1  0.49785897  0.10005960  0.49312369  1
  Zr  Zr33  1  0.09891251  0.10329796  0.50408516  1
  Zr  Zr34  1  0.69291734  0.10032433  0.89302007  1
  Zr  Zr35  1  0.10067140  0.71205626  0.90228956  1
  Zr  Zr36  1  0.30218070  0.29634206  0.69945038  1
  Zr  Zr37  1  0.49959014  0.69748995  0.50380560  1
  Zr  Zr38  1  0.69864220  0.50235469  0.10131070  1
  Zr  Zr39  1  0.90259224  0.70539945  0.89229803  1
  Zr  Zr40  1  0.09798290  0.50041272  0.10364851  1
  Zr  Zr41  1  0.30792250  0.09556773  0.09490362  1
  Zr  Zr42  1  0.30358727  0.70804402  0.69470543  1
  Zr  Zr43  1  0.30408849  0.49982797  0.69848386  1
  Zr  Zr44  1  0.49625381  0.69687240  0.90306568  1
  Zr  Zr45  1  0.09831150  0.71123187  0.70408227  1
  Zr  Zr46  1  0.90812912  0.29350029  0.50088159  1
  Zr  Zr47  1  0.50324009  0.30019166  0.90581215  1
  Zr  Zr48  1  0.70093246  0.29808392  0.09684550  1
  Zr  Zr49  1  0.88961748  0.31182474  0.70461332  1
  Sc  Sc50  1  0.50454597  0.90985804  0.29845151  1
  Sc  Sc51  1  0.49445991  0.51178964  0.29124266  1
  Sc  Sc52  1  0.09320008  0.50498986  0.90827080  1
  Sc  Sc53  1  0.10865213  0.90128882  0.30509766  1
  Sc  Sc54  1  0.30346301  0.90095643  0.90358497  1
  Sc  Sc55  1  0.89954861  0.30114253  0.90155782  1
  Sc  Sc56  1  0.49542380  0.69854528  0.70075904  1
  Sc  Sc57  1  0.30518964  0.28925698  0.50901587  1
  Sc  Sc58  1  0.69926500  0.89664363  0.11064343  1
  Sc  Sc59  1  0.50533420  0.69982626  0.30009192  1
  Sc  Sc60  1  0.10817163  0.29677360  0.70276896  1
  Sc  Sc61  1  0.50404778  0.90238537  0.10116649  1
  Sc  Sc62  1  0.50730272  0.70045200  0.10171232  1
  Sc  Sc63  1  0.29816481  0.89935148  0.49309742  1
  Sc  Sc64  1  0.90026570  0.09424030  0.89318523  1
  Sc  Sc65  1  0.49909148  0.08573532  0.69749619  1
  Sc  Sc66  1  0.30183584  0.50811337  0.10635917  1
  Sc  Sc67  1  0.89065291  0.89115567  0.30099793  1
  Sc  Sc68  1  0.69582902  0.50874485  0.90040476  1
  Sc  Sc69  1  0.90598458  0.50388019  0.09551365  1
  Sc  Sc70  1  0.90000593  0.09196503  0.10631286  1
  Sc  Sc71  1  0.09725439  0.09790311  0.29747162  1
  Sc  Sc72  1  0.89733074  0.90729559  0.70780850  1
  Sc  Sc73  1  0.50023673  0.50574821  0.09503155  1
  Sc  Sc74  1  0.70427453  0.09712905  0.10346435  1
  Sc  Sc75  1  0.49890792  0.50762557  0.69565432  1
  Sc  Sc76  1  0.30235034  0.08825412  0.29708910  1
  Sc  Sc77  1  0.89545647  0.89983431  0.10378216  1
  Sc  Sc78  1  0.50002056  0.50660581  0.89935581  1
  Sc  Sc79  1  0.69383038  0.09204849  0.30037626  1
  Sc  Sc80  1  0.50016019  0.50034646  0.50615821  1
  Sc  Sc81  1  0.10960253  0.90288448  0.70252400  1
  Sc  Sc82  1  0.49116386  0.30387438  0.69039101  1
  Sc  Sc83  1  0.30094741  0.70780685  0.49836030  1
  Sc  Sc84  1  0.69507137  0.70523557  0.90446257  1
  Sc  Sc85  1  0.09231635  0.69866826  0.29788385  1
  Sc  Sc86  1  0.49720610  0.09803118  0.10974589  1
  Sc  Sc87  1  0.10222860  0.29380297  0.50927446  1
  Sc  Sc88  1  0.50437141  0.89274121  0.89659642  1
  Sc  Sc89  1  0.30894938  0.50154104  0.90295291  1
  Sc  Sc90  1  0.89309524  0.49485568  0.29883174  1
  Sc  Sc91  1  0.49598192  0.90929552  0.50123625  1
  Sc  Sc92  1  0.10368619  0.70376233  0.49256122  1
  Sc  Sc93  1  0.30429645  0.09696767  0.49887025  1
  Sc  Sc94  1  0.69979334  0.29069574  0.89863637  1
  Sc  Sc95  1  0.10976611  0.50269864  0.29759929  1
  Sc  Sc96  1  0.09816171  0.69443325  0.10174717  1
  Sc  Sc97  1  0.69646401  0.50426451  0.49888574  1
  Sc  Sc98  1  0.69792890  0.08483505  0.49513279  1
  Sc  Sc99  1  0.89558401  0.29749443  0.10305074  1
  Nb  Nb100  1  0.29957256  0.09618506  0.70393913  1
  Nb  Nb101  1  0.29789430  0.30260247  0.29863696  1
  Nb  Nb102  1  0.10498492  0.29643991  0.29429962  1
  Nb  Nb103  1  0.70320226  0.69977670  0.68841056  1
  Nb  Nb104  1  0.10180627  0.29742445  0.09997929  1
  Nb  Nb105  1  0.90035352  0.69946186  0.29366969  1
  Nb  Nb106  1  0.70560714  0.89747632  0.49168001  1
  Nb  Nb107  1  0.90245025  0.29933157  0.30321346  1
  Nb  Nb108  1  0.69726607  0.10081555  0.70386331  1
  Nb  Nb109  1  0.89630051  0.09960417  0.69960758  1
  Nb  Nb110  1  0.30272740  0.90514087  0.69326727  1
  Nb  Nb111  1  0.89647800  0.69675671  0.69643463  1
  Nb  Nb112  1  0.09770383  0.30306823  0.90295156  1
  Nb  Nb113  1  0.69834470  0.29890660  0.70234699  1
  Nb  Nb114  1  0.69807449  0.90298989  0.30473858  1
  Nb  Nb115  1  0.49691489  0.28479143  0.30020200  1
  Nb  Nb116  1  0.30203589  0.69715731  0.90614672  1
  Nb  Nb117  1  0.69393435  0.70147073  0.10551277  1
  Nb  Nb118  1  0.10170148  0.10321571  0.89661122  1
  Nb  Nb119  1  0.89918903  0.50661638  0.70207281  1
  Nb  Nb120  1  0.89552196  0.90033296  0.49779263  1
  Nb  Nb121  1  0.49988857  0.10475055  0.30555217  1
  Nb  Nb122  1  0.30107746  0.10154945  0.89776861  1
  Nb  Nb123  1  0.30107488  0.70325582  0.09536425  1
  Nb  Nb124  1  0.29878809  0.89855010  0.30149227  1
  Nb  Nb125  1  0.80360409  0.19843944  0.40505349  1
  Nb  Nb126  1  0.59617970  0.39308323  0.20433406  1
  Nb  Nb127  1  0.00987082  0.19840388  -0.00174423  1
  Nb  Nb128  1  0.20818282  0.80069393  0.19668273  1
  Nb  Nb129  1  0.60787135  0.80297603  0.59671032  1
  Nb  Nb130  1  0.79491637  0.19515328  0.60515097  1
  Nb  Nb131  1  0.40064078  0.39246970  0.39293738  1
  Nb  Nb132  1  0.00520380  0.39055190  0.39328588  1
  Nb  Nb133  1  0.00405039  0.39176540  0.20370651  1
  Nb  Nb134  1  -0.00079951  0.40466649  0.79869000  1
  Nb  Nb135  1  0.60218803  0.00108596  -0.00192092  1
  Nb  Nb136  1  -0.00973964  0.79965906  0.59891734  1
  Nb  Nb137  1  0.20038905  0.20367681  0.39253896  1
  Nb  Nb138  1  0.60676205  0.19503255  0.60357113  1
  Nb  Nb139  1  0.58864301  0.39294530  0.39068929  1
  Nb  Nb140  1  0.19627743  0.39247331  0.00253137  1
  Nb  Nb141  1  0.39391885  0.80252504  0.20074581  1
  Nb  Nb142  1  -0.00405053  -0.00418384  0.40737052  1
  Nb  Nb143  1  -0.00457582  0.60394454  0.60330473  1
  Nb  Nb144  1  0.60505818  0.39759002  0.79310005  1
  Nb  Nb145  1  0.79874803  0.60902205  0.19878043  1
  Nb  Nb146  1  0.20484334  0.60832351  0.80464714  1
  Nb  Nb147  1  0.79834003  0.80261805  0.59708933  1
  Nb  Nb148  1  0.79801516  0.40247757  -0.00071684  1
  Nb  Nb149  1  0.19819385  0.20054234  -0.00554780  1
  Pd  Pd150  1  0.39420940  0.80003017  0.80299920  1
  Pd  Pd151  1  0.79621039  0.79929265  0.79188278  1
  Pd  Pd152  1  0.19987143  0.00403949  -0.00991607  1
  Pd  Pd153  1  0.41350791  0.40547960  0.79825459  1
  Pd  Pd154  1  0.40112073  -0.00318811  0.80669701  1
  Pd  Pd155  1  0.80381291  0.19705004  0.79977703  1
  Pd  Pd156  1  0.79792440  0.39727313  0.59336452  1
  Pd  Pd157  1  0.19883135  0.60611519  0.39720253  1
  Pd  Pd158  1  0.40403761  0.59377321  0.40430025  1
  Pd  Pd159  1  0.60550046  0.40230477  -0.00396480  1
  Pd  Pd160  1  0.00263288  0.40397602  0.60472252  1
  Pd  Pd161  1  0.79003762  0.60921376  0.80249388  1
  Pd  Pd162  1  -0.00509660  0.20699420  0.80026195  1
  Pd  Pd163  1  0.19919963  0.80412209  0.00438285  1
  Pd  Pd164  1  -0.00271349  0.20245738  0.61940154  1
  Pd  Pd165  1  0.60500843  0.19743106  0.19862515  1
  Pd  Pd166  1  0.80136637  0.19137137  0.20562007  1
  Pd  Pd167  1  0.40692235  0.80272908  0.00693482  1
  Pd  Pd168  1  0.20106339  0.38835844  0.40887373  1
  Pd  Pd169  1  -0.00340006  0.60976962  -0.00140982  1
  Pd  Pd170  1  -0.00241885  -0.01168815  0.21229677  1
  Pd  Pd171  1  0.79392886  0.79941963  0.00604502  1
  Pd  Pd172  1  0.79466956  0.00134727  0.00073688  1
  Pd  Pd173  1  0.00066696  0.58780537  0.39509432  1
  Pd  Pd174  1  0.40871345  0.19608151  0.79131816  1
  Pd  Pd175  1  0.20659301  0.18940974  0.20168076  1
  Pd  Pd176  1  0.21272477  0.80410051  0.80260963  1
  Pd  Pd177  1  0.20188986  0.19968053  0.80271126  1
  Pd  Pd178  1  0.19507311  0.41096270  0.81187440  1
  Pd  Pd179  1  0.60026531  0.79080833  0.79123850  1
  Pd  Pd180  1  0.41044582  0.40089520  0.20322483  1
  Pd  Pd181  1  -0.00550735  0.00598672  -0.00184651  1
  Pd  Pd182  1  0.40750309  0.80546801  0.39448153  1
  Pd  Pd183  1  0.39501273  0.40391230  0.00729117  1
  Pd  Pd184  1  0.00891502  0.59813211  0.79681377  1
  Pd  Pd185  1  0.20569727  0.00143615  0.59624934  1
  Pd  Pd186  1  0.80048638  0.60133044  0.39181622  1
  Pd  Pd187  1  0.19514241  0.61155215  0.60295053  1
  Pd  Pd188  1  0.58497088  0.20530037  0.78943711  1
  Pd  Pd189  1  0.20266365  0.59273446  -0.00295017  1
  Pd  Pd190  1  0.58909480  0.80861002  0.40528970  1
  Pd  Pd191  1  0.79446280  -0.00113929  0.60515690  1
  Pd  Pd192  1  -0.00402211  0.20215413  0.19350922  1
  Pd  Pd193  1  0.80046142  0.60353815  0.00549654  1
  Pd  Pd194  1  0.20578222  0.39281050  0.59480796  1
  Pd  Pd195  1  0.00974971  0.80860669  0.20538414  1
  Pd  Pd196  1  0.00280550  -0.01072792  0.60414160  1
  Pd  Pd197  1  0.80873594  0.19779433  -0.00265261  1
  Pd  Pd198  1  0.59675788  0.39669103  0.59903931  1
  Pd  Pd199  1  0.60525713  0.59920156  0.79260255  1
  Rh  Rh200  1  0.80549915  0.00261060  0.39323036  1
  Rh  Rh201  1  0.59844383  0.60595522  0.60338849  1
  Rh  Rh202  1  0.38470912  0.19857824  0.38951317  1
  Rh  Rh203  1  0.40543915  -0.00337357  0.20584414  1
  Rh  Rh204  1  0.60297484  -0.00138243  0.59468499  1
  Rh  Rh205  1  0.20922100  -0.00204330  0.80403761  1
  Rh  Rh206  1  0.80082138  0.00275096  0.80175872  1
  Rh  Rh207  1  0.39621840  0.60193581  0.59700128  1
  Rh  Rh208  1  0.20115201  0.79334530  0.38999968  1
  Rh  Rh209  1  0.40220627  0.60214534  0.00444071  1
  Rh  Rh210  1  0.60249961  0.80643131  0.00445955  1
  Rh  Rh211  1  0.60163122  0.18784036  0.00906231  1
  Rh  Rh212  1  0.39341639  0.20256994  0.00329316  1
  Rh  Rh213  1  0.40529530  0.18604073  0.60925092  1
  Rh  Rh214  1  0.41034674  -0.00343726  -0.00515285  1
  Rh  Rh215  1  0.60987408  0.19865221  0.40386600  1
  Rh  Rh216  1  0.39174057  0.60303920  0.79986604  1
  Rh  Rh217  1  -0.00682988  0.80757883  0.79252628  1
  Rh  Rh218  1  0.59291430  0.58800088  0.39892542  1
  Rh  Rh219  1  0.19237026  0.01045811  0.40185112  1
  Rh  Rh220  1  -0.00956287  0.58912640  0.20679285  1
  Rh  Rh221  1  0.79286845  0.79699623  0.20367369  1
  Rh  Rh222  1  0.59755979  0.60627142  -0.00078772  1
  Rh  Rh223  1  0.40323924  0.80479569  0.59355844  1
  Rh  Rh224  1  0.58855254  0.00282973  0.80923033  1
  Rh  Rh225  1  0.80676378  0.40978038  0.18581441  1
  Rh  Rh226  1  0.39997590  0.61233171  0.19163132  1
  Rh  Rh227  1  0.59732910  -0.00293827  0.39996071  1
  Rh  Rh228  1  0.19499011  0.40380392  0.19394948  1
  Rh  Rh229  1  0.40139987  -0.00017361  0.39611313  1
  Rh  Rh230  1  0.80428682  0.39177440  0.40985930  1
  Rh  Rh231  1  0.00607468  0.19739311  0.39573827  1
  Rh  Rh232  1  0.39210744  0.00030254  0.59656119  1
  Rh  Rh233  1  -0.00088376  0.80814686  0.39837069  1
  Rh  Rh234  1  0.19873561  0.80465246  0.59911224  1
  Rh  Rh235  1  0.79835159  0.79836639  0.39667118  1
  Rh  Rh236  1  -0.00148357  0.00056393  0.79760945  1
  Rh  Rh237  1  0.79733852  -0.00515789  0.20679456  1
  Rh  Rh238  1  0.60051592  0.00226788  0.19718456  1
  Rh  Rh239  1  0.79406786  0.40356614  0.80972992  1
  Rh  Rh240  1  0.39343531  0.19235162  0.20538474  1
  Rh  Rh241  1  -0.00429921  0.39103498  0.00119830  1
  Rh  Rh242  1  0.60563940  0.59508332  0.20038638  1
  Rh  Rh243  1  0.39531582  0.40444428  0.59230357  1
  Rh  Rh244  1  0.59397981  0.80452028  0.20340121  1
  Rh  Rh245  1  -0.00004212  0.80094041  0.00238633  1
  Rh  Rh246  1  0.80639800  0.60444459  0.59251593  1
  Rh  Rh247  1  0.20690267  0.19144107  0.60130175  1
  Rh  Rh248  1  0.19949451  -0.00625334  0.20226746  1
  Rh  Rh249  1  0.20149634  0.61010150  0.19884317  1
