# generated using pymatgen
data_ZrScNbPdRh
_symmetry_space_group_name_H-M   'P 1'
_cell_length_a   16.56278418
_cell_length_b   16.55698737
_cell_length_c   16.56092296
_cell_angle_alpha   90.00391897
_cell_angle_beta   89.99305972
_cell_angle_gamma   89.99522176
_symmetry_Int_Tables_number   1
_chemical_formula_structural   ZrScNbPdRh
_chemical_formula_sum   'Zr50 Sc50 Nb50 Pd50 Rh50'
_cell_volume   4541.49867407
_cell_formula_units_Z   50
loop_
 _symmetry_equiv_pos_site_id
 _symmetry_equiv_pos_as_xyz
  1  'x, y, z'
loop_
 _atom_site_type_symbol
 _atom_site_label
 _atom_site_symmetry_multiplicity
 _atom_site_fract_x
 _atom_site_fract_y
 _atom_site_fract_z
 _atom_site_occupancy
  Zr  Zr0  1  0.50257251  0.50167281  0.30477679  1
  Zr  Zr1  1  0.90353878  0.49972506  0.89781741  1
  Zr  Zr2  1  0.90771295  0.30455659  0.09883800  1
  Zr  Zr3  1  0.10831073  0.49960001  0.09901469  1
  Zr  Zr4  1  0.89777579  0.68986933  0.09930716  1
  Zr  Zr5  1  0.69579510  0.49814799  0.69548960  1
  Zr  Zr6  1  0.09837677  0.70204523  0.71174917  1
  Zr  Zr7  1  0.49653753  0.70108728  0.30219981  1
  Zr  Zr8  1  0.09444037  0.89056970  0.29730779  1
  Zr  Zr9  1  0.90474422  0.69423080  0.89649597  1
  Zr  Zr10  1  0.10743309  0.30713371  0.09154102  1
  Zr  Zr11  1  0.49828393  0.69548261  0.49922222  1
  Zr  Zr12  1  0.70129724  0.09565843  0.30625259  1
  Zr  Zr13  1  0.70038995  0.70820664  0.09857099  1
  Zr  Zr14  1  0.10288261  0.11581458  0.49717431  1
  Zr  Zr15  1  0.90930554  0.29347193  0.50522548  1
  Zr  Zr16  1  0.49468377  0.88843087  0.70580511  1
  Zr  Zr17  1  0.49598326  0.50497218  0.11003703  1
  Zr  Zr18  1  0.90696059  0.50038223  0.69704371  1
  Zr  Zr19  1  0.50455153  0.70343029  0.89633688  1
  Zr  Zr20  1  0.70374611  0.70627482  0.68699103  1
  Zr  Zr21  1  0.89572478  0.89109042  0.10793686  1
  Zr  Zr22  1  0.69346058  0.89117468  0.89680702  1
  Zr  Zr23  1  0.89939043  0.50416617  0.30261141  1
  Zr  Zr24  1  0.70055329  0.51255106  0.09871215  1
  Zr  Zr25  1  0.10423660  0.10459886  0.30640896  1
  Zr  Zr26  1  0.49970292  0.29647136  0.89350679  1
  Zr  Zr27  1  0.50000640  0.50636263  0.89277262  1
  Zr  Zr28  1  0.69769842  0.50499190  0.89987999  1
  Zr  Zr29  1  0.10403899  0.10611561  0.08465626  1
  Zr  Zr30  1  0.90344012  0.10106983  0.89627745  1
  Zr  Zr31  1  0.90206064  0.10079766  0.09823790  1
  Zr  Zr32  1  0.71348387  0.90148707  0.50293737  1
  Zr  Zr33  1  0.90927980  0.70052800  0.29998058  1
  Zr  Zr34  1  0.70198298  0.28670590  0.50279203  1
  Zr  Zr35  1  0.69397120  0.30129770  0.31085198  1
  Zr  Zr36  1  0.89799924  0.90002663  0.30990264  1
  Zr  Zr37  1  0.70288190  0.09666982  0.68632778  1
  Zr  Zr38  1  0.29820532  0.50144890  0.70046187  1
  Zr  Zr39  1  0.69725724  0.09729092  0.10668544  1
  Zr  Zr40  1  0.09982918  0.10158976  0.88927045  1
  Zr  Zr41  1  0.09934864  0.29516445  0.69592741  1
  Zr  Zr42  1  0.29924387  0.70051615  0.49908975  1
  Zr  Zr43  1  0.69511447  0.09998531  0.89363073  1
  Zr  Zr44  1  0.10679140  0.30674918  0.50417673  1
  Zr  Zr45  1  0.90679477  0.30129179  0.89016871  1
  Zr  Zr46  1  0.30980017  0.90212239  0.89858536  1
  Zr  Zr47  1  0.29348598  0.69100331  0.10192900  1
  Zr  Zr48  1  0.90089307  0.70132870  0.69934550  1
  Zr  Zr49  1  0.90601968  0.10353337  0.70426847  1
  Sc  Sc50  1  0.69412200  0.29625704  0.89135256  1
  Sc  Sc51  1  0.89210100  0.89583933  0.69996408  1
  Sc  Sc52  1  0.29768911  0.09769247  0.89657619  1
  Sc  Sc53  1  0.30703080  0.90162447  0.49463291  1
  Sc  Sc54  1  0.10212595  0.68918471  0.90310915  1
  Sc  Sc55  1  0.10056760  0.49519693  0.69520486  1
  Sc  Sc56  1  0.69924671  0.89802812  0.69861255  1
  Sc  Sc57  1  0.29513103  0.49890340  0.29454258  1
  Sc  Sc58  1  0.30039243  0.10654584  0.70011229  1
  Sc  Sc59  1  0.09673553  0.90036101  0.71152981  1
  Sc  Sc60  1  0.29277986  0.50560784  0.90018780  1
  Sc  Sc61  1  0.69136495  0.29384654  0.69758721  1
  Sc  Sc62  1  0.90224326  0.10169525  0.30911060  1
  Sc  Sc63  1  0.29806277  0.69901813  0.29855607  1
  Sc  Sc64  1  0.70084244  0.49701713  0.30036738  1
  Sc  Sc65  1  0.29710456  0.29841984  0.69962782  1
  Sc  Sc66  1  0.30047489  0.89559924  0.10346680  1
  Sc  Sc67  1  0.10653204  0.89472516  0.89419005  1
  Sc  Sc68  1  0.10874533  0.88928038  0.10269508  1
  Sc  Sc69  1  0.10596241  0.30560099  0.30704504  1
  Sc  Sc70  1  0.51130165  0.29033514  0.49623492  1
  Sc  Sc71  1  0.30642933  0.10520672  0.31411613  1
  Sc  Sc72  1  0.29205361  0.69522796  0.89431615  1
  Sc  Sc73  1  0.68872172  0.29856150  0.10464436  1
  Sc  Sc74  1  0.49655057  0.09790698  0.69501962  1
  Sc  Sc75  1  0.48880879  0.89870968  0.50700587  1
  Sc  Sc76  1  0.69857364  0.50094749  0.49478828  1
  Sc  Sc77  1  0.29158002  0.29961772  0.89314869  1
  Sc  Sc78  1  0.50038148  0.10203460  0.10711822  1
  Sc  Sc79  1  0.49868108  0.90064874  0.89250098  1
  Sc  Sc80  1  0.28658370  0.50579700  0.50114012  1
  Sc  Sc81  1  0.30578903  0.89556283  0.29820500  1
  Sc  Sc82  1  0.88745642  0.10084468  0.50392708  1
  Sc  Sc83  1  0.89615182  0.68834699  0.50129590  1
  Sc  Sc84  1  0.10055516  0.90190790  0.48139210  1
  Sc  Sc85  1  0.30364480  0.09198006  0.08606361  1
  Sc  Sc86  1  0.90213621  0.31114965  0.29875759  1
  Sc  Sc87  1  0.29564082  0.29624579  0.50256272  1
  Sc  Sc88  1  0.49516436  0.89586618  0.30181121  1
  Sc  Sc89  1  0.29921053  0.69925089  0.70099069  1
  Sc  Sc90  1  0.49132229  0.90446262  0.10730990  1
  Sc  Sc91  1  0.30453736  0.89349136  0.70430589  1
  Sc  Sc92  1  0.89834695  0.89507418  0.88747138  1
  Sc  Sc93  1  0.10572521  0.50400273  0.30070620  1
  Sc  Sc94  1  0.90194385  0.50189260  0.10743365  1
  Sc  Sc95  1  0.49608144  0.29887185  0.29668949  1
  Sc  Sc96  1  0.69719772  0.69902272  0.90539314  1
  Sc  Sc97  1  0.49580136  0.10313690  0.30413932  1
  Sc  Sc98  1  0.50068835  0.69524169  0.10666842  1
  Sc  Sc99  1  0.30289600  0.30425054  0.30093092  1
  Nb  Nb100  1  0.10230103  0.69774512  0.48690955  1
  Nb  Nb101  1  0.30612601  0.10021182  0.50027157  1
  Nb  Nb102  1  0.50014703  0.50070440  0.49977786  1
  Nb  Nb103  1  0.29850537  0.49374098  0.10277052  1
  Nb  Nb104  1  0.90685996  0.90220350  0.50191522  1
  Nb  Nb105  1  0.70180982  0.89889362  0.30283115  1
  Nb  Nb106  1  0.09953547  0.70034864  0.10679740  1
  Nb  Nb107  1  0.50098814  0.50009475  0.69463578  1
  Nb  Nb108  1  0.49558427  0.09590823  0.90713702  1
  Nb  Nb109  1  0.69032637  0.10145415  0.50303253  1
  Nb  Nb110  1  0.69211297  0.72127410  0.31374003  1
  Nb  Nb111  1  0.70023489  0.70299371  0.49992973  1
  Nb  Nb112  1  0.09873551  0.50287737  0.49896278  1
  Nb  Nb113  1  0.10127020  0.09666783  0.69721256  1
  Nb  Nb114  1  0.10136758  0.70262508  0.29931438  1
  Nb  Nb115  1  0.09822206  0.49578998  0.89980522  1
  Nb  Nb116  1  0.49179503  0.30476179  0.10042990  1
  Nb  Nb117  1  0.30232427  0.30838680  0.10205720  1
  Nb  Nb118  1  0.90241846  0.50271283  0.50213416  1
  Nb  Nb119  1  0.49651654  0.30883825  0.69797047  1
  Nb  Nb120  1  0.10102679  0.29844222  0.90401642  1
  Nb  Nb121  1  0.70203987  0.90363842  0.10264539  1
  Nb  Nb122  1  0.49507027  0.09692604  0.49682208  1
  Nb  Nb123  1  0.49773462  0.69936366  0.69619333  1
  Nb  Nb124  1  0.90402673  0.30441965  0.69703747  1
  Nb  Nb125  1  0.59305396  0.40182869  0.00134488  1
  Nb  Nb126  1  0.20251959  0.19903028  0.19377922  1
  Nb  Nb127  1  0.40836762  0.40472651  0.59891647  1
  Nb  Nb128  1  0.00069989  0.79615526  0.00367017  1
  Nb  Nb129  1  0.80658445  0.39796871  0.59923964  1
  Nb  Nb130  1  0.00587787  -0.00190239  0.59803016  1
  Nb  Nb131  1  0.60357936  -0.00032294  0.40651327  1
  Nb  Nb132  1  0.00605071  0.00318991  0.19674457  1
  Nb  Nb133  1  0.00099869  0.40952355  0.40957728  1
  Nb  Nb134  1  0.00594181  0.20012630  0.19743743  1
  Nb  Nb135  1  0.19535871  0.00734878  0.20343910  1
  Nb  Nb136  1  0.80287080  0.20197878  0.19820614  1
  Nb  Nb137  1  0.79451161  0.39631185  -0.00111869  1
  Nb  Nb138  1  0.40003987  0.40057891  0.00237246  1
  Nb  Nb139  1  0.79663705  -0.00191643  0.00060356  1
  Nb  Nb140  1  0.19646153  -0.00018676  0.59624122  1
  Nb  Nb141  1  -0.00266425  -0.00873489  0.00137337  1
  Nb  Nb142  1  0.40449006  0.40546781  0.41012083  1
  Nb  Nb143  1  0.80003295  0.59822327  0.79430114  1
  Nb  Nb144  1  0.79880290  0.20140923  0.00108458  1
  Nb  Nb145  1  0.60376976  -0.00196025  0.00196692  1
  Nb  Nb146  1  0.00652005  0.80284444  0.59141810  1
  Nb  Nb147  1  0.39828125  0.79492019  -0.00130863  1
  Nb  Nb148  1  0.19137314  0.80389859  0.59513531  1
  Nb  Nb149  1  0.40301391  0.20881331  0.00098140  1
  Pd  Pd150  1  0.79429325  0.40099923  0.79587407  1
  Pd  Pd151  1  0.79776720  0.20365459  0.79589801  1
  Pd  Pd152  1  0.59885346  0.40041262  0.80185666  1
  Pd  Pd153  1  0.38939821  0.59323547  0.39675137  1
  Pd  Pd154  1  0.59644938  0.80591270  0.59334998  1
  Pd  Pd155  1  0.19131877  0.60901419  0.60450742  1
  Pd  Pd156  1  0.60606856  0.61004247  0.78966082  1
  Pd  Pd157  1  0.40364607  0.20888383  0.59556449  1
  Pd  Pd158  1  0.00849755  0.59488306  0.20137310  1
  Pd  Pd159  1  0.80667544  0.80300930  -0.00689932  1
  Pd  Pd160  1  0.59138899  0.81279215  0.41262661  1
  Pd  Pd161  1  0.60878741  0.60155748  0.39766309  1
  Pd  Pd162  1  0.59127165  0.19078833  0.78876290  1
  Pd  Pd163  1  0.20148896  0.79657579  -0.00516499  1
  Pd  Pd164  1  0.58672094  0.80850109  0.01110069  1
  Pd  Pd165  1  0.79776822  -0.00291928  0.79882737  1
  Pd  Pd166  1  0.60179148  0.39626725  0.59112817  1
  Pd  Pd167  1  0.59968160  0.20246785  0.20810210  1
  Pd  Pd168  1  0.80981684  0.79427860  0.40800723  1
  Pd  Pd169  1  0.78751438  0.61330604  0.21579487  1
  Pd  Pd170  1  0.19462364  -0.01100198  0.00128585  1
  Pd  Pd171  1  0.39045504  -0.00155728  0.60735587  1
  Pd  Pd172  1  0.19454264  0.40057471  0.79930865  1
  Pd  Pd173  1  0.80557025  0.20263296  0.39435246  1
  Pd  Pd174  1  0.39482929  0.40253994  0.79889334  1
  Pd  Pd175  1  0.20908203  -0.00197940  0.39867826  1
  Pd  Pd176  1  0.59503069  -0.00807610  0.20754874  1
  Pd  Pd177  1  0.59321649  0.00265604  0.79935199  1
  Pd  Pd178  1  0.79268534  0.39501243  0.19295293  1
  Pd  Pd179  1  0.59672013  0.19939178  0.00187946  1
  Pd  Pd180  1  0.40052540  0.19509168  0.80350551  1
  Pd  Pd181  1  0.80648561  0.39819843  0.41084181  1
  Pd  Pd182  1  -0.00352525  0.40742386  -0.00033421  1
  Pd  Pd183  1  -0.00103676  0.00816609  0.40384212  1
  Pd  Pd184  1  0.60128267  0.60224510  0.59639769  1
  Pd  Pd185  1  0.38961865  0.00903243  0.20572436  1
  Pd  Pd186  1  0.80865403  0.00389551  0.20370293  1
  Pd  Pd187  1  0.20868479  0.80300879  0.39839772  1
  Pd  Pd188  1  0.39832285  0.60098421  -0.00004070  1
  Pd  Pd189  1  0.01031510  0.60932388  0.59760386  1
  Pd  Pd190  1  0.79112797  0.60641317  0.39568612  1
  Pd  Pd191  1  0.79717850  0.79365699  0.20831246  1
  Pd  Pd192  1  0.60090173  0.40069360  0.19881818  1
  Pd  Pd193  1  0.20811505  -0.00129369  0.79075604  1
  Pd  Pd194  1  0.59425930  -0.00897747  0.59554271  1
  Pd  Pd195  1  0.38972140  0.19369474  0.19393364  1
  Pd  Pd196  1  0.39831299  0.59704892  0.60061455  1
  Pd  Pd197  1  0.61039286  0.61025418  0.21225343  1
  Pd  Pd198  1  0.59735236  0.80662298  0.19627515  1
  Pd  Pd199  1  0.39944598  0.60427168  0.79627374  1
  Rh  Rh200  1  0.00213798  0.59163253  0.79947791  1
  Rh  Rh201  1  0.00756770  0.60066703  0.00659349  1
  Rh  Rh202  1  0.39763581  0.78936303  0.80597024  1
  Rh  Rh203  1  0.00129710  0.80080740  0.80491168  1
  Rh  Rh204  1  -0.00230345  0.21418381  0.39138174  1
  Rh  Rh205  1  0.00775093  0.20612352  0.79623396  1
  Rh  Rh206  1  0.59415683  0.59868595  0.00405741  1
  Rh  Rh207  1  0.19853872  0.39433020  0.20292396  1
  Rh  Rh208  1  0.40905039  -0.00435262  -0.00155309  1
  Rh  Rh209  1  0.20789018  0.40288999  -0.00836840  1
  Rh  Rh210  1  0.19621274  0.59599212  0.00212600  1
  Rh  Rh211  1  0.21511293  0.20852678  0.00082049  1
  Rh  Rh212  1  0.20825566  0.40252283  0.60113003  1
  Rh  Rh213  1  0.01140485  0.39662248  0.79900808  1
  Rh  Rh214  1  -0.00668143  0.78979439  0.40769648  1
  Rh  Rh215  1  0.19822518  0.60182023  0.20155624  1
  Rh  Rh216  1  -0.00018168  0.79892019  0.19531555  1
  Rh  Rh217  1  0.40718320  -0.00033271  0.39807235  1
  Rh  Rh218  1  0.79377808  0.59130420  0.60204120  1
  Rh  Rh219  1  0.19524366  0.20077833  0.79774506  1
  Rh  Rh220  1  0.19419545  0.59225041  0.79658001  1
  Rh  Rh221  1  0.59439806  0.39986574  0.40279371  1
  Rh  Rh222  1  0.20238340  0.40429536  0.40356342  1
  Rh  Rh223  1  0.19885166  0.60102448  0.39443596  1
  Rh  Rh224  1  0.20403842  0.79943821  0.79720989  1
  Rh  Rh225  1  0.81062873  0.79972454  0.59182576  1
  Rh  Rh226  1  0.00498913  0.59693056  0.39859527  1
  Rh  Rh227  1  0.80357941  0.59301787  -0.00713673  1
  Rh  Rh228  1  0.79606145  0.00152762  0.40572450  1
  Rh  Rh229  1  0.58998169  0.19667804  0.60526166  1
  Rh  Rh230  1  0.39234487  0.79207506  0.60106774  1
  Rh  Rh231  1  0.20387057  0.80127256  0.20599263  1
  Rh  Rh232  1  -0.00385341  0.19891587  -0.00563932  1
  Rh  Rh233  1  0.01080134  0.40052351  0.21162308  1
  Rh  Rh234  1  0.60288656  0.79335091  0.79054272  1
  Rh  Rh235  1  0.40006676  0.20951443  0.40688388  1
  Rh  Rh236  1  0.80763482  -0.00015032  0.60236704  1
  Rh  Rh237  1  -0.00158580  0.40262289  0.59514623  1
  Rh  Rh238  1  0.39742909  0.79031169  0.19221938  1
  Rh  Rh239  1  0.39381964  0.59849487  0.20539248  1
  Rh  Rh240  1  -0.00021999  0.19164771  0.60378588  1
  Rh  Rh241  1  0.40005517  0.40673610  0.20693107  1
  Rh  Rh242  1  0.40154867  0.79583102  0.40047457  1
  Rh  Rh243  1  0.80302151  0.20581371  0.60823691  1
  Rh  Rh244  1  0.20488669  0.19178864  0.60160884  1
  Rh  Rh245  1  -0.00136752  -0.00463227  0.79915735  1
  Rh  Rh246  1  0.20980762  0.20677032  0.39768759  1
  Rh  Rh247  1  0.59457742  0.19026338  0.39704093  1
  Rh  Rh248  1  0.79238111  0.78814247  0.80246828  1
  Rh  Rh249  1  0.40094222  0.00678833  0.79620561  1
