# generated using pymatgen
data_ZrScNbPdRh
_symmetry_space_group_name_H-M   'P 1'
_cell_length_a   16.56288601
_cell_length_b   16.55742682
_cell_length_c   16.56193201
_cell_angle_alpha   89.97361069
_cell_angle_beta   90.00254694
_cell_angle_gamma   90.00243262
_symmetry_Int_Tables_number   1
_chemical_formula_structural   ZrScNbPdRh
_chemical_formula_sum   'Zr50 Sc50 Nb50 Pd50 Rh50'
_cell_volume   4541.92342380
_cell_formula_units_Z   50
loop_
 _symmetry_equiv_pos_site_id
 _symmetry_equiv_pos_as_xyz
  1  'x, y, z'
loop_
 _atom_site_type_symbol
 _atom_site_label
 _atom_site_symmetry_multiplicity
 _atom_site_fract_x
 _atom_site_fract_y
 _atom_site_fract_z
 _atom_site_occupancy
  Zr  Zr0  1  0.69155135  0.49951286  0.10021183  1
  Zr  Zr1  1  0.49848632  0.30381736  0.90083588  1
  Zr  Zr2  1  0.10443172  0.29271108  0.50138196  1
  Zr  Zr3  1  0.50680342  0.10444319  0.30281378  1
  Zr  Zr4  1  0.09257273  0.30073132  0.70174500  1
  Zr  Zr5  1  0.49328422  0.50472620  0.50975856  1
  Zr  Zr6  1  0.09837958  0.10524101  0.89686689  1
  Zr  Zr7  1  0.89640347  0.30069641  0.10142896  1
  Zr  Zr8  1  0.10353393  0.30229482  0.30009067  1
  Zr  Zr9  1  0.10239002  0.50327925  0.49739827  1
  Zr  Zr10  1  0.69804474  0.30081356  0.10768135  1
  Zr  Zr11  1  0.90385912  0.09796480  0.90187498  1
  Zr  Zr12  1  0.70223607  0.29612464  0.49912961  1
  Zr  Zr13  1  0.90077826  0.90418923  0.50446731  1
  Zr  Zr14  1  0.69931466  0.10504615  0.10443414  1
  Zr  Zr15  1  0.10196872  0.48869094  0.90288328  1
  Zr  Zr16  1  0.29581792  0.50425698  0.29986442  1
  Zr  Zr17  1  0.50235883  0.89092821  0.90100652  1
  Zr  Zr18  1  0.91071320  0.89250305  0.31139492  1
  Zr  Zr19  1  0.70368166  0.70058962  0.70016413  1
  Zr  Zr20  1  0.69575955  0.69781572  0.89493991  1
  Zr  Zr21  1  0.10857906  0.90024214  0.69241144  1
  Zr  Zr22  1  0.69004647  0.30407598  0.89384540  1
  Zr  Zr23  1  0.29780336  0.11000075  0.90944979  1
  Zr  Zr24  1  0.69296808  0.50152606  0.89321440  1
  Zr  Zr25  1  0.89567984  0.90380741  0.89793431  1
  Zr  Zr26  1  0.90845976  0.70517681  0.50073646  1
  Zr  Zr27  1  0.90059525  0.30297353  0.69391132  1
  Zr  Zr28  1  0.29300552  0.10826270  0.50387090  1
  Zr  Zr29  1  0.89424005  0.10485020  0.09874323  1
  Zr  Zr30  1  0.09731576  0.10751090  0.30768405  1
  Zr  Zr31  1  0.70149324  0.49979104  0.29319134  1
  Zr  Zr32  1  0.49493001  0.90120602  0.09662312  1
  Zr  Zr33  1  0.30327050  0.30530176  0.29468005  1
  Zr  Zr34  1  0.29702127  0.69026372  0.11002798  1
  Zr  Zr35  1  0.50101534  0.50602835  0.90569866  1
  Zr  Zr36  1  0.50338255  0.70031470  0.50762188  1
  Zr  Zr37  1  0.70026915  0.89713906  0.89109229  1
  Zr  Zr38  1  0.90051601  0.09949306  0.69252868  1
  Zr  Zr39  1  0.49097345  0.90338839  0.30095995  1
  Zr  Zr40  1  0.10067377  0.09371959  0.49997810  1
  Zr  Zr41  1  0.10009363  0.70303942  0.69603629  1
  Zr  Zr42  1  0.50049191  0.29371605  0.69209584  1
  Zr  Zr43  1  0.69730837  0.30179956  0.29775121  1
  Zr  Zr44  1  0.09701765  0.90703376  0.90410158  1
  Zr  Zr45  1  0.49557059  0.49856445  0.09793300  1
  Zr  Zr46  1  0.30003532  0.90307197  0.11319044  1
  Zr  Zr47  1  0.70721296  0.69737460  0.10701560  1
  Zr  Zr48  1  0.10044995  0.30588267  0.89261086  1
  Zr  Zr49  1  0.49077346  0.70403826  0.30273000  1
  Sc  Sc50  1  0.50067484  0.69649375  0.70228964  1
  Sc  Sc51  1  0.10789489  0.90165793  0.10727624  1
  Sc  Sc52  1  0.28330178  0.90721711  0.49371240  1
  Sc  Sc53  1  0.30756026  0.69696521  0.49217095  1
  Sc  Sc54  1  0.90030939  0.69968056  0.88442773  1
  Sc  Sc55  1  0.90712543  0.50114439  0.10401784  1
  Sc  Sc56  1  0.50238236  0.50739152  0.69246522  1
  Sc  Sc57  1  0.51117264  0.90000693  0.70198551  1
  Sc  Sc58  1  0.69469289  0.09754635  0.69769017  1
  Sc  Sc59  1  0.30619615  0.69463643  0.89431491  1
  Sc  Sc60  1  0.70387920  0.10092092  0.50443397  1
  Sc  Sc61  1  0.29571646  0.49998907  0.89956858  1
  Sc  Sc62  1  0.91062164  0.29917478  0.90265094  1
  Sc  Sc63  1  0.10188404  0.68524060  0.89420292  1
  Sc  Sc64  1  0.30230887  0.09111820  0.30445136  1
  Sc  Sc65  1  0.69875486  0.89182613  0.30776851  1
  Sc  Sc66  1  0.88988845  0.69361273  0.30019162  1
  Sc  Sc67  1  0.89545768  0.49798080  0.69462216  1
  Sc  Sc68  1  0.70078249  0.89893408  0.50930302  1
  Sc  Sc69  1  0.89198182  0.89534454  0.09712220  1
  Sc  Sc70  1  0.90246345  0.10526548  0.50246371  1
  Sc  Sc71  1  0.70337435  0.70609178  0.50595317  1
  Sc  Sc72  1  0.69663590  0.30199395  0.69702234  1
  Sc  Sc73  1  0.09779299  0.10478646  0.69522452  1
  Sc  Sc74  1  0.29846661  0.70520555  0.29629821  1
  Sc  Sc75  1  0.09918445  0.50867772  0.10312962  1
  Sc  Sc76  1  0.89658811  0.29550427  0.29683587  1
  Sc  Sc77  1  0.49392815  0.69185610  0.09552656  1
  Sc  Sc78  1  0.30621842  0.88538030  0.90013124  1
  Sc  Sc79  1  0.70065163  0.09356365  0.89973169  1
  Sc  Sc80  1  0.90273415  0.50045840  0.88994115  1
  Sc  Sc81  1  0.11022790  0.89683594  0.30622370  1
  Sc  Sc82  1  0.29226349  0.29855274  0.69251828  1
  Sc  Sc83  1  0.50926394  0.10076808  0.69895222  1
  Sc  Sc84  1  0.51102211  0.90201036  0.49831606  1
  Sc  Sc85  1  0.89696228  0.50078533  0.50322959  1
  Sc  Sc86  1  0.89944657  0.89912778  0.70177895  1
  Sc  Sc87  1  0.89441398  0.30325665  0.50578754  1
  Sc  Sc88  1  0.10748414  0.09208439  0.09053422  1
  Sc  Sc89  1  0.50811807  0.10105542  0.50522937  1
  Sc  Sc90  1  0.09898522  0.49215119  0.70568864  1
  Sc  Sc91  1  0.48870463  0.30447104  0.10703007  1
  Sc  Sc92  1  0.09239090  0.89615494  0.49446516  1
  Sc  Sc93  1  0.50409979  0.09390927  0.90024258  1
  Sc  Sc94  1  0.29730993  0.30307710  0.50764218  1
  Sc  Sc95  1  0.29206163  0.30646948  0.90658075  1
  Sc  Sc96  1  0.89358623  0.50160139  0.30078393  1
  Sc  Sc97  1  0.69895774  0.11649389  0.30541240  1
  Sc  Sc98  1  0.09476583  0.31564328  0.09538629  1
  Sc  Sc99  1  0.70386300  0.89647951  0.08795953  1
  Nb  Nb100  1  0.70271550  0.50624414  0.69722983  1
  Nb  Nb101  1  0.30401149  0.50189240  0.50838818  1
  Nb  Nb102  1  0.10312964  0.68794868  0.29271304  1
  Nb  Nb103  1  0.09919275  0.50244179  0.30189130  1
  Nb  Nb104  1  0.49877985  0.30084261  0.50239640  1
  Nb  Nb105  1  0.30221476  0.09814796  0.69857844  1
  Nb  Nb106  1  0.30570989  0.10923320  0.09794471  1
  Nb  Nb107  1  0.70281749  0.89978057  0.69519186  1
  Nb  Nb108  1  0.49580405  0.10162512  0.09559006  1
  Nb  Nb109  1  0.30465347  0.29990641  0.09805296  1
  Nb  Nb110  1  0.30679046  0.49054322  0.09873080  1
  Nb  Nb111  1  0.49825947  0.69594470  0.90043820  1
  Nb  Nb112  1  0.09706808  0.69650417  0.49823439  1
  Nb  Nb113  1  0.29736202  0.70762789  0.70365265  1
  Nb  Nb114  1  0.69592760  0.49878766  0.50205040  1
  Nb  Nb115  1  0.09763267  0.69729207  0.10419127  1
  Nb  Nb116  1  0.29788167  0.89519812  0.70259851  1
  Nb  Nb117  1  0.50331098  0.30178981  0.30509601  1
  Nb  Nb118  1  0.30697627  0.50161300  0.68998694  1
  Nb  Nb119  1  0.89732452  0.69920587  0.69741015  1
  Nb  Nb120  1  0.50098561  0.49602800  0.29907530  1
  Nb  Nb121  1  0.90363102  0.69722894  0.10068598  1
  Nb  Nb122  1  0.69687951  0.69396828  0.29704135  1
  Nb  Nb123  1  0.30202558  0.89704262  0.29779517  1
  Nb  Nb124  1  0.90328396  0.09941747  0.29960667  1
  Nb  Nb125  1  0.00298232  0.79373683  0.19830586  1
  Nb  Nb126  1  0.39426567  0.00015443  0.79539669  1
  Nb  Nb127  1  0.00668683  0.40267524  0.39820383  1
  Nb  Nb128  1  0.59775141  0.80081878  0.20154055  1
  Nb  Nb129  1  0.80038327  0.00030694  0.20916639  1
  Nb  Nb130  1  0.79617690  0.40462198  -0.00165915  1
  Nb  Nb131  1  0.60193305  0.59588876  0.39821315  1
  Nb  Nb132  1  0.20836116  0.00129925  0.79823851  1
  Nb  Nb133  1  0.80084772  0.59788782  -0.00106068  1
  Nb  Nb134  1  0.20774629  0.20215441  0.19184333  1
  Nb  Nb135  1  0.40401443  0.40161204  0.40387245  1
  Nb  Nb136  1  0.39381052  -0.00388518  0.60658773  1
  Nb  Nb137  1  0.19394514  0.79181677  0.00728788  1
  Nb  Nb138  1  0.59573152  0.40403777  0.40320835  1
  Nb  Nb139  1  -0.00529764  -0.00175476  0.20527636  1
  Nb  Nb140  1  0.39807944  0.19920466  0.79871704  1
  Nb  Nb141  1  0.00385610  0.79231881  0.00477408  1
  Nb  Nb142  1  0.20456650  0.60273358  0.59973030  1
  Nb  Nb143  1  0.39877003  0.39907625  0.79290591  1
  Nb  Nb144  1  0.40510939  0.20809200  0.40315573  1
  Nb  Nb145  1  0.80602382  0.00272109  0.39481519  1
  Nb  Nb146  1  0.60158384  -0.00210651  0.19913864  1
  Nb  Nb147  1  0.59479588  0.20067547  0.00472514  1
  Nb  Nb148  1  0.80216836  0.20021844  0.79950551  1
  Nb  Nb149  1  0.39359095  0.80751988  0.60528696  1
  Pd  Pd150  1  0.39020144  0.78905418  0.00759741  1
  Pd  Pd151  1  0.40346925  0.00957721  0.20049270  1
  Pd  Pd152  1  0.79664958  0.00620373  0.79271960  1
  Pd  Pd153  1  0.00995449  0.20258334  0.00691040  1
  Pd  Pd154  1  0.00809313  0.00099662  0.79081569  1
  Pd  Pd155  1  0.40063242  0.59465340  0.79633981  1
  Pd  Pd156  1  0.80814138  0.78831677  -0.01045981  1
  Pd  Pd157  1  0.80356985  0.39500839  0.80193137  1
  Pd  Pd158  1  0.20576797  0.79141060  0.58586932  1
  Pd  Pd159  1  0.80262127  0.39921715  0.40154976  1
  Pd  Pd160  1  -0.00516391  -0.00845997  0.01365960  1
  Pd  Pd161  1  0.20340122  0.59275881  0.79058926  1
  Pd  Pd162  1  0.20326853  0.60626910  0.40403694  1
  Pd  Pd163  1  0.80018224  0.60164735  0.59418158  1
  Pd  Pd164  1  0.59749066  0.79560037  0.79401596  1
  Pd  Pd165  1  -0.00076113  0.59464294  0.79027079  1
  Pd  Pd166  1  0.39873265  0.00409444  0.41476963  1
  Pd  Pd167  1  0.79052532  0.20907464  -0.01255384  1
  Pd  Pd168  1  0.19050733  0.21203188  0.00842686  1
  Pd  Pd169  1  0.19490921  0.40593231  0.60298585  1
  Pd  Pd170  1  0.58899170  0.60675215  0.20340513  1
  Pd  Pd171  1  0.19851847  0.40200302  0.19194767  1
  Pd  Pd172  1  0.60330986  0.79223852  0.39774250  1
  Pd  Pd173  1  0.21409398  -0.01020565  -0.00643007  1
  Pd  Pd174  1  -0.00186548  0.80401518  0.60380858  1
  Pd  Pd175  1  0.19206591  0.80191276  0.81307004  1
  Pd  Pd176  1  0.01240151  0.19399105  0.18839894  1
  Pd  Pd177  1  0.00599253  0.80121446  0.80336695  1
  Pd  Pd178  1  -0.00937773  0.21050666  0.40674442  1
  Pd  Pd179  1  0.19705919  0.79148259  0.39964145  1
  Pd  Pd180  1  0.79618646  0.80053598  0.40468608  1
  Pd  Pd181  1  0.20408442  0.59915523  0.00234267  1
  Pd  Pd182  1  0.39936030  0.19569300  0.20816956  1
  Pd  Pd183  1  0.79970845  0.80546688  0.20556453  1
  Pd  Pd184  1  0.40347722  0.59462953  0.39618835  1
  Pd  Pd185  1  0.60288214  0.40087219  0.60001394  1
  Pd  Pd186  1  0.61398111  0.00386541  0.39671765  1
  Pd  Pd187  1  0.59018252  0.40890396  0.78600608  1
  Pd  Pd188  1  0.60449421  0.00372899  0.00339232  1
  Pd  Pd189  1  0.39598444  0.81312457  0.41333171  1
  Pd  Pd190  1  0.00485220  0.59425319  0.60622785  1
  Pd  Pd191  1  -0.00654083  0.60131749  -0.00652634  1
  Pd  Pd192  1  0.59857315  0.78999584  0.00793671  1
  Pd  Pd193  1  0.39333029  -0.00197228  -0.00776055  1
  Pd  Pd194  1  0.20384077  0.40032502  0.40499195  1
  Pd  Pd195  1  0.20528473  0.19913404  0.79418392  1
  Pd  Pd196  1  -0.00437552  0.40510050  0.20907895  1
  Pd  Pd197  1  -0.00589182  0.59731604  0.39481690  1
  Pd  Pd198  1  0.19541390  0.01118583  0.20803331  1
  Pd  Pd199  1  0.79306235  0.60253569  0.40868396  1
  Rh  Rh200  1  0.00075968  0.20189042  0.59504531  1
  Rh  Rh201  1  0.39923053  0.39386579  0.60273130  1
  Rh  Rh202  1  0.40724528  0.20355065  -0.00583834  1
  Rh  Rh203  1  -0.00495653  0.60258561  0.20871687  1
  Rh  Rh204  1  0.00299519  0.40114357  0.59001618  1
  Rh  Rh205  1  0.79201984  0.40501852  0.60129180  1
  Rh  Rh206  1  0.20170134  0.40335102  0.00753843  1
  Rh  Rh207  1  0.39299320  0.59753172  -0.00272042  1
  Rh  Rh208  1  0.19773413  0.00083308  0.39461015  1
  Rh  Rh209  1  0.59555024  0.79968001  0.60496571  1
  Rh  Rh210  1  0.60453866  0.60749913  -0.00013532  1
  Rh  Rh211  1  0.59591419  0.59937062  0.79625477  1
  Rh  Rh212  1  -0.00913791  0.19721113  0.79756916  1
  Rh  Rh213  1  0.60462253  0.19936746  0.59533157  1
  Rh  Rh214  1  0.40393043  0.79910488  0.19579960  1
  Rh  Rh215  1  0.59668403  0.20657894  0.40947287  1
  Rh  Rh216  1  -0.00064748  0.00334705  0.39974830  1
  Rh  Rh217  1  0.80668833  0.80036493  0.60497658  1
  Rh  Rh218  1  0.21046767  0.40250238  0.79330380  1
  Rh  Rh219  1  0.21404295  0.20220657  0.38969938  1
  Rh  Rh220  1  0.80115116  0.80049035  0.79422351  1
  Rh  Rh221  1  0.79910698  -0.00026394  0.00332550  1
  Rh  Rh222  1  0.40170746  0.40570095  0.20491263  1
  Rh  Rh223  1  0.80525615  0.40346731  0.19338672  1
  Rh  Rh224  1  0.60201701  0.19275544  0.80939467  1
  Rh  Rh225  1  0.79650660  0.19974369  0.60881818  1
  Rh  Rh226  1  0.39549093  0.40213989  -0.00796516  1
  Rh  Rh227  1  -0.00775490  0.40682426  -0.00194127  1
  Rh  Rh228  1  0.19430824  0.19800675  0.60586291  1
  Rh  Rh229  1  0.01077793  0.78112956  0.38958599  1
  Rh  Rh230  1  0.79976453  0.59991239  0.79847194  1
  Rh  Rh231  1  0.58901232  0.19766982  0.19148753  1
  Rh  Rh232  1  0.20060405  0.00252452  0.60371494  1
  Rh  Rh233  1  0.59207839  0.39678533  0.20132239  1
  Rh  Rh234  1  0.59873834  -0.00239440  0.60086721  1
  Rh  Rh235  1  0.00281704  -0.00274103  0.59961931  1
  Rh  Rh236  1  0.80475412  0.59475362  0.19307016  1
  Rh  Rh237  1  0.38993277  0.61743769  0.60773524  1
  Rh  Rh238  1  0.40199836  0.19356623  0.59930029  1
  Rh  Rh239  1  -0.00662033  0.40121385  0.79769554  1
  Rh  Rh240  1  0.80316752  0.19649788  0.20792971  1
  Rh  Rh241  1  0.60060162  0.39132930  0.00978810  1
  Rh  Rh242  1  0.39902135  0.59323658  0.20361451  1
  Rh  Rh243  1  0.61065605  0.60359176  0.59760650  1
  Rh  Rh244  1  0.19645987  0.79801546  0.20028119  1
  Rh  Rh245  1  0.20248571  0.59013655  0.19793868  1
  Rh  Rh246  1  0.79801821  -0.00100937  0.59523537  1
  Rh  Rh247  1  0.41022402  0.80030095  0.79408236  1
  Rh  Rh248  1  0.59902044  -0.00487628  0.79967026  1
  Rh  Rh249  1  0.80468381  0.19671806  0.40019104  1
