# generated using pymatgen
data_ZrScNbPdRh
_symmetry_space_group_name_H-M   'P 1'
_cell_length_a   16.55462244
_cell_length_b   16.56024336
_cell_length_c   16.56184632
_cell_angle_alpha   90.05238644
_cell_angle_beta   89.97931584
_cell_angle_gamma   90.00939628
_symmetry_Int_Tables_number   1
_chemical_formula_structural   ZrScNbPdRh
_chemical_formula_sum   'Zr50 Sc50 Nb50 Pd50 Rh50'
_cell_volume   4540.40433553
_cell_formula_units_Z   50
loop_
 _symmetry_equiv_pos_site_id
 _symmetry_equiv_pos_as_xyz
  1  'x, y, z'
loop_
 _atom_site_type_symbol
 _atom_site_label
 _atom_site_symmetry_multiplicity
 _atom_site_fract_x
 _atom_site_fract_y
 _atom_site_fract_z
 _atom_site_occupancy
  Zr  Zr0  1  0.29762997  0.70601302  0.51010482  1
  Zr  Zr1  1  0.29593260  0.30051848  0.90175878  1
  Zr  Zr2  1  0.70352298  0.10352058  0.09700665  1
  Zr  Zr3  1  0.10964379  0.69807943  0.70697279  1
  Zr  Zr4  1  0.49120081  0.31226442  0.10309875  1
  Zr  Zr5  1  0.30396351  0.90435651  0.29514230  1
  Zr  Zr6  1  0.09981684  0.10159005  0.90589946  1
  Zr  Zr7  1  0.70677969  0.28810140  0.89917031  1
  Zr  Zr8  1  0.50881995  0.50177145  0.10163613  1
  Zr  Zr9  1  0.50227748  0.69645747  0.49428528  1
  Zr  Zr10  1  0.09401684  0.90682174  0.29915853  1
  Zr  Zr11  1  0.29882137  0.49651363  0.89595253  1
  Zr  Zr12  1  0.51148399  0.10930498  0.49609286  1
  Zr  Zr13  1  0.70056249  0.30932776  0.09890963  1
  Zr  Zr14  1  0.50314056  0.69303043  0.10097769  1
  Zr  Zr15  1  0.70317428  0.49989845  0.69699158  1
  Zr  Zr16  1  0.30635510  0.10423521  0.90841744  1
  Zr  Zr17  1  0.70570166  0.30242094  0.69747380  1
  Zr  Zr18  1  0.69116574  0.69843029  0.90056453  1
  Zr  Zr19  1  0.09738011  0.50342185  0.89868589  1
  Zr  Zr20  1  0.90152410  0.30312958  0.70008732  1
  Zr  Zr21  1  0.90485540  0.29576919  0.89375392  1
  Zr  Zr22  1  0.89766575  0.91205464  0.70506235  1
  Zr  Zr23  1  0.69955809  0.49623032  0.49890753  1
  Zr  Zr24  1  0.70164978  0.90475976  0.90476366  1
  Zr  Zr25  1  0.29638683  0.10041615  0.28793759  1
  Zr  Zr26  1  0.91982008  0.69332753  0.90415746  1
  Zr  Zr27  1  0.49498358  0.10591266  0.30218539  1
  Zr  Zr28  1  0.51246832  0.69716593  0.30101204  1
  Zr  Zr29  1  0.48895532  0.10170193  0.08923002  1
  Zr  Zr30  1  0.69119479  0.69525154  0.69889718  1
  Zr  Zr31  1  0.90101466  0.69940407  0.48990848  1
  Zr  Zr32  1  0.30706429  0.29996092  0.30382833  1
  Zr  Zr33  1  0.31272744  0.49111939  0.09658415  1
  Zr  Zr34  1  0.49473050  0.30395395  0.48833021  1
  Zr  Zr35  1  0.30207735  0.69277349  0.30463738  1
  Zr  Zr36  1  0.10085931  0.91073761  0.50332889  1
  Zr  Zr37  1  0.68886755  0.09559446  0.29797086  1
  Zr  Zr38  1  0.90916136  0.90652598  0.89941191  1
  Zr  Zr39  1  0.51277428  0.90271042  0.29908834  1
  Zr  Zr40  1  0.89884322  0.49343874  0.49653992  1
  Zr  Zr41  1  0.10326039  0.10286480  0.10903683  1
  Zr  Zr42  1  0.70931468  0.90681392  0.11042304  1
  Zr  Zr43  1  0.49962054  0.29171579  0.69156900  1
  Zr  Zr44  1  0.09796069  0.90724379  0.09535291  1
  Zr  Zr45  1  0.10457507  0.10105411  0.69364985  1
  Zr  Zr46  1  0.09953797  0.30123381  0.89762205  1
  Zr  Zr47  1  0.29319922  0.89053721  0.90240633  1
  Zr  Zr48  1  0.89737566  0.49709226  0.69080633  1
  Zr  Zr49  1  0.49492611  0.10056321  0.69674084  1
  Sc  Sc50  1  0.70286072  0.30952294  0.29969647  1
  Sc  Sc51  1  0.90627866  0.09488895  0.49844484  1
  Sc  Sc52  1  0.70029824  0.69360250  0.49738678  1
  Sc  Sc53  1  0.10358220  0.49109651  0.69871116  1
  Sc  Sc54  1  0.10100677  0.48911005  0.30369255  1
  Sc  Sc55  1  0.09853354  0.49468856  0.10429945  1
  Sc  Sc56  1  0.29342142  0.29756404  0.69408255  1
  Sc  Sc57  1  0.50049126  0.88869495  0.91015787  1
  Sc  Sc58  1  0.90150915  0.09987125  0.70693717  1
  Sc  Sc59  1  0.89596084  0.69930076  0.10320105  1
  Sc  Sc60  1  0.89874777  0.90317689  0.49888574  1
  Sc  Sc61  1  0.90439626  0.90403244  0.10249191  1
  Sc  Sc62  1  0.89470868  0.88932353  0.29417226  1
  Sc  Sc63  1  0.29638827  0.09670529  0.50663241  1
  Sc  Sc64  1  0.70049975  0.50120892  0.29911794  1
  Sc  Sc65  1  0.29600375  0.29700542  0.10044307  1
  Sc  Sc66  1  0.89633418  0.10099372  0.89407746  1
  Sc  Sc67  1  0.09221574  0.69988324  0.09595038  1
  Sc  Sc68  1  0.30124993  0.90302727  0.50977671  1
  Sc  Sc69  1  0.50048095  0.90460295  0.51346613  1
  Sc  Sc70  1  0.90390481  0.09833767  0.10317649  1
  Sc  Sc71  1  0.29984740  0.30417243  0.49942336  1
  Sc  Sc72  1  0.90694502  0.69456353  0.70283231  1
  Sc  Sc73  1  0.49660567  0.27806778  0.89905899  1
  Sc  Sc74  1  0.49757249  0.50433017  0.90652587  1
  Sc  Sc75  1  0.49429148  0.69544333  0.89459378  1
  Sc  Sc76  1  0.30336825  0.69405417  0.10748013  1
  Sc  Sc77  1  0.69569566  0.49891751  0.91038671  1
  Sc  Sc78  1  0.30464612  0.89282210  0.69298169  1
  Sc  Sc79  1  0.10002713  0.31217160  0.49351704  1
  Sc  Sc80  1  0.09806869  0.89053363  0.90589310  1
  Sc  Sc81  1  0.90373182  0.30728408  0.29991609  1
  Sc  Sc82  1  0.29970579  0.10509818  0.69526869  1
  Sc  Sc83  1  0.29713715  0.49805277  0.29828704  1
  Sc  Sc84  1  0.29949070  0.70422893  0.70536956  1
  Sc  Sc85  1  0.69646165  0.90832987  0.50649249  1
  Sc  Sc86  1  0.90925296  0.49712339  0.90138564  1
  Sc  Sc87  1  0.30012449  0.90530138  0.10019479  1
  Sc  Sc88  1  0.50455284  0.50882617  0.70500428  1
  Sc  Sc89  1  0.49957400  0.50175129  0.30508150  1
  Sc  Sc90  1  0.29942649  0.49274765  0.49612194  1
  Sc  Sc91  1  0.89946876  0.29895844  0.10027971  1
  Sc  Sc92  1  0.70798346  0.09491426  0.69804174  1
  Sc  Sc93  1  0.09676809  0.30097213  0.29134817  1
  Sc  Sc94  1  0.70222285  0.68702678  0.10482493  1
  Sc  Sc95  1  0.68523806  0.30354213  0.49991531  1
  Sc  Sc96  1  0.90856546  0.10671740  0.29284400  1
  Sc  Sc97  1  0.29463721  0.49520921  0.69614295  1
  Sc  Sc98  1  0.89542764  0.50199063  0.09494246  1
  Sc  Sc99  1  0.49517639  0.89321302  0.10406112  1
  Nb  Nb100  1  0.49911024  0.70393201  0.69738345  1
  Nb  Nb101  1  0.90000014  0.50157961  0.30664381  1
  Nb  Nb102  1  0.50141547  0.09671492  0.89489569  1
  Nb  Nb103  1  0.09935155  0.90562420  0.70426707  1
  Nb  Nb104  1  0.69297228  0.49784099  0.09937694  1
  Nb  Nb105  1  0.10107939  0.10081918  0.30104593  1
  Nb  Nb106  1  0.10157151  0.49924106  0.50055947  1
  Nb  Nb107  1  0.10027852  0.29578825  0.69642933  1
  Nb  Nb108  1  0.70287429  0.89863728  0.70352020  1
  Nb  Nb109  1  0.49634342  0.29539702  0.30413419  1
  Nb  Nb110  1  0.29242431  0.09588289  0.09954524  1
  Nb  Nb111  1  0.10568028  0.69522853  0.89959202  1
  Nb  Nb112  1  0.10134194  0.10117607  0.49558511  1
  Nb  Nb113  1  0.28372579  0.69856836  0.89323378  1
  Nb  Nb114  1  0.50224402  0.89850111  0.70175361  1
  Nb  Nb115  1  0.09620479  0.29620853  0.09497453  1
  Nb  Nb116  1  0.70130603  0.90235935  0.29842892  1
  Nb  Nb117  1  0.69116332  0.09840268  0.90142923  1
  Nb  Nb118  1  0.90002259  0.30205235  0.49940385  1
  Nb  Nb119  1  0.70900126  0.71206855  0.29926206  1
  Nb  Nb120  1  0.09945680  0.70592637  0.50158523  1
  Nb  Nb121  1  0.70154703  0.10423226  0.49539226  1
  Nb  Nb122  1  0.89916165  0.70109356  0.30386111  1
  Nb  Nb123  1  0.09133455  0.70708601  0.30871084  1
  Nb  Nb124  1  0.49969221  0.50344828  0.49137905  1
  Nb  Nb125  1  0.80219710  0.80121414  0.60905896  1
  Nb  Nb126  1  0.40438737  0.00010159  0.39892613  1
  Nb  Nb127  1  0.20083272  0.60019110  -0.00336332  1
  Nb  Nb128  1  0.40422420  0.60272568  0.59843408  1
  Nb  Nb129  1  0.80025176  0.19883929  0.40445968  1
  Nb  Nb130  1  0.00158239  0.20479892  0.59494235  1
  Nb  Nb131  1  0.80038123  0.79732417  0.80240912  1
  Nb  Nb132  1  0.19041009  0.60663680  0.40436214  1
  Nb  Nb133  1  0.59611032  -0.00186768  0.80171423  1
  Nb  Nb134  1  0.79300109  0.00522730  0.39394916  1
  Nb  Nb135  1  0.80045143  0.60284753  0.80205692  1
  Nb  Nb136  1  0.20448868  -0.00242838  0.80180745  1
  Nb  Nb137  1  0.80145604  0.79985064  -0.00576436  1
  Nb  Nb138  1  0.00208716  0.80009994  0.60214016  1
  Nb  Nb139  1  0.40031392  0.80355213  0.39961345  1
  Nb  Nb140  1  0.19401770  0.79722356  0.20820142  1
  Nb  Nb141  1  0.00837425  0.60129614  0.59150681  1
  Nb  Nb142  1  0.40541062  0.39320679  0.79836089  1
  Nb  Nb143  1  -0.00589143  0.60196682  0.21585659  1
  Nb  Nb144  1  0.59479657  0.20571087  0.19793359  1
  Nb  Nb145  1  0.19342708  0.19383752  0.39671180  1
  Nb  Nb146  1  0.40356836  -0.00280712  0.80197161  1
  Nb  Nb147  1  0.19842692  0.80037170  0.39935774  1
  Nb  Nb148  1  0.80479771  0.20080757  0.59071213  1
  Nb  Nb149  1  0.59738743  0.39321843  0.80082032  1
  Pd  Pd150  1  0.60900230  0.79733983  0.01327289  1
  Pd  Pd151  1  0.80533262  0.40037946  -0.00478360  1
  Pd  Pd152  1  0.60458221  0.79970171  0.59582794  1
  Pd  Pd153  1  0.80184432  0.59557427  0.20575468  1
  Pd  Pd154  1  -0.00841418  0.40585256  0.19430505  1
  Pd  Pd155  1  0.20288175  0.39396113  0.19807008  1
  Pd  Pd156  1  0.59380281  0.59523772  0.59535463  1
  Pd  Pd157  1  0.79317516  0.59937551  0.39354860  1
  Pd  Pd158  1  -0.00007179  0.79563241  0.19367081  1
  Pd  Pd159  1  0.39447998  0.20044730  0.59005704  1
  Pd  Pd160  1  0.18550403  0.60407543  0.20068868  1
  Pd  Pd161  1  0.00156681  0.20530161  0.40230172  1
  Pd  Pd162  1  0.59886457  0.80513568  0.80147280  1
  Pd  Pd163  1  0.20242163  0.19486129  0.80040026  1
  Pd  Pd164  1  0.39125287  0.78876578  0.00223193  1
  Pd  Pd165  1  -0.00335601  0.00499500  0.60250543  1
  Pd  Pd166  1  0.39788694  0.79640468  0.20484337  1
  Pd  Pd167  1  0.20307242  0.79032662  0.01485906  1
  Pd  Pd168  1  0.79285793  0.81069119  0.40929630  1
  Pd  Pd169  1  0.80824487  0.19601593  0.00016685  1
  Pd  Pd170  1  0.60714092  0.19554918  0.79079001  1
  Pd  Pd171  1  0.40676220  0.40964948  0.60480191  1
  Pd  Pd172  1  0.80644638  0.40853907  0.19912365  1
  Pd  Pd173  1  0.39934105  0.20073428  0.19220284  1
  Pd  Pd174  1  0.20250882  0.59501807  0.59658656  1
  Pd  Pd175  1  0.60386621  0.00664834  0.60725182  1
  Pd  Pd176  1  0.00346530  0.40294775  0.79629626  1
  Pd  Pd177  1  0.60253442  0.80694682  0.40966479  1
  Pd  Pd178  1  0.39920006  -0.00737194  -0.00435595  1
  Pd  Pd179  1  0.00120696  0.79911020  0.79555894  1
  Pd  Pd180  1  -0.01222846  -0.00127326  0.39130950  1
  Pd  Pd181  1  0.80852948  0.00258580  -0.00045338  1
  Pd  Pd182  1  0.59072621  0.00822002  0.18662271  1
  Pd  Pd183  1  0.79539402  0.20202921  0.20860752  1
  Pd  Pd184  1  0.39143245  0.60810636  -0.00458351  1
  Pd  Pd185  1  0.20968276  0.00141235  0.40073843  1
  Pd  Pd186  1  -0.00526544  0.19701799  0.00279068  1
  Pd  Pd187  1  0.59422938  -0.00354629  0.00283488  1
  Pd  Pd188  1  0.40022166  0.80194938  0.80103899  1
  Pd  Pd189  1  0.39347418  0.59537516  0.79170910  1
  Pd  Pd190  1  0.80066013  0.60254326  -0.00680562  1
  Pd  Pd191  1  0.00601840  0.59208110  0.40066721  1
  Pd  Pd192  1  0.58923622  0.40530449  0.60404145  1
  Pd  Pd193  1  0.60973916  0.79559304  0.19172050  1
  Pd  Pd194  1  0.59551292  0.39887147  0.21038692  1
  Pd  Pd195  1  0.59258093  0.39038890  -0.01311687  1
  Pd  Pd196  1  0.59745057  0.20536975  0.00878113  1
  Pd  Pd197  1  0.19490641  0.40513866  0.00411608  1
  Pd  Pd198  1  0.40551641  0.59330543  0.20467799  1
  Pd  Pd199  1  0.79439269  0.41003638  0.81163389  1
  Rh  Rh200  1  -0.00000380  0.39516532  0.00301635  1
  Rh  Rh201  1  0.00087780  0.00625140  -0.00113896  1
  Rh  Rh202  1  0.60384219  0.59230213  0.80327014  1
  Rh  Rh203  1  0.19698421  0.39525247  0.59809894  1
  Rh  Rh204  1  0.01421807  0.00655177  0.80472153  1
  Rh  Rh205  1  0.19662466  0.20594071  0.20264398  1
  Rh  Rh206  1  0.00180970  0.81263514  0.40890921  1
  Rh  Rh207  1  0.60840946  0.59954995  0.20702929  1
  Rh  Rh208  1  0.40203087  0.40483106  0.20887417  1
  Rh  Rh209  1  0.39224143  0.19907886  0.79784501  1
  Rh  Rh210  1  0.20098939  0.39780504  0.39706295  1
  Rh  Rh211  1  0.20457108  -0.00246719  0.61026326  1
  Rh  Rh212  1  -0.00027255  0.40081877  0.39781856  1
  Rh  Rh213  1  -0.00578842  0.79975588  0.00401035  1
  Rh  Rh214  1  0.59904725  -0.00589260  0.40570067  1
  Rh  Rh215  1  0.00811632  0.59415706  0.01290939  1
  Rh  Rh216  1  0.61107646  0.59990463  0.39359233  1
  Rh  Rh217  1  0.19521283  0.80970194  0.79514661  1
  Rh  Rh218  1  0.80079417  0.00185831  0.59248061  1
  Rh  Rh219  1  0.38500733  0.18924370  0.40629962  1
  Rh  Rh220  1  0.59840993  0.60069232  0.00103981  1
  Rh  Rh221  1  -0.00257332  0.00100776  0.20348951  1
  Rh  Rh222  1  0.79940408  0.79731633  0.19439883  1
  Rh  Rh223  1  0.19938762  0.00222352  -0.00431969  1
  Rh  Rh224  1  0.80700473  0.00257697  0.20966667  1
  Rh  Rh225  1  0.20289100  0.39406000  0.79504696  1
  Rh  Rh226  1  0.20132260  0.59163621  0.80035689  1
  Rh  Rh227  1  0.41055247  0.79330590  0.59741388  1
  Rh  Rh228  1  0.79590889  0.39033397  0.58790203  1
  Rh  Rh229  1  0.79697982  0.19266494  0.79537486  1
  Rh  Rh230  1  0.19938908  0.20085123  0.00700088  1
  Rh  Rh231  1  0.39421623  0.20391205  0.00596862  1
  Rh  Rh232  1  0.40567333  0.00197179  0.19999089  1
  Rh  Rh233  1  0.78971874  0.00185982  0.80645408  1
  Rh  Rh234  1  0.00386428  0.19877911  0.79237956  1
  Rh  Rh235  1  0.18896354  0.80971876  0.60275267  1
  Rh  Rh236  1  0.59598363  0.40253758  0.39661978  1
  Rh  Rh237  1  0.79920017  0.39456960  0.40232650  1
  Rh  Rh238  1  0.39989261  0.40584666  0.39547990  1
  Rh  Rh239  1  0.39001908  0.60042169  0.41033561  1
  Rh  Rh240  1  0.00586067  0.39993176  0.59845885  1
  Rh  Rh241  1  0.81109234  0.61050516  0.60434523  1
  Rh  Rh242  1  0.61047775  0.21198943  0.38807233  1
  Rh  Rh243  1  0.00394228  0.20460250  0.19660232  1
  Rh  Rh244  1  0.19549024  -0.00636542  0.19618882  1
  Rh  Rh245  1  0.18929427  0.20857346  0.58517590  1
  Rh  Rh246  1  -0.00040107  0.59099753  0.78742291  1
  Rh  Rh247  1  0.40544777  0.39296988  -0.01258851  1
  Rh  Rh248  1  0.61080344  0.19563423  0.60528038  1
  Rh  Rh249  1  0.40135895  0.00218335  0.60120887  1
