# generated using pymatgen
data_ZrScNbPdRh
_symmetry_space_group_name_H-M   'P 1'
_cell_length_a   16.56358943
_cell_length_b   16.55952579
_cell_length_c   16.55874138
_cell_angle_alpha   90.00859620
_cell_angle_beta   90.01398780
_cell_angle_gamma   90.00956585
_symmetry_Int_Tables_number   1
_chemical_formula_structural   ZrScNbPdRh
_chemical_formula_sum   'Zr50 Sc50 Nb50 Pd50 Rh50'
_cell_volume   4541.81721634
_cell_formula_units_Z   50
loop_
 _symmetry_equiv_pos_site_id
 _symmetry_equiv_pos_as_xyz
  1  'x, y, z'
loop_
 _atom_site_type_symbol
 _atom_site_label
 _atom_site_symmetry_multiplicity
 _atom_site_fract_x
 _atom_site_fract_y
 _atom_site_fract_z
 _atom_site_occupancy
  Zr  Zr0  1  0.09419483  0.29588581  0.10432990  1
  Zr  Zr1  1  0.90944298  0.30435973  0.49829023  1
  Zr  Zr2  1  0.29458822  0.50333745  0.29936386  1
  Zr  Zr3  1  0.90458356  0.70858258  0.70747835  1
  Zr  Zr4  1  0.49925911  0.29854658  0.50530197  1
  Zr  Zr5  1  0.90475631  0.89707350  0.49906070  1
  Zr  Zr6  1  0.90616793  0.09140721  0.10234579  1
  Zr  Zr7  1  0.70009196  0.09307740  0.09704726  1
  Zr  Zr8  1  0.09389884  0.89396504  0.69237253  1
  Zr  Zr9  1  0.90275969  0.29770052  0.30259626  1
  Zr  Zr10  1  0.69452298  0.89940823  0.10005923  1
  Zr  Zr11  1  0.70480613  0.49357234  0.70023872  1
  Zr  Zr12  1  0.70734093  0.30474015  0.30026998  1
  Zr  Zr13  1  0.88936583  0.49547503  0.30285374  1
  Zr  Zr14  1  0.11052076  0.90518271  0.90428570  1
  Zr  Zr15  1  0.50330949  0.09729764  0.29585718  1
  Zr  Zr16  1  0.70724980  0.70096775  0.09324202  1
  Zr  Zr17  1  0.09642521  0.70100198  0.09761754  1
  Zr  Zr18  1  0.49673838  0.30938111  0.90224312  1
  Zr  Zr19  1  0.89812059  0.30693609  0.09416847  1
  Zr  Zr20  1  0.69353662  0.70229541  0.50397280  1
  Zr  Zr21  1  0.29543450  0.71115445  0.90228770  1
  Zr  Zr22  1  0.10532150  0.69809007  0.29485340  1
  Zr  Zr23  1  0.30067720  0.70535764  0.50146772  1
  Zr  Zr24  1  0.49721142  0.70184502  0.30217175  1
  Zr  Zr25  1  0.09439369  0.29727852  0.30658354  1
  Zr  Zr26  1  0.69975664  0.10090127  0.31269733  1
  Zr  Zr27  1  0.10983062  0.30021559  0.49974462  1
  Zr  Zr28  1  0.69964698  0.49913508  0.10857145  1
  Zr  Zr29  1  0.29147367  0.70243113  0.09990508  1
  Zr  Zr30  1  0.09804110  0.09929593  0.29359790  1
  Zr  Zr31  1  0.89905609  0.89588971  0.89775031  1
  Zr  Zr32  1  0.50544325  0.49399285  0.70919335  1
  Zr  Zr33  1  0.69971139  0.68544563  0.30395557  1
  Zr  Zr34  1  0.50180101  0.49862594  0.50890572  1
  Zr  Zr35  1  0.10174306  0.70326593  0.90204979  1
  Zr  Zr36  1  0.09660243  0.10045710  0.49792645  1
  Zr  Zr37  1  0.29632945  0.49882456  0.70305726  1
  Zr  Zr38  1  0.70240740  0.69640223  0.70141796  1
  Zr  Zr39  1  0.49906857  0.91688551  0.70571074  1
  Zr  Zr40  1  0.49027235  0.70314702  0.09394002  1
  Zr  Zr41  1  0.50231080  0.49726391  0.08266218  1
  Zr  Zr42  1  0.49586986  0.29443843  0.09013912  1
  Zr  Zr43  1  0.29557455  0.70248847  0.29839583  1
  Zr  Zr44  1  0.67943060  0.50902391  0.89956864  1
  Zr  Zr45  1  0.69304903  0.90094903  0.90948362  1
  Zr  Zr46  1  0.70105005  0.90246285  0.29653430  1
  Zr  Zr47  1  0.90103218  0.90550641  0.30061565  1
  Zr  Zr48  1  0.09937389  0.50251081  0.09426972  1
  Zr  Zr49  1  0.88623832  0.30609074  0.70069031  1
  Sc  Sc50  1  0.29578004  0.10903027  0.50930992  1
  Sc  Sc51  1  0.09732576  0.89865816  0.49319380  1
  Sc  Sc52  1  0.28995171  0.89875263  0.29466912  1
  Sc  Sc53  1  0.49798660  0.90214938  0.28722465  1
  Sc  Sc54  1  0.29455350  0.89704174  0.10147116  1
  Sc  Sc55  1  0.50303875  0.90216264  0.09654453  1
  Sc  Sc56  1  0.49382326  0.89992682  0.50977288  1
  Sc  Sc57  1  0.10817205  0.50106474  0.89155548  1
  Sc  Sc58  1  0.30387293  0.89707015  0.70632743  1
  Sc  Sc59  1  0.71142932  0.29785649  0.90167162  1
  Sc  Sc60  1  0.50919360  0.50636331  0.29048897  1
  Sc  Sc61  1  0.48993786  0.30566119  0.69857325  1
  Sc  Sc62  1  0.70553599  0.51653588  0.50361589  1
  Sc  Sc63  1  0.30297236  0.29351944  0.69347471  1
  Sc  Sc64  1  0.10907242  0.70189367  0.50562737  1
  Sc  Sc65  1  0.69238175  0.89504981  0.70783441  1
  Sc  Sc66  1  0.10045679  0.49852937  0.30023927  1
  Sc  Sc67  1  0.10312353  0.50412779  0.69820768  1
  Sc  Sc68  1  0.30684618  0.51251324  0.09235361  1
  Sc  Sc69  1  0.90529055  0.49950799  0.69755891  1
  Sc  Sc70  1  0.49826550  0.89205785  0.89914791  1
  Sc  Sc71  1  0.29182175  0.29305661  0.30036716  1
  Sc  Sc72  1  0.90098456  0.50089550  0.09720327  1
  Sc  Sc73  1  0.10032347  0.89898944  0.30136631  1
  Sc  Sc74  1  0.70115238  0.30413190  0.09077248  1
  Sc  Sc75  1  0.89863625  0.89769286  0.10552642  1
  Sc  Sc76  1  0.90000586  0.09979465  0.49269069  1
  Sc  Sc77  1  0.69982167  0.08971117  0.70262031  1
  Sc  Sc78  1  0.71227036  0.29133316  0.49710265  1
  Sc  Sc79  1  0.49370154  0.10423452  0.89904256  1
  Sc  Sc80  1  0.70798206  0.09736339  0.90609714  1
  Sc  Sc81  1  0.90102292  0.49780364  0.50867018  1
  Sc  Sc82  1  0.11267079  0.10900977  0.70523209  1
  Sc  Sc83  1  0.50716077  0.29687001  0.30164562  1
  Sc  Sc84  1  0.10154463  0.30316009  0.89630617  1
  Sc  Sc85  1  0.31111482  0.29307710  0.89225888  1
  Sc  Sc86  1  0.10718060  0.69716319  0.70336000  1
  Sc  Sc87  1  0.50557435  0.09538251  0.50297422  1
  Sc  Sc88  1  0.90968707  0.48876253  0.90222065  1
  Sc  Sc89  1  0.30758180  0.10479532  0.70749552  1
  Sc  Sc90  1  0.50713332  0.71559177  0.70183426  1
  Sc  Sc91  1  0.28933115  0.49502982  0.50460656  1
  Sc  Sc92  1  0.49577047  0.09749786  0.09856145  1
  Sc  Sc93  1  0.29469714  0.89495389  0.49926026  1
  Sc  Sc94  1  0.09809389  0.49131284  0.50490315  1
  Sc  Sc95  1  0.88658196  0.69648867  0.50350504  1
  Sc  Sc96  1  0.69626160  0.70712568  0.90325965  1
  Sc  Sc97  1  0.89286441  0.09794517  0.69917270  1
  Sc  Sc98  1  0.10891598  0.30650352  0.70016152  1
  Sc  Sc99  1  0.89960102  0.70475845  0.29331409  1
  Nb  Nb100  1  0.30242978  0.10345226  0.10580407  1
  Nb  Nb101  1  0.69570038  0.09433538  0.49952842  1
  Nb  Nb102  1  0.90176646  0.10118896  0.29579364  1
  Nb  Nb103  1  0.09848190  0.09528274  0.09752704  1
  Nb  Nb104  1  0.50108398  0.10331270  0.69792958  1
  Nb  Nb105  1  0.90371243  0.09827042  0.90122169  1
  Nb  Nb106  1  0.90156289  0.69883603  0.08385834  1
  Nb  Nb107  1  0.89724510  0.70100509  0.90756361  1
  Nb  Nb108  1  0.69976489  0.90341306  0.49628756  1
  Nb  Nb109  1  0.30769731  0.50216897  0.90124198  1
  Nb  Nb110  1  0.90208313  0.90153895  0.69711429  1
  Nb  Nb111  1  0.90226210  0.29138385  0.90345723  1
  Nb  Nb112  1  0.09712275  0.91098777  0.10176285  1
  Nb  Nb113  1  0.29399651  0.69717192  0.69913077  1
  Nb  Nb114  1  0.30525789  0.09398408  0.29049773  1
  Nb  Nb115  1  0.30396896  0.30158638  0.50036792  1
  Nb  Nb116  1  0.50317848  0.69302524  0.90115275  1
  Nb  Nb117  1  0.49219074  0.50601804  0.89922391  1
  Nb  Nb118  1  0.10092957  0.09878024  0.90096348  1
  Nb  Nb119  1  0.70107659  0.29509439  0.69935340  1
  Nb  Nb120  1  0.69915249  0.50029637  0.30009911  1
  Nb  Nb121  1  0.30291421  0.29427395  0.09616977  1
  Nb  Nb122  1  0.29111224  0.09656680  0.89521630  1
  Nb  Nb123  1  0.49864170  0.69882967  0.49795578  1
  Nb  Nb124  1  0.30077366  0.90326099  0.90068103  1
  Nb  Nb125  1  0.39367710  0.00665389  0.39499973  1
  Nb  Nb126  1  0.19676705  -0.00021513  0.60197819  1
  Nb  Nb127  1  0.40112632  0.40055676  0.39662915  1
  Nb  Nb128  1  0.39977604  0.60576993  0.60428885  1
  Nb  Nb129  1  -0.00148017  0.60061568  0.40010208  1
  Nb  Nb130  1  0.80533869  0.60347245  0.80689865  1
  Nb  Nb131  1  0.59942685  0.79927239  0.40325795  1
  Nb  Nb132  1  0.39961693  0.60429106  0.79988148  1
  Nb  Nb133  1  0.00056207  0.00331882  0.80175362  1
  Nb  Nb134  1  0.20568020  0.39679830  0.19106618  1
  Nb  Nb135  1  0.79734861  -0.00869548  0.59505132  1
  Nb  Nb136  1  0.80072925  0.19683444  0.20050496  1
  Nb  Nb137  1  0.60517238  0.19699452  0.60550142  1
  Nb  Nb138  1  0.39880024  0.19805564  0.39973894  1
  Nb  Nb139  1  0.20017398  0.19365573  0.00179925  1
  Nb  Nb140  1  0.60109980  0.20257917  0.79318982  1
  Nb  Nb141  1  0.39608354  0.39658951  0.19685767  1
  Nb  Nb142  1  0.38760723  0.00052479  -0.00465512  1
  Nb  Nb143  1  -0.00147642  0.20314640  0.60624428  1
  Nb  Nb144  1  0.40144933  0.59835885  0.40667279  1
  Nb  Nb145  1  0.00329290  0.19282452  -0.00485978  1
  Nb  Nb146  1  0.60326572  0.40666560  0.40003727  1
  Nb  Nb147  1  0.20940762  0.39381809  0.00351083  1
  Nb  Nb148  1  -0.00511316  0.19769990  0.80299589  1
  Nb  Nb149  1  0.60800940  0.19873301  0.19879953  1
  Pd  Pd150  1  0.38849267  0.00405107  0.59450463  1
  Pd  Pd151  1  0.19853314  0.19993141  0.19735887  1
  Pd  Pd152  1  0.79888314  0.40857379  0.81004141  1
  Pd  Pd153  1  0.79393032  0.41107578  -0.00800068  1
  Pd  Pd154  1  0.59433529  0.39247957  0.20047759  1
  Pd  Pd155  1  0.00189415  0.40610721  0.20318556  1
  Pd  Pd156  1  0.58558100  -0.01354323  0.40200683  1
  Pd  Pd157  1  0.40142263  0.79616799  0.80015302  1
  Pd  Pd158  1  0.00280142  0.59538592  -0.01054488  1
  Pd  Pd159  1  0.79346596  0.79629288  0.39639793  1
  Pd  Pd160  1  0.00137871  0.80253331  0.19539230  1
  Pd  Pd161  1  0.00059252  0.39330106  0.79467743  1
  Pd  Pd162  1  0.61496892  0.39067053  0.59028251  1
  Pd  Pd163  1  0.60195923  0.79173238  0.20306657  1
  Pd  Pd164  1  0.00277127  0.80991369  0.00249029  1
  Pd  Pd165  1  0.20968864  0.39387482  0.80601106  1
  Pd  Pd166  1  0.60259207  0.19710273  -0.00609625  1
  Pd  Pd167  1  0.39571361  0.80700883  0.19716904  1
  Pd  Pd168  1  0.19669510  -0.00627552  0.78808182  1
  Pd  Pd169  1  0.59733539  0.00946252  0.81188830  1
  Pd  Pd170  1  0.80890717  0.60287998  0.19519120  1
  Pd  Pd171  1  0.00240170  0.78772316  0.40487924  1
  Pd  Pd172  1  0.79312265  0.40845603  0.41279974  1
  Pd  Pd173  1  0.79856728  0.58937531  -0.00915496  1
  Pd  Pd174  1  0.40123321  0.59478162  0.20297206  1
  Pd  Pd175  1  0.19654642  0.59819164  0.40956657  1
  Pd  Pd176  1  0.40415052  0.80955268  0.39636112  1
  Pd  Pd177  1  0.59257934  0.60214360  0.61044303  1
  Pd  Pd178  1  0.20653619  0.00442485  0.00969815  1
  Pd  Pd179  1  -0.00389908  0.59994534  0.80488062  1
  Pd  Pd180  1  0.59799004  0.80995885  0.59705351  1
  Pd  Pd181  1  0.39924375  0.79901326  0.60828965  1
  Pd  Pd182  1  0.60433773  0.38805795  0.80506716  1
  Pd  Pd183  1  0.59589156  0.60720568  0.18915073  1
  Pd  Pd184  1  0.80656287  -0.00732563  0.00295252  1
  Pd  Pd185  1  0.80289962  -0.00516092  0.79611551  1
  Pd  Pd186  1  0.00027810  0.78832243  0.59259088  1
  Pd  Pd187  1  0.20730307  0.19168585  0.39759761  1
  Pd  Pd188  1  -0.00769100  0.59737228  0.20424615  1
  Pd  Pd189  1  0.79692891  0.19362606  0.80151148  1
  Pd  Pd190  1  0.79800661  0.80724866  0.60380686  1
  Pd  Pd191  1  0.80123808  0.79543770  0.19721804  1
  Pd  Pd192  1  0.80039170  0.18821861  0.59588924  1
  Pd  Pd193  1  0.00180673  0.60622873  0.59436341  1
  Pd  Pd194  1  0.40719188  0.20675606  0.20687099  1
  Pd  Pd195  1  0.80539667  0.00103808  0.40432898  1
  Pd  Pd196  1  0.79390048  0.79876571  0.80374748  1
  Pd  Pd197  1  0.00019372  0.01073301  0.60755671  1
  Pd  Pd198  1  0.00723056  0.80476135  0.80535195  1
  Pd  Pd199  1  0.20630891  0.00415325  0.40514768  1
  Rh  Rh200  1  0.80738736  0.59922587  0.39937919  1
  Rh  Rh201  1  0.19499768  0.80591078  0.00568230  1
  Rh  Rh202  1  0.19688175  0.79780591  0.39691078  1
  Rh  Rh203  1  -0.00883718  0.19763306  0.19355865  1
  Rh  Rh204  1  0.39996140  0.80620032  -0.00135579  1
  Rh  Rh205  1  0.01166181  0.39392780  -0.00561884  1
  Rh  Rh206  1  0.60739581  0.00066996  0.60127134  1
  Rh  Rh207  1  0.20192857  0.59810800  0.59935403  1
  Rh  Rh208  1  0.60022749  0.79979629  0.80546856  1
  Rh  Rh209  1  0.80691073  0.19455456  0.39801745  1
  Rh  Rh210  1  0.79678586  0.40178083  0.59647701  1
  Rh  Rh211  1  0.79618969  0.00522654  0.20336216  1
  Rh  Rh212  1  0.60002773  0.60683165  0.00670567  1
  Rh  Rh213  1  0.60410322  0.39781078  -0.00604462  1
  Rh  Rh214  1  0.80711701  0.60104405  0.61530617  1
  Rh  Rh215  1  0.20629933  0.60464247  0.80559259  1
  Rh  Rh216  1  0.59366039  0.59877236  0.40025550  1
  Rh  Rh217  1  0.59373573  0.79545786  0.00103449  1
  Rh  Rh218  1  0.81012118  0.19518486  0.00893343  1
  Rh  Rh219  1  0.40012687  0.00383526  0.80768707  1
  Rh  Rh220  1  0.39539593  0.40520256  0.79814876  1
  Rh  Rh221  1  -0.00191581  0.19640898  0.40524752  1
  Rh  Rh222  1  0.40727525  0.19821550  0.79957867  1
  Rh  Rh223  1  0.19632163  0.19921027  0.60135244  1
  Rh  Rh224  1  0.80258099  0.80578775  0.00266123  1
  Rh  Rh225  1  0.19738790  0.59455927  0.19219321  1
  Rh  Rh226  1  -0.00091114  0.00283145  0.39272293  1
  Rh  Rh227  1  -0.00292896  -0.00323516  -0.00556288  1
  Rh  Rh228  1  0.39084367  0.40844546  0.59827904  1
  Rh  Rh229  1  0.20236110  0.39681209  0.60275237  1
  Rh  Rh230  1  0.39272839  0.40036978  0.00290914  1
  Rh  Rh231  1  0.59746156  0.20790406  0.40709347  1
  Rh  Rh232  1  0.00280506  0.41102870  0.39852630  1
  Rh  Rh233  1  0.60312500  0.00658382  0.19705142  1
  Rh  Rh234  1  0.39460773  -0.00611063  0.19402164  1
  Rh  Rh235  1  0.19881111  0.20598340  0.80596653  1
  Rh  Rh236  1  0.00267437  0.39137078  0.60744787  1
  Rh  Rh237  1  0.40762984  0.19450495  0.59463028  1
  Rh  Rh238  1  0.20171560  0.80837383  0.60378308  1
  Rh  Rh239  1  0.20041769  0.59473530  -0.00545797  1
  Rh  Rh240  1  0.20293551  0.39662312  0.39318087  1
  Rh  Rh241  1  0.58534065  0.00174704  -0.00532497  1
  Rh  Rh242  1  0.80023608  0.39738296  0.19643432  1
  Rh  Rh243  1  0.19711413  0.00077583  0.19716777  1
  Rh  Rh244  1  0.18879867  0.80547021  0.19432124  1
  Rh  Rh245  1  0.39406134  0.61143042  -0.00895956  1
  Rh  Rh246  1  0.38862099  0.18639901  -0.00763335  1
  Rh  Rh247  1  0.00500422  -0.00536209  0.20562279  1
  Rh  Rh248  1  0.59710161  0.60711658  0.79487494  1
  Rh  Rh249  1  0.19834826  0.80373690  0.79627406  1
