# generated using pymatgen
data_ZrScNbPdRh
_symmetry_space_group_name_H-M   'P 1'
_cell_length_a   16.55933806
_cell_length_b   16.56188669
_cell_length_c   16.55687570
_cell_angle_alpha   89.99543315
_cell_angle_beta   90.00345074
_cell_angle_gamma   89.97436042
_symmetry_Int_Tables_number   1
_chemical_formula_structural   ZrScNbPdRh
_chemical_formula_sum   'Zr50 Sc50 Nb50 Pd50 Rh50'
_cell_volume   4540.78693491
_cell_formula_units_Z   50
loop_
 _symmetry_equiv_pos_site_id
 _symmetry_equiv_pos_as_xyz
  1  'x, y, z'
loop_
 _atom_site_type_symbol
 _atom_site_label
 _atom_site_symmetry_multiplicity
 _atom_site_fract_x
 _atom_site_fract_y
 _atom_site_fract_z
 _atom_site_occupancy
  Zr  Zr0  1  0.30362459  0.29826675  0.89766802  1
  Zr  Zr1  1  0.70336535  0.50187023  0.88842696  1
  Zr  Zr2  1  0.30230355  0.10025710  0.90488852  1
  Zr  Zr3  1  0.10738974  0.89870908  0.50389279  1
  Zr  Zr4  1  0.90412910  0.29483309  0.70216312  1
  Zr  Zr5  1  0.88617241  0.70113083  0.10409391  1
  Zr  Zr6  1  0.09919337  0.90164343  0.90842151  1
  Zr  Zr7  1  0.70005754  0.30525721  0.70103713  1
  Zr  Zr8  1  0.50244343  0.50516920  0.69874844  1
  Zr  Zr9  1  0.49156266  0.08494502  0.10268009  1
  Zr  Zr10  1  0.30104621  0.09410519  0.50403632  1
  Zr  Zr11  1  0.29778355  0.30049860  0.10275105  1
  Zr  Zr12  1  0.90769777  0.91103035  0.70625867  1
  Zr  Zr13  1  0.09662798  0.29854209  0.90799483  1
  Zr  Zr14  1  0.69846830  0.70505875  0.08996531  1
  Zr  Zr15  1  0.09859838  0.09540529  0.49189295  1
  Zr  Zr16  1  0.30703604  0.10052458  0.70249539  1
  Zr  Zr17  1  0.50512215  0.49666579  0.29945275  1
  Zr  Zr18  1  0.70062167  0.89842302  0.90030656  1
  Zr  Zr19  1  0.29650144  0.29306614  0.50124862  1
  Zr  Zr20  1  0.90634845  0.10052507  0.49957822  1
  Zr  Zr21  1  0.09696013  0.71083691  0.90033153  1
  Zr  Zr22  1  0.10000904  0.49060109  0.10255126  1
  Zr  Zr23  1  0.09588018  0.50097756  0.49577230  1
  Zr  Zr24  1  0.69269790  0.89922553  0.49728680  1
  Zr  Zr25  1  0.69761886  0.69625582  0.90462077  1
  Zr  Zr26  1  0.29867175  0.09941350  0.30488585  1
  Zr  Zr27  1  0.30273926  0.50223941  0.70780580  1
  Zr  Zr28  1  0.48752551  0.69889995  0.30372861  1
  Zr  Zr29  1  0.70969898  0.69873883  0.49643067  1
  Zr  Zr30  1  0.71832927  0.69986711  0.28970057  1
  Zr  Zr31  1  0.70335481  0.10623926  0.30058933  1
  Zr  Zr32  1  0.68665906  0.30236208  0.29630428  1
  Zr  Zr33  1  0.29760267  0.70172936  0.29715756  1
  Zr  Zr34  1  0.70288983  0.09974338  0.90109344  1
  Zr  Zr35  1  0.69927668  0.49867981  0.68975109  1
  Zr  Zr36  1  0.69147450  0.90518032  0.70236812  1
  Zr  Zr37  1  0.90029108  0.50132580  0.89742708  1
  Zr  Zr38  1  0.49520502  0.69267832  0.09492979  1
  Zr  Zr39  1  0.29635315  0.71243431  0.49500356  1
  Zr  Zr40  1  0.29226048  0.30121076  0.69793710  1
  Zr  Zr41  1  0.09974832  0.70135163  0.30577722  1
  Zr  Zr42  1  0.69759438  0.10179527  0.71079945  1
  Zr  Zr43  1  0.50513829  0.30385120  0.10392093  1
  Zr  Zr44  1  0.69956647  0.29438392  0.89817115  1
  Zr  Zr45  1  0.29895555  0.90706021  0.89564568  1
  Zr  Zr46  1  0.11376665  0.70887796  0.09736396  1
  Zr  Zr47  1  0.89943418  0.10012834  0.89221337  1
  Zr  Zr48  1  0.49578176  0.90486958  0.29600220  1
  Zr  Zr49  1  0.90198165  0.69181768  0.70010487  1
  Sc  Sc50  1  0.50672936  0.29097353  0.50376986  1
  Sc  Sc51  1  0.90665536  0.70140733  0.30753418  1
  Sc  Sc52  1  0.29831688  0.10456237  0.10084919  1
  Sc  Sc53  1  0.50078873  0.09626106  0.30190387  1
  Sc  Sc54  1  0.10497576  0.30705750  0.51060160  1
  Sc  Sc55  1  0.69508051  0.29076264  0.09622351  1
  Sc  Sc56  1  0.90520907  0.49969252  0.09962099  1
  Sc  Sc57  1  0.10447466  0.29786698  0.10070795  1
  Sc  Sc58  1  0.50060280  0.29851685  0.90196101  1
  Sc  Sc59  1  0.49710362  0.70138572  0.50057359  1
  Sc  Sc60  1  0.29123660  0.29487356  0.29742938  1
  Sc  Sc61  1  0.10223961  0.70438231  0.70454527  1
  Sc  Sc62  1  0.30718328  0.70116280  0.69572854  1
  Sc  Sc63  1  0.89871931  0.70272323  0.90106671  1
  Sc  Sc64  1  0.29241165  0.68879010  0.90341912  1
  Sc  Sc65  1  0.49986432  0.90104811  0.49967020  1
  Sc  Sc66  1  0.29144283  0.50324429  0.29975716  1
  Sc  Sc67  1  0.90566252  0.89666318  0.09796609  1
  Sc  Sc68  1  0.69267907  0.69007977  0.70017116  1
  Sc  Sc69  1  0.90912463  0.30121332  0.09378076  1
  Sc  Sc70  1  0.50573487  0.29402227  0.70468045  1
  Sc  Sc71  1  0.10210003  0.50195209  0.29962878  1
  Sc  Sc72  1  0.69880453  0.10094362  0.09702128  1
  Sc  Sc73  1  0.10752427  0.50777876  0.89717069  1
  Sc  Sc74  1  0.28723391  0.49360554  0.49184225  1
  Sc  Sc75  1  0.50735327  0.90701187  0.90488707  1
  Sc  Sc76  1  0.70015403  0.90119745  0.09531016  1
  Sc  Sc77  1  0.88917469  0.49489638  0.69873911  1
  Sc  Sc78  1  0.68511044  0.10440270  0.49802511  1
  Sc  Sc79  1  0.10283586  0.89828712  0.70989520  1
  Sc  Sc80  1  0.30022423  0.90159227  0.10947198  1
  Sc  Sc81  1  0.69064199  0.90249777  0.29928976  1
  Sc  Sc82  1  0.29905715  0.90228613  0.68963218  1
  Sc  Sc83  1  0.90437139  0.10509514  0.30987406  1
  Sc  Sc84  1  0.49472603  0.50383862  0.90183272  1
  Sc  Sc85  1  0.69521349  0.50913745  0.08976857  1
  Sc  Sc86  1  0.90732685  0.89019256  0.29523778  1
  Sc  Sc87  1  0.90216278  0.51320129  0.29055396  1
  Sc  Sc88  1  0.89913212  0.30017928  0.50214964  1
  Sc  Sc89  1  0.50153911  0.09741141  0.70143354  1
  Sc  Sc90  1  0.89051169  0.28887375  0.30428700  1
  Sc  Sc91  1  0.50662559  0.50290929  0.50528568  1
  Sc  Sc92  1  0.69614483  0.29844839  0.50242103  1
  Sc  Sc93  1  0.09730117  0.49682782  0.69176053  1
  Sc  Sc94  1  0.90077060  0.29211656  0.90247063  1
  Sc  Sc95  1  0.90973721  0.90105022  0.49198526  1
  Sc  Sc96  1  0.08167669  0.09626060  0.69974555  1
  Sc  Sc97  1  0.90664009  0.89797655  0.90202625  1
  Sc  Sc98  1  0.50006026  0.69075180  0.69733082  1
  Sc  Sc99  1  0.90191803  0.50745458  0.51295630  1
  Nb  Nb100  1  0.50023390  0.30982320  0.29551957  1
  Nb  Nb101  1  0.30470968  0.69144122  0.09945818  1
  Nb  Nb102  1  0.49438245  0.50361144  0.10185317  1
  Nb  Nb103  1  0.09968179  0.09258046  0.10089491  1
  Nb  Nb104  1  0.09969425  0.30148598  0.70392346  1
  Nb  Nb105  1  0.69989625  0.49899977  0.29826083  1
  Nb  Nb106  1  0.10688546  0.89887438  0.28243162  1
  Nb  Nb107  1  0.50224814  0.70322097  0.89964572  1
  Nb  Nb108  1  0.49061874  0.09994851  0.89845864  1
  Nb  Nb109  1  0.10633094  0.10217409  0.90762023  1
  Nb  Nb110  1  0.09848113  0.90305551  0.10712627  1
  Nb  Nb111  1  0.09335457  0.69679001  0.49886259  1
  Nb  Nb112  1  0.90875103  0.70289310  0.50011514  1
  Nb  Nb113  1  0.89899405  0.09933500  0.10213206  1
  Nb  Nb114  1  0.70398220  0.49786946  0.50315255  1
  Nb  Nb115  1  0.29811414  0.90173706  0.50213891  1
  Nb  Nb116  1  0.49971540  0.89897616  0.10274541  1
  Nb  Nb117  1  0.30186863  0.49924533  0.90096179  1
  Nb  Nb118  1  0.10335940  0.30426933  0.29155290  1
  Nb  Nb119  1  0.30694138  0.51094518  0.09289999  1
  Nb  Nb120  1  0.50295393  0.89729095  0.70274895  1
  Nb  Nb121  1  0.49305057  0.09937243  0.50398474  1
  Nb  Nb122  1  0.30063005  0.89659240  0.30737004  1
  Nb  Nb123  1  0.89696679  0.09851178  0.70128406  1
  Nb  Nb124  1  0.10285716  0.10062907  0.29474859  1
  Nb  Nb125  1  0.79778576  0.00239028  0.40109590  1
  Nb  Nb126  1  0.40317185  0.39339335  0.39780544  1
  Nb  Nb127  1  0.39761493  0.39784875  0.59705754  1
  Nb  Nb128  1  0.19700175  0.60601902  0.59338289  1
  Nb  Nb129  1  -0.00404763  0.40028219  0.39595279  1
  Nb  Nb130  1  0.19291686  0.19804637  0.80194611  1
  Nb  Nb131  1  0.00677827  0.19173556  0.20036117  1
  Nb  Nb132  1  0.40694038  0.80053792  0.80493348  1
  Nb  Nb133  1  0.00560982  0.60656486  0.00227151  1
  Nb  Nb134  1  0.80438069  0.00516844  0.20415602  1
  Nb  Nb135  1  -0.00183426  0.79702411  0.59803419  1
  Nb  Nb136  1  0.59882172  0.60251858  0.20240878  1
  Nb  Nb137  1  0.00292210  0.39432724  0.79868357  1
  Nb  Nb138  1  0.40076891  0.40444838  0.19999268  1
  Nb  Nb139  1  0.61155051  0.59812435  0.39464672  1
  Nb  Nb140  1  0.79819871  0.39953055  -0.00028072  1
  Nb  Nb141  1  0.59335405  0.79502514  0.19583123  1
  Nb  Nb142  1  0.79724947  0.80154893  0.79266674  1
  Nb  Nb143  1  0.80529669  0.80462403  0.60122614  1
  Nb  Nb144  1  0.21093545  0.40633844  -0.00202224  1
  Nb  Nb145  1  0.79251982  0.40080151  0.19934677  1
  Nb  Nb146  1  0.79726568  0.40683678  0.39614549  1
  Nb  Nb147  1  0.80076029  0.19109788  0.60517856  1
  Nb  Nb148  1  0.80042022  0.00148646  0.59765070  1
  Nb  Nb149  1  0.40100403  0.79883842  -0.00165561  1
  Pd  Pd150  1  0.39850644  0.58802267  0.40692484  1
  Pd  Pd151  1  -0.00844825  0.00557873  0.20608589  1
  Pd  Pd152  1  0.60469333  0.40656410  -0.00137947  1
  Pd  Pd153  1  0.59930149  0.79489998  0.79716258  1
  Pd  Pd154  1  0.59682944  0.00554905  0.59894554  1
  Pd  Pd155  1  0.19335668  0.00973354  0.79405372  1
  Pd  Pd156  1  0.59155946  0.19852784  0.39677101  1
  Pd  Pd157  1  0.19155255  0.20463971  0.40050902  1
  Pd  Pd158  1  0.21257002  0.80903688  0.00401401  1
  Pd  Pd159  1  0.40585472  0.20565154  0.39419113  1
  Pd  Pd160  1  0.00307123  -0.00882285  0.38774030  1
  Pd  Pd161  1  0.58948198  0.18964263  -0.00117761  1
  Pd  Pd162  1  0.20814700  0.00351469  0.19964066  1
  Pd  Pd163  1  0.40802249  0.39757064  0.79411165  1
  Pd  Pd164  1  0.21449176  0.79659515  0.79676428  1
  Pd  Pd165  1  0.19374709  0.00665231  0.60936635  1
  Pd  Pd166  1  0.39794979  0.80048205  0.19361924  1
  Pd  Pd167  1  0.80645152  -0.00270475  0.00571911  1
  Pd  Pd168  1  0.19264476  0.39758879  0.80629357  1
  Pd  Pd169  1  0.19398456  0.80483845  0.39665275  1
  Pd  Pd170  1  0.59937844  0.00508677  -0.00062973  1
  Pd  Pd171  1  0.59088861  0.18921140  0.19791990  1
  Pd  Pd172  1  0.18892688  0.18742179  0.60854579  1
  Pd  Pd173  1  0.40610765  0.20463837  0.60567896  1
  Pd  Pd174  1  0.60012088  0.40357553  0.41159240  1
  Pd  Pd175  1  0.40560618  0.80553410  0.60450116  1
  Pd  Pd176  1  0.80693631  0.59210427  0.40406535  1
  Pd  Pd177  1  0.59823324  0.79052195  0.39002495  1
  Pd  Pd178  1  0.80426979  0.81029958  0.40064329  1
  Pd  Pd179  1  0.19799602  -0.00692887  0.39466897  1
  Pd  Pd180  1  0.00813742  0.61112676  0.19225378  1
  Pd  Pd181  1  0.40364272  0.20299444  0.20571402  1
  Pd  Pd182  1  0.00051599  0.79120281  0.19474441  1
  Pd  Pd183  1  0.59243089  0.40320148  0.80209292  1
  Pd  Pd184  1  -0.00019950  0.19000034  0.00707699  1
  Pd  Pd185  1  -0.00334183  0.00389218  -0.00187354  1
  Pd  Pd186  1  0.39940864  0.39964960  0.00447132  1
  Pd  Pd187  1  0.40643950  -0.00746124  0.79568226  1
  Pd  Pd188  1  0.00152335  0.20170325  0.59722742  1
  Pd  Pd189  1  0.60093230  0.79121859  0.60072191  1
  Pd  Pd190  1  0.38706244  0.59057541  0.58676586  1
  Pd  Pd191  1  -0.01335547  0.38873666  0.21121231  1
  Pd  Pd192  1  0.40127226  -0.00269169  0.40536213  1
  Pd  Pd193  1  0.19925318  0.60455522  0.79197988  1
  Pd  Pd194  1  0.20498769  -0.00440176  0.00996803  1
  Pd  Pd195  1  0.40583969  0.20050264  0.00535744  1
  Pd  Pd196  1  0.00458727  0.59282300  0.79984789  1
  Pd  Pd197  1  0.19722399  0.59814282  0.19781513  1
  Pd  Pd198  1  0.80632245  0.20302494  0.19100256  1
  Pd  Pd199  1  0.01275390  0.21417118  0.39617569  1
  Rh  Rh200  1  -0.00008427  0.79464308  0.00933044  1
  Rh  Rh201  1  0.19398267  0.59251777  0.00487286  1
  Rh  Rh202  1  0.21056471  0.40714074  0.19395640  1
  Rh  Rh203  1  0.79303909  0.19864295  0.41521881  1
  Rh  Rh204  1  0.19945373  0.60813399  0.40398457  1
  Rh  Rh205  1  0.59317731  0.19333273  0.80950622  1
  Rh  Rh206  1  0.59171885  0.59505643  -0.00302470  1
  Rh  Rh207  1  0.39737299  0.20079297  0.79876819  1
  Rh  Rh208  1  0.59662386  0.59694175  0.80375811  1
  Rh  Rh209  1  0.60787473  -0.00394358  0.19617196  1
  Rh  Rh210  1  0.40112392  0.60896546  0.80626127  1
  Rh  Rh211  1  0.20740456  0.80035875  0.19991072  1
  Rh  Rh212  1  0.39115733  -0.00012662  0.20579586  1
  Rh  Rh213  1  0.79937225  0.20436464  0.79649227  1
  Rh  Rh214  1  0.80430247  0.80592669  -0.00981573  1
  Rh  Rh215  1  0.59331503  0.39874307  0.60004770  1
  Rh  Rh216  1  0.40174750  0.60542102  -0.01141966  1
  Rh  Rh217  1  0.00780468  0.60574660  0.60561435  1
  Rh  Rh218  1  0.79292831  0.59020435  0.18954490  1
  Rh  Rh219  1  0.39629357  -0.00696514  0.00234290  1
  Rh  Rh220  1  0.60262922  0.19542828  0.60603971  1
  Rh  Rh221  1  0.19260635  0.79405505  0.60062686  1
  Rh  Rh222  1  0.60240449  0.40941126  0.18620636  1
  Rh  Rh223  1  0.00833775  0.00477149  0.81320034  1
  Rh  Rh224  1  -0.00404548  0.39902633  0.60215854  1
  Rh  Rh225  1  0.00711638  0.19947168  0.80374232  1
  Rh  Rh226  1  0.39913207  0.59207391  0.20642485  1
  Rh  Rh227  1  0.59312526  0.00666867  0.80835724  1
  Rh  Rh228  1  -0.00042550  -0.00765850  0.59728773  1
  Rh  Rh229  1  -0.00466732  0.59164748  0.39942751  1
  Rh  Rh230  1  0.81183802  0.59287872  0.00099104  1
  Rh  Rh231  1  0.79170900  0.81773887  0.20050621  1
  Rh  Rh232  1  0.19989257  0.20431791  0.00001411  1
  Rh  Rh233  1  0.79839895  -0.00740057  0.80072647  1
  Rh  Rh234  1  0.79588693  0.60790042  0.79690460  1
  Rh  Rh235  1  0.80990549  0.39172798  0.80900898  1
  Rh  Rh236  1  0.19433567  0.39153104  0.39333248  1
  Rh  Rh237  1  0.80337068  0.20483621  0.00367313  1
  Rh  Rh238  1  0.79912680  0.60686627  0.59961051  1
  Rh  Rh239  1  0.79946359  0.38946948  0.59207245  1
  Rh  Rh240  1  0.60554838  0.60443391  0.58719943  1
  Rh  Rh241  1  -0.00699585  0.80122418  0.79323193  1
  Rh  Rh242  1  0.40473982  -0.00527379  0.59811658  1
  Rh  Rh243  1  0.39814422  0.81033169  0.40459507  1
  Rh  Rh244  1  0.59139477  0.80299691  0.00595751  1
  Rh  Rh245  1  0.59780447  0.00613440  0.40143666  1
  Rh  Rh246  1  0.01103273  0.80602144  0.40085503  1
  Rh  Rh247  1  0.00414441  0.41306352  -0.01212427  1
  Rh  Rh248  1  0.19230987  0.19339458  0.19679725  1
  Rh  Rh249  1  0.20693899  0.41122228  0.60531273  1
