# generated using pymatgen
data_ZrScNbPdRh
_symmetry_space_group_name_H-M   'P 1'
_cell_length_a   16.55831854
_cell_length_b   16.55945938
_cell_length_c   16.56110333
_cell_angle_alpha   89.94962940
_cell_angle_beta   90.00393886
_cell_angle_gamma   89.99792657
_symmetry_Int_Tables_number   1
_chemical_formula_structural   ZrScNbPdRh
_chemical_formula_sum   'Zr50 Sc50 Nb50 Pd50 Rh50'
_cell_volume   4540.99982348
_cell_formula_units_Z   50
loop_
 _symmetry_equiv_pos_site_id
 _symmetry_equiv_pos_as_xyz
  1  'x, y, z'
loop_
 _atom_site_type_symbol
 _atom_site_label
 _atom_site_symmetry_multiplicity
 _atom_site_fract_x
 _atom_site_fract_y
 _atom_site_fract_z
 _atom_site_occupancy
  Zr  Zr0  1  0.70017886  0.70195983  0.29428083  1
  Zr  Zr1  1  0.30390690  0.52032823  0.49091453  1
  Zr  Zr2  1  0.70204940  0.89986180  0.49059353  1
  Zr  Zr3  1  0.90365061  0.29414082  0.30386892  1
  Zr  Zr4  1  0.10645516  0.70037979  0.10420470  1
  Zr  Zr5  1  0.88886451  0.89812557  0.89769407  1
  Zr  Zr6  1  0.11696888  0.09912956  0.50687693  1
  Zr  Zr7  1  0.89720454  0.30796230  0.49598735  1
  Zr  Zr8  1  0.70164325  0.89670614  0.29990402  1
  Zr  Zr9  1  0.11002667  0.30065081  0.09442097  1
  Zr  Zr10  1  0.10101352  0.90317214  0.29220446  1
  Zr  Zr11  1  0.90386290  0.49482019  0.90859974  1
  Zr  Zr12  1  0.89208463  0.29645302  0.70641736  1
  Zr  Zr13  1  0.70394955  0.50649682  0.09507191  1
  Zr  Zr14  1  0.90692637  0.10283872  0.29554241  1
  Zr  Zr15  1  0.89748706  0.10806907  0.89605560  1
  Zr  Zr16  1  0.70514463  0.89877185  0.09377234  1
  Zr  Zr17  1  0.10780125  0.69605280  0.90860352  1
  Zr  Zr18  1  0.49815583  0.69672465  0.89570308  1
  Zr  Zr19  1  0.48963058  0.90280710  0.50166716  1
  Zr  Zr20  1  0.10252726  0.89834909  0.09943230  1
  Zr  Zr21  1  0.09205813  0.89456128  0.90625126  1
  Zr  Zr22  1  0.09270970  0.10931928  0.90105766  1
  Zr  Zr23  1  0.30078347  0.10783280  0.68198225  1
  Zr  Zr24  1  0.31614661  0.10213721  0.09262288  1
  Zr  Zr25  1  0.69671963  0.30099396  0.70144822  1
  Zr  Zr26  1  0.10281329  0.30185384  0.49537179  1
  Zr  Zr27  1  0.49824186  0.29741122  0.29103520  1
  Zr  Zr28  1  0.89917159  0.70334099  0.89510369  1
  Zr  Zr29  1  0.70420662  0.69700021  0.50148629  1
  Zr  Zr30  1  0.70261652  0.30167237  0.89749932  1
  Zr  Zr31  1  0.09563918  0.09977570  0.10252358  1
  Zr  Zr32  1  0.70327498  0.69339350  0.90657589  1
  Zr  Zr33  1  0.30498430  0.09793765  0.30728337  1
  Zr  Zr34  1  0.30296222  0.29955812  0.69573090  1
  Zr  Zr35  1  0.29638743  0.68983938  0.29569902  1
  Zr  Zr36  1  0.90273919  0.89927116  0.70049430  1
  Zr  Zr37  1  0.48101357  0.69533317  0.50859264  1
  Zr  Zr38  1  0.70926843  0.49450384  0.50027262  1
  Zr  Zr39  1  0.09832913  0.50356028  0.70603105  1
  Zr  Zr40  1  0.90287321  0.50318868  0.69955763  1
  Zr  Zr41  1  0.69454030  0.91036298  0.71433452  1
  Zr  Zr42  1  0.49619784  0.69449543  0.10351856  1
  Zr  Zr43  1  0.70222451  0.10541717  0.09492173  1
  Zr  Zr44  1  0.49223180  0.09699441  0.90482322  1
  Zr  Zr45  1  0.90094693  0.50088979  0.30619002  1
  Zr  Zr46  1  0.10897672  0.29832152  0.30024687  1
  Zr  Zr47  1  0.50281883  0.31158974  0.90040692  1
  Zr  Zr48  1  0.50205299  0.29675310  0.70438839  1
  Zr  Zr49  1  0.29718878  0.69381191  0.09509066  1
  Sc  Sc50  1  0.49377859  0.89355146  0.70394589  1
  Sc  Sc51  1  0.90277805  0.11260343  0.10051070  1
  Sc  Sc52  1  0.70301031  0.69442758  0.10558166  1
  Sc  Sc53  1  0.90510215  0.89364920  0.49961428  1
  Sc  Sc54  1  0.50284566  0.49868330  0.70853670  1
  Sc  Sc55  1  0.49369084  0.89964412  0.29004561  1
  Sc  Sc56  1  0.89588690  0.68515350  0.10068600  1
  Sc  Sc57  1  0.69731868  0.30076728  0.10082568  1
  Sc  Sc58  1  0.49886402  0.49355814  0.10101781  1
  Sc  Sc59  1  0.10104614  0.50311190  0.08845497  1
  Sc  Sc60  1  0.50641235  0.90185089  0.89002459  1
  Sc  Sc61  1  0.89779693  0.10006424  0.70212579  1
  Sc  Sc62  1  0.69560651  0.50284142  0.29507662  1
  Sc  Sc63  1  0.30172475  0.70247441  0.69361752  1
  Sc  Sc64  1  0.49101572  0.90873696  0.09956043  1
  Sc  Sc65  1  0.90089808  0.89208546  0.30286313  1
  Sc  Sc66  1  0.10978223  0.50454381  0.30647595  1
  Sc  Sc67  1  0.90534994  0.69620907  0.29928081  1
  Sc  Sc68  1  0.10368090  0.10123758  0.29297186  1
  Sc  Sc69  1  0.09989715  0.69753180  0.69966790  1
  Sc  Sc70  1  0.30321506  0.90013627  0.10731145  1
  Sc  Sc71  1  0.49211542  0.70038311  0.70540552  1
  Sc  Sc72  1  0.30217906  0.49890396  0.09934355  1
  Sc  Sc73  1  0.70475167  0.29415443  0.50397232  1
  Sc  Sc74  1  0.29576919  0.50943998  0.70585077  1
  Sc  Sc75  1  0.50700569  0.30567615  0.49108152  1
  Sc  Sc76  1  0.89831863  0.69117184  0.49624571  1
  Sc  Sc77  1  0.49856045  0.10636352  0.30311235  1
  Sc  Sc78  1  0.09325331  0.89874650  0.68525189  1
  Sc  Sc79  1  0.09593280  0.30929770  0.70695210  1
  Sc  Sc80  1  0.90554788  0.89959115  0.09669461  1
  Sc  Sc81  1  0.10402812  0.69989266  0.50369627  1
  Sc  Sc82  1  0.89497452  0.10703941  0.49658289  1
  Sc  Sc83  1  0.30598036  0.89995073  0.90484751  1
  Sc  Sc84  1  0.29354933  0.28117986  0.49432600  1
  Sc  Sc85  1  0.29848266  0.50445173  0.90450186  1
  Sc  Sc86  1  0.69927591  0.11154398  0.70172868  1
  Sc  Sc87  1  0.70229661  0.68522420  0.70852955  1
  Sc  Sc88  1  0.29860099  0.30036276  0.29987517  1
  Sc  Sc89  1  0.50108718  0.50077088  0.90595711  1
  Sc  Sc90  1  0.70350993  0.49541302  0.70575075  1
  Sc  Sc91  1  0.29961470  0.49731222  0.29907467  1
  Sc  Sc92  1  0.29925050  0.30802463  0.90736929  1
  Sc  Sc93  1  0.49541134  0.69599234  0.28771431  1
  Sc  Sc94  1  0.70029475  0.08605332  0.89617834  1
  Sc  Sc95  1  0.49278550  0.49319760  0.29955461  1
  Sc  Sc96  1  0.69966866  0.10471355  0.31242609  1
  Sc  Sc97  1  0.08998456  0.09815403  0.69841144  1
  Sc  Sc98  1  0.69549166  0.29971731  0.30663904  1
  Sc  Sc99  1  0.90206962  0.30066567  0.90121081  1
  Nb  Nb100  1  0.49576201  0.10025087  0.69642421  1
  Nb  Nb101  1  0.89976036  0.30342043  0.10312729  1
  Nb  Nb102  1  0.48997525  0.09418401  0.50133408  1
  Nb  Nb103  1  0.70191017  0.89737774  0.90526530  1
  Nb  Nb104  1  0.10004917  0.31009478  0.89838179  1
  Nb  Nb105  1  0.69483394  0.49537851  0.90158446  1
  Nb  Nb106  1  0.10425214  0.70209268  0.29833978  1
  Nb  Nb107  1  0.49620701  0.50291378  0.49971398  1
  Nb  Nb108  1  0.10203484  0.90327241  0.49825385  1
  Nb  Nb109  1  0.89573889  0.69794165  0.69897155  1
  Nb  Nb110  1  0.29881112  0.70208041  0.90016886  1
  Nb  Nb111  1  0.30889449  0.30420973  0.10165416  1
  Nb  Nb112  1  0.10186795  0.49648766  0.50367637  1
  Nb  Nb113  1  0.10346782  0.48945465  0.89676710  1
  Nb  Nb114  1  0.29660026  0.09821235  0.89705117  1
  Nb  Nb115  1  0.29787350  0.70901903  0.49756356  1
  Nb  Nb116  1  0.30010531  0.90302533  0.30369217  1
  Nb  Nb117  1  0.49653988  0.29399919  0.10227249  1
  Nb  Nb118  1  0.90145958  0.49336573  0.10284476  1
  Nb  Nb119  1  0.29871388  0.89697681  0.70054831  1
  Nb  Nb120  1  0.90359601  0.49749424  0.49903771  1
  Nb  Nb121  1  0.29479481  0.90555438  0.50102076  1
  Nb  Nb122  1  0.31336684  0.08694134  0.49412815  1
  Nb  Nb123  1  0.50107046  0.10654888  0.10472877  1
  Nb  Nb124  1  0.69683339  0.09500931  0.50239797  1
  Nb  Nb125  1  0.39101451  0.80091878  0.39817603  1
  Nb  Nb126  1  0.19985327  0.00470908  -0.00471873  1
  Nb  Nb127  1  0.39118757  0.00707924  0.79415230  1
  Nb  Nb128  1  0.60014479  0.80082436  -0.00149211  1
  Nb  Nb129  1  0.39608535  0.40460958  0.59466557  1
  Nb  Nb130  1  0.59367406  0.60192194  0.40635761  1
  Nb  Nb131  1  0.20216189  0.80601885  0.80111716  1
  Nb  Nb132  1  0.79677142  0.00186610  0.20067335  1
  Nb  Nb133  1  -0.00167783  0.20726079  0.59705374  1
  Nb  Nb134  1  0.40439273  0.79357201  -0.00287324  1
  Nb  Nb135  1  0.79247805  -0.00303245  0.59780483  1
  Nb  Nb136  1  0.19990094  0.19838186  0.80417466  1
  Nb  Nb137  1  0.20373632  0.40630851  0.59406386  1
  Nb  Nb138  1  0.20167596  0.00084017  0.80106915  1
  Nb  Nb139  1  0.59749033  0.00263098  0.59742317  1
  Nb  Nb140  1  0.20096713  0.80591862  0.40012161  1
  Nb  Nb141  1  0.59297508  0.19939331  0.00160849  1
  Nb  Nb142  1  0.80761818  0.40016631  0.19903412  1
  Nb  Nb143  1  0.59011043  0.79275700  0.40413959  1
  Nb  Nb144  1  0.79671525  0.79996498  0.60731318  1
  Nb  Nb145  1  0.59743536  0.59879192  0.59489204  1
  Nb  Nb146  1  0.00923078  -0.00219987  0.40368285  1
  Nb  Nb147  1  0.60507176  0.00672635  0.19621189  1
  Nb  Nb148  1  0.60401976  0.79926101  0.59846477  1
  Nb  Nb149  1  -0.00173169  0.39918266  0.19619833  1
  Pd  Pd150  1  -0.00396700  0.00372378  -0.00013689  1
  Pd  Pd151  1  0.60439486  0.40138560  0.19592341  1
  Pd  Pd152  1  0.20441280  0.20003570  -0.00303776  1
  Pd  Pd153  1  0.39464481  0.40745754  0.79748600  1
  Pd  Pd154  1  0.00909154  0.60060035  0.40484389  1
  Pd  Pd155  1  -0.00911009  0.78865137  0.00912035  1
  Pd  Pd156  1  0.40223065  0.21017100  -0.00755992  1
  Pd  Pd157  1  0.79262844  0.20284257  0.20634987  1
  Pd  Pd158  1  0.21071301  0.19507283  0.19710236  1
  Pd  Pd159  1  -0.00117861  0.60247738  0.59432669  1
  Pd  Pd160  1  0.20043396  0.59962571  0.60020511  1
  Pd  Pd161  1  0.00250567  0.60227807  0.80729895  1
  Pd  Pd162  1  -0.00600457  0.79504253  0.19476700  1
  Pd  Pd163  1  0.59503962  0.80870762  0.19345559  1
  Pd  Pd164  1  0.01041839  0.18991031  0.40716829  1
  Pd  Pd165  1  0.20719415  0.80047343  0.20366836  1
  Pd  Pd166  1  0.79620360  0.39639420  0.00408480  1
  Pd  Pd167  1  0.00818538  0.79893378  0.40224957  1
  Pd  Pd168  1  0.60767811  0.79144046  0.79986759  1
  Pd  Pd169  1  -0.00609045  0.78933180  0.59528904  1
  Pd  Pd170  1  0.79498221  0.59965131  0.39377211  1
  Pd  Pd171  1  0.39308421  0.20007628  0.80579040  1
  Pd  Pd172  1  -0.00216207  0.21024149  0.00177892  1
  Pd  Pd173  1  0.81068299  0.80171376  0.19471891  1
  Pd  Pd174  1  0.58865302  -0.00328902  0.39454171  1
  Pd  Pd175  1  0.59584679  0.19774706  0.40753394  1
  Pd  Pd176  1  0.00903375  0.79662436  0.79524551  1
  Pd  Pd177  1  0.00891382  0.59190134  0.20149640  1
  Pd  Pd178  1  0.81230323  0.00668056  0.00528036  1
  Pd  Pd179  1  0.60068811  0.19236349  0.80992923  1
  Pd  Pd180  1  0.59376065  0.40691631  0.60208838  1
  Pd  Pd181  1  0.81373770  0.00230982  0.39845217  1
  Pd  Pd182  1  0.41113647  0.21211173  0.58656262  1
  Pd  Pd183  1  0.79164175  0.79689906  0.79446190  1
  Pd  Pd184  1  0.59643206  0.60174380  0.00215827  1
  Pd  Pd185  1  0.60460151  0.40737944  0.39849325  1
  Pd  Pd186  1  0.59252631  0.19536972  0.59202174  1
  Pd  Pd187  1  0.00074545  0.60101723  -0.00183602  1
  Pd  Pd188  1  0.80157788  0.58918551  0.80832096  1
  Pd  Pd189  1  0.19651196  0.40756313  0.19530325  1
  Pd  Pd190  1  0.00200564  -0.00354220  0.80132991  1
  Pd  Pd191  1  0.80162141  0.40174106  0.60510081  1
  Pd  Pd192  1  0.20981337  0.00850652  0.19075935  1
  Pd  Pd193  1  0.39726560  0.59690403  0.80072075  1
  Pd  Pd194  1  0.20816073  0.39746486  0.79608124  1
  Pd  Pd195  1  0.59449657  -0.00151905  0.00476055  1
  Pd  Pd196  1  0.39062088  0.39272015  0.40550400  1
  Pd  Pd197  1  0.00334510  0.39706074  0.60253195  1
  Pd  Pd198  1  0.20253691  -0.00389650  0.60830809  1
  Pd  Pd199  1  0.00744517  0.40430520  0.39196946  1
  Rh  Rh200  1  0.19604998  -0.00108191  0.39829657  1
  Rh  Rh201  1  0.19285473  0.60841060  0.40196740  1
  Rh  Rh202  1  0.39357887  0.20135344  0.20510234  1
  Rh  Rh203  1  0.21006531  0.80941874  -0.00359443  1
  Rh  Rh204  1  0.80091147  0.79024942  0.40123867  1
  Rh  Rh205  1  0.79522907  0.20105750  0.40201180  1
  Rh  Rh206  1  0.58767656  0.00932578  0.79227296  1
  Rh  Rh207  1  0.20424675  0.40309735  0.00154693  1
  Rh  Rh208  1  0.40147975  -0.00654834  0.60993512  1
  Rh  Rh209  1  0.19837540  0.60927886  0.80364640  1
  Rh  Rh210  1  -0.00714946  0.40103442  0.80293961  1
  Rh  Rh211  1  -0.01154055  0.01174780  0.58586489  1
  Rh  Rh212  1  0.80344075  0.00276876  0.79688700  1
  Rh  Rh213  1  0.20166939  0.18878743  0.39547444  1
  Rh  Rh214  1  0.40517094  -0.00697530  0.39116085  1
  Rh  Rh215  1  0.20103048  0.80415197  0.60077119  1
  Rh  Rh216  1  0.79380288  0.19823393  0.80443314  1
  Rh  Rh217  1  0.00542517  0.39493629  0.00340687  1
  Rh  Rh218  1  0.59979872  0.39443910  0.00557530  1
  Rh  Rh219  1  0.00601642  0.20766103  0.79306433  1
  Rh  Rh220  1  0.60304614  0.19670306  0.19663849  1
  Rh  Rh221  1  0.80424700  0.59613976  -0.00449986  1
  Rh  Rh222  1  0.80284290  0.40446861  0.80301757  1
  Rh  Rh223  1  0.18470912  0.21309342  0.61389688  1
  Rh  Rh224  1  0.79807883  0.79261152  0.00424291  1
  Rh  Rh225  1  0.40374849  0.58890400  0.61312340  1
  Rh  Rh226  1  0.19602271  0.59353238  0.19673022  1
  Rh  Rh227  1  0.39237497  0.79732351  0.19734315  1
  Rh  Rh228  1  0.80254305  0.59752395  0.60261787  1
  Rh  Rh229  1  0.39926018  0.60211066  -0.00076627  1
  Rh  Rh230  1  0.40414137  0.00807975  0.20638645  1
  Rh  Rh231  1  0.40571888  0.60754570  0.38869123  1
  Rh  Rh232  1  0.60220167  0.40488567  0.79993097  1
  Rh  Rh233  1  0.59593200  0.59329833  0.20476875  1
  Rh  Rh234  1  0.39880599  -0.00744895  -0.00538474  1
  Rh  Rh235  1  0.39822077  0.58934928  0.19892685  1
  Rh  Rh236  1  0.20099426  0.59235129  -0.00302330  1
  Rh  Rh237  1  0.39563117  0.80720181  0.59922720  1
  Rh  Rh238  1  0.40135637  0.40134813  0.00464739  1
  Rh  Rh239  1  0.20693545  0.40520901  0.40953893  1
  Rh  Rh240  1  0.80163997  0.59163372  0.20527146  1
  Rh  Rh241  1  0.79411934  0.20248996  -0.00585441  1
  Rh  Rh242  1  0.00956450  0.21195880  0.19552758  1
  Rh  Rh243  1  0.60009535  0.59511401  0.79844264  1
  Rh  Rh244  1  0.39881532  0.39733846  0.19910230  1
  Rh  Rh245  1  0.80483262  0.19478399  0.59895787  1
  Rh  Rh246  1  -0.01118024  -0.00495385  0.20670791  1
  Rh  Rh247  1  0.38983344  0.80374164  0.80652637  1
  Rh  Rh248  1  0.40415115  0.20367298  0.40116028  1
  Rh  Rh249  1  0.79678855  0.39978635  0.39335100  1
