# generated using pymatgen
data_ZrScNbPdRh
_symmetry_space_group_name_H-M   'P 1'
_cell_length_a   16.55454072
_cell_length_b   16.55427161
_cell_length_c   16.55415493
_cell_angle_alpha   89.97808421
_cell_angle_beta   90.01942784
_cell_angle_gamma   90.00899675
_symmetry_Int_Tables_number   1
_chemical_formula_structural   ZrScNbPdRh
_chemical_formula_sum   'Zr50 Sc50 Nb50 Pd50 Rh50'
_cell_volume   4536.63841822
_cell_formula_units_Z   50
loop_
 _symmetry_equiv_pos_site_id
 _symmetry_equiv_pos_as_xyz
  1  'x, y, z'
loop_
 _atom_site_type_symbol
 _atom_site_label
 _atom_site_symmetry_multiplicity
 _atom_site_fract_x
 _atom_site_fract_y
 _atom_site_fract_z
 _atom_site_occupancy
  Zr  Zr0  1  0.69989127  0.50098371  0.10339235  1
  Zr  Zr1  1  0.29803093  0.70677742  0.69655301  1
  Zr  Zr2  1  0.90336889  0.49464738  0.10595099  1
  Zr  Zr3  1  0.90378566  0.90167037  0.89173601  1
  Zr  Zr4  1  0.11341430  0.49444094  0.50909334  1
  Zr  Zr5  1  0.29626820  0.70437365  0.09954879  1
  Zr  Zr6  1  0.70505410  0.29788264  0.10170712  1
  Zr  Zr7  1  0.09623826  0.91131988  0.89468104  1
  Zr  Zr8  1  0.70799515  0.49985154  0.89404816  1
  Zr  Zr9  1  0.70346366  0.50685214  0.50217731  1
  Zr  Zr10  1  0.89995227  0.30171456  0.69478347  1
  Zr  Zr11  1  0.69931494  0.69929463  0.10294097  1
  Zr  Zr12  1  0.30472864  0.48991264  0.90309218  1
  Zr  Zr13  1  0.90126617  0.29064603  0.50476674  1
  Zr  Zr14  1  0.69736256  0.10386692  0.88856415  1
  Zr  Zr15  1  0.29722959  0.09204523  0.10854887  1
  Zr  Zr16  1  0.30074754  0.89302151  0.49995937  1
  Zr  Zr17  1  0.10312116  0.09731222  0.09958449  1
  Zr  Zr18  1  0.90049144  0.89411869  0.69758997  1
  Zr  Zr19  1  0.29396186  0.09511791  0.50487685  1
  Zr  Zr20  1  0.49773672  0.49838295  0.49526124  1
  Zr  Zr21  1  0.50773845  0.10042069  0.50639062  1
  Zr  Zr22  1  0.70619051  0.70202248  0.30135350  1
  Zr  Zr23  1  0.10123207  0.09481158  0.89922934  1
  Zr  Zr24  1  0.10539692  0.29912247  0.89699586  1
  Zr  Zr25  1  0.50010855  0.10597165  0.10286102  1
  Zr  Zr26  1  0.89203503  0.30885312  0.89420176  1
  Zr  Zr27  1  0.30568899  0.50407837  0.09874999  1
  Zr  Zr28  1  0.69663228  0.10194809  0.30429993  1
  Zr  Zr29  1  0.90179332  0.70341858  0.11133761  1
  Zr  Zr30  1  0.09510922  0.09875521  0.49713893  1
  Zr  Zr31  1  0.69784109  0.50282306  0.69841952  1
  Zr  Zr32  1  0.89263693  0.50656897  0.69932673  1
  Zr  Zr33  1  0.89498203  0.90331803  0.09944648  1
  Zr  Zr34  1  0.29710427  0.10380417  0.30165016  1
  Zr  Zr35  1  0.69826559  0.90051259  0.09353763  1
  Zr  Zr36  1  0.68908394  0.90239847  0.50680594  1
  Zr  Zr37  1  0.70709641  0.28952420  0.70539924  1
  Zr  Zr38  1  0.49969623  0.49348509  0.69777079  1
  Zr  Zr39  1  0.10306201  0.90681259  0.50033693  1
  Zr  Zr40  1  0.30057276  0.70286129  0.50019114  1
  Zr  Zr41  1  0.10253565  0.69824324  0.10786107  1
  Zr  Zr42  1  0.89360861  0.69367867  0.49961468  1
  Zr  Zr43  1  0.90132074  0.70471895  0.70667038  1
  Zr  Zr44  1  0.09701254  0.70388407  0.29817165  1
  Zr  Zr45  1  0.90486031  0.69488457  0.30369101  1
  Zr  Zr46  1  0.70479019  0.29556085  0.29736043  1
  Zr  Zr47  1  0.29851089  0.89799882  0.89935586  1
  Zr  Zr48  1  0.49852074  0.50497456  0.89742248  1
  Zr  Zr49  1  0.10217699  0.69574956  0.69819539  1
  Sc  Sc50  1  0.90111605  0.08860723  0.10680715  1
  Sc  Sc51  1  0.30549057  0.89782042  0.69127069  1
  Sc  Sc52  1  0.29352989  0.10823845  0.89484910  1
  Sc  Sc53  1  0.29834282  0.29952206  0.89646982  1
  Sc  Sc54  1  0.70219302  0.09845582  0.10058986  1
  Sc  Sc55  1  0.49804043  0.69502434  0.31344354  1
  Sc  Sc56  1  0.10046283  0.30022416  0.10497400  1
  Sc  Sc57  1  0.48946030  0.50177589  0.09748925  1
  Sc  Sc58  1  0.29275311  0.90161383  0.10360691  1
  Sc  Sc59  1  0.89931037  0.29264943  0.29738839  1
  Sc  Sc60  1  0.51142194  0.89111212  0.90095420  1
  Sc  Sc61  1  0.30493073  0.49366414  0.30183092  1
  Sc  Sc62  1  0.49733192  0.69504354  0.08735346  1
  Sc  Sc63  1  0.10074836  0.50442084  0.29981891  1
  Sc  Sc64  1  0.49333781  0.50280048  0.30025198  1
  Sc  Sc65  1  0.69912071  0.70409900  0.49459080  1
  Sc  Sc66  1  0.10530465  0.70123688  0.89042354  1
  Sc  Sc67  1  0.68993646  0.70182028  0.89135926  1
  Sc  Sc68  1  0.50231167  0.89445682  0.69611395  1
  Sc  Sc69  1  0.09896450  0.09892734  0.30054710  1
  Sc  Sc70  1  0.49653605  0.29451052  0.68943330  1
  Sc  Sc71  1  0.50130080  0.90558707  0.31113212  1
  Sc  Sc72  1  0.50318387  0.10634334  0.89885989  1
  Sc  Sc73  1  0.29747179  0.70573935  0.30572737  1
  Sc  Sc74  1  0.49500480  0.10305096  0.30119828  1
  Sc  Sc75  1  0.10556899  0.90495112  0.10007036  1
  Sc  Sc76  1  0.70361933  0.70460311  0.69838285  1
  Sc  Sc77  1  0.49785877  0.70114232  0.89696217  1
  Sc  Sc78  1  0.11084242  0.70332386  0.49496861  1
  Sc  Sc79  1  0.30201289  0.70292569  0.89693704  1
  Sc  Sc80  1  0.70267310  0.89949795  0.30418803  1
  Sc  Sc81  1  0.89985622  0.89859437  0.29681274  1
  Sc  Sc82  1  0.89580591  0.10119531  0.68977365  1
  Sc  Sc83  1  0.10429540  0.50037457  0.10392339  1
  Sc  Sc84  1  0.30292723  0.10633280  0.69536792  1
  Sc  Sc85  1  0.49109627  0.29296944  0.30033108  1
  Sc  Sc86  1  0.90107699  0.30717033  0.10534829  1
  Sc  Sc87  1  0.10717771  0.50019319  0.89580085  1
  Sc  Sc88  1  0.29251260  0.49112983  0.70189185  1
  Sc  Sc89  1  0.10581858  0.90092240  0.30589503  1
  Sc  Sc90  1  0.10674779  0.09681340  0.70090350  1
  Sc  Sc91  1  0.69814769  0.50963952  0.29913112  1
  Sc  Sc92  1  0.69720554  0.28918322  0.50882156  1
  Sc  Sc93  1  0.10638837  0.29556969  0.29749261  1
  Sc  Sc94  1  0.10553399  0.30187367  0.69015247  1
  Sc  Sc95  1  0.49874452  0.70207058  0.71033849  1
  Sc  Sc96  1  0.49010116  0.29336300  0.90527741  1
  Sc  Sc97  1  0.90650864  0.90305166  0.50907533  1
  Sc  Sc98  1  0.29511094  0.30311062  0.49918482  1
  Sc  Sc99  1  0.30546807  0.30675906  0.09984290  1
  Nb  Nb100  1  0.09535592  0.30336814  0.50394050  1
  Nb  Nb101  1  0.49384757  0.09780251  0.70151486  1
  Nb  Nb102  1  0.70095752  0.89969352  0.89734582  1
  Nb  Nb103  1  0.09708830  0.49895593  0.69861320  1
  Nb  Nb104  1  0.70403975  0.89773468  0.70305436  1
  Nb  Nb105  1  0.29551543  0.29221540  0.70397572  1
  Nb  Nb106  1  0.89997486  0.49900859  0.50224868  1
  Nb  Nb107  1  0.89610207  0.09603069  0.30982106  1
  Nb  Nb108  1  0.08733767  0.89942663  0.69770890  1
  Nb  Nb109  1  0.90209289  0.50538179  0.89538638  1
  Nb  Nb110  1  0.49419564  0.70069454  0.49894328  1
  Nb  Nb111  1  0.30064747  0.50369541  0.50194122  1
  Nb  Nb112  1  0.49323292  0.89645564  0.50103026  1
  Nb  Nb113  1  0.90439981  0.09501386  0.89644768  1
  Nb  Nb114  1  0.70050779  0.09840609  0.50305607  1
  Nb  Nb115  1  0.90142548  0.10145526  0.49232985  1
  Nb  Nb116  1  0.90160846  0.49840577  0.30928097  1
  Nb  Nb117  1  0.30492464  0.90700138  0.29837514  1
  Nb  Nb118  1  0.30009646  0.29618343  0.29815824  1
  Nb  Nb119  1  0.90340885  0.69969283  0.89537879  1
  Nb  Nb120  1  0.50586833  0.30159547  0.10126277  1
  Nb  Nb121  1  0.70243813  0.29937046  0.89620075  1
  Nb  Nb122  1  0.49984840  0.90270810  0.09923069  1
  Nb  Nb123  1  0.50674093  0.30704105  0.50319682  1
  Nb  Nb124  1  0.69220343  0.09790728  0.69419819  1
  Nb  Nb125  1  -0.00362930  0.79644088  -0.00227979  1
  Nb  Nb126  1  0.59211721  0.80289900  0.19806784  1
  Nb  Nb127  1  0.80317664  0.79600886  -0.00671664  1
  Nb  Nb128  1  0.80213429  0.40144255  0.40336054  1
  Nb  Nb129  1  0.00173692  0.59472813  0.59925362  1
  Nb  Nb130  1  0.60166420  0.39575753  -0.00081923  1
  Nb  Nb131  1  -0.00615416  0.19769427  -0.00587629  1
  Nb  Nb132  1  0.39921546  0.59822790  0.59599723  1
  Nb  Nb133  1  0.60214948  0.39701401  0.39980200  1
  Nb  Nb134  1  -0.00202978  0.39996631  0.40921072  1
  Nb  Nb135  1  0.60238043  0.39384274  0.80487405  1
  Nb  Nb136  1  0.80611348  0.19859588  -0.00879277  1
  Nb  Nb137  1  0.40492492  0.00172343  0.80106496  1
  Nb  Nb138  1  0.59073445  0.60235551  0.59562709  1
  Nb  Nb139  1  -0.00500767  0.60334720  -0.00374887  1
  Nb  Nb140  1  -0.00094279  0.40305212  0.79478117  1
  Nb  Nb141  1  0.59624582  -0.00352876  0.19859511  1
  Nb  Nb142  1  -0.00223758  0.20252450  0.80328897  1
  Nb  Nb143  1  0.79866011  0.00713591  0.40836346  1
  Nb  Nb144  1  0.80849466  0.60358939  -0.00383072  1
  Nb  Nb145  1  0.59676009  0.39632034  0.19938829  1
  Nb  Nb146  1  0.79255198  -0.00123064  0.79396019  1
  Nb  Nb147  1  0.40598405  0.80734940  0.20019464  1
  Nb  Nb148  1  0.40193379  -0.00083521  -0.00131734  1
  Nb  Nb149  1  0.39873725  0.00011173  0.40980999  1
  Pd  Pd150  1  0.60460234  0.59565826  -0.00449156  1
  Pd  Pd151  1  0.19597754  0.81028016  0.79221657  1
  Pd  Pd152  1  0.59375691  -0.00319528  0.60696104  1
  Pd  Pd153  1  0.20779901  0.59420975  0.79961804  1
  Pd  Pd154  1  0.00566535  0.78871281  0.59059950  1
  Pd  Pd155  1  0.39530985  0.20569617  0.19483631  1
  Pd  Pd156  1  0.19683829  0.60141303  -0.00622719  1
  Pd  Pd157  1  0.80112505  0.00105572  0.59865761  1
  Pd  Pd158  1  0.19970253  0.20322551  0.00792002  1
  Pd  Pd159  1  0.19487896  0.20406992  0.40510912  1
  Pd  Pd160  1  -0.00407487  0.19588614  0.19510771  1
  Pd  Pd161  1  0.01025524  0.59334310  0.41033133  1
  Pd  Pd162  1  0.40008758  0.19754295  0.41291625  1
  Pd  Pd163  1  0.19955130  -0.00463180  0.60816313  1
  Pd  Pd164  1  0.39073940  0.19459468  0.00381275  1
  Pd  Pd165  1  0.79782954  0.00331678  -0.01067355  1
  Pd  Pd166  1  0.20491884  0.40035958  0.20223907  1
  Pd  Pd167  1  0.38926362  0.39936384  0.59890857  1
  Pd  Pd168  1  0.21166903  -0.00314870  0.78867146  1
  Pd  Pd169  1  0.18981997  0.80136819  -0.00219082  1
  Pd  Pd170  1  0.00685084  0.40245941  -0.00668570  1
  Pd  Pd171  1  0.40563676  0.38716980  0.79691411  1
  Pd  Pd172  1  0.20347912  0.59835030  0.39484232  1
  Pd  Pd173  1  0.60911100  0.20286619  -0.00054501  1
  Pd  Pd174  1  0.80686345  0.59502953  0.20236231  1
  Pd  Pd175  1  0.00680006  0.81170501  0.19671335  1
  Pd  Pd176  1  0.59682121  0.20607822  0.40111406  1
  Pd  Pd177  1  -0.00279405  0.80587637  0.40596798  1
  Pd  Pd178  1  0.19738588  0.39857500  0.00644889  1
  Pd  Pd179  1  0.40245767  0.39404900  0.39901318  1
  Pd  Pd180  1  0.79769533  0.40162530  0.00181930  1
  Pd  Pd181  1  0.39163622  0.60021287  0.79333541  1
  Pd  Pd182  1  0.20868976  0.59832042  0.20934682  1
  Pd  Pd183  1  0.40021028  0.80471035  0.00368864  1
  Pd  Pd184  1  0.59628760  0.79133666  0.60331699  1
  Pd  Pd185  1  0.79316739  0.39554067  0.59524705  1
  Pd  Pd186  1  0.00533253  0.20636052  0.39323221  1
  Pd  Pd187  1  0.59641764  -0.00619411  0.79538819  1
  Pd  Pd188  1  0.00445737  -0.00326079  0.20731642  1
  Pd  Pd189  1  0.58823315  0.20823072  0.79434640  1
  Pd  Pd190  1  0.39714457  0.20452039  0.59290735  1
  Pd  Pd191  1  0.80669883  0.81349181  0.40784061  1
  Pd  Pd192  1  0.00483588  0.39952525  0.21310345  1
  Pd  Pd193  1  0.59714058  0.79936415  0.39549184  1
  Pd  Pd194  1  0.39960386  0.61322517  0.20391549  1
  Pd  Pd195  1  0.59511794  0.00616192  0.00005234  1
  Pd  Pd196  1  0.58617060  0.60264428  0.20205081  1
  Pd  Pd197  1  0.19611005  0.39636694  0.39522366  1
  Pd  Pd198  1  0.80809464  0.19133903  0.19135108  1
  Pd  Pd199  1  0.00773675  0.19145151  0.60839211  1
  Rh  Rh200  1  0.60210973  0.80204287  0.79641050  1
  Rh  Rh201  1  0.79908284  0.40403160  0.79189318  1
  Rh  Rh202  1  0.20202777  0.80435790  0.39548341  1
  Rh  Rh203  1  0.39166848  0.60273865  -0.00717404  1
  Rh  Rh204  1  0.39098138  0.59839809  0.40493157  1
  Rh  Rh205  1  0.20848828  -0.00063121  0.39727824  1
  Rh  Rh206  1  0.59879228  0.19731445  0.60510824  1
  Rh  Rh207  1  0.19448074  0.20199994  0.79410919  1
  Rh  Rh208  1  0.20427063  0.20323539  0.19825292  1
  Rh  Rh209  1  0.60144255  0.59712063  0.40520256  1
  Rh  Rh210  1  0.40641391  -0.00076539  0.60048584  1
  Rh  Rh211  1  0.00213312  -0.00003758  0.00735571  1
  Rh  Rh212  1  0.40560432  0.39821391  0.00106392  1
  Rh  Rh213  1  0.40691728  -0.00504102  0.20139418  1
  Rh  Rh214  1  0.40702112  0.79077629  0.60307589  1
  Rh  Rh215  1  0.79620873  0.19084120  0.59678506  1
  Rh  Rh216  1  0.40234649  0.80961891  0.80177763  1
  Rh  Rh217  1  0.00373149  0.59457576  0.79685607  1
  Rh  Rh218  1  0.39966460  0.19570129  0.79703809  1
  Rh  Rh219  1  0.79848267  0.19878738  0.40672305  1
  Rh  Rh220  1  0.59818278  0.19757490  0.20364444  1
  Rh  Rh221  1  0.00960683  0.80056919  0.80388575  1
  Rh  Rh222  1  0.20734438  0.80494152  0.20622418  1
  Rh  Rh223  1  0.60564519  0.40156905  0.60126688  1
  Rh  Rh224  1  0.79541876  0.40677004  0.21339909  1
  Rh  Rh225  1  0.20814319  0.39452577  0.60403009  1
  Rh  Rh226  1  0.59865568  0.00202499  0.39970058  1
  Rh  Rh227  1  0.20391780  0.59888800  0.60393333  1
  Rh  Rh228  1  0.79857986  0.59628242  0.39685167  1
  Rh  Rh229  1  0.19466712  0.39564660  0.79398905  1
  Rh  Rh230  1  0.60534271  0.79517411  0.00307329  1
  Rh  Rh231  1  0.19130919  0.80738993  0.60278315  1
  Rh  Rh232  1  0.79662889  0.80025200  0.59467784  1
  Rh  Rh233  1  -0.00874856  0.00831437  0.78344058  1
  Rh  Rh234  1  0.19805693  0.20267987  0.59479350  1
  Rh  Rh235  1  0.79144421  0.00176500  0.21406103  1
  Rh  Rh236  1  0.79810288  0.60937543  0.60228359  1
  Rh  Rh237  1  0.79561654  0.61019448  0.80286522  1
  Rh  Rh238  1  0.60002802  0.59662652  0.79265850  1
  Rh  Rh239  1  0.20927893  0.00059438  -0.00268420  1
  Rh  Rh240  1  0.40398981  0.39515475  0.20250858  1
  Rh  Rh241  1  0.78981402  0.80571206  0.19695024  1
  Rh  Rh242  1  0.80697669  0.18703684  0.79941311  1
  Rh  Rh243  1  -0.00044792  0.40819648  0.60052061  1
  Rh  Rh244  1  0.79477180  0.80223536  0.80466490  1
  Rh  Rh245  1  -0.00817665  -0.00418333  0.39788811  1
  Rh  Rh246  1  0.00188504  0.00652899  0.60093041  1
  Rh  Rh247  1  0.40015305  0.80774962  0.39391673  1
  Rh  Rh248  1  0.19368400  0.00074116  0.20846468  1
  Rh  Rh249  1  -0.00015181  0.59141834  0.19891806  1
