# generated using pymatgen
data_ZrScNbPdRh
_symmetry_space_group_name_H-M   'P 1'
_cell_length_a   16.55949570
_cell_length_b   16.55908299
_cell_length_c   16.55562216
_cell_angle_alpha   90.01285652
_cell_angle_beta   90.00656561
_cell_angle_gamma   90.00352391
_symmetry_Int_Tables_number   1
_chemical_formula_structural   ZrScNbPdRh
_chemical_formula_sum   'Zr50 Sc50 Nb50 Pd50 Rh50'
_cell_volume   4539.71805148
_cell_formula_units_Z   50
loop_
 _symmetry_equiv_pos_site_id
 _symmetry_equiv_pos_as_xyz
  1  'x, y, z'
loop_
 _atom_site_type_symbol
 _atom_site_label
 _atom_site_symmetry_multiplicity
 _atom_site_fract_x
 _atom_site_fract_y
 _atom_site_fract_z
 _atom_site_occupancy
  Zr  Zr0  1  0.30596651  0.30689736  0.09301201  1
  Zr  Zr1  1  0.89870090  0.10313403  0.09638876  1
  Zr  Zr2  1  0.09238469  0.70345439  0.30044825  1
  Zr  Zr3  1  0.29875483  0.90502030  0.50348398  1
  Zr  Zr4  1  0.69615683  0.69795313  0.30252731  1
  Zr  Zr5  1  0.70173357  0.50752328  0.50311761  1
  Zr  Zr6  1  0.30614021  0.09967385  0.89112711  1
  Zr  Zr7  1  0.10518173  0.69613273  0.69979524  1
  Zr  Zr8  1  0.30715317  0.70337675  0.70554407  1
  Zr  Zr9  1  0.50309976  0.50156012  0.10033420  1
  Zr  Zr10  1  0.69218641  0.91137630  0.09594197  1
  Zr  Zr11  1  0.90494388  0.70506116  0.10294589  1
  Zr  Zr12  1  0.50151190  0.90018296  0.69680778  1
  Zr  Zr13  1  0.48925365  0.29163190  0.89087707  1
  Zr  Zr14  1  0.30475590  0.30214984  0.70787250  1
  Zr  Zr15  1  0.09822072  0.70602104  0.09962920  1
  Zr  Zr16  1  0.29840505  0.49656175  0.50178826  1
  Zr  Zr17  1  0.90268798  0.09708953  0.29724206  1
  Zr  Zr18  1  0.30869214  0.90973291  0.69819485  1
  Zr  Zr19  1  0.29323924  0.29250213  0.30538350  1
  Zr  Zr20  1  0.11169017  0.50314313  0.09330756  1
  Zr  Zr21  1  0.30337287  0.70209515  0.90184375  1
  Zr  Zr22  1  0.49589503  0.49895618  0.70332863  1
  Zr  Zr23  1  0.69354124  0.69910558  0.49845509  1
  Zr  Zr24  1  0.69081150  0.89649897  0.29399309  1
  Zr  Zr25  1  0.10567566  0.30328240  0.49760472  1
  Zr  Zr26  1  0.29627122  0.90543538  0.90010447  1
  Zr  Zr27  1  0.49801682  0.09142631  0.30105016  1
  Zr  Zr28  1  0.69918807  0.49174131  0.09432066  1
  Zr  Zr29  1  0.89962603  0.69983410  0.69950357  1
  Zr  Zr30  1  0.90300257  0.89962780  0.49974790  1
  Zr  Zr31  1  0.90238487  0.29055533  0.69824079  1
  Zr  Zr32  1  0.90195649  0.50859426  0.30124075  1
  Zr  Zr33  1  0.89733020  0.69559359  0.49302361  1
  Zr  Zr34  1  0.88803059  0.10700726  0.50717853  1
  Zr  Zr35  1  0.50754089  0.29717651  0.50146384  1
  Zr  Zr36  1  0.51191902  0.29703445  0.30046652  1
  Zr  Zr37  1  0.50524161  0.30024262  0.09915664  1
  Zr  Zr38  1  0.28370798  0.48645095  0.90951745  1
  Zr  Zr39  1  0.49792591  0.70077319  0.09149682  1
  Zr  Zr40  1  0.30278301  0.90922900  0.30395759  1
  Zr  Zr41  1  0.89688846  0.90439507  0.89841351  1
  Zr  Zr42  1  0.90507499  0.29109693  0.89149740  1
  Zr  Zr43  1  0.70201666  0.90604380  0.89999678  1
  Zr  Zr44  1  0.69919374  0.50270371  0.90347895  1
  Zr  Zr45  1  0.89844638  0.49509104  0.49147216  1
  Zr  Zr46  1  0.10040338  0.09941132  0.10024370  1
  Zr  Zr47  1  0.09821637  0.29785340  0.70150953  1
  Zr  Zr48  1  0.89912407  0.69895356  0.29276135  1
  Zr  Zr49  1  0.89431634  0.90481851  0.70464915  1
  Sc  Sc50  1  0.30343240  0.70206932  0.09844968  1
  Sc  Sc51  1  0.51053722  0.89683771  0.89559578  1
  Sc  Sc52  1  0.90492683  0.90149913  0.29549305  1
  Sc  Sc53  1  0.69574974  0.69544230  0.89731921  1
  Sc  Sc54  1  0.50859931  0.70217746  0.29466652  1
  Sc  Sc55  1  0.70301003  0.29194126  0.49370407  1
  Sc  Sc56  1  0.89398248  0.50226080  0.89655161  1
  Sc  Sc57  1  0.50496213  0.49932485  0.30179343  1
  Sc  Sc58  1  0.10700142  0.30530665  0.88748457  1
  Sc  Sc59  1  0.90273474  0.90142744  0.10492377  1
  Sc  Sc60  1  0.10382260  0.89724453  0.90709532  1
  Sc  Sc61  1  0.49875688  0.89967263  0.28953001  1
  Sc  Sc62  1  0.30824517  0.49478662  0.30233652  1
  Sc  Sc63  1  0.10461195  0.10188252  0.89273729  1
  Sc  Sc64  1  0.50970655  0.09712388  0.10044938  1
  Sc  Sc65  1  0.10705965  0.70084180  0.90117800  1
  Sc  Sc66  1  0.69855290  0.69217655  0.10012375  1
  Sc  Sc67  1  0.29696938  0.30763221  0.50327943  1
  Sc  Sc68  1  0.69636398  0.10932567  0.29050203  1
  Sc  Sc69  1  0.10830726  0.10564153  0.69805069  1
  Sc  Sc70  1  0.51333568  0.70275505  0.50815869  1
  Sc  Sc71  1  0.09952118  0.49612872  0.71325559  1
  Sc  Sc72  1  0.10238933  0.90121598  0.69644668  1
  Sc  Sc73  1  0.89462431  0.69991739  0.90006758  1
  Sc  Sc74  1  0.29110620  0.70279320  0.51386165  1
  Sc  Sc75  1  0.10516635  0.29383509  0.30337401  1
  Sc  Sc76  1  0.50658885  0.10317008  0.89896554  1
  Sc  Sc77  1  0.89975153  0.49395514  0.69757297  1
  Sc  Sc78  1  0.69443440  0.28942300  0.70206731  1
  Sc  Sc79  1  0.09916211  0.28967945  0.10312924  1
  Sc  Sc80  1  0.29899631  0.08936042  0.49993821  1
  Sc  Sc81  1  0.30288251  0.50110412  0.69590975  1
  Sc  Sc82  1  0.10711703  0.09888167  0.49945840  1
  Sc  Sc83  1  0.89354003  0.29909814  0.10175880  1
  Sc  Sc84  1  0.88417982  0.30622896  0.30148233  1
  Sc  Sc85  1  0.30943497  0.50460757  0.09723602  1
  Sc  Sc86  1  0.88677105  0.50493313  0.10066839  1
  Sc  Sc87  1  0.10144796  0.89642421  0.09707151  1
  Sc  Sc88  1  0.09835875  0.71690318  0.49767504  1
  Sc  Sc89  1  0.29292670  0.08902506  0.10716891  1
  Sc  Sc90  1  0.69798541  0.09956533  0.69709018  1
  Sc  Sc91  1  0.29747230  0.89651705  0.10335586  1
  Sc  Sc92  1  0.49583757  0.49874148  0.49937142  1
  Sc  Sc93  1  0.50471726  0.50145460  0.89520364  1
  Sc  Sc94  1  0.69195308  0.29211024  0.90680515  1
  Sc  Sc95  1  0.11035528  0.10145524  0.29886770  1
  Sc  Sc96  1  0.69378188  0.90481212  0.70321092  1
  Sc  Sc97  1  0.70340252  0.49831308  0.29996544  1
  Sc  Sc98  1  0.50735780  0.09613437  0.70471627  1
  Sc  Sc99  1  0.89470059  0.30496594  0.50516214  1
  Nb  Nb100  1  0.69184657  0.09984923  0.50348082  1
  Nb  Nb101  1  0.09670009  0.50269783  0.29979465  1
  Nb  Nb102  1  0.68951962  0.68814852  0.68894735  1
  Nb  Nb103  1  0.50553734  0.10102570  0.50137038  1
  Nb  Nb104  1  0.29516888  0.70634132  0.30686339  1
  Nb  Nb105  1  0.89878773  0.09913372  0.89762513  1
  Nb  Nb106  1  0.30436415  0.09904629  0.30036515  1
  Nb  Nb107  1  0.30244588  0.29456547  0.89947492  1
  Nb  Nb108  1  0.49975153  0.90150104  0.09987063  1
  Nb  Nb109  1  0.50258343  0.90133203  0.50069520  1
  Nb  Nb110  1  0.69557625  0.49971144  0.70179997  1
  Nb  Nb111  1  0.49966304  0.69708446  0.89158768  1
  Nb  Nb112  1  0.49978825  0.29898015  0.70271582  1
  Nb  Nb113  1  0.69525008  0.29874090  0.11302334  1
  Nb  Nb114  1  0.69850442  0.10513853  0.08834563  1
  Nb  Nb115  1  0.09629932  0.49783472  0.48797798  1
  Nb  Nb116  1  0.70266644  0.09562798  0.91520339  1
  Nb  Nb117  1  0.09859809  0.90521381  0.49496116  1
  Nb  Nb118  1  0.69304932  0.89705899  0.50247917  1
  Nb  Nb119  1  0.90380766  0.10225081  0.70519555  1
  Nb  Nb120  1  0.50280279  0.69566395  0.71078074  1
  Nb  Nb121  1  0.69591868  0.30431087  0.29088136  1
  Nb  Nb122  1  0.30588299  0.09534013  0.69703258  1
  Nb  Nb123  1  0.10193891  0.89481102  0.32166612  1
  Nb  Nb124  1  0.09664667  0.49728215  0.90394188  1
  Nb  Nb125  1  -0.00404083  0.00798758  -0.00488337  1
  Nb  Nb126  1  0.00258556  0.59603838  -0.00135012  1
  Nb  Nb127  1  0.39431703  0.61271417  0.40058635  1
  Nb  Nb128  1  0.78967977  -0.00134291  0.40423235  1
  Nb  Nb129  1  0.00409311  0.40687792  0.19791502  1
  Nb  Nb130  1  0.60026308  0.40004858  0.60654913  1
  Nb  Nb131  1  0.00378522  0.59622797  0.59338246  1
  Nb  Nb132  1  -0.00447048  0.00352603  0.60135035  1
  Nb  Nb133  1  0.40035172  0.79937151  0.40356670  1
  Nb  Nb134  1  -0.00178804  0.80088219  0.79869607  1
  Nb  Nb135  1  0.20922203  0.20069338  -0.00581311  1
  Nb  Nb136  1  0.20052200  0.60057938  0.20891467  1
  Nb  Nb137  1  0.19917638  0.59992627  0.39783580  1
  Nb  Nb138  1  0.40378164  -0.00439848  0.00084754  1
  Nb  Nb139  1  -0.00461105  0.19968352  0.40233455  1
  Nb  Nb140  1  0.79352427  0.80603330  0.40250621  1
  Nb  Nb141  1  0.19751505  0.40473225  0.20118965  1
  Nb  Nb142  1  0.40436015  0.19638386  0.59972575  1
  Nb  Nb143  1  0.00175711  0.40305564  -0.00006737  1
  Nb  Nb144  1  0.79167726  0.79836003  0.59817290  1
  Nb  Nb145  1  0.60234475  0.00005231  0.40635074  1
  Nb  Nb146  1  0.79723447  0.80530322  0.00112872  1
  Nb  Nb147  1  0.79336687  0.39671479  0.79791284  1
  Nb  Nb148  1  0.40208634  0.19358865  0.40204357  1
  Nb  Nb149  1  0.39866389  0.19637461  0.20527738  1
  Pd  Pd150  1  -0.00072010  0.60487262  0.80274105  1
  Pd  Pd151  1  0.01113737  -0.00568402  0.19745952  1
  Pd  Pd152  1  0.79206024  0.01378878  0.79936940  1
  Pd  Pd153  1  0.39988366  0.39340263  0.20690435  1
  Pd  Pd154  1  0.41028404  0.40644697  -0.00970620  1
  Pd  Pd155  1  0.60725238  0.79538085  0.79475085  1
  Pd  Pd156  1  -0.00348510  0.01143014  0.40729545  1
  Pd  Pd157  1  0.78836618  0.39151336  0.60704858  1
  Pd  Pd158  1  0.19761623  0.80184682  0.20308095  1
  Pd  Pd159  1  0.59415115  0.39317753  -0.00674476  1
  Pd  Pd160  1  0.19660938  0.80517956  0.79699769  1
  Pd  Pd161  1  0.38917162  0.58840250  0.80925156  1
  Pd  Pd162  1  0.21322672  0.19889513  0.59727860  1
  Pd  Pd163  1  0.60463031  0.39418796  0.79891544  1
  Pd  Pd164  1  0.01038097  -0.00115495  0.79932358  1
  Pd  Pd165  1  0.79816526  -0.00224182  0.59984238  1
  Pd  Pd166  1  0.40087719  0.79652088  0.20513983  1
  Pd  Pd167  1  0.01128151  0.20187062  -0.01074153  1
  Pd  Pd168  1  -0.00287057  0.38700062  0.38968346  1
  Pd  Pd169  1  0.80746277  0.60021223  0.60313813  1
  Pd  Pd170  1  0.79754408  0.20905211  0.00121272  1
  Pd  Pd171  1  0.19993639  0.80926500  0.60451423  1
  Pd  Pd172  1  0.39574958  0.18478509  0.01187260  1
  Pd  Pd173  1  -0.00284872  0.80205629  0.60609529  1
  Pd  Pd174  1  0.20746466  0.59551570  0.80433515  1
  Pd  Pd175  1  0.79333286  0.79233811  0.79740670  1
  Pd  Pd176  1  0.00734252  0.40725251  0.60150065  1
  Pd  Pd177  1  0.60300500  0.59572413  0.19864387  1
  Pd  Pd178  1  0.40747349  0.79376583  0.59569386  1
  Pd  Pd179  1  0.19231900  0.40753571  0.60745061  1
  Pd  Pd180  1  0.79940714  0.19817163  0.19835823  1
  Pd  Pd181  1  0.40205568  0.39493404  0.39940729  1
  Pd  Pd182  1  0.19043303  -0.01064294  0.20782305  1
  Pd  Pd183  1  0.80627174  0.38936154  -0.00838666  1
  Pd  Pd184  1  0.00442781  0.19397790  0.59291988  1
  Pd  Pd185  1  0.40342206  0.80811636  0.80495004  1
  Pd  Pd186  1  0.79267639  0.80129226  0.19665588  1
  Pd  Pd187  1  0.18810646  0.59166688  0.59367071  1
  Pd  Pd188  1  0.79607036  0.59569422  0.79521308  1
  Pd  Pd189  1  0.19512329  -0.00048242  0.79442441  1
  Pd  Pd190  1  -0.00610342  0.21164131  0.21194525  1
  Pd  Pd191  1  0.40175211  0.80890951  -0.00600292  1
  Pd  Pd192  1  0.79714756  0.19684260  0.39538690  1
  Pd  Pd193  1  0.79373867  0.00485491  0.20103980  1
  Pd  Pd194  1  0.60530028  0.79554778  0.00073878  1
  Pd  Pd195  1  0.39565593  0.60700561  0.20923273  1
  Pd  Pd196  1  0.60887010  0.40350809  0.40759563  1
  Pd  Pd197  1  0.40188350  0.59396701  -0.01047677  1
  Pd  Pd198  1  0.79081850  0.19672593  0.80136180  1
  Pd  Pd199  1  0.40580543  0.60797258  0.59374119  1
  Rh  Rh200  1  0.59641643  0.19593200  0.19615151  1
  Rh  Rh201  1  0.00548978  0.59321969  0.18596397  1
  Rh  Rh202  1  0.79323632  0.40133347  0.39837926  1
  Rh  Rh203  1  0.59831314  0.20363929  0.00215284  1
  Rh  Rh204  1  0.60066152  0.80086715  0.61218471  1
  Rh  Rh205  1  0.59583453  -0.00115680  0.59768469  1
  Rh  Rh206  1  0.60113467  0.40732159  0.20003071  1
  Rh  Rh207  1  0.39454395  0.40484854  0.80546478  1
  Rh  Rh208  1  0.59644179  0.20509545  0.60431498  1
  Rh  Rh209  1  0.20673823  0.20037262  0.79958488  1
  Rh  Rh210  1  0.40161661  0.19202622  0.78803347  1
  Rh  Rh211  1  0.60160990  0.60153343  0.80078104  1
  Rh  Rh212  1  0.18970078  0.38292090  0.00421290  1
  Rh  Rh213  1  0.21394646  0.20812202  0.18825112  1
  Rh  Rh214  1  0.59315273  0.80900816  0.39498079  1
  Rh  Rh215  1  0.40784516  -0.00320703  0.40648044  1
  Rh  Rh216  1  0.60216669  0.19290251  0.39478761  1
  Rh  Rh217  1  0.19780635  0.00712650  -0.00110186  1
  Rh  Rh218  1  0.80645167  0.61225558  0.00445278  1
  Rh  Rh219  1  0.00833223  0.60840931  0.40914240  1
  Rh  Rh220  1  0.59094941  0.00108429  -0.00454195  1
  Rh  Rh221  1  -0.01223759  0.79940210  0.39476451  1
  Rh  Rh222  1  0.20469307  0.40044966  0.79579764  1
  Rh  Rh223  1  0.19306740  -0.00173790  0.60248176  1
  Rh  Rh224  1  0.40956513  0.38978781  0.60089592  1
  Rh  Rh225  1  0.40221730  0.00275111  0.18774829  1
  Rh  Rh226  1  0.79493307  0.20068275  0.60610451  1
  Rh  Rh227  1  0.20896265  0.79828094  0.00191783  1
  Rh  Rh228  1  0.58895412  0.58965131  0.60238493  1
  Rh  Rh229  1  0.60368691  0.19323381  0.80410479  1
  Rh  Rh230  1  0.60538338  0.00632367  0.80586963  1
  Rh  Rh231  1  0.20077614  0.40816794  0.39205589  1
  Rh  Rh232  1  0.19897626  0.61154261  0.00346100  1
  Rh  Rh233  1  0.40883786  -0.00104146  0.80607744  1
  Rh  Rh234  1  0.80117276  0.40420286  0.20056819  1
  Rh  Rh235  1  0.80864713  -0.00303272  0.00683804  1
  Rh  Rh236  1  -0.01092366  0.80244717  -0.01164081  1
  Rh  Rh237  1  0.40932504  0.00793504  0.59960540  1
  Rh  Rh238  1  0.60303975  0.00590166  0.20033846  1
  Rh  Rh239  1  0.79344371  0.59787725  0.19926261  1
  Rh  Rh240  1  0.79512271  0.60377239  0.39381760  1
  Rh  Rh241  1  0.20813575  0.80209005  0.40730733  1
  Rh  Rh242  1  0.59369757  0.60357781  -0.00383520  1
  Rh  Rh243  1  -0.01164624  0.40112971  0.80496181  1
  Rh  Rh244  1  0.59621834  0.79600197  0.18701169  1
  Rh  Rh245  1  0.59243953  0.59544036  0.40152315  1
  Rh  Rh246  1  0.00836635  0.81258067  0.20782525  1
  Rh  Rh247  1  0.19972899  0.00296701  0.39752461  1
  Rh  Rh248  1  0.20344454  0.19329202  0.40893858  1
  Rh  Rh249  1  0.00603304  0.19382847  0.79929525  1
