# generated using pymatgen
data_ZrScNbPdRh
_symmetry_space_group_name_H-M   'P 1'
_cell_length_a   16.55158420
_cell_length_b   16.55457843
_cell_length_c   16.55821612
_cell_angle_alpha   89.95861530
_cell_angle_beta   89.98963239
_cell_angle_gamma   89.97007023
_symmetry_Int_Tables_number   1
_chemical_formula_structural   ZrScNbPdRh
_chemical_formula_sum   'Zr50 Sc50 Nb50 Pd50 Rh50'
_cell_volume   4537.02383148
_cell_formula_units_Z   50
loop_
 _symmetry_equiv_pos_site_id
 _symmetry_equiv_pos_as_xyz
  1  'x, y, z'
loop_
 _atom_site_type_symbol
 _atom_site_label
 _atom_site_symmetry_multiplicity
 _atom_site_fract_x
 _atom_site_fract_y
 _atom_site_fract_z
 _atom_site_occupancy
  Zr  Zr0  1  0.10829339  0.30028344  0.29846067  1
  Zr  Zr1  1  0.70199763  0.69766355  0.90860745  1
  Zr  Zr2  1  0.90559031  0.69638807  0.90581352  1
  Zr  Zr3  1  0.69764571  0.69951363  0.69499825  1
  Zr  Zr4  1  0.70137817  0.89804078  0.10513997  1
  Zr  Zr5  1  0.09766232  0.50478867  0.89729198  1
  Zr  Zr6  1  0.89707236  0.70357054  0.10161159  1
  Zr  Zr7  1  0.90296802  0.89474748  0.49831750  1
  Zr  Zr8  1  0.29185555  0.69756577  0.49468618  1
  Zr  Zr9  1  0.50312140  0.69096581  0.49507370  1
  Zr  Zr10  1  0.10485265  0.69225897  0.89805331  1
  Zr  Zr11  1  0.89934697  0.49762928  0.30210893  1
  Zr  Zr12  1  0.68957158  0.50159822  0.50012326  1
  Zr  Zr13  1  0.10201234  0.89862300  0.10451388  1
  Zr  Zr14  1  0.89842743  0.30258214  0.50932656  1
  Zr  Zr15  1  0.29115363  0.90692565  0.48997064  1
  Zr  Zr16  1  0.90067887  0.69367697  0.29562921  1
  Zr  Zr17  1  0.29660162  0.50089802  0.50157800  1
  Zr  Zr18  1  0.50570867  0.30266564  0.09717152  1
  Zr  Zr19  1  0.90743886  0.29834083  0.30277981  1
  Zr  Zr20  1  0.29799852  0.09849602  0.10063613  1
  Zr  Zr21  1  0.69413498  0.29645346  0.29512346  1
  Zr  Zr22  1  0.90383315  0.89082454  0.09676447  1
  Zr  Zr23  1  0.10500744  0.90019321  0.70073599  1
  Zr  Zr24  1  0.49364308  0.69817270  0.70767485  1
  Zr  Zr25  1  0.49202517  0.10601389  0.09994996  1
  Zr  Zr26  1  0.30565359  0.50222209  0.09328100  1
  Zr  Zr27  1  0.89444639  0.31015801  0.10350315  1
  Zr  Zr28  1  0.09517458  0.49850604  0.30152218  1
  Zr  Zr29  1  0.90620540  0.49910481  0.50508627  1
  Zr  Zr30  1  0.90102810  0.31007416  0.89601833  1
  Zr  Zr31  1  0.68806652  0.49713660  0.08842566  1
  Zr  Zr32  1  0.29989345  0.49733612  0.90229939  1
  Zr  Zr33  1  0.30554380  0.70385934  0.09433483  1
  Zr  Zr34  1  0.10318231  0.69570022  0.70500166  1
  Zr  Zr35  1  0.89555873  0.69705155  0.49176496  1
  Zr  Zr36  1  0.70221820  0.69989467  0.09973246  1
  Zr  Zr37  1  0.30814775  0.89255379  0.90864659  1
  Zr  Zr38  1  0.50114862  0.68590223  0.09641129  1
  Zr  Zr39  1  0.69514831  0.10331739  0.11382033  1
  Zr  Zr40  1  0.70392622  0.30386972  0.69844327  1
  Zr  Zr41  1  0.30360468  0.10281205  0.90529415  1
  Zr  Zr42  1  0.10193400  0.29309033  0.10142059  1
  Zr  Zr43  1  0.89665431  0.09581685  0.89685820  1
  Zr  Zr44  1  0.30088605  0.09957809  0.49671283  1
  Zr  Zr45  1  0.09010780  0.11189695  0.29766144  1
  Zr  Zr46  1  0.49893445  0.09453260  0.89727622  1
  Zr  Zr47  1  0.09566563  0.69754130  0.50171795  1
  Zr  Zr48  1  0.70197206  0.69634313  0.49720843  1
  Zr  Zr49  1  0.10282305  0.29605597  0.70548614  1
  Sc  Sc50  1  0.50051277  0.49442029  0.70050307  1
  Sc  Sc51  1  0.69253442  0.90662008  0.29129723  1
  Sc  Sc52  1  0.09072886  0.69905207  0.09578205  1
  Sc  Sc53  1  0.30228868  0.90048730  0.70617180  1
  Sc  Sc54  1  0.10522625  0.89823098  0.30488736  1
  Sc  Sc55  1  0.49868772  0.29841669  0.90382731  1
  Sc  Sc56  1  0.90350111  0.30637229  0.69445875  1
  Sc  Sc57  1  0.90336171  0.09820554  0.11431961  1
  Sc  Sc58  1  0.50741259  0.29886708  0.48912208  1
  Sc  Sc59  1  0.70623291  0.89939936  0.88863438  1
  Sc  Sc60  1  0.09808687  0.89846979  0.90790766  1
  Sc  Sc61  1  0.10331725  0.09977363  0.10094012  1
  Sc  Sc62  1  0.69598366  0.10135696  0.69966754  1
  Sc  Sc63  1  0.50454793  0.90582523  0.71314088  1
  Sc  Sc64  1  0.70681839  0.70037950  0.29744901  1
  Sc  Sc65  1  0.49267813  0.90356180  0.11526773  1
  Sc  Sc66  1  0.30019698  0.29086153  0.09372757  1
  Sc  Sc67  1  0.49965280  0.10031589  0.30358085  1
  Sc  Sc68  1  0.90608909  0.11565288  0.49582432  1
  Sc  Sc69  1  0.50554265  0.50050617  0.30904979  1
  Sc  Sc70  1  0.70013868  0.90451782  0.70239913  1
  Sc  Sc71  1  0.10087222  0.49640669  0.09031259  1
  Sc  Sc72  1  0.49592263  0.49670869  0.90597176  1
  Sc  Sc73  1  0.48608942  0.70385539  0.89997132  1
  Sc  Sc74  1  0.30449381  0.48726322  0.69983982  1
  Sc  Sc75  1  0.30529120  0.09669502  0.70877420  1
  Sc  Sc76  1  0.30076839  0.10647978  0.30013490  1
  Sc  Sc77  1  0.90483043  0.89565409  0.29682164  1
  Sc  Sc78  1  0.50843087  0.09758578  0.70498971  1
  Sc  Sc79  1  0.90911427  0.49628780  0.89986366  1
  Sc  Sc80  1  0.09615186  0.30413947  0.49868720  1
  Sc  Sc81  1  0.29955899  0.69864591  0.89140142  1
  Sc  Sc82  1  0.89956408  0.69761640  0.68568244  1
  Sc  Sc83  1  0.10399857  0.30422602  0.89997000  1
  Sc  Sc84  1  0.09530851  0.50102690  0.69566570  1
  Sc  Sc85  1  0.30195230  0.30382564  0.49175582  1
  Sc  Sc86  1  0.50163665  0.69279403  0.29389722  1
  Sc  Sc87  1  0.70189712  0.49921714  0.29816557  1
  Sc  Sc88  1  0.89365946  0.90310253  0.70549030  1
  Sc  Sc89  1  0.69235996  0.91148081  0.49780255  1
  Sc  Sc90  1  0.09615177  0.69822205  0.30241581  1
  Sc  Sc91  1  0.29364865  0.49528175  0.30748100  1
  Sc  Sc92  1  0.90383638  0.10919771  0.69999895  1
  Sc  Sc93  1  0.09853811  0.10525514  0.89960147  1
  Sc  Sc94  1  0.89778558  0.89874500  0.90036115  1
  Sc  Sc95  1  0.50166177  0.30264891  0.70557367  1
  Sc  Sc96  1  0.69480652  0.49028983  0.69383780  1
  Sc  Sc97  1  0.29413850  0.70231980  0.29952274  1
  Sc  Sc98  1  0.90317821  0.50227366  0.10476743  1
  Sc  Sc99  1  0.10913389  0.09675752  0.49132709  1
  Nb  Nb100  1  0.49213906  0.49804310  0.09600715  1
  Nb  Nb101  1  0.30108816  0.29409471  0.69919806  1
  Nb  Nb102  1  0.49109911  0.30063811  0.29708847  1
  Nb  Nb103  1  0.49573802  0.90812604  0.30635151  1
  Nb  Nb104  1  0.69815650  0.30326206  0.09638540  1
  Nb  Nb105  1  0.49977046  0.90711795  0.49612522  1
  Nb  Nb106  1  0.10418886  0.90127289  0.50373706  1
  Nb  Nb107  1  0.30351598  0.70515150  0.70073309  1
  Nb  Nb108  1  0.70431907  0.29351492  0.50206668  1
  Nb  Nb109  1  0.69259936  0.10817272  0.49883828  1
  Nb  Nb110  1  0.70252411  0.10047939  0.30458813  1
  Nb  Nb111  1  0.10729954  0.09649450  0.70102976  1
  Nb  Nb112  1  0.69820020  0.49642568  0.89317919  1
  Nb  Nb113  1  0.89968444  0.49456003  0.70337323  1
  Nb  Nb114  1  0.29699704  0.90064768  0.11220531  1
  Nb  Nb115  1  0.10022607  0.50521444  0.49766331  1
  Nb  Nb116  1  0.70053718  0.10069251  0.90236112  1
  Nb  Nb117  1  0.30468180  0.29815981  0.29767784  1
  Nb  Nb118  1  0.50289708  0.90051301  0.90478733  1
  Nb  Nb119  1  0.30651665  0.89916246  0.28995449  1
  Nb  Nb120  1  0.51058411  0.09036972  0.50044678  1
  Nb  Nb121  1  0.50109847  0.50753309  0.50254960  1
  Nb  Nb122  1  0.29749220  0.29379030  0.89041964  1
  Nb  Nb123  1  0.69944799  0.30973858  0.90369373  1
  Nb  Nb124  1  0.89901879  0.10373688  0.30393692  1
  Nb  Nb125  1  0.00344920  0.79483545  0.79922502  1
  Nb  Nb126  1  0.79645413  0.39336926  0.40638895  1
  Nb  Nb127  1  0.59203069  0.80465522  0.39995071  1
  Nb  Nb128  1  0.40227775  0.80779601  0.39846642  1
  Nb  Nb129  1  0.19984484  0.59736349  0.19493299  1
  Nb  Nb130  1  0.79460268  0.20618689  0.80924612  1
  Nb  Nb131  1  0.79751442  0.59251537  0.79918374  1
  Nb  Nb132  1  0.20295586  0.79956682  0.59881497  1
  Nb  Nb133  1  -0.01136522  0.20361645  0.00081678  1
  Nb  Nb134  1  0.79366243  0.00691678  0.00391560  1
  Nb  Nb135  1  0.60516782  0.59775973  0.80463793  1
  Nb  Nb136  1  0.60242233  -0.00212110  0.00047819  1
  Nb  Nb137  1  0.40043000  0.80277898  0.59344694  1
  Nb  Nb138  1  0.40250294  0.39749602  0.20120911  1
  Nb  Nb139  1  0.80323280  0.00928437  0.58982291  1
  Nb  Nb140  1  0.79431291  0.20327692  0.00091436  1
  Nb  Nb141  1  0.40071648  0.19634117  0.59876128  1
  Nb  Nb142  1  0.59595383  0.80628112  0.00114362  1
  Nb  Nb143  1  0.20142189  0.00011317  0.80567760  1
  Nb  Nb144  1  0.80052935  0.01151697  0.39854335  1
  Nb  Nb145  1  0.00378333  -0.00078947  0.59676467  1
  Nb  Nb146  1  0.59065293  0.80191317  0.59434408  1
  Nb  Nb147  1  0.39849534  0.60188194  0.59865558  1
  Nb  Nb148  1  0.20738982  0.19878650  0.60554571  1
  Nb  Nb149  1  0.40505907  -0.00020159  0.59449945  1
  Pd  Pd150  1  0.59141534  0.19845147  0.20744954  1
  Pd  Pd151  1  0.40307953  0.40485490  0.39864037  1
  Pd  Pd152  1  0.40357430  -0.00724893  0.00764245  1
  Pd  Pd153  1  0.80286163  0.20506939  0.19824196  1
  Pd  Pd154  1  0.40579511  0.19883733  0.79498184  1
  Pd  Pd155  1  0.19765814  0.40435644  0.79706103  1
  Pd  Pd156  1  0.80744759  0.58671833  -0.00345176  1
  Pd  Pd157  1  0.40724354  0.79428061  0.20357910  1
  Pd  Pd158  1  0.00436075  0.79962214  0.39564553  1
  Pd  Pd159  1  0.00476987  0.40113156  0.19605063  1
  Pd  Pd160  1  0.78893593  0.81297714  0.59577754  1
  Pd  Pd161  1  0.00441085  -0.00576394  0.79487768  1
  Pd  Pd162  1  0.79989476  0.58918313  0.60413494  1
  Pd  Pd163  1  0.39497733  0.60110812  0.39676318  1
  Pd  Pd164  1  0.59372573  0.40668789  0.20075729  1
  Pd  Pd165  1  0.00375852  0.80457501  0.60638851  1
  Pd  Pd166  1  0.20648723  0.60017748  0.60957076  1
  Pd  Pd167  1  0.60431466  0.59275629  0.20192950  1
  Pd  Pd168  1  0.59192975  0.79813916  0.20173062  1
  Pd  Pd169  1  -0.00421358  0.00109157  0.40383180  1
  Pd  Pd170  1  0.40740912  0.39529090  0.59210598  1
  Pd  Pd171  1  0.59285935  0.20412015  0.60139103  1
  Pd  Pd172  1  0.19581518  0.39245384  0.59825098  1
  Pd  Pd173  1  0.19894615  0.79627530  0.00198352  1
  Pd  Pd174  1  0.60434660  0.39599622  0.39899530  1
  Pd  Pd175  1  0.39153849  0.58924155  0.21102962  1
  Pd  Pd176  1  0.19954126  -0.00010444  -0.00365737  1
  Pd  Pd177  1  0.01602323  0.19232090  0.59526112  1
  Pd  Pd178  1  0.80109082  0.40700108  0.00081437  1
  Pd  Pd179  1  0.19945013  0.00418387  0.38375284  1
  Pd  Pd180  1  0.40711195  0.19544220  0.40584696  1
  Pd  Pd181  1  0.81027995  0.78680207  0.79818549  1
  Pd  Pd182  1  0.79900243  0.20314658  0.40034459  1
  Pd  Pd183  1  0.59844561  0.79399350  0.80328499  1
  Pd  Pd184  1  0.60272245  0.19677049  -0.00397508  1
  Pd  Pd185  1  0.78788271  0.81483300  0.39297876  1
  Pd  Pd186  1  0.21025109  0.40401030  0.19352434  1
  Pd  Pd187  1  0.21076941  0.58954635  0.79082063  1
  Pd  Pd188  1  0.19320535  0.78991096  0.20014352  1
  Pd  Pd189  1  -0.00605376  0.00737967  0.00408877  1
  Pd  Pd190  1  0.80717641  -0.00446940  0.20426132  1
  Pd  Pd191  1  0.60516824  0.20598684  0.80552810  1
  Pd  Pd192  1  0.19721195  0.00655986  0.20857959  1
  Pd  Pd193  1  0.20514557  0.39251326  -0.00141020  1
  Pd  Pd194  1  0.40268125  0.39721122  0.80589247  1
  Pd  Pd195  1  0.19730802  0.39733625  0.40420632  1
  Pd  Pd196  1  -0.00338977  0.20369873  0.80527504  1
  Pd  Pd197  1  0.59237575  0.39178920  0.59552751  1
  Pd  Pd198  1  0.79452993  0.59199062  0.19386415  1
  Pd  Pd199  1  0.00209500  -0.00354075  0.20395023  1
  Rh  Rh200  1  0.59010965  0.60316926  0.61288516  1
  Rh  Rh201  1  0.00702870  0.40108051  0.79523306  1
  Rh  Rh202  1  0.39866484  0.20496553  -0.00358726  1
  Rh  Rh203  1  0.79942439  0.58801403  0.40161872  1
  Rh  Rh204  1  0.80335507  0.80139857  0.20654043  1
  Rh  Rh205  1  0.00453224  0.79907385  0.20252308  1
  Rh  Rh206  1  -0.00324636  0.39970353  0.40428201  1
  Rh  Rh207  1  0.39790625  0.60157351  -0.01088659  1
  Rh  Rh208  1  0.59714353  0.20000647  0.39518284  1
  Rh  Rh209  1  0.00394754  0.39548526  0.00214830  1
  Rh  Rh210  1  -0.00377200  0.20387575  0.19466649  1
  Rh  Rh211  1  0.79158042  0.81132878  -0.00148247  1
  Rh  Rh212  1  0.59602922  0.40241167  0.80590731  1
  Rh  Rh213  1  0.80021407  0.40146654  0.79669392  1
  Rh  Rh214  1  0.39652329  0.00757721  0.20424767  1
  Rh  Rh215  1  0.60205785  -0.00394771  0.60548379  1
  Rh  Rh216  1  0.60844667  0.60666861  0.39062441  1
  Rh  Rh217  1  0.00791463  0.59772672  0.19734071  1
  Rh  Rh218  1  -0.00187000  0.59603316  0.00510760  1
  Rh  Rh219  1  0.20167730  0.80194705  0.39943252  1
  Rh  Rh220  1  0.60779628  0.00113788  0.39287731  1
  Rh  Rh221  1  0.60498858  -0.00019762  0.80741329  1
  Rh  Rh222  1  0.20595129  0.19822603  0.20263067  1
  Rh  Rh223  1  0.39524734  0.39041845  0.00117716  1
  Rh  Rh224  1  0.40765099  0.80681223  0.01355574  1
  Rh  Rh225  1  0.19715628  0.80661117  0.79994269  1
  Rh  Rh226  1  0.59433694  0.40136269  -0.00508225  1
  Rh  Rh227  1  0.20010364  0.20625297  0.40290531  1
  Rh  Rh228  1  0.39560112  0.00274053  0.39789616  1
  Rh  Rh229  1  -0.00076381  0.59971437  0.40228885  1
  Rh  Rh230  1  0.39911324  0.20469334  0.19910491  1
  Rh  Rh231  1  0.39675307  -0.00458316  0.80002291  1
  Rh  Rh232  1  0.79878742  0.01234921  0.79243582  1
  Rh  Rh233  1  0.59315578  0.60200639  -0.00905257  1
  Rh  Rh234  1  0.19197977  0.59774741  0.39124481  1
  Rh  Rh235  1  0.20244112  0.00022578  0.61058901  1
  Rh  Rh236  1  0.00432769  0.20626201  0.40363201  1
  Rh  Rh237  1  0.79677943  0.40470203  0.59392681  1
  Rh  Rh238  1  0.00389886  0.79782142  -0.00613342  1
  Rh  Rh239  1  0.19376620  0.20021398  -0.00553315  1
  Rh  Rh240  1  0.20333036  0.60582698  0.00558531  1
  Rh  Rh241  1  0.79472630  0.19450532  0.61053455  1
  Rh  Rh242  1  -0.00162692  0.59679807  0.60018669  1
  Rh  Rh243  1  0.00726734  0.40413172  0.60241404  1
  Rh  Rh244  1  0.40049120  0.80908265  0.79863301  1
  Rh  Rh245  1  -0.01301309  0.60392031  0.79107445  1
  Rh  Rh246  1  0.20195012  0.19263363  0.79965850  1
  Rh  Rh247  1  0.40141123  0.59030176  0.79479045  1
  Rh  Rh248  1  0.59206062  0.00709704  0.20161610  1
  Rh  Rh249  1  0.79371623  0.40035018  0.20536108  1
