# generated using pymatgen
data_ZrScNbPdRh
_symmetry_space_group_name_H-M   'P 1'
_cell_length_a   16.56540201
_cell_length_b   16.56337557
_cell_length_c   16.56264431
_cell_angle_alpha   90.01141555
_cell_angle_beta   90.04976057
_cell_angle_gamma   89.98334272
_symmetry_Int_Tables_number   1
_chemical_formula_structural   ZrScNbPdRh
_chemical_formula_sum   'Zr50 Sc50 Nb50 Pd50 Rh50'
_cell_volume   4544.43937475
_cell_formula_units_Z   50
loop_
 _symmetry_equiv_pos_site_id
 _symmetry_equiv_pos_as_xyz
  1  'x, y, z'
loop_
 _atom_site_type_symbol
 _atom_site_label
 _atom_site_symmetry_multiplicity
 _atom_site_fract_x
 _atom_site_fract_y
 _atom_site_fract_z
 _atom_site_occupancy
  Zr  Zr0  1  0.90502026  0.29719742  0.69672603  1
  Zr  Zr1  1  0.69650836  0.70763482  0.50007949  1
  Zr  Zr2  1  0.70534098  0.69728810  0.88925913  1
  Zr  Zr3  1  0.49804044  0.50585864  0.70012957  1
  Zr  Zr4  1  0.49809990  0.49914406  0.49235425  1
  Zr  Zr5  1  0.71019725  0.90605179  0.10091797  1
  Zr  Zr6  1  0.69798934  0.70298585  0.69542169  1
  Zr  Zr7  1  0.89528558  0.29880425  0.49705407  1
  Zr  Zr8  1  0.70600354  0.10148193  0.51110973  1
  Zr  Zr9  1  0.10633537  0.10648795  0.09707458  1
  Zr  Zr10  1  0.50088562  0.09896289  0.29812907  1
  Zr  Zr11  1  0.49854670  0.89982068  0.89442212  1
  Zr  Zr12  1  0.30948662  0.09607617  0.70104702  1
  Zr  Zr13  1  0.10222430  0.30478035  0.09559851  1
  Zr  Zr14  1  0.70648182  0.09294482  0.89700461  1
  Zr  Zr15  1  0.30081358  0.90158377  0.50902293  1
  Zr  Zr16  1  0.30791584  0.50056615  0.50294021  1
  Zr  Zr17  1  0.10154005  0.30153685  0.89782721  1
  Zr  Zr18  1  0.10492799  0.50460616  0.70671242  1
  Zr  Zr19  1  0.69872594  0.10426795  0.10328507  1
  Zr  Zr20  1  0.49367333  0.90697016  0.69727296  1
  Zr  Zr21  1  0.30088442  0.11074928  0.29767101  1
  Zr  Zr22  1  0.49148919  0.30571370  0.30266977  1
  Zr  Zr23  1  0.50118637  0.10274457  0.10466930  1
  Zr  Zr24  1  0.89314432  0.70340257  0.50874394  1
  Zr  Zr25  1  0.50062720  0.09718416  0.70754402  1
  Zr  Zr26  1  0.50139794  0.69902056  0.89586019  1
  Zr  Zr27  1  0.29324895  0.29653357  0.10839698  1
  Zr  Zr28  1  0.89361460  0.29833216  0.10634432  1
  Zr  Zr29  1  0.09679473  0.90230363  0.89438295  1
  Zr  Zr30  1  0.49148058  0.29560242  0.70509199  1
  Zr  Zr31  1  0.10267263  0.49952298  0.29476776  1
  Zr  Zr32  1  0.10556987  0.70945135  0.70904106  1
  Zr  Zr33  1  0.50405477  0.29857349  0.90911763  1
  Zr  Zr34  1  0.49995069  0.30319851  0.09951102  1
  Zr  Zr35  1  0.09864279  0.29432330  0.50723631  1
  Zr  Zr36  1  0.49203379  0.09785814  0.89980662  1
  Zr  Zr37  1  0.89738987  0.50533380  0.50242384  1
  Zr  Zr38  1  0.29973739  0.49662675  0.09591972  1
  Zr  Zr39  1  0.09329026  0.49822027  0.90293507  1
  Zr  Zr40  1  0.50715862  0.89579572  0.49655650  1
  Zr  Zr41  1  0.50134701  0.49671350  0.10866426  1
  Zr  Zr42  1  0.29820314  0.09758871  0.09508825  1
  Zr  Zr43  1  0.09792134  0.30244819  0.70433371  1
  Zr  Zr44  1  0.28999972  0.10018651  0.50155607  1
  Zr  Zr45  1  0.70010712  0.90400466  0.49805632  1
  Zr  Zr46  1  0.49869019  0.69976873  0.09970974  1
  Zr  Zr47  1  0.30344159  0.29918702  0.90042876  1
  Zr  Zr48  1  0.49456756  0.30645256  0.49960817  1
  Zr  Zr49  1  0.89842673  0.69918128  0.69756681  1
  Sc  Sc50  1  0.90133933  0.90553184  0.29888543  1
  Sc  Sc51  1  0.29761047  0.89221330  0.09937059  1
  Sc  Sc52  1  0.69823869  0.90206174  0.70004582  1
  Sc  Sc53  1  0.89600907  0.89477101  0.90479570  1
  Sc  Sc54  1  0.09963611  0.70400837  0.50866145  1
  Sc  Sc55  1  0.30594051  0.49798009  0.70905998  1
  Sc  Sc56  1  0.10274022  0.89171029  0.09181282  1
  Sc  Sc57  1  0.68830201  0.30256264  0.10106892  1
  Sc  Sc58  1  0.90451466  0.89627070  0.09765785  1
  Sc  Sc59  1  0.89592444  0.49515581  0.30286732  1
  Sc  Sc60  1  0.70250428  0.51155102  0.70473595  1
  Sc  Sc61  1  0.09928805  0.10767201  0.70218401  1
  Sc  Sc62  1  0.31065883  0.70455491  0.49801640  1
  Sc  Sc63  1  0.70295090  0.30941486  0.29895679  1
  Sc  Sc64  1  0.09621424  0.49208312  0.50582875  1
  Sc  Sc65  1  0.48838313  0.49440196  0.90179220  1
  Sc  Sc66  1  0.90639726  0.50518033  0.09235166  1
  Sc  Sc67  1  0.29484325  0.89337272  0.30480837  1
  Sc  Sc68  1  0.90131936  0.10697014  0.30187060  1
  Sc  Sc69  1  0.49727029  0.10247048  0.51527082  1
  Sc  Sc70  1  0.10018639  0.70061394  0.10436332  1
  Sc  Sc71  1  0.90546509  0.31470162  0.88924035  1
  Sc  Sc72  1  0.11425755  0.90687791  0.49339105  1
  Sc  Sc73  1  0.30523662  0.49702037  0.29075937  1
  Sc  Sc74  1  0.10463638  0.50145511  0.09166589  1
  Sc  Sc75  1  0.29583745  0.29553839  0.70082839  1
  Sc  Sc76  1  0.71072950  0.69224250  0.10690049  1
  Sc  Sc77  1  0.50044036  0.69544493  0.30119498  1
  Sc  Sc78  1  0.90684588  0.70152667  0.09475846  1
  Sc  Sc79  1  0.69853959  0.50810419  0.48824084  1
  Sc  Sc80  1  0.69340618  0.50669850  0.29248209  1
  Sc  Sc81  1  0.90063201  0.70085541  0.28499060  1
  Sc  Sc82  1  0.69493334  0.08975338  0.29809840  1
  Sc  Sc83  1  0.71216716  0.28949202  0.70104416  1
  Sc  Sc84  1  0.89300645  0.09736691  0.10477250  1
  Sc  Sc85  1  0.90302942  0.50448386  0.70467235  1
  Sc  Sc86  1  0.10471682  0.69529287  0.90024444  1
  Sc  Sc87  1  0.49091633  0.90034016  0.10092672  1
  Sc  Sc88  1  0.29564333  0.70441575  0.29322601  1
  Sc  Sc89  1  0.90389720  0.08400219  0.89516405  1
  Sc  Sc90  1  0.89356254  0.09647493  0.69790223  1
  Sc  Sc91  1  0.29690357  0.89600416  0.90954712  1
  Sc  Sc92  1  0.10206101  0.09863561  0.90052246  1
  Sc  Sc93  1  0.89723724  0.29718309  0.30253786  1
  Sc  Sc94  1  0.50806454  0.90652999  0.30142290  1
  Sc  Sc95  1  0.90671793  0.89591033  0.70039389  1
  Sc  Sc96  1  0.50231201  0.69677018  0.50400127  1
  Sc  Sc97  1  0.29807593  0.70311815  0.09535384  1
  Sc  Sc98  1  0.89689912  0.09767745  0.49326383  1
  Sc  Sc99  1  0.29541259  0.69750812  0.90262415  1
  Nb  Nb100  1  0.29568152  0.09770068  0.89815253  1
  Nb  Nb101  1  0.70130784  0.70510324  0.29806387  1
  Nb  Nb102  1  0.69163316  0.49732158  0.09640485  1
  Nb  Nb103  1  0.50268783  0.49607777  0.29965603  1
  Nb  Nb104  1  0.10021085  0.89670487  0.30049352  1
  Nb  Nb105  1  0.69735498  0.30075532  0.50206144  1
  Nb  Nb106  1  0.70118195  0.09949525  0.70077043  1
  Nb  Nb107  1  0.50016454  0.69738827  0.70172781  1
  Nb  Nb108  1  0.30089008  0.30058558  0.49366890  1
  Nb  Nb109  1  0.29702005  0.29955587  0.30223078  1
  Nb  Nb110  1  0.69302309  0.89721176  0.30386032  1
  Nb  Nb111  1  0.89956809  0.90187638  0.50019034  1
  Nb  Nb112  1  0.69754867  0.89836132  0.90391799  1
  Nb  Nb113  1  0.10419708  0.29592961  0.29449521  1
  Nb  Nb114  1  0.10855085  0.89958601  0.69809977  1
  Nb  Nb115  1  0.90041569  0.68685966  0.89723567  1
  Nb  Nb116  1  0.29644363  0.70307763  0.69826037  1
  Nb  Nb117  1  0.29356354  0.50150232  0.90365809  1
  Nb  Nb118  1  0.09709641  0.70473010  0.29992107  1
  Nb  Nb119  1  0.29220441  0.89648527  0.69593405  1
  Nb  Nb120  1  0.70088058  0.50094736  0.89817509  1
  Nb  Nb121  1  0.69839553  0.30151571  0.90258871  1
  Nb  Nb122  1  0.09968274  0.09349445  0.31055225  1
  Nb  Nb123  1  0.09935965  0.09190883  0.49455126  1
  Nb  Nb124  1  0.89992311  0.50725542  0.89908822  1
  Nb  Nb125  1  0.60130740  0.20422583  0.40766176  1
  Nb  Nb126  1  0.60260673  -0.00484562  -0.00234252  1
  Nb  Nb127  1  -0.00259726  0.80075235  0.39925129  1
  Nb  Nb128  1  0.79542333  0.40009319  0.59655903  1
  Nb  Nb129  1  -0.00741776  0.20384672  -0.00050205  1
  Nb  Nb130  1  0.60526757  0.39791823  0.60336112  1
  Nb  Nb131  1  0.20654666  0.60226829  0.60137301  1
  Nb  Nb132  1  0.60656614  0.79949811  0.00143509  1
  Nb  Nb133  1  0.60460081  0.39529203  0.79954221  1
  Nb  Nb134  1  0.60724589  0.80009253  0.19869868  1
  Nb  Nb135  1  0.79364675  0.40416669  -0.00527560  1
  Nb  Nb136  1  0.39829507  0.00167817  0.40425964  1
  Nb  Nb137  1  0.01227402  0.00130523  0.20517737  1
  Nb  Nb138  1  0.60628682  0.19842084  0.80260254  1
  Nb  Nb139  1  0.20304540  -0.00324496  0.79723614  1
  Nb  Nb140  1  0.39460157  0.79768151  0.79055023  1
  Nb  Nb141  1  0.79982866  0.80293154  0.39727616  1
  Nb  Nb142  1  0.60394285  0.59809827  -0.00093154  1
  Nb  Nb143  1  0.00622651  -0.00241706  0.59300622  1
  Nb  Nb144  1  0.00462361  0.60731962  0.39815081  1
  Nb  Nb145  1  0.80090617  0.20690968  -0.00625307  1
  Nb  Nb146  1  0.20288837  0.39462555  0.39962946  1
  Nb  Nb147  1  0.00419486  0.39541471  0.19957282  1
  Nb  Nb148  1  0.19346748  0.00019492  0.20481606  1
  Nb  Nb149  1  0.19520617  0.59704401  0.40238223  1
  Pd  Pd150  1  -0.00167121  0.00572052  0.01032643  1
  Pd  Pd151  1  0.40703674  0.80290148  0.20755582  1
  Pd  Pd152  1  0.80524968  0.19863482  0.80745309  1
  Pd  Pd153  1  0.80194912  -0.01244100  0.79383606  1
  Pd  Pd154  1  0.60013329  0.20665251  0.60621547  1
  Pd  Pd155  1  0.40680281  0.19278526  0.40758269  1
  Pd  Pd156  1  0.40221772  0.59945426  0.00049254  1
  Pd  Pd157  1  0.39227559  0.60090492  0.38964252  1
  Pd  Pd158  1  0.38886669  -0.00770171  0.20901601  1
  Pd  Pd159  1  -0.00671097  0.19302535  0.80871517  1
  Pd  Pd160  1  0.20086994  0.19721716  0.60423111  1
  Pd  Pd161  1  0.59859997  0.60439324  0.39403177  1
  Pd  Pd162  1  0.60265518  0.20900072  0.21360604  1
  Pd  Pd163  1  0.00983750  0.60079879  0.60002390  1
  Pd  Pd164  1  0.39689726  0.60328204  0.20213902  1
  Pd  Pd165  1  0.00935525  0.81197155  0.59189661  1
  Pd  Pd166  1  0.39984455  -0.00419913  0.00115846  1
  Pd  Pd167  1  0.78824666  0.19658687  0.39149564  1
  Pd  Pd168  1  0.80507688  0.59077661  0.19740481  1
  Pd  Pd169  1  0.39903356  0.39736131  0.60613901  1
  Pd  Pd170  1  0.80005148  -0.00127456  0.39374634  1
  Pd  Pd171  1  0.60261039  0.59371786  0.59638809  1
  Pd  Pd172  1  0.40752061  0.80547021  0.39309257  1
  Pd  Pd173  1  -0.00141832  0.59276048  0.20117872  1
  Pd  Pd174  1  -0.00552474  0.79647020  0.80762496  1
  Pd  Pd175  1  0.20221038  0.60397565  0.19986617  1
  Pd  Pd176  1  -0.00548291  0.18648603  0.59384742  1
  Pd  Pd177  1  0.00415923  0.19764861  0.19856862  1
  Pd  Pd178  1  0.80696454  0.00096170  0.20767062  1
  Pd  Pd179  1  0.79390138  0.40328008  0.40321886  1
  Pd  Pd180  1  0.39527271  0.20102866  0.00458870  1
  Pd  Pd181  1  0.79611056  0.40439969  0.79554032  1
  Pd  Pd182  1  0.00288574  0.20197831  0.40264778  1
  Pd  Pd183  1  0.40674227  0.79500501  0.60297433  1
  Pd  Pd184  1  0.00246025  0.79261771  -0.00809449  1
  Pd  Pd185  1  0.59612491  0.80330931  0.79565667  1
  Pd  Pd186  1  0.20446014  0.40113666  0.80343595  1
  Pd  Pd187  1  0.79897327  0.79139708  -0.00140187  1
  Pd  Pd188  1  -0.00639311  0.40515210  0.60509079  1
  Pd  Pd189  1  0.79695777  0.59665152  0.00289842  1
  Pd  Pd190  1  0.80176949  0.80635963  0.20348948  1
  Pd  Pd191  1  0.60174709  -0.00056773  0.60061021  1
  Pd  Pd192  1  0.19645663  0.79046881  0.40634911  1
  Pd  Pd193  1  0.80777931  0.61148239  0.39213438  1
  Pd  Pd194  1  0.80257656  0.40947052  0.19160581  1
  Pd  Pd195  1  0.39245682  0.60559298  0.80135573  1
  Pd  Pd196  1  0.20615385  0.40463340  0.59826828  1
  Pd  Pd197  1  0.00565484  0.40082747  0.39336953  1
  Pd  Pd198  1  0.80554899  0.80421816  0.79835332  1
  Pd  Pd199  1  0.19377822  0.20465610  0.40040633  1
  Rh  Rh200  1  0.60099480  0.79186850  0.39280589  1
  Rh  Rh201  1  0.60761972  0.18525514  -0.00847221  1
  Rh  Rh202  1  0.19885241  0.59897717  0.00093831  1
  Rh  Rh203  1  0.59802143  0.39878058  0.20713081  1
  Rh  Rh204  1  0.40044829  0.39724730  0.80451621  1
  Rh  Rh205  1  0.80654459  0.20190274  0.59919770  1
  Rh  Rh206  1  0.59613146  0.80168119  0.60693094  1
  Rh  Rh207  1  0.39817728  0.39652551  0.19993810  1
  Rh  Rh208  1  0.39105737  0.40637482  0.39243117  1
  Rh  Rh209  1  0.60099992  0.41170650  -0.00785871  1
  Rh  Rh210  1  0.19654309  0.39918770  0.20472274  1
  Rh  Rh211  1  -0.01253437  0.39452969  0.00619361  1
  Rh  Rh212  1  0.79461063  0.80895339  0.59801033  1
  Rh  Rh213  1  0.19635587  0.20289668  -0.00904238  1
  Rh  Rh214  1  0.39957746  -0.00111655  0.59471251  1
  Rh  Rh215  1  0.59168065  0.01570374  0.41058529  1
  Rh  Rh216  1  0.40105201  0.20604246  0.19548876  1
  Rh  Rh217  1  0.59981963  0.60554096  0.19739461  1
  Rh  Rh218  1  0.19548322  0.79496650  -0.00152376  1
  Rh  Rh219  1  0.39315217  0.39770016  0.00341287  1
  Rh  Rh220  1  0.19673959  0.80445611  0.19591379  1
  Rh  Rh221  1  0.00123077  0.60441693  0.79965481  1
  Rh  Rh222  1  0.20448561  0.19275807  0.80134141  1
  Rh  Rh223  1  0.39074500  0.20370452  0.59764023  1
  Rh  Rh224  1  0.00116752  0.40805739  0.79530055  1
  Rh  Rh225  1  0.20492122  0.59861021  0.79817302  1
  Rh  Rh226  1  0.80065432  0.00474233  0.00047369  1
  Rh  Rh227  1  0.19993356  -0.00235426  -0.00108778  1
  Rh  Rh228  1  0.60260189  0.39800976  0.40122434  1
  Rh  Rh229  1  0.01077236  -0.00150794  0.78642030  1
  Rh  Rh230  1  0.20670142  0.80661215  0.80678883  1
  Rh  Rh231  1  0.19238155  0.00919795  0.61025552  1
  Rh  Rh232  1  0.80776715  -0.00398819  0.60537822  1
  Rh  Rh233  1  0.79052672  0.20006125  0.20160456  1
  Rh  Rh234  1  0.80471503  0.60091704  0.79481375  1
  Rh  Rh235  1  0.19532476  0.19383681  0.20482270  1
  Rh  Rh236  1  0.79347033  0.59398038  0.60201346  1
  Rh  Rh237  1  0.00399155  0.60566254  -0.00328556  1
  Rh  Rh238  1  0.59812194  -0.01179361  0.18777072  1
  Rh  Rh239  1  0.21116350  0.00031913  0.39101651  1
  Rh  Rh240  1  0.40021966  0.20109853  0.80546796  1
  Rh  Rh241  1  0.60661290  0.00508901  0.80224483  1
  Rh  Rh242  1  0.38442057  -0.01338710  0.80329284  1
  Rh  Rh243  1  0.20524256  0.40001039  -0.00582409  1
  Rh  Rh244  1  0.00060188  0.80905520  0.20261222  1
  Rh  Rh245  1  0.19994572  0.79239745  0.59330732  1
  Rh  Rh246  1  0.39647754  0.60521315  0.60512140  1
  Rh  Rh247  1  0.40384297  0.79642380  -0.00849424  1
  Rh  Rh248  1  -0.00230086  -0.00682881  0.40094128  1
  Rh  Rh249  1  0.59291853  0.59031647  0.80747944  1
