# generated using pymatgen
data_ZrScNbPdRh
_symmetry_space_group_name_H-M   'P 1'
_cell_length_a   16.56195739
_cell_length_b   16.56302747
_cell_length_c   16.55753438
_cell_angle_alpha   89.98990921
_cell_angle_beta   89.99592070
_cell_angle_gamma   89.95372466
_symmetry_Int_Tables_number   1
_chemical_formula_structural   ZrScNbPdRh
_chemical_formula_sum   'Zr50 Sc50 Nb50 Pd50 Rh50'
_cell_volume   4541.99760867
_cell_formula_units_Z   50
loop_
 _symmetry_equiv_pos_site_id
 _symmetry_equiv_pos_as_xyz
  1  'x, y, z'
loop_
 _atom_site_type_symbol
 _atom_site_label
 _atom_site_symmetry_multiplicity
 _atom_site_fract_x
 _atom_site_fract_y
 _atom_site_fract_z
 _atom_site_occupancy
  Zr  Zr0  1  0.71413244  0.70555305  0.30224118  1
  Zr  Zr1  1  0.70306899  0.89738163  0.90082116  1
  Zr  Zr2  1  0.48990780  0.49706741  0.10093654  1
  Zr  Zr3  1  0.30039075  0.29456458  0.69782882  1
  Zr  Zr4  1  0.10209790  0.50181985  0.69688036  1
  Zr  Zr5  1  0.30305403  0.90199618  0.69868230  1
  Zr  Zr6  1  0.30339936  0.51013242  0.90894993  1
  Zr  Zr7  1  0.09070854  0.10471645  0.90020622  1
  Zr  Zr8  1  0.69663147  0.90093177  0.30366467  1
  Zr  Zr9  1  0.91098043  0.10563755  0.49914128  1
  Zr  Zr10  1  0.49966881  0.50316834  0.70587826  1
  Zr  Zr11  1  0.29969246  0.29164851  0.30427572  1
  Zr  Zr12  1  0.49518720  0.70006426  0.10285513  1
  Zr  Zr13  1  0.29736208  0.09880884  0.10400805  1
  Zr  Zr14  1  0.90118065  0.30168728  0.50146514  1
  Zr  Zr15  1  0.29658752  0.10560896  0.50256245  1
  Zr  Zr16  1  0.70122421  0.50497847  0.70770906  1
  Zr  Zr17  1  0.50022072  0.10505632  0.89695880  1
  Zr  Zr18  1  0.29673595  0.49655330  0.09528676  1
  Zr  Zr19  1  0.49759294  0.29908186  0.70815150  1
  Zr  Zr20  1  0.29834505  0.89523605  0.09765306  1
  Zr  Zr21  1  0.50612929  0.10570512  0.10379139  1
  Zr  Zr22  1  0.50246866  0.70181154  0.69786056  1
  Zr  Zr23  1  0.49905414  0.30391142  0.30679018  1
  Zr  Zr24  1  0.69747805  0.89893353  0.49135311  1
  Zr  Zr25  1  0.91097866  0.49187714  0.49601577  1
  Zr  Zr26  1  0.70018294  0.48667680  0.30229210  1
  Zr  Zr27  1  0.90505319  0.69611504  0.89336557  1
  Zr  Zr28  1  0.70758220  0.68924614  0.09740988  1
  Zr  Zr29  1  0.29497109  0.89369979  0.29664453  1
  Zr  Zr30  1  0.70655360  0.69144917  0.69745091  1
  Zr  Zr31  1  0.90178231  0.69837177  0.49223096  1
  Zr  Zr32  1  0.89664365  0.11058490  0.08904159  1
  Zr  Zr33  1  0.90497918  0.90331495  0.69477144  1
  Zr  Zr34  1  0.10078126  0.09687257  0.50117096  1
  Zr  Zr35  1  0.29988315  0.70022328  0.49801321  1
  Zr  Zr36  1  0.48613509  0.10280167  0.70229607  1
  Zr  Zr37  1  0.70209779  0.50126167  0.91026881  1
  Zr  Zr38  1  0.70183008  0.30307418  0.09574087  1
  Zr  Zr39  1  0.49780237  0.49892890  0.30375337  1
  Zr  Zr40  1  0.91231765  0.29446311  0.89675691  1
  Zr  Zr41  1  0.30558982  0.49886888  0.29371033  1
  Zr  Zr42  1  0.90172314  0.29617554  0.69113747  1
  Zr  Zr43  1  0.09945515  0.89254378  0.50280634  1
  Zr  Zr44  1  0.69814740  0.70044437  0.49638301  1
  Zr  Zr45  1  0.89413424  0.30451486  0.30504506  1
  Zr  Zr46  1  0.90043151  0.69606070  0.10918922  1
  Zr  Zr47  1  0.30472172  0.29907898  0.50113609  1
  Zr  Zr48  1  0.90760821  0.90772115  0.50356229  1
  Zr  Zr49  1  0.09686324  0.09936853  0.09796614  1
  Sc  Sc50  1  0.29671041  0.31259296  0.89849005  1
  Sc  Sc51  1  0.69604785  0.88299227  0.10603304  1
  Sc  Sc52  1  0.89986797  0.50721577  0.70188642  1
  Sc  Sc53  1  0.89828333  0.10135668  0.89363324  1
  Sc  Sc54  1  0.49888806  0.29900580  0.50137454  1
  Sc  Sc55  1  0.90458347  0.50116774  0.89381216  1
  Sc  Sc56  1  0.08930844  0.30103741  0.50802680  1
  Sc  Sc57  1  0.10088103  0.30671204  0.09639157  1
  Sc  Sc58  1  0.91089429  0.90294521  0.89524738  1
  Sc  Sc59  1  0.29757339  0.49835833  0.51188838  1
  Sc  Sc60  1  0.49973628  0.10309867  0.50115306  1
  Sc  Sc61  1  0.48887099  0.69291312  0.30522180  1
  Sc  Sc62  1  0.10501344  0.89732884  0.30128507  1
  Sc  Sc63  1  0.70420616  0.50470411  0.49993341  1
  Sc  Sc64  1  0.48788589  0.89648304  0.90890869  1
  Sc  Sc65  1  0.50171819  0.30149407  0.10013105  1
  Sc  Sc66  1  0.49758549  0.89207570  0.10484988  1
  Sc  Sc67  1  0.30467214  0.70452146  0.69967495  1
  Sc  Sc68  1  0.51265723  0.11035392  0.30089903  1
  Sc  Sc69  1  0.70497153  0.10813766  0.70278393  1
  Sc  Sc70  1  0.49337964  0.90248979  0.68792453  1
  Sc  Sc71  1  0.09754316  0.70671409  0.70269111  1
  Sc  Sc72  1  0.50627980  0.89326141  0.30083372  1
  Sc  Sc73  1  0.09015021  0.70266976  0.29988392  1
  Sc  Sc74  1  0.09768278  0.49146503  0.10494511  1
  Sc  Sc75  1  0.29734539  0.70145028  0.09713069  1
  Sc  Sc76  1  0.70172587  0.30210873  0.50045786  1
  Sc  Sc77  1  0.70408251  0.69426244  0.90751386  1
  Sc  Sc78  1  0.49373811  0.49723470  0.90139499  1
  Sc  Sc79  1  0.10187542  0.71234262  0.89813259  1
  Sc  Sc80  1  0.89866171  0.30508298  0.09759738  1
  Sc  Sc81  1  0.29809767  0.30920250  0.10373763  1
  Sc  Sc82  1  0.10556130  0.89417436  0.09542042  1
  Sc  Sc83  1  0.30024681  0.89710291  0.50393866  1
  Sc  Sc84  1  0.09666949  0.89746997  0.69887406  1
  Sc  Sc85  1  0.29984665  0.49656147  0.69600407  1
  Sc  Sc86  1  0.11224022  0.10288521  0.30815622  1
  Sc  Sc87  1  0.69782538  0.29680922  0.30445239  1
  Sc  Sc88  1  0.69127177  0.28890140  0.89839749  1
  Sc  Sc89  1  0.89624049  0.88673824  0.30014679  1
  Sc  Sc90  1  0.48636945  0.69554186  0.89862407  1
  Sc  Sc91  1  0.09941918  0.49222743  0.89730871  1
  Sc  Sc92  1  0.30169189  0.70315379  0.29904242  1
  Sc  Sc93  1  0.70272940  0.90995298  0.69068301  1
  Sc  Sc94  1  0.90015989  0.89331337  0.09817029  1
  Sc  Sc95  1  0.90809424  0.49775577  0.29965783  1
  Sc  Sc96  1  0.10204195  0.30521533  0.29329210  1
  Sc  Sc97  1  0.89320969  0.49577937  0.10454233  1
  Sc  Sc98  1  0.68879750  0.10096258  0.49538727  1
  Sc  Sc99  1  0.50612719  0.89917396  0.49827887  1
  Nb  Nb100  1  0.90402391  0.09663697  0.69307263  1
  Nb  Nb101  1  0.09669948  0.69541757  0.10396502  1
  Nb  Nb102  1  0.69647279  0.10024826  0.90394533  1
  Nb  Nb103  1  0.29994951  0.09745028  0.69996549  1
  Nb  Nb104  1  0.10863647  0.89994334  0.89437222  1
  Nb  Nb105  1  0.10797468  0.11022647  0.70179348  1
  Nb  Nb106  1  0.29722372  0.70632056  0.89690321  1
  Nb  Nb107  1  0.69812650  0.10849292  0.09834151  1
  Nb  Nb108  1  0.09688615  0.49923259  0.30183066  1
  Nb  Nb109  1  0.69687101  0.49800280  0.09830482  1
  Nb  Nb110  1  0.50017236  0.69527954  0.49891648  1
  Nb  Nb111  1  0.28917870  0.89267668  0.90363502  1
  Nb  Nb112  1  0.30123194  0.10372018  0.30479520  1
  Nb  Nb113  1  0.90282207  0.69756257  0.70043692  1
  Nb  Nb114  1  0.09813700  0.29759953  0.88988948  1
  Nb  Nb115  1  0.50273403  0.50166092  0.49708921  1
  Nb  Nb116  1  0.30499563  0.09192825  0.90098917  1
  Nb  Nb117  1  0.10023211  0.50259643  0.49923105  1
  Nb  Nb118  1  0.09550187  0.30001973  0.71590179  1
  Nb  Nb119  1  0.49451321  0.29195036  0.89645130  1
  Nb  Nb120  1  0.89727703  0.10507930  0.29831640  1
  Nb  Nb121  1  0.70045728  0.10015612  0.29419280  1
  Nb  Nb122  1  0.70051674  0.30469392  0.69905249  1
  Nb  Nb123  1  0.90160639  0.69560515  0.29671030  1
  Nb  Nb124  1  0.10307453  0.69553004  0.50169599  1
  Nb  Nb125  1  0.20430251  0.60510017  0.80398436  1
  Nb  Nb126  1  -0.00420657  0.19543746  0.20146018  1
  Nb  Nb127  1  0.79825561  0.00781077  0.19814143  1
  Nb  Nb128  1  0.20224293  0.19869286  -0.00731619  1
  Nb  Nb129  1  0.80218688  0.00741280  0.39131610  1
  Nb  Nb130  1  0.60590018  0.00319473  0.00108917  1
  Nb  Nb131  1  0.39646220  0.00438716  0.20811550  1
  Nb  Nb132  1  0.60378004  0.80372838  0.79826615  1
  Nb  Nb133  1  0.39364882  0.19842445  -0.00478552  1
  Nb  Nb134  1  0.80531676  0.79676288  0.59991369  1
  Nb  Nb135  1  0.00437498  0.60262819  0.59512786  1
  Nb  Nb136  1  0.80059885  0.79880027  0.79177025  1
  Nb  Nb137  1  0.39710392  0.00506907  0.39172110  1
  Nb  Nb138  1  -0.00748836  0.00761001  0.20276010  1
  Nb  Nb139  1  0.59918301  -0.00104879  0.80566029  1
  Nb  Nb140  1  0.19418269  0.59781313  0.20298753  1
  Nb  Nb141  1  0.60005591  0.40325925  0.60708138  1
  Nb  Nb142  1  0.19418002  0.59537384  0.39929219  1
  Nb  Nb143  1  0.40811617  0.60242735  0.59665999  1
  Nb  Nb144  1  0.00309802  0.60336740  0.00491355  1
  Nb  Nb145  1  0.19638442  0.40618173  0.40192029  1
  Nb  Nb146  1  0.79092837  0.00375327  0.00414151  1
  Nb  Nb147  1  0.60498428  0.59318792  0.19779945  1
  Nb  Nb148  1  0.20364421  0.00436604  0.80301110  1
  Nb  Nb149  1  0.79670037  0.39375491  0.79707575  1
  Pd  Pd150  1  0.18933534  0.60443907  -0.00088388  1
  Pd  Pd151  1  0.79620722  0.19248290  0.59278834  1
  Pd  Pd152  1  0.20149885  0.79670602  0.60632100  1
  Pd  Pd153  1  0.59810337  0.20563127  0.60481831  1
  Pd  Pd154  1  0.20699410  -0.00591274  0.40435622  1
  Pd  Pd155  1  0.59845459  0.39963138  0.19805952  1
  Pd  Pd156  1  0.59919745  -0.00276400  0.19454651  1
  Pd  Pd157  1  0.19270329  0.38922624  0.59806756  1
  Pd  Pd158  1  0.60348907  0.60274107  0.38921329  1
  Pd  Pd159  1  0.40538554  0.80676968  0.79933982  1
  Pd  Pd160  1  0.00360773  0.80894991  0.20042536  1
  Pd  Pd161  1  0.80508915  0.39488711  -0.01123712  1
  Pd  Pd162  1  0.00904970  0.00476242  0.79215956  1
  Pd  Pd163  1  0.59842059  0.78272106  0.20800422  1
  Pd  Pd164  1  0.59874427  0.60842951  0.81357529  1
  Pd  Pd165  1  0.59221278  0.39544979  -0.00683336  1
  Pd  Pd166  1  0.79593856  0.00606012  0.58753141  1
  Pd  Pd167  1  0.79582428  0.40831470  0.60277037  1
  Pd  Pd168  1  0.59433874  0.79798040  -0.00730828  1
  Pd  Pd169  1  0.80003925  0.20572687  0.19798167  1
  Pd  Pd170  1  0.00247355  0.79688033  -0.00101603  1
  Pd  Pd171  1  0.21051102  0.19527070  0.80814966  1
  Pd  Pd172  1  0.00182066  0.80002222  0.39807905  1
  Pd  Pd173  1  0.00057170  0.40516815  -0.00074037  1
  Pd  Pd174  1  -0.00315522  -0.00324256  0.38747222  1
  Pd  Pd175  1  0.40807830  0.00237507  0.01141712  1
  Pd  Pd176  1  0.40195085  0.20151807  0.19683634  1
  Pd  Pd177  1  0.59767163  0.59342633  0.59685835  1
  Pd  Pd178  1  0.80303590  0.20375016  0.80106557  1
  Pd  Pd179  1  0.19584629  0.00299007  -0.00549741  1
  Pd  Pd180  1  0.19277008  0.20373117  0.19358279  1
  Pd  Pd181  1  0.19287325  0.20884631  0.59868910  1
  Pd  Pd182  1  0.60528315  0.39784652  0.80587856  1
  Pd  Pd183  1  0.19719798  -0.00262674  0.60597969  1
  Pd  Pd184  1  0.19684512  -0.00092655  0.20327546  1
  Pd  Pd185  1  0.80515983  0.59010253  0.39481261  1
  Pd  Pd186  1  0.59631113  0.00830642  0.60783333  1
  Pd  Pd187  1  0.39297874  0.40487594  0.40659218  1
  Pd  Pd188  1  0.00926560  0.20696835  0.39132002  1
  Pd  Pd189  1  0.40438013  0.80923686  0.40378497  1
  Pd  Pd190  1  0.80877428  0.80162444  -0.00569135  1
  Pd  Pd191  1  0.20534703  0.40928182  0.80070960  1
  Pd  Pd192  1  -0.00558616  -0.00684561  0.00486062  1
  Pd  Pd193  1  0.79419745  0.19545614  0.40829196  1
  Pd  Pd194  1  0.79725894  -0.00181474  0.80376503  1
  Pd  Pd195  1  0.40032761  -0.01027255  0.80431408  1
  Pd  Pd196  1  0.58870959  0.60004890  0.00197687  1
  Pd  Pd197  1  0.39291457  0.40409763  0.80206406  1
  Pd  Pd198  1  0.60635144  0.80156606  0.60368355  1
  Pd  Pd199  1  0.79715612  0.58790713  0.20738910  1
  Rh  Rh200  1  0.39798770  0.00398524  0.58600342  1
  Rh  Rh201  1  0.19448085  0.21266330  0.40762343  1
  Rh  Rh202  1  0.20247701  0.40514928  0.20699456  1
  Rh  Rh203  1  0.80783680  0.80730842  0.40784473  1
  Rh  Rh204  1  0.38887203  0.59894565  0.79267998  1
  Rh  Rh205  1  0.00704584  0.19588855  0.60823879  1
  Rh  Rh206  1  0.79930465  0.59846042  0.80923230  1
  Rh  Rh207  1  -0.00536096  0.39260697  0.20153230  1
  Rh  Rh208  1  0.60590600  0.21239945  0.20122633  1
  Rh  Rh209  1  0.00962935  0.21105456  0.00572207  1
  Rh  Rh210  1  0.40539804  0.38903731  -0.00307226  1
  Rh  Rh211  1  -0.00482859  0.79057168  0.59718643  1
  Rh  Rh212  1  0.00352891  0.60413333  0.40180101  1
  Rh  Rh213  1  0.81368623  0.59434630  0.00023285  1
  Rh  Rh214  1  0.20004195  0.60754133  0.60383857  1
  Rh  Rh215  1  0.00324173  0.40582417  0.60930008  1
  Rh  Rh216  1  0.40008843  0.39227551  0.20068181  1
  Rh  Rh217  1  -0.00692972  0.19180686  0.78982939  1
  Rh  Rh218  1  0.20271825  0.80331974  0.79523850  1
  Rh  Rh219  1  0.59224472  0.20243515  0.00186333  1
  Rh  Rh220  1  0.01480408  0.60181454  0.79940266  1
  Rh  Rh221  1  0.39076654  0.59311796  0.41230502  1
  Rh  Rh222  1  0.60191228  0.20361747  0.39908857  1
  Rh  Rh223  1  0.60035031  0.39708405  0.41373342  1
  Rh  Rh224  1  0.19284288  0.39357020  -0.00741926  1
  Rh  Rh225  1  0.39939829  0.19898499  0.60015058  1
  Rh  Rh226  1  -0.00386686  0.80417976  0.79922205  1
  Rh  Rh227  1  0.19609896  0.79234645  0.39894228  1
  Rh  Rh228  1  0.41388676  0.40700077  0.59939910  1
  Rh  Rh229  1  0.38774872  0.20328836  0.80595351  1
  Rh  Rh230  1  0.40341888  0.79349335  0.59178528  1
  Rh  Rh231  1  0.39542286  0.60221212  0.19247926  1
  Rh  Rh232  1  0.00806388  0.39250611  0.39648329  1
  Rh  Rh233  1  -0.00878537  0.40117694  0.79316678  1
  Rh  Rh234  1  0.59352845  0.78788079  0.39565406  1
  Rh  Rh235  1  0.39849941  0.60657195  0.00403202  1
  Rh  Rh236  1  0.40507406  0.19299402  0.40243748  1
  Rh  Rh237  1  0.39796204  0.80360633  0.20130207  1
  Rh  Rh238  1  0.79768420  0.39816649  0.20023398  1
  Rh  Rh239  1  0.79774068  0.20294170  -0.00863678  1
  Rh  Rh240  1  0.19610496  0.78891085  0.19853342  1
  Rh  Rh241  1  0.80010244  0.40106974  0.40374833  1
  Rh  Rh242  1  0.39378822  0.79631360  0.00067569  1
  Rh  Rh243  1  0.59719025  0.00425996  0.39567896  1
  Rh  Rh244  1  0.60057507  0.19413752  0.79160051  1
  Rh  Rh245  1  0.81396420  0.60222818  0.59174002  1
  Rh  Rh246  1  0.01334785  0.00994324  0.60840593  1
  Rh  Rh247  1  0.19706983  0.79450356  0.00307625  1
  Rh  Rh248  1  0.80203568  0.80208933  0.19809696  1
  Rh  Rh249  1  0.00368697  0.59461852  0.19503794  1
