# generated using pymatgen
data_ZrScNbPdRh
_symmetry_space_group_name_H-M   'P 1'
_cell_length_a   16.55224641
_cell_length_b   16.55647225
_cell_length_c   16.55846295
_cell_angle_alpha   90.02286286
_cell_angle_beta   89.96419523
_cell_angle_gamma   89.99171416
_symmetry_Int_Tables_number   1
_chemical_formula_structural   ZrScNbPdRh
_chemical_formula_sum   'Zr50 Sc50 Nb50 Pd50 Rh50'
_cell_volume   4537.79262905
_cell_formula_units_Z   50
loop_
 _symmetry_equiv_pos_site_id
 _symmetry_equiv_pos_as_xyz
  1  'x, y, z'
loop_
 _atom_site_type_symbol
 _atom_site_label
 _atom_site_symmetry_multiplicity
 _atom_site_fract_x
 _atom_site_fract_y
 _atom_site_fract_z
 _atom_site_occupancy
  Zr  Zr0  1  0.09059000  0.50372115  0.10645198  1
  Zr  Zr1  1  0.30760630  0.10378669  0.10211925  1
  Zr  Zr2  1  0.89550070  0.29938680  0.90933097  1
  Zr  Zr3  1  0.70242589  0.50041937  0.48620202  1
  Zr  Zr4  1  0.50080364  0.10577866  0.30073650  1
  Zr  Zr5  1  0.30839902  0.50130349  0.89857010  1
  Zr  Zr6  1  0.69816670  0.30156601  0.30439229  1
  Zr  Zr7  1  0.70449437  0.49953988  0.90653648  1
  Zr  Zr8  1  0.89693563  0.50196458  0.70085969  1
  Zr  Zr9  1  0.90199002  0.09254600  0.29339688  1
  Zr  Zr10  1  0.70051913  0.90182943  0.90175438  1
  Zr  Zr11  1  0.50681873  0.09850933  0.89799845  1
  Zr  Zr12  1  0.90485940  0.49660977  0.09890821  1
  Zr  Zr13  1  0.10487861  0.90444259  0.90124710  1
  Zr  Zr14  1  0.29662473  0.70806155  0.10567666  1
  Zr  Zr15  1  0.10425397  0.09688564  0.49170142  1
  Zr  Zr16  1  0.29375059  0.49534711  0.70371723  1
  Zr  Zr17  1  0.89431141  0.69300692  0.89752744  1
  Zr  Zr18  1  0.29821462  0.29446695  0.09451460  1
  Zr  Zr19  1  0.89891169  0.90219135  0.29584948  1
  Zr  Zr20  1  0.30000667  0.50172318  0.50321872  1
  Zr  Zr21  1  0.48983464  0.50126170  0.69797575  1
  Zr  Zr22  1  0.49991304  0.90368074  0.90354311  1
  Zr  Zr23  1  0.29500060  0.90023780  0.49868667  1
  Zr  Zr24  1  0.10190590  0.70058229  0.50554277  1
  Zr  Zr25  1  0.29933324  0.10751341  0.70593602  1
  Zr  Zr26  1  0.11039947  0.50733983  0.89943560  1
  Zr  Zr27  1  0.10244844  0.30897755  0.70218179  1
  Zr  Zr28  1  0.10337687  0.90557488  0.70102065  1
  Zr  Zr29  1  0.10266063  0.29295705  0.30343205  1
  Zr  Zr30  1  0.70135152  0.30021634  0.89774230  1
  Zr  Zr31  1  0.29682656  0.90111791  0.89604059  1
  Zr  Zr32  1  0.49680042  0.10360929  0.09464909  1
  Zr  Zr33  1  0.49541290  0.69829811  0.69824943  1
  Zr  Zr34  1  0.49224257  0.69602451  0.90638231  1
  Zr  Zr35  1  0.29839228  0.89317605  0.28698877  1
  Zr  Zr36  1  0.29706609  0.69704505  0.90016314  1
  Zr  Zr37  1  0.09622046  0.50811953  0.70097265  1
  Zr  Zr38  1  0.70210892  0.30078978  0.69766326  1
  Zr  Zr39  1  0.69189476  0.68956128  0.30322897  1
  Zr  Zr40  1  0.70689935  0.69927398  0.70308312  1
  Zr  Zr41  1  0.50137036  0.90175800  0.09465009  1
  Zr  Zr42  1  0.29100853  0.70580953  0.69790613  1
  Zr  Zr43  1  0.29427824  0.30182878  0.90025049  1
  Zr  Zr44  1  0.89903647  0.70022509  0.09864191  1
  Zr  Zr45  1  0.90098993  0.89097970  0.49250203  1
  Zr  Zr46  1  0.09862363  0.29985922  0.50214654  1
  Zr  Zr47  1  0.50426000  0.90487786  0.49914917  1
  Zr  Zr48  1  0.51191170  0.49889757  0.29979281  1
  Zr  Zr49  1  0.09486469  0.90616985  0.30496482  1
  Sc  Sc50  1  0.90010685  0.29293460  0.30451502  1
  Sc  Sc51  1  0.70714516  0.29465434  0.49968041  1
  Sc  Sc52  1  0.89446135  0.69762198  0.70488437  1
  Sc  Sc53  1  0.90315078  0.10550387  0.50028508  1
  Sc  Sc54  1  0.70006221  0.10518817  0.90560847  1
  Sc  Sc55  1  0.90029186  0.49124418  0.50030599  1
  Sc  Sc56  1  0.71146343  0.89753961  0.09755811  1
  Sc  Sc57  1  0.70866567  0.69827178  0.90549656  1
  Sc  Sc58  1  0.70299249  0.90063799  0.49714357  1
  Sc  Sc59  1  0.90382347  0.49472526  0.30209399  1
  Sc  Sc60  1  0.69424112  0.49571505  0.09215563  1
  Sc  Sc61  1  0.49960704  0.29945186  0.30365778  1
  Sc  Sc62  1  0.70771678  0.10828753  0.30194521  1
  Sc  Sc63  1  0.10235111  0.29185978  0.90699546  1
  Sc  Sc64  1  0.49865727  0.29329707  0.49793999  1
  Sc  Sc65  1  0.49589020  0.29940445  0.90439615  1
  Sc  Sc66  1  0.69562999  0.10323473  0.50160096  1
  Sc  Sc67  1  0.09890012  0.70176487  0.29978638  1
  Sc  Sc68  1  0.29738682  0.50049462  0.08540408  1
  Sc  Sc69  1  0.70732550  0.90322622  0.29519123  1
  Sc  Sc70  1  0.69892247  0.69965392  0.09824079  1
  Sc  Sc71  1  0.69735930  0.29771390  0.09347601  1
  Sc  Sc72  1  0.49707597  0.28699547  0.70100783  1
  Sc  Sc73  1  0.50463285  0.10112415  0.50868128  1
  Sc  Sc74  1  0.29935291  0.09991808  0.49699360  1
  Sc  Sc75  1  0.90148699  0.09624175  0.09826935  1
  Sc  Sc76  1  0.30362225  0.49934693  0.31663891  1
  Sc  Sc77  1  0.29755785  0.30527429  0.48836696  1
  Sc  Sc78  1  0.09668829  0.10347525  0.09871343  1
  Sc  Sc79  1  0.49134587  0.49877330  0.49710009  1
  Sc  Sc80  1  0.30013196  0.30082257  0.70841537  1
  Sc  Sc81  1  0.30177779  0.90619164  0.09712518  1
  Sc  Sc82  1  0.10370004  0.90372682  0.09731924  1
  Sc  Sc83  1  0.70948565  0.89081422  0.70150322  1
  Sc  Sc84  1  0.89722302  0.30224801  0.50294494  1
  Sc  Sc85  1  0.89662029  0.29763394  0.69800830  1
  Sc  Sc86  1  0.50393496  0.49937554  0.08367389  1
  Sc  Sc87  1  0.69051560  0.10734956  0.70362942  1
  Sc  Sc88  1  0.10100265  0.90427301  0.49681798  1
  Sc  Sc89  1  0.50016606  0.90705047  0.69610541  1
  Sc  Sc90  1  0.90238991  0.89939852  0.91710661  1
  Sc  Sc91  1  0.10265562  0.69845817  0.90294403  1
  Sc  Sc92  1  0.09540914  0.10074162  0.89913243  1
  Sc  Sc93  1  0.29327384  0.10703200  0.29666782  1
  Sc  Sc94  1  0.89551815  0.70468397  0.30465179  1
  Sc  Sc95  1  0.50538836  0.88812415  0.29708329  1
  Sc  Sc96  1  0.29281003  0.11029975  0.90344741  1
  Sc  Sc97  1  0.50155668  0.69391191  0.48443565  1
  Sc  Sc98  1  0.10180275  0.49265932  0.50879335  1
  Sc  Sc99  1  0.29138269  0.90052818  0.70113541  1
  Nb  Nb100  1  0.49960399  0.69922054  0.10416470  1
  Nb  Nb101  1  0.89592566  0.70062908  0.49582437  1
  Nb  Nb102  1  0.30059040  0.69791918  0.49039548  1
  Nb  Nb103  1  0.90122346  0.90026325  0.10758320  1
  Nb  Nb104  1  0.89976764  0.50064753  0.90162467  1
  Nb  Nb105  1  0.49771708  0.10226341  0.70189555  1
  Nb  Nb106  1  0.90973956  0.30477765  0.10046302  1
  Nb  Nb107  1  0.09374708  0.50263212  0.29401816  1
  Nb  Nb108  1  0.30008873  0.30348465  0.29491703  1
  Nb  Nb109  1  0.90134960  0.89607937  0.70039725  1
  Nb  Nb110  1  0.70554047  0.69654120  0.49967854  1
  Nb  Nb111  1  0.49691059  0.69723418  0.28892133  1
  Nb  Nb112  1  0.09805487  0.69550371  0.10906855  1
  Nb  Nb113  1  0.30667758  0.69902767  0.30079623  1
  Nb  Nb114  1  0.69594988  0.09898248  0.10459543  1
  Nb  Nb115  1  0.49155721  0.30144542  0.10058288  1
  Nb  Nb116  1  0.50144567  0.50330678  0.89860832  1
  Nb  Nb117  1  0.90491646  0.10360862  0.89894855  1
  Nb  Nb118  1  0.91272911  0.09294154  0.70484491  1
  Nb  Nb119  1  0.09827687  0.09500014  0.30521473  1
  Nb  Nb120  1  0.70467576  0.49555528  0.29762400  1
  Nb  Nb121  1  0.09108370  0.30329393  0.10338233  1
  Nb  Nb122  1  0.69825552  0.50062827  0.69500744  1
  Nb  Nb123  1  0.09511362  0.70358781  0.70243609  1
  Nb  Nb124  1  0.09478323  0.10112121  0.69963541  1
  Nb  Nb125  1  0.40127477  0.00726167  0.79866755  1
  Nb  Nb126  1  0.20652198  0.79440997  0.39720385  1
  Nb  Nb127  1  0.19373195  0.19924717  0.60175459  1
  Nb  Nb128  1  -0.00023897  0.80116910  0.79744517  1
  Nb  Nb129  1  0.20424819  0.59699438  0.20531310  1
  Nb  Nb130  1  -0.00117351  0.80284585  0.19659150  1
  Nb  Nb131  1  0.79764138  0.59137000  0.20345204  1
  Nb  Nb132  1  0.80079321  0.39891091  0.19849680  1
  Nb  Nb133  1  0.39994890  0.79789192  0.59117790  1
  Nb  Nb134  1  0.60181805  0.40300635  0.60391708  1
  Nb  Nb135  1  0.60003468  0.79288213  0.59849217  1
  Nb  Nb136  1  -0.00303457  0.79810613  0.60420473  1
  Nb  Nb137  1  0.19941126  0.40155800  0.20280903  1
  Nb  Nb138  1  0.39566091  0.40154780  0.19784479  1
  Nb  Nb139  1  0.59783098  0.79382921  0.79919081  1
  Nb  Nb140  1  0.40146280  -0.00347009  0.39633545  1
  Nb  Nb141  1  0.40058818  0.59832669  0.19986901  1
  Nb  Nb142  1  0.00077853  0.60024511  0.40271752  1
  Nb  Nb143  1  0.59887182  0.59723554  0.80010793  1
  Nb  Nb144  1  0.80974713  -0.00024883  0.60965708  1
  Nb  Nb145  1  -0.00348535  0.40571573  0.80720093  1
  Nb  Nb146  1  0.79692781  0.60181948  0.59312146  1
  Nb  Nb147  1  0.60190456  0.00537048  0.19503726  1
  Nb  Nb148  1  0.59886579  0.40737960  0.79713341  1
  Nb  Nb149  1  0.81123700  0.00430217  0.79856490  1
  Pd  Pd150  1  0.78925367  0.79918069  0.39262739  1
  Pd  Pd151  1  0.80051676  0.40356895  0.80065660  1
  Pd  Pd152  1  -0.00385967  0.19696413  0.40016402  1
  Pd  Pd153  1  0.40954511  -0.00227975  0.20777630  1
  Pd  Pd154  1  0.00887686  0.40200503  -0.00958746  1
  Pd  Pd155  1  0.00097989  0.21094459  0.80210964  1
  Pd  Pd156  1  0.60075967  0.59345599  0.19039316  1
  Pd  Pd157  1  0.59652994  0.39429452  0.41074449  1
  Pd  Pd158  1  0.00130620  0.60234666  -0.00554412  1
  Pd  Pd159  1  0.80284671  0.19128516  0.79590219  1
  Pd  Pd160  1  -0.00332448  -0.00652654  0.59023775  1
  Pd  Pd161  1  0.39513729  0.80138590  0.00433736  1
  Pd  Pd162  1  0.00304647  0.20267907  0.60083515  1
  Pd  Pd163  1  0.60778796  0.80657949  0.19559788  1
  Pd  Pd164  1  0.60530364  -0.00643102  0.79147341  1
  Pd  Pd165  1  0.39967939  0.80495650  0.40059449  1
  Pd  Pd166  1  0.61471349  -0.00676503  0.60933822  1
  Pd  Pd167  1  0.39477612  -0.00194291  0.60105197  1
  Pd  Pd168  1  0.19432753  0.20202027  0.19649778  1
  Pd  Pd169  1  0.40116177  0.38831781  0.59846256  1
  Pd  Pd170  1  0.20161258  0.00964145  0.60407372  1
  Pd  Pd171  1  -0.00012952  0.19611425  0.20076111  1
  Pd  Pd172  1  0.00209513  0.40265935  0.39866436  1
  Pd  Pd173  1  -0.00382811  -0.00838658  0.81130249  1
  Pd  Pd174  1  0.20284896  0.00961483  0.00178051  1
  Pd  Pd175  1  0.80114675  0.00648972  0.40938467  1
  Pd  Pd176  1  0.38998919  0.20515425  0.59421618  1
  Pd  Pd177  1  0.19352413  0.40441551  0.39582030  1
  Pd  Pd178  1  0.40340867  0.81011417  0.79156434  1
  Pd  Pd179  1  0.80461714  0.20716080  0.19240932  1
  Pd  Pd180  1  0.39519260  0.19468492  0.40001221  1
  Pd  Pd181  1  0.59689970  0.20461269  0.00025628  1
  Pd  Pd182  1  0.60297871  0.59935117  0.59599255  1
  Pd  Pd183  1  0.59819762  0.20101316  0.19920963  1
  Pd  Pd184  1  0.00504696  0.79764328  0.00214289  1
  Pd  Pd185  1  0.80354762  0.19623733  0.00993956  1
  Pd  Pd186  1  0.19600763  0.79779648  0.00309069  1
  Pd  Pd187  1  0.59922927  0.39597661  0.19058528  1
  Pd  Pd188  1  0.20199176  0.60043728  0.60278826  1
  Pd  Pd189  1  0.60606805  0.79784862  0.40181861  1
  Pd  Pd190  1  0.19090851  0.39864960  0.00611440  1
  Pd  Pd191  1  0.80253492  0.18822881  0.60489087  1
  Pd  Pd192  1  0.60491077  0.79489481  -0.00311278  1
  Pd  Pd193  1  0.59894682  0.00347689  0.38869291  1
  Pd  Pd194  1  0.39352863  0.60780922  0.59614142  1
  Pd  Pd195  1  0.40639000  0.39421870  0.80258822  1
  Pd  Pd196  1  0.19490121  0.00590174  0.19822855  1
  Pd  Pd197  1  0.80142200  0.00705417  -0.00127031  1
  Pd  Pd198  1  -0.01015935  0.60530596  0.59367982  1
  Pd  Pd199  1  0.19083440  0.60040082  0.39586106  1
  Rh  Rh200  1  0.19030718  0.79392417  0.20512316  1
  Rh  Rh201  1  0.20891806  0.39139815  0.59919465  1
  Rh  Rh202  1  0.60885733  0.00056263  0.01030044  1
  Rh  Rh203  1  0.00033150  0.60184055  0.80611383  1
  Rh  Rh204  1  0.19366799  0.19856772  0.00735831  1
  Rh  Rh205  1  0.79296476  0.58982599  0.79790135  1
  Rh  Rh206  1  0.20365487  0.60462304  0.79547779  1
  Rh  Rh207  1  0.59653486  0.59857957  0.39903353  1
  Rh  Rh208  1  -0.00317560  0.19883701  0.00301800  1
  Rh  Rh209  1  0.18796948  0.19767428  0.79409807  1
  Rh  Rh210  1  0.80649742  0.81197711  0.81450718  1
  Rh  Rh211  1  -0.00153670  0.38754118  0.20988123  1
  Rh  Rh212  1  0.79316131  0.00495448  0.19445305  1
  Rh  Rh213  1  0.39644402  0.60082080  0.79925674  1
  Rh  Rh214  1  0.40502140  0.39924098  0.39449312  1
  Rh  Rh215  1  0.39866401  0.60285126  0.00822599  1
  Rh  Rh216  1  -0.00061606  0.00311457  0.00236321  1
  Rh  Rh217  1  0.40274673  0.39869850  0.00052391  1
  Rh  Rh218  1  0.19908053  0.60639937  0.01066407  1
  Rh  Rh219  1  0.80353165  0.39433154  0.39343651  1
  Rh  Rh220  1  0.18996530  0.79636094  0.80413082  1
  Rh  Rh221  1  0.60363944  0.20060314  0.40393820  1
  Rh  Rh222  1  -0.00729092  0.00605775  0.40332757  1
  Rh  Rh223  1  0.40796742  0.59667731  0.39182995  1
  Rh  Rh224  1  0.80920213  0.59550481  0.39865932  1
  Rh  Rh225  1  0.80207098  0.39838643  0.00954456  1
  Rh  Rh226  1  0.60065673  0.60684603  -0.00503389  1
  Rh  Rh227  1  0.80183759  0.59467544  0.01090056  1
  Rh  Rh228  1  0.80210513  0.79881847  0.59182479  1
  Rh  Rh229  1  0.00547361  -0.00406389  0.19476917  1
  Rh  Rh230  1  0.39161239  0.00509674  -0.01179055  1
  Rh  Rh231  1  0.40488414  0.19514258  0.80754922  1
  Rh  Rh232  1  0.19962403  0.79813199  0.59242732  1
  Rh  Rh233  1  0.80292083  0.19691418  0.40215200  1
  Rh  Rh234  1  0.80211703  0.79956097  0.00211330  1
  Rh  Rh235  1  0.59790716  0.20660099  0.60044112  1
  Rh  Rh236  1  0.59555838  0.39211890  -0.00795114  1
  Rh  Rh237  1  0.21140345  -0.00581539  0.38748572  1
  Rh  Rh238  1  -0.00631589  0.61278945  0.21168756  1
  Rh  Rh239  1  0.79503408  0.40653253  0.59444211  1
  Rh  Rh240  1  -0.00567740  0.39768305  0.61038352  1
  Rh  Rh241  1  0.59800268  0.20821081  0.80159542  1
  Rh  Rh242  1  0.40188408  0.21044711  0.20362203  1
  Rh  Rh243  1  0.19350934  0.40119407  0.80592251  1
  Rh  Rh244  1  0.80376516  0.79015998  0.20106711  1
  Rh  Rh245  1  0.40042142  0.19940467  -0.00622071  1
  Rh  Rh246  1  0.20403107  0.00950486  0.80087844  1
  Rh  Rh247  1  0.00963631  0.79170550  0.40187562  1
  Rh  Rh248  1  0.40597617  0.79738067  0.19312230  1
  Rh  Rh249  1  0.20278193  0.19989849  0.40294639  1
