# generated using pymatgen
data_ZrScNbPdRh
_symmetry_space_group_name_H-M   'P 1'
_cell_length_a   16.55865147
_cell_length_b   16.55574971
_cell_length_c   16.55496554
_cell_angle_alpha   89.98271704
_cell_angle_beta   90.01619308
_cell_angle_gamma   90.02716383
_symmetry_Int_Tables_number   1
_chemical_formula_structural   ZrScNbPdRh
_chemical_formula_sum   'Zr50 Sc50 Nb50 Pd50 Rh50'
_cell_volume   4538.39207777
_cell_formula_units_Z   50
loop_
 _symmetry_equiv_pos_site_id
 _symmetry_equiv_pos_as_xyz
  1  'x, y, z'
loop_
 _atom_site_type_symbol
 _atom_site_label
 _atom_site_symmetry_multiplicity
 _atom_site_fract_x
 _atom_site_fract_y
 _atom_site_fract_z
 _atom_site_occupancy
  Zr  Zr0  1  0.09724822  0.10644100  0.70089837  1
  Zr  Zr1  1  0.29640856  0.70035167  0.90684326  1
  Zr  Zr2  1  0.09954742  0.89744218  0.90157638  1
  Zr  Zr3  1  0.50529922  0.30567548  0.70093730  1
  Zr  Zr4  1  0.09611632  0.30086769  0.51128242  1
  Zr  Zr5  1  0.48346550  0.89598514  0.69764836  1
  Zr  Zr6  1  0.70550641  0.49837174  0.90084396  1
  Zr  Zr7  1  0.68969424  0.49899284  0.09789683  1
  Zr  Zr8  1  0.28919892  0.30556440  0.50224067  1
  Zr  Zr9  1  0.09894887  0.50163954  0.29338540  1
  Zr  Zr10  1  0.49924371  0.09288013  0.69666340  1
  Zr  Zr11  1  0.29381195  0.69219252  0.50828466  1
  Zr  Zr12  1  0.89721524  0.49550922  0.50225017  1
  Zr  Zr13  1  0.50509917  0.29435683  0.49952016  1
  Zr  Zr14  1  0.49776080  0.29600323  0.29730659  1
  Zr  Zr15  1  0.09370386  0.90308725  0.49483612  1
  Zr  Zr16  1  0.70149769  0.90729661  0.70092552  1
  Zr  Zr17  1  0.71128020  0.10091628  0.30176788  1
  Zr  Zr18  1  0.70313287  0.69527227  0.10198941  1
  Zr  Zr19  1  0.11387021  0.49546311  0.49790702  1
  Zr  Zr20  1  0.90219330  0.70620429  0.10047046  1
  Zr  Zr21  1  0.70669887  0.50082108  0.29406267  1
  Zr  Zr22  1  0.69119062  0.90777094  0.90282018  1
  Zr  Zr23  1  0.29824742  0.30421917  0.70384695  1
  Zr  Zr24  1  0.50773802  0.71345644  0.30431123  1
  Zr  Zr25  1  0.89252365  0.29567925  0.30061335  1
  Zr  Zr26  1  0.29630421  0.09684164  0.29565690  1
  Zr  Zr27  1  0.50323943  0.69844860  0.51386537  1
  Zr  Zr28  1  0.70000442  0.70234871  0.50427893  1
  Zr  Zr29  1  0.30306345  0.29170053  0.29885359  1
  Zr  Zr30  1  0.50081003  0.09494099  0.90236463  1
  Zr  Zr31  1  0.70886667  0.09656720  0.69508143  1
  Zr  Zr32  1  0.70001787  0.30171044  0.90177339  1
  Zr  Zr33  1  0.50175906  0.50286239  0.70353722  1
  Zr  Zr34  1  0.90735687  0.29645213  0.70237727  1
  Zr  Zr35  1  0.89772233  0.69795996  0.90235397  1
  Zr  Zr36  1  0.09892473  0.09719556  0.30247693  1
  Zr  Zr37  1  0.90600636  0.90095709  0.90286980  1
  Zr  Zr38  1  0.29764901  0.29187900  0.09544915  1
  Zr  Zr39  1  0.89520659  0.69744022  0.49703268  1
  Zr  Zr40  1  0.70235567  0.29578229  0.69563848  1
  Zr  Zr41  1  0.09502487  0.30685213  0.09562062  1
  Zr  Zr42  1  0.09085691  0.70713387  0.29871792  1
  Zr  Zr43  1  0.31155876  0.90570049  0.29294097  1
  Zr  Zr44  1  0.90190492  0.90644541  0.09640323  1
  Zr  Zr45  1  0.10626467  0.09898431  0.89604419  1
  Zr  Zr46  1  0.89931039  0.90701594  0.70299633  1
  Zr  Zr47  1  0.49591771  0.89620504  0.09937422  1
  Zr  Zr48  1  0.10078786  0.69513160  0.09744909  1
  Zr  Zr49  1  0.10360935  0.29614926  0.69787507  1
  Sc  Sc50  1  0.30007378  0.29805412  0.89482619  1
  Sc  Sc51  1  0.09120365  0.10243060  0.50161140  1
  Sc  Sc52  1  0.31189325  0.70508458  0.29706311  1
  Sc  Sc53  1  0.49883343  0.89542465  0.49977908  1
  Sc  Sc54  1  0.50913206  0.29683889  0.09456641  1
  Sc  Sc55  1  0.30706537  0.69901107  0.70566607  1
  Sc  Sc56  1  0.29812076  0.50342321  0.70958243  1
  Sc  Sc57  1  0.91389804  0.50223243  0.10064980  1
  Sc  Sc58  1  0.30962851  0.89936911  0.50197574  1
  Sc  Sc59  1  0.69791405  0.89753881  0.09621616  1
  Sc  Sc60  1  0.09589890  0.30500016  0.30409854  1
  Sc  Sc61  1  0.89785661  0.69872530  0.29695676  1
  Sc  Sc62  1  0.89174789  0.49546739  0.70434812  1
  Sc  Sc63  1  0.90362435  0.29431272  0.49566758  1
  Sc  Sc64  1  0.70147387  0.69458318  0.29920066  1
  Sc  Sc65  1  0.10349597  0.50358540  0.89750661  1
  Sc  Sc66  1  0.30494349  0.69694634  0.09429312  1
  Sc  Sc67  1  0.09825421  0.70885991  0.90107817  1
  Sc  Sc68  1  0.70013707  0.28809650  0.49940628  1
  Sc  Sc69  1  0.10460509  0.49117821  0.69944977  1
  Sc  Sc70  1  0.09125226  0.90129111  0.09996879  1
  Sc  Sc71  1  0.69886729  0.69305031  0.91044575  1
  Sc  Sc72  1  0.88578461  0.69692830  0.69618944  1
  Sc  Sc73  1  0.10558561  0.09700224  0.09871547  1
  Sc  Sc74  1  0.49329275  0.90140774  0.90778545  1
  Sc  Sc75  1  0.70285296  0.29596057  0.10470286  1
  Sc  Sc76  1  0.70334795  0.10061648  0.09434801  1
  Sc  Sc77  1  0.70779338  0.90079579  0.49882350  1
  Sc  Sc78  1  0.50170315  0.69905908  0.09723559  1
  Sc  Sc79  1  0.30156248  0.10112897  0.10298934  1
  Sc  Sc80  1  0.10072068  0.69188662  0.49460729  1
  Sc  Sc81  1  0.09439729  0.90476690  0.71704100  1
  Sc  Sc82  1  0.48307535  0.10625513  0.29971241  1
  Sc  Sc83  1  0.29920875  0.09933763  0.70998246  1
  Sc  Sc84  1  0.09788394  0.29720262  0.89571617  1
  Sc  Sc85  1  0.70683026  0.30116859  0.29688160  1
  Sc  Sc86  1  0.30489047  0.10644717  0.90224998  1
  Sc  Sc87  1  0.70199952  0.50007269  0.70964692  1
  Sc  Sc88  1  0.70211745  0.89372398  0.30505876  1
  Sc  Sc89  1  0.29047950  0.49995313  0.29762298  1
  Sc  Sc90  1  0.90198158  0.90036546  0.30262398  1
  Sc  Sc91  1  0.89751684  0.10001057  0.49736567  1
  Sc  Sc92  1  0.09356114  0.90904262  0.29674381  1
  Sc  Sc93  1  0.70535920  0.50605833  0.49541881  1
  Sc  Sc94  1  0.51094274  0.49839298  0.89820875  1
  Sc  Sc95  1  0.89420249  0.49765232  0.30499898  1
  Sc  Sc96  1  0.50924294  0.51161120  0.29007523  1
  Sc  Sc97  1  0.49702299  0.10211086  0.09649875  1
  Sc  Sc98  1  0.49815949  0.30240228  0.89905166  1
  Sc  Sc99  1  0.89757635  0.09735232  0.30369406  1
  Nb  Nb100  1  0.69708086  0.70271899  0.69808816  1
  Nb  Nb101  1  0.49938060  0.49940308  0.50167209  1
  Nb  Nb102  1  0.29509652  0.90097761  0.70257297  1
  Nb  Nb103  1  0.90144181  0.29298473  0.08882375  1
  Nb  Nb104  1  0.11142937  0.50241836  0.10434522  1
  Nb  Nb105  1  0.50541706  0.69953143  0.70273578  1
  Nb  Nb106  1  0.89543726  0.49826975  0.89102708  1
  Nb  Nb107  1  0.29989202  0.10245951  0.49801402  1
  Nb  Nb108  1  0.29921803  0.50115961  0.49825042  1
  Nb  Nb109  1  0.70047448  0.09669883  0.89420821  1
  Nb  Nb110  1  0.50151860  0.10511522  0.49873497  1
  Nb  Nb111  1  0.90204786  0.30042488  0.90422641  1
  Nb  Nb112  1  0.89755466  0.10357043  0.70403888  1
  Nb  Nb113  1  0.50141912  0.70433286  0.89908818  1
  Nb  Nb114  1  0.89847445  0.10468382  0.09325836  1
  Nb  Nb115  1  0.69354027  0.10111024  0.50056142  1
  Nb  Nb116  1  0.09373564  0.70032019  0.69625027  1
  Nb  Nb117  1  0.29427673  0.89610532  0.89697035  1
  Nb  Nb118  1  0.30116579  0.89507651  0.09615469  1
  Nb  Nb119  1  0.29957619  0.50624693  0.09748038  1
  Nb  Nb120  1  0.50119377  0.90064040  0.29933231  1
  Nb  Nb121  1  0.90423934  0.89747692  0.49592762  1
  Nb  Nb122  1  0.89407936  0.10814768  0.90697579  1
  Nb  Nb123  1  0.49792322  0.49958702  0.09746179  1
  Nb  Nb124  1  0.29741924  0.49998055  0.90315755  1
  Nb  Nb125  1  0.20103575  -0.00422566  0.60360647  1
  Nb  Nb126  1  0.59810525  0.79568727  0.79564366  1
  Nb  Nb127  1  0.79005344  0.80208783  0.80087115  1
  Nb  Nb128  1  0.39955330  0.40563099  0.19274934  1
  Nb  Nb129  1  0.20113629  0.80458246  0.39775245  1
  Nb  Nb130  1  0.59541430  0.40293627  0.39973215  1
  Nb  Nb131  1  0.80020069  0.39352689  0.60084705  1
  Nb  Nb132  1  -0.00715847  0.20121327  0.19258455  1
  Nb  Nb133  1  0.40345558  0.40704410  0.39952277  1
  Nb  Nb134  1  0.19394209  0.80472817  0.60227859  1
  Nb  Nb135  1  0.19966711  0.19799961  0.40337774  1
  Nb  Nb136  1  0.39948271  0.20125322  0.59612362  1
  Nb  Nb137  1  0.40419255  0.59474689  0.40673206  1
  Nb  Nb138  1  0.20237968  0.80512537  0.20027340  1
  Nb  Nb139  1  -0.00357385  0.60162747  0.79532925  1
  Nb  Nb140  1  0.20346967  0.40771033  0.00482342  1
  Nb  Nb141  1  0.59512009  -0.00170720  0.20909540  1
  Nb  Nb142  1  0.20503632  -0.00912623  -0.00397365  1
  Nb  Nb143  1  0.59637227  0.00609084  0.39881066  1
  Nb  Nb144  1  0.81121888  0.39798340  -0.00255577  1
  Nb  Nb145  1  0.40041321  0.40308358  0.59375266  1
  Nb  Nb146  1  0.60545139  0.19115538  0.80003122  1
  Nb  Nb147  1  0.00012484  0.79774771  0.59992468  1
  Nb  Nb148  1  0.39537702  0.40880511  0.00411339  1
  Nb  Nb149  1  0.00059678  0.59881229  0.60315230  1
  Pd  Pd150  1  0.40216282  0.60062264  0.20623754  1
  Pd  Pd151  1  0.80610587  0.58854376  0.00869041  1
  Pd  Pd152  1  0.20636523  0.61409798  0.20486326  1
  Pd  Pd153  1  0.59479482  0.39779190  0.20366777  1
  Pd  Pd154  1  0.80620247  0.00266711  0.59031261  1
  Pd  Pd155  1  0.60504068  0.19906745  0.38819813  1
  Pd  Pd156  1  0.00169518  -0.00054782  0.60108851  1
  Pd  Pd157  1  0.39174833  0.00729167  0.59714784  1
  Pd  Pd158  1  0.40892444  0.19922082  0.79498706  1
  Pd  Pd159  1  0.79939942  0.20218182  0.80356815  1
  Pd  Pd160  1  0.79538625  0.80381747  -0.00512201  1
  Pd  Pd161  1  -0.00207196  0.59363962  0.40381303  1
  Pd  Pd162  1  0.39714267  0.79246329  0.40934022  1
  Pd  Pd163  1  0.20714667  0.60963540  0.38665867  1
  Pd  Pd164  1  0.59847307  0.59802909  0.40089706  1
  Pd  Pd165  1  0.59788139  -0.00656530  0.59036729  1
  Pd  Pd166  1  0.60055326  0.81090614  0.60316587  1
  Pd  Pd167  1  0.40292454  0.59732351  0.80936371  1
  Pd  Pd168  1  0.60481662  0.80316924  0.19700865  1
  Pd  Pd169  1  0.80545636  0.80631661  0.60324550  1
  Pd  Pd170  1  0.80047967  0.80504382  0.20264542  1
  Pd  Pd171  1  0.00400541  0.41090070  -0.00702962  1
  Pd  Pd172  1  0.00511467  0.40412821  0.80143285  1
  Pd  Pd173  1  0.00463625  0.59432570  -0.00821207  1
  Pd  Pd174  1  0.39106344  0.00074425  0.00075275  1
  Pd  Pd175  1  0.40874506  0.59735215  -0.00927271  1
  Pd  Pd176  1  0.40741865  0.00142988  0.40329248  1
  Pd  Pd177  1  0.60870474  0.40804070  0.59341446  1
  Pd  Pd178  1  0.40100075  0.79935463  0.80589791  1
  Pd  Pd179  1  -0.00760421  0.01252493  0.80825538  1
  Pd  Pd180  1  0.00993918  0.19249050  -0.00030036  1
  Pd  Pd181  1  0.60298165  0.19628257  -0.00621979  1
  Pd  Pd182  1  0.59036514  -0.00453656  0.79817965  1
  Pd  Pd183  1  -0.00467122  0.60003307  0.20318062  1
  Pd  Pd184  1  0.39722881  0.59462340  0.60337206  1
  Pd  Pd185  1  0.60590049  0.60641172  0.80464164  1
  Pd  Pd186  1  0.19167869  0.60764136  0.79877410  1
  Pd  Pd187  1  0.79741002  0.00132540  -0.00156819  1
  Pd  Pd188  1  0.00059196  0.40164782  0.39987566  1
  Pd  Pd189  1  0.80934622  0.40243335  0.18562196  1
  Pd  Pd190  1  -0.00821732  0.39499362  0.20140200  1
  Pd  Pd191  1  0.60081314  0.18832513  0.20393071  1
  Pd  Pd192  1  0.18604926  0.20272057  0.20400845  1
  Pd  Pd193  1  -0.00678936  0.00953169  0.19791723  1
  Pd  Pd194  1  0.80087618  0.79598189  0.39422593  1
  Pd  Pd195  1  0.20576347  0.39555025  0.19807565  1
  Pd  Pd196  1  0.20254558  -0.00093974  0.40835043  1
  Pd  Pd197  1  0.60952936  0.59092535  0.60305223  1
  Pd  Pd198  1  0.79526287  -0.00364848  0.19773520  1
  Pd  Pd199  1  0.19966635  0.79306754  0.79288683  1
  Rh  Rh200  1  0.20498558  0.18515950  0.59767656  1
  Rh  Rh201  1  0.59572224  0.19134528  0.61017520  1
  Rh  Rh202  1  0.40572576  0.20628156  0.18767987  1
  Rh  Rh203  1  0.20710983  0.00146467  0.80336352  1
  Rh  Rh204  1  -0.00500312  0.19592144  0.80526053  1
  Rh  Rh205  1  0.19421957  0.59800531  -0.00239034  1
  Rh  Rh206  1  0.39967181  0.79581590  -0.00351780  1
  Rh  Rh207  1  0.40021601  0.40858482  0.80340842  1
  Rh  Rh208  1  -0.00992170  0.00174199  0.39901395  1
  Rh  Rh209  1  0.20377031  -0.01027248  0.18731686  1
  Rh  Rh210  1  0.20141734  0.39425193  0.39248721  1
  Rh  Rh211  1  0.60311369  0.80555076  0.40598335  1
  Rh  Rh212  1  0.19751389  0.80511717  0.00930315  1
  Rh  Rh213  1  0.79363139  0.20363695  -0.00224985  1
  Rh  Rh214  1  0.60006206  0.00326898  0.01141451  1
  Rh  Rh215  1  0.80811085  -0.00128390  0.81014963  1
  Rh  Rh216  1  0.39827485  0.79733954  0.19264536  1
  Rh  Rh217  1  0.59502477  0.60134336  0.00016304  1
  Rh  Rh218  1  0.19853718  0.19896791  -0.00383637  1
  Rh  Rh219  1  0.38952637  0.20409771  0.40950692  1
  Rh  Rh220  1  0.00187830  0.79878132  0.00590362  1
  Rh  Rh221  1  0.60361527  0.39377611  0.80237716  1
  Rh  Rh222  1  0.39283893  0.79330657  0.60221550  1
  Rh  Rh223  1  -0.00807419  0.19455090  0.60229759  1
  Rh  Rh224  1  0.59849827  0.60697314  0.19497311  1
  Rh  Rh225  1  -0.00705979  0.40493940  0.60124437  1
  Rh  Rh226  1  0.19926020  0.39652101  0.80865585  1
  Rh  Rh227  1  0.78880724  0.39391877  0.40934285  1
  Rh  Rh228  1  0.40545343  0.00077551  0.19189920  1
  Rh  Rh229  1  0.00523634  0.00755483  -0.00407603  1
  Rh  Rh230  1  0.80766723  0.19755834  0.19400804  1
  Rh  Rh231  1  0.40262126  0.20774279  -0.00102222  1
  Rh  Rh232  1  -0.01718100  0.78862113  0.79121817  1
  Rh  Rh233  1  0.80745022  0.20006529  0.59535951  1
  Rh  Rh234  1  0.19515318  0.60032266  0.60958855  1
  Rh  Rh235  1  0.60085892  0.39972854  0.00087134  1
  Rh  Rh236  1  0.20163843  0.20188737  0.80110535  1
  Rh  Rh237  1  0.00571919  0.19823132  0.39243437  1
  Rh  Rh238  1  0.80043336  0.38943014  0.80053904  1
  Rh  Rh239  1  0.79902556  0.60422512  0.39710918  1
  Rh  Rh240  1  0.39391579  -0.00440405  0.80660347  1
  Rh  Rh241  1  0.79835598  0.19792376  0.40514285  1
  Rh  Rh242  1  0.80504351  0.59568943  0.19503655  1
  Rh  Rh243  1  0.00066149  0.80303090  0.19706902  1
  Rh  Rh244  1  0.79676353  -0.00049795  0.40605048  1
  Rh  Rh245  1  0.59690954  0.79668972  -0.00559171  1
  Rh  Rh246  1  0.00155152  0.80028506  0.40308554  1
  Rh  Rh247  1  0.79816726  0.58950123  0.60383060  1
  Rh  Rh248  1  0.20932261  0.40987852  0.60863761  1
  Rh  Rh249  1  0.79950229  0.60993505  0.80025834  1
