# generated using pymatgen
data_ZrScNbPdRh
_symmetry_space_group_name_H-M   'P 1'
_cell_length_a   16.56434818
_cell_length_b   16.56097017
_cell_length_c   16.56139145
_cell_angle_alpha   90.01129084
_cell_angle_beta   89.99042201
_cell_angle_gamma   90.02755394
_symmetry_Int_Tables_number   1
_chemical_formula_structural   ZrScNbPdRh
_chemical_formula_sum   'Zr50 Sc50 Nb50 Pd50 Rh50'
_cell_volume   4543.14798606
_cell_formula_units_Z   50
loop_
 _symmetry_equiv_pos_site_id
 _symmetry_equiv_pos_as_xyz
  1  'x, y, z'
loop_
 _atom_site_type_symbol
 _atom_site_label
 _atom_site_symmetry_multiplicity
 _atom_site_fract_x
 _atom_site_fract_y
 _atom_site_fract_z
 _atom_site_occupancy
  Zr  Zr0  1  0.89985528  0.49365173  0.90101721  1
  Zr  Zr1  1  0.89738362  0.10399147  0.90653824  1
  Zr  Zr2  1  0.69785592  0.50350647  0.28903195  1
  Zr  Zr3  1  0.89272241  0.70397267  0.29236626  1
  Zr  Zr4  1  0.10837899  0.50462173  0.89389344  1
  Zr  Zr5  1  0.89689877  0.71202016  0.09625315  1
  Zr  Zr6  1  0.50080918  0.30463051  0.91121707  1
  Zr  Zr7  1  0.10286621  0.29455008  0.69827058  1
  Zr  Zr8  1  0.09394765  0.29730452  0.10233494  1
  Zr  Zr9  1  0.90098001  0.30073740  0.89961765  1
  Zr  Zr10  1  0.89830105  0.30148902  0.69474394  1
  Zr  Zr11  1  0.49943457  0.49171092  0.08803432  1
  Zr  Zr12  1  0.89419685  0.70283769  0.51083903  1
  Zr  Zr13  1  0.89891673  0.30210790  0.09281796  1
  Zr  Zr14  1  0.29454218  0.50339751  0.30283778  1
  Zr  Zr15  1  0.30611471  0.90566816  0.70047287  1
  Zr  Zr16  1  0.09873754  0.89807338  0.90104392  1
  Zr  Zr17  1  0.29917343  0.10125776  0.90374930  1
  Zr  Zr18  1  0.90106334  0.89346848  0.91172350  1
  Zr  Zr19  1  0.30552011  0.29725697  0.30363788  1
  Zr  Zr20  1  0.30466367  0.69675968  0.09537251  1
  Zr  Zr21  1  0.11213727  0.49916291  0.69762976  1
  Zr  Zr22  1  0.90795080  0.30222647  0.29671196  1
  Zr  Zr23  1  0.09529969  0.09989025  0.50108919  1
  Zr  Zr24  1  0.49760531  0.30427891  0.49766011  1
  Zr  Zr25  1  0.09965801  0.90068535  0.30397986  1
  Zr  Zr26  1  0.49981333  0.70556069  0.70410059  1
  Zr  Zr27  1  0.68594014  0.89966525  0.70668279  1
  Zr  Zr28  1  0.90151148  0.90197027  0.49498083  1
  Zr  Zr29  1  0.49624185  0.49141611  0.30982533  1
  Zr  Zr30  1  0.50065189  0.89895190  0.50886105  1
  Zr  Zr31  1  0.69266196  0.10400445  0.69378587  1
  Zr  Zr32  1  0.69657138  0.49501360  0.90445301  1
  Zr  Zr33  1  0.70366425  0.29281164  0.50146824  1
  Zr  Zr34  1  0.69880527  0.90332189  0.90465461  1
  Zr  Zr35  1  0.70279108  0.69677530  0.11198498  1
  Zr  Zr36  1  0.10829441  0.10147832  0.90008865  1
  Zr  Zr37  1  0.30041857  0.10081318  0.29765304  1
  Zr  Zr38  1  0.10256481  0.50869360  0.09688328  1
  Zr  Zr39  1  0.09982617  0.69054105  0.50879516  1
  Zr  Zr40  1  0.69561305  0.70340668  0.29868465  1
  Zr  Zr41  1  0.49635724  0.69462861  0.50342200  1
  Zr  Zr42  1  0.49326909  0.69477332  0.90556796  1
  Zr  Zr43  1  0.69643001  0.10181103  0.30244035  1
  Zr  Zr44  1  0.89280355  0.90835756  0.10332154  1
  Zr  Zr45  1  0.71024499  0.69537156  0.69537591  1
  Zr  Zr46  1  0.90048629  0.29970945  0.50024837  1
  Zr  Zr47  1  0.49166982  0.89377074  0.10343692  1
  Zr  Zr48  1  0.31417752  0.29639224  0.10080487  1
  Zr  Zr49  1  0.49903449  0.09351923  0.69577812  1
  Sc  Sc50  1  0.68844612  0.09854914  0.90049720  1
  Sc  Sc51  1  0.09437247  0.91185773  0.10042123  1
  Sc  Sc52  1  0.10611748  0.09262591  0.30539670  1
  Sc  Sc53  1  0.09965043  0.30174523  0.88997473  1
  Sc  Sc54  1  0.09651875  0.69138264  0.29720752  1
  Sc  Sc55  1  0.50089444  0.29788317  0.10429604  1
  Sc  Sc56  1  0.30367339  0.69661424  0.89758767  1
  Sc  Sc57  1  0.09978590  0.88870972  0.70227298  1
  Sc  Sc58  1  0.49780343  0.28977909  0.68846580  1
  Sc  Sc59  1  0.70282205  0.09929735  0.49528115  1
  Sc  Sc60  1  0.89462119  0.09552139  0.49706225  1
  Sc  Sc61  1  0.69870411  0.69971894  0.89985848  1
  Sc  Sc62  1  0.70068997  0.29654554  0.90890621  1
  Sc  Sc63  1  0.49941136  0.10657601  0.90096776  1
  Sc  Sc64  1  0.49665761  0.70006919  0.10073322  1
  Sc  Sc65  1  0.30462742  0.89873228  0.51230430  1
  Sc  Sc66  1  0.69232374  0.49719778  0.50977164  1
  Sc  Sc67  1  0.90711532  0.50052359  0.29789941  1
  Sc  Sc68  1  0.90860303  0.70166765  0.89687091  1
  Sc  Sc69  1  0.69729491  0.09397844  0.10173462  1
  Sc  Sc70  1  0.49978052  0.10621200  0.10872637  1
  Sc  Sc71  1  0.30439443  0.91113289  0.29076710  1
  Sc  Sc72  1  0.50828035  0.89710046  0.29654048  1
  Sc  Sc73  1  0.50135089  0.90128962  0.88921604  1
  Sc  Sc74  1  0.69690590  0.70576248  0.49812497  1
  Sc  Sc75  1  0.50166502  0.29293377  0.29620996  1
  Sc  Sc76  1  0.09981389  0.69907896  0.89409953  1
  Sc  Sc77  1  0.09830804  0.69720591  0.09613554  1
  Sc  Sc78  1  0.30123119  0.51150309  0.89597737  1
  Sc  Sc79  1  0.29841472  0.29317251  0.50391746  1
  Sc  Sc80  1  0.29767164  0.70155140  0.69497302  1
  Sc  Sc81  1  0.90547541  0.69699184  0.69617040  1
  Sc  Sc82  1  0.70241149  0.89883644  0.49944944  1
  Sc  Sc83  1  0.30060114  0.90457104  0.89514603  1
  Sc  Sc84  1  0.10086556  0.29936810  0.50678185  1
  Sc  Sc85  1  0.09053597  0.90172893  0.49787276  1
  Sc  Sc86  1  0.90511130  0.89426907  0.68771820  1
  Sc  Sc87  1  0.49534878  0.90502196  0.69793063  1
  Sc  Sc88  1  0.90833720  0.50050877  0.50391860  1
  Sc  Sc89  1  0.90163167  0.90550838  0.29898665  1
  Sc  Sc90  1  0.30581883  0.51020390  0.50551270  1
  Sc  Sc91  1  0.29932932  0.29505151  0.89442009  1
  Sc  Sc92  1  0.30395760  0.10676698  0.70485456  1
  Sc  Sc93  1  0.29432673  0.10662286  0.49736980  1
  Sc  Sc94  1  0.50931720  0.69928667  0.30044566  1
  Sc  Sc95  1  0.09489080  0.50665651  0.30215723  1
  Sc  Sc96  1  0.70075730  0.90255144  0.29842441  1
  Sc  Sc97  1  0.90491648  0.10057481  0.68504060  1
  Sc  Sc98  1  0.88741960  0.50223444  0.69758562  1
  Sc  Sc99  1  0.29685695  0.30060955  0.69641492  1
  Nb  Nb100  1  0.89019859  0.10085734  0.29978503  1
  Nb  Nb101  1  0.70401874  0.49563209  0.09960067  1
  Nb  Nb102  1  0.29423458  0.09291330  0.10255065  1
  Nb  Nb103  1  0.89481970  0.49933535  0.09489812  1
  Nb  Nb104  1  0.70038339  0.30667817  0.11165476  1
  Nb  Nb105  1  0.30752067  0.49822309  0.70417818  1
  Nb  Nb106  1  0.50123645  0.09924557  0.50604361  1
  Nb  Nb107  1  0.10079381  0.49887820  0.49589544  1
  Nb  Nb108  1  0.50306666  0.50064556  0.89401457  1
  Nb  Nb109  1  0.29927175  0.70261089  0.49394356  1
  Nb  Nb110  1  0.50007542  0.09560002  0.30191731  1
  Nb  Nb111  1  0.29539522  0.69433017  0.30208885  1
  Nb  Nb112  1  0.49713027  0.50184468  0.68817051  1
  Nb  Nb113  1  0.29786505  0.49903454  0.10363160  1
  Nb  Nb114  1  0.10812006  0.10123052  0.09809542  1
  Nb  Nb115  1  0.09595004  0.69913028  0.70197134  1
  Nb  Nb116  1  0.49520074  0.49833218  0.51073887  1
  Nb  Nb117  1  0.90455535  0.10420961  0.10727006  1
  Nb  Nb118  1  0.09732088  0.10000791  0.69766027  1
  Nb  Nb119  1  0.70494355  0.30098218  0.69466799  1
  Nb  Nb120  1  0.10019912  0.30364986  0.30113917  1
  Nb  Nb121  1  0.69926626  0.49561255  0.70254716  1
  Nb  Nb122  1  0.70303545  0.89396456  0.09685832  1
  Nb  Nb123  1  0.70362881  0.29848849  0.30099703  1
  Nb  Nb124  1  0.30155477  0.90000882  0.10191100  1
  Nb  Nb125  1  0.79735132  0.59655462  0.39802395  1
  Nb  Nb126  1  0.59736952  0.59104125  0.79425118  1
  Nb  Nb127  1  0.79991943  0.80735741  0.79983286  1
  Nb  Nb128  1  -0.00307901  0.00159694  0.80058072  1
  Nb  Nb129  1  0.80033741  0.59448601  0.00627113  1
  Nb  Nb130  1  0.39461325  0.79942135  0.39944829  1
  Nb  Nb131  1  0.20070965  0.39716326  0.20021825  1
  Nb  Nb132  1  0.40947465  0.40731384  0.79509818  1
  Nb  Nb133  1  0.79895992  0.19716271  0.79518888  1
  Nb  Nb134  1  0.19584919  0.00306001  0.60529303  1
  Nb  Nb135  1  0.39604194  0.59364614  0.20165009  1
  Nb  Nb136  1  0.80179461  0.20216514  0.19983650  1
  Nb  Nb137  1  0.19783296  0.20008422  0.19779256  1
  Nb  Nb138  1  0.60179774  0.80230720  0.00350890  1
  Nb  Nb139  1  0.80492067  0.00074435  0.79890534  1
  Nb  Nb140  1  -0.00019855  0.20058885  0.39463140  1
  Nb  Nb141  1  0.20319042  0.40257481  0.00581526  1
  Nb  Nb142  1  0.20405957  0.80003513  0.20011382  1
  Nb  Nb143  1  0.79720009  0.40180900  0.39678386  1
  Nb  Nb144  1  0.20591255  0.79507788  0.39737362  1
  Nb  Nb145  1  0.39466962  0.00064869  0.00769304  1
  Nb  Nb146  1  0.20575764  0.80470987  0.00591833  1
  Nb  Nb147  1  0.59729602  0.40177835  0.79141391  1
  Nb  Nb148  1  0.19559109  0.40267575  0.40025929  1
  Nb  Nb149  1  0.40746379  0.00100760  0.40218970  1
  Pd  Pd150  1  0.79398704  -0.00513022  0.60461657  1
  Pd  Pd151  1  0.39465781  0.79090725  0.21211485  1
  Pd  Pd152  1  0.60178792  0.79815308  0.60005489  1
  Pd  Pd153  1  0.00528888  0.41102220  0.19504238  1
  Pd  Pd154  1  0.40517727  0.60470079  0.39608913  1
  Pd  Pd155  1  0.00053366  0.40513935  0.60628928  1
  Pd  Pd156  1  0.79870295  0.79913702  0.39656112  1
  Pd  Pd157  1  0.79801976  0.00995414  0.00099832  1
  Pd  Pd158  1  0.19430759  0.00083582  0.79123134  1
  Pd  Pd159  1  0.00242726  0.00788855  0.20543881  1
  Pd  Pd160  1  0.40470125  0.20731364  0.79885702  1
  Pd  Pd161  1  0.60029984  -0.00397460  0.19565092  1
  Pd  Pd162  1  0.60362552  0.20334363  0.01213286  1
  Pd  Pd163  1  0.38815706  0.40601925  -0.01352230  1
  Pd  Pd164  1  0.40750929  0.19263147  0.40432815  1
  Pd  Pd165  1  0.60284781  0.20976041  0.79755820  1
  Pd  Pd166  1  -0.00995080  0.60702055  0.40357076  1
  Pd  Pd167  1  0.60315132  0.60383211  0.60266670  1
  Pd  Pd168  1  0.00431917  0.18877321  0.20804169  1
  Pd  Pd169  1  0.38864326  0.40127569  0.41141780  1
  Pd  Pd170  1  0.39548389  0.80072833  0.80201830  1
  Pd  Pd171  1  0.59942148  0.39181250  0.60338665  1
  Pd  Pd172  1  0.60539123  0.60577985  0.00111453  1
  Pd  Pd173  1  0.60661578  0.39965802  0.40119595  1
  Pd  Pd174  1  0.79018587  0.19520984  0.00575962  1
  Pd  Pd175  1  0.00816553  0.80309281  0.19436776  1
  Pd  Pd176  1  0.21252562  -0.01191738  0.41119661  1
  Pd  Pd177  1  -0.00663459  0.60356831  -0.00208165  1
  Pd  Pd178  1  0.59693566  -0.00401905  0.40531623  1
  Pd  Pd179  1  0.80567612  0.39910921  0.20463710  1
  Pd  Pd180  1  0.01104098  0.40207039  -0.00416828  1
  Pd  Pd181  1  0.00657027  0.19767501  -0.00377775  1
  Pd  Pd182  1  0.20605213  0.59849206  0.60324555  1
  Pd  Pd183  1  -0.00137715  0.59189198  0.79188562  1
  Pd  Pd184  1  -0.00585879  0.19303583  0.79712600  1
  Pd  Pd185  1  0.59424752  0.20058984  0.40164731  1
  Pd  Pd186  1  0.79801744  0.60549978  0.80899067  1
  Pd  Pd187  1  0.20520062  0.79450804  0.80602111  1
  Pd  Pd188  1  0.20811748  0.40401609  0.59074322  1
  Pd  Pd189  1  0.00584535  0.78814563  0.40144519  1
  Pd  Pd190  1  0.59285744  0.39809626  0.20102737  1
  Pd  Pd191  1  0.60425267  0.59389937  0.40597907  1
  Pd  Pd192  1  0.20187635  0.21125974  0.00392663  1
  Pd  Pd193  1  0.58525694  0.59199442  0.19409106  1
  Pd  Pd194  1  0.00132978  0.00804826  -0.00126646  1
  Pd  Pd195  1  0.00101058  0.40732193  0.79058884  1
  Pd  Pd196  1  0.58514513  -0.00586311  0.00551550  1
  Pd  Pd197  1  -0.00795088  0.59976878  0.19313613  1
  Pd  Pd198  1  0.19405061  0.80583143  0.59399935  1
  Pd  Pd199  1  0.79326474  0.39039729  0.80282699  1
  Rh  Rh200  1  0.79682752  0.80520834  0.60601149  1
  Rh  Rh201  1  0.19342878  -0.00040835  0.19722120  1
  Rh  Rh202  1  0.01301041  0.79943640  0.00510221  1
  Rh  Rh203  1  0.79597411  0.00547993  0.19917867  1
  Rh  Rh204  1  0.60799003  0.20096931  0.20244077  1
  Rh  Rh205  1  0.20418627  0.60338530  -0.00489069  1
  Rh  Rh206  1  0.80779446  0.59379206  0.19947343  1
  Rh  Rh207  1  0.40699649  0.00515236  0.20061964  1
  Rh  Rh208  1  0.40087549  0.81180166  -0.01035368  1
  Rh  Rh209  1  0.60630384  0.39281266  0.00202114  1
  Rh  Rh210  1  0.39549186  0.39740299  0.60182036  1
  Rh  Rh211  1  -0.00880185  0.01128897  0.39411946  1
  Rh  Rh212  1  0.39968311  0.79344091  0.59778481  1
  Rh  Rh213  1  0.79899339  0.81216691  0.20569844  1
  Rh  Rh214  1  0.80793092  0.20712305  0.39274070  1
  Rh  Rh215  1  0.20160054  0.60726270  0.79124734  1
  Rh  Rh216  1  0.39564797  0.60700581  0.60412328  1
  Rh  Rh217  1  0.00931495  -0.00522563  0.60629094  1
  Rh  Rh218  1  0.20339681  0.60270946  0.19798985  1
  Rh  Rh219  1  0.40404519  0.00747416  0.80862055  1
  Rh  Rh220  1  0.39735036  0.19219676  0.20062018  1
  Rh  Rh221  1  0.60431384  0.78829784  0.80681839  1
  Rh  Rh222  1  0.21290813  0.40088523  0.80681676  1
  Rh  Rh223  1  0.19311346  0.59828759  0.40544647  1
  Rh  Rh224  1  0.40261919  0.40653780  0.20246910  1
  Rh  Rh225  1  0.00326311  0.39439867  0.40546262  1
  Rh  Rh226  1  0.20586529  -0.00837163  0.00212541  1
  Rh  Rh227  1  0.59714339  0.00637674  0.79954925  1
  Rh  Rh228  1  0.38880483  0.01228886  0.59336213  1
  Rh  Rh229  1  0.40050431  0.18861060  0.00506615  1
  Rh  Rh230  1  0.19973904  0.19153809  0.60560661  1
  Rh  Rh231  1  0.79694755  0.59301614  0.58986706  1
  Rh  Rh232  1  -0.00087399  0.20071384  0.59140057  1
  Rh  Rh233  1  0.80021176  0.19550526  0.60405344  1
  Rh  Rh234  1  0.00468654  0.59359715  0.60747281  1
  Rh  Rh235  1  0.59963797  0.20081430  0.59306699  1
  Rh  Rh236  1  0.60332348  0.80419518  0.19342910  1
  Rh  Rh237  1  0.40551308  0.59776513  0.78999411  1
  Rh  Rh238  1  0.60553697  0.00124149  0.59412895  1
  Rh  Rh239  1  0.39791239  0.59099260  0.00545025  1
  Rh  Rh240  1  0.19945587  0.19989272  0.79585939  1
  Rh  Rh241  1  0.59184535  0.80369198  0.40271998  1
  Rh  Rh242  1  0.00560597  0.79737573  0.59691829  1
  Rh  Rh243  1  0.19044309  0.21060607  0.39367565  1
  Rh  Rh244  1  0.79518059  0.40083904  0.00129824  1
  Rh  Rh245  1  0.80044660  -0.00509805  0.39767008  1
  Rh  Rh246  1  -0.00751928  0.80514781  0.79634663  1
  Rh  Rh247  1  0.79115567  0.78835879  -0.00489426  1
  Rh  Rh248  1  0.79930499  0.40447704  0.59095961  1
  Rh  Rh249  1  0.39862483  0.19748399  0.59604557  1
