# generated using pymatgen
data_ZrScNbPdRh
_symmetry_space_group_name_H-M   'P 1'
_cell_length_a   16.56017318
_cell_length_b   16.56097141
_cell_length_c   16.56490835
_cell_angle_alpha   90.00450277
_cell_angle_beta   90.08731209
_cell_angle_gamma   89.97414040
_symmetry_Int_Tables_number   1
_chemical_formula_structural   ZrScNbPdRh
_chemical_formula_sum   'Zr50 Sc50 Nb50 Pd50 Rh50'
_cell_volume   4542.96268031
_cell_formula_units_Z   50
loop_
 _symmetry_equiv_pos_site_id
 _symmetry_equiv_pos_as_xyz
  1  'x, y, z'
loop_
 _atom_site_type_symbol
 _atom_site_label
 _atom_site_symmetry_multiplicity
 _atom_site_fract_x
 _atom_site_fract_y
 _atom_site_fract_z
 _atom_site_occupancy
  Zr  Zr0  1  0.10347236  0.29956638  0.69227098  1
  Zr  Zr1  1  0.30332661  0.50337948  0.29918043  1
  Zr  Zr2  1  0.29438678  0.30395363  0.50360524  1
  Zr  Zr3  1  0.09965360  0.70156773  0.90010279  1
  Zr  Zr4  1  0.89010011  0.50841194  0.09292984  1
  Zr  Zr5  1  0.31167791  0.69571193  0.89780225  1
  Zr  Zr6  1  0.09157469  0.69422756  0.70106589  1
  Zr  Zr7  1  0.90079889  0.90361102  0.69633143  1
  Zr  Zr8  1  0.90731458  0.09798417  0.70735738  1
  Zr  Zr9  1  0.10424884  0.49379338  0.70255436  1
  Zr  Zr10  1  0.49614094  0.50562296  0.30215449  1
  Zr  Zr11  1  0.69750292  0.50825387  0.50584980  1
  Zr  Zr12  1  0.30111487  0.89979701  0.89104428  1
  Zr  Zr13  1  0.50721647  0.29819447  0.70765331  1
  Zr  Zr14  1  0.49858316  0.29367517  0.09112100  1
  Zr  Zr15  1  0.70468645  0.50553702  0.29330997  1
  Zr  Zr16  1  0.50009109  0.70395587  0.48922516  1
  Zr  Zr17  1  0.49179562  0.70269995  0.29613269  1
  Zr  Zr18  1  0.70482962  0.70266921  0.50046220  1
  Zr  Zr19  1  0.10337328  0.10492378  0.10194078  1
  Zr  Zr20  1  0.50078420  0.50809887  0.89458448  1
  Zr  Zr21  1  0.90164876  0.49356976  0.29707348  1
  Zr  Zr22  1  0.30574449  0.09285845  0.70280332  1
  Zr  Zr23  1  0.10318450  0.30017318  0.09354014  1
  Zr  Zr24  1  0.10550786  0.90227735  0.90028360  1
  Zr  Zr25  1  0.50107865  0.50278006  0.49700283  1
  Zr  Zr26  1  0.10560801  0.09638804  0.29272897  1
  Zr  Zr27  1  0.70918229  0.10033542  0.30187700  1
  Zr  Zr28  1  0.70206212  0.49917944  0.09931794  1
  Zr  Zr29  1  0.49204478  0.29461497  0.49624832  1
  Zr  Zr30  1  0.10413795  0.89862530  0.30653199  1
  Zr  Zr31  1  0.89070906  0.09728881  0.10457031  1
  Zr  Zr32  1  0.70064925  0.89278344  0.69832597  1
  Zr  Zr33  1  0.30229188  0.49292467  0.49035094  1
  Zr  Zr34  1  0.30762232  0.90097523  0.69824341  1
  Zr  Zr35  1  0.70898765  0.50600030  0.90247300  1
  Zr  Zr36  1  0.48734857  0.09630542  0.30439092  1
  Zr  Zr37  1  0.30158675  0.89396951  0.08869826  1
  Zr  Zr38  1  0.69698933  0.09371419  0.09092980  1
  Zr  Zr39  1  0.89820233  0.30357686  0.49748050  1
  Zr  Zr40  1  0.09481339  0.10188065  0.69450622  1
  Zr  Zr41  1  0.09919299  0.89613878  0.09705928  1
  Zr  Zr42  1  0.09602419  0.71448887  0.49521654  1
  Zr  Zr43  1  0.49876751  0.90562467  0.70174689  1
  Zr  Zr44  1  0.29755838  0.50364433  0.89994601  1
  Zr  Zr45  1  0.30223943  0.70454694  0.70274929  1
  Zr  Zr46  1  0.90291181  0.70877461  0.69744418  1
  Zr  Zr47  1  0.69115452  0.29765981  0.10953098  1
  Zr  Zr48  1  0.49825901  0.09814719  0.10682555  1
  Zr  Zr49  1  0.29292556  0.29926067  0.09321286  1
  Sc  Sc50  1  0.69619017  0.89937402  0.91751106  1
  Sc  Sc51  1  0.69778067  0.70514800  0.29979955  1
  Sc  Sc52  1  0.49937242  0.71501173  0.10043283  1
  Sc  Sc53  1  0.08912601  0.89937470  0.70516082  1
  Sc  Sc54  1  0.29744503  0.90255803  0.30966800  1
  Sc  Sc55  1  0.29647787  0.50498245  0.70853768  1
  Sc  Sc56  1  0.70379616  0.70054930  0.69750764  1
  Sc  Sc57  1  0.49935312  0.09561891  0.50043169  1
  Sc  Sc58  1  0.10596492  0.10053331  0.88842475  1
  Sc  Sc59  1  0.69453641  0.90174141  0.10570121  1
  Sc  Sc60  1  0.89967842  0.68612946  0.89554625  1
  Sc  Sc61  1  0.49185857  0.10137771  0.69942994  1
  Sc  Sc62  1  0.50548983  0.28878125  0.29687091  1
  Sc  Sc63  1  0.90184043  0.70094982  0.49919664  1
  Sc  Sc64  1  0.70103667  0.70445270  0.88972060  1
  Sc  Sc65  1  0.89757442  0.90192407  0.10514253  1
  Sc  Sc66  1  0.10404781  0.49846110  0.89146358  1
  Sc  Sc67  1  0.08418605  0.70313291  0.30497117  1
  Sc  Sc68  1  0.10301259  0.48418805  0.49952190  1
  Sc  Sc69  1  0.90648023  0.89951784  0.89711146  1
  Sc  Sc70  1  0.89406943  0.90499736  0.30148186  1
  Sc  Sc71  1  0.29755213  0.09762865  0.89023964  1
  Sc  Sc72  1  0.91055172  0.50726239  0.70266086  1
  Sc  Sc73  1  0.89582894  0.69524529  0.30538971  1
  Sc  Sc74  1  0.90177189  0.50709352  0.49264836  1
  Sc  Sc75  1  0.09298722  0.49895667  0.30473144  1
  Sc  Sc76  1  0.10602245  0.30287975  0.88840990  1
  Sc  Sc77  1  0.90773883  0.29165384  0.70254919  1
  Sc  Sc78  1  0.69230385  0.28890289  0.90459637  1
  Sc  Sc79  1  0.70840130  0.10349231  0.69386520  1
  Sc  Sc80  1  0.30946479  0.10089283  0.50002412  1
  Sc  Sc81  1  0.50844590  0.88988653  0.90478221  1
  Sc  Sc82  1  0.50312298  0.49907785  0.09809209  1
  Sc  Sc83  1  0.30134240  0.30342186  0.31194852  1
  Sc  Sc84  1  0.69928110  0.90137886  0.50279670  1
  Sc  Sc85  1  0.08950209  0.50102510  0.09888956  1
  Sc  Sc86  1  0.31218625  0.69523308  0.09489029  1
  Sc  Sc87  1  0.70272445  0.69927806  0.11093518  1
  Sc  Sc88  1  0.50483493  0.70191948  0.71533777  1
  Sc  Sc89  1  0.29406226  0.29812366  0.90264633  1
  Sc  Sc90  1  0.30300722  0.50488419  0.08822303  1
  Sc  Sc91  1  0.29931518  0.29163556  0.70106016  1
  Sc  Sc92  1  0.29451659  0.10636126  0.10804472  1
  Sc  Sc93  1  0.49861673  0.90073555  0.29763169  1
  Sc  Sc94  1  0.09033428  0.30326793  0.29048504  1
  Sc  Sc95  1  0.70239005  0.09266824  0.49756979  1
  Sc  Sc96  1  0.89650885  0.30288447  0.11092681  1
  Sc  Sc97  1  0.89741599  0.09357948  0.51687583  1
  Sc  Sc98  1  0.50133858  0.10958033  0.89830341  1
  Sc  Sc99  1  0.70281413  0.90142311  0.30312933  1
  Nb  Nb100  1  0.50600164  0.49990574  0.69991087  1
  Nb  Nb101  1  0.88851684  0.29161668  0.30264239  1
  Nb  Nb102  1  0.70713570  0.09372939  0.90762080  1
  Nb  Nb103  1  0.50674557  0.70071279  0.90232677  1
  Nb  Nb104  1  0.29254161  0.88904730  0.50312959  1
  Nb  Nb105  1  0.90150157  0.10173083  0.29971944  1
  Nb  Nb106  1  0.70113383  0.29972275  0.49775098  1
  Nb  Nb107  1  0.10074746  0.29310264  0.50265852  1
  Nb  Nb108  1  0.30426759  0.69795286  0.29801656  1
  Nb  Nb109  1  0.70952947  0.29799612  0.30891389  1
  Nb  Nb110  1  0.09697179  0.10006325  0.50040021  1
  Nb  Nb111  1  0.69878286  0.30700732  0.69812821  1
  Nb  Nb112  1  0.49485459  0.29759236  0.89920442  1
  Nb  Nb113  1  0.90088565  0.29624703  0.89292033  1
  Nb  Nb114  1  0.68774476  0.49551023  0.70176451  1
  Nb  Nb115  1  0.10399680  0.90210278  0.49158192  1
  Nb  Nb116  1  0.89432560  0.10458175  0.90348840  1
  Nb  Nb117  1  0.29293907  0.10107307  0.30343480  1
  Nb  Nb118  1  0.29834684  0.70957373  0.49966062  1
  Nb  Nb119  1  0.90700770  0.69892615  0.09656779  1
  Nb  Nb120  1  0.09152666  0.70210350  0.10301629  1
  Nb  Nb121  1  0.50441046  0.90298229  0.09438642  1
  Nb  Nb122  1  0.90362445  0.90206727  0.50364351  1
  Nb  Nb123  1  0.49115252  0.89952483  0.50256097  1
  Nb  Nb124  1  0.89675929  0.49161130  0.89859499  1
  Nb  Nb125  1  0.60294318  0.60584176  -0.00373515  1
  Nb  Nb126  1  0.19129509  0.19745570  0.40250322  1
  Nb  Nb127  1  0.40746714  0.39985873  0.80031109  1
  Nb  Nb128  1  0.20527344  0.60489738  0.59058507  1
  Nb  Nb129  1  0.19814271  -0.00624876  0.59173335  1
  Nb  Nb130  1  0.60535643  0.20857488  0.59787265  1
  Nb  Nb131  1  0.00171323  0.00599622  0.40284600  1
  Nb  Nb132  1  0.60910311  0.39451304  0.39767507  1
  Nb  Nb133  1  0.60940903  0.00367782  0.80377586  1
  Nb  Nb134  1  0.39776023  0.39816335  0.19683637  1
  Nb  Nb135  1  0.40266371  -0.00268670  0.00271878  1
  Nb  Nb136  1  0.20466979  0.40702331  0.19824027  1
  Nb  Nb137  1  0.19682329  0.60595446  0.20245487  1
  Nb  Nb138  1  0.79671274  0.00311441  0.80761543  1
  Nb  Nb139  1  0.80687130  0.79252598  0.00597618  1
  Nb  Nb140  1  0.19830635  0.78903094  0.19851634  1
  Nb  Nb141  1  -0.00190842  0.19480093  0.39936368  1
  Nb  Nb142  1  -0.00523631  0.20037124  -0.00579161  1
  Nb  Nb143  1  -0.00026093  0.00945769  -0.00000210  1
  Nb  Nb144  1  0.79166121  0.40158425  0.60667238  1
  Nb  Nb145  1  0.40558796  0.40630023  0.60882540  1
  Nb  Nb146  1  0.39909595  0.59997112  0.59911388  1
  Nb  Nb147  1  0.20298283  0.60848331  0.40042653  1
  Nb  Nb148  1  -0.00940874  0.39557804  -0.00897201  1
  Nb  Nb149  1  0.79756409  0.39765000  0.79689310  1
  Pd  Pd150  1  0.60080644  0.00965393  0.60659254  1
  Pd  Pd151  1  0.80439870  0.79891415  0.19770556  1
  Pd  Pd152  1  0.20668346  0.18748521  0.59718226  1
  Pd  Pd153  1  0.39408430  -0.00648266  0.40653555  1
  Pd  Pd154  1  0.41137548  0.79270564  0.60295024  1
  Pd  Pd155  1  0.39000903  -0.00714124  0.19535326  1
  Pd  Pd156  1  0.80030348  0.39796406  0.20090112  1
  Pd  Pd157  1  0.60484355  0.19050633  0.20659934  1
  Pd  Pd158  1  0.39320791  0.81050681  0.20248589  1
  Pd  Pd159  1  -0.00034582  -0.00486133  0.20001699  1
  Pd  Pd160  1  0.60988761  0.18979434  0.79541017  1
  Pd  Pd161  1  0.79882518  0.59354358  0.78709408  1
  Pd  Pd162  1  0.00338505  0.59109898  -0.00965679  1
  Pd  Pd163  1  0.00089245  0.39115429  0.39823837  1
  Pd  Pd164  1  0.19093453  0.60171287  0.00720077  1
  Pd  Pd165  1  0.59345301  0.79565000  0.60095001  1
  Pd  Pd166  1  0.60211931  0.00061768  0.20910415  1
  Pd  Pd167  1  0.40218054  0.40143016  -0.00356362  1
  Pd  Pd168  1  0.80198367  0.80865855  0.80991436  1
  Pd  Pd169  1  0.79256815  0.20004197  0.79811677  1
  Pd  Pd170  1  0.59729140  0.39407985  0.58934891  1
  Pd  Pd171  1  0.20382143  0.78514186  0.00380797  1
  Pd  Pd172  1  0.80338922  0.59493597  0.60792329  1
  Pd  Pd173  1  0.59129257  0.60668814  0.19198494  1
  Pd  Pd174  1  0.80302871  0.80356707  0.40365894  1
  Pd  Pd175  1  0.60298780  0.39901549  0.81448407  1
  Pd  Pd176  1  0.18928680  0.80284307  0.61062636  1
  Pd  Pd177  1  0.80135907  0.21068952  0.00801733  1
  Pd  Pd178  1  0.79544402  0.41123478  0.40572899  1
  Pd  Pd179  1  0.20307620  0.01042728  -0.00017397  1
  Pd  Pd180  1  0.39163432  0.18851401  -0.00518880  1
  Pd  Pd181  1  -0.00123256  0.59740000  0.20403868  1
  Pd  Pd182  1  0.39059881  0.20878739  0.20531581  1
  Pd  Pd183  1  0.20876317  -0.01284920  0.19505736  1
  Pd  Pd184  1  0.01113624  0.59445202  0.58848820  1
  Pd  Pd185  1  0.59997497  0.40442157  -0.00684618  1
  Pd  Pd186  1  0.79966492  0.20559564  0.60015966  1
  Pd  Pd187  1  0.60103078  0.19675648  0.40427639  1
  Pd  Pd188  1  0.59794815  -0.00545119  0.39963807  1
  Pd  Pd189  1  0.19628699  0.79999047  0.79372491  1
  Pd  Pd190  1  0.60711956  0.60017794  0.39380436  1
  Pd  Pd191  1  0.80833058  0.18761590  0.41154755  1
  Pd  Pd192  1  -0.00686245  0.80490239  -0.00465357  1
  Pd  Pd193  1  -0.00403199  0.20302563  0.19841836  1
  Pd  Pd194  1  0.79996648  0.38521807  -0.00452219  1
  Pd  Pd195  1  0.59276276  0.39732253  0.20991985  1
  Pd  Pd196  1  -0.00994554  0.40034958  0.60201582  1
  Pd  Pd197  1  0.59219087  0.61387992  0.60535362  1
  Pd  Pd198  1  0.59903643  0.80918581  0.39685688  1
  Pd  Pd199  1  -0.00421205  0.80461238  0.20782948  1
  Rh  Rh200  1  0.40013275  0.59335090  0.19049895  1
  Rh  Rh201  1  0.00712303  0.59833387  0.40525198  1
  Rh  Rh202  1  0.41704821  0.60569415  0.00268175  1
  Rh  Rh203  1  0.39917171  0.80544756  0.39732138  1
  Rh  Rh204  1  -0.00623093  0.20542932  0.59353716  1
  Rh  Rh205  1  0.18649633  0.39165359  0.38886024  1
  Rh  Rh206  1  -0.00427829  0.00503929  0.81130111  1
  Rh  Rh207  1  0.20132929  0.01039224  0.40905961  1
  Rh  Rh208  1  0.58638894  0.00861057  -0.00621487  1
  Rh  Rh209  1  0.39176972  0.19701770  0.39677560  1
  Rh  Rh210  1  0.20425356  0.79108348  0.38774192  1
  Rh  Rh211  1  0.21048809  0.40717169  0.60721704  1
  Rh  Rh212  1  0.19661140  0.60703918  0.79532157  1
  Rh  Rh213  1  0.39325785  -0.00525076  0.59027333  1
  Rh  Rh214  1  -0.01223321  0.81247274  0.39886388  1
  Rh  Rh215  1  0.19532652  -0.00245758  0.78362825  1
  Rh  Rh216  1  -0.00410669  0.40303435  0.19203597  1
  Rh  Rh217  1  0.61251002  0.78834027  0.00759270  1
  Rh  Rh218  1  0.39186263  0.61082979  0.40925737  1
  Rh  Rh219  1  -0.00318991  0.79524214  0.80589860  1
  Rh  Rh220  1  0.00704305  0.19957507  0.80513646  1
  Rh  Rh221  1  -0.00534366  0.39837279  0.80057948  1
  Rh  Rh222  1  0.00124391  0.59692648  0.80463431  1
  Rh  Rh223  1  0.79301833  0.19647174  0.19628423  1
  Rh  Rh224  1  0.41614413  -0.00501868  0.81533143  1
  Rh  Rh225  1  0.60631800  0.60309116  0.80207123  1
  Rh  Rh226  1  0.79741063  0.60110836  0.39812859  1
  Rh  Rh227  1  0.21243455  0.39545039  0.79658500  1
  Rh  Rh228  1  0.79531123  -0.00568479  0.60687519  1
  Rh  Rh229  1  0.59789133  0.19494746  0.00068287  1
  Rh  Rh230  1  0.79305546  0.61311840  0.00279074  1
  Rh  Rh231  1  0.80739467  0.60477233  0.20190869  1
  Rh  Rh232  1  0.20655037  0.21434022  0.21362389  1
  Rh  Rh233  1  0.60344118  0.80756165  0.79991428  1
  Rh  Rh234  1  0.00110388  0.80600154  0.59638885  1
  Rh  Rh235  1  0.41686803  0.39205502  0.39034970  1
  Rh  Rh236  1  0.40672746  0.20505499  0.60379518  1
  Rh  Rh237  1  0.79367469  0.00070416  0.20307222  1
  Rh  Rh238  1  0.40310550  0.59657466  0.79462618  1
  Rh  Rh239  1  0.18782927  0.40803972  0.00272919  1
  Rh  Rh240  1  0.19372057  0.19492341  -0.00805964  1
  Rh  Rh241  1  0.80520308  0.80136804  0.59159626  1
  Rh  Rh242  1  0.40175028  0.80398041  -0.00805928  1
  Rh  Rh243  1  0.81136086  -0.01446839  -0.00379282  1
  Rh  Rh244  1  0.20006720  0.19926781  0.79233597  1
  Rh  Rh245  1  0.40745756  0.80301924  0.80569380  1
  Rh  Rh246  1  0.80958683  -0.00026947  0.40470265  1
  Rh  Rh247  1  0.00914130  -0.00876641  0.59273583  1
  Rh  Rh248  1  0.39485402  0.20721993  0.80420373  1
  Rh  Rh249  1  0.59832615  0.80461199  0.20285973  1
