# generated using pymatgen
data_ZrScNbPdRh
_symmetry_space_group_name_H-M   'P 1'
_cell_length_a   16.56480866
_cell_length_b   16.56229265
_cell_length_c   16.56323478
_cell_angle_alpha   90.01418526
_cell_angle_beta   90.01400928
_cell_angle_gamma   89.98298080
_symmetry_Int_Tables_number   1
_chemical_formula_structural   ZrScNbPdRh
_chemical_formula_sum   'Zr50 Sc50 Nb50 Pd50 Rh50'
_cell_volume   4544.14300397
_cell_formula_units_Z   50
loop_
 _symmetry_equiv_pos_site_id
 _symmetry_equiv_pos_as_xyz
  1  'x, y, z'
loop_
 _atom_site_type_symbol
 _atom_site_label
 _atom_site_symmetry_multiplicity
 _atom_site_fract_x
 _atom_site_fract_y
 _atom_site_fract_z
 _atom_site_occupancy
  Zr  Zr0  1  0.49878715  0.30871592  0.50413851  1
  Zr  Zr1  1  0.10571177  0.30091766  0.89774153  1
  Zr  Zr2  1  0.70148451  0.50310040  0.69645691  1
  Zr  Zr3  1  0.29815938  0.89388107  0.89845008  1
  Zr  Zr4  1  0.68694754  0.30146854  0.90015302  1
  Zr  Zr5  1  0.89885684  0.29986247  0.10558754  1
  Zr  Zr6  1  0.10072101  0.50243238  0.50401751  1
  Zr  Zr7  1  0.10130902  0.89692207  0.09758061  1
  Zr  Zr8  1  0.89861456  0.90149158  0.09316091  1
  Zr  Zr9  1  0.10247034  0.89090162  0.50236168  1
  Zr  Zr10  1  0.49962993  0.30125352  0.71254057  1
  Zr  Zr11  1  0.90405043  0.50398969  0.69585825  1
  Zr  Zr12  1  0.70454615  0.70370938  0.30045651  1
  Zr  Zr13  1  0.89400922  0.69992004  0.30539141  1
  Zr  Zr14  1  0.89998849  0.10096936  0.29896753  1
  Zr  Zr15  1  0.10019197  0.29905396  0.70485006  1
  Zr  Zr16  1  0.10738821  0.70506603  0.69701582  1
  Zr  Zr17  1  0.28760547  0.10103227  0.30302365  1
  Zr  Zr18  1  0.10136379  0.50481248  0.08648373  1
  Zr  Zr19  1  0.90344861  0.49542665  0.10027597  1
  Zr  Zr20  1  0.69415365  0.89825276  0.51017789  1
  Zr  Zr21  1  0.49579996  0.89531201  0.30441257  1
  Zr  Zr22  1  0.89491812  0.10904315  0.50556221  1
  Zr  Zr23  1  0.30193814  0.50363520  0.70373868  1
  Zr  Zr24  1  0.09992225  0.69999086  0.30280114  1
  Zr  Zr25  1  0.30340016  0.90272682  0.50475453  1
  Zr  Zr26  1  0.30368644  0.50349711  0.29717158  1
  Zr  Zr27  1  0.09495737  0.10490691  0.70163365  1
  Zr  Zr28  1  0.89268458  0.90308560  0.49556576  1
  Zr  Zr29  1  0.29819586  0.10164624  0.50414043  1
  Zr  Zr30  1  0.09675791  0.89850166  0.70029815  1
  Zr  Zr31  1  0.90432440  0.28856394  0.69495519  1
  Zr  Zr32  1  0.49336228  0.70063778  0.89891581  1
  Zr  Zr33  1  0.70141062  0.09675902  0.10000640  1
  Zr  Zr34  1  0.70415321  0.30483706  0.10124216  1
  Zr  Zr35  1  0.49839984  0.30348993  0.09015293  1
  Zr  Zr36  1  0.30643781  0.48828673  0.49931330  1
  Zr  Zr37  1  0.90378226  0.51351723  0.49999388  1
  Zr  Zr38  1  0.50091999  0.48504753  0.90221803  1
  Zr  Zr39  1  0.10212433  0.10364913  0.89426470  1
  Zr  Zr40  1  0.50985204  0.29065704  0.30083725  1
  Zr  Zr41  1  0.50271022  0.89791906  0.50095278  1
  Zr  Zr42  1  0.89379517  0.89677338  0.29746652  1
  Zr  Zr43  1  0.49988527  0.50417441  0.50166368  1
  Zr  Zr44  1  0.09919533  0.29043609  0.29452785  1
  Zr  Zr45  1  0.69247622  0.50752588  0.50022534  1
  Zr  Zr46  1  0.50231792  0.90262458  0.69465909  1
  Zr  Zr47  1  0.49986565  0.10353935  0.90372643  1
  Zr  Zr48  1  0.09981719  0.49481574  0.29320604  1
  Zr  Zr49  1  0.30120327  0.69319833  0.09399570  1
  Sc  Sc50  1  0.70302023  0.89911257  0.31012068  1
  Sc  Sc51  1  0.89969555  0.90417131  0.69953976  1
  Sc  Sc52  1  0.49426092  0.70092647  0.30285823  1
  Sc  Sc53  1  0.10357719  0.50173504  0.70302735  1
  Sc  Sc54  1  0.09180547  0.89895146  0.89307508  1
  Sc  Sc55  1  0.70139465  0.09188459  0.49612326  1
  Sc  Sc56  1  0.29651403  0.50069124  0.90392318  1
  Sc  Sc57  1  0.10905523  0.11188764  0.49250927  1
  Sc  Sc58  1  0.29239548  0.88840488  0.70701798  1
  Sc  Sc59  1  0.90284695  0.29602410  0.89025522  1
  Sc  Sc60  1  0.29766830  0.69531129  0.50601254  1
  Sc  Sc61  1  0.09846881  0.10447788  0.10526822  1
  Sc  Sc62  1  0.70594180  0.29568797  0.71552153  1
  Sc  Sc63  1  0.48114965  0.50391963  0.09721128  1
  Sc  Sc64  1  0.69454076  0.10559491  0.30658495  1
  Sc  Sc65  1  0.30273009  0.10955061  0.09777958  1
  Sc  Sc66  1  0.49982981  0.08456936  0.50538223  1
  Sc  Sc67  1  0.09775101  0.69504888  0.90382858  1
  Sc  Sc68  1  0.49478507  0.10606376  0.09265577  1
  Sc  Sc69  1  0.29628893  0.30360752  0.29477836  1
  Sc  Sc70  1  0.29718463  0.49907054  0.09615434  1
  Sc  Sc71  1  0.11085194  0.90033865  0.29687875  1
  Sc  Sc72  1  0.89792257  0.50524237  0.29874050  1
  Sc  Sc73  1  0.90341871  0.09438659  0.10372730  1
  Sc  Sc74  1  0.29668273  0.89124202  0.10653280  1
  Sc  Sc75  1  0.09525878  0.30139864  0.09769235  1
  Sc  Sc76  1  0.70289749  0.50901576  0.30351353  1
  Sc  Sc77  1  0.69753127  0.10064420  0.89103633  1
  Sc  Sc78  1  0.69601575  0.91215125  0.90331458  1
  Sc  Sc79  1  0.89963594  0.09050514  0.89329720  1
  Sc  Sc80  1  0.09293573  0.70045237  0.50354845  1
  Sc  Sc81  1  0.69142979  0.29444622  0.48999925  1
  Sc  Sc82  1  0.10694921  0.29805521  0.50688011  1
  Sc  Sc83  1  0.30343119  0.10477521  0.70068972  1
  Sc  Sc84  1  0.49687454  0.50939624  0.30950737  1
  Sc  Sc85  1  0.71285026  0.49526884  0.09459496  1
  Sc  Sc86  1  0.29645375  0.89570979  0.30395900  1
  Sc  Sc87  1  0.49780238  0.09939793  0.70212206  1
  Sc  Sc88  1  0.30100337  0.30233483  0.09745979  1
  Sc  Sc89  1  0.90942707  0.50932212  0.90309786  1
  Sc  Sc90  1  0.70323626  0.29495394  0.29378904  1
  Sc  Sc91  1  0.89989026  0.29795577  0.29115330  1
  Sc  Sc92  1  0.70118306  0.70424972  0.90785608  1
  Sc  Sc93  1  0.30533587  0.70102114  0.29157786  1
  Sc  Sc94  1  0.10574375  0.50037819  0.89677480  1
  Sc  Sc95  1  0.30650242  0.30093720  0.69723440  1
  Sc  Sc96  1  0.69830345  0.89323619  0.10138066  1
  Sc  Sc97  1  0.90155530  0.70293494  0.50241742  1
  Sc  Sc98  1  0.30371008  0.30282020  0.89572898  1
  Sc  Sc99  1  0.70197181  0.49121243  0.89924834  1
  Nb  Nb100  1  0.89690655  0.70651182  0.89970966  1
  Nb  Nb101  1  0.50015919  0.90487255  0.90424742  1
  Nb  Nb102  1  0.49521275  0.69775163  0.70468641  1
  Nb  Nb103  1  0.69864829  0.90031129  0.69939902  1
  Nb  Nb104  1  0.69847217  0.69892322  0.10183982  1
  Nb  Nb105  1  0.50492195  0.69830595  0.50114753  1
  Nb  Nb106  1  0.49953864  0.09807465  0.30265846  1
  Nb  Nb107  1  0.30309704  0.09772243  0.90272288  1
  Nb  Nb108  1  0.89842851  0.69891885  0.69842862  1
  Nb  Nb109  1  0.89858140  0.89566556  0.89589156  1
  Nb  Nb110  1  0.10142413  0.09896344  0.30243921  1
  Nb  Nb111  1  0.30356066  0.29505328  0.50003935  1
  Nb  Nb112  1  0.30163416  0.70111364  0.88899973  1
  Nb  Nb113  1  0.30524866  0.70159302  0.71415430  1
  Nb  Nb114  1  0.50015651  0.49712586  0.69779837  1
  Nb  Nb115  1  0.69986960  0.70471210  0.69617854  1
  Nb  Nb116  1  0.50047207  0.90012283  0.09892164  1
  Nb  Nb117  1  0.10112813  0.69990428  0.10056819  1
  Nb  Nb118  1  0.89327170  0.69901503  0.09245525  1
  Nb  Nb119  1  0.71148468  0.09447630  0.70042883  1
  Nb  Nb120  1  0.49962784  0.70617454  0.10085778  1
  Nb  Nb121  1  0.90211713  0.30290321  0.50100553  1
  Nb  Nb122  1  0.69605905  0.69840208  0.50643002  1
  Nb  Nb123  1  0.89419620  0.10107300  0.69832074  1
  Nb  Nb124  1  0.50289641  0.29764599  0.89748295  1
  Nb  Nb125  1  0.60284718  0.19645984  0.60673861  1
  Nb  Nb126  1  0.20230455  0.00276772  -0.00538064  1
  Nb  Nb127  1  0.79926189  0.20129935  -0.00091623  1
  Nb  Nb128  1  0.39913277  -0.00299550  0.80972111  1
  Nb  Nb129  1  0.00386025  0.00404944  0.39990605  1
  Nb  Nb130  1  -0.00296855  0.39706454  0.40282033  1
  Nb  Nb131  1  0.58958857  -0.00120678  0.20137172  1
  Nb  Nb132  1  0.79749747  0.80024446  0.79829819  1
  Nb  Nb133  1  0.19456455  0.00014328  0.60180983  1
  Nb  Nb134  1  0.59974920  0.60347735  0.18983247  1
  Nb  Nb135  1  -0.00167602  0.60849888  0.19121829  1
  Nb  Nb136  1  0.59771647  0.40856599  0.19691204  1
  Nb  Nb137  1  0.80643223  0.40059678  0.40750297  1
  Nb  Nb138  1  0.80277430  0.39759709  0.59343477  1
  Nb  Nb139  1  0.79925043  0.61102718  0.79727148  1
  Nb  Nb140  1  0.60196445  0.79936404  0.79503970  1
  Nb  Nb141  1  0.59792434  0.60302061  0.00443296  1
  Nb  Nb142  1  -0.00332230  0.79294738  0.19213691  1
  Nb  Nb143  1  0.39932976  0.19900999  0.40262637  1
  Nb  Nb144  1  0.00094516  0.00624351  0.59482473  1
  Nb  Nb145  1  0.59989563  0.60355971  0.79913844  1
  Nb  Nb146  1  0.40429215  0.80091130  -0.00149988  1
  Nb  Nb147  1  0.20133840  0.59269091  0.39910028  1
  Nb  Nb148  1  0.40473069  -0.00002382  0.20157868  1
  Nb  Nb149  1  0.40501484  0.79054833  0.60721460  1
  Pd  Pd150  1  0.59576447  0.00066080  0.79609913  1
  Pd  Pd151  1  0.80038809  0.20590089  0.39763578  1
  Pd  Pd152  1  0.79985278  0.59866679  0.19581653  1
  Pd  Pd153  1  0.60557194  0.19673784  0.00295162  1
  Pd  Pd154  1  0.39705818  0.19594556  0.20682988  1
  Pd  Pd155  1  -0.00425422  0.79506342  0.79661166  1
  Pd  Pd156  1  0.59357082  0.60461079  0.60782928  1
  Pd  Pd157  1  0.00760131  0.00368118  -0.00526804  1
  Pd  Pd158  1  0.20422581  0.39601459  0.60669697  1
  Pd  Pd159  1  -0.00040883  0.20301256  0.40117320  1
  Pd  Pd160  1  0.59858869  0.19727808  0.19091514  1
  Pd  Pd161  1  0.20370984  0.60142972  0.59916133  1
  Pd  Pd162  1  0.59978280  0.80119827  0.20598776  1
  Pd  Pd163  1  0.19372321  0.39719341  0.40074793  1
  Pd  Pd164  1  0.60821951  0.40372396  0.38793622  1
  Pd  Pd165  1  0.80918395  0.40691563  0.79735186  1
  Pd  Pd166  1  0.78629182  0.20884799  0.59823093  1
  Pd  Pd167  1  0.00488928  -0.00783176  0.20757044  1
  Pd  Pd168  1  0.41109489  0.19954745  0.59583351  1
  Pd  Pd169  1  0.79916979  0.00442600  -0.00479582  1
  Pd  Pd170  1  0.39446093  0.79085106  0.41078256  1
  Pd  Pd171  1  0.78700321  -0.00064045  0.20670616  1
  Pd  Pd172  1  0.60336302  0.79602030  0.40081531  1
  Pd  Pd173  1  -0.00099136  0.40373482  0.80232200  1
  Pd  Pd174  1  0.20603650  0.00110004  0.79849814  1
  Pd  Pd175  1  0.80520942  0.80121248  0.60231478  1
  Pd  Pd176  1  0.59742864  0.79929308  -0.00597623  1
  Pd  Pd177  1  0.40493241  0.58656221  0.80701854  1
  Pd  Pd178  1  0.40810811  0.39971051  0.20613618  1
  Pd  Pd179  1  0.00002352  0.79599024  0.00089684  1
  Pd  Pd180  1  0.81068931  0.39246130  -0.01372404  1
  Pd  Pd181  1  0.19832902  0.60120413  0.20140055  1
  Pd  Pd182  1  0.00084442  0.60573660  0.79811109  1
  Pd  Pd183  1  0.79558862  0.59722597  -0.00825735  1
  Pd  Pd184  1  0.39857944  0.60304585  0.59893469  1
  Pd  Pd185  1  0.39107104  -0.00707441  0.00572314  1
  Pd  Pd186  1  0.00025350  0.80856807  0.39264984  1
  Pd  Pd187  1  0.19795569  0.39644433  0.18826485  1
  Pd  Pd188  1  0.61095471  0.38730289  0.60914833  1
  Pd  Pd189  1  0.20208753  0.79928163  -0.00575116  1
  Pd  Pd190  1  -0.00861569  0.19595039  -0.00218161  1
  Pd  Pd191  1  0.79401287  0.80666991  -0.00426764  1
  Pd  Pd192  1  0.21163925  0.20376778  0.79664622  1
  Pd  Pd193  1  -0.00112324  0.39635421  -0.00854994  1
  Pd  Pd194  1  0.20792929  0.78915338  0.40162968  1
  Pd  Pd195  1  0.40299049  0.39148762  0.39031538  1
  Pd  Pd196  1  -0.00039966  0.39927782  0.59797750  1
  Pd  Pd197  1  0.39470414  0.00506618  0.39276981  1
  Pd  Pd198  1  0.20804679  0.00460012  0.18868193  1
  Pd  Pd199  1  0.20199554  0.19934812  0.00182963  1
  Rh  Rh200  1  0.01082113  0.59163992  0.39080229  1
  Rh  Rh201  1  0.80472358  0.80191954  0.19195394  1
  Rh  Rh202  1  0.19992387  0.60279927  0.80229631  1
  Rh  Rh203  1  0.59204748  0.79216897  0.60410003  1
  Rh  Rh204  1  0.80198911  -0.00246777  0.60139521  1
  Rh  Rh205  1  0.19765634  0.20100316  0.19578825  1
  Rh  Rh206  1  0.20741909  0.21096669  0.39637614  1
  Rh  Rh207  1  0.79298013  0.40604946  0.21423232  1
  Rh  Rh208  1  0.18840999  0.79272666  0.80769115  1
  Rh  Rh209  1  0.39816299  0.40263434  0.80046268  1
  Rh  Rh210  1  0.80002106  0.60035528  0.59989551  1
  Rh  Rh211  1  0.39252589  0.60367726  0.40693657  1
  Rh  Rh212  1  0.00531992  0.60801335  0.60792233  1
  Rh  Rh213  1  0.39756414  0.20945424  -0.00829191  1
  Rh  Rh214  1  -0.00103248  0.40559101  0.20224447  1
  Rh  Rh215  1  0.79410794  0.60277049  0.41037049  1
  Rh  Rh216  1  0.60302264  -0.00206812  0.39398568  1
  Rh  Rh217  1  0.00495192  0.19608617  0.59722138  1
  Rh  Rh218  1  -0.00750779  0.00251556  0.79318434  1
  Rh  Rh219  1  0.20036739  0.39684758  -0.00128056  1
  Rh  Rh220  1  0.20391549  0.60478191  -0.00695435  1
  Rh  Rh221  1  0.19200582  -0.00363182  0.40981401  1
  Rh  Rh222  1  0.59893425  0.40747312  0.79351387  1
  Rh  Rh223  1  0.60187915  0.00307242  0.00863368  1
  Rh  Rh224  1  0.80356177  0.00469307  0.39727611  1
  Rh  Rh225  1  0.79230690  0.79330554  0.41340807  1
  Rh  Rh226  1  0.40003893  0.19446783  0.80630686  1
  Rh  Rh227  1  0.59617421  0.41043443  0.01368394  1
  Rh  Rh228  1  0.40030787  0.60593031  -0.00434720  1
  Rh  Rh229  1  0.61063644  0.01096044  0.60558032  1
  Rh  Rh230  1  0.39489295  0.39474613  -0.00559892  1
  Rh  Rh231  1  0.58542845  0.18978587  0.41721465  1
  Rh  Rh232  1  0.80185759  0.19218689  0.19369383  1
  Rh  Rh233  1  -0.00514500  0.19442737  0.80303764  1
  Rh  Rh234  1  0.00040631  0.19596894  0.19816040  1
  Rh  Rh235  1  -0.00759770  0.80414622  0.60381990  1
  Rh  Rh236  1  0.38470486  -0.01129166  0.61759984  1
  Rh  Rh237  1  0.19684019  0.79422314  0.20077214  1
  Rh  Rh238  1  0.21030852  0.79907321  0.60097331  1
  Rh  Rh239  1  0.41027937  0.81074204  0.80055609  1
  Rh  Rh240  1  0.80214998  0.19509762  0.80874409  1
  Rh  Rh241  1  0.80267401  -0.00753254  0.79793432  1
  Rh  Rh242  1  -0.00274634  0.60601490  0.00239055  1
  Rh  Rh243  1  0.40598395  0.60332883  0.19880032  1
  Rh  Rh244  1  0.39995332  0.40101802  0.60636085  1
  Rh  Rh245  1  0.20116329  0.20030388  0.60601079  1
  Rh  Rh246  1  0.60012484  0.19187520  0.79253049  1
  Rh  Rh247  1  0.39940757  0.80418134  0.19343158  1
  Rh  Rh248  1  0.20355060  0.40083242  0.79691975  1
  Rh  Rh249  1  0.60039351  0.61032208  0.39384876  1
