# generated using pymatgen
data_ZrScNbPdRh
_symmetry_space_group_name_H-M   'P 1'
_cell_length_a   16.55719558
_cell_length_b   16.55919978
_cell_length_c   16.56381402
_cell_angle_alpha   90.03096872
_cell_angle_beta   89.99776622
_cell_angle_gamma   89.99614379
_symmetry_Int_Tables_number   1
_chemical_formula_structural   ZrScNbPdRh
_chemical_formula_sum   'Zr50 Sc50 Nb50 Pd50 Rh50'
_cell_volume   4541.36496677
_cell_formula_units_Z   50
loop_
 _symmetry_equiv_pos_site_id
 _symmetry_equiv_pos_as_xyz
  1  'x, y, z'
loop_
 _atom_site_type_symbol
 _atom_site_label
 _atom_site_symmetry_multiplicity
 _atom_site_fract_x
 _atom_site_fract_y
 _atom_site_fract_z
 _atom_site_occupancy
  Zr  Zr0  1  0.10536754  0.29396376  0.08871208  1
  Zr  Zr1  1  0.69817520  0.49264279  0.49918392  1
  Zr  Zr2  1  0.29795239  0.30037519  0.49870436  1
  Zr  Zr3  1  0.69586410  0.70026214  0.50387458  1
  Zr  Zr4  1  0.29698956  0.89028076  0.49910523  1
  Zr  Zr5  1  0.09257963  0.69972932  0.09651933  1
  Zr  Zr6  1  0.68799991  0.49960047  0.10106644  1
  Zr  Zr7  1  0.70078311  0.70181932  0.70209722  1
  Zr  Zr8  1  0.89611255  0.10327659  0.09652257  1
  Zr  Zr9  1  0.50570924  0.70282569  0.90545001  1
  Zr  Zr10  1  0.50276144  0.10637286  0.29451517  1
  Zr  Zr11  1  0.50568735  0.49484914  0.29333657  1
  Zr  Zr12  1  0.50264884  0.49170779  0.90816878  1
  Zr  Zr13  1  0.69372595  0.29931081  0.30339033  1
  Zr  Zr14  1  0.49755237  0.49043350  0.70367917  1
  Zr  Zr15  1  0.70576293  0.10073735  0.90563981  1
  Zr  Zr16  1  0.08792807  0.89369640  0.90273375  1
  Zr  Zr17  1  0.70611377  0.29992719  0.90010824  1
  Zr  Zr18  1  0.10275389  0.49489530  0.89853280  1
  Zr  Zr19  1  0.10008518  0.90284384  0.29283779  1
  Zr  Zr20  1  0.49947465  0.11068187  0.69800230  1
  Zr  Zr21  1  0.50051270  0.29918788  0.11081496  1
  Zr  Zr22  1  0.89232042  0.90517895  0.89779118  1
  Zr  Zr23  1  0.89391831  0.10105263  0.29676012  1
  Zr  Zr24  1  0.30488675  0.89715420  0.30091649  1
  Zr  Zr25  1  0.49509153  0.89840132  0.69912962  1
  Zr  Zr26  1  0.90139372  0.89700684  0.70299844  1
  Zr  Zr27  1  0.50679325  0.29738465  0.88993593  1
  Zr  Zr28  1  0.69249312  0.90518541  0.08965346  1
  Zr  Zr29  1  0.70607970  0.90537484  0.70210042  1
  Zr  Zr30  1  0.50401237  0.90724024  0.31110507  1
  Zr  Zr31  1  0.10339017  0.50157822  0.70128147  1
  Zr  Zr32  1  0.30380478  0.29595887  0.30009986  1
  Zr  Zr33  1  0.88831947  0.90869263  0.29995974  1
  Zr  Zr34  1  0.48812122  0.50484717  0.50758276  1
  Zr  Zr35  1  0.29768333  0.49960799  0.90865500  1
  Zr  Zr36  1  0.50464332  0.29711098  0.49671039  1
  Zr  Zr37  1  0.90034583  0.70973374  0.90322391  1
  Zr  Zr38  1  0.49797380  0.29720671  0.70182334  1
  Zr  Zr39  1  0.30370451  0.69130951  0.48968574  1
  Zr  Zr40  1  0.10010822  0.89195804  0.50495426  1
  Zr  Zr41  1  0.10304484  0.69682272  0.30333298  1
  Zr  Zr42  1  0.90277244  0.69693509  0.50912340  1
  Zr  Zr43  1  0.90238525  0.48994484  0.90350409  1
  Zr  Zr44  1  0.70443128  0.89778191  0.89668508  1
  Zr  Zr45  1  0.89426424  0.69775314  0.29288864  1
  Zr  Zr46  1  0.30517023  0.69087355  0.10347465  1
  Zr  Zr47  1  0.09207837  0.30130329  0.48517787  1
  Zr  Zr48  1  0.09382200  0.49207214  0.30567760  1
  Zr  Zr49  1  0.30283882  0.09546001  0.10393152  1
  Sc  Sc50  1  0.69735066  0.69611354  0.09696653  1
  Sc  Sc51  1  0.30277868  0.71088456  0.70276694  1
  Sc  Sc52  1  0.50616277  0.90440213  0.90784289  1
  Sc  Sc53  1  0.10689177  0.69984533  0.50443238  1
  Sc  Sc54  1  0.50344972  0.68737333  0.10562640  1
  Sc  Sc55  1  0.30322099  0.30129453  0.10135357  1
  Sc  Sc56  1  0.88937697  0.10615931  0.69544426  1
  Sc  Sc57  1  0.90722629  0.69447916  0.69787048  1
  Sc  Sc58  1  0.70276569  0.49506313  0.69457835  1
  Sc  Sc59  1  0.91059333  0.90289045  0.09608682  1
  Sc  Sc60  1  0.49092546  0.69569232  0.29682956  1
  Sc  Sc61  1  0.30181183  0.09882125  0.88907371  1
  Sc  Sc62  1  0.89725898  0.11299237  0.50006737  1
  Sc  Sc63  1  0.30796860  0.50573410  0.31377917  1
  Sc  Sc64  1  0.50249871  0.09893114  0.89851700  1
  Sc  Sc65  1  0.89006984  0.90302434  0.49648945  1
  Sc  Sc66  1  0.69751763  0.10467703  0.68804595  1
  Sc  Sc67  1  0.09655192  0.70383004  0.69966308  1
  Sc  Sc68  1  0.30607580  0.90518486  0.89054757  1
  Sc  Sc69  1  0.10790874  0.89297102  0.70090478  1
  Sc  Sc70  1  0.69371798  0.30015149  0.70107555  1
  Sc  Sc71  1  0.69245168  0.90541807  0.48761607  1
  Sc  Sc72  1  0.69982399  0.71162000  0.91009729  1
  Sc  Sc73  1  0.30741070  0.29169022  0.70013228  1
  Sc  Sc74  1  0.69774960  0.48882136  0.90854299  1
  Sc  Sc75  1  0.90312322  0.50096006  0.69514012  1
  Sc  Sc76  1  0.30668585  0.48523350  0.69807901  1
  Sc  Sc77  1  0.89908114  0.30426151  0.09121709  1
  Sc  Sc78  1  0.09998106  0.11452795  0.49975338  1
  Sc  Sc79  1  0.29550210  0.69489495  0.90278267  1
  Sc  Sc80  1  0.09672082  0.11711327  0.90328254  1
  Sc  Sc81  1  0.89591617  0.69451846  0.09762689  1
  Sc  Sc82  1  0.89548922  0.49650102  0.28822123  1
  Sc  Sc83  1  0.09851351  0.69178666  0.89855319  1
  Sc  Sc84  1  0.70013556  0.49660659  0.29399667  1
  Sc  Sc85  1  0.30272074  0.10510864  0.30307893  1
  Sc  Sc86  1  0.10314200  0.30388283  0.70088738  1
  Sc  Sc87  1  0.69090287  0.70236637  0.30159626  1
  Sc  Sc88  1  0.11613172  0.10114236  0.70100921  1
  Sc  Sc89  1  0.10684298  0.10694351  0.30028798  1
  Sc  Sc90  1  0.50134350  0.70164947  0.69079115  1
  Sc  Sc91  1  0.10404162  0.49125921  0.50179568  1
  Sc  Sc92  1  0.90511509  0.30655549  0.30501950  1
  Sc  Sc93  1  0.50406608  0.10157029  0.49946196  1
  Sc  Sc94  1  0.29518065  0.30186616  0.90247911  1
  Sc  Sc95  1  0.49772132  0.29904438  0.30050194  1
  Sc  Sc96  1  0.90105799  0.49360672  0.50913231  1
  Sc  Sc97  1  0.70007287  0.29620983  0.09618276  1
  Sc  Sc98  1  0.89058661  0.50218760  0.09769136  1
  Sc  Sc99  1  0.09284441  0.49893498  0.08739661  1
  Nb  Nb100  1  0.30216374  0.49699950  0.10057177  1
  Nb  Nb101  1  0.29671353  0.10394129  0.50604667  1
  Nb  Nb102  1  0.89798132  0.29779688  0.69907276  1
  Nb  Nb103  1  0.50432750  0.09608764  0.09505915  1
  Nb  Nb104  1  0.10404939  0.90421981  0.10136686  1
  Nb  Nb105  1  0.70742578  0.09264103  0.29225330  1
  Nb  Nb106  1  0.90100259  0.29671104  0.50458451  1
  Nb  Nb107  1  0.70002076  0.90284893  0.29964071  1
  Nb  Nb108  1  0.89971875  0.10660494  0.89620767  1
  Nb  Nb109  1  0.29717374  0.90991356  0.69801566  1
  Nb  Nb110  1  0.49538628  0.49592433  0.10466786  1
  Nb  Nb111  1  0.49685437  0.89638245  0.49822272  1
  Nb  Nb112  1  0.30061037  0.90246612  0.10195279  1
  Nb  Nb113  1  0.29368703  0.69708970  0.29998734  1
  Nb  Nb114  1  0.90736675  0.28689044  0.89698882  1
  Nb  Nb115  1  0.50292779  0.70222480  0.50128687  1
  Nb  Nb116  1  0.08942283  0.30498913  0.90304364  1
  Nb  Nb117  1  0.30489711  0.09572416  0.69540421  1
  Nb  Nb118  1  0.70460292  0.11223737  0.49849716  1
  Nb  Nb119  1  0.09978481  0.30104324  0.29837633  1
  Nb  Nb120  1  0.49328158  0.91179656  0.09933526  1
  Nb  Nb121  1  0.10285430  0.09578809  0.10340196  1
  Nb  Nb122  1  0.70478400  0.29876418  0.49571671  1
  Nb  Nb123  1  0.30230970  0.50112619  0.50733397  1
  Nb  Nb124  1  0.69680702  0.10414451  0.10648101  1
  Nb  Nb125  1  0.39405623  -0.00192334  0.59852019  1
  Nb  Nb126  1  0.19692918  -0.00311190  0.00508096  1
  Nb  Nb127  1  -0.00379553  0.00682691  0.79791677  1
  Nb  Nb128  1  0.00128624  0.00180574  0.60058226  1
  Nb  Nb129  1  0.39661491  0.80542399  0.00962090  1
  Nb  Nb130  1  0.20966113  0.59478845  0.59969620  1
  Nb  Nb131  1  -0.00567331  0.60098600  0.40081162  1
  Nb  Nb132  1  0.60143291  0.59742741  0.80277065  1
  Nb  Nb133  1  0.40544063  0.19493450  0.00356239  1
  Nb  Nb134  1  0.20072936  0.40484547  0.20054316  1
  Nb  Nb135  1  0.00325410  0.00046541  0.40338596  1
  Nb  Nb136  1  0.20482314  0.79762378  0.19559218  1
  Nb  Nb137  1  -0.00358014  0.80035953  0.39672376  1
  Nb  Nb138  1  0.79846160  0.59900309  0.40317957  1
  Nb  Nb139  1  0.60508090  0.00060902  0.79676038  1
  Nb  Nb140  1  0.19936387  0.00025550  0.40497401  1
  Nb  Nb141  1  0.79706213  0.80079197  0.59985629  1
  Nb  Nb142  1  0.79072594  0.80904957  0.20022376  1
  Nb  Nb143  1  0.59676084  0.81216538  0.20078209  1
  Nb  Nb144  1  0.20282607  0.80698438  0.00788353  1
  Nb  Nb145  1  0.00607700  0.20158270  0.19660254  1
  Nb  Nb146  1  0.59673393  0.59825306  0.40737698  1
  Nb  Nb147  1  0.40633840  0.59635957  0.80170096  1
  Nb  Nb148  1  0.20181954  0.59534328  0.20064284  1
  Nb  Nb149  1  0.79612533  0.59918850  0.80480423  1
  Pd  Pd150  1  0.00523129  0.01113120  -0.00798490  1
  Pd  Pd151  1  0.60576470  0.81238521  0.59641937  1
  Pd  Pd152  1  0.40047156  0.00475484  0.20654784  1
  Pd  Pd153  1  0.21179362  0.19115202  -0.00380420  1
  Pd  Pd154  1  0.80567985  0.21206259  0.19982626  1
  Pd  Pd155  1  0.59320851  -0.00264315  0.59921005  1
  Pd  Pd156  1  0.79402120  0.59775618  -0.00769672  1
  Pd  Pd157  1  0.20441075  0.39342651  0.79973214  1
  Pd  Pd158  1  0.80243985  0.20309342  0.39569401  1
  Pd  Pd159  1  -0.00696148  0.59955950  0.80415242  1
  Pd  Pd160  1  0.20123052  0.80087764  0.80861462  1
  Pd  Pd161  1  0.20678870  0.40230555  0.39525759  1
  Pd  Pd162  1  0.79466724  0.39280645  0.19414122  1
  Pd  Pd163  1  0.40393510  0.39925726  0.40027666  1
  Pd  Pd164  1  0.00315138  0.59195806  0.20078203  1
  Pd  Pd165  1  0.59758774  0.39472314  0.59797266  1
  Pd  Pd166  1  0.59549410  0.80236721  0.79877436  1
  Pd  Pd167  1  0.60122477  -0.00070723  0.19993388  1
  Pd  Pd168  1  0.00379069  0.19712821  0.60922702  1
  Pd  Pd169  1  0.40506437  0.80057102  0.19696444  1
  Pd  Pd170  1  0.80347340  0.40257606  0.79677093  1
  Pd  Pd171  1  0.40149602  0.79587710  0.81005230  1
  Pd  Pd172  1  0.39369839  0.01026884  0.40994311  1
  Pd  Pd173  1  0.40992736  0.00354163  0.79602392  1
  Pd  Pd174  1  0.00008618  0.00981206  0.20513977  1
  Pd  Pd175  1  0.59877505  0.59385140  0.60434426  1
  Pd  Pd176  1  0.00576443  0.39387762  0.18818061  1
  Pd  Pd177  1  0.80649631  0.40579835  0.39947933  1
  Pd  Pd178  1  0.19899532  0.20646885  0.19966210  1
  Pd  Pd179  1  0.40389977  0.38692171  -0.00038837  1
  Pd  Pd180  1  0.20233516  0.20671239  0.80218307  1
  Pd  Pd181  1  0.80070623  0.39146501  0.60305495  1
  Pd  Pd182  1  0.21260707  0.59926486  0.78946370  1
  Pd  Pd183  1  0.59575142  0.20175687  0.00040471  1
  Pd  Pd184  1  0.19765933  0.21076460  0.60117810  1
  Pd  Pd185  1  0.00385248  0.19572874  0.78706018  1
  Pd  Pd186  1  0.80118679  0.00143685  0.00480377  1
  Pd  Pd187  1  -0.00473671  0.39615583  0.79391972  1
  Pd  Pd188  1  0.19669848  0.00085879  0.59352245  1
  Pd  Pd189  1  0.60381186  0.19398101  0.39639617  1
  Pd  Pd190  1  0.60680995  0.01370723  0.40249747  1
  Pd  Pd191  1  0.18926433  -0.00113417  0.81044579  1
  Pd  Pd192  1  0.00277638  0.39512692  0.60255034  1
  Pd  Pd193  1  0.40594160  0.79212330  0.39836007  1
  Pd  Pd194  1  0.79393509  0.20000595  0.79263174  1
  Pd  Pd195  1  0.80077747  0.79264677  0.40035966  1
  Pd  Pd196  1  -0.00552227  0.80107470  0.20100927  1
  Pd  Pd197  1  0.40581347  0.60264116  -0.00315708  1
  Pd  Pd198  1  0.39582412  0.80005775  0.59786201  1
  Pd  Pd199  1  0.80323231  -0.00010819  0.59202261  1
  Rh  Rh200  1  0.39930777  0.19627697  0.59333760  1
  Rh  Rh201  1  0.58416065  0.80086953  0.01541709  1
  Rh  Rh202  1  0.79393900  -0.00462632  0.18765228  1
  Rh  Rh203  1  -0.00498084  0.59782553  -0.00700450  1
  Rh  Rh204  1  0.80710607  0.78719660  0.79196917  1
  Rh  Rh205  1  0.39453922  0.58931329  0.20477226  1
  Rh  Rh206  1  0.78844916  0.60737939  0.20385602  1
  Rh  Rh207  1  0.60252660  0.00689239  -0.00611919  1
  Rh  Rh208  1  0.79664689  0.01305492  0.40638528  1
  Rh  Rh209  1  0.60605235  0.20804046  0.59405900  1
  Rh  Rh210  1  0.39177560  0.40530323  0.20491617  1
  Rh  Rh211  1  0.60364294  0.19858083  0.20229453  1
  Rh  Rh212  1  0.59545389  0.39170128  0.00806358  1
  Rh  Rh213  1  -0.00535594  0.19759444  0.38880531  1
  Rh  Rh214  1  0.60811838  0.19100532  0.80116435  1
  Rh  Rh215  1  0.39621045  0.20053123  0.80727258  1
  Rh  Rh216  1  0.40025194  0.38664669  0.59463240  1
  Rh  Rh217  1  0.60405840  0.39377617  0.19818094  1
  Rh  Rh218  1  0.79920034  0.01379004  0.79920341  1
  Rh  Rh219  1  0.60116166  0.60256222  0.20645819  1
  Rh  Rh220  1  0.20553430  -0.00182738  0.20462142  1
  Rh  Rh221  1  0.79726146  0.60514377  0.60371378  1
  Rh  Rh222  1  -0.01030299  0.40507218  0.40401287  1
  Rh  Rh223  1  0.20247655  0.19745715  0.39920687  1
  Rh  Rh224  1  0.39342283  0.00298320  -0.00254646  1
  Rh  Rh225  1  0.40042558  0.19730084  0.40509145  1
  Rh  Rh226  1  0.80183078  0.20127975  0.00038481  1
  Rh  Rh227  1  -0.00386340  0.39742919  -0.00020852  1
  Rh  Rh228  1  -0.00876097  0.80859684  0.59573655  1
  Rh  Rh229  1  0.60702619  0.40442218  0.79873307  1
  Rh  Rh230  1  0.19393606  0.80671359  0.39062348  1
  Rh  Rh231  1  -0.00270680  0.19737449  0.00620878  1
  Rh  Rh232  1  0.40872327  0.60182571  0.39877636  1
  Rh  Rh233  1  -0.00068428  0.80162240  0.79908548  1
  Rh  Rh234  1  0.59016409  0.79374022  0.39407989  1
  Rh  Rh235  1  0.79521420  0.21202187  0.60014287  1
  Rh  Rh236  1  0.01841598  0.59287337  0.59501074  1
  Rh  Rh237  1  0.80295390  0.39369940  -0.00237886  1
  Rh  Rh238  1  0.39394403  0.40093220  0.80974089  1
  Rh  Rh239  1  0.20363084  0.39957846  0.60190722  1
  Rh  Rh240  1  0.19778942  0.40172861  0.00328389  1
  Rh  Rh241  1  0.80725337  0.80503526  0.01329566  1
  Rh  Rh242  1  0.20766834  0.78976957  0.60474188  1
  Rh  Rh243  1  0.19333660  0.59061704  0.40432358  1
  Rh  Rh244  1  0.40326753  0.19414220  0.19341122  1
  Rh  Rh245  1  0.00040596  0.79809367  0.00280358  1
  Rh  Rh246  1  0.39293981  0.60876657  0.60982599  1
  Rh  Rh247  1  0.19526864  0.60242135  0.00736792  1
  Rh  Rh248  1  0.59888987  0.59489357  -0.00273706  1
  Rh  Rh249  1  0.59632567  0.40381257  0.40202309  1
