# generated using pymatgen
data_ZrScNbPdRh
_symmetry_space_group_name_H-M   'P 1'
_cell_length_a   16.55390181
_cell_length_b   16.55217542
_cell_length_c   16.55428147
_cell_angle_alpha   90.03156564
_cell_angle_beta   89.99805838
_cell_angle_gamma   90.02644002
_symmetry_Int_Tables_number   1
_chemical_formula_structural   ZrScNbPdRh
_chemical_formula_sum   'Zr50 Sc50 Nb50 Pd50 Rh50'
_cell_volume   4535.92304779
_cell_formula_units_Z   50
loop_
 _symmetry_equiv_pos_site_id
 _symmetry_equiv_pos_as_xyz
  1  'x, y, z'
loop_
 _atom_site_type_symbol
 _atom_site_label
 _atom_site_symmetry_multiplicity
 _atom_site_fract_x
 _atom_site_fract_y
 _atom_site_fract_z
 _atom_site_occupancy
  Zr  Zr0  1  0.90035103  0.10312052  0.50715381  1
  Zr  Zr1  1  0.10510600  0.49827428  0.10454270  1
  Zr  Zr2  1  0.49887407  0.89454733  0.30026744  1
  Zr  Zr3  1  0.29791313  0.49208916  0.30275802  1
  Zr  Zr4  1  0.69516624  0.29935197  0.29752894  1
  Zr  Zr5  1  0.30786510  0.69545123  0.30586285  1
  Zr  Zr6  1  0.30008446  0.89900700  0.29155148  1
  Zr  Zr7  1  0.09747609  0.09744477  0.09626834  1
  Zr  Zr8  1  0.49211439  0.69795452  0.48824410  1
  Zr  Zr9  1  0.49618324  0.49578495  0.28185847  1
  Zr  Zr10  1  0.50841825  0.30251329  0.11021336  1
  Zr  Zr11  1  0.69753254  0.89541812  0.29345154  1
  Zr  Zr12  1  0.49634788  0.10106779  0.50705366  1
  Zr  Zr13  1  0.70409601  0.49526691  0.50676724  1
  Zr  Zr14  1  0.70897403  0.70109201  0.30363953  1
  Zr  Zr15  1  0.49874079  0.49631484  0.50969633  1
  Zr  Zr16  1  0.30249726  0.69347233  0.69766025  1
  Zr  Zr17  1  0.29229130  0.89882862  0.50345465  1
  Zr  Zr18  1  0.70418349  0.50008755  0.30686364  1
  Zr  Zr19  1  0.30581531  0.09323525  0.70485953  1
  Zr  Zr20  1  0.70245837  0.69449283  0.50041922  1
  Zr  Zr21  1  0.09580912  0.09819296  0.50589394  1
  Zr  Zr22  1  0.69482008  0.89455722  0.90392273  1
  Zr  Zr23  1  0.09864214  0.70261815  0.89453924  1
  Zr  Zr24  1  0.70124219  0.30559606  0.49997815  1
  Zr  Zr25  1  0.90093844  0.29813224  0.09597187  1
  Zr  Zr26  1  0.70777539  0.10780891  0.50175938  1
  Zr  Zr27  1  0.30009016  0.90108168  0.08746057  1
  Zr  Zr28  1  0.10188513  0.69817088  0.29524380  1
  Zr  Zr29  1  0.89831070  0.68964621  0.29946738  1
  Zr  Zr30  1  0.09415940  0.90495364  0.70486871  1
  Zr  Zr31  1  0.30108108  0.10411262  0.50227727  1
  Zr  Zr32  1  0.49399070  0.09678929  0.29439881  1
  Zr  Zr33  1  0.51479434  0.29711353  0.89846127  1
  Zr  Zr34  1  0.49883761  0.89653609  0.49672690  1
  Zr  Zr35  1  0.90120032  0.69985566  0.70779591  1
  Zr  Zr36  1  0.10048516  0.10788257  0.70408206  1
  Zr  Zr37  1  0.90436099  0.10351856  0.89855524  1
  Zr  Zr38  1  0.29159644  0.70309215  0.09357587  1
  Zr  Zr39  1  0.70947092  0.30440459  0.89730012  1
  Zr  Zr40  1  0.09140288  0.89962463  0.50322145  1
  Zr  Zr41  1  0.29771512  0.29885443  0.69867949  1
  Zr  Zr42  1  0.30351260  0.29778957  0.30266991  1
  Zr  Zr43  1  0.10118640  0.91006737  0.90113275  1
  Zr  Zr44  1  0.69780642  0.70713050  0.09535269  1
  Zr  Zr45  1  0.70675756  0.89363380  0.49889627  1
  Zr  Zr46  1  0.10299801  0.70113431  0.50540736  1
  Zr  Zr47  1  0.49682364  0.29859456  0.50213172  1
  Zr  Zr48  1  0.50990143  0.90292072  0.10242387  1
  Zr  Zr49  1  0.49725351  0.10658439  0.89542515  1
  Sc  Sc50  1  0.09772327  0.09703568  0.28870997  1
  Sc  Sc51  1  0.69881192  0.51255110  0.09146882  1
  Sc  Sc52  1  0.89858018  0.29390288  0.29633921  1
  Sc  Sc53  1  0.50673876  0.50385595  0.70200971  1
  Sc  Sc54  1  0.30134780  0.50398380  0.10200284  1
  Sc  Sc55  1  0.69904294  0.49971407  0.90288084  1
  Sc  Sc56  1  0.89767753  0.30201785  0.50379198  1
  Sc  Sc57  1  0.10227920  0.30454512  0.28832355  1
  Sc  Sc58  1  0.29987561  0.49960955  0.90487783  1
  Sc  Sc59  1  0.10048552  0.09946535  0.89671453  1
  Sc  Sc60  1  0.29667780  0.29113685  0.91046573  1
  Sc  Sc61  1  0.49666021  0.69505141  0.89514238  1
  Sc  Sc62  1  0.89807076  0.50376168  0.70007943  1
  Sc  Sc63  1  0.89633524  0.50242232  0.09823453  1
  Sc  Sc64  1  0.09746712  0.31071707  0.51113722  1
  Sc  Sc65  1  0.69556907  0.11425489  0.89920143  1
  Sc  Sc66  1  0.89950024  0.30325322  0.70439004  1
  Sc  Sc67  1  0.88896984  0.69215843  0.10369649  1
  Sc  Sc68  1  0.90458156  0.89762090  0.30305983  1
  Sc  Sc69  1  0.70290810  0.28754615  0.10050253  1
  Sc  Sc70  1  0.89419430  0.49736323  0.90043733  1
  Sc  Sc71  1  0.90426039  0.10682388  0.69588164  1
  Sc  Sc72  1  0.09592233  0.49583434  0.90012172  1
  Sc  Sc73  1  0.09187880  0.69656765  0.69607143  1
  Sc  Sc74  1  0.48801955  0.90423554  0.70360347  1
  Sc  Sc75  1  0.89693060  0.30503747  0.90316384  1
  Sc  Sc76  1  0.89510084  0.69870497  0.89559242  1
  Sc  Sc77  1  0.50448943  0.09231232  0.09636815  1
  Sc  Sc78  1  0.70713953  0.10771206  0.28996946  1
  Sc  Sc79  1  0.09870291  0.29567191  0.09884754  1
  Sc  Sc80  1  0.70635655  0.89071166  0.70052298  1
  Sc  Sc81  1  0.30307223  0.31389459  0.50056760  1
  Sc  Sc82  1  0.49537684  0.89488486  0.90411213  1
  Sc  Sc83  1  0.70022218  0.69204956  0.70127832  1
  Sc  Sc84  1  0.70156209  0.70259065  0.89902560  1
  Sc  Sc85  1  0.90353162  0.10259522  0.11082297  1
  Sc  Sc86  1  0.70377664  0.30550085  0.70002513  1
  Sc  Sc87  1  0.28444223  0.30162784  0.09804286  1
  Sc  Sc88  1  0.70909021  0.11333451  0.69710490  1
  Sc  Sc89  1  0.31083106  0.50147804  0.68861462  1
  Sc  Sc90  1  0.90435432  0.89377806  0.89047999  1
  Sc  Sc91  1  0.29387990  0.09707935  0.29313085  1
  Sc  Sc92  1  0.70148780  0.50038963  0.69304505  1
  Sc  Sc93  1  0.08873438  0.49869586  0.29932107  1
  Sc  Sc94  1  0.89876438  0.70458534  0.49796152  1
  Sc  Sc95  1  0.09854324  0.29815244  0.90850709  1
  Sc  Sc96  1  0.10389047  0.90246924  0.30193442  1
  Sc  Sc97  1  0.50022493  0.69669037  0.29886878  1
  Sc  Sc98  1  0.90069216  0.90697231  0.10470552  1
  Sc  Sc99  1  0.08934902  0.50532407  0.69418074  1
  Nb  Nb100  1  0.49997392  0.50976773  0.09176580  1
  Nb  Nb101  1  0.49343242  0.68889094  0.09861582  1
  Nb  Nb102  1  0.29829040  0.89712120  0.89845060  1
  Nb  Nb103  1  0.50092159  0.10210100  0.70078485  1
  Nb  Nb104  1  0.49945860  0.29436966  0.29763795  1
  Nb  Nb105  1  0.49935439  0.29438709  0.70370086  1
  Nb  Nb106  1  0.89785164  0.90456328  0.69709102  1
  Nb  Nb107  1  0.90450323  0.50172781  0.49527328  1
  Nb  Nb108  1  0.69527694  0.90652443  0.09633978  1
  Nb  Nb109  1  0.69824964  0.08604836  0.10198335  1
  Nb  Nb110  1  0.90175475  0.10260836  0.30332053  1
  Nb  Nb111  1  0.30118481  0.69129354  0.50175683  1
  Nb  Nb112  1  0.30095423  0.10413674  0.09464511  1
  Nb  Nb113  1  0.10435296  0.69952537  0.09976290  1
  Nb  Nb114  1  0.10419531  0.30145318  0.70509725  1
  Nb  Nb115  1  0.29869961  0.90084597  0.70387992  1
  Nb  Nb116  1  0.49991543  0.69737180  0.69533134  1
  Nb  Nb117  1  0.50380137  0.49508472  0.90711444  1
  Nb  Nb118  1  0.89692067  0.50478167  0.29729874  1
  Nb  Nb119  1  0.09663086  0.50345703  0.50141138  1
  Nb  Nb120  1  0.89796140  0.90817792  0.50853545  1
  Nb  Nb121  1  0.30092366  0.50727582  0.50093460  1
  Nb  Nb122  1  0.29729995  0.70865967  0.89964380  1
  Nb  Nb123  1  0.29712749  0.09082971  0.91062914  1
  Nb  Nb124  1  0.10248590  0.89367214  0.10160104  1
  Nb  Nb125  1  0.79868514  0.40348206  0.20233040  1
  Nb  Nb126  1  0.41134140  0.40114293  0.00003201  1
  Nb  Nb127  1  0.00613168  0.79401359  0.19347131  1
  Nb  Nb128  1  0.79359471  -0.00015768  -0.00190118  1
  Nb  Nb129  1  0.80223111  0.00111867  0.40197752  1
  Nb  Nb130  1  0.00513085  0.79633626  0.00754965  1
  Nb  Nb131  1  0.60150001  0.00531278  0.79319527  1
  Nb  Nb132  1  0.79703778  0.00117378  0.80204068  1
  Nb  Nb133  1  0.39938553  0.79633337  0.19052393  1
  Nb  Nb134  1  0.39564050  0.79549514  0.60005759  1
  Nb  Nb135  1  0.59446273  0.20005472  0.39775684  1
  Nb  Nb136  1  0.00452960  0.60706439  0.00427896  1
  Nb  Nb137  1  0.19445270  0.20198713  0.40198242  1
  Nb  Nb138  1  0.39757293  0.19976604  0.19549490  1
  Nb  Nb139  1  0.20366999  0.60099973  0.79831257  1
  Nb  Nb140  1  0.59090984  0.79826333  0.60068234  1
  Nb  Nb141  1  0.60381903  0.00530216  0.40268007  1
  Nb  Nb142  1  0.40366346  0.39619592  0.80615930  1
  Nb  Nb143  1  0.20235419  0.40063443  0.79559408  1
  Nb  Nb144  1  0.39970722  -0.00110576  0.40138202  1
  Nb  Nb145  1  0.19975270  0.59517030  0.40886195  1
  Nb  Nb146  1  0.20579193  0.80122279  0.79944372  1
  Nb  Nb147  1  0.00414666  0.19863369  0.40048689  1
  Nb  Nb148  1  0.60145055  -0.00106558  0.60344028  1
  Nb  Nb149  1  0.59955663  0.59195926  0.40058760  1
  Pd  Pd150  1  0.81124326  0.80887576  0.00261878  1
  Pd  Pd151  1  0.39222080  0.39281587  0.18768116  1
  Pd  Pd152  1  0.39874836  0.79785073  0.79554457  1
  Pd  Pd153  1  0.19946050  0.20505469  0.59366561  1
  Pd  Pd154  1  0.00411803  0.40085147  0.79936627  1
  Pd  Pd155  1  0.79340672  0.59428898  0.80281114  1
  Pd  Pd156  1  -0.00427097  0.00464434  0.39683825  1
  Pd  Pd157  1  0.60230869  0.19459107  0.00793057  1
  Pd  Pd158  1  0.39159090  0.20416825  0.80503577  1
  Pd  Pd159  1  0.80414108  -0.00127837  0.20400954  1
  Pd  Pd160  1  0.40610142  -0.00113456  -0.00338571  1
  Pd  Pd161  1  -0.00313077  0.79916357  0.39584944  1
  Pd  Pd162  1  0.40842517  0.40524882  0.39941090  1
  Pd  Pd163  1  0.58881510  0.79121141  -0.00079141  1
  Pd  Pd164  1  0.60278804  0.20272621  0.60119758  1
  Pd  Pd165  1  0.20028171  0.00040741  0.18993486  1
  Pd  Pd166  1  0.39706549  0.59094368  0.80685020  1
  Pd  Pd167  1  0.59323460  0.78837314  0.19687939  1
  Pd  Pd168  1  0.20488331  0.20129799  0.80916184  1
  Pd  Pd169  1  -0.00726281  0.79953479  0.60339053  1
  Pd  Pd170  1  0.80765185  0.80513924  0.19573602  1
  Pd  Pd171  1  0.00440414  0.60242630  0.40457608  1
  Pd  Pd172  1  0.40264137  -0.00024671  0.80901432  1
  Pd  Pd173  1  0.18985874  0.40041096  0.40239669  1
  Pd  Pd174  1  -0.00985624  0.40068309  0.19812922  1
  Pd  Pd175  1  0.20398911  0.59504668  0.20886715  1
  Pd  Pd176  1  0.60332802  0.59714344  0.80408394  1
  Pd  Pd177  1  0.20208189  0.00723601  0.39935251  1
  Pd  Pd178  1  0.58949160  0.39982783  0.39800833  1
  Pd  Pd179  1  0.19850268  0.41095153  0.60726077  1
  Pd  Pd180  1  0.19635676  0.00170414  0.60637698  1
  Pd  Pd181  1  0.60666593  0.39978261  0.00945560  1
  Pd  Pd182  1  -0.00344963  0.39271470  0.39634099  1
  Pd  Pd183  1  0.39549233  0.59997772  -0.00855220  1
  Pd  Pd184  1  -0.00618452  0.40028220  0.60631834  1
  Pd  Pd185  1  0.61337497  0.40950914  0.18914772  1
  Pd  Pd186  1  0.81227390  0.39635622  0.39460262  1
  Pd  Pd187  1  0.80187180  0.18920826  0.00495597  1
  Pd  Pd188  1  0.20265560  0.79934291  0.61010889  1
  Pd  Pd189  1  -0.00143115  0.21057771  0.80374243  1
  Pd  Pd190  1  -0.00803976  -0.00458432  0.00190982  1
  Pd  Pd191  1  0.79955378  0.79142572  0.60542321  1
  Pd  Pd192  1  0.59442748  0.80454753  0.79163652  1
  Pd  Pd193  1  0.39527430  0.20500345  0.60330249  1
  Pd  Pd194  1  0.20138981  0.79382382  0.39808141  1
  Pd  Pd195  1  0.40411255  0.20942578  0.00932880  1
  Pd  Pd196  1  -0.00107752  0.40800558  0.00255437  1
  Pd  Pd197  1  0.19566787  0.59445096  -0.00867719  1
  Pd  Pd198  1  0.60157103  0.40415721  0.79368808  1
  Pd  Pd199  1  0.60659447  0.60450646  0.20402781  1
  Rh  Rh200  1  0.38490365  0.80794032  0.40043196  1
  Rh  Rh201  1  0.00089385  0.00282235  0.60860990  1
  Rh  Rh202  1  0.40115287  -0.00774832  0.59764473  1
  Rh  Rh203  1  0.80504452  0.20009593  0.79992511  1
  Rh  Rh204  1  0.59603261  0.39295441  0.60822942  1
  Rh  Rh205  1  0.80873419  0.80758215  0.39892226  1
  Rh  Rh206  1  0.20195128  0.79973863  0.20178544  1
  Rh  Rh207  1  0.60525083  0.19768311  0.79074836  1
  Rh  Rh208  1  0.60422552  0.00203741  0.20932183  1
  Rh  Rh209  1  0.20471154  0.40406423  -0.00481100  1
  Rh  Rh210  1  0.40265986  0.58546895  0.39557550  1
  Rh  Rh211  1  0.19335346  0.18994642  -0.00166989  1
  Rh  Rh212  1  0.40886110  0.60390971  0.59867701  1
  Rh  Rh213  1  0.00281924  0.80267049  0.80051430  1
  Rh  Rh214  1  0.00003515  0.19855398  -0.00071474  1
  Rh  Rh215  1  0.81067531  0.59844926  0.59770620  1
  Rh  Rh216  1  0.00093715  0.19994583  0.20527477  1
  Rh  Rh217  1  0.59511918  0.60689147  0.59254221  1
  Rh  Rh218  1  0.20032576  0.40169126  0.19932194  1
  Rh  Rh219  1  0.80232362  0.80342973  0.79628082  1
  Rh  Rh220  1  0.39374742  0.60380243  0.19710954  1
  Rh  Rh221  1  0.80330196  0.20279440  0.19619352  1
  Rh  Rh222  1  0.20445737  0.19926330  0.20221932  1
  Rh  Rh223  1  0.61006462  0.79138569  0.40269990  1
  Rh  Rh224  1  0.79904286  0.40425848  0.79902820  1
  Rh  Rh225  1  0.19795923  0.00137134  0.00226596  1
  Rh  Rh226  1  0.00370860  0.20885810  0.59965174  1
  Rh  Rh227  1  0.59950692  0.60848212  -0.00732224  1
  Rh  Rh228  1  0.80449913  0.60331373  -0.00603480  1
  Rh  Rh229  1  0.19439589  0.59262031  0.59959374  1
  Rh  Rh230  1  0.79345705  0.59239941  0.19767706  1
  Rh  Rh231  1  0.40651599  0.39592552  0.61012116  1
  Rh  Rh232  1  0.00221180  0.59574066  0.80864738  1
  Rh  Rh233  1  0.60491980  0.00595581  -0.01527593  1
  Rh  Rh234  1  -0.00241340  0.60292224  0.19085954  1
  Rh  Rh235  1  0.00214086  -0.00769505  0.20397438  1
  Rh  Rh236  1  0.80021174  0.59529659  0.40877959  1
  Rh  Rh237  1  -0.00880368  0.60256748  0.59286845  1
  Rh  Rh238  1  0.79509291  0.39962373  0.00966079  1
  Rh  Rh239  1  0.39509053  0.19244257  0.39048035  1
  Rh  Rh240  1  0.39442520  -0.00121528  0.19627482  1
  Rh  Rh241  1  0.59527135  0.18822184  0.20024291  1
  Rh  Rh242  1  -0.01038438  0.00397998  0.79420543  1
  Rh  Rh243  1  0.80401888  0.19718008  0.39814433  1
  Rh  Rh244  1  0.19335093  0.80547462  -0.00933032  1
  Rh  Rh245  1  0.80712834  0.40429098  0.60073423  1
  Rh  Rh246  1  0.80507063  0.21324293  0.60363768  1
  Rh  Rh247  1  0.40574868  0.79515860  0.00572306  1
  Rh  Rh248  1  0.20680138  -0.00109665  0.80107829  1
  Rh  Rh249  1  0.79658839  -0.00005793  0.60447886  1
