# generated using pymatgen
data_ZrScNbPdRh
_symmetry_space_group_name_H-M   'P 1'
_cell_length_a   16.55476239
_cell_length_b   16.55905064
_cell_length_c   16.55752380
_cell_angle_alpha   89.95695101
_cell_angle_beta   90.02492856
_cell_angle_gamma   89.98909380
_symmetry_Int_Tables_number   1
_chemical_formula_structural   ZrScNbPdRh
_chemical_formula_sum   'Zr50 Sc50 Nb50 Pd50 Rh50'
_cell_volume   4538.93122442
_cell_formula_units_Z   50
loop_
 _symmetry_equiv_pos_site_id
 _symmetry_equiv_pos_as_xyz
  1  'x, y, z'
loop_
 _atom_site_type_symbol
 _atom_site_label
 _atom_site_symmetry_multiplicity
 _atom_site_fract_x
 _atom_site_fract_y
 _atom_site_fract_z
 _atom_site_occupancy
  Zr  Zr0  1  0.68992846  0.70122620  0.69882002  1
  Zr  Zr1  1  0.90532947  0.30381973  0.09758497  1
  Zr  Zr2  1  0.49369448  0.90713697  0.10226758  1
  Zr  Zr3  1  0.10031338  0.68786142  0.09208183  1
  Zr  Zr4  1  0.89507088  0.10431347  0.69440487  1
  Zr  Zr5  1  0.10788334  0.50365308  0.90086212  1
  Zr  Zr6  1  0.89594803  0.70234893  0.49467823  1
  Zr  Zr7  1  0.09591580  0.69695259  0.29781262  1
  Zr  Zr8  1  0.70419450  0.29100440  0.70483646  1
  Zr  Zr9  1  0.70372171  0.89288848  0.29461072  1
  Zr  Zr10  1  0.10848213  0.70335747  0.70465036  1
  Zr  Zr11  1  0.29956406  0.89349371  0.30946884  1
  Zr  Zr12  1  0.49018138  0.29953489  0.90068895  1
  Zr  Zr13  1  0.10396465  0.29979765  0.28916336  1
  Zr  Zr14  1  0.48421301  0.10217286  0.09900632  1
  Zr  Zr15  1  0.49628785  0.10045846  0.29949875  1
  Zr  Zr16  1  0.10014188  0.30280098  0.90932629  1
  Zr  Zr17  1  0.90564928  0.70467877  0.90532754  1
  Zr  Zr18  1  0.90358479  0.69495935  0.09346618  1
  Zr  Zr19  1  0.89856006  0.09725842  0.50404164  1
  Zr  Zr20  1  0.10300181  0.10298723  0.29571446  1
  Zr  Zr21  1  0.30418578  0.09996617  0.89025906  1
  Zr  Zr22  1  0.30864116  0.10724015  0.51489687  1
  Zr  Zr23  1  0.70238200  0.09671530  0.89375843  1
  Zr  Zr24  1  0.49789332  0.50066642  0.90421815  1
  Zr  Zr25  1  0.30069283  0.70694118  0.69915321  1
  Zr  Zr26  1  0.31071113  0.48734027  0.49678555  1
  Zr  Zr27  1  0.30663387  0.29525728  0.69841042  1
  Zr  Zr28  1  0.30160566  0.90061637  0.89467081  1
  Zr  Zr29  1  0.29360169  0.50152936  0.69902431  1
  Zr  Zr30  1  0.10225396  0.49671280  0.50379134  1
  Zr  Zr31  1  0.50630941  0.29444800  0.30050814  1
  Zr  Zr32  1  0.08911419  0.30727046  0.69989888  1
  Zr  Zr33  1  0.69455638  0.30594581  0.10528738  1
  Zr  Zr34  1  0.11102260  0.10176829  0.70372539  1
  Zr  Zr35  1  0.69172538  0.30224162  0.48997051  1
  Zr  Zr36  1  0.49391563  0.50896949  0.09538171  1
  Zr  Zr37  1  0.10925383  0.30200766  0.49048051  1
  Zr  Zr38  1  0.89445316  0.89206640  0.29966785  1
  Zr  Zr39  1  0.70068275  0.70582289  0.29997779  1
  Zr  Zr40  1  0.09618947  0.09902907  0.90196175  1
  Zr  Zr41  1  0.49630904  0.30253363  0.09791375  1
  Zr  Zr42  1  0.69807605  0.49856789  0.69539652  1
  Zr  Zr43  1  0.50385205  0.10055839  0.50484352  1
  Zr  Zr44  1  0.90322611  0.90088411  0.90107010  1
  Zr  Zr45  1  0.70012895  0.10075851  0.50748630  1
  Zr  Zr46  1  0.10341592  0.49905057  0.69963051  1
  Zr  Zr47  1  0.09435639  0.89945316  0.89715762  1
  Zr  Zr48  1  0.69485966  0.09853081  0.70114128  1
  Zr  Zr49  1  0.89188858  0.30880116  0.29576887  1
  Sc  Sc50  1  0.89289659  0.50564026  0.49697335  1
  Sc  Sc51  1  0.29558629  0.50941446  0.10028978  1
  Sc  Sc52  1  0.10027399  0.90636263  0.30462817  1
  Sc  Sc53  1  0.90461152  0.48668812  0.70077531  1
  Sc  Sc54  1  0.70425119  0.69239702  0.50388004  1
  Sc  Sc55  1  0.29832996  0.89952126  0.50412200  1
  Sc  Sc56  1  0.70179141  0.49011347  0.30432454  1
  Sc  Sc57  1  0.70791546  0.70212509  0.10215715  1
  Sc  Sc58  1  0.90135762  0.49826711  0.90754210  1
  Sc  Sc59  1  0.69541586  0.50688472  0.90309067  1
  Sc  Sc60  1  0.89820258  0.71532168  0.69586885  1
  Sc  Sc61  1  0.49941736  0.90731005  0.89611851  1
  Sc  Sc62  1  0.30087401  0.50097145  0.29322512  1
  Sc  Sc63  1  0.10401576  0.89915860  0.50144672  1
  Sc  Sc64  1  0.08738035  0.90456790  0.10296739  1
  Sc  Sc65  1  0.10359261  0.48980497  0.09434610  1
  Sc  Sc66  1  0.10871928  0.49586487  0.29083055  1
  Sc  Sc67  1  0.90307908  0.29357914  0.50181458  1
  Sc  Sc68  1  0.69311399  0.90242120  0.51326181  1
  Sc  Sc69  1  0.30104158  0.90656996  0.70264190  1
  Sc  Sc70  1  0.50472037  0.69939193  0.89822557  1
  Sc  Sc71  1  0.50303108  0.49941782  0.68160950  1
  Sc  Sc72  1  0.50212709  0.68536611  0.49725343  1
  Sc  Sc73  1  0.10440635  0.70950074  0.50547615  1
  Sc  Sc74  1  0.89991442  0.90347729  0.70352947  1
  Sc  Sc75  1  0.89356067  0.68944197  0.29539497  1
  Sc  Sc76  1  0.90204073  0.29463567  0.89213421  1
  Sc  Sc77  1  0.90134158  0.89966691  0.51163257  1
  Sc  Sc78  1  0.29285149  0.70002273  0.89185688  1
  Sc  Sc79  1  0.30419859  0.30463018  0.89490276  1
  Sc  Sc80  1  0.69507348  0.50409383  0.09623999  1
  Sc  Sc81  1  0.29814696  0.30546770  0.31113127  1
  Sc  Sc82  1  0.68980484  0.10908479  0.31080820  1
  Sc  Sc83  1  0.89674667  0.50021854  0.10177633  1
  Sc  Sc84  1  0.49037106  0.69716539  0.30917283  1
  Sc  Sc85  1  0.50160058  0.89518957  0.30175022  1
  Sc  Sc86  1  0.09900835  0.10079174  0.49589253  1
  Sc  Sc87  1  0.70894658  0.09243522  0.08926250  1
  Sc  Sc88  1  0.50866199  0.89997306  0.70197595  1
  Sc  Sc89  1  0.10225797  0.89528102  0.69802677  1
  Sc  Sc90  1  0.69848515  0.90149121  0.70720290  1
  Sc  Sc91  1  0.90407654  0.09862325  0.30261990  1
  Sc  Sc92  1  0.70132753  0.69942985  0.90556476  1
  Sc  Sc93  1  0.90376363  0.09669228  0.09513230  1
  Sc  Sc94  1  0.29920031  0.29232468  0.09270790  1
  Sc  Sc95  1  0.49789169  0.50684864  0.31164046  1
  Sc  Sc96  1  0.29981644  0.09705723  0.29481806  1
  Sc  Sc97  1  0.29960460  0.49555823  0.89831392  1
  Sc  Sc98  1  0.89384240  0.90303106  0.10144467  1
  Sc  Sc99  1  0.30477153  0.70902879  0.49079822  1
  Nb  Nb100  1  0.50530927  0.29906956  0.70211680  1
  Nb  Nb101  1  0.70021080  0.90795632  0.90777267  1
  Nb  Nb102  1  0.69808741  0.29470126  0.89849626  1
  Nb  Nb103  1  0.68281206  0.49836885  0.50401433  1
  Nb  Nb104  1  0.10026631  0.29109213  0.09889122  1
  Nb  Nb105  1  0.29772998  0.69655695  0.29974340  1
  Nb  Nb106  1  0.10921865  0.11187225  0.10012322  1
  Nb  Nb107  1  0.51012643  0.49163146  0.49741951  1
  Nb  Nb108  1  0.50035165  0.70363545  0.70085965  1
  Nb  Nb109  1  0.30611199  0.10063493  0.69774797  1
  Nb  Nb110  1  0.30212217  0.90325487  0.10135762  1
  Nb  Nb111  1  0.49833835  0.70208312  0.10318370  1
  Nb  Nb112  1  0.50223645  0.10119486  0.89926728  1
  Nb  Nb113  1  0.69901996  0.29864939  0.29524303  1
  Nb  Nb114  1  0.09673633  0.70277329  0.90085754  1
  Nb  Nb115  1  0.31171919  0.29857129  0.49682111  1
  Nb  Nb116  1  0.30212847  0.08874408  0.09879982  1
  Nb  Nb117  1  0.89882133  0.30259316  0.69338217  1
  Nb  Nb118  1  0.50009800  0.89871375  0.50384397  1
  Nb  Nb119  1  0.90322880  0.49636608  0.30102516  1
  Nb  Nb120  1  0.49788008  0.10540551  0.70204308  1
  Nb  Nb121  1  0.69663979  0.89772753  0.10711434  1
  Nb  Nb122  1  0.30133841  0.69692850  0.10488207  1
  Nb  Nb123  1  0.48771806  0.30952130  0.50061459  1
  Nb  Nb124  1  0.89769230  0.08614316  0.90082976  1
  Nb  Nb125  1  0.59771371  0.80763617  0.00971549  1
  Nb  Nb126  1  0.59522035  0.60760047  0.20143563  1
  Nb  Nb127  1  -0.00511853  0.79691838  0.39877963  1
  Nb  Nb128  1  0.79450529  0.39526066  0.59864385  1
  Nb  Nb129  1  -0.00136385  0.40329075  0.39382486  1
  Nb  Nb130  1  0.20247894  0.60025024  0.39903868  1
  Nb  Nb131  1  0.79376616  0.39182948  -0.00326698  1
  Nb  Nb132  1  0.20102615  0.00204489  0.00560345  1
  Nb  Nb133  1  0.80565940  0.60227532  0.79678225  1
  Nb  Nb134  1  0.79597829  0.20560511  0.20126707  1
  Nb  Nb135  1  0.59953465  0.39318491  0.80033869  1
  Nb  Nb136  1  0.00125423  0.60189993  0.60497872  1
  Nb  Nb137  1  0.40423419  -0.00025201  0.40757417  1
  Nb  Nb138  1  0.40912385  0.79968596  0.60164218  1
  Nb  Nb139  1  0.20308304  0.80316322  0.00693678  1
  Nb  Nb140  1  0.59875230  0.19847571  -0.00648439  1
  Nb  Nb141  1  0.40346935  0.40030537  0.19767391  1
  Nb  Nb142  1  0.40359237  0.60194791  0.79099417  1
  Nb  Nb143  1  0.60098050  0.79911338  0.40422465  1
  Nb  Nb144  1  0.39741061  0.79867457  0.00595743  1
  Nb  Nb145  1  0.20345371  0.79686999  0.19466375  1
  Nb  Nb146  1  0.39287289  0.79560220  0.19802215  1
  Nb  Nb147  1  0.60133399  -0.00237763  0.19676721  1
  Nb  Nb148  1  -0.00005685  0.60460444  0.79813011  1
  Nb  Nb149  1  0.79637862  -0.00245933  0.40363649  1
  Pd  Pd150  1  0.80245132  0.19462047  0.39575775  1
  Pd  Pd151  1  0.79367071  0.80577207  0.60123281  1
  Pd  Pd152  1  0.00847904  0.00057129  0.60545061  1
  Pd  Pd153  1  0.00785216  0.59908905  0.40682634  1
  Pd  Pd154  1  0.79472538  0.40623167  0.80322891  1
  Pd  Pd155  1  0.20743805  0.39823584  0.00458686  1
  Pd  Pd156  1  0.39239911  0.60932807  -0.01304884  1
  Pd  Pd157  1  0.79572914  0.80646275  0.00286927  1
  Pd  Pd158  1  0.20968356  0.19452898  -0.00633986  1
  Pd  Pd159  1  0.19546217  -0.00626826  0.19644315  1
  Pd  Pd160  1  0.60238735  -0.00932968  0.39495654  1
  Pd  Pd161  1  0.20340392  0.60610143  0.58771404  1
  Pd  Pd162  1  -0.00658024  0.19535470  -0.00314908  1
  Pd  Pd163  1  0.00868270  0.19883379  0.59806652  1
  Pd  Pd164  1  0.19946492  0.20807895  0.80161641  1
  Pd  Pd165  1  0.80851839  0.59288794  0.60928332  1
  Pd  Pd166  1  0.00052168  0.40580098  0.81009810  1
  Pd  Pd167  1  -0.00853914  0.19570743  0.19978175  1
  Pd  Pd168  1  -0.00079683  0.00398518  0.79003105  1
  Pd  Pd169  1  0.40821104  0.41171153  0.78964599  1
  Pd  Pd170  1  0.59519903  0.20774799  0.59578346  1
  Pd  Pd171  1  0.80117077  0.40340771  0.40923848  1
  Pd  Pd172  1  0.80946420  0.19427862  0.80234973  1
  Pd  Pd173  1  0.40795191  0.00084965  0.79210184  1
  Pd  Pd174  1  0.59684828  0.59212161  0.79582713  1
  Pd  Pd175  1  0.00060662  0.00727668  0.19828716  1
  Pd  Pd176  1  0.60783944  0.18467173  0.18593314  1
  Pd  Pd177  1  0.19848223  -0.00082299  0.59941959  1
  Pd  Pd178  1  0.39927224  0.60437577  0.59746330  1
  Pd  Pd179  1  -0.00721451  -0.00942191  0.40316678  1
  Pd  Pd180  1  0.79909429  0.20383302  0.00265771  1
  Pd  Pd181  1  0.79190026  0.01355131  0.21054299  1
  Pd  Pd182  1  -0.00122298  0.20774873  0.39452102  1
  Pd  Pd183  1  -0.00027494  0.79764011  0.20101306  1
  Pd  Pd184  1  0.60282030  0.39575926  -0.00834320  1
  Pd  Pd185  1  0.79076709  0.59259608  0.20199185  1
  Pd  Pd186  1  0.60229343  0.80439124  0.81423274  1
  Pd  Pd187  1  0.21042315  0.00955784  0.40944316  1
  Pd  Pd188  1  0.20667274  0.38869295  0.60052461  1
  Pd  Pd189  1  -0.00532154  0.19473970  0.79987439  1
  Pd  Pd190  1  0.21250087  0.20413183  0.20026879  1
  Pd  Pd191  1  0.59070343  0.41488872  0.20713387  1
  Pd  Pd192  1  0.00335432  0.58819637  0.19455099  1
  Pd  Pd193  1  0.59773956  0.00269747  0.00489378  1
  Pd  Pd194  1  0.38750839  0.20883087  0.20580019  1
  Pd  Pd195  1  0.79071953  0.59125761  0.39742032  1
  Pd  Pd196  1  0.19603054  0.20720337  0.60028519  1
  Pd  Pd197  1  0.00389935  0.40550703  0.19866304  1
  Pd  Pd198  1  0.79324503  0.79794540  0.80381569  1
  Pd  Pd199  1  0.21008272  0.19240877  0.40021118  1
  Rh  Rh200  1  0.40567743  0.40043048  0.39034641  1
  Rh  Rh201  1  0.20135873  0.60001223  0.80416255  1
  Rh  Rh202  1  0.79991012  0.59123795  -0.00635988  1
  Rh  Rh203  1  0.40030076  0.39752764  0.60572764  1
  Rh  Rh204  1  0.81138973  0.79208388  0.18909254  1
  Rh  Rh205  1  0.19688024  0.80736158  0.80499462  1
  Rh  Rh206  1  0.19866639  0.00024091  0.80087015  1
  Rh  Rh207  1  0.19526149  0.60350243  0.20430674  1
  Rh  Rh208  1  0.60471657  0.38839166  0.60440070  1
  Rh  Rh209  1  0.19739211  0.39142314  0.79858587  1
  Rh  Rh210  1  0.18636195  0.79346741  0.39098778  1
  Rh  Rh211  1  0.39315767  0.00025692  -0.01024775  1
  Rh  Rh212  1  0.59499223  0.00260119  0.61024626  1
  Rh  Rh213  1  0.00441589  0.80379811  0.00701877  1
  Rh  Rh214  1  0.60810802  0.60525670  0.39475372  1
  Rh  Rh215  1  0.00184470  0.79579062  0.79606807  1
  Rh  Rh216  1  0.39031097  0.59306455  0.40504728  1
  Rh  Rh217  1  -0.01209126  0.40558031  0.58471720  1
  Rh  Rh218  1  0.39028301  0.40581920  0.01056793  1
  Rh  Rh219  1  0.00201795  0.59089010  -0.00580261  1
  Rh  Rh220  1  0.40111108  -0.00775125  0.21644349  1
  Rh  Rh221  1  0.80298241  -0.00757216  -0.00145617  1
  Rh  Rh222  1  0.40480936  0.79427941  0.79800951  1
  Rh  Rh223  1  0.59681312  0.60465255  0.59798449  1
  Rh  Rh224  1  0.40641386  0.59907957  0.20571254  1
  Rh  Rh225  1  0.59018066  0.79715161  0.20312172  1
  Rh  Rh226  1  0.79769556  0.81238639  0.41376271  1
  Rh  Rh227  1  0.40252313  0.19713463  0.79695687  1
  Rh  Rh228  1  0.40113173  0.19395518  0.40055596  1
  Rh  Rh229  1  0.20465611  0.60477798  -0.00654870  1
  Rh  Rh230  1  0.79826813  0.20702538  0.59742618  1
  Rh  Rh231  1  0.59506271  0.39670801  0.39303927  1
  Rh  Rh232  1  0.20990514  0.39145345  0.19166686  1
  Rh  Rh233  1  0.19690919  0.40821902  0.39799627  1
  Rh  Rh234  1  0.40668754  -0.00655443  0.60214893  1
  Rh  Rh235  1  0.79590517  -0.00174689  0.60228687  1
  Rh  Rh236  1  0.59465853  0.79177593  0.59208101  1
  Rh  Rh237  1  0.80065079  -0.00182074  0.79930450  1
  Rh  Rh238  1  0.00609805  0.00528529  0.00668054  1
  Rh  Rh239  1  0.21182515  0.80587905  0.60261806  1
  Rh  Rh240  1  0.59022533  0.20150142  0.80636687  1
  Rh  Rh241  1  -0.00264517  0.39822495  -0.00117223  1
  Rh  Rh242  1  0.40944816  0.20604161  0.60522022  1
  Rh  Rh243  1  0.60445344  0.61513783  0.01173324  1
  Rh  Rh244  1  0.40942802  0.80553349  0.40473829  1
  Rh  Rh245  1  0.59907181  0.00099621  0.79824798  1
  Rh  Rh246  1  0.00004336  0.79657521  0.59582896  1
  Rh  Rh247  1  0.79765278  0.40185788  0.19198074  1
  Rh  Rh248  1  0.39701923  0.19385241  -0.00617103  1
  Rh  Rh249  1  0.59209004  0.20539841  0.40734970  1
