# generated using pymatgen
data_ZrScNbPdRh
_symmetry_space_group_name_H-M   'P 1'
_cell_length_a   16.56373021
_cell_length_b   16.56361621
_cell_length_c   16.56423988
_cell_angle_alpha   89.93633835
_cell_angle_beta   89.98100136
_cell_angle_gamma   89.99855116
_symmetry_Int_Tables_number   1
_chemical_formula_structural   ZrScNbPdRh
_chemical_formula_sum   'Zr50 Sc50 Nb50 Pd50 Rh50'
_cell_volume   4544.48345053
_cell_formula_units_Z   50
loop_
 _symmetry_equiv_pos_site_id
 _symmetry_equiv_pos_as_xyz
  1  'x, y, z'
loop_
 _atom_site_type_symbol
 _atom_site_label
 _atom_site_symmetry_multiplicity
 _atom_site_fract_x
 _atom_site_fract_y
 _atom_site_fract_z
 _atom_site_occupancy
  Zr  Zr0  1  0.71106340  0.10313587  0.30254631  1
  Zr  Zr1  1  0.49986707  0.29548609  0.31352221  1
  Zr  Zr2  1  0.29792172  0.50201445  0.29497298  1
  Zr  Zr3  1  0.90197969  0.69277205  0.70341951  1
  Zr  Zr4  1  0.90832051  0.69788968  0.90466769  1
  Zr  Zr5  1  0.90255003  0.90191156  0.90139200  1
  Zr  Zr6  1  0.10065497  0.10945609  0.49143790  1
  Zr  Zr7  1  0.50174141  0.11135448  0.88929930  1
  Zr  Zr8  1  0.50014392  0.50350100  0.90261768  1
  Zr  Zr9  1  0.29505889  0.69608479  0.10316563  1
  Zr  Zr10  1  0.90378278  0.09747089  0.89287095  1
  Zr  Zr11  1  0.29686204  0.49667659  0.69977852  1
  Zr  Zr12  1  0.30722212  0.89554839  0.10240790  1
  Zr  Zr13  1  0.29084508  0.90557104  0.69616174  1
  Zr  Zr14  1  0.90424222  0.69761130  0.10609332  1
  Zr  Zr15  1  0.90165938  0.30461512  0.50047476  1
  Zr  Zr16  1  0.69853707  0.50359801  0.90170077  1
  Zr  Zr17  1  0.70773658  0.69957882  0.49909758  1
  Zr  Zr18  1  0.09943530  0.70064247  0.09692360  1
  Zr  Zr19  1  0.30191149  0.09763368  0.69722756  1
  Zr  Zr20  1  0.90116699  0.28827987  0.29502750  1
  Zr  Zr21  1  0.49794902  0.49579207  0.49962350  1
  Zr  Zr22  1  0.09633410  0.30212775  0.09848684  1
  Zr  Zr23  1  0.09862432  0.30341644  0.70228098  1
  Zr  Zr24  1  0.68766963  0.69914972  0.90207289  1
  Zr  Zr25  1  0.50758244  0.69557134  0.50223638  1
  Zr  Zr26  1  0.30225942  0.89752460  0.29168876  1
  Zr  Zr27  1  0.69777990  0.09433193  0.70471856  1
  Zr  Zr28  1  0.90104765  0.30134313  0.70642031  1
  Zr  Zr29  1  0.70306677  0.09460072  0.09396341  1
  Zr  Zr30  1  0.69056829  0.29848029  0.48973540  1
  Zr  Zr31  1  0.29770448  0.90006930  0.89542735  1
  Zr  Zr32  1  0.09380752  0.69644356  0.90118227  1
  Zr  Zr33  1  0.10271235  0.49649527  0.49879288  1
  Zr  Zr34  1  0.90013376  0.90899583  0.70392127  1
  Zr  Zr35  1  0.09465979  0.90155517  0.89429124  1
  Zr  Zr36  1  0.30092971  0.49027847  0.90364550  1
  Zr  Zr37  1  0.50446689  0.90186812  0.69976474  1
  Zr  Zr38  1  0.90719790  0.50405251  0.89376488  1
  Zr  Zr39  1  0.50182637  0.70231925  0.89332609  1
  Zr  Zr40  1  0.29978150  0.90035370  0.50066738  1
  Zr  Zr41  1  0.49939875  0.70299225  0.08710773  1
  Zr  Zr42  1  0.69721043  0.29730929  0.89875575  1
  Zr  Zr43  1  0.90413496  0.90650796  0.10449851  1
  Zr  Zr44  1  0.29982292  0.70213733  0.90335312  1
  Zr  Zr45  1  0.30013848  0.30489499  0.29641308  1
  Zr  Zr46  1  0.09958669  0.29146273  0.30527589  1
  Zr  Zr47  1  0.30402537  0.09727743  0.50004624  1
  Zr  Zr48  1  0.89135642  0.49533970  0.70140744  1
  Zr  Zr49  1  0.09584866  0.10193008  0.10562381  1
  Sc  Sc50  1  0.90805922  0.50535940  0.29791467  1
  Sc  Sc51  1  0.51048959  0.91302332  0.49454880  1
  Sc  Sc52  1  0.30327718  0.10735181  0.29822178  1
  Sc  Sc53  1  0.49310606  0.50230582  0.30235116  1
  Sc  Sc54  1  0.49742223  0.50259007  0.09698907  1
  Sc  Sc55  1  0.69625919  0.50260990  0.51237178  1
  Sc  Sc56  1  0.29512779  0.69670556  0.50108550  1
  Sc  Sc57  1  0.69955574  0.09986103  0.90420638  1
  Sc  Sc58  1  0.30073430  0.69644377  0.29649298  1
  Sc  Sc59  1  0.69295142  0.51383755  0.29126929  1
  Sc  Sc60  1  0.70633045  0.30509775  0.70198036  1
  Sc  Sc61  1  0.89288282  0.50462833  0.49845177  1
  Sc  Sc62  1  0.69859612  0.90888022  0.90302262  1
  Sc  Sc63  1  0.49156551  0.30670150  0.90751549  1
  Sc  Sc64  1  0.29924472  0.10390626  0.10003977  1
  Sc  Sc65  1  0.29234166  0.70086747  0.69509760  1
  Sc  Sc66  1  0.50615145  0.68984901  0.30318854  1
  Sc  Sc67  1  0.10329535  0.49729587  0.90001069  1
  Sc  Sc68  1  0.50011107  0.89339827  0.90866726  1
  Sc  Sc69  1  0.30106222  0.49971500  0.50580701  1
  Sc  Sc70  1  0.89964911  0.08942973  0.48301502  1
  Sc  Sc71  1  0.29930865  0.30288576  0.90359978  1
  Sc  Sc72  1  0.10809571  0.09918014  0.70646716  1
  Sc  Sc73  1  0.10137611  0.48923914  0.29305068  1
  Sc  Sc74  1  0.10327097  0.30404737  0.49598281  1
  Sc  Sc75  1  0.70063520  0.89530991  0.30964847  1
  Sc  Sc76  1  0.68988915  0.69259270  0.69997355  1
  Sc  Sc77  1  0.49487321  0.29840938  0.71389530  1
  Sc  Sc78  1  0.29944968  0.30387167  0.70694219  1
  Sc  Sc79  1  0.70256554  0.70398588  0.30204287  1
  Sc  Sc80  1  0.49444341  0.09788320  0.09016572  1
  Sc  Sc81  1  0.90798766  0.29662393  0.89575229  1
  Sc  Sc82  1  0.29332254  0.30067498  0.49423941  1
  Sc  Sc83  1  0.69988302  0.90790935  0.69775604  1
  Sc  Sc84  1  0.09842066  0.10660783  0.90241104  1
  Sc  Sc85  1  0.29688713  0.10698899  0.90162427  1
  Sc  Sc86  1  0.30070970  0.30223458  0.09861371  1
  Sc  Sc87  1  0.70182063  0.29054112  0.09239235  1
  Sc  Sc88  1  0.10518825  0.49812976  0.70114384  1
  Sc  Sc89  1  0.69749256  0.08909487  0.49895300  1
  Sc  Sc90  1  0.09874420  0.70348110  0.29746207  1
  Sc  Sc91  1  0.09764836  0.89925878  0.29168225  1
  Sc  Sc92  1  0.09677179  0.89045300  0.49671629  1
  Sc  Sc93  1  0.10082847  0.29658179  0.90228975  1
  Sc  Sc94  1  0.89691132  0.70779273  0.30629520  1
  Sc  Sc95  1  0.69956257  0.89751129  0.50023638  1
  Sc  Sc96  1  0.09807211  0.70794407  0.50008560  1
  Sc  Sc97  1  0.10194754  0.70253215  0.69630519  1
  Sc  Sc98  1  0.70239739  0.90735845  0.09471997  1
  Sc  Sc99  1  0.49806158  0.50024936  0.68950233  1
  Nb  Nb100  1  0.28555197  0.49726181  0.10483692  1
  Nb  Nb101  1  0.50324381  0.09734062  0.31151814  1
  Nb  Nb102  1  0.49757086  0.90173351  0.10590303  1
  Nb  Nb103  1  0.91213578  0.09140657  0.29223903  1
  Nb  Nb104  1  0.90399749  0.70428400  0.50332340  1
  Nb  Nb105  1  0.69841170  0.29860902  0.29677569  1
  Nb  Nb106  1  0.50227637  0.29522929  0.50026764  1
  Nb  Nb107  1  0.49877476  0.10378738  0.49554911  1
  Nb  Nb108  1  0.89584463  0.09761837  0.69612277  1
  Nb  Nb109  1  0.08814265  0.09945950  0.30448548  1
  Nb  Nb110  1  0.50249506  0.30098719  0.10787423  1
  Nb  Nb111  1  0.90683446  0.49459971  0.10144197  1
  Nb  Nb112  1  0.09914663  0.90311237  0.69669023  1
  Nb  Nb113  1  0.90486868  0.89102486  0.50229747  1
  Nb  Nb114  1  0.90478261  0.90796462  0.30922178  1
  Nb  Nb115  1  0.09879355  0.49793617  0.10384317  1
  Nb  Nb116  1  0.50091844  0.70395329  0.70298047  1
  Nb  Nb117  1  0.89849880  0.10444900  0.10495152  1
  Nb  Nb118  1  0.50097191  0.89944482  0.29854246  1
  Nb  Nb119  1  0.50219709  0.10160594  0.69674020  1
  Nb  Nb120  1  0.10423147  0.89889085  0.09793587  1
  Nb  Nb121  1  0.90396739  0.30233200  0.09882160  1
  Nb  Nb122  1  0.70251035  0.50090605  0.10180592  1
  Nb  Nb123  1  0.69968316  0.69458061  0.10682837  1
  Nb  Nb124  1  0.70165958  0.50044729  0.70529662  1
  Nb  Nb125  1  0.40003726  0.60368895  0.79741729  1
  Nb  Nb126  1  0.80119060  0.79208592  0.00123054  1
  Nb  Nb127  1  0.59349973  0.00061778  0.20459798  1
  Nb  Nb128  1  0.59620157  0.80489581  0.19573411  1
  Nb  Nb129  1  0.79288720  0.39795725  0.38776792  1
  Nb  Nb130  1  0.79870811  0.79836588  0.80247671  1
  Nb  Nb131  1  0.80147341  0.19438979  0.59853030  1
  Nb  Nb132  1  0.40108828  0.00228105  0.79603180  1
  Nb  Nb133  1  0.79919832  0.39828986  0.19627923  1
  Nb  Nb134  1  0.40728849  0.19843146  0.59602418  1
  Nb  Nb135  1  0.40652674  0.80152247  0.40179090  1
  Nb  Nb136  1  0.60387738  0.39288436  0.19823528  1
  Nb  Nb137  1  0.59705024  0.19902352  0.59900070  1
  Nb  Nb138  1  0.60328234  0.40681198  0.80076067  1
  Nb  Nb139  1  0.59763581  0.19709541  0.20415247  1
  Nb  Nb140  1  0.19802371  0.59579428  0.39715818  1
  Nb  Nb141  1  0.40562335  0.80286765  0.59675821  1
  Nb  Nb142  1  -0.00424479  0.60055628  0.59813376  1
  Nb  Nb143  1  0.19612630  -0.00473045  0.00543922  1
  Nb  Nb144  1  -0.00060372  0.00118032  0.59956929  1
  Nb  Nb145  1  0.19675839  0.00236907  0.39336941  1
  Nb  Nb146  1  0.80747353  0.79780146  0.60351724  1
  Nb  Nb147  1  0.80093139  0.59807326  0.00955999  1
  Nb  Nb148  1  -0.00689606  0.19362270  0.60183427  1
  Nb  Nb149  1  0.80620367  0.40456997  0.00572115  1
  Pd  Pd150  1  0.80626022  0.59556406  0.20339862  1
  Pd  Pd151  1  0.39855368  0.20601677  0.00138205  1
  Pd  Pd152  1  0.79667780  0.19664499  0.79730838  1
  Pd  Pd153  1  0.60681644  0.59453605  0.40425535  1
  Pd  Pd154  1  0.40455356  0.01212422  0.20228908  1
  Pd  Pd155  1  0.40956928  0.78636305  0.20709905  1
  Pd  Pd156  1  0.39277886  0.59664686  -0.00167236  1
  Pd  Pd157  1  0.60343423  0.39892546  0.00319693  1
  Pd  Pd158  1  0.79437041  -0.00726187  0.20520487  1
  Pd  Pd159  1  0.39384060  0.40044818  0.40556258  1
  Pd  Pd160  1  0.79278130  0.39486006  0.59244482  1
  Pd  Pd161  1  0.79907382  -0.00808322  0.40187472  1
  Pd  Pd162  1  -0.00060682  0.79978731  0.79267614  1
  Pd  Pd163  1  0.40833057  0.19554924  0.20032299  1
  Pd  Pd164  1  0.79521555  0.60773695  0.80685008  1
  Pd  Pd165  1  0.19589472  0.59357145  -0.00014219  1
  Pd  Pd166  1  0.59327704  -0.00430329  0.80906675  1
  Pd  Pd167  1  0.59925958  0.39173284  0.61064536  1
  Pd  Pd168  1  0.59283742  0.19885542  0.00423821  1
  Pd  Pd169  1  0.40568941  0.60104368  0.19480390  1
  Pd  Pd170  1  0.40022630  0.60868442  0.60483943  1
  Pd  Pd171  1  -0.00088847  0.80361002  0.20306645  1
  Pd  Pd172  1  0.19805033  0.20226274  0.20073628  1
  Pd  Pd173  1  0.18509188  -0.00030786  0.58722876  1
  Pd  Pd174  1  0.00571886  0.60065759  0.20423728  1
  Pd  Pd175  1  0.19909655  0.80462098  -0.00057976  1
  Pd  Pd176  1  0.39526176  0.00078177  -0.00959750  1
  Pd  Pd177  1  0.20346960  0.60127658  0.80134124  1
  Pd  Pd178  1  0.60539512  0.41382017  0.39023143  1
  Pd  Pd179  1  0.20639192  0.79811205  0.39301662  1
  Pd  Pd180  1  0.19852770  0.00388460  0.20124384  1
  Pd  Pd181  1  0.79739682  0.20133752  0.19420833  1
  Pd  Pd182  1  0.20178457  0.20676681  0.60104522  1
  Pd  Pd183  1  0.79352072  0.80927442  0.19764290  1
  Pd  Pd184  1  0.60413591  0.80186773  0.60109890  1
  Pd  Pd185  1  0.80468106  0.20128305  0.40624434  1
  Pd  Pd186  1  0.00765266  0.60426809  0.40511882  1
  Pd  Pd187  1  0.81116277  0.20266360  -0.00482291  1
  Pd  Pd188  1  0.00083292  0.40450846  0.60188470  1
  Pd  Pd189  1  0.39438601  -0.00503046  0.39448298  1
  Pd  Pd190  1  0.19370290  0.79743495  0.79637303  1
  Pd  Pd191  1  0.79754180  0.59313921  0.39645097  1
  Pd  Pd192  1  0.60804200  0.80722822  0.00688669  1
  Pd  Pd193  1  0.40632057  0.40409735  0.19612759  1
  Pd  Pd194  1  0.39803735  0.38652741  0.59878373  1
  Pd  Pd195  1  -0.00762170  0.40124076  0.39441794  1
  Pd  Pd196  1  0.39676247  0.80244702  0.79110306  1
  Pd  Pd197  1  0.20379902  0.20402604  0.80286849  1
  Pd  Pd198  1  0.00158824  0.40087401  -0.00744976  1
  Pd  Pd199  1  0.00335589  0.00660037  0.00284299  1
  Rh  Rh200  1  0.19790819  0.39604342  0.80414189  1
  Rh  Rh201  1  0.19799955  0.19565520  0.00462405  1
  Rh  Rh202  1  -0.00179721  0.39341944  0.20397475  1
  Rh  Rh203  1  0.19193159  0.60057114  0.20477018  1
  Rh  Rh204  1  0.00859258  -0.00922069  0.40493913  1
  Rh  Rh205  1  0.20011132  0.00211885  0.81143899  1
  Rh  Rh206  1  0.39671401  0.80080119  0.00119757  1
  Rh  Rh207  1  0.39376300  0.19501489  0.79512557  1
  Rh  Rh208  1  0.58729336  0.59057506  0.78875023  1
  Rh  Rh209  1  0.80571600  0.80336801  0.40682832  1
  Rh  Rh210  1  -0.00330816  0.80450572  0.00753982  1
  Rh  Rh211  1  0.79617832  -0.00109247  0.80729809  1
  Rh  Rh212  1  0.18758921  0.60154199  0.59007922  1
  Rh  Rh213  1  0.60560365  0.00248994  0.39477819  1
  Rh  Rh214  1  0.59280999  0.60259341  0.19370761  1
  Rh  Rh215  1  0.81000849  0.00057413  -0.00228123  1
  Rh  Rh216  1  0.00758596  0.00797201  0.79279126  1
  Rh  Rh217  1  0.01035316  0.59386093  0.78875992  1
  Rh  Rh218  1  -0.00916613  0.20129118  0.40577477  1
  Rh  Rh219  1  0.60437281  0.59898312  0.01020474  1
  Rh  Rh220  1  0.79473988  0.40051588  0.81234698  1
  Rh  Rh221  1  0.20253454  0.39525717  0.60131221  1
  Rh  Rh222  1  0.20468165  0.40673844  0.39633238  1
  Rh  Rh223  1  0.00359199  0.19603178  0.79116353  1
  Rh  Rh224  1  0.80824807  -0.00433118  0.59123671  1
  Rh  Rh225  1  0.60416837  0.19001848  0.40031667  1
  Rh  Rh226  1  0.20269494  0.80218975  0.60053668  1
  Rh  Rh227  1  0.40651753  0.41157948  0.80020377  1
  Rh  Rh228  1  0.60004138  0.59874146  0.60209917  1
  Rh  Rh229  1  0.60567473  0.21024475  0.79236925  1
  Rh  Rh230  1  0.00063607  0.20135769  0.19582034  1
  Rh  Rh231  1  0.59400899  0.79659658  0.39287439  1
  Rh  Rh232  1  0.19694753  0.39982963  0.00553887  1
  Rh  Rh233  1  0.61033586  0.80715347  0.79736623  1
  Rh  Rh234  1  0.41081846  -0.00038581  0.60527222  1
  Rh  Rh235  1  0.00524391  0.40156625  0.80282725  1
  Rh  Rh236  1  0.19621790  0.39189524  0.19820126  1
  Rh  Rh237  1  0.38927042  0.60386326  0.40217297  1
  Rh  Rh238  1  -0.00240738  0.80132871  0.39179307  1
  Rh  Rh239  1  0.20589333  0.19473796  0.39233252  1
  Rh  Rh240  1  0.80323345  0.60495390  0.60068274  1
  Rh  Rh241  1  0.00303265  -0.00359976  0.19754844  1
  Rh  Rh242  1  0.00259990  0.59125613  0.00622136  1
  Rh  Rh243  1  0.59747335  0.00664117  0.59573798  1
  Rh  Rh244  1  0.39356757  0.20360831  0.40534910  1
  Rh  Rh245  1  0.19841227  0.79668675  0.19701499  1
  Rh  Rh246  1  0.39634115  0.40179647  0.01121194  1
  Rh  Rh247  1  -0.00561919  0.19661098  0.00448201  1
  Rh  Rh248  1  0.59082229  0.00189896  0.00251427  1
  Rh  Rh249  1  -0.00396839  0.80134083  0.60792169  1
