# generated using pymatgen
data_ZrScNbPdRh
_symmetry_space_group_name_H-M   'P 1'
_cell_length_a   16.56135933
_cell_length_b   16.56096318
_cell_length_c   16.56040837
_cell_angle_alpha   89.98711675
_cell_angle_beta   90.01514662
_cell_angle_gamma   90.02103386
_symmetry_Int_Tables_number   1
_chemical_formula_structural   ZrScNbPdRh
_chemical_formula_sum   'Zr50 Sc50 Nb50 Pd50 Rh50'
_cell_volume   4542.05677547
_cell_formula_units_Z   50
loop_
 _symmetry_equiv_pos_site_id
 _symmetry_equiv_pos_as_xyz
  1  'x, y, z'
loop_
 _atom_site_type_symbol
 _atom_site_label
 _atom_site_symmetry_multiplicity
 _atom_site_fract_x
 _atom_site_fract_y
 _atom_site_fract_z
 _atom_site_occupancy
  Zr  Zr0  1  0.49593059  0.89630503  0.50430286  1
  Zr  Zr1  1  0.50284963  0.29797961  0.09723940  1
  Zr  Zr2  1  0.70567579  0.89733086  0.29934457  1
  Zr  Zr3  1  0.69981867  0.30275884  0.70770905  1
  Zr  Zr4  1  0.70194003  0.89998771  0.10687759  1
  Zr  Zr5  1  0.48945308  0.09722682  0.90114091  1
  Zr  Zr6  1  0.29412768  0.50302011  0.70122657  1
  Zr  Zr7  1  0.30474589  0.49426584  0.09195833  1
  Zr  Zr8  1  0.29821842  0.29792534  0.30388776  1
  Zr  Zr9  1  0.70437723  0.89054567  0.89938548  1
  Zr  Zr10  1  0.70044012  0.89552254  0.49676709  1
  Zr  Zr11  1  0.50013648  0.90410937  0.89266339  1
  Zr  Zr12  1  0.30209520  0.70477890  0.29061111  1
  Zr  Zr13  1  0.49840636  0.70096203  0.30005852  1
  Zr  Zr14  1  0.08933239  0.70799841  0.49945957  1
  Zr  Zr15  1  0.90279044  0.29576058  0.50698497  1
  Zr  Zr16  1  0.90570281  0.29424766  0.30728357  1
  Zr  Zr17  1  0.29871186  0.30283497  0.90352659  1
  Zr  Zr18  1  0.10913651  0.70488070  0.69898152  1
  Zr  Zr19  1  0.50563503  0.30347144  0.29118329  1
  Zr  Zr20  1  0.69699378  0.50096893  0.70475569  1
  Zr  Zr21  1  0.90217881  0.50687450  0.29718889  1
  Zr  Zr22  1  0.70469552  0.70670312  0.09153376  1
  Zr  Zr23  1  0.30087375  0.30292599  0.50964264  1
  Zr  Zr24  1  0.09910972  0.89825356  0.50528215  1
  Zr  Zr25  1  0.51107128  0.70530664  0.50354048  1
  Zr  Zr26  1  0.50858522  0.49945131  0.29617731  1
  Zr  Zr27  1  0.51017299  0.10247562  0.09094004  1
  Zr  Zr28  1  0.70066168  0.28856963  0.09449964  1
  Zr  Zr29  1  0.30536432  0.49690842  0.29588805  1
  Zr  Zr30  1  0.69675178  0.49934729  0.30061991  1
  Zr  Zr31  1  0.89941527  0.29538861  0.70246929  1
  Zr  Zr32  1  0.90206191  0.10169148  0.50659498  1
  Zr  Zr33  1  0.69911587  0.49896978  0.89462212  1
  Zr  Zr34  1  0.90081046  0.49568913  0.89487190  1
  Zr  Zr35  1  0.89565083  0.10617835  0.09955375  1
  Zr  Zr36  1  0.89356017  0.29960725  0.08498478  1
  Zr  Zr37  1  0.09824494  0.50855860  0.70925727  1
  Zr  Zr38  1  0.90828040  0.10101515  0.69457962  1
  Zr  Zr39  1  0.29099313  0.09343109  0.30213006  1
  Zr  Zr40  1  0.09881013  0.70377683  0.09982951  1
  Zr  Zr41  1  0.89930142  0.49811720  0.70239047  1
  Zr  Zr42  1  0.29672721  0.49679330  0.50452685  1
  Zr  Zr43  1  0.29782439  0.70945811  0.50492413  1
  Zr  Zr44  1  0.09643716  0.09764790  0.08991693  1
  Zr  Zr45  1  0.68825956  0.09413859  0.90044664  1
  Zr  Zr46  1  0.89827896  0.89761046  0.49518185  1
  Zr  Zr47  1  0.69998762  0.90497300  0.71006993  1
  Zr  Zr48  1  0.89978912  0.70181717  0.90187591  1
  Zr  Zr49  1  0.09111077  0.69713714  0.30057115  1
  Sc  Sc50  1  0.49913696  0.50618479  0.90403668  1
  Sc  Sc51  1  0.50392541  0.89223474  0.29414438  1
  Sc  Sc52  1  0.48580658  0.09854736  0.70625893  1
  Sc  Sc53  1  0.71121616  0.30184260  0.49655339  1
  Sc  Sc54  1  0.29936585  0.89823971  0.70175955  1
  Sc  Sc55  1  0.90413079  0.89549351  0.89435466  1
  Sc  Sc56  1  0.50989942  0.50697181  0.50118579  1
  Sc  Sc57  1  0.90923272  0.10198311  0.89992016  1
  Sc  Sc58  1  0.70654696  0.09960670  0.28764176  1
  Sc  Sc59  1  0.10233241  0.89944146  0.09138921  1
  Sc  Sc60  1  0.29772903  0.89270588  0.09674994  1
  Sc  Sc61  1  0.31114451  0.30239518  0.09785244  1
  Sc  Sc62  1  0.70031065  0.69774580  0.30322692  1
  Sc  Sc63  1  0.29323303  0.10023933  0.51201377  1
  Sc  Sc64  1  0.30241655  0.70682627  0.90113918  1
  Sc  Sc65  1  0.30305681  0.89982558  0.29439025  1
  Sc  Sc66  1  0.90412730  0.49577138  0.49559741  1
  Sc  Sc67  1  0.29500483  0.90249675  0.90121778  1
  Sc  Sc68  1  0.49818491  0.50058119  0.09790847  1
  Sc  Sc69  1  0.71093354  0.09934177  0.70347770  1
  Sc  Sc70  1  0.90369310  0.90468618  0.70072319  1
  Sc  Sc71  1  0.10412046  0.30093778  0.49822554  1
  Sc  Sc72  1  0.09917543  0.70831261  0.89484428  1
  Sc  Sc73  1  0.09823371  0.49729530  0.50447163  1
  Sc  Sc74  1  0.49990898  0.10392762  0.28483630  1
  Sc  Sc75  1  0.69403232  0.70012625  0.89866318  1
  Sc  Sc76  1  0.71203140  0.10003336  0.50786442  1
  Sc  Sc77  1  0.29320974  0.90482395  0.50107057  1
  Sc  Sc78  1  0.50068343  0.29472791  0.89216500  1
  Sc  Sc79  1  0.08672927  0.49456382  0.30605787  1
  Sc  Sc80  1  0.10101019  0.90029828  0.70393425  1
  Sc  Sc81  1  0.91998237  0.69666379  0.70665677  1
  Sc  Sc82  1  0.49468049  0.69821671  0.09121989  1
  Sc  Sc83  1  0.30190974  0.49446423  0.89837374  1
  Sc  Sc84  1  0.09915453  0.29684796  0.70122898  1
  Sc  Sc85  1  0.29082520  0.09788712  0.70691554  1
  Sc  Sc86  1  0.69842627  0.50319639  0.10115972  1
  Sc  Sc87  1  0.10251557  0.09168639  0.89218244  1
  Sc  Sc88  1  0.30774845  0.09295040  0.09736848  1
  Sc  Sc89  1  0.50286885  0.50380920  0.71070677  1
  Sc  Sc90  1  0.10979836  0.90212093  0.30332907  1
  Sc  Sc91  1  0.71008478  0.29680704  0.89724933  1
  Sc  Sc92  1  0.10352292  0.90138071  0.89815531  1
  Sc  Sc93  1  0.08675457  0.30553687  0.09056393  1
  Sc  Sc94  1  0.90376657  0.70690384  0.11162019  1
  Sc  Sc95  1  0.68287917  0.69775493  0.70561408  1
  Sc  Sc96  1  0.90206745  0.70540715  0.30655924  1
  Sc  Sc97  1  0.30366043  0.30280410  0.69791962  1
  Sc  Sc98  1  0.49890776  0.70103742  0.90076484  1
  Sc  Sc99  1  0.69818676  0.50581773  0.49508735  1
  Nb  Nb100  1  0.69599096  0.30656420  0.29539769  1
  Nb  Nb101  1  0.29785141  0.69812748  0.09404455  1
  Nb  Nb102  1  0.29732443  0.10041166  0.90154604  1
  Nb  Nb103  1  0.90224336  0.49624481  0.10020634  1
  Nb  Nb104  1  0.09635711  0.09251162  0.69150742  1
  Nb  Nb105  1  0.89299203  0.90671275  0.29775375  1
  Nb  Nb106  1  0.10161267  0.08987448  0.50276473  1
  Nb  Nb107  1  0.49701327  0.89792232  0.09834193  1
  Nb  Nb108  1  0.10225831  0.29396918  0.29992906  1
  Nb  Nb109  1  0.70052219  0.70018896  0.50318278  1
  Nb  Nb110  1  0.49831403  0.89848249  0.70098074  1
  Nb  Nb111  1  0.30015971  0.69959550  0.70102011  1
  Nb  Nb112  1  0.49224470  0.70671332  0.69704464  1
  Nb  Nb113  1  0.49973398  0.29954050  0.69337587  1
  Nb  Nb114  1  0.10434612  0.49054821  0.90947011  1
  Nb  Nb115  1  0.90045943  0.70644160  0.50026661  1
  Nb  Nb116  1  0.09745602  0.10341404  0.30019153  1
  Nb  Nb117  1  0.89167692  0.89970405  0.10742736  1
  Nb  Nb118  1  0.09938561  0.30353838  0.90495445  1
  Nb  Nb119  1  0.09530105  0.49919454  0.10290419  1
  Nb  Nb120  1  0.90715377  0.10039702  0.30081190  1
  Nb  Nb121  1  0.49890619  0.10115587  0.50277621  1
  Nb  Nb122  1  0.70102466  0.10055055  0.09266033  1
  Nb  Nb123  1  0.49480403  0.29447259  0.50577530  1
  Nb  Nb124  1  0.90513067  0.30034589  0.90389985  1
  Nb  Nb125  1  0.79997850  0.79035666  0.60079702  1
  Nb  Nb126  1  0.20315815  0.60274823  0.39538731  1
  Nb  Nb127  1  0.80109695  0.39714870  0.20102007  1
  Nb  Nb128  1  0.40368671  0.19916773  0.40393707  1
  Nb  Nb129  1  0.19994906  0.20113869  -0.00164438  1
  Nb  Nb130  1  0.19684038  0.59429504  0.19710679  1
  Nb  Nb131  1  0.59681838  0.19847259  0.40304444  1
  Nb  Nb132  1  0.39707747  0.60022024  0.40432898  1
  Nb  Nb133  1  0.59562869  0.00736988  0.40387570  1
  Nb  Nb134  1  0.59521477  0.00243975  0.60023264  1
  Nb  Nb135  1  0.80833897  0.59794968  0.00064740  1
  Nb  Nb136  1  0.00150095  0.59328895  0.00292451  1
  Nb  Nb137  1  0.60459415  0.39655453  -0.00296598  1
  Nb  Nb138  1  0.59544241  0.20033164  0.59902081  1
  Nb  Nb139  1  0.40590348  0.39816807  0.40402609  1
  Nb  Nb140  1  0.79783258  -0.00247339  0.00500289  1
  Nb  Nb141  1  -0.00038785  0.00592880  0.39492838  1
  Nb  Nb142  1  0.19255117  0.20271888  0.19637106  1
  Nb  Nb143  1  0.59702536  0.39223420  0.60263363  1
  Nb  Nb144  1  0.40649540  0.00703553  0.40186640  1
  Nb  Nb145  1  0.19420287  0.59614533  0.00499234  1
  Nb  Nb146  1  0.40021555  0.60804908  0.60318299  1
  Nb  Nb147  1  0.19286317  0.39721785  0.19880087  1
  Nb  Nb148  1  0.80064341  0.60952287  0.59894089  1
  Nb  Nb149  1  -0.00516130  0.00289133  0.20447942  1
  Pd  Pd150  1  0.00880580  0.19829260  0.80379350  1
  Pd  Pd151  1  0.39184683  0.20226335  0.79646953  1
  Pd  Pd152  1  0.19905518  0.60348643  0.59256637  1
  Pd  Pd153  1  0.40461627  0.39957439  0.80156773  1
  Pd  Pd154  1  0.00852584  0.19589874  0.41183415  1
  Pd  Pd155  1  0.41067703  0.41552348  0.60076840  1
  Pd  Pd156  1  0.59987579  0.60784337  0.19156877  1
  Pd  Pd157  1  -0.00520693  0.59848394  0.59436484  1
  Pd  Pd158  1  0.19622947  0.20017190  0.60428234  1
  Pd  Pd159  1  0.40454288  -0.00499159  0.20175419  1
  Pd  Pd160  1  0.60742741  0.80803931  0.60935950  1
  Pd  Pd161  1  0.59898730  0.79159634  0.19581068  1
  Pd  Pd162  1  0.20072763  0.79856765  0.39693968  1
  Pd  Pd163  1  0.20068162  0.60398831  0.81534961  1
  Pd  Pd164  1  0.80358838  0.78919758  0.78735286  1
  Pd  Pd165  1  0.00329956  0.20118217  0.19277581  1
  Pd  Pd166  1  0.79177994  0.19519116  0.39476370  1
  Pd  Pd167  1  0.59865824  0.00125361  0.20267565  1
  Pd  Pd168  1  0.59370605  0.80468595  -0.00142065  1
  Pd  Pd169  1  0.19716577  0.79993521  0.19770206  1
  Pd  Pd170  1  0.79924698  0.61015279  0.79717270  1
  Pd  Pd171  1  0.79817664  0.01003696  0.39881973  1
  Pd  Pd172  1  0.19614204  0.20056209  0.80407777  1
  Pd  Pd173  1  0.00296740  0.39582162  0.80035818  1
  Pd  Pd174  1  0.00545381  0.39858926  0.60306845  1
  Pd  Pd175  1  0.80463189  0.40180488  0.39475935  1
  Pd  Pd176  1  0.39982108  0.60296435  0.80017585  1
  Pd  Pd177  1  0.81010715  0.00508496  0.81055321  1
  Pd  Pd178  1  0.80181211  0.60068286  0.19472283  1
  Pd  Pd179  1  0.80313299  0.60273765  0.40591776  1
  Pd  Pd180  1  0.39999392  0.60049851  0.19709257  1
  Pd  Pd181  1  0.39698187  0.80423887  0.80186382  1
  Pd  Pd182  1  0.80011438  0.20630988  0.20557634  1
  Pd  Pd183  1  0.19760012  0.39582388  0.79519826  1
  Pd  Pd184  1  0.39090289  0.19703539  0.19999928  1
  Pd  Pd185  1  0.19285354  0.00217938  0.19251200  1
  Pd  Pd186  1  0.00270157  0.81523725  0.20717744  1
  Pd  Pd187  1  0.19841509  0.40689118  0.39455476  1
  Pd  Pd188  1  0.59621788  0.19270857  0.79351212  1
  Pd  Pd189  1  -0.00386012  0.39129366  0.20204447  1
  Pd  Pd190  1  0.79248628  0.40902267  0.59834381  1
  Pd  Pd191  1  0.20223021  0.19398919  0.40450901  1
  Pd  Pd192  1  0.80523541  0.19308137  0.80517062  1
  Pd  Pd193  1  -0.01060464  -0.00980022  0.00349288  1
  Pd  Pd194  1  0.39611116  -0.00802232  0.00123269  1
  Pd  Pd195  1  -0.00380174  0.80277898  0.00042552  1
  Pd  Pd196  1  0.60377170  -0.01227391  0.00143889  1
  Pd  Pd197  1  0.39788781  0.80551723  0.39892433  1
  Pd  Pd198  1  0.59673773  0.39140195  0.41229869  1
  Pd  Pd199  1  0.39698480  0.00146609  0.60151997  1
  Rh  Rh200  1  -0.00485848  0.40454405  -0.00359341  1
  Rh  Rh201  1  0.19946521  -0.00048714  0.79873268  1
  Rh  Rh202  1  0.61026715  0.39764204  0.18443689  1
  Rh  Rh203  1  0.00268622  0.59920339  0.40774810  1
  Rh  Rh204  1  -0.00199632  0.81284716  0.39244940  1
  Rh  Rh205  1  0.79924296  0.79246327  0.20818734  1
  Rh  Rh206  1  0.59492646  0.39795874  0.80333520  1
  Rh  Rh207  1  0.00747757  0.19881390  -0.01017034  1
  Rh  Rh208  1  0.60407146  0.80220193  0.39520306  1
  Rh  Rh209  1  0.20001171  0.00049605  0.40287780  1
  Rh  Rh210  1  0.41592928  0.39652231  -0.00739040  1
  Rh  Rh211  1  0.19959675  0.39482537  0.00833747  1
  Rh  Rh212  1  0.60729864  0.19619732  0.20192393  1
  Rh  Rh213  1  0.80771036  0.39290628  0.80159804  1
  Rh  Rh214  1  0.79484733  0.20612957  0.60567686  1
  Rh  Rh215  1  0.00023388  -0.00527085  0.59638504  1
  Rh  Rh216  1  0.38848267  0.60131641  -0.00452389  1
  Rh  Rh217  1  -0.00035962  0.39404778  0.40274111  1
  Rh  Rh218  1  0.59647141  0.60837582  0.39730051  1
  Rh  Rh219  1  0.19867971  -0.00409278  0.60782873  1
  Rh  Rh220  1  0.79492551  -0.01253725  0.60305643  1
  Rh  Rh221  1  0.01051252  0.59837084  0.81333135  1
  Rh  Rh222  1  0.79377608  0.40945859  0.00214233  1
  Rh  Rh223  1  0.39363940  0.79976509  0.60423726  1
  Rh  Rh224  1  0.59010543  0.60599266  0.80264382  1
  Rh  Rh225  1  0.00982464  0.20115223  0.59785569  1
  Rh  Rh226  1  0.00261734  0.00143090  0.79513987  1
  Rh  Rh227  1  0.39453703  0.19949800  -0.00354671  1
  Rh  Rh228  1  0.60984788  0.59338571  -0.00237683  1
  Rh  Rh229  1  0.39502235  0.19340641  0.60495981  1
  Rh  Rh230  1  0.39947528  0.39910183  0.20256610  1
  Rh  Rh231  1  0.80696832  0.80118934  0.00089354  1
  Rh  Rh232  1  0.20496175  0.00612410  -0.00157642  1
  Rh  Rh233  1  0.80444291  0.00667272  0.19408215  1
  Rh  Rh234  1  0.39274771  -0.00260019  0.80135875  1
  Rh  Rh235  1  0.59926958  0.20548583  -0.00980500  1
  Rh  Rh236  1  0.40157926  0.80006164  0.18809234  1
  Rh  Rh237  1  0.60074700  0.59351250  0.60589759  1
  Rh  Rh238  1  0.20102869  0.80492929  0.60517558  1
  Rh  Rh239  1  0.19230474  0.40062529  0.61052581  1
  Rh  Rh240  1  0.00478275  0.80452976  0.79747340  1
  Rh  Rh241  1  0.59174225  0.00462953  0.78995086  1
  Rh  Rh242  1  0.79903806  0.79401280  0.39972721  1
  Rh  Rh243  1  0.20125111  0.79437247  -0.00365614  1
  Rh  Rh244  1  0.79803530  0.18604743  -0.01449916  1
  Rh  Rh245  1  0.59129132  0.79882707  0.80054784  1
  Rh  Rh246  1  -0.00616191  0.80458357  0.60628981  1
  Rh  Rh247  1  0.00001764  0.60157661  0.19645041  1
  Rh  Rh248  1  0.40160156  0.80336063  0.00068267  1
  Rh  Rh249  1  0.20372498  0.80165470  0.79952487  1
