# generated using pymatgen
data_ZrScNbPdRh
_symmetry_space_group_name_H-M   'P 1'
_cell_length_a   16.56258140
_cell_length_b   16.56287275
_cell_length_c   16.56569735
_cell_angle_alpha   90.00201725
_cell_angle_beta   90.02149012
_cell_angle_gamma   89.99230195
_symmetry_Int_Tables_number   1
_chemical_formula_structural   ZrScNbPdRh
_chemical_formula_sum   'Zr50 Sc50 Nb50 Pd50 Rh50'
_cell_volume   4544.36680584
_cell_formula_units_Z   50
loop_
 _symmetry_equiv_pos_site_id
 _symmetry_equiv_pos_as_xyz
  1  'x, y, z'
loop_
 _atom_site_type_symbol
 _atom_site_label
 _atom_site_symmetry_multiplicity
 _atom_site_fract_x
 _atom_site_fract_y
 _atom_site_fract_z
 _atom_site_occupancy
  Zr  Zr0  1  0.50341514  0.30503102  0.11305726  1
  Zr  Zr1  1  0.70461355  0.50167012  0.29285609  1
  Zr  Zr2  1  0.70001552  0.10084209  0.09752048  1
  Zr  Zr3  1  0.10285201  0.69539319  0.70466230  1
  Zr  Zr4  1  0.30071632  0.09859101  0.29561334  1
  Zr  Zr5  1  0.10149399  0.89908086  0.90494073  1
  Zr  Zr6  1  0.70817103  0.29566232  0.50731806  1
  Zr  Zr7  1  0.10169022  0.49474559  0.49209621  1
  Zr  Zr8  1  0.69910115  0.91204119  0.89863779  1
  Zr  Zr9  1  0.29710325  0.30134624  0.90076002  1
  Zr  Zr10  1  0.70433496  0.49332244  0.69998559  1
  Zr  Zr11  1  0.70083383  0.90639871  0.09943605  1
  Zr  Zr12  1  0.89439655  0.90078191  0.69267773  1
  Zr  Zr13  1  0.50762493  0.49586820  0.69571448  1
  Zr  Zr14  1  0.90215994  0.29562743  0.29971678  1
  Zr  Zr15  1  0.89440969  0.69777385  0.70853820  1
  Zr  Zr16  1  0.49859986  0.90906485  0.49546164  1
  Zr  Zr17  1  0.30017847  0.50279333  0.49211596  1
  Zr  Zr18  1  0.29482537  0.70761325  0.49376004  1
  Zr  Zr19  1  0.89344319  0.09874817  0.89837997  1
  Zr  Zr20  1  0.70906725  0.69473528  0.09852212  1
  Zr  Zr21  1  0.09888724  0.89610258  0.49884928  1
  Zr  Zr22  1  0.10025446  0.09857145  0.29675503  1
  Zr  Zr23  1  0.30315520  0.30672241  0.09487474  1
  Zr  Zr24  1  0.09540785  0.30421587  0.50112103  1
  Zr  Zr25  1  0.89211417  0.51640495  0.10490650  1
  Zr  Zr26  1  0.30152523  0.29509800  0.70635557  1
  Zr  Zr27  1  0.90726820  0.90655591  0.29732694  1
  Zr  Zr28  1  0.50516279  0.30392575  0.50588608  1
  Zr  Zr29  1  0.70170458  0.70026199  0.69572111  1
  Zr  Zr30  1  0.49988861  0.09884320  0.10176009  1
  Zr  Zr31  1  0.69636886  0.69985093  0.50185457  1
  Zr  Zr32  1  0.49858290  0.09207093  0.90418013  1
  Zr  Zr33  1  0.29747771  0.49587963  0.91211554  1
  Zr  Zr34  1  0.09325173  0.49774792  0.69631621  1
  Zr  Zr35  1  0.49168953  0.70604114  0.89701829  1
  Zr  Zr36  1  0.90779516  0.50135693  0.89934573  1
  Zr  Zr37  1  0.90476584  0.30387663  0.89342272  1
  Zr  Zr38  1  0.30112631  0.89288024  0.30214519  1
  Zr  Zr39  1  0.09816197  0.30057037  0.70014539  1
  Zr  Zr40  1  0.89778563  0.29304100  0.49035597  1
  Zr  Zr41  1  0.49548880  0.50175533  0.50018491  1
  Zr  Zr42  1  0.50180547  0.69136959  0.70419109  1
  Zr  Zr43  1  0.49651091  0.49534593  0.29912580  1
  Zr  Zr44  1  0.30331019  0.10610137  0.90307098  1
  Zr  Zr45  1  0.89999215  0.10782035  0.30535856  1
  Zr  Zr46  1  0.90308071  0.30573808  0.09795476  1
  Zr  Zr47  1  0.29320036  0.69993442  0.29529655  1
  Zr  Zr48  1  0.30147769  0.10114595  0.09868248  1
  Zr  Zr49  1  0.90691533  0.90044039  0.10409174  1
  Sc  Sc50  1  0.91378138  0.69414694  0.28776665  1
  Sc  Sc51  1  0.10645055  0.69457893  0.10703191  1
  Sc  Sc52  1  0.09671463  0.10859173  0.69570954  1
  Sc  Sc53  1  0.29486614  0.89174219  0.68886265  1
  Sc  Sc54  1  0.29788279  0.29713152  0.29463098  1
  Sc  Sc55  1  0.90080890  0.70328772  0.51311556  1
  Sc  Sc56  1  0.49786298  0.88840161  0.70548633  1
  Sc  Sc57  1  0.10457325  0.49932199  0.09798602  1
  Sc  Sc58  1  0.29160681  0.30651432  0.49663273  1
  Sc  Sc59  1  0.90088747  0.49351282  0.50419610  1
  Sc  Sc60  1  0.09729571  0.10568140  0.50508110  1
  Sc  Sc61  1  0.70830369  0.71048117  0.89678647  1
  Sc  Sc62  1  0.89434162  0.09678516  0.10766083  1
  Sc  Sc63  1  0.30513111  0.70418946  0.70585596  1
  Sc  Sc64  1  0.70824504  0.29488188  0.29490283  1
  Sc  Sc65  1  0.89715736  0.50187817  0.70035524  1
  Sc  Sc66  1  0.70259036  0.09781086  0.29054787  1
  Sc  Sc67  1  0.50379411  0.90309785  0.31016192  1
  Sc  Sc68  1  0.90562526  0.49926795  0.30018441  1
  Sc  Sc69  1  0.29184664  0.10193080  0.49955038  1
  Sc  Sc70  1  0.09762052  0.70135268  0.49371336  1
  Sc  Sc71  1  0.10041866  0.30771812  0.10233155  1
  Sc  Sc72  1  0.88953388  0.90049595  0.89943997  1
  Sc  Sc73  1  0.10609334  0.09371513  0.09953502  1
  Sc  Sc74  1  0.68779119  0.90026617  0.50327794  1
  Sc  Sc75  1  0.10536892  0.89857022  0.68998150  1
  Sc  Sc76  1  0.49841686  0.49873088  0.89462601  1
  Sc  Sc77  1  0.29713702  0.50455773  0.30227532  1
  Sc  Sc78  1  0.09504164  0.89367128  0.29387337  1
  Sc  Sc79  1  0.70148665  0.49361595  0.89846853  1
  Sc  Sc80  1  0.30245146  0.89017479  0.90936177  1
  Sc  Sc81  1  0.10286423  0.50713887  0.90285059  1
  Sc  Sc82  1  0.70233952  0.50079659  0.50680363  1
  Sc  Sc83  1  0.09571214  0.30223427  0.30376750  1
  Sc  Sc84  1  0.49259009  0.69940062  0.30574228  1
  Sc  Sc85  1  0.51139837  0.09616766  0.69290399  1
  Sc  Sc86  1  0.50447053  0.09555586  0.29751119  1
  Sc  Sc87  1  0.09669069  0.31099246  0.89582313  1
  Sc  Sc88  1  0.69986457  0.30743330  0.10262659  1
  Sc  Sc89  1  0.90336434  0.30405667  0.69733920  1
  Sc  Sc90  1  0.10106139  0.50715360  0.29890733  1
  Sc  Sc91  1  0.48898270  0.30036173  0.89456984  1
  Sc  Sc92  1  0.09819441  0.10353473  0.90353021  1
  Sc  Sc93  1  0.49890467  0.89835447  0.90551416  1
  Sc  Sc94  1  0.28788167  0.10455735  0.69341469  1
  Sc  Sc95  1  0.68984744  0.70241231  0.30567509  1
  Sc  Sc96  1  0.10535593  0.90306123  0.10590242  1
  Sc  Sc97  1  0.50426983  0.69870961  0.50158752  1
  Sc  Sc98  1  0.30707654  0.49985890  0.69968919  1
  Sc  Sc99  1  0.71031025  0.30568152  0.90184296  1
  Nb  Nb100  1  0.69575444  0.09741574  0.51099050  1
  Nb  Nb101  1  0.69864012  0.09873659  0.89661505  1
  Nb  Nb102  1  0.10471347  0.69714986  0.29709847  1
  Nb  Nb103  1  0.90638864  0.69869106  0.90228171  1
  Nb  Nb104  1  0.69011735  0.50180172  0.10033456  1
  Nb  Nb105  1  0.70192464  0.90474329  0.70449534  1
  Nb  Nb106  1  0.50525777  0.09472335  0.49720593  1
  Nb  Nb107  1  0.29471592  0.90275094  0.49830473  1
  Nb  Nb108  1  0.30509929  0.89307197  0.10698126  1
  Nb  Nb109  1  0.49781772  0.70500874  0.10021025  1
  Nb  Nb110  1  0.30702256  0.70654031  0.10502089  1
  Nb  Nb111  1  0.89523222  0.09666126  0.69631093  1
  Nb  Nb112  1  0.70550105  0.09351432  0.69439904  1
  Nb  Nb113  1  0.49278207  0.89546860  0.09443877  1
  Nb  Nb114  1  0.30249391  0.50342680  0.09971531  1
  Nb  Nb115  1  0.29141294  0.69602107  0.90713061  1
  Nb  Nb116  1  0.90017461  0.70011423  0.09661247  1
  Nb  Nb117  1  0.49898790  0.49823444  0.09999038  1
  Nb  Nb118  1  0.69668847  0.29599353  0.69592173  1
  Nb  Nb119  1  0.50728847  0.29876240  0.69606451  1
  Nb  Nb120  1  0.50583631  0.29323146  0.30162661  1
  Nb  Nb121  1  0.88861271  0.09682468  0.50602487  1
  Nb  Nb122  1  0.70260521  0.89862778  0.30160681  1
  Nb  Nb123  1  0.90244108  0.90459774  0.49603428  1
  Nb  Nb124  1  0.10469094  0.69885332  0.89858945  1
  Nb  Nb125  1  0.19898722  -0.00432784  0.39995061  1
  Nb  Nb126  1  0.40663352  0.19812581  0.59554481  1
  Nb  Nb127  1  0.39805672  -0.00744696  0.19516562  1
  Nb  Nb128  1  0.59443270  0.60094014  0.19123659  1
  Nb  Nb129  1  -0.00550365  0.20281281  -0.00021093  1
  Nb  Nb130  1  0.79416148  0.19422219  0.79204851  1
  Nb  Nb131  1  0.80174997  0.60840133  0.39977862  1
  Nb  Nb132  1  0.60177964  0.19977322  -0.00631892  1
  Nb  Nb133  1  0.80088585  -0.00249461  0.40696153  1
  Nb  Nb134  1  0.39028256  0.00012222  0.79445723  1
  Nb  Nb135  1  0.60091581  0.19803959  0.40585891  1
  Nb  Nb136  1  0.00061727  0.79052270  -0.00328228  1
  Nb  Nb137  1  0.59411909  0.60065657  0.00576368  1
  Nb  Nb138  1  0.60770343  0.19791963  0.79878638  1
  Nb  Nb139  1  0.20052848  -0.00095132  0.80178583  1
  Nb  Nb140  1  0.39822878  0.00213635  0.59641504  1
  Nb  Nb141  1  0.40885492  0.19834637  0.40427134  1
  Nb  Nb142  1  0.19962206  0.59958255  0.59750080  1
  Nb  Nb143  1  0.79906677  0.80003921  0.20369882  1
  Nb  Nb144  1  0.59845645  0.79999858  0.19421369  1
  Nb  Nb145  1  0.00149878  0.79835492  0.80597430  1
  Nb  Nb146  1  0.39992832  0.60314616  0.00918216  1
  Nb  Nb147  1  0.00067106  -0.00339364  0.79645385  1
  Nb  Nb148  1  0.60091277  0.39379974  0.39772560  1
  Nb  Nb149  1  0.80409698  0.80401418  0.39752372  1
  Pd  Pd150  1  0.40134870  0.59986001  0.19950053  1
  Pd  Pd151  1  0.20881504  -0.00304071  -0.00308066  1
  Pd  Pd152  1  0.19115965  0.19551276  0.80471988  1
  Pd  Pd153  1  0.20530974  0.40384430  0.60342245  1
  Pd  Pd154  1  0.00233490  0.59953336  0.59608116  1
  Pd  Pd155  1  0.60442701  0.80113381  0.80126857  1
  Pd  Pd156  1  0.59185873  -0.00953148  0.19963988  1
  Pd  Pd157  1  0.79586291  0.40868040  0.40086838  1
  Pd  Pd158  1  0.00440101  0.00297836  0.60345251  1
  Pd  Pd159  1  0.80381825  0.41013665  0.00501277  1
  Pd  Pd160  1  -0.00534442  0.79134858  0.39585334  1
  Pd  Pd161  1  0.39294202  0.60738702  0.59769184  1
  Pd  Pd162  1  0.80613708  0.80541197  0.00389064  1
  Pd  Pd163  1  0.39394926  0.39283525  0.60319008  1
  Pd  Pd164  1  0.79966221  0.20161647  -0.00166938  1
  Pd  Pd165  1  -0.00833671  0.20108631  0.59758805  1
  Pd  Pd166  1  0.59099314  -0.00152514  0.79470463  1
  Pd  Pd167  1  0.19504019  0.20581261  0.19441147  1
  Pd  Pd168  1  0.59265772  0.39597235  -0.00764782  1
  Pd  Pd169  1  0.20045678  0.80695164  0.79840912  1
  Pd  Pd170  1  0.00251139  0.79698898  0.60743894  1
  Pd  Pd171  1  0.40962000  0.20871137  0.00537321  1
  Pd  Pd172  1  0.80379874  0.40082546  0.19702187  1
  Pd  Pd173  1  0.20135940  0.19780995  0.39984009  1
  Pd  Pd174  1  0.20598110  0.59129982  0.79363866  1
  Pd  Pd175  1  0.39242090  0.59705125  0.80903027  1
  Pd  Pd176  1  0.79496974  0.80756721  0.59246946  1
  Pd  Pd177  1  0.60810370  0.60137677  0.81040312  1
  Pd  Pd178  1  0.40498184  0.80253887  0.59525005  1
  Pd  Pd179  1  0.60123132  0.38989795  0.80532742  1
  Pd  Pd180  1  0.00063344  0.40892397  0.20004184  1
  Pd  Pd181  1  -0.00777128  0.60377791  0.40413270  1
  Pd  Pd182  1  0.79255475  0.59488188  -0.01175179  1
  Pd  Pd183  1  0.00872468  0.60312815  0.00571986  1
  Pd  Pd184  1  0.41075016  0.18842374  0.78636141  1
  Pd  Pd185  1  0.00368931  0.00885002  0.40439408  1
  Pd  Pd186  1  0.18749715  0.20923626  0.00065409  1
  Pd  Pd187  1  0.40026291  0.39072112  0.39352658  1
  Pd  Pd188  1  0.39333596  0.39921745  0.20674054  1
  Pd  Pd189  1  -0.00469034  0.00261496  -0.00307284  1
  Pd  Pd190  1  0.60318015  0.59054207  0.39602626  1
  Pd  Pd191  1  0.19866991  0.40796932  0.79976277  1
  Pd  Pd192  1  0.40511064  0.79708777  0.40390522  1
  Pd  Pd193  1  0.19450763  0.79593854  0.01171678  1
  Pd  Pd194  1  0.79480327  0.59797516  0.80729957  1
  Pd  Pd195  1  0.00563089  0.19657974  0.18967709  1
  Pd  Pd196  1  0.59451106  0.80350741  0.60324231  1
  Pd  Pd197  1  0.20288263  0.40468000  0.20394922  1
  Pd  Pd198  1  0.60233069  0.79742772  0.00129354  1
  Pd  Pd199  1  0.40103843  0.40375170  0.79774128  1
  Rh  Rh200  1  0.39720168  0.60485012  0.40059426  1
  Rh  Rh201  1  -0.00063032  0.39974404  0.39511189  1
  Rh  Rh202  1  0.39402544  0.79269859  -0.00345867  1
  Rh  Rh203  1  0.80029269  0.59880355  0.59598677  1
  Rh  Rh204  1  0.59877968  0.19671527  0.60147433  1
  Rh  Rh205  1  0.20706100  -0.00704029  0.20753873  1
  Rh  Rh206  1  0.59985815  0.80171414  0.39697960  1
  Rh  Rh207  1  0.39345851  -0.00586087  0.00235559  1
  Rh  Rh208  1  0.38755375  0.00809027  0.40061643  1
  Rh  Rh209  1  0.00316906  0.00866517  0.19786560  1
  Rh  Rh210  1  0.19173113  0.80540777  0.39414775  1
  Rh  Rh211  1  0.19759887  0.60419646  0.40256213  1
  Rh  Rh212  1  0.60545049  0.40536682  0.59546890  1
  Rh  Rh213  1  0.80043032  0.00005811  0.00405813  1
  Rh  Rh214  1  -0.00474542  0.39772017  0.59761417  1
  Rh  Rh215  1  0.00193847  0.19535127  0.40594023  1
  Rh  Rh216  1  0.60013521  0.00283179  0.00242167  1
  Rh  Rh217  1  0.39094781  0.80371892  0.80530080  1
  Rh  Rh218  1  0.60135359  0.59694366  0.60175493  1
  Rh  Rh219  1  0.00646813  0.59749339  0.19473855  1
  Rh  Rh220  1  0.20726668  0.60487893  0.00967017  1
  Rh  Rh221  1  0.20451685  0.59781967  0.19691311  1
  Rh  Rh222  1  0.19676087  0.78784442  0.59690927  1
  Rh  Rh223  1  0.19754749  0.39964836  0.39040859  1
  Rh  Rh224  1  0.20271696  0.21228129  0.59862810  1
  Rh  Rh225  1  0.00060349  0.60178259  0.80208940  1
  Rh  Rh226  1  0.19537351  0.79814672  0.19938583  1
  Rh  Rh227  1  0.80387361  0.39564329  0.60310811  1
  Rh  Rh228  1  0.40406287  0.19241676  0.20612183  1
  Rh  Rh229  1  0.78865915  0.18456979  0.40265225  1
  Rh  Rh230  1  0.40489595  0.40195691  0.00153552  1
  Rh  Rh231  1  0.80144905  0.39374991  0.79377405  1
  Rh  Rh232  1  0.80554161  0.20157418  0.60630035  1
  Rh  Rh233  1  0.79375940  -0.00973017  0.59350247  1
  Rh  Rh234  1  0.19731014  0.39851439  0.00228386  1
  Rh  Rh235  1  0.79568211  0.60887234  0.20963433  1
  Rh  Rh236  1  0.80275110  0.80353550  0.80033923  1
  Rh  Rh237  1  -0.00019315  0.40179433  0.00072463  1
  Rh  Rh238  1  0.61584484  0.00912889  0.39648184  1
  Rh  Rh239  1  0.41111584  0.80776840  0.20814278  1
  Rh  Rh240  1  0.59566148  -0.01080057  0.60923125  1
  Rh  Rh241  1  0.80031101  0.20505090  0.19415630  1
  Rh  Rh242  1  0.80388482  -0.00356511  0.20591489  1
  Rh  Rh243  1  -0.00942620  0.19001834  0.80434291  1
  Rh  Rh244  1  0.60465677  0.20136529  0.19661960  1
  Rh  Rh245  1  0.00059606  0.40968511  0.79759058  1
  Rh  Rh246  1  0.60214291  0.40377137  0.20926956  1
  Rh  Rh247  1  0.80380337  0.00237921  0.79440297  1
  Rh  Rh248  1  0.00106880  0.79241562  0.19022154  1
  Rh  Rh249  1  0.20116719  0.00103739  0.59604669  1
