# generated using pymatgen
data_ZrScNbPdRh
_symmetry_space_group_name_H-M   'P 1'
_cell_length_a   16.55857058
_cell_length_b   16.55392999
_cell_length_c   16.55546007
_cell_angle_alpha   90.00027824
_cell_angle_beta   89.96988903
_cell_angle_gamma   89.99441303
_symmetry_Int_Tables_number   1
_chemical_formula_structural   ZrScNbPdRh
_chemical_formula_sum   'Zr50 Sc50 Nb50 Pd50 Rh50'
_cell_volume   4538.00687883
_cell_formula_units_Z   50
loop_
 _symmetry_equiv_pos_site_id
 _symmetry_equiv_pos_as_xyz
  1  'x, y, z'
loop_
 _atom_site_type_symbol
 _atom_site_label
 _atom_site_symmetry_multiplicity
 _atom_site_fract_x
 _atom_site_fract_y
 _atom_site_fract_z
 _atom_site_occupancy
  Zr  Zr0  1  0.29502673  0.10582743  0.49983804  1
  Zr  Zr1  1  0.50415149  0.91094784  0.50245996  1
  Zr  Zr2  1  0.70440375  0.49722158  0.49929801  1
  Zr  Zr3  1  0.89609613  0.70153204  0.90953856  1
  Zr  Zr4  1  0.70031510  0.10417558  0.29857409  1
  Zr  Zr5  1  0.09240811  0.90159344  0.10871867  1
  Zr  Zr6  1  0.89967230  0.29966769  0.90715497  1
  Zr  Zr7  1  0.91248072  0.30489124  0.10118376  1
  Zr  Zr8  1  0.09911627  0.48785788  0.10635213  1
  Zr  Zr9  1  0.30063868  0.50010473  0.49525386  1
  Zr  Zr10  1  0.29682974  0.69762577  0.29718366  1
  Zr  Zr11  1  0.50159283  0.69466432  0.29384404  1
  Zr  Zr12  1  0.90640897  0.09233853  0.10013339  1
  Zr  Zr13  1  0.10414390  0.30069446  0.28903419  1
  Zr  Zr14  1  0.09981335  0.29062490  0.70041590  1
  Zr  Zr15  1  0.49567112  0.69256452  0.50096096  1
  Zr  Zr16  1  0.89976313  0.29997045  0.50023907  1
  Zr  Zr17  1  0.30122786  0.91021160  0.70724400  1
  Zr  Zr18  1  0.89939265  0.89503860  0.49331020  1
  Zr  Zr19  1  0.10188989  0.70218323  0.89762576  1
  Zr  Zr20  1  0.30337225  0.69107562  0.10243755  1
  Zr  Zr21  1  0.30020431  0.50414416  0.70483649  1
  Zr  Zr22  1  0.90271969  0.50580232  0.10102129  1
  Zr  Zr23  1  0.10638685  0.69713893  0.29917437  1
  Zr  Zr24  1  0.89895964  0.49842309  0.51276925  1
  Zr  Zr25  1  0.49375613  0.70047572  0.70361358  1
  Zr  Zr26  1  0.70190912  0.69027864  0.29468793  1
  Zr  Zr27  1  0.69605377  0.90025508  0.69610566  1
  Zr  Zr28  1  0.50166169  0.90929571  0.09965669  1
  Zr  Zr29  1  0.10262408  0.10674672  0.89129433  1
  Zr  Zr30  1  0.69582348  0.30460958  0.10153038  1
  Zr  Zr31  1  0.89926955  0.10018096  0.90747392  1
  Zr  Zr32  1  0.69885768  0.50191642  0.30016968  1
  Zr  Zr33  1  0.50105734  0.90880636  0.29472509  1
  Zr  Zr34  1  0.50071568  0.10485633  0.29593968  1
  Zr  Zr35  1  0.70045214  0.10017420  0.90698798  1
  Zr  Zr36  1  0.70207038  0.89997611  0.30377414  1
  Zr  Zr37  1  0.70443641  0.69695099  0.49043373  1
  Zr  Zr38  1  0.09875237  0.70239580  0.10421849  1
  Zr  Zr39  1  0.29589002  0.70285307  0.90672302  1
  Zr  Zr40  1  0.10048367  0.50353371  0.49649033  1
  Zr  Zr41  1  0.90245461  0.70030807  0.49617851  1
  Zr  Zr42  1  0.48991488  0.49230658  0.09862893  1
  Zr  Zr43  1  0.30421041  0.69555155  0.50221232  1
  Zr  Zr44  1  0.49884082  0.10214558  0.10506212  1
  Zr  Zr45  1  0.69570007  0.69726797  0.90787452  1
  Zr  Zr46  1  0.30001160  0.09669075  0.89372482  1
  Zr  Zr47  1  0.89536883  0.30078846  0.69090899  1
  Zr  Zr48  1  0.10578022  0.50018991  0.30053459  1
  Zr  Zr49  1  0.10234047  0.10371963  0.10731894  1
  Sc  Sc50  1  0.50270392  0.49620086  0.29315384  1
  Sc  Sc51  1  0.90137876  0.69594501  0.30107382  1
  Sc  Sc52  1  0.70448404  0.90292558  0.49492519  1
  Sc  Sc53  1  0.10099460  0.89981923  0.29836662  1
  Sc  Sc54  1  0.10509422  0.50396885  0.90668289  1
  Sc  Sc55  1  0.09629228  0.50117000  0.69889089  1
  Sc  Sc56  1  0.89673812  0.29201934  0.30074760  1
  Sc  Sc57  1  0.50205792  0.49430981  0.90764746  1
  Sc  Sc58  1  0.10247210  0.89568113  0.89740971  1
  Sc  Sc59  1  0.29785959  0.50160098  0.29219214  1
  Sc  Sc60  1  0.50049837  0.70130180  0.09668189  1
  Sc  Sc61  1  0.50749930  0.29083600  0.50317346  1
  Sc  Sc62  1  0.29915673  0.10381375  0.29779605  1
  Sc  Sc63  1  0.69412039  0.90209859  0.09101411  1
  Sc  Sc64  1  0.29453318  0.29611233  0.29796132  1
  Sc  Sc65  1  0.10216021  0.09990116  0.49736650  1
  Sc  Sc66  1  0.50063213  0.30170853  0.88860032  1
  Sc  Sc67  1  0.30345695  0.89385933  0.10110860  1
  Sc  Sc68  1  0.49437774  0.30936907  0.10271072  1
  Sc  Sc69  1  0.29780407  0.90713085  0.50538470  1
  Sc  Sc70  1  0.30155214  0.29248421  0.90414459  1
  Sc  Sc71  1  0.50557499  0.10635313  0.69036086  1
  Sc  Sc72  1  0.29313582  0.90189731  0.29950931  1
  Sc  Sc73  1  0.90930265  0.89205251  0.68627101  1
  Sc  Sc74  1  0.70364684  0.30235158  0.49757446  1
  Sc  Sc75  1  0.68447718  0.29607508  0.69514117  1
  Sc  Sc76  1  0.89897394  0.70071500  0.69683145  1
  Sc  Sc77  1  0.89463707  0.50375678  0.90912513  1
  Sc  Sc78  1  0.10082635  0.09764968  0.69529325  1
  Sc  Sc79  1  0.50381563  0.49471758  0.70849625  1
  Sc  Sc80  1  0.09950753  0.89563231  0.69566773  1
  Sc  Sc81  1  0.90512916  0.10313795  0.49848653  1
  Sc  Sc82  1  0.90376129  0.50465375  0.30120038  1
  Sc  Sc83  1  0.49514008  0.89644972  0.90184691  1
  Sc  Sc84  1  0.90193993  0.89868745  0.92173886  1
  Sc  Sc85  1  0.49472851  0.09854025  0.90675529  1
  Sc  Sc86  1  0.10587684  0.09883139  0.29961275  1
  Sc  Sc87  1  0.90545203  0.10451525  0.30229832  1
  Sc  Sc88  1  0.69204135  0.50214907  0.09150249  1
  Sc  Sc89  1  0.09530098  0.90308164  0.50022149  1
  Sc  Sc90  1  0.69648776  0.09684242  0.10199642  1
  Sc  Sc91  1  0.49613901  0.09742048  0.49766223  1
  Sc  Sc92  1  0.69709403  0.29691863  0.30195764  1
  Sc  Sc93  1  0.69964524  0.69269002  0.71688159  1
  Sc  Sc94  1  0.50191402  0.50092411  0.49819520  1
  Sc  Sc95  1  0.49318110  0.90129961  0.70102518  1
  Sc  Sc96  1  0.69045490  0.10022584  0.49944171  1
  Sc  Sc97  1  0.29969674  0.70904469  0.70247814  1
  Sc  Sc98  1  0.09785658  0.70272835  0.49547883  1
  Sc  Sc99  1  0.30345562  0.28571246  0.70538554  1
  Nb  Nb100  1  0.30623921  0.49165827  0.09115306  1
  Nb  Nb101  1  0.70636758  0.50368582  0.70449416  1
  Nb  Nb102  1  0.30461562  0.10906073  0.09006304  1
  Nb  Nb103  1  0.30103727  0.50451208  0.90403795  1
  Nb  Nb104  1  0.70931274  0.69972534  0.09866281  1
  Nb  Nb105  1  0.30210695  0.90867032  0.89870274  1
  Nb  Nb106  1  0.29131859  0.09691876  0.70146036  1
  Nb  Nb107  1  0.90681238  0.89453710  0.10710646  1
  Nb  Nb108  1  0.89379117  0.49895635  0.70372527  1
  Nb  Nb109  1  0.29481405  0.30011607  0.49853280  1
  Nb  Nb110  1  0.11018890  0.30085598  0.49647864  1
  Nb  Nb111  1  0.49774039  0.69680958  0.89434654  1
  Nb  Nb112  1  0.69960202  0.09962976  0.70414625  1
  Nb  Nb113  1  0.89726525  0.10096539  0.69979250  1
  Nb  Nb114  1  0.69976988  0.30093297  0.90141705  1
  Nb  Nb115  1  0.09670683  0.30386851  0.89826511  1
  Nb  Nb116  1  0.29667495  0.30227281  0.10299978  1
  Nb  Nb117  1  0.70021662  0.90447856  0.90142531  1
  Nb  Nb118  1  0.89915210  0.89820574  0.29664424  1
  Nb  Nb119  1  0.10164562  0.69857100  0.70637915  1
  Nb  Nb120  1  0.10519143  0.30371384  0.09892048  1
  Nb  Nb121  1  0.69811417  0.50361057  0.88999412  1
  Nb  Nb122  1  0.49637794  0.29941432  0.29095878  1
  Nb  Nb123  1  0.49939595  0.29935858  0.69736304  1
  Nb  Nb124  1  0.89573950  0.70528976  0.09598838  1
  Nb  Nb125  1  0.60007978  0.79277993  0.59600271  1
  Nb  Nb126  1  0.19732682  0.39823138  0.80177170  1
  Nb  Nb127  1  0.40521659  0.80117621  0.39882175  1
  Nb  Nb128  1  0.60110774  0.20684037  -0.00139123  1
  Nb  Nb129  1  0.39675844  0.60128053  0.81026439  1
  Nb  Nb130  1  0.20425108  0.39801488  0.60205224  1
  Nb  Nb131  1  -0.00224689  0.59797429  0.79866539  1
  Nb  Nb132  1  0.79737604  0.80993620  0.80822396  1
  Nb  Nb133  1  0.79998198  0.40302335  0.19701619  1
  Nb  Nb134  1  0.39736937  0.39246247  0.59952285  1
  Nb  Nb135  1  0.79556143  0.19993292  0.79940689  1
  Nb  Nb136  1  0.59420723  0.79736595  0.39987371  1
  Nb  Nb137  1  0.80302939  0.80039144  0.19455825  1
  Nb  Nb138  1  -0.00994092  0.00215350  0.79793448  1
  Nb  Nb139  1  0.80272015  -0.00129455  0.79796466  1
  Nb  Nb140  1  0.80132787  0.00471833  0.60555747  1
  Nb  Nb141  1  0.60662206  0.00223116  0.80133483  1
  Nb  Nb142  1  0.19975874  0.60034523  0.60286692  1
  Nb  Nb143  1  0.79658685  0.39877585  0.79957697  1
  Nb  Nb144  1  0.39887035  0.39087428  0.40245219  1
  Nb  Nb145  1  -0.00339811  0.40212202  0.80087851  1
  Nb  Nb146  1  0.00572971  0.39624817  0.40429678  1
  Nb  Nb147  1  0.80660778  -0.00769399  0.19991656  1
  Nb  Nb148  1  0.20619762  0.00342740  -0.00060812  1
  Nb  Nb149  1  0.60411696  0.60030322  0.60432000  1
  Pd  Pd150  1  0.20966439  0.00229321  0.19198884  1
  Pd  Pd151  1  0.39791161  0.19950200  0.60044943  1
  Pd  Pd152  1  0.80403605  0.19987218  0.19349317  1
  Pd  Pd153  1  0.19544857  0.00019627  0.59858908  1
  Pd  Pd154  1  0.39907564  0.80079790  0.20461047  1
  Pd  Pd155  1  0.20275942  0.39677073  -0.00637436  1
  Pd  Pd156  1  0.39287687  0.40149658  0.80081198  1
  Pd  Pd157  1  0.39215810  -0.00209896  0.39799033  1
  Pd  Pd158  1  0.59666537  0.59546511  0.18723073  1
  Pd  Pd159  1  0.60479460  0.39950168  0.80014765  1
  Pd  Pd160  1  0.79467949  0.60850247  0.60310679  1
  Pd  Pd161  1  0.00420884  0.80050429  0.39291172  1
  Pd  Pd162  1  0.00963540  0.39746272  0.60080543  1
  Pd  Pd163  1  0.00984749  0.20131001  0.00496766  1
  Pd  Pd164  1  0.00545857  0.19426293  0.59425561  1
  Pd  Pd165  1  0.60775808  0.80048386  0.19924904  1
  Pd  Pd166  1  0.19593475  0.79578617  0.59840285  1
  Pd  Pd167  1  0.40254423  0.80137735  -0.00047232  1
  Pd  Pd168  1  0.41004529  0.21057935  0.00168608  1
  Pd  Pd169  1  0.79521403  0.40763125  0.00090604  1
  Pd  Pd170  1  0.00456358  0.60698127  0.60684020  1
  Pd  Pd171  1  0.79267846  0.79779570  0.60611173  1
  Pd  Pd172  1  0.40206119  0.59313923  0.38810318  1
  Pd  Pd173  1  0.59066241  0.39523944  0.39631864  1
  Pd  Pd174  1  0.19661547  0.19931946  -0.00092388  1
  Pd  Pd175  1  0.59834939  0.20173761  0.39979476  1
  Pd  Pd176  1  0.80965363  0.40062306  0.39084745  1
  Pd  Pd177  1  0.79039516  0.19557875  0.59686380  1
  Pd  Pd178  1  0.59367593  0.59903036  0.00304551  1
  Pd  Pd179  1  0.40015492  0.20616802  0.39699450  1
  Pd  Pd180  1  0.20502517  0.80750563  0.79878473  1
  Pd  Pd181  1  0.40658822  0.19096385  0.79633601  1
  Pd  Pd182  1  0.41358892  0.01007447  0.79386376  1
  Pd  Pd183  1  0.59636423  0.79940843  -0.00034819  1
  Pd  Pd184  1  0.00876726  0.20630880  0.39878998  1
  Pd  Pd185  1  0.19860444  0.80981698  0.00559255  1
  Pd  Pd186  1  0.38889434  0.00518649  0.19704578  1
  Pd  Pd187  1  0.80506780  0.01070050  0.40148078  1
  Pd  Pd188  1  0.01438403  -0.00168178  -0.00666112  1
  Pd  Pd189  1  -0.01092712  0.80127746  0.80198686  1
  Pd  Pd190  1  -0.00857579  0.20060877  0.79818416  1
  Pd  Pd191  1  0.40246594  0.81015455  0.59447946  1
  Pd  Pd192  1  0.00505675  0.60033618  -0.00247433  1
  Pd  Pd193  1  0.20685519  0.80457475  0.40524428  1
  Pd  Pd194  1  0.79492290  0.19992514  0.00820906  1
  Pd  Pd195  1  0.19587873  0.59615019  0.00966635  1
  Pd  Pd196  1  -0.00069435  0.60509569  0.20112762  1
  Pd  Pd197  1  0.59680150  0.40543126  0.60088594  1
  Pd  Pd198  1  0.60129174  0.80596621  0.79881362  1
  Pd  Pd199  1  0.00222214  -0.00133664  0.39576409  1
  Rh  Rh200  1  0.20188607  0.60553211  0.40432052  1
  Rh  Rh201  1  -0.00606052  0.00170123  0.60130438  1
  Rh  Rh202  1  0.00759675  0.79435143  0.59540600  1
  Rh  Rh203  1  0.60005302  0.19513760  0.80739698  1
  Rh  Rh204  1  0.19802690  0.19710611  0.39575874  1
  Rh  Rh205  1  0.59205364  0.00588092  -0.00584686  1
  Rh  Rh206  1  0.59847756  0.59915609  0.40392188  1
  Rh  Rh207  1  0.20017250  0.00215796  0.40108086  1
  Rh  Rh208  1  0.79416895  0.59573026  0.00212097  1
  Rh  Rh209  1  0.78742042  0.39617726  0.60932825  1
  Rh  Rh210  1  0.80154145  0.59886959  0.19175851  1
  Rh  Rh211  1  0.00570657  0.40306265  -0.00606295  1
  Rh  Rh212  1  0.18875644  -0.00404397  0.80169808  1
  Rh  Rh213  1  0.20226698  0.20471595  0.80031623  1
  Rh  Rh214  1  0.60161209  0.19805671  0.59613276  1
  Rh  Rh215  1  0.39310840  -0.00379044  0.00500865  1
  Rh  Rh216  1  0.59003079  0.59611182  0.79901652  1
  Rh  Rh217  1  0.20084082  0.20002118  0.60115904  1
  Rh  Rh218  1  0.20898207  0.40237754  0.19668179  1
  Rh  Rh219  1  0.39215365  0.79613122  0.80915405  1
  Rh  Rh220  1  0.80265799  -0.00604502  0.01063093  1
  Rh  Rh221  1  0.20270468  0.59134103  0.19023246  1
  Rh  Rh222  1  0.79740839  0.19669630  0.40597894  1
  Rh  Rh223  1  0.60320713  -0.00210544  0.60318095  1
  Rh  Rh224  1  0.20024019  0.79983050  0.19740369  1
  Rh  Rh225  1  0.19796993  0.59642008  0.79590182  1
  Rh  Rh226  1  0.00342430  0.20124695  0.19941181  1
  Rh  Rh227  1  0.79665107  0.79238820  0.38779721  1
  Rh  Rh228  1  0.60722064  0.40094081  0.20505281  1
  Rh  Rh229  1  -0.00398996  0.79241604  0.20591875  1
  Rh  Rh230  1  -0.00435741  0.00377056  0.21033249  1
  Rh  Rh231  1  0.59945980  0.00115821  0.39527812  1
  Rh  Rh232  1  0.80881693  0.60188329  0.80765631  1
  Rh  Rh233  1  0.39164804  0.39662578  0.20808009  1
  Rh  Rh234  1  0.59880453  0.39510132  -0.00750684  1
  Rh  Rh235  1  0.39435923  0.01063295  0.60562233  1
  Rh  Rh236  1  0.20479164  0.19991084  0.19498387  1
  Rh  Rh237  1  -0.00193996  0.59474430  0.40139116  1
  Rh  Rh238  1  0.00897458  0.79893282  0.00306540  1
  Rh  Rh239  1  0.60962085  0.00200287  0.20227596  1
  Rh  Rh240  1  0.80961361  0.59346375  0.40373110  1
  Rh  Rh241  1  0.20093151  0.39818285  0.39893404  1
  Rh  Rh242  1  0.40428368  0.60060780  -0.00422093  1
  Rh  Rh243  1  0.40532160  0.58880321  0.61552742  1
  Rh  Rh244  1  0.79389441  0.80577313  0.00292140  1
  Rh  Rh245  1  0.59440852  0.20654058  0.19332394  1
  Rh  Rh246  1  0.39504782  0.39313217  -0.00786734  1
  Rh  Rh247  1  0.39452253  0.20390159  0.19657466  1
  Rh  Rh248  1  0.40074226  0.59394660  0.19600850  1
  Rh  Rh249  1  -0.00893803  0.39619278  0.21252395  1
