# generated using pymatgen
data_ZrScNbPdRh
_symmetry_space_group_name_H-M   'P 1'
_cell_length_a   16.56235878
_cell_length_b   16.55881047
_cell_length_c   16.56081009
_cell_angle_alpha   89.97719933
_cell_angle_beta   90.00565678
_cell_angle_gamma   90.06347989
_symmetry_Int_Tables_number   1
_chemical_formula_structural   ZrScNbPdRh
_chemical_formula_sum   'Zr50 Sc50 Nb50 Pd50 Rh50'
_cell_volume   4541.84801903
_cell_formula_units_Z   50
loop_
 _symmetry_equiv_pos_site_id
 _symmetry_equiv_pos_as_xyz
  1  'x, y, z'
loop_
 _atom_site_type_symbol
 _atom_site_label
 _atom_site_symmetry_multiplicity
 _atom_site_fract_x
 _atom_site_fract_y
 _atom_site_fract_z
 _atom_site_occupancy
  Zr  Zr0  1  0.50126282  0.10639928  0.30356911  1
  Zr  Zr1  1  0.30184410  0.50920770  0.10048191  1
  Zr  Zr2  1  0.09651484  0.28796502  0.29712384  1
  Zr  Zr3  1  0.49069218  0.90751791  0.49432034  1
  Zr  Zr4  1  0.71246846  0.30003685  0.49998515  1
  Zr  Zr5  1  0.09424622  0.50023406  0.70197906  1
  Zr  Zr6  1  0.28943211  0.29396603  0.90149557  1
  Zr  Zr7  1  0.09860150  0.09957539  0.30280718  1
  Zr  Zr8  1  0.71297542  0.50093449  0.89714165  1
  Zr  Zr9  1  0.50440470  0.70539004  0.31116873  1
  Zr  Zr10  1  0.10388769  0.70060693  0.70905713  1
  Zr  Zr11  1  0.29988881  0.29619967  0.10091724  1
  Zr  Zr12  1  0.29618169  0.90312838  0.49852642  1
  Zr  Zr13  1  0.49795157  0.30069743  0.10458242  1
  Zr  Zr14  1  0.70208168  0.70955068  0.29580913  1
  Zr  Zr15  1  0.70186522  0.90904433  0.50823929  1
  Zr  Zr16  1  0.91136735  0.09895993  0.69709745  1
  Zr  Zr17  1  0.49405684  0.49828421  0.09943266  1
  Zr  Zr18  1  0.10200236  0.69646519  0.90073599  1
  Zr  Zr19  1  0.50189675  0.30924074  0.89347147  1
  Zr  Zr20  1  0.29723553  0.69469575  0.90842005  1
  Zr  Zr21  1  0.89894273  0.49426672  0.49852381  1
  Zr  Zr22  1  0.10379252  0.69704013  0.09652237  1
  Zr  Zr23  1  0.30814094  0.09746486  0.50557466  1
  Zr  Zr24  1  0.31043423  0.49604276  0.70031472  1
  Zr  Zr25  1  0.69879146  0.10807954  0.30760484  1
  Zr  Zr26  1  0.90900904  0.09971609  0.30159611  1
  Zr  Zr27  1  0.30205738  0.49570367  0.29635265  1
  Zr  Zr28  1  0.70779764  0.70618109  0.09750956  1
  Zr  Zr29  1  0.70308411  0.09642586  0.69821532  1
  Zr  Zr30  1  0.70093409  0.89800327  0.70576834  1
  Zr  Zr31  1  0.89176064  0.10213487  0.50101909  1
  Zr  Zr32  1  0.89716833  0.70475767  0.30332372  1
  Zr  Zr33  1  0.69649822  0.89296486  0.90525044  1
  Zr  Zr34  1  0.90434185  0.90513695  0.89653718  1
  Zr  Zr35  1  0.09314644  0.30442832  0.90829936  1
  Zr  Zr36  1  0.69685314  0.89430236  0.10149470  1
  Zr  Zr37  1  0.08380136  0.49664586  0.09392523  1
  Zr  Zr38  1  0.29795111  0.11210882  0.30213005  1
  Zr  Zr39  1  0.69347431  0.10436567  0.49915540  1
  Zr  Zr40  1  0.90824722  0.30087177  0.09879813  1
  Zr  Zr41  1  0.10622860  0.10683525  0.88977518  1
  Zr  Zr42  1  0.89505601  0.29246649  0.89758400  1
  Zr  Zr43  1  0.09054320  0.29576860  0.70330105  1
  Zr  Zr44  1  0.10044546  0.89579894  0.10151270  1
  Zr  Zr45  1  0.50870232  0.90448263  0.09699021  1
  Zr  Zr46  1  0.09301104  0.50322231  0.89880174  1
  Zr  Zr47  1  0.09234119  0.90739097  0.69692790  1
  Zr  Zr48  1  0.90451639  0.89570756  0.50906235  1
  Zr  Zr49  1  0.49066307  0.09935546  0.10237814  1
  Sc  Sc50  1  0.10012584  0.89958365  0.49644363  1
  Sc  Sc51  1  0.50129148  0.70006517  0.70991990  1
  Sc  Sc52  1  0.09354137  0.49891497  0.29871185  1
  Sc  Sc53  1  0.90080177  0.30082027  0.30791559  1
  Sc  Sc54  1  0.50658072  0.90425857  0.29559993  1
  Sc  Sc55  1  0.50438995  0.70030052  0.10246902  1
  Sc  Sc56  1  0.09558860  0.89741139  0.30282045  1
  Sc  Sc57  1  0.29561694  0.90851321  0.09653917  1
  Sc  Sc58  1  0.10185221  0.90047636  0.90010100  1
  Sc  Sc59  1  0.68941455  0.69200244  0.48743974  1
  Sc  Sc60  1  0.89527424  0.49857514  0.29622363  1
  Sc  Sc61  1  0.50715061  0.50172720  0.50057244  1
  Sc  Sc62  1  0.29444637  0.90633867  0.89920655  1
  Sc  Sc63  1  0.30074192  0.90652822  0.70224383  1
  Sc  Sc64  1  0.50764418  0.90381218  0.89955952  1
  Sc  Sc65  1  0.70769330  0.30125881  0.09966835  1
  Sc  Sc66  1  0.10127572  0.70796062  0.29649265  1
  Sc  Sc67  1  0.30043312  0.70375999  0.47673727  1
  Sc  Sc68  1  0.70506168  0.70328851  0.70642738  1
  Sc  Sc69  1  0.49912898  0.90405184  0.71168628  1
  Sc  Sc70  1  0.49656473  0.70170479  0.90035256  1
  Sc  Sc71  1  0.49813735  0.09211404  0.70562839  1
  Sc  Sc72  1  0.49998461  0.30776280  0.70223134  1
  Sc  Sc73  1  0.31179471  0.29157085  0.50084166  1
  Sc  Sc74  1  0.50172542  0.49323813  0.70243918  1
  Sc  Sc75  1  0.69650994  0.09837402  0.09248897  1
  Sc  Sc76  1  0.89910622  0.71125421  0.70193337  1
  Sc  Sc77  1  0.49843373  0.49168691  0.30019830  1
  Sc  Sc78  1  0.08828355  0.50169861  0.50280115  1
  Sc  Sc79  1  0.90069578  0.10069237  0.08691539  1
  Sc  Sc80  1  0.90545748  0.89887203  0.09459339  1
  Sc  Sc81  1  0.10040769  0.09259927  0.49536420  1
  Sc  Sc82  1  0.29885519  0.09393437  0.70367291  1
  Sc  Sc83  1  0.69669852  0.30357631  0.30589075  1
  Sc  Sc84  1  0.49434197  0.29842405  0.29989918  1
  Sc  Sc85  1  0.09352776  0.69824347  0.49174923  1
  Sc  Sc86  1  0.31266850  0.29834770  0.69533929  1
  Sc  Sc87  1  0.30616056  0.49792123  0.49471424  1
  Sc  Sc88  1  0.30999131  0.50324057  0.90351295  1
  Sc  Sc89  1  0.30270668  0.70197365  0.72156173  1
  Sc  Sc90  1  0.29090028  0.69399313  0.29515366  1
  Sc  Sc91  1  0.70577036  0.29700571  0.88673578  1
  Sc  Sc92  1  0.69794948  0.49511641  0.49380292  1
  Sc  Sc93  1  0.70103592  0.49431563  0.69411697  1
  Sc  Sc94  1  0.70376354  0.10497768  0.89707605  1
  Sc  Sc95  1  0.90639021  0.89109350  0.29988831  1
  Sc  Sc96  1  0.89395792  0.69720866  0.89583458  1
  Sc  Sc97  1  0.09186530  0.10408479  0.10120463  1
  Sc  Sc98  1  0.90425597  0.50077348  0.70241577  1
  Sc  Sc99  1  0.90303582  0.50139139  0.89630033  1
  Nb  Nb100  1  0.90649322  0.69408172  0.10654679  1
  Nb  Nb101  1  0.69965415  0.70064792  0.89753436  1
  Nb  Nb102  1  0.70521374  0.50005645  0.10277646  1
  Nb  Nb103  1  0.69681457  0.50066072  0.29872948  1
  Nb  Nb104  1  0.50505744  0.50081768  0.89882297  1
  Nb  Nb105  1  0.29247216  0.29934968  0.30092042  1
  Nb  Nb106  1  0.70392679  0.29670783  0.69723049  1
  Nb  Nb107  1  0.29960405  0.70059444  0.10134895  1
  Nb  Nb108  1  0.90013121  0.30299323  0.50879854  1
  Nb  Nb109  1  0.89632084  0.69593276  0.49856945  1
  Nb  Nb110  1  0.10469711  0.10064957  0.69651290  1
  Nb  Nb111  1  0.30027148  0.10044210  0.90730259  1
  Nb  Nb112  1  0.49970103  0.70383431  0.50062391  1
  Nb  Nb113  1  0.89660212  0.10149572  0.89886625  1
  Nb  Nb114  1  0.29438957  0.89044454  0.30055160  1
  Nb  Nb115  1  0.09385072  0.30668598  0.09954054  1
  Nb  Nb116  1  0.30009209  0.09711293  0.09709864  1
  Nb  Nb117  1  0.70682257  0.89872406  0.29301101  1
  Nb  Nb118  1  0.50174170  0.09935184  0.90270323  1
  Nb  Nb119  1  0.89409110  0.29904016  0.68862981  1
  Nb  Nb120  1  0.10071721  0.30269649  0.50098337  1
  Nb  Nb121  1  0.89816050  0.90410930  0.69786398  1
  Nb  Nb122  1  0.89563938  0.50207142  0.10124036  1
  Nb  Nb123  1  0.49605102  0.29069792  0.50938769  1
  Nb  Nb124  1  0.49536470  0.10547999  0.49994687  1
  Nb  Nb125  1  0.39430210  0.80119327  0.19716153  1
  Nb  Nb126  1  0.79924699  0.00072984  0.20373311  1
  Nb  Nb127  1  0.60470494  0.40527012  -0.00146964  1
  Nb  Nb128  1  0.60834470  0.59499644  0.19890547  1
  Nb  Nb129  1  0.19825433  0.39105769  0.39979498  1
  Nb  Nb130  1  0.19822644  0.39801565  0.59853278  1
  Nb  Nb131  1  0.79923973  -0.00331830  0.39489797  1
  Nb  Nb132  1  0.39937673  0.19358163  0.81116378  1
  Nb  Nb133  1  0.59323635  0.20623596  -0.00419197  1
  Nb  Nb134  1  0.20757368  0.60288818  0.60046684  1
  Nb  Nb135  1  0.80363793  0.19343476  0.20199230  1
  Nb  Nb136  1  0.39900987  0.79551826  0.59720300  1
  Nb  Nb137  1  0.39645180  0.79975196  0.00753067  1
  Nb  Nb138  1  0.59782893  0.19983744  0.59965992  1
  Nb  Nb139  1  0.60799770  0.59508762  0.00060276  1
  Nb  Nb140  1  0.19553418  0.20118888  0.60137736  1
  Nb  Nb141  1  0.20262109  0.00441888  0.20164761  1
  Nb  Nb142  1  0.39892491  0.61200673  0.59745610  1
  Nb  Nb143  1  0.20563240  0.79202245  0.60108668  1
  Nb  Nb144  1  0.59138224  0.79958581  0.59687171  1
  Nb  Nb145  1  0.60589110  0.59657577  0.80904793  1
  Nb  Nb146  1  0.80295910  0.60309020  0.59354857  1
  Nb  Nb147  1  0.19566371  0.39423025  0.19816162  1
  Nb  Nb148  1  0.19764765  0.39751597  0.79657947  1
  Nb  Nb149  1  0.80703831  -0.00191125  0.79880058  1
  Pd  Pd150  1  0.60245538  0.40137502  0.19619273  1
  Pd  Pd151  1  0.79821028  0.60163187  0.20376439  1
  Pd  Pd152  1  0.19066674  0.19443539  0.00911735  1
  Pd  Pd153  1  0.19328508  0.58794217  0.40528551  1
  Pd  Pd154  1  0.60748691  0.00895269  0.20091530  1
  Pd  Pd155  1  0.60080361  0.39135723  0.59730668  1
  Pd  Pd156  1  0.60200305  0.60862027  0.61139405  1
  Pd  Pd157  1  0.00889008  0.79272817  0.59896099  1
  Pd  Pd158  1  0.01102134  0.00640895  -0.00748021  1
  Pd  Pd159  1  0.39579115  0.00072894  0.38752635  1
  Pd  Pd160  1  0.60378232  -0.00446051  0.39620549  1
  Pd  Pd161  1  0.00262179  0.39800563  0.39734979  1
  Pd  Pd162  1  0.40046610  0.39379638  0.40517230  1
  Pd  Pd163  1  0.40611870  0.59543489  0.40054193  1
  Pd  Pd164  1  0.00183819  0.60294949  0.20666261  1
  Pd  Pd165  1  0.39085999  -0.00618190  0.20758012  1
  Pd  Pd166  1  0.80218274  0.39622642  -0.00084515  1
  Pd  Pd167  1  0.59258752  0.19745556  0.79548997  1
  Pd  Pd168  1  0.78823163  0.78946227  0.59205525  1
  Pd  Pd169  1  0.20188681  0.40994177  0.00115884  1
  Pd  Pd170  1  0.60528065  0.81341563  0.40589089  1
  Pd  Pd171  1  0.40428342  0.20322431  -0.00358160  1
  Pd  Pd172  1  0.40064065  -0.00834315  -0.00564852  1
  Pd  Pd173  1  0.39924151  0.39827495  -0.00341387  1
  Pd  Pd174  1  0.80228195  0.39160223  0.20599372  1
  Pd  Pd175  1  -0.00496368  0.20014941  0.80185458  1
  Pd  Pd176  1  0.20547661  0.58799585  0.80031618  1
  Pd  Pd177  1  -0.00123410  -0.00342417  0.19673372  1
  Pd  Pd178  1  -0.00386646  0.60848313  0.60561752  1
  Pd  Pd179  1  0.20569244  0.80377182  0.00017570  1
  Pd  Pd180  1  0.58794239  -0.00100665  0.60364462  1
  Pd  Pd181  1  0.80561943  0.39980922  0.78981542  1
  Pd  Pd182  1  0.60823387  0.20090845  0.19250215  1
  Pd  Pd183  1  0.39909145  0.80791270  0.80841240  1
  Pd  Pd184  1  0.59503430  0.39359718  0.40503471  1
  Pd  Pd185  1  0.18951905  0.59107785  0.19724570  1
  Pd  Pd186  1  0.79673797  0.59504908  0.40081921  1
  Pd  Pd187  1  0.81159327  0.79794822  0.00065787  1
  Pd  Pd188  1  0.80494745  0.60272367  0.00118457  1
  Pd  Pd189  1  0.41036785  0.61011105  0.20754636  1
  Pd  Pd190  1  -0.00248915  0.20270294  0.41201126  1
  Pd  Pd191  1  -0.00412011  0.79187411  -0.00374918  1
  Pd  Pd192  1  -0.00163803  0.60167126  0.39113218  1
  Pd  Pd193  1  0.20168115  -0.00139195  0.39291418  1
  Pd  Pd194  1  0.19619566  0.19751553  0.18932501  1
  Pd  Pd195  1  0.79565163  -0.00096641  -0.00096680  1
  Pd  Pd196  1  0.79670671  0.80618128  0.41030362  1
  Pd  Pd197  1  0.19902437  -0.00165617  0.79861531  1
  Pd  Pd198  1  -0.00043687  0.80019057  0.80328439  1
  Pd  Pd199  1  0.00621919  0.19551501  0.59073614  1
  Rh  Rh200  1  0.41182427  0.59503085  0.79582377  1
  Rh  Rh201  1  -0.00059237  0.79731220  0.40320645  1
  Rh  Rh202  1  0.80050275  0.40110375  0.39636207  1
  Rh  Rh203  1  0.81241065  0.80697526  0.19136864  1
  Rh  Rh204  1  0.40149638  0.20340920  0.39559382  1
  Rh  Rh205  1  0.80262896  0.40825603  0.60287461  1
  Rh  Rh206  1  0.21073724  0.20436514  0.78784980  1
  Rh  Rh207  1  0.19405619  0.00788794  0.00577019  1
  Rh  Rh208  1  0.61302710  0.40652569  0.80263186  1
  Rh  Rh209  1  0.40873765  0.60960146  0.00182973  1
  Rh  Rh210  1  0.19663944  0.81052670  0.79544700  1
  Rh  Rh211  1  -0.00888395  -0.00675661  0.40595089  1
  Rh  Rh212  1  0.00271538  0.00291764  0.59434276  1
  Rh  Rh213  1  0.59304644  0.79477774  0.20174834  1
  Rh  Rh214  1  0.38901851  0.39368145  0.80871025  1
  Rh  Rh215  1  0.38976171  0.39323685  0.20149522  1
  Rh  Rh216  1  -0.00632992  0.60882345  0.79969307  1
  Rh  Rh217  1  0.39826151  0.80394874  0.39313377  1
  Rh  Rh218  1  0.61145635  0.00158868  0.80804009  1
  Rh  Rh219  1  0.80778145  0.19183327  0.78899802  1
  Rh  Rh220  1  0.19459860  0.80038748  0.40248984  1
  Rh  Rh221  1  -0.00024703  0.79567916  0.19640743  1
  Rh  Rh222  1  -0.01385762  0.40368065  -0.00418288  1
  Rh  Rh223  1  0.40251393  -0.00482223  0.60423634  1
  Rh  Rh224  1  0.59988212  0.79327678  0.79783830  1
  Rh  Rh225  1  -0.00372417  0.39261371  0.80042862  1
  Rh  Rh226  1  -0.00098699  0.39881945  0.20315331  1
  Rh  Rh227  1  0.59109880  0.79030521  -0.00220390  1
  Rh  Rh228  1  0.20326616  0.20374026  0.41556233  1
  Rh  Rh229  1  -0.00698163  0.20035429  0.19572974  1
  Rh  Rh230  1  0.40242858  0.41100216  0.59144571  1
  Rh  Rh231  1  0.80548736  0.00272705  0.60232995  1
  Rh  Rh232  1  -0.00928280  0.60287851  -0.00127937  1
  Rh  Rh233  1  0.19744809  0.59375302  0.00318325  1
  Rh  Rh234  1  0.79407836  0.20253950  0.00397730  1
  Rh  Rh235  1  0.00233908  0.19680647  -0.00451526  1
  Rh  Rh236  1  0.40550640  0.18939908  0.61412550  1
  Rh  Rh237  1  0.79726531  0.59931138  0.78834384  1
  Rh  Rh238  1  0.19731486  0.00032666  0.60088189  1
  Rh  Rh239  1  0.59668667  0.59274131  0.38892429  1
  Rh  Rh240  1  -0.00138860  0.39849254  0.60199512  1
  Rh  Rh241  1  0.20303962  0.80737552  0.19638834  1
  Rh  Rh242  1  -0.00074533  0.00501675  0.80169951  1
  Rh  Rh243  1  0.39680005  0.00643988  0.81056679  1
  Rh  Rh244  1  0.79622525  0.19814872  0.60436131  1
  Rh  Rh245  1  0.59190978  0.21044660  0.40933570  1
  Rh  Rh246  1  0.60276333  0.01032463  -0.00352936  1
  Rh  Rh247  1  0.39605074  0.20128519  0.20308351  1
  Rh  Rh248  1  0.80334812  0.80908571  0.80511416  1
  Rh  Rh249  1  0.80673387  0.20080163  0.39632858  1
