# generated using pymatgen
data_ZrScNbPdRh
_symmetry_space_group_name_H-M   'P 1'
_cell_length_a   16.55464931
_cell_length_b   16.55065466
_cell_length_c   16.55517195
_cell_angle_alpha   90.01289408
_cell_angle_beta   90.02271870
_cell_angle_gamma   90.03351602
_symmetry_Int_Tables_number   1
_chemical_formula_structural   ZrScNbPdRh
_chemical_formula_sum   'Zr50 Sc50 Nb50 Pd50 Rh50'
_cell_volume   4535.95501075
_cell_formula_units_Z   50
loop_
 _symmetry_equiv_pos_site_id
 _symmetry_equiv_pos_as_xyz
  1  'x, y, z'
loop_
 _atom_site_type_symbol
 _atom_site_label
 _atom_site_symmetry_multiplicity
 _atom_site_fract_x
 _atom_site_fract_y
 _atom_site_fract_z
 _atom_site_occupancy
  Zr  Zr0  1  0.89280901  0.29489600  0.69483603  1
  Zr  Zr1  1  0.29151912  0.70388762  0.49721558  1
  Zr  Zr2  1  0.49965067  0.09592794  0.30541802  1
  Zr  Zr3  1  0.50091564  0.10133529  0.50135447  1
  Zr  Zr4  1  0.70853738  0.50377393  0.09680252  1
  Zr  Zr5  1  0.09267415  0.29900404  0.49879219  1
  Zr  Zr6  1  0.90615675  0.89510422  0.10161620  1
  Zr  Zr7  1  0.29444752  0.09706996  0.09266856  1
  Zr  Zr8  1  0.09630237  0.89278915  0.89013123  1
  Zr  Zr9  1  0.30140266  0.89959295  0.10549839  1
  Zr  Zr10  1  0.90504905  0.30144366  0.09470441  1
  Zr  Zr11  1  0.70757884  0.09911123  0.68898813  1
  Zr  Zr12  1  0.69849610  0.48879649  0.50105982  1
  Zr  Zr13  1  0.10266026  0.48532770  0.10371915  1
  Zr  Zr14  1  0.69725216  0.69244791  0.70903580  1
  Zr  Zr15  1  0.30042698  0.71310857  0.30229829  1
  Zr  Zr16  1  0.50183331  0.50059040  0.49938074  1
  Zr  Zr17  1  0.90540166  0.49172354  0.50656853  1
  Zr  Zr18  1  0.49678711  0.30932812  0.10130751  1
  Zr  Zr19  1  0.50651414  0.49141023  0.29305902  1
  Zr  Zr20  1  0.10713217  0.69500954  0.30802231  1
  Zr  Zr21  1  0.49947951  0.10671918  0.70206523  1
  Zr  Zr22  1  0.70007199  0.09520610  0.90818866  1
  Zr  Zr23  1  0.30295961  0.09691361  0.90389643  1
  Zr  Zr24  1  0.90413592  0.69930799  0.29219735  1
  Zr  Zr25  1  0.29952308  0.28966397  0.50361152  1
  Zr  Zr26  1  0.10582199  0.10537139  0.89911427  1
  Zr  Zr27  1  0.09849564  0.50323192  0.49766089  1
  Zr  Zr28  1  0.50173298  0.09893667  0.90047087  1
  Zr  Zr29  1  0.89914584  0.90064948  0.29780413  1
  Zr  Zr30  1  0.90371908  0.50373374  0.10326644  1
  Zr  Zr31  1  0.89939305  0.69739110  0.10344568  1
  Zr  Zr32  1  0.10312831  0.69816478  0.89518050  1
  Zr  Zr33  1  0.69539312  0.30493640  0.69497890  1
  Zr  Zr34  1  0.90164731  0.90228108  0.89993492  1
  Zr  Zr35  1  0.09364117  0.30144505  0.29845353  1
  Zr  Zr36  1  0.30269675  0.30054638  0.09649992  1
  Zr  Zr37  1  0.29644006  0.89994055  0.69851700  1
  Zr  Zr38  1  0.90400455  0.69402194  0.69775786  1
  Zr  Zr39  1  0.48785857  0.89598225  0.29963886  1
  Zr  Zr40  1  0.50144794  0.70768246  0.09428914  1
  Zr  Zr41  1  0.09701476  0.29871344  0.90746500  1
  Zr  Zr42  1  0.10117424  0.10133812  0.49772796  1
  Zr  Zr43  1  0.69940057  0.70376095  0.09315642  1
  Zr  Zr44  1  0.70231348  0.90160993  0.08869270  1
  Zr  Zr45  1  0.90172023  0.10662568  0.88905640  1
  Zr  Zr46  1  0.10226260  0.90287765  0.30350229  1
  Zr  Zr47  1  0.10052468  0.49809356  0.90128084  1
  Zr  Zr48  1  0.30316053  0.09257082  0.29855640  1
  Zr  Zr49  1  0.69758912  0.10163977  0.09531448  1
  Sc  Sc50  1  0.90678303  0.69689213  0.50572848  1
  Sc  Sc51  1  0.09923949  0.69862624  0.51119460  1
  Sc  Sc52  1  0.30464057  0.29098296  0.29490373  1
  Sc  Sc53  1  0.70284035  0.29865967  0.29704126  1
  Sc  Sc54  1  0.90420295  0.89583858  0.50472827  1
  Sc  Sc55  1  0.10201566  0.51114981  0.70678123  1
  Sc  Sc56  1  0.30224276  0.09775255  0.50208945  1
  Sc  Sc57  1  0.70518073  0.29128382  0.90587889  1
  Sc  Sc58  1  0.49409186  0.89669193  0.90235273  1
  Sc  Sc59  1  0.70323829  0.29201966  0.49252858  1
  Sc  Sc60  1  0.70588754  0.70201852  0.49995431  1
  Sc  Sc61  1  0.89749415  0.10250953  0.10560964  1
  Sc  Sc62  1  0.10480863  0.90179267  0.50917989  1
  Sc  Sc63  1  0.09562766  0.49937593  0.29749553  1
  Sc  Sc64  1  0.91180057  0.90821886  0.70535696  1
  Sc  Sc65  1  0.89760320  0.29748301  0.30032542  1
  Sc  Sc66  1  0.50763056  0.30311073  0.50777201  1
  Sc  Sc67  1  0.49471714  0.91121715  0.49602233  1
  Sc  Sc68  1  0.90174339  0.09919116  0.30089749  1
  Sc  Sc69  1  0.30387265  0.70748807  0.89617307  1
  Sc  Sc70  1  0.29612516  0.30455675  0.89587300  1
  Sc  Sc71  1  0.30825691  0.10145115  0.69314150  1
  Sc  Sc72  1  0.49301641  0.69964854  0.70895584  1
  Sc  Sc73  1  0.49193602  0.50834374  0.90499564  1
  Sc  Sc74  1  0.29399419  0.90394486  0.49754714  1
  Sc  Sc75  1  0.49685397  0.70438276  0.90206844  1
  Sc  Sc76  1  0.48676815  0.49747474  0.69525959  1
  Sc  Sc77  1  0.49308048  0.70104812  0.50020196  1
  Sc  Sc78  1  0.69693761  0.10808647  0.30122819  1
  Sc  Sc79  1  0.71071072  0.70529344  0.29398625  1
  Sc  Sc80  1  0.70746121  0.48635886  0.29553220  1
  Sc  Sc81  1  0.10722427  0.29881121  0.70712463  1
  Sc  Sc82  1  0.30260778  0.51451323  0.51200264  1
  Sc  Sc83  1  0.50160041  0.29304337  0.29252766  1
  Sc  Sc84  1  0.30188341  0.89737398  0.90325528  1
  Sc  Sc85  1  0.30166563  0.49039531  0.09480688  1
  Sc  Sc86  1  0.49752977  0.29225296  0.89988762  1
  Sc  Sc87  1  0.08916758  0.70216191  0.10229573  1
  Sc  Sc88  1  0.90259587  0.49273300  0.29661194  1
  Sc  Sc89  1  0.09526663  0.09569466  0.69599741  1
  Sc  Sc90  1  0.49730679  0.10725813  0.09223726  1
  Sc  Sc91  1  0.10524685  0.90255466  0.10023570  1
  Sc  Sc92  1  0.28426025  0.50652337  0.29269579  1
  Sc  Sc93  1  0.70613003  0.29485129  0.10223996  1
  Sc  Sc94  1  0.10059766  0.70486457  0.70294790  1
  Sc  Sc95  1  0.89447003  0.50071423  0.90920213  1
  Sc  Sc96  1  0.09475259  0.09700455  0.30520048  1
  Sc  Sc97  1  0.91569651  0.70344764  0.90747002  1
  Sc  Sc98  1  0.49035222  0.90647635  0.70870845  1
  Sc  Sc99  1  0.29661692  0.49547262  0.89476705  1
  Nb  Nb100  1  0.50177795  0.70062011  0.29954885  1
  Nb  Nb101  1  0.29506079  0.49900343  0.70158121  1
  Nb  Nb102  1  0.90483030  0.29786267  0.89982618  1
  Nb  Nb103  1  0.70885051  0.50080844  0.70517015  1
  Nb  Nb104  1  0.90607391  0.29685712  0.49521883  1
  Nb  Nb105  1  0.29685375  0.90061316  0.30441787  1
  Nb  Nb106  1  0.70108327  0.89983311  0.89846531  1
  Nb  Nb107  1  0.49897313  0.30222088  0.70146613  1
  Nb  Nb108  1  0.89450155  0.10984652  0.51099967  1
  Nb  Nb109  1  0.89687951  0.10171276  0.69397323  1
  Nb  Nb110  1  0.30667734  0.31133659  0.70135169  1
  Nb  Nb111  1  0.10176012  0.89887259  0.70056287  1
  Nb  Nb112  1  0.29477969  0.69193398  0.69438298  1
  Nb  Nb113  1  0.50231355  0.49930214  0.10077498  1
  Nb  Nb114  1  0.69887883  0.89900811  0.70022375  1
  Nb  Nb115  1  0.10362947  0.10487441  0.08636034  1
  Nb  Nb116  1  0.29810820  0.70010023  0.09752150  1
  Nb  Nb117  1  0.69601810  0.50610151  0.89258074  1
  Nb  Nb118  1  0.69862344  0.90420021  0.30792030  1
  Nb  Nb119  1  0.88830286  0.49507924  0.70220448  1
  Nb  Nb120  1  0.69547546  0.09083845  0.49745325  1
  Nb  Nb121  1  0.10107499  0.29629892  0.09749410  1
  Nb  Nb122  1  0.50901112  0.89667723  0.10041317  1
  Nb  Nb123  1  0.69491003  0.90319168  0.50322621  1
  Nb  Nb124  1  0.69109349  0.70086107  0.89619764  1
  Nb  Nb125  1  0.00404724  0.00541265  -0.00391051  1
  Nb  Nb126  1  0.20406319  0.39779463  0.40766155  1
  Nb  Nb127  1  0.79465170  0.00028108  0.40999214  1
  Nb  Nb128  1  0.60348862  0.59965572  0.60066186  1
  Nb  Nb129  1  0.20045877  0.60235263  0.00238683  1
  Nb  Nb130  1  0.79937191  0.59536754  0.40140808  1
  Nb  Nb131  1  0.40378528  0.60410986  0.19736364  1
  Nb  Nb132  1  0.60338664  0.40781090  -0.00420461  1
  Nb  Nb133  1  0.00189162  0.80027832  0.39716911  1
  Nb  Nb134  1  0.59697682  0.60142494  0.19970423  1
  Nb  Nb135  1  0.19890217  -0.00282451  0.79740746  1
  Nb  Nb136  1  0.79375886  0.80390704  0.60959310  1
  Nb  Nb137  1  0.40406907  0.59917666  0.38879988  1
  Nb  Nb138  1  0.39679854  0.79944610  0.60089724  1
  Nb  Nb139  1  0.60321156  0.60414944  0.39595408  1
  Nb  Nb140  1  0.59973264  0.80179804  0.60045744  1
  Nb  Nb141  1  0.60201932  0.80186179  0.40133278  1
  Nb  Nb142  1  0.39407692  0.40519860  0.40057204  1
  Nb  Nb143  1  0.60340775  0.40482501  0.80152645  1
  Nb  Nb144  1  0.79452921  0.80019730  0.80136412  1
  Nb  Nb145  1  0.19350472  0.19661935  0.19173710  1
  Nb  Nb146  1  -0.01143175  0.39833671  0.79986204  1
  Nb  Nb147  1  0.20435159  0.40059235  0.60206550  1
  Nb  Nb148  1  0.59903521  -0.00736922  0.19827742  1
  Nb  Nb149  1  0.60869417  -0.00013136  0.80160608  1
  Pd  Pd150  1  0.20950885  0.19288952  0.79274453  1
  Pd  Pd151  1  0.40841763  0.20684517  0.40353703  1
  Pd  Pd152  1  0.59899128  0.59795266  0.00183760  1
  Pd  Pd153  1  0.80271035  0.19290573  0.39857176  1
  Pd  Pd154  1  0.79228892  0.20100417  0.79854069  1
  Pd  Pd155  1  0.39510509  0.60067597  0.80126422  1
  Pd  Pd156  1  0.39795952  0.79714270  0.19467457  1
  Pd  Pd157  1  0.79931165  0.39028587  0.59124569  1
  Pd  Pd158  1  0.79481846  0.80647765  0.19705153  1
  Pd  Pd159  1  0.40669004  -0.00673548  0.00588370  1
  Pd  Pd160  1  0.60832225  0.19979198  0.80123468  1
  Pd  Pd161  1  0.00328257  0.19579270  0.19881669  1
  Pd  Pd162  1  -0.00931251  -0.00132049  0.41117599  1
  Pd  Pd163  1  0.79147495  0.00392328  0.20769353  1
  Pd  Pd164  1  0.79799457  -0.00273337  0.79545861  1
  Pd  Pd165  1  0.19430872  0.79882933  0.19862844  1
  Pd  Pd166  1  0.19984365  0.60417795  0.18916199  1
  Pd  Pd167  1  0.58528440  0.58998011  0.79359090  1
  Pd  Pd168  1  -0.00915571  0.59086771  0.80122765  1
  Pd  Pd169  1  0.00374574  0.20056039  0.60596484  1
  Pd  Pd170  1  0.19274114  0.00739101  0.20203109  1
  Pd  Pd171  1  -0.00745246  0.60350268  0.39927590  1
  Pd  Pd172  1  0.19697247  0.79658970  0.00166472  1
  Pd  Pd173  1  0.39233450  0.20188464  0.80031471  1
  Pd  Pd174  1  0.58954396  -0.00589303  0.60926199  1
  Pd  Pd175  1  0.81049215  0.60897994  0.81341987  1
  Pd  Pd176  1  0.38913568  0.40690931  0.20833645  1
  Pd  Pd177  1  0.40806241  0.00358601  0.19024781  1
  Pd  Pd178  1  0.39025007  0.59981505  0.00387599  1
  Pd  Pd179  1  0.00769971  0.00644083  0.19037324  1
  Pd  Pd180  1  0.40867525  0.40152425  0.80666264  1
  Pd  Pd181  1  0.79860662  0.39390321  0.81012459  1
  Pd  Pd182  1  0.59604075  0.80815414  0.79976680  1
  Pd  Pd183  1  0.39502794  0.39776790  0.59226434  1
  Pd  Pd184  1  0.20046027  0.20110945  0.60905540  1
  Pd  Pd185  1  0.59564217  0.39024770  0.39415476  1
  Pd  Pd186  1  -0.00147498  0.00067210  0.59540943  1
  Pd  Pd187  1  0.00172230  0.20395096  0.79028828  1
  Pd  Pd188  1  0.60232230  0.20036310  0.59578220  1
  Pd  Pd189  1  0.79519525  0.39772789  -0.00467690  1
  Pd  Pd190  1  0.80397578  0.80018008  0.40972079  1
  Pd  Pd191  1  0.60752939  0.80242026  0.20719579  1
  Pd  Pd192  1  0.19908455  0.20083362  0.38865521  1
  Pd  Pd193  1  0.80081983  0.61082986  -0.01034594  1
  Pd  Pd194  1  0.79607538  0.60177177  0.59318860  1
  Pd  Pd195  1  0.80833639  -0.00831959  0.59696502  1
  Pd  Pd196  1  0.59763673  0.19453639  0.19602718  1
  Pd  Pd197  1  0.81305937  0.00589924  0.00086985  1
  Pd  Pd198  1  0.80206956  0.79125573  -0.00979541  1
  Pd  Pd199  1  0.00905640  0.40332253  0.61610003  1
  Rh  Rh200  1  -0.00235382  0.40260057  -0.00521687  1
  Rh  Rh201  1  0.80518598  0.39384444  0.19677445  1
  Rh  Rh202  1  0.20528741  0.80178210  0.79447578  1
  Rh  Rh203  1  0.39727912  0.20493614  -0.00340418  1
  Rh  Rh204  1  0.19172354  0.40183886  0.79331803  1
  Rh  Rh205  1  0.20186142  0.38532683  0.20875494  1
  Rh  Rh206  1  0.00742349  0.80120096  0.20768733  1
  Rh  Rh207  1  0.00899358  0.00732743  0.80301638  1
  Rh  Rh208  1  0.00575380  0.59573823  0.19952257  1
  Rh  Rh209  1  0.40797525  0.39925251  -0.00739077  1
  Rh  Rh210  1  -0.00699348  0.19422636  0.40172747  1
  Rh  Rh211  1  0.18942339  0.80676161  0.40506349  1
  Rh  Rh212  1  0.80781313  0.19631857  0.00150845  1
  Rh  Rh213  1  0.39839019  0.80468620  0.00599202  1
  Rh  Rh214  1  0.40617920  0.20606388  0.60300648  1
  Rh  Rh215  1  0.39320269  0.79735131  0.79221757  1
  Rh  Rh216  1  0.59310551  -0.00623445  -0.00277051  1
  Rh  Rh217  1  0.40273742  0.80046737  0.40815213  1
  Rh  Rh218  1  -0.00815322  0.79676032  0.79144698  1
  Rh  Rh219  1  0.61247288  0.40132999  0.18651924  1
  Rh  Rh220  1  0.20035847  0.40118167  -0.00318388  1
  Rh  Rh221  1  0.80938040  0.39977086  0.40363735  1
  Rh  Rh222  1  -0.00765524  0.19301165  0.00245612  1
  Rh  Rh223  1  -0.00348195  0.39552789  0.19865321  1
  Rh  Rh224  1  0.20204649  0.00197178  0.40245792  1
  Rh  Rh225  1  0.40137942  -0.00382546  0.59780922  1
  Rh  Rh226  1  0.79497486  0.59604592  0.20870406  1
  Rh  Rh227  1  0.00078925  0.59189043  0.60851129  1
  Rh  Rh228  1  0.59946877  0.80365826  -0.01112941  1
  Rh  Rh229  1  0.20770549  0.21075970  0.00094305  1
  Rh  Rh230  1  0.20552432  0.59298400  0.40449188  1
  Rh  Rh231  1  0.80237850  0.19941842  0.20194817  1
  Rh  Rh232  1  0.19148708  -0.01127779  -0.01290261  1
  Rh  Rh233  1  0.19384474  0.59749341  0.60339649  1
  Rh  Rh234  1  -0.00193176  0.80268771  0.60036578  1
  Rh  Rh235  1  0.20835124  0.60537733  0.80708546  1
  Rh  Rh236  1  0.39243528  -0.00141110  0.40367503  1
  Rh  Rh237  1  0.60203643  -0.00100350  0.39198554  1
  Rh  Rh238  1  0.59634551  0.21357198  0.00565836  1
  Rh  Rh239  1  0.19973370  0.00563360  0.60523933  1
  Rh  Rh240  1  0.39315733  0.19050104  0.19468672  1
  Rh  Rh241  1  0.00731610  0.80856505  0.00400145  1
  Rh  Rh242  1  0.59938666  0.41029617  0.61549885  1
  Rh  Rh243  1  0.00153389  0.39857902  0.39691297  1
  Rh  Rh244  1  0.20385337  0.79838926  0.60425955  1
  Rh  Rh245  1  0.79444359  0.20429094  0.59330050  1
  Rh  Rh246  1  0.01002225  0.59245518  0.00705087  1
  Rh  Rh247  1  0.40327628  0.61083010  0.59984742  1
  Rh  Rh248  1  0.39818091  0.00439613  0.80353457  1
  Rh  Rh249  1  0.59757977  0.20158073  0.40194459  1
