# generated using pymatgen
data_ZrScNbPdRh
_symmetry_space_group_name_H-M   'P 1'
_cell_length_a   16.56537304
_cell_length_b   16.56997809
_cell_length_c   16.56136057
_cell_angle_alpha   90.02827192
_cell_angle_beta   90.01210775
_cell_angle_gamma   90.00409090
_symmetry_Int_Tables_number   1
_chemical_formula_structural   ZrScNbPdRh
_chemical_formula_sum   'Zr50 Sc50 Nb50 Pd50 Rh50'
_cell_volume   4545.89189106
_cell_formula_units_Z   50
loop_
 _symmetry_equiv_pos_site_id
 _symmetry_equiv_pos_as_xyz
  1  'x, y, z'
loop_
 _atom_site_type_symbol
 _atom_site_label
 _atom_site_symmetry_multiplicity
 _atom_site_fract_x
 _atom_site_fract_y
 _atom_site_fract_z
 _atom_site_occupancy
  Zr  Zr0  1  0.10023110  0.70183729  0.90073207  1
  Zr  Zr1  1  0.29822941  0.29471807  0.50123329  1
  Zr  Zr2  1  0.50152002  0.49859055  0.30080740  1
  Zr  Zr3  1  0.90761737  0.10482472  0.29737627  1
  Zr  Zr4  1  0.10195780  0.10365046  0.30055709  1
  Zr  Zr5  1  0.30193205  0.49975843  0.30562249  1
  Zr  Zr6  1  0.71063508  0.30013849  0.90943168  1
  Zr  Zr7  1  0.11295330  0.10269948  0.49739018  1
  Zr  Zr8  1  0.10182147  0.30711151  0.50712677  1
  Zr  Zr9  1  0.70524474  0.68949876  0.88911728  1
  Zr  Zr10  1  0.70541493  0.29825026  0.29935859  1
  Zr  Zr11  1  0.70631788  0.49215319  0.09941270  1
  Zr  Zr12  1  0.48550581  0.10229741  0.10149340  1
  Zr  Zr13  1  0.89961886  0.09695210  0.70253399  1
  Zr  Zr14  1  0.69616344  0.09597538  0.09852072  1
  Zr  Zr15  1  0.28387189  0.48818852  0.09753355  1
  Zr  Zr16  1  0.70929492  0.09777000  0.89858285  1
  Zr  Zr17  1  0.09788976  0.88989400  0.89880002  1
  Zr  Zr18  1  0.11397697  0.50000829  0.90801016  1
  Zr  Zr19  1  0.29095119  0.90057024  0.50889112  1
  Zr  Zr20  1  0.69621371  0.51014952  0.70784926  1
  Zr  Zr21  1  0.50860922  0.48591279  0.09553926  1
  Zr  Zr22  1  0.10631928  0.30656705  0.09854448  1
  Zr  Zr23  1  0.49666879  0.49172145  0.88639910  1
  Zr  Zr24  1  0.50639811  0.69619556  0.30435641  1
  Zr  Zr25  1  0.90118956  0.30478349  0.30057465  1
  Zr  Zr26  1  0.70462884  0.29655648  0.49960488  1
  Zr  Zr27  1  0.91674688  0.09382020  0.50409292  1
  Zr  Zr28  1  0.29573607  0.69638174  0.89764704  1
  Zr  Zr29  1  0.70114358  0.89725614  0.50393576  1
  Zr  Zr30  1  0.29703683  0.89943376  0.29089427  1
  Zr  Zr31  1  0.49620943  0.89314045  0.69142503  1
  Zr  Zr32  1  0.49924793  0.90313757  0.90432031  1
  Zr  Zr33  1  0.49483180  0.09273870  0.30677716  1
  Zr  Zr34  1  0.90628246  0.28597594  0.90499747  1
  Zr  Zr35  1  0.30454111  0.50758305  0.70821747  1
  Zr  Zr36  1  0.69557270  0.91132026  0.90913154  1
  Zr  Zr37  1  0.89692021  0.30601613  0.10064205  1
  Zr  Zr38  1  0.29488580  0.10991360  0.70125230  1
  Zr  Zr39  1  0.69815747  0.30564330  0.10420119  1
  Zr  Zr40  1  0.50089229  0.70556487  0.50560283  1
  Zr  Zr41  1  0.10696071  0.49322117  0.68913552  1
  Zr  Zr42  1  0.49994823  0.29944297  0.71341016  1
  Zr  Zr43  1  0.49857807  0.10277517  0.89891562  1
  Zr  Zr44  1  0.69336939  0.90000940  0.30079606  1
  Zr  Zr45  1  0.89622490  0.70057268  0.48611088  1
  Zr  Zr46  1  0.89937169  0.90706572  0.89929404  1
  Zr  Zr47  1  0.69646104  0.10302471  0.30423151  1
  Zr  Zr48  1  0.09967273  0.69573667  0.69157913  1
  Zr  Zr49  1  0.69795647  0.10163851  0.69702552  1
  Sc  Sc50  1  0.09956093  0.90954090  0.50159492  1
  Sc  Sc51  1  0.70040718  0.70472959  0.49347987  1
  Sc  Sc52  1  0.10089373  0.29542293  0.29772313  1
  Sc  Sc53  1  0.10929966  0.88947452  0.69834884  1
  Sc  Sc54  1  0.90539357  0.68733836  0.10260519  1
  Sc  Sc55  1  0.50445467  0.90147147  0.49660766  1
  Sc  Sc56  1  0.90780851  0.10388411  0.09567915  1
  Sc  Sc57  1  0.29931658  0.69612505  0.50272215  1
  Sc  Sc58  1  0.69482400  0.69958867  0.69203074  1
  Sc  Sc59  1  0.29857415  0.28623674  0.09911187  1
  Sc  Sc60  1  0.90325551  0.69834948  0.89982126  1
  Sc  Sc61  1  0.09615966  0.90147346  0.28620489  1
  Sc  Sc62  1  0.09715969  0.11165469  0.89978921  1
  Sc  Sc63  1  0.10639248  0.89938205  0.10112618  1
  Sc  Sc64  1  0.69122940  0.69954313  0.10622323  1
  Sc  Sc65  1  0.09557859  0.49543135  0.30577481  1
  Sc  Sc66  1  0.91442975  0.90515690  0.10331686  1
  Sc  Sc67  1  0.50057669  0.29437330  0.29797585  1
  Sc  Sc68  1  0.49750741  0.69215581  0.69716147  1
  Sc  Sc69  1  0.89435558  0.69587688  0.70052040  1
  Sc  Sc70  1  0.70258396  0.49858140  0.89969073  1
  Sc  Sc71  1  0.29185702  0.30064216  0.29981911  1
  Sc  Sc72  1  0.50476195  0.90104215  0.10046157  1
  Sc  Sc73  1  0.09665917  0.70730867  0.10157183  1
  Sc  Sc74  1  0.49704682  0.28917898  0.50100785  1
  Sc  Sc75  1  0.90878275  0.49854213  0.68611097  1
  Sc  Sc76  1  0.50699647  0.10757797  0.69923948  1
  Sc  Sc77  1  0.09212432  0.49892436  0.09971072  1
  Sc  Sc78  1  0.50174653  0.70636908  0.10105095  1
  Sc  Sc79  1  0.30670670  0.70376323  0.30219385  1
  Sc  Sc80  1  0.29953061  0.29291829  0.89821374  1
  Sc  Sc81  1  0.89715150  0.50922558  0.91301767  1
  Sc  Sc82  1  0.09749307  0.11142720  0.69566387  1
  Sc  Sc83  1  0.90660173  0.29089576  0.68919977  1
  Sc  Sc84  1  0.10509348  0.09978759  0.10775712  1
  Sc  Sc85  1  0.90770674  0.49614748  0.49008142  1
  Sc  Sc86  1  0.70386453  0.29413939  0.69457685  1
  Sc  Sc87  1  0.70041740  0.90885541  0.69016117  1
  Sc  Sc88  1  0.70361411  0.50591459  0.29371276  1
  Sc  Sc89  1  0.29104863  0.29919190  0.70089106  1
  Sc  Sc90  1  0.29724839  0.89288423  0.90871005  1
  Sc  Sc91  1  0.29383109  0.50040693  0.49813884  1
  Sc  Sc92  1  0.49155621  0.70436936  0.89857666  1
  Sc  Sc93  1  0.29442558  0.71576268  0.10304246  1
  Sc  Sc94  1  0.09668676  0.50590384  0.50194546  1
  Sc  Sc95  1  0.29911632  0.71021570  0.69593939  1
  Sc  Sc96  1  0.90734420  0.89281884  0.30498730  1
  Sc  Sc97  1  0.90023584  0.30429947  0.49784091  1
  Sc  Sc98  1  0.49588483  0.89742653  0.29967569  1
  Sc  Sc99  1  0.49485777  0.51497421  0.49575004  1
  Nb  Nb100  1  0.49947481  0.29932768  0.90859180  1
  Nb  Nb101  1  0.71206577  0.70051219  0.29984617  1
  Nb  Nb102  1  0.29686948  0.90459134  0.69756817  1
  Nb  Nb103  1  0.30031931  0.08964004  0.09745863  1
  Nb  Nb104  1  0.29752736  0.09774177  0.29538212  1
  Nb  Nb105  1  0.09491092  0.69767950  0.49878618  1
  Nb  Nb106  1  0.49510113  0.09802871  0.49989757  1
  Nb  Nb107  1  0.89782854  0.51269242  0.29422202  1
  Nb  Nb108  1  0.68174169  0.09659586  0.50128878  1
  Nb  Nb109  1  0.89721930  0.49993348  0.10846991  1
  Nb  Nb110  1  0.09176875  0.70566803  0.30250099  1
  Nb  Nb111  1  0.50086752  0.30067369  0.09559254  1
  Nb  Nb112  1  0.29754952  0.91266161  0.10235668  1
  Nb  Nb113  1  0.50347151  0.49874830  0.69975981  1
  Nb  Nb114  1  0.89431351  0.90044139  0.69324607  1
  Nb  Nb115  1  0.30158417  0.10012302  0.49689969  1
  Nb  Nb116  1  0.30175812  0.50580807  0.90393779  1
  Nb  Nb117  1  0.70192164  0.49743808  0.50456838  1
  Nb  Nb118  1  0.09816390  0.30153979  0.89341026  1
  Nb  Nb119  1  0.30410327  0.09550603  0.90505825  1
  Nb  Nb120  1  0.69921284  0.89694050  0.10226838  1
  Nb  Nb121  1  0.89661305  0.69670952  0.30058447  1
  Nb  Nb122  1  0.89296895  0.89742947  0.50697035  1
  Nb  Nb123  1  0.10183749  0.29971522  0.70530355  1
  Nb  Nb124  1  0.90059577  0.09782544  0.89679860  1
  Nb  Nb125  1  0.20104272  0.00166364  0.80238298  1
  Nb  Nb126  1  0.79982045  0.80119586  0.19897995  1
  Nb  Nb127  1  0.00331199  0.39917811  0.80259058  1
  Nb  Nb128  1  0.39470697  0.00798090  0.59914589  1
  Nb  Nb129  1  0.19154852  0.79688917  0.39876141  1
  Nb  Nb130  1  0.59523811  0.20397994  0.00179605  1
  Nb  Nb131  1  0.79554009  0.80950506  0.80218306  1
  Nb  Nb132  1  0.80049612  0.00108573  0.40289442  1
  Nb  Nb133  1  0.79919170  -0.00393984  0.20500188  1
  Nb  Nb134  1  0.59287675  0.59440142  -0.00334912  1
  Nb  Nb135  1  0.00028104  -0.00120167  0.79900027  1
  Nb  Nb136  1  0.39171575  -0.00009581  0.79648090  1
  Nb  Nb137  1  0.39724500  0.59154260  0.00363633  1
  Nb  Nb138  1  0.59516300  0.40546267  0.59928744  1
  Nb  Nb139  1  0.39622706  0.59212882  0.19149671  1
  Nb  Nb140  1  0.60453132  0.80378594  0.80120963  1
  Nb  Nb141  1  0.19986403  0.60294150  0.20663863  1
  Nb  Nb142  1  0.79682922  0.80347428  0.00367134  1
  Nb  Nb143  1  0.00724729  0.59120180  0.79934492  1
  Nb  Nb144  1  0.79809661  0.59624808  0.59093871  1
  Nb  Nb145  1  -0.00781792  0.80137631  0.59392726  1
  Nb  Nb146  1  0.60474956  0.40129700  0.40694267  1
  Nb  Nb147  1  0.81279810  0.39924988  0.79992553  1
  Nb  Nb148  1  0.40040020  0.39989544  0.19491851  1
  Nb  Nb149  1  0.40609288  0.40352840  0.60512505  1
  Pd  Pd150  1  0.60093456  0.79906548  0.39810110  1
  Pd  Pd151  1  -0.00366499  0.40465522  -0.00509296  1
  Pd  Pd152  1  0.80805044  -0.00175568  0.01417456  1
  Pd  Pd153  1  0.79650980  0.01147213  0.59069815  1
  Pd  Pd154  1  0.39410662  -0.00757935  0.40533021  1
  Pd  Pd155  1  0.01192795  -0.00828414  0.61284612  1
  Pd  Pd156  1  0.00118992  0.40134600  0.20402161  1
  Pd  Pd157  1  0.40265779  0.20203916  0.60672968  1
  Pd  Pd158  1  0.61059770  0.59739629  0.40341660  1
  Pd  Pd159  1  0.79671423  0.40555482  0.60870372  1
  Pd  Pd160  1  0.19879128  0.19894451  -0.00142407  1
  Pd  Pd161  1  0.20187230  0.61084895  0.01447813  1
  Pd  Pd162  1  0.39517693  0.59695990  0.60053699  1
  Pd  Pd163  1  0.00510799  0.20916379  0.40548073  1
  Pd  Pd164  1  0.38972179  0.39691028  0.00187141  1
  Pd  Pd165  1  0.39612428  0.80083149  0.00708393  1
  Pd  Pd166  1  0.80655816  0.18754198  0.41128531  1
  Pd  Pd167  1  0.00646646  0.80932257  0.40625648  1
  Pd  Pd168  1  0.39955098  0.80331573  0.79734083  1
  Pd  Pd169  1  0.80498622  0.19283337  0.19384433  1
  Pd  Pd170  1  -0.00948684  0.79565192  0.00675817  1
  Pd  Pd171  1  0.19631189  0.60376362  0.79364199  1
  Pd  Pd172  1  -0.00053314  -0.00764137  0.39671492  1
  Pd  Pd173  1  0.39334805  0.20405650  0.20609893  1
  Pd  Pd174  1  0.19416834  0.39821772  0.40080518  1
  Pd  Pd175  1  0.79818646  0.40972570  0.39319612  1
  Pd  Pd176  1  0.59634330  0.59919247  0.19392087  1
  Pd  Pd177  1  0.59495191  0.19974663  0.19538415  1
  Pd  Pd178  1  0.01143264  0.00593146  -0.00535624  1
  Pd  Pd179  1  0.00876900  0.60063125  0.20393650  1
  Pd  Pd180  1  0.80280893  0.18902001  0.58951806  1
  Pd  Pd181  1  0.00859160  0.19912904  0.00868229  1
  Pd  Pd182  1  0.60781747  0.20636772  0.81031652  1
  Pd  Pd183  1  0.40866098  0.39576717  0.40551727  1
  Pd  Pd184  1  0.59536353  0.00042209  0.19911273  1
  Pd  Pd185  1  0.19972523  -0.00736192  0.39021955  1
  Pd  Pd186  1  0.39108751  0.80337898  0.40717555  1
  Pd  Pd187  1  0.20399168  0.39928527  0.80359083  1
  Pd  Pd188  1  0.60778340  0.78758280  -0.00904748  1
  Pd  Pd189  1  0.19102015  0.00052930  -0.00712893  1
  Pd  Pd190  1  0.61412909  0.39055920  0.79942292  1
  Pd  Pd191  1  0.79183454  0.60850575  0.01072622  1
  Pd  Pd192  1  0.40471361  0.79904738  0.19559282  1
  Pd  Pd193  1  0.19530183  0.60786199  0.39606645  1
  Pd  Pd194  1  0.59626336  0.20465206  0.40226266  1
  Pd  Pd195  1  0.80436864  0.20532293  0.79544719  1
  Pd  Pd196  1  0.38963673  0.39346643  0.79756491  1
  Pd  Pd197  1  -0.00946980  0.79815283  0.78868743  1
  Pd  Pd198  1  0.39328504  0.19959877  0.39153478  1
  Pd  Pd199  1  0.59217524  -0.00478498  0.79124881  1
  Rh  Rh200  1  0.20513710  0.60108391  0.59805137  1
  Rh  Rh201  1  0.60170177  0.79741995  0.20804727  1
  Rh  Rh202  1  0.60424674  0.59753785  0.59294607  1
  Rh  Rh203  1  0.20128797  0.00951786  0.60846032  1
  Rh  Rh204  1  -0.00889603  0.79424367  0.19643791  1
  Rh  Rh205  1  -0.00011107  0.39962235  0.39522295  1
  Rh  Rh206  1  0.79883865  0.60616430  0.19506393  1
  Rh  Rh207  1  0.19703144  0.79458796  0.20829078  1
  Rh  Rh208  1  0.60378612  0.39832695  -0.01126507  1
  Rh  Rh209  1  0.20448839  0.20098171  0.39727863  1
  Rh  Rh210  1  0.19920862  0.40339844  0.20711848  1
  Rh  Rh211  1  0.20758415  0.80289711  0.80109233  1
  Rh  Rh212  1  -0.00307164  0.00412977  0.20199861  1
  Rh  Rh213  1  0.40193045  0.60491949  0.80304943  1
  Rh  Rh214  1  0.39804195  0.19876663  0.80359185  1
  Rh  Rh215  1  0.40034454  -0.00586298  -0.00179332  1
  Rh  Rh216  1  0.59862803  -0.00195072  0.40242219  1
  Rh  Rh217  1  0.80466995  -0.00337843  0.79461940  1
  Rh  Rh218  1  0.20413032  0.19396821  0.19940458  1
  Rh  Rh219  1  0.81642501  0.58758055  0.78814904  1
  Rh  Rh220  1  -0.00056607  0.19874768  0.79645347  1
  Rh  Rh221  1  0.58905297  0.00273863  0.59938785  1
  Rh  Rh222  1  0.18988402  0.79403673  0.58920285  1
  Rh  Rh223  1  0.79956977  0.59259932  0.40287800  1
  Rh  Rh224  1  0.59616509  0.20429401  0.59672740  1
  Rh  Rh225  1  0.81076505  0.40154566  -0.00328956  1
  Rh  Rh226  1  0.40099153  0.20061695  -0.00179364  1
  Rh  Rh227  1  0.59024038  0.01086759  0.00799001  1
  Rh  Rh228  1  0.00707132  0.59783671  -0.00386625  1
  Rh  Rh229  1  0.58655185  0.61034998  0.80796026  1
  Rh  Rh230  1  0.20086442  0.00497861  0.20137651  1
  Rh  Rh231  1  0.00275378  0.39303553  0.60246513  1
  Rh  Rh232  1  0.39843912  0.60694256  0.39631193  1
  Rh  Rh233  1  0.80467176  0.40457925  0.20742703  1
  Rh  Rh234  1  -0.00944540  0.61102876  0.59713989  1
  Rh  Rh235  1  0.79726502  0.19289420  0.00764883  1
  Rh  Rh236  1  0.80308400  0.78985503  0.60635744  1
  Rh  Rh237  1  0.20097711  0.80327904  0.00387741  1
  Rh  Rh238  1  0.00347055  0.20737251  0.19461129  1
  Rh  Rh239  1  0.59735390  0.39321058  0.21393743  1
  Rh  Rh240  1  0.60086594  0.79800283  0.60351177  1
  Rh  Rh241  1  0.19710456  0.20312810  0.59676694  1
  Rh  Rh242  1  0.39771447  0.80477797  0.59494198  1
  Rh  Rh243  1  0.21113960  0.40172602  0.59970247  1
  Rh  Rh244  1  0.40038157  -0.00246023  0.20074441  1
  Rh  Rh245  1  -0.00087713  0.59689666  0.39421631  1
  Rh  Rh246  1  0.79908315  0.80957286  0.39078171  1
  Rh  Rh247  1  0.20431299  0.38693356  -0.00880703  1
  Rh  Rh248  1  0.19843707  0.19509980  0.80679540  1
  Rh  Rh249  1  0.00625398  0.20356024  0.59377146  1
