# generated using pymatgen
data_ZrScNbPdRh
_symmetry_space_group_name_H-M   'P 1'
_cell_length_a   16.55690597
_cell_length_b   16.55686058
_cell_length_c   16.55529084
_cell_angle_alpha   90.02749815
_cell_angle_beta   89.98736189
_cell_angle_gamma   89.99988654
_symmetry_Int_Tables_number   1
_chemical_formula_structural   ZrScNbPdRh
_chemical_formula_sum   'Zr50 Sc50 Nb50 Pd50 Rh50'
_cell_volume   4538.30759783
_cell_formula_units_Z   50
loop_
 _symmetry_equiv_pos_site_id
 _symmetry_equiv_pos_as_xyz
  1  'x, y, z'
loop_
 _atom_site_type_symbol
 _atom_site_label
 _atom_site_symmetry_multiplicity
 _atom_site_fract_x
 _atom_site_fract_y
 _atom_site_fract_z
 _atom_site_occupancy
  Zr  Zr0  1  0.69999741  0.90752622  0.10029611  1
  Zr  Zr1  1  0.30529745  0.90013117  0.09945066  1
  Zr  Zr2  1  0.49800060  0.30249690  0.29052387  1
  Zr  Zr3  1  0.09769523  0.09859895  0.50135271  1
  Zr  Zr4  1  0.69192337  0.69767895  0.10030092  1
  Zr  Zr5  1  0.48949409  0.69522982  0.30071001  1
  Zr  Zr6  1  0.49549599  0.89530762  0.50177209  1
  Zr  Zr7  1  0.09921912  0.29433722  0.69534247  1
  Zr  Zr8  1  0.29200337  0.49638609  0.89302749  1
  Zr  Zr9  1  0.29875296  0.49250120  0.48993946  1
  Zr  Zr10  1  0.31365941  0.70709550  0.10346340  1
  Zr  Zr11  1  0.10166197  0.29728259  0.28994310  1
  Zr  Zr12  1  0.50590605  0.50311021  0.10526381  1
  Zr  Zr13  1  0.29809500  0.29644964  0.50218915  1
  Zr  Zr14  1  0.90587939  0.70604361  0.30286342  1
  Zr  Zr15  1  0.08893520  0.70647937  0.50544979  1
  Zr  Zr16  1  0.89304442  0.50306936  0.70756719  1
  Zr  Zr17  1  0.09385803  0.70140944  0.10723724  1
  Zr  Zr18  1  0.30783771  0.09792328  0.30459468  1
  Zr  Zr19  1  0.70741055  0.90331594  0.90422087  1
  Zr  Zr20  1  0.29566484  0.89275187  0.30232937  1
  Zr  Zr21  1  0.70944586  0.09857240  0.69534275  1
  Zr  Zr22  1  0.30879841  0.50241221  0.30541884  1
  Zr  Zr23  1  0.09820860  0.29659818  0.50809078  1
  Zr  Zr24  1  0.89552090  0.89694263  0.89745487  1
  Zr  Zr25  1  0.10623638  0.29742189  0.09517257  1
  Zr  Zr26  1  0.48932339  0.09854466  0.50209519  1
  Zr  Zr27  1  0.70462388  0.50147324  0.49809610  1
  Zr  Zr28  1  0.89569446  0.10705021  0.49858090  1
  Zr  Zr29  1  0.50043463  0.29142128  0.70569599  1
  Zr  Zr30  1  0.49880829  0.49070737  0.90516029  1
  Zr  Zr31  1  0.70296978  0.50580323  0.69802711  1
  Zr  Zr32  1  0.10370487  0.49337958  0.70206055  1
  Zr  Zr33  1  0.49469345  0.90557980  0.30196076  1
  Zr  Zr34  1  0.71052278  0.49867547  0.88768244  1
  Zr  Zr35  1  0.69682542  0.50210770  0.09806507  1
  Zr  Zr36  1  0.90145542  0.50270071  0.50779665  1
  Zr  Zr37  1  0.89878017  0.69684961  0.49856928  1
  Zr  Zr38  1  0.09361069  0.90427920  0.69026768  1
  Zr  Zr39  1  0.30248771  0.90398957  0.90030255  1
  Zr  Zr40  1  0.09953487  0.90581402  0.89848959  1
  Zr  Zr41  1  0.10182328  0.09449932  0.30314748  1
  Zr  Zr42  1  0.50878862  0.69747100  0.69271282  1
  Zr  Zr43  1  0.89846376  0.90550113  0.09798554  1
  Zr  Zr44  1  0.50502533  0.29044747  0.90171317  1
  Zr  Zr45  1  0.69820379  0.29762737  0.09207170  1
  Zr  Zr46  1  0.09776830  0.10069349  0.90172234  1
  Zr  Zr47  1  0.30017186  0.69808567  0.89974211  1
  Zr  Zr48  1  0.90208251  0.29249387  0.90341739  1
  Zr  Zr49  1  0.90483665  0.70156970  0.69867191  1
  Sc  Sc50  1  0.70431829  0.09750171  0.10470175  1
  Sc  Sc51  1  0.69550107  0.50186637  0.29893859  1
  Sc  Sc52  1  0.70161970  0.29901171  0.29275236  1
  Sc  Sc53  1  0.09688255  0.90339922  0.11187218  1
  Sc  Sc54  1  0.50110624  0.30925448  0.09486503  1
  Sc  Sc55  1  0.09972240  0.10313516  0.10325279  1
  Sc  Sc56  1  0.49682803  0.90184941  0.09622767  1
  Sc  Sc57  1  0.29875972  0.30506998  0.29907976  1
  Sc  Sc58  1  0.90581018  0.89498306  0.49963561  1
  Sc  Sc59  1  0.50987723  0.49298118  0.69547810  1
  Sc  Sc60  1  0.29992296  0.29869969  0.10131259  1
  Sc  Sc61  1  0.50083890  0.70204885  0.91183306  1
  Sc  Sc62  1  0.90768596  0.90500583  0.29962899  1
  Sc  Sc63  1  0.29698278  0.10091034  0.50072212  1
  Sc  Sc64  1  0.09984491  0.71229885  0.30107032  1
  Sc  Sc65  1  0.48929002  0.10412588  0.69917416  1
  Sc  Sc66  1  0.29910752  0.30422078  0.70096378  1
  Sc  Sc67  1  0.30306341  0.09069478  0.90099315  1
  Sc  Sc68  1  0.90080819  0.29581792  0.30017125  1
  Sc  Sc69  1  0.69969605  0.69553070  0.31106228  1
  Sc  Sc70  1  0.69833533  0.30368549  0.70228109  1
  Sc  Sc71  1  0.29784403  0.10101782  0.10077577  1
  Sc  Sc72  1  0.89490390  0.50959036  0.30639659  1
  Sc  Sc73  1  0.90244104  0.10034747  0.09902837  1
  Sc  Sc74  1  0.70128200  0.10804821  0.91016307  1
  Sc  Sc75  1  0.29184763  0.70188323  0.48507486  1
  Sc  Sc76  1  0.90323165  0.09994698  0.29530654  1
  Sc  Sc77  1  0.49638359  0.49966761  0.29822764  1
  Sc  Sc78  1  0.11191106  0.49263952  0.30524339  1
  Sc  Sc79  1  0.90539756  0.09267197  0.90678584  1
  Sc  Sc80  1  0.49167720  0.29971982  0.51287734  1
  Sc  Sc81  1  0.29468476  0.91119600  0.69844646  1
  Sc  Sc82  1  0.49152330  0.91032880  0.69508037  1
  Sc  Sc83  1  0.50140554  0.10462710  0.09930358  1
  Sc  Sc84  1  0.71287317  0.29548674  0.50113887  1
  Sc  Sc85  1  0.09704250  0.90193471  0.30279891  1
  Sc  Sc86  1  0.49265663  0.91039446  0.90612506  1
  Sc  Sc87  1  0.09109798  0.49408782  0.10044583  1
  Sc  Sc88  1  0.90214432  0.68756169  0.10534559  1
  Sc  Sc89  1  0.70000530  0.69836957  0.69581803  1
  Sc  Sc90  1  0.10162921  0.49884834  0.90336503  1
  Sc  Sc91  1  0.69205825  0.69746286  0.50530803  1
  Sc  Sc92  1  0.69749464  0.29682458  0.89782529  1
  Sc  Sc93  1  0.91380664  0.29348978  0.10343726  1
  Sc  Sc94  1  0.69924065  0.88472479  0.50207698  1
  Sc  Sc95  1  0.30826242  0.49239110  0.09341438  1
  Sc  Sc96  1  0.30033091  0.30733745  0.90390953  1
  Sc  Sc97  1  0.70540461  0.70267647  0.90170851  1
  Sc  Sc98  1  0.90566740  0.30040952  0.68936270  1
  Sc  Sc99  1  0.09480775  0.69978219  0.70025150  1
  Nb  Nb100  1  0.50182954  0.69938661  0.10523743  1
  Nb  Nb101  1  0.89982990  0.50110241  0.09657091  1
  Nb  Nb102  1  0.29819569  0.69885477  0.29324180  1
  Nb  Nb103  1  0.09825089  0.10058046  0.69872349  1
  Nb  Nb104  1  0.70165615  0.90284348  0.70371998  1
  Nb  Nb105  1  0.29520591  0.50697533  0.70423372  1
  Nb  Nb106  1  0.50081044  0.69756614  0.50482117  1
  Nb  Nb107  1  0.90043036  0.50390038  0.90114010  1
  Nb  Nb108  1  0.69729309  0.90617712  0.29240340  1
  Nb  Nb109  1  0.90706670  0.30323571  0.49705161  1
  Nb  Nb110  1  0.90944518  0.69416317  0.89666145  1
  Nb  Nb111  1  0.29772408  0.69571858  0.70096066  1
  Nb  Nb112  1  0.29555902  0.90078628  0.49865122  1
  Nb  Nb113  1  0.29601165  0.09794907  0.70361591  1
  Nb  Nb114  1  0.50386501  0.10059350  0.30296212  1
  Nb  Nb115  1  0.10127569  0.29865813  0.89929220  1
  Nb  Nb116  1  0.10003928  0.70033908  0.90122586  1
  Nb  Nb117  1  0.10617144  0.89973289  0.49478954  1
  Nb  Nb118  1  0.90031037  0.09005444  0.69960202  1
  Nb  Nb119  1  0.69827764  0.10017297  0.49573763  1
  Nb  Nb120  1  0.50374180  0.10476622  0.89148022  1
  Nb  Nb121  1  0.88674790  0.90884813  0.70359578  1
  Nb  Nb122  1  0.49402724  0.49986413  0.49568888  1
  Nb  Nb123  1  0.10051967  0.49906147  0.50359074  1
  Nb  Nb124  1  0.69469320  0.09359922  0.29582061  1
  Nb  Nb125  1  0.40092893  0.60010038  0.79383275  1
  Nb  Nb126  1  0.59785403  0.81114726  0.79788930  1
  Nb  Nb127  1  0.20644966  0.60370172  0.19779420  1
  Nb  Nb128  1  0.39272823  0.79337439  0.59959448  1
  Nb  Nb129  1  0.00131180  0.39810018  0.40850557  1
  Nb  Nb130  1  0.80394124  0.40539143  0.18930399  1
  Nb  Nb131  1  0.20043739  0.80005786  0.80085175  1
  Nb  Nb132  1  -0.00139627  0.39743827  0.80514152  1
  Nb  Nb133  1  0.80805061  0.19366809  0.79496488  1
  Nb  Nb134  1  0.39930067  0.79599585  0.79358429  1
  Nb  Nb135  1  0.60377605  0.00221958  0.79694008  1
  Nb  Nb136  1  0.80853934  0.40426083  0.00102404  1
  Nb  Nb137  1  0.19397382  0.19516113  0.79832998  1
  Nb  Nb138  1  0.00052270  0.79499674  -0.00550818  1
  Nb  Nb139  1  0.79350628  0.80261460  0.20160966  1
  Nb  Nb140  1  0.60228387  0.00337429  0.40066491  1
  Nb  Nb141  1  0.59624514  0.39371563  0.40423934  1
  Nb  Nb142  1  0.59925389  0.19611589  0.39815901  1
  Nb  Nb143  1  0.79011163  0.00190657  0.39745692  1
  Nb  Nb144  1  0.39516417  0.59957905  0.59741887  1
  Nb  Nb145  1  0.19795553  0.60659009  0.00554736  1
  Nb  Nb146  1  0.60639057  0.00200099  0.59777517  1
  Nb  Nb147  1  0.20244739  0.59778729  0.59792724  1
  Nb  Nb148  1  0.59936558  0.79995687  0.20104007  1
  Nb  Nb149  1  0.19519499  0.79813503  -0.00145513  1
  Pd  Pd150  1  0.60203482  0.59630552  -0.01050730  1
  Pd  Pd151  1  0.00266037  0.80558032  0.79819870  1
  Pd  Pd152  1  0.39706601  0.59525488  -0.00338881  1
  Pd  Pd153  1  0.59941772  0.80225108  0.39291742  1
  Pd  Pd154  1  0.81126752  0.78842563  0.00956864  1
  Pd  Pd155  1  0.20334003  0.79537596  0.60320749  1
  Pd  Pd156  1  0.39721586  0.19836000  -0.00067764  1
  Pd  Pd157  1  -0.00580482  -0.00166964  0.59241019  1
  Pd  Pd158  1  0.79966311  0.80691269  0.39306509  1
  Pd  Pd159  1  0.01050622  0.58942116  0.21242575  1
  Pd  Pd160  1  0.19547156  -0.00322219  0.00974108  1
  Pd  Pd161  1  0.79717918  -0.00815551  0.58503635  1
  Pd  Pd162  1  0.19055585  0.60748242  0.39765691  1
  Pd  Pd163  1  0.59978372  0.19677578  0.59673163  1
  Pd  Pd164  1  0.80510805  0.20493023  0.60403297  1
  Pd  Pd165  1  0.80276866  0.79762375  0.60306638  1
  Pd  Pd166  1  -0.00084436  0.39877522  -0.00561689  1
  Pd  Pd167  1  -0.00923702  0.40843184  0.21425830  1
  Pd  Pd168  1  0.59658497  0.00824339  -0.00375382  1
  Pd  Pd169  1  0.20231541  0.00126103  0.20194373  1
  Pd  Pd170  1  0.20123986  0.00514028  0.59630814  1
  Pd  Pd171  1  0.00730458  0.59220822  0.80019092  1
  Pd  Pd172  1  0.59459408  0.59249659  0.40044000  1
  Pd  Pd173  1  0.60023180  0.39693659  0.80225642  1
  Pd  Pd174  1  0.80188878  0.60271938  -0.00371166  1
  Pd  Pd175  1  0.79964137  0.39535863  0.60271651  1
  Pd  Pd176  1  0.00256855  0.20335167  0.39619632  1
  Pd  Pd177  1  0.79502015  0.19682100  0.39018557  1
  Pd  Pd178  1  0.80227249  0.20329968  0.19846610  1
  Pd  Pd179  1  0.39653882  0.79605206  0.40418708  1
  Pd  Pd180  1  0.00923591  0.59359197  0.39415966  1
  Pd  Pd181  1  0.40281684  0.00492894  0.19483970  1
  Pd  Pd182  1  0.38471603  0.19965039  0.80359874  1
  Pd  Pd183  1  0.40524486  0.20770641  0.39964812  1
  Pd  Pd184  1  0.20595543  0.40321199  0.59965888  1
  Pd  Pd185  1  -0.00323396  0.20019003  0.79518149  1
  Pd  Pd186  1  0.79615098  0.60233662  0.20550545  1
  Pd  Pd187  1  0.39803297  0.20033750  0.19519832  1
  Pd  Pd188  1  0.20679561  0.40917546  0.19309356  1
  Pd  Pd189  1  0.59964955  0.20086068  0.19674016  1
  Pd  Pd190  1  0.20680107  0.19801893  -0.00852754  1
  Pd  Pd191  1  0.80138273  0.39901574  0.38991745  1
  Pd  Pd192  1  0.19967853  0.20320878  0.39537310  1
  Pd  Pd193  1  0.59512309  0.60785529  0.80807545  1
  Pd  Pd194  1  -0.00230052  -0.00213861  0.79836581  1
  Pd  Pd195  1  0.40309206  0.40356628  0.79439415  1
  Pd  Pd196  1  0.39630002  0.40541166  0.60818626  1
  Pd  Pd197  1  0.59465293  0.80566145  -0.00078873  1
  Pd  Pd198  1  0.79526013  0.79245983  0.79597345  1
  Pd  Pd199  1  0.60477402  0.39819107  0.59183901  1
  Rh  Rh200  1  0.38985317  0.19927084  0.60722540  1
  Rh  Rh201  1  0.40852913  0.80447362  0.20306991  1
  Rh  Rh202  1  0.19398256  0.00305030  0.79386165  1
  Rh  Rh203  1  0.79891232  0.60763565  0.59910903  1
  Rh  Rh204  1  0.19520988  0.80067013  0.39823826  1
  Rh  Rh205  1  0.20355348  -0.00237671  0.40170615  1
  Rh  Rh206  1  0.79867389  0.60312248  0.40430607  1
  Rh  Rh207  1  0.60631277  0.40035102  0.20662538  1
  Rh  Rh208  1  0.20542508  0.19242658  0.60826670  1
  Rh  Rh209  1  0.61059681  0.19129370  0.79451065  1
  Rh  Rh210  1  0.79588492  0.00933652  0.80939815  1
  Rh  Rh211  1  0.00329882  -0.00553285  0.00442631  1
  Rh  Rh212  1  0.19691991  0.60565283  0.80105279  1
  Rh  Rh213  1  0.39648928  -0.00145270  0.40369107  1
  Rh  Rh214  1  0.39600450  0.59380601  0.19625261  1
  Rh  Rh215  1  -0.01445195  0.80352918  0.19445988  1
  Rh  Rh216  1  0.40720936  0.00128335  0.80030158  1
  Rh  Rh217  1  0.40820807  0.39064647  0.39853393  1
  Rh  Rh218  1  0.20421522  0.79839584  0.19731758  1
  Rh  Rh219  1  0.59761557  0.60767511  0.20834478  1
  Rh  Rh220  1  -0.00734840  0.80917521  0.60393234  1
  Rh  Rh221  1  0.39209959  -0.00203664  0.59624633  1
  Rh  Rh222  1  0.80801751  -0.00261943  0.20538186  1
  Rh  Rh223  1  0.00650589  0.59521373  0.60622625  1
  Rh  Rh224  1  0.00582079  0.19599564  0.00583358  1
  Rh  Rh225  1  0.00362306  0.80630600  0.40283427  1
  Rh  Rh226  1  0.80364583  0.20294418  -0.00088624  1
  Rh  Rh227  1  -0.00304797  0.40803637  0.60168996  1
  Rh  Rh228  1  0.00144275  0.00483520  0.20137648  1
  Rh  Rh229  1  0.40244009  0.80233350  -0.00354688  1
  Rh  Rh230  1  0.40519344  0.01131783  0.00154576  1
  Rh  Rh231  1  0.19275542  0.38766986  0.79987891  1
  Rh  Rh232  1  0.59751813  0.58768023  0.59121994  1
  Rh  Rh233  1  0.40231074  0.39575938  -0.00096647  1
  Rh  Rh234  1  0.39903387  0.40214382  0.19812382  1
  Rh  Rh235  1  0.81167838  0.38676549  0.80580497  1
  Rh  Rh236  1  -0.00814592  0.18952561  0.60151150  1
  Rh  Rh237  1  0.40057291  0.60608708  0.40652245  1
  Rh  Rh238  1  0.19071620  0.38807252  0.40477984  1
  Rh  Rh239  1  0.19679037  0.40442643  0.00344896  1
  Rh  Rh240  1  0.60898654  0.40197645  -0.00743978  1
  Rh  Rh241  1  0.00408412  0.60265544  -0.00255572  1
  Rh  Rh242  1  0.20557985  0.19453954  0.20571829  1
  Rh  Rh243  1  -0.00458117  0.00035018  0.40591399  1
  Rh  Rh244  1  0.59739040  0.19667037  0.00428068  1
  Rh  Rh245  1  0.00479392  0.19533422  0.20001681  1
  Rh  Rh246  1  0.80055479  0.61174922  0.79975313  1
  Rh  Rh247  1  0.59377598  0.81199858  0.60831031  1
  Rh  Rh248  1  0.80043984  0.00810342  -0.00093043  1
  Rh  Rh249  1  0.58938024  -0.00396988  0.19943247  1
