# generated using pymatgen
data_ZrScNbPdRh
_symmetry_space_group_name_H-M   'P 1'
_cell_length_a   16.55350836
_cell_length_b   16.54986451
_cell_length_c   16.55200708
_cell_angle_alpha   89.99385786
_cell_angle_beta   89.99484607
_cell_angle_gamma   89.99647807
_symmetry_Int_Tables_number   1
_chemical_formula_structural   ZrScNbPdRh
_chemical_formula_sum   'Zr50 Sc50 Nb50 Pd50 Rh50'
_cell_volume   4534.56000740
_cell_formula_units_Z   50
loop_
 _symmetry_equiv_pos_site_id
 _symmetry_equiv_pos_as_xyz
  1  'x, y, z'
loop_
 _atom_site_type_symbol
 _atom_site_label
 _atom_site_symmetry_multiplicity
 _atom_site_fract_x
 _atom_site_fract_y
 _atom_site_fract_z
 _atom_site_occupancy
  Zr  Zr0  1  0.49187818  0.51532883  0.71058906  1
  Zr  Zr1  1  0.70456847  0.29413800  0.09575207  1
  Zr  Zr2  1  0.49690439  0.29362665  0.10276812  1
  Zr  Zr3  1  0.50251129  0.09778603  0.69903475  1
  Zr  Zr4  1  0.09115684  0.90102942  0.29880318  1
  Zr  Zr5  1  0.69538482  0.09629635  0.09790943  1
  Zr  Zr6  1  0.09986177  0.30364954  0.09542605  1
  Zr  Zr7  1  0.89283466  0.70535393  0.10162868  1
  Zr  Zr8  1  0.09833059  0.09638628  0.30188425  1
  Zr  Zr9  1  0.30202981  0.89239432  0.08880743  1
  Zr  Zr10  1  0.10316342  0.68443585  0.08747704  1
  Zr  Zr11  1  0.49201722  0.69401693  0.50132849  1
  Zr  Zr12  1  0.29211185  0.30992749  0.70567182  1
  Zr  Zr13  1  0.50186141  0.69634596  0.29811787  1
  Zr  Zr14  1  0.30710168  0.10932931  0.70841840  1
  Zr  Zr15  1  0.09468055  0.29356706  0.30040597  1
  Zr  Zr16  1  0.30053024  0.10103246  0.29754020  1
  Zr  Zr17  1  0.90771868  0.09893761  0.30364951  1
  Zr  Zr18  1  0.89483574  0.30116197  0.29802331  1
  Zr  Zr19  1  0.29757012  0.89627462  0.30037292  1
  Zr  Zr20  1  0.69436229  0.49052263  0.90194704  1
  Zr  Zr21  1  0.09126698  0.70635529  0.30146217  1
  Zr  Zr22  1  0.30646184  0.28598703  0.89955617  1
  Zr  Zr23  1  0.69715420  0.09618264  0.90042597  1
  Zr  Zr24  1  0.50354048  0.49688184  0.09504271  1
  Zr  Zr25  1  0.49720871  0.88984012  0.89881703  1
  Zr  Zr26  1  0.50655126  0.91013314  0.29598632  1
  Zr  Zr27  1  0.70518315  0.50207100  0.70706835  1
  Zr  Zr28  1  0.69921490  0.69269637  0.29696795  1
  Zr  Zr29  1  0.50703453  0.50733033  0.90065408  1
  Zr  Zr30  1  0.90602446  0.70241243  0.89859342  1
  Zr  Zr31  1  0.89669928  0.89996422  0.29878847  1
  Zr  Zr32  1  0.09304052  0.10154805  0.69816763  1
  Zr  Zr33  1  0.30413041  0.69780174  0.69724360  1
  Zr  Zr34  1  0.50272574  0.10838002  0.29639462  1
  Zr  Zr35  1  0.09845811  0.30598232  0.69834204  1
  Zr  Zr36  1  0.89487347  0.50053666  0.09227059  1
  Zr  Zr37  1  0.89831414  0.91127187  0.70557612  1
  Zr  Zr38  1  0.31360779  0.30226825  0.29646956  1
  Zr  Zr39  1  0.09343603  0.09899828  0.49553377  1
  Zr  Zr40  1  0.10227804  0.49495565  0.29541828  1
  Zr  Zr41  1  0.50431088  0.30451685  0.49169228  1
  Zr  Zr42  1  0.29491282  0.88688220  0.50150395  1
  Zr  Zr43  1  0.29914683  0.10772138  0.09156120  1
  Zr  Zr44  1  0.70280032  0.90142254  0.50117424  1
  Zr  Zr45  1  0.89834469  0.90048200  0.10375391  1
  Zr  Zr46  1  0.10256000  0.70495956  0.50174941  1
  Zr  Zr47  1  0.28593649  0.50470828  0.10018339  1
  Zr  Zr48  1  0.89347148  0.30476472  0.91249554  1
  Zr  Zr49  1  0.88772031  0.90300106  0.50810791  1
  Sc  Sc50  1  0.10481291  0.49827018  0.69886251  1
  Sc  Sc51  1  0.30577828  0.49474854  0.88863834  1
  Sc  Sc52  1  0.10137354  0.30030208  0.90457194  1
  Sc  Sc53  1  0.70190576  0.89918916  0.10078768  1
  Sc  Sc54  1  0.89499920  0.70158019  0.29888247  1
  Sc  Sc55  1  0.69803677  0.10255531  0.70229223  1
  Sc  Sc56  1  0.10065135  0.89426276  0.70781521  1
  Sc  Sc57  1  0.69785358  0.30042152  0.69626232  1
  Sc  Sc58  1  0.69423082  0.09121841  0.30345555  1
  Sc  Sc59  1  0.30657197  0.89461648  0.70280481  1
  Sc  Sc60  1  0.50691319  0.50048067  0.30513798  1
  Sc  Sc61  1  0.30964714  0.50170829  0.49985293  1
  Sc  Sc62  1  0.10137982  0.89579642  0.49437103  1
  Sc  Sc63  1  0.08932815  0.30711600  0.50496817  1
  Sc  Sc64  1  0.70173664  0.50251348  0.30417298  1
  Sc  Sc65  1  0.70909740  0.69916244  0.50467667  1
  Sc  Sc66  1  0.30260642  0.30425980  0.09980607  1
  Sc  Sc67  1  0.30987091  0.30462794  0.49957026  1
  Sc  Sc68  1  0.89049543  0.30204913  0.68928409  1
  Sc  Sc69  1  0.89625824  0.09868483  0.50900907  1
  Sc  Sc70  1  0.89431518  0.50096411  0.49811117  1
  Sc  Sc71  1  0.70428882  0.29837322  0.30314377  1
  Sc  Sc72  1  0.50385561  0.88815310  0.70711090  1
  Sc  Sc73  1  0.88846594  0.50282533  0.89762928  1
  Sc  Sc74  1  0.50662983  0.50019504  0.49459246  1
  Sc  Sc75  1  0.10231033  0.70265024  0.88678252  1
  Sc  Sc76  1  0.09480864  0.49814746  0.50347352  1
  Sc  Sc77  1  0.09708909  0.10604427  0.09773585  1
  Sc  Sc78  1  0.09905161  0.51054976  0.91500580  1
  Sc  Sc79  1  0.50431621  0.10576334  0.49905386  1
  Sc  Sc80  1  0.50228371  0.10340387  0.89292811  1
  Sc  Sc81  1  0.29731506  0.71020867  0.89845865  1
  Sc  Sc82  1  0.50340797  0.90057746  0.09961633  1
  Sc  Sc83  1  0.69967271  0.90137323  0.90335824  1
  Sc  Sc84  1  0.69917180  0.30091243  0.50388442  1
  Sc  Sc85  1  0.69445459  0.70249910  0.90584234  1
  Sc  Sc86  1  0.89818260  0.68939489  0.50317681  1
  Sc  Sc87  1  0.31093613  0.10008631  0.50225696  1
  Sc  Sc88  1  0.69743438  0.50980662  0.09821435  1
  Sc  Sc89  1  0.69874240  0.50026821  0.49554202  1
  Sc  Sc90  1  0.50560090  0.70300045  0.10136210  1
  Sc  Sc91  1  0.30747341  0.49620723  0.28800941  1
  Sc  Sc92  1  0.50768987  0.28863724  0.69786753  1
  Sc  Sc93  1  0.09917903  0.10233184  0.91243619  1
  Sc  Sc94  1  0.89247011  0.29821565  0.49546377  1
  Sc  Sc95  1  0.70205186  0.70228704  0.10377977  1
  Sc  Sc96  1  0.70331154  0.09934877  0.49833401  1
  Sc  Sc97  1  0.50577354  0.09760815  0.10177794  1
  Sc  Sc98  1  0.49653061  0.89842834  0.50138538  1
  Sc  Sc99  1  0.50523904  0.30533939  0.90393565  1
  Nb  Nb100  1  0.30012682  0.09955794  0.89997815  1
  Nb  Nb101  1  0.89643620  0.49931413  0.29771855  1
  Nb  Nb102  1  0.30487593  0.69661687  0.10140178  1
  Nb  Nb103  1  0.30187315  0.69979322  0.29821420  1
  Nb  Nb104  1  0.50508975  0.69912167  0.71197519  1
  Nb  Nb105  1  0.10512655  0.89990881  0.90458240  1
  Nb  Nb106  1  0.90456046  0.90311869  0.89744153  1
  Nb  Nb107  1  0.70513898  0.89156560  0.69430307  1
  Nb  Nb108  1  0.09959589  0.49680559  0.10242097  1
  Nb  Nb109  1  0.70106054  0.70816076  0.69885745  1
  Nb  Nb110  1  0.70135270  0.30191907  0.89406925  1
  Nb  Nb111  1  0.29810536  0.70146020  0.49610447  1
  Nb  Nb112  1  0.89657213  0.10719914  0.09328695  1
  Nb  Nb113  1  0.49935436  0.30430683  0.29765956  1
  Nb  Nb114  1  0.70085386  0.90199749  0.30967308  1
  Nb  Nb115  1  0.90088237  0.69362854  0.70429402  1
  Nb  Nb116  1  0.29484573  0.90106259  0.90139747  1
  Nb  Nb117  1  0.89324339  0.50711573  0.70551125  1
  Nb  Nb118  1  0.89621813  0.09885583  0.70664869  1
  Nb  Nb119  1  0.49868946  0.69779072  0.89135352  1
  Nb  Nb120  1  0.30014661  0.49877228  0.69496837  1
  Nb  Nb121  1  0.10196739  0.89675915  0.09741467  1
  Nb  Nb122  1  0.09876389  0.70209349  0.69985267  1
  Nb  Nb123  1  0.89713412  0.29798696  0.10140161  1
  Nb  Nb124  1  0.89821101  0.09182999  0.89689169  1
  Nb  Nb125  1  0.80446299  0.19807005  0.80537114  1
  Nb  Nb126  1  -0.00769979  0.39925993  0.79951688  1
  Nb  Nb127  1  -0.01077835  0.20124011  0.80269728  1
  Nb  Nb128  1  0.00320379  0.80780312  -0.00400444  1
  Nb  Nb129  1  0.40030095  -0.00169561  0.39590820  1
  Nb  Nb130  1  0.60052860  0.60709236  0.61080802  1
  Nb  Nb131  1  0.20375669  0.00062812  0.80704079  1
  Nb  Nb132  1  0.59881644  0.39391410  0.19916138  1
  Nb  Nb133  1  0.39460646  -0.00081057  -0.00866408  1
  Nb  Nb134  1  -0.00507753  0.79381285  0.61030193  1
  Nb  Nb135  1  0.20062469  0.20489184  0.40429482  1
  Nb  Nb136  1  0.40379868  0.40542623  0.60804818  1
  Nb  Nb137  1  0.20108250  0.79628012  0.19382489  1
  Nb  Nb138  1  0.60333918  0.80030111  0.39777441  1
  Nb  Nb139  1  0.60304237  -0.00723331  0.60348141  1
  Nb  Nb140  1  0.19974112  0.19984576  0.59818490  1
  Nb  Nb141  1  0.39876463  0.60651239  -0.00067835  1
  Nb  Nb142  1  0.19796713  -0.00777220  0.19156995  1
  Nb  Nb143  1  -0.00202140  0.59156753  0.19650515  1
  Nb  Nb144  1  0.20482098  0.60218773  0.39947991  1
  Nb  Nb145  1  0.20235839  0.39968245  0.39777863  1
  Nb  Nb146  1  0.20532852  0.60451559  0.59725508  1
  Nb  Nb147  1  0.80468442  0.80151052  0.79621076  1
  Nb  Nb148  1  0.20333393  0.00441513  0.60640866  1
  Nb  Nb149  1  -0.00691522  0.40049239  0.19389433  1
  Pd  Pd150  1  0.20789524  0.00617191  0.40608974  1
  Pd  Pd151  1  -0.00174308  0.40422394  -0.00196340  1
  Pd  Pd152  1  -0.00350132  0.20225295  0.19360380  1
  Pd  Pd153  1  0.80033013  -0.00399024  0.00083675  1
  Pd  Pd154  1  0.59825772  0.79821892  0.00157864  1
  Pd  Pd155  1  0.01250707  0.00507473  0.80648343  1
  Pd  Pd156  1  0.00525704  0.59867746  0.60469618  1
  Pd  Pd157  1  0.79822952  0.19449948  -0.00632962  1
  Pd  Pd158  1  0.60608070  0.20446488  0.39862113  1
  Pd  Pd159  1  0.39330743  0.40720489  0.00074106  1
  Pd  Pd160  1  0.39411404  0.00301461  0.19326770  1
  Pd  Pd161  1  -0.01477945  0.80279188  0.41336898  1
  Pd  Pd162  1  0.59365171  0.79697894  0.59233009  1
  Pd  Pd163  1  0.19422087  0.60777068  0.20864010  1
  Pd  Pd164  1  0.39466899  0.59320743  0.39298054  1
  Pd  Pd165  1  -0.01365189  0.40964103  0.60675390  1
  Pd  Pd166  1  0.79904868  0.79292115  0.39910630  1
  Pd  Pd167  1  0.40848217  0.80460657  0.39455357  1
  Pd  Pd168  1  0.00114023  0.59573410  0.39458089  1
  Pd  Pd169  1  0.40615293  0.79751336  0.60517275  1
  Pd  Pd170  1  0.60507692  -0.01015093  0.79437120  1
  Pd  Pd171  1  0.79101570  0.61063159  0.80867221  1
  Pd  Pd172  1  -0.00130544  -0.00172128  0.00521022  1
  Pd  Pd173  1  0.79828446  0.40550190  0.59540065  1
  Pd  Pd174  1  0.19481828  0.78994184  -0.00041289  1
  Pd  Pd175  1  0.18733646  0.19421016  0.80127345  1
  Pd  Pd176  1  0.79743187  0.00499172  0.20263657  1
  Pd  Pd177  1  0.59569538  0.20033105  -0.00584629  1
  Pd  Pd178  1  0.59312856  0.39555520  0.79120103  1
  Pd  Pd179  1  0.79323193  0.40553735  0.19609147  1
  Pd  Pd180  1  0.39799869  0.21133431  0.60124099  1
  Pd  Pd181  1  0.59296739  0.41307683  0.60829801  1
  Pd  Pd182  1  -0.00248362  0.40152994  0.39655390  1
  Pd  Pd183  1  0.39884768  -0.00401663  0.80430567  1
  Pd  Pd184  1  0.79454932  0.60430736  -0.00572178  1
  Pd  Pd185  1  0.41082363  0.39190797  0.79496493  1
  Pd  Pd186  1  0.00763511  -0.01160716  0.59646395  1
  Pd  Pd187  1  0.79612930  0.18777508  0.20464386  1
  Pd  Pd188  1  0.40230922  -0.00524422  0.59653133  1
  Pd  Pd189  1  0.18742924  0.40801192  0.81160293  1
  Pd  Pd190  1  0.40043351  0.80002555  0.19916569  1
  Pd  Pd191  1  0.40775123  0.59577982  0.19477462  1
  Pd  Pd192  1  -0.00463027  0.20317997  0.60077115  1
  Pd  Pd193  1  0.20765717  0.39998525  -0.00871953  1
  Pd  Pd194  1  0.20142240  0.59675038  0.79754300  1
  Pd  Pd195  1  0.00563031  0.58808611  0.79966135  1
  Pd  Pd196  1  0.79881773  0.19486744  0.39969845  1
  Pd  Pd197  1  0.20196548  0.20093918  0.20121155  1
  Pd  Pd198  1  0.00295220  0.00546780  0.18922167  1
  Pd  Pd199  1  0.60709474  0.80470704  0.20441881  1
  Rh  Rh200  1  0.40140455  0.19757179  0.19631690  1
  Rh  Rh201  1  0.60746809  0.39309168  0.00766527  1
  Rh  Rh202  1  0.20388474  0.00417794  0.00122833  1
  Rh  Rh203  1  0.79118476  -0.00147605  0.79947887  1
  Rh  Rh204  1  0.19398455  0.80027253  0.60776487  1
  Rh  Rh205  1  0.59399269  0.60887955  0.00057194  1
  Rh  Rh206  1  -0.00286304  0.20080298  0.40754235  1
  Rh  Rh207  1  0.61186226  0.60609471  0.79941469  1
  Rh  Rh208  1  0.40977718  0.40630071  0.19452290  1
  Rh  Rh209  1  0.60460281  0.39413954  0.39028950  1
  Rh  Rh210  1  -0.01007605  -0.00659123  0.40909516  1
  Rh  Rh211  1  0.79140808  0.80520903  0.20761348  1
  Rh  Rh212  1  -0.00732872  0.19805074  -0.00269911  1
  Rh  Rh213  1  0.20062182  0.79215739  0.38883816  1
  Rh  Rh214  1  0.60771991  0.20440999  0.80395232  1
  Rh  Rh215  1  0.40098568  0.59834773  0.60006245  1
  Rh  Rh216  1  0.61067320  0.79871323  0.80474753  1
  Rh  Rh217  1  0.20024750  0.20603373  -0.00091381  1
  Rh  Rh218  1  0.38926750  0.60772986  0.80899966  1
  Rh  Rh219  1  0.79816880  0.40146655  0.40156734  1
  Rh  Rh220  1  0.81338133  0.79211059  0.60898820  1
  Rh  Rh221  1  0.41008169  0.20522653  0.80194103  1
  Rh  Rh222  1  -0.00390302  0.80339934  0.80019246  1
  Rh  Rh223  1  0.40169201  0.40482335  0.40427669  1
  Rh  Rh224  1  0.80914799  0.80635412  -0.00968840  1
  Rh  Rh225  1  0.79137628  0.40195185  0.00563098  1
  Rh  Rh226  1  0.80521647  0.59852234  0.20238671  1
  Rh  Rh227  1  0.60584170  0.18935334  0.59631045  1
  Rh  Rh228  1  0.78901069  0.00913345  0.60791672  1
  Rh  Rh229  1  0.59821251  0.59073984  0.19809517  1
  Rh  Rh230  1  0.79377021  0.59665370  0.60365190  1
  Rh  Rh231  1  0.19451847  0.38928354  0.20444210  1
  Rh  Rh232  1  0.60500082  0.61090520  0.41184289  1
  Rh  Rh233  1  0.21207005  0.40303931  0.58754970  1
  Rh  Rh234  1  -0.00831709  0.60292904  0.00140047  1
  Rh  Rh235  1  0.80697996  0.00563611  0.39657389  1
  Rh  Rh236  1  0.80518773  0.39132400  0.79659794  1
  Rh  Rh237  1  0.60533206  0.20539519  0.20455543  1
  Rh  Rh238  1  0.20251164  0.80679459  0.79509607  1
  Rh  Rh239  1  0.58950173  -0.00238514  -0.00177596  1
  Rh  Rh240  1  0.00959984  0.78643196  0.18357477  1
  Rh  Rh241  1  0.80107752  0.59848646  0.39840345  1
  Rh  Rh242  1  0.39536984  0.79619524  0.80116644  1
  Rh  Rh243  1  0.39909993  0.19415366  0.39660073  1
  Rh  Rh244  1  0.59193673  -0.00578303  0.41126460  1
  Rh  Rh245  1  0.21410190  0.60068706  -0.01239742  1
  Rh  Rh246  1  0.40581589  0.79673849  -0.00238193  1
  Rh  Rh247  1  0.40846679  0.19201957  -0.00296773  1
  Rh  Rh248  1  0.79719199  0.19637023  0.60625596  1
  Rh  Rh249  1  0.60833988  -0.00198404  0.19645910  1
