# generated using pymatgen
data_ZrScNbPdRh
_symmetry_space_group_name_H-M   'P 1'
_cell_length_a   16.56043959
_cell_length_b   16.55604865
_cell_length_c   16.56340676
_cell_angle_alpha   89.97977931
_cell_angle_beta   89.98836174
_cell_angle_gamma   90.00371458
_symmetry_Int_Tables_number   1
_chemical_formula_structural   ZrScNbPdRh
_chemical_formula_sum   'Zr50 Sc50 Nb50 Pd50 Rh50'
_cell_volume   4541.27900796
_cell_formula_units_Z   50
loop_
 _symmetry_equiv_pos_site_id
 _symmetry_equiv_pos_as_xyz
  1  'x, y, z'
loop_
 _atom_site_type_symbol
 _atom_site_label
 _atom_site_symmetry_multiplicity
 _atom_site_fract_x
 _atom_site_fract_y
 _atom_site_fract_z
 _atom_site_occupancy
  Zr  Zr0  1  0.29486084  0.31305878  0.70352728  1
  Zr  Zr1  1  0.49177692  0.29775956  0.30221155  1
  Zr  Zr2  1  0.70434822  0.90022605  0.70445925  1
  Zr  Zr3  1  0.70033492  0.50182901  0.30165014  1
  Zr  Zr4  1  0.29560180  0.50436508  0.10014654  1
  Zr  Zr5  1  0.11250299  0.09702397  0.69731113  1
  Zr  Zr6  1  0.11184726  0.49335474  0.69863806  1
  Zr  Zr7  1  0.29683335  0.70022041  0.10561558  1
  Zr  Zr8  1  0.90240753  0.30004129  0.49775399  1
  Zr  Zr9  1  0.08928430  0.30234172  0.89616217  1
  Zr  Zr10  1  0.68964503  0.89990174  0.49673959  1
  Zr  Zr11  1  0.30327123  0.90332212  0.89401891  1
  Zr  Zr12  1  0.49446941  0.49923869  0.09424576  1
  Zr  Zr13  1  0.10825625  0.70295619  0.09577650  1
  Zr  Zr14  1  0.10104131  0.50934219  0.90123841  1
  Zr  Zr15  1  0.30052193  0.29619840  0.50189424  1
  Zr  Zr16  1  0.70009625  0.10262558  0.70056689  1
  Zr  Zr17  1  0.29462285  0.89399393  0.10548338  1
  Zr  Zr18  1  0.49733583  0.89432560  0.49795884  1
  Zr  Zr19  1  0.90223789  0.70116006  0.69985493  1
  Zr  Zr20  1  0.10194377  0.30840857  0.50441838  1
  Zr  Zr21  1  0.89978595  0.50077856  0.48609779  1
  Zr  Zr22  1  0.69138932  0.30256210  0.29521678  1
  Zr  Zr23  1  0.49684611  0.89515794  0.89676179  1
  Zr  Zr24  1  0.71545576  0.10053337  0.30080923  1
  Zr  Zr25  1  0.50040020  0.70167907  0.70496609  1
  Zr  Zr26  1  0.30216758  0.49299252  0.89405878  1
  Zr  Zr27  1  0.90473241  0.09274971  0.11966074  1
  Zr  Zr28  1  0.11276384  0.88896765  0.49748342  1
  Zr  Zr29  1  0.50673871  0.29865996  0.69974446  1
  Zr  Zr30  1  0.70606685  0.10703507  0.10212432  1
  Zr  Zr31  1  0.49366168  0.10009410  0.29737130  1
  Zr  Zr32  1  0.69615067  0.70289767  0.89639208  1
  Zr  Zr33  1  0.90231626  0.69906918  0.89369419  1
  Zr  Zr34  1  0.90071959  0.50500927  0.29657402  1
  Zr  Zr35  1  0.50251113  0.50399993  0.30250688  1
  Zr  Zr36  1  0.69769575  0.30280015  0.50748510  1
  Zr  Zr37  1  0.49266986  0.89820777  0.09710864  1
  Zr  Zr38  1  0.69300798  0.49537326  0.69518064  1
  Zr  Zr39  1  0.49364441  0.09763053  0.50456303  1
  Zr  Zr40  1  0.10069497  0.50790966  0.10475801  1
  Zr  Zr41  1  0.91466659  0.30070301  0.70496173  1
  Zr  Zr42  1  0.90979910  0.90195753  0.89501158  1
  Zr  Zr43  1  0.69455705  0.50124937  0.49843637  1
  Zr  Zr44  1  0.49272055  0.09703665  0.89645378  1
  Zr  Zr45  1  0.90319827  0.29517663  0.31064275  1
  Zr  Zr46  1  0.89739227  0.91764311  0.29370235  1
  Zr  Zr47  1  0.30096166  0.70058021  0.50592286  1
  Zr  Zr48  1  0.29522736  0.09450363  0.50821465  1
  Zr  Zr49  1  0.90997751  0.89862392  0.48935405  1
  Sc  Sc50  1  0.89760130  0.30170496  0.08707153  1
  Sc  Sc51  1  0.69331546  0.30275790  0.69488704  1
  Sc  Sc52  1  0.89391521  0.69092280  0.10421183  1
  Sc  Sc53  1  0.29868637  0.89499349  0.69994223  1
  Sc  Sc54  1  0.50017353  0.70235521  0.50159483  1
  Sc  Sc55  1  0.50273050  0.50046554  0.90127032  1
  Sc  Sc56  1  0.30201318  0.69959482  0.29898911  1
  Sc  Sc57  1  0.69477396  0.69905995  0.10297034  1
  Sc  Sc58  1  0.30112090  0.69944269  0.89185958  1
  Sc  Sc59  1  0.90976275  0.08980527  0.71437334  1
  Sc  Sc60  1  0.68850475  0.70020770  0.49847011  1
  Sc  Sc61  1  0.89525425  0.49977033  0.10201141  1
  Sc  Sc62  1  0.09665527  0.09444283  0.89553287  1
  Sc  Sc63  1  0.90601202  0.50217543  0.70567727  1
  Sc  Sc64  1  0.10786347  0.89445653  0.30202704  1
  Sc  Sc65  1  0.09961002  0.30025158  0.09628750  1
  Sc  Sc66  1  0.69453630  0.50179067  0.90384155  1
  Sc  Sc67  1  0.90576542  0.10020103  0.90322996  1
  Sc  Sc68  1  0.49996787  0.30152745  0.10346316  1
  Sc  Sc69  1  0.89898827  0.69207567  0.29897111  1
  Sc  Sc70  1  0.49715281  0.69738212  0.10065827  1
  Sc  Sc71  1  0.30381281  0.09839221  0.90094429  1
  Sc  Sc72  1  0.90074307  0.50431462  0.90441073  1
  Sc  Sc73  1  0.30248464  0.09906745  0.29651744  1
  Sc  Sc74  1  0.90974065  0.70130550  0.48488315  1
  Sc  Sc75  1  0.69269036  0.69832110  0.70034505  1
  Sc  Sc76  1  0.10116586  0.30647169  0.29922301  1
  Sc  Sc77  1  0.70147086  0.30689284  0.10121761  1
  Sc  Sc78  1  0.70011147  0.09890303  0.49625352  1
  Sc  Sc79  1  0.50536764  0.50506569  0.70634506  1
  Sc  Sc80  1  0.49978973  0.89834526  0.69783511  1
  Sc  Sc81  1  0.29983493  0.89639699  0.30081011  1
  Sc  Sc82  1  0.29423088  0.30024320  0.09049282  1
  Sc  Sc83  1  0.29895881  0.09664548  0.10107443  1
  Sc  Sc84  1  0.70032217  0.30378288  0.90781795  1
  Sc  Sc85  1  0.08955518  0.10538458  0.29667781  1
  Sc  Sc86  1  0.49000167  0.30441141  0.89756569  1
  Sc  Sc87  1  0.09631054  0.69804575  0.29986631  1
  Sc  Sc88  1  0.10961867  0.70068418  0.70019483  1
  Sc  Sc89  1  0.10701466  0.89827042  0.70534456  1
  Sc  Sc90  1  0.09750139  0.49693371  0.29631496  1
  Sc  Sc91  1  0.49697366  0.29462014  0.50635848  1
  Sc  Sc92  1  0.48696902  0.09611368  0.10113935  1
  Sc  Sc93  1  0.69548178  0.69811870  0.29565837  1
  Sc  Sc94  1  0.30266565  0.09088318  0.70133889  1
  Sc  Sc95  1  0.90887933  0.89757003  0.70568987  1
  Sc  Sc96  1  0.69773241  0.49803610  0.09990304  1
  Sc  Sc97  1  0.10044733  0.10230129  0.10459343  1
  Sc  Sc98  1  0.49847091  0.89659637  0.30652626  1
  Sc  Sc99  1  0.50172888  0.69747023  0.89833506  1
  Nb  Nb100  1  0.09917314  0.71005755  0.90173616  1
  Nb  Nb101  1  0.50547548  0.10309703  0.70190871  1
  Nb  Nb102  1  0.49747564  0.50758047  0.49649981  1
  Nb  Nb103  1  0.09995452  0.70147418  0.49430607  1
  Nb  Nb104  1  0.90399894  0.10178632  0.48101579  1
  Nb  Nb105  1  0.29799082  0.89503017  0.49679230  1
  Nb  Nb106  1  0.09753920  0.89464396  0.09665347  1
  Nb  Nb107  1  0.29432199  0.30048408  0.89853341  1
  Nb  Nb108  1  0.29891418  0.30443554  0.30916177  1
  Nb  Nb109  1  0.10237405  0.89031574  0.90682012  1
  Nb  Nb110  1  0.70305051  0.09704076  0.90002980  1
  Nb  Nb111  1  0.09968366  0.29938983  0.70092818  1
  Nb  Nb112  1  0.70003646  0.89826782  0.29688298  1
  Nb  Nb113  1  0.29595282  0.50316167  0.50542115  1
  Nb  Nb114  1  0.29518612  0.49941906  0.30460516  1
  Nb  Nb115  1  0.70195924  0.90295485  0.90095965  1
  Nb  Nb116  1  0.49741255  0.69575633  0.31229433  1
  Nb  Nb117  1  0.90115924  0.30209781  0.89468888  1
  Nb  Nb118  1  0.29584566  0.51265031  0.69928392  1
  Nb  Nb119  1  0.10536899  0.10157117  0.50201388  1
  Nb  Nb120  1  0.90143225  0.90205781  0.09925868  1
  Nb  Nb121  1  0.90017689  0.10396683  0.31289807  1
  Nb  Nb122  1  0.30221805  0.68666901  0.70033788  1
  Nb  Nb123  1  0.70249031  0.89689310  0.10492270  1
  Nb  Nb124  1  0.10344784  0.50199602  0.49977240  1
  Nb  Nb125  1  0.20012285  0.20800709  0.80068481  1
  Nb  Nb126  1  0.80286514  0.39469430  0.80197371  1
  Nb  Nb127  1  0.60703159  -0.00177589  0.00042106  1
  Nb  Nb128  1  0.79537364  0.80644272  0.39612977  1
  Nb  Nb129  1  0.60110235  0.00383926  0.80527573  1
  Nb  Nb130  1  0.79928503  -0.00550223  0.00264625  1
  Nb  Nb131  1  0.81280869  0.19245281  0.60199030  1
  Nb  Nb132  1  0.00200083  0.19095324  0.59645040  1
  Nb  Nb133  1  0.39111438  0.40384716  0.20758716  1
  Nb  Nb134  1  0.80036738  0.80844302  0.00086193  1
  Nb  Nb135  1  0.80305722  0.80066703  0.59250383  1
  Nb  Nb136  1  0.80589278  0.60381220  0.59496341  1
  Nb  Nb137  1  0.60560779  -0.00429071  0.19626527  1
  Nb  Nb138  1  0.20140378  0.20128440  0.40336500  1
  Nb  Nb139  1  0.81188063  0.00016042  0.59396127  1
  Nb  Nb140  1  0.59918911  0.19017119  -0.00203036  1
  Nb  Nb141  1  0.39315950  0.40943741  0.40411183  1
  Nb  Nb142  1  0.19416022  -0.01100098  0.00083406  1
  Nb  Nb143  1  0.59661932  0.19767180  0.39642665  1
  Nb  Nb144  1  0.20153723  0.59539429  0.40652743  1
  Nb  Nb145  1  0.39636575  0.41211404  0.59944840  1
  Nb  Nb146  1  0.80267647  0.20457925  0.80019582  1
  Nb  Nb147  1  -0.00288831  0.80645513  0.19198013  1
  Nb  Nb148  1  0.00395932  0.00363519  0.58959589  1
  Nb  Nb149  1  0.00517262  0.60010226  0.59229804  1
  Pd  Pd150  1  -0.00360236  0.21039750  0.19865435  1
  Pd  Pd151  1  0.39362102  0.79154045  -0.00355431  1
  Pd  Pd152  1  0.59567491  0.19235626  0.19730702  1
  Pd  Pd153  1  0.80121284  0.19686801  -0.00581382  1
  Pd  Pd154  1  -0.00282515  0.60493155  0.00535172  1
  Pd  Pd155  1  -0.00018751  0.19375972  0.00340725  1
  Pd  Pd156  1  -0.00595916  0.39480763  0.19485584  1
  Pd  Pd157  1  0.19478600  0.40150086  -0.00218586  1
  Pd  Pd158  1  -0.01112099  0.78960395  0.00647916  1
  Pd  Pd159  1  0.60201750  0.00083769  0.60626628  1
  Pd  Pd160  1  0.40324423  0.20604728  0.00330693  1
  Pd  Pd161  1  0.20312552  0.39604533  0.19572262  1
  Pd  Pd162  1  0.39215315  -0.00322206  0.39962527  1
  Pd  Pd163  1  0.20334678  0.20491911  0.20787439  1
  Pd  Pd164  1  0.80754438  0.79484660  0.20168767  1
  Pd  Pd165  1  -0.00352456  0.40838962  0.59864380  1
  Pd  Pd166  1  0.59725337  0.59888283  0.19686123  1
  Pd  Pd167  1  0.80023500  0.79902054  0.79933367  1
  Pd  Pd168  1  0.39610007  0.20294136  0.61291814  1
  Pd  Pd169  1  0.40486105  0.40702846  0.79274606  1
  Pd  Pd170  1  0.39960328  0.59694546  0.20427359  1
  Pd  Pd171  1  0.40680443  0.79705004  0.20859572  1
  Pd  Pd172  1  0.39899446  -0.00796694  0.60515429  1
  Pd  Pd173  1  0.79241067  0.59036076  0.79308371  1
  Pd  Pd174  1  0.19454014  0.18921311  -0.00884272  1
  Pd  Pd175  1  0.79585368  0.39581355  0.39529483  1
  Pd  Pd176  1  0.60367776  0.79944593  0.00102158  1
  Pd  Pd177  1  0.38679641  0.20914320  0.19280381  1
  Pd  Pd178  1  0.00242163  0.00563663  0.00360713  1
  Pd  Pd179  1  0.60599794  0.20396618  0.81073926  1
  Pd  Pd180  1  0.40897177  0.59817098  0.60260339  1
  Pd  Pd181  1  0.19990131  0.00808752  0.39287646  1
  Pd  Pd182  1  0.39690939  0.80099413  0.60386602  1
  Pd  Pd183  1  0.80949035  0.40406103  0.60868714  1
  Pd  Pd184  1  0.20815576  0.60559507  -0.00904624  1
  Pd  Pd185  1  0.80485676  0.39663133  0.20094698  1
  Pd  Pd186  1  0.59987275  0.00713836  0.38943165  1
  Pd  Pd187  1  0.79345409  0.60521333  0.00171472  1
  Pd  Pd188  1  0.20450240  0.79517941  0.79778575  1
  Pd  Pd189  1  0.81051294  0.21240290  0.20047076  1
  Pd  Pd190  1  0.19460057  0.00057871  0.19840285  1
  Pd  Pd191  1  0.39065261  0.20043106  0.79347397  1
  Pd  Pd192  1  0.01832368  -0.00335831  0.39823151  1
  Pd  Pd193  1  0.39644018  0.60430194  -0.00756396  1
  Pd  Pd194  1  -0.00112276  0.40712471  0.00226120  1
  Pd  Pd195  1  0.59553952  0.39156559  0.00033288  1
  Pd  Pd196  1  0.00169349  0.79918349  0.60293446  1
  Pd  Pd197  1  0.58973028  0.39227815  0.40693178  1
  Pd  Pd198  1  0.59016238  0.80104844  0.20526846  1
  Pd  Pd199  1  0.01095374  0.60219700  0.79168632  1
  Rh  Rh200  1  0.19694798  0.60215504  0.21127475  1
  Rh  Rh201  1  0.00351880  0.60674026  0.19421098  1
  Rh  Rh202  1  0.01124468  -0.00649892  0.20352164  1
  Rh  Rh203  1  0.19739287  0.60407548  0.80561062  1
  Rh  Rh204  1  0.79390214  0.00049823  0.19614946  1
  Rh  Rh205  1  0.79463383  -0.00796970  0.40579873  1
  Rh  Rh206  1  0.19189253  0.60794277  0.59475796  1
  Rh  Rh207  1  0.00063374  0.41255013  0.80572743  1
  Rh  Rh208  1  0.19401427  0.39800068  0.80824536  1
  Rh  Rh209  1  -0.00892183  0.80325353  0.37785310  1
  Rh  Rh210  1  0.20097522  0.40173264  0.40433679  1
  Rh  Rh211  1  0.00884831  0.79772032  0.79800100  1
  Rh  Rh212  1  0.60157938  0.59944959  0.80378130  1
  Rh  Rh213  1  0.20550132  0.40097384  0.59958116  1
  Rh  Rh214  1  0.58948344  0.40776355  0.19501680  1
  Rh  Rh215  1  0.60084788  0.60467569  0.40038712  1
  Rh  Rh216  1  0.80149592  0.40446061  -0.00776840  1
  Rh  Rh217  1  0.59799377  0.80667067  0.79906635  1
  Rh  Rh218  1  0.59989173  0.59881020  0.59895173  1
  Rh  Rh219  1  0.79354343  0.59655710  0.20078257  1
  Rh  Rh220  1  0.59794278  0.60339220  0.00189483  1
  Rh  Rh221  1  0.78756334  0.20998684  0.40613030  1
  Rh  Rh222  1  0.40405793  -0.00774171  0.20229270  1
  Rh  Rh223  1  0.39342630  0.60201010  0.40108743  1
  Rh  Rh224  1  0.60099273  0.79377000  0.39236924  1
  Rh  Rh225  1  0.40828682  -0.00049947  0.79004221  1
  Rh  Rh226  1  0.79047433  0.61047995  0.40411726  1
  Rh  Rh227  1  0.01535001  0.20521669  0.40453631  1
  Rh  Rh228  1  0.01151509  0.59368651  0.40019453  1
  Rh  Rh229  1  0.19223627  0.79496308  0.20564287  1
  Rh  Rh230  1  0.40126727  0.59698787  0.80227414  1
  Rh  Rh231  1  0.00501091  0.40429723  0.39600959  1
  Rh  Rh232  1  0.20478579  0.79524788  0.60309814  1
  Rh  Rh233  1  0.19998541  -0.01397305  0.59648657  1
  Rh  Rh234  1  0.60610787  0.39588755  0.80460917  1
  Rh  Rh235  1  0.00495536  0.19443339  0.79575281  1
  Rh  Rh236  1  0.39728276  0.19676850  0.40244838  1
  Rh  Rh237  1  0.39547660  0.39827604  0.00390827  1
  Rh  Rh238  1  0.20937367  0.80213269  -0.00548291  1
  Rh  Rh239  1  0.20907412  0.78814755  0.39774601  1
  Rh  Rh240  1  0.01228798  -0.00763848  0.79753513  1
  Rh  Rh241  1  0.38902960  -0.00565390  0.00534404  1
  Rh  Rh242  1  0.39715837  0.79490890  0.79464243  1
  Rh  Rh243  1  0.58222549  0.40755520  0.59510802  1
  Rh  Rh244  1  0.79920239  0.00594588  0.80115777  1
  Rh  Rh245  1  0.60381398  0.19167908  0.58939018  1
  Rh  Rh246  1  0.60274161  0.80025139  0.60543046  1
  Rh  Rh247  1  0.19761157  0.20663748  0.60410084  1
  Rh  Rh248  1  0.20011641  0.00339741  0.81178863  1
  Rh  Rh249  1  0.39842844  0.79731137  0.40040391  1
