# generated using pymatgen
data_ZrScNbPdRh
_symmetry_space_group_name_H-M   'P 1'
_cell_length_a   16.55961143
_cell_length_b   16.55908642
_cell_length_c   16.55880159
_cell_angle_alpha   90.00289813
_cell_angle_beta   90.00239093
_cell_angle_gamma   90.00982647
_symmetry_Int_Tables_number   1
_chemical_formula_structural   ZrScNbPdRh
_chemical_formula_sum   'Zr50 Sc50 Nb50 Pd50 Rh50'
_cell_volume   4540.62263192
_cell_formula_units_Z   50
loop_
 _symmetry_equiv_pos_site_id
 _symmetry_equiv_pos_as_xyz
  1  'x, y, z'
loop_
 _atom_site_type_symbol
 _atom_site_label
 _atom_site_symmetry_multiplicity
 _atom_site_fract_x
 _atom_site_fract_y
 _atom_site_fract_z
 _atom_site_occupancy
  Zr  Zr0  1  0.89843873  0.10162701  0.09974528  1
  Zr  Zr1  1  0.29927075  0.71163325  0.31047640  1
  Zr  Zr2  1  0.50254658  0.49879969  0.89366089  1
  Zr  Zr3  1  0.71053739  0.30228813  0.69863579  1
  Zr  Zr4  1  0.50334662  0.29779899  0.89820567  1
  Zr  Zr5  1  0.30781894  0.09764350  0.50654926  1
  Zr  Zr6  1  0.69338757  0.69997150  0.09552747  1
  Zr  Zr7  1  0.67716332  0.09319511  0.49486340  1
  Zr  Zr8  1  0.90569257  0.70033771  0.10259342  1
  Zr  Zr9  1  0.89120324  0.29408924  0.31002213  1
  Zr  Zr10  1  0.29546977  0.30132841  0.50116165  1
  Zr  Zr11  1  0.08881311  0.90342023  0.50367603  1
  Zr  Zr12  1  0.69866612  0.49230301  0.30944490  1
  Zr  Zr13  1  0.29806213  0.09863846  0.90608670  1
  Zr  Zr14  1  0.49224970  0.70428212  0.69662787  1
  Zr  Zr15  1  0.09629146  0.30445787  0.50523358  1
  Zr  Zr16  1  0.09344388  0.29945443  0.90242523  1
  Zr  Zr17  1  0.70265995  0.70562127  0.50281322  1
  Zr  Zr18  1  0.51003871  0.90429005  0.90116944  1
  Zr  Zr19  1  0.09642042  0.70088778  0.29513945  1
  Zr  Zr20  1  0.10769868  0.49451640  0.89547362  1
  Zr  Zr21  1  0.09907126  0.50095697  0.69506291  1
  Zr  Zr22  1  0.09829450  0.70741532  0.70111576  1
  Zr  Zr23  1  0.09553007  0.90400114  0.70722293  1
  Zr  Zr24  1  0.29969870  0.50528549  0.89704316  1
  Zr  Zr25  1  0.69635314  0.29616517  0.29784915  1
  Zr  Zr26  1  0.29677917  0.69746257  0.89652509  1
  Zr  Zr27  1  0.50708684  0.92020727  0.49667356  1
  Zr  Zr28  1  0.70647725  0.10267234  0.09465274  1
  Zr  Zr29  1  0.30660656  0.49637137  0.30004063  1
  Zr  Zr30  1  0.49558778  0.89655021  0.29457751  1
  Zr  Zr31  1  0.90419503  0.10138002  0.30539367  1
  Zr  Zr32  1  0.30234927  0.69738307  0.70390710  1
  Zr  Zr33  1  0.70126098  0.69343798  0.89612205  1
  Zr  Zr34  1  0.89663482  0.71033278  0.50485141  1
  Zr  Zr35  1  0.90275616  0.29663679  0.51294331  1
  Zr  Zr36  1  0.29998159  0.29352902  0.29597750  1
  Zr  Zr37  1  0.29150110  0.30285635  0.89595641  1
  Zr  Zr38  1  0.70955073  0.30526969  0.49003109  1
  Zr  Zr39  1  0.30029019  0.49744917  0.70632356  1
  Zr  Zr40  1  0.10585702  0.89943506  0.31008972  1
  Zr  Zr41  1  0.50074348  0.89645579  0.09663300  1
  Zr  Zr42  1  0.29274558  0.09674462  0.10359870  1
  Zr  Zr43  1  0.30393717  0.50016603  0.09860368  1
  Zr  Zr44  1  0.89524104  0.90203905  0.09911282  1
  Zr  Zr45  1  0.10754417  0.09432754  0.90255263  1
  Zr  Zr46  1  0.90169622  0.70650863  0.89584875  1
  Zr  Zr47  1  0.51010345  0.09266854  0.31650115  1
  Zr  Zr48  1  0.69431564  0.90557201  0.09112463  1
  Zr  Zr49  1  0.50472880  0.89466226  0.70007502  1
  Sc  Sc50  1  0.11064978  0.89778475  0.10132345  1
  Sc  Sc51  1  0.69873699  0.30631944  0.90551033  1
  Sc  Sc52  1  0.90276188  0.91727810  0.69255953  1
  Sc  Sc53  1  0.29602197  0.90243024  0.90489774  1
  Sc  Sc54  1  0.49599141  0.50100536  0.70043060  1
  Sc  Sc55  1  0.90550974  0.09399926  0.51212206  1
  Sc  Sc56  1  0.90269590  0.49540219  0.09078786  1
  Sc  Sc57  1  0.10266269  0.28664098  0.31044520  1
  Sc  Sc58  1  0.90261514  0.09186377  0.90916175  1
  Sc  Sc59  1  0.50295604  0.28967264  0.51161929  1
  Sc  Sc60  1  0.09194846  0.50193253  0.30242945  1
  Sc  Sc61  1  0.50498249  0.30375728  0.28848615  1
  Sc  Sc62  1  0.50410181  0.49689141  0.10678969  1
  Sc  Sc63  1  0.49564227  0.09507058  0.08897935  1
  Sc  Sc64  1  0.30110630  0.88960826  0.70617173  1
  Sc  Sc65  1  0.30388539  0.70010361  0.50689703  1
  Sc  Sc66  1  0.30533772  0.28950473  0.10535399  1
  Sc  Sc67  1  0.49951422  0.30515109  0.69936554  1
  Sc  Sc68  1  0.70415390  0.10830921  0.29702710  1
  Sc  Sc69  1  0.30061041  0.90499866  0.09978353  1
  Sc  Sc70  1  0.50637224  0.29793067  0.10179892  1
  Sc  Sc71  1  0.49999325  0.50433464  0.50046675  1
  Sc  Sc72  1  0.70551197  0.90011194  0.29014466  1
  Sc  Sc73  1  0.09095075  0.09744720  0.71233583  1
  Sc  Sc74  1  0.70034208  0.69633569  0.69157569  1
  Sc  Sc75  1  0.90410267  0.71146985  0.30081674  1
  Sc  Sc76  1  0.70615053  0.08561185  0.69344454  1
  Sc  Sc77  1  0.89024866  0.49557302  0.89874554  1
  Sc  Sc78  1  0.90988823  0.50655504  0.30079661  1
  Sc  Sc79  1  0.09724282  0.50087240  0.09460483  1
  Sc  Sc80  1  0.29136386  0.89696700  0.48609616  1
  Sc  Sc81  1  0.90533995  0.49516742  0.50099748  1
  Sc  Sc82  1  0.10485583  0.10003303  0.30259590  1
  Sc  Sc83  1  0.09269679  0.89740844  0.90058178  1
  Sc  Sc84  1  0.69416418  0.69940002  0.29971684  1
  Sc  Sc85  1  0.70060418  0.49676717  0.08776667  1
  Sc  Sc86  1  0.29218450  0.90733331  0.29358379  1
  Sc  Sc87  1  0.09971619  0.10620372  0.09945038  1
  Sc  Sc88  1  0.69857988  0.49949732  0.89145022  1
  Sc  Sc89  1  0.89045387  0.49523724  0.69563886  1
  Sc  Sc90  1  0.09794523  0.10159842  0.49228183  1
  Sc  Sc91  1  0.49703850  0.70304665  0.90188592  1
  Sc  Sc92  1  0.90107027  0.29283478  0.08472942  1
  Sc  Sc93  1  0.29911681  0.70853353  0.08964163  1
  Sc  Sc94  1  0.30093162  0.49625789  0.51270454  1
  Sc  Sc95  1  0.09458724  0.70391323  0.50979750  1
  Sc  Sc96  1  0.10181579  0.70709968  0.09821712  1
  Sc  Sc97  1  0.50744919  0.50089958  0.30307570  1
  Sc  Sc98  1  0.70489720  0.50399326  0.50140793  1
  Sc  Sc99  1  0.50032436  0.69779082  0.50199823  1
  Nb  Nb100  1  0.08986559  0.29848156  0.70385780  1
  Nb  Nb101  1  0.50253937  0.70419577  0.10701032  1
  Nb  Nb102  1  0.90191961  0.30013555  0.89656845  1
  Nb  Nb103  1  0.10071393  0.49977581  0.49869337  1
  Nb  Nb104  1  0.69487930  0.09245939  0.89603545  1
  Nb  Nb105  1  0.49224715  0.10204742  0.68341534  1
  Nb  Nb106  1  0.50096593  0.70008445  0.30103294  1
  Nb  Nb107  1  0.29788882  0.09830223  0.70344947  1
  Nb  Nb108  1  0.49642906  0.10118965  0.50704902  1
  Nb  Nb109  1  0.90641685  0.28833003  0.69903147  1
  Nb  Nb110  1  0.90306802  0.89842773  0.30629947  1
  Nb  Nb111  1  0.90064064  0.89772894  0.90147635  1
  Nb  Nb112  1  0.29126486  0.10607943  0.30019572  1
  Nb  Nb113  1  0.70410734  0.29913741  0.10607643  1
  Nb  Nb114  1  0.30043400  0.30034582  0.69673007  1
  Nb  Nb115  1  0.70049881  0.90462088  0.89360459  1
  Nb  Nb116  1  0.89937280  0.10776910  0.69878008  1
  Nb  Nb117  1  0.09648049  0.30164798  0.09830181  1
  Nb  Nb118  1  0.49937887  0.10126836  0.89295406  1
  Nb  Nb119  1  0.89870734  0.89855583  0.49170686  1
  Nb  Nb120  1  0.89852222  0.69810958  0.70167026  1
  Nb  Nb121  1  0.69911098  0.89736103  0.69948301  1
  Nb  Nb122  1  0.70412504  0.89647286  0.50651658  1
  Nb  Nb123  1  0.09635828  0.70269183  0.89713244  1
  Nb  Nb124  1  0.70215868  0.49929192  0.69963957  1
  Nb  Nb125  1  0.19652070  0.59660644  0.40278778  1
  Nb  Nb126  1  0.60129740  0.19108584  0.79731493  1
  Nb  Nb127  1  0.40110721  0.19751077  0.40062863  1
  Nb  Nb128  1  0.40394707  0.00731527  0.79658798  1
  Nb  Nb129  1  0.80221148  0.19537045  0.80116681  1
  Nb  Nb130  1  0.60911165  0.40204226  0.60371379  1
  Nb  Nb131  1  -0.00298996  -0.00326600  0.20523629  1
  Nb  Nb132  1  0.79766595  0.80534360  -0.00726313  1
  Nb  Nb133  1  0.80243670  0.60517673  0.39794189  1
  Nb  Nb134  1  0.20036772  0.00432421  0.60594029  1
  Nb  Nb135  1  0.00297199  0.60429461  -0.01201461  1
  Nb  Nb136  1  0.80352802  0.39796018  0.19958625  1
  Nb  Nb137  1  -0.00097845  0.60282451  0.80026098  1
  Nb  Nb138  1  0.79931350  0.80915191  0.79916830  1
  Nb  Nb139  1  0.00033757  0.38992830  0.19771888  1
  Nb  Nb140  1  0.19417566  0.39909079  0.19987599  1
  Nb  Nb141  1  0.40358134  0.61169449  0.20280482  1
  Nb  Nb142  1  0.79966928  0.59511317  0.20211602  1
  Nb  Nb143  1  0.59880592  0.80415914  0.40044205  1
  Nb  Nb144  1  0.39997598  0.19461354  0.79382751  1
  Nb  Nb145  1  0.19908799  0.19890922  0.61067401  1
  Nb  Nb146  1  0.40022099  0.39928549  -0.00385483  1
  Nb  Nb147  1  0.39893819  0.39085123  0.40132552  1
  Nb  Nb148  1  0.20580041  0.59928891  0.20484180  1
  Nb  Nb149  1  0.80164297  -0.00818132  0.40588946  1
  Pd  Pd150  1  0.00813383  -0.00462483  0.00946511  1
  Pd  Pd151  1  0.80764194  0.80789138  0.61248613  1
  Pd  Pd152  1  -0.00733250  0.40823150  0.79513980  1
  Pd  Pd153  1  -0.00747663  0.59748994  0.60285088  1
  Pd  Pd154  1  0.19284808  0.60528254  0.00584783  1
  Pd  Pd155  1  0.80462038  0.00437734  0.20787235  1
  Pd  Pd156  1  0.20640579  0.39325125  0.00964720  1
  Pd  Pd157  1  0.19994441  0.40695933  0.39343723  1
  Pd  Pd158  1  0.39659994  0.59418316  0.40038583  1
  Pd  Pd159  1  0.79533924  0.79285077  0.19588364  1
  Pd  Pd160  1  0.38917614  -0.01491827  0.60590534  1
  Pd  Pd161  1  0.19468346  0.39527253  0.60801553  1
  Pd  Pd162  1  0.79040889  0.18934000  0.59629823  1
  Pd  Pd163  1  0.59483293  0.18913883  0.19512601  1
  Pd  Pd164  1  0.61002261  0.20484247  0.60772805  1
  Pd  Pd165  1  0.19970930  0.20372241  0.79565704  1
  Pd  Pd166  1  0.40022600  0.80430945  -0.00415525  1
  Pd  Pd167  1  0.41210593  0.18592131  0.20732562  1
  Pd  Pd168  1  0.40981774  0.80459902  0.40827577  1
  Pd  Pd169  1  0.41033190  0.59710695  0.00706774  1
  Pd  Pd170  1  0.38997628  0.00435678  0.39137969  1
  Pd  Pd171  1  0.59640129  0.40015919  0.00357490  1
  Pd  Pd172  1  -0.00071160  0.60875793  0.41017304  1
  Pd  Pd173  1  0.80675338  0.60381380  0.00384686  1
  Pd  Pd174  1  0.60004686  0.59349207  0.60182736  1
  Pd  Pd175  1  0.00080860  0.20026300  0.20142843  1
  Pd  Pd176  1  0.59969592  0.00697102  0.19741036  1
  Pd  Pd177  1  0.39838362  0.20547841  -0.00472239  1
  Pd  Pd178  1  0.20229997  0.60224864  0.59685847  1
  Pd  Pd179  1  0.58715673  0.39192262  0.41152429  1
  Pd  Pd180  1  0.59112260  0.59861302  -0.00121037  1
  Pd  Pd181  1  0.59604078  0.60492239  0.79132218  1
  Pd  Pd182  1  0.80107120  0.18226687  0.41665970  1
  Pd  Pd183  1  -0.00673441  0.19083823  0.81137715  1
  Pd  Pd184  1  0.59324851  0.00728279  0.78766252  1
  Pd  Pd185  1  0.20183422  0.80933044  0.59715515  1
  Pd  Pd186  1  0.40133424  0.81030384  0.58766218  1
  Pd  Pd187  1  0.60382577  0.80184135  0.20459920  1
  Pd  Pd188  1  0.40073201  0.39417140  0.80204578  1
  Pd  Pd189  1  0.40118826  0.00765415  0.20371619  1
  Pd  Pd190  1  0.79604886  0.20262874  -0.01190879  1
  Pd  Pd191  1  0.60611701  0.79083585  0.79873302  1
  Pd  Pd192  1  0.20006713  0.80485791  0.80734330  1
  Pd  Pd193  1  0.39115164  0.79769951  0.19666588  1
  Pd  Pd194  1  0.80347009  0.39267269  0.80175806  1
  Pd  Pd195  1  0.80806388  0.00150260  0.80200106  1
  Pd  Pd196  1  -0.00154255  0.39435201  0.39484215  1
  Pd  Pd197  1  0.00541682  0.81285399  0.19792444  1
  Pd  Pd198  1  0.60341315  0.59329883  0.20072131  1
  Pd  Pd199  1  0.60534671  0.19682232  -0.00363010  1
  Rh  Rh200  1  -0.00797351  0.00373101  0.80528983  1
  Rh  Rh201  1  -0.00088268  0.59100039  0.18393801  1
  Rh  Rh202  1  0.39193820  0.20678972  0.60167061  1
  Rh  Rh203  1  0.20139502  0.00635509  0.40649143  1
  Rh  Rh204  1  0.61329286  0.40416873  0.19417356  1
  Rh  Rh205  1  0.59495048  0.80483633  0.59282795  1
  Rh  Rh206  1  0.60147101  -0.00481268  0.60848857  1
  Rh  Rh207  1  0.79805644  0.39330799  0.00211544  1
  Rh  Rh208  1  0.20775699  0.19257069  0.41205921  1
  Rh  Rh209  1  0.19413492  0.39342448  0.79130440  1
  Rh  Rh210  1  -0.00450311  0.00090989  0.39536206  1
  Rh  Rh211  1  -0.00138823  0.40206165  0.60534307  1
  Rh  Rh212  1  0.20526404  -0.00625054  0.79724300  1
  Rh  Rh213  1  0.19800143  0.20373832  0.00414142  1
  Rh  Rh214  1  0.18957143  0.78820475  0.40937685  1
  Rh  Rh215  1  0.39776770  0.59799576  0.60363189  1
  Rh  Rh216  1  0.40523412  0.60381960  0.79929769  1
  Rh  Rh217  1  0.60524896  0.39666684  0.78909762  1
  Rh  Rh218  1  0.61519145  -0.01421034  0.38831469  1
  Rh  Rh219  1  0.79748714  -0.00062763  0.59140287  1
  Rh  Rh220  1  0.39846506  0.40621758  0.19705840  1
  Rh  Rh221  1  -0.00857560  0.80730086  0.60619236  1
  Rh  Rh222  1  0.19614913  -0.00294343  0.00354036  1
  Rh  Rh223  1  0.41009355  0.39986585  0.59471802  1
  Rh  Rh224  1  0.60379842  0.79715131  -0.00596981  1
  Rh  Rh225  1  0.00547020  0.79606821  0.40224016  1
  Rh  Rh226  1  0.81156826  0.41051779  0.39591886  1
  Rh  Rh227  1  0.80529032  0.20693541  0.19490602  1
  Rh  Rh228  1  -0.00174753  0.80001796  0.00622578  1
  Rh  Rh229  1  0.19186014  0.00503493  0.19993942  1
  Rh  Rh230  1  0.80377728  0.59771354  0.59432727  1
  Rh  Rh231  1  0.01208071  0.19382763  0.60121944  1
  Rh  Rh232  1  0.19139149  0.60442596  0.79467066  1
  Rh  Rh233  1  0.40173179  -0.00423999  -0.00719551  1
  Rh  Rh234  1  0.79029403  0.80162102  0.39495432  1
  Rh  Rh235  1  -0.00259963  0.40329572  -0.00307825  1
  Rh  Rh236  1  0.80263835  0.60426168  0.79268241  1
  Rh  Rh237  1  0.59974211  0.00684122  -0.00056664  1
  Rh  Rh238  1  0.00731004  0.00676518  0.60300544  1
  Rh  Rh239  1  0.20521964  0.79486404  0.19925566  1
  Rh  Rh240  1  0.19814732  0.80182460  -0.00603510  1
  Rh  Rh241  1  0.79865767  0.40244197  0.59739929  1
  Rh  Rh242  1  0.59098050  0.20911369  0.39920590  1
  Rh  Rh243  1  0.00323989  0.19794255  -0.00557898  1
  Rh  Rh244  1  -0.00892990  0.80128536  0.79050996  1
  Rh  Rh245  1  0.40037158  0.80732435  0.81034298  1
  Rh  Rh246  1  0.19153905  0.20472111  0.19481966  1
  Rh  Rh247  1  0.60677321  0.61109555  0.40480485  1
  Rh  Rh248  1  -0.00398503  0.20170782  0.40918288  1
  Rh  Rh249  1  0.79636513  -0.00359864  -0.00712590  1
