# generated using pymatgen
data_ZrScNbPdRh
_symmetry_space_group_name_H-M   'P 1'
_cell_length_a   16.55743710
_cell_length_b   16.55646566
_cell_length_c   16.55510454
_cell_angle_alpha   89.99433106
_cell_angle_beta   90.01613195
_cell_angle_gamma   89.98072773
_symmetry_Int_Tables_number   1
_chemical_formula_structural   ZrScNbPdRh
_chemical_formula_sum   'Zr50 Sc50 Nb50 Pd50 Rh50'
_cell_volume   4538.29403396
_cell_formula_units_Z   50
loop_
 _symmetry_equiv_pos_site_id
 _symmetry_equiv_pos_as_xyz
  1  'x, y, z'
loop_
 _atom_site_type_symbol
 _atom_site_label
 _atom_site_symmetry_multiplicity
 _atom_site_fract_x
 _atom_site_fract_y
 _atom_site_fract_z
 _atom_site_occupancy
  Zr  Zr0  1  0.09315254  0.10767548  0.30020789  1
  Zr  Zr1  1  0.50299356  0.89479391  0.30405906  1
  Zr  Zr2  1  0.89963216  0.09634139  0.50416075  1
  Zr  Zr3  1  0.69930021  0.30131943  0.09326762  1
  Zr  Zr4  1  0.69810733  0.70846835  0.29997953  1
  Zr  Zr5  1  0.10209302  0.08954729  0.90770634  1
  Zr  Zr6  1  0.30217642  0.49899809  0.90082700  1
  Zr  Zr7  1  0.90694475  0.29737179  0.30258906  1
  Zr  Zr8  1  0.69986936  0.70607637  0.50291745  1
  Zr  Zr9  1  0.50386049  0.29206228  0.69894754  1
  Zr  Zr10  1  0.70130035  0.29825200  0.70277136  1
  Zr  Zr11  1  0.30136960  0.90223016  0.30686717  1
  Zr  Zr12  1  0.09033377  0.50511610  0.49878786  1
  Zr  Zr13  1  0.70497964  0.89071838  0.10967667  1
  Zr  Zr14  1  0.08892030  0.49144895  0.69965627  1
  Zr  Zr15  1  0.09512089  0.50607495  0.90474183  1
  Zr  Zr16  1  0.30612554  0.70001658  0.69770804  1
  Zr  Zr17  1  0.90544391  0.09617911  0.30483578  1
  Zr  Zr18  1  0.90482634  0.29929554  0.09906470  1
  Zr  Zr19  1  0.91276579  0.10104040  0.10056272  1
  Zr  Zr20  1  0.10682486  0.29579844  0.51530248  1
  Zr  Zr21  1  0.50109917  0.50727180  0.70329109  1
  Zr  Zr22  1  0.89591866  0.50082403  0.69203134  1
  Zr  Zr23  1  0.49493317  0.29419053  0.50090313  1
  Zr  Zr24  1  0.49366712  0.10260300  0.89131158  1
  Zr  Zr25  1  0.91412079  0.49725902  0.30312960  1
  Zr  Zr26  1  0.50127238  0.90810134  0.50661073  1
  Zr  Zr27  1  0.50153399  0.69665350  0.30307985  1
  Zr  Zr28  1  0.29067940  0.70341570  0.90483653  1
  Zr  Zr29  1  0.69081859  0.49642848  0.90481083  1
  Zr  Zr30  1  0.30188793  0.50272529  0.69461136  1
  Zr  Zr31  1  0.69255152  0.89554918  0.70096041  1
  Zr  Zr32  1  0.29312624  0.70074028  0.50267262  1
  Zr  Zr33  1  0.70783760  0.49594577  0.50221206  1
  Zr  Zr34  1  0.30152306  0.30339499  0.10183408  1
  Zr  Zr35  1  0.49298316  0.49890428  0.09902048  1
  Zr  Zr36  1  0.30052780  0.89897949  0.50035124  1
  Zr  Zr37  1  0.69608337  0.09602924  0.50290688  1
  Zr  Zr38  1  0.89898871  0.09439990  0.70134619  1
  Zr  Zr39  1  0.09672746  0.90500663  0.30212252  1
  Zr  Zr40  1  0.30634466  0.09770725  0.69675504  1
  Zr  Zr41  1  0.30374277  0.70037958  0.30087358  1
  Zr  Zr42  1  0.50335207  0.49877549  0.49136151  1
  Zr  Zr43  1  0.90661835  0.50561796  0.89349368  1
  Zr  Zr44  1  0.08810816  0.69990897  0.89689638  1
  Zr  Zr45  1  0.50134036  0.10636986  0.11058549  1
  Zr  Zr46  1  0.70470574  0.30165574  0.49364399  1
  Zr  Zr47  1  0.09859187  0.70071391  0.09376681  1
  Zr  Zr48  1  0.69751960  0.10116437  0.10332896  1
  Zr  Zr49  1  0.69217523  0.49782930  0.30632424  1
  Sc  Sc50  1  0.90672967  0.70663949  0.30189891  1
  Sc  Sc51  1  0.08738145  0.10461449  0.69029262  1
  Sc  Sc52  1  0.10164589  0.50166872  0.10585615  1
  Sc  Sc53  1  0.10375984  0.30276775  0.30083325  1
  Sc  Sc54  1  0.49441939  0.50357953  0.29945425  1
  Sc  Sc55  1  0.29418556  0.49789216  0.29808407  1
  Sc  Sc56  1  0.49396478  0.30183056  0.10278062  1
  Sc  Sc57  1  0.90768922  0.89502694  0.10934858  1
  Sc  Sc58  1  0.29531735  0.29897614  0.67944018  1
  Sc  Sc59  1  0.70456089  0.90004312  0.49934235  1
  Sc  Sc60  1  0.50115673  0.09405367  0.68947060  1
  Sc  Sc61  1  0.49924152  0.10288367  0.30479895  1
  Sc  Sc62  1  0.91121986  0.30076743  0.70179569  1
  Sc  Sc63  1  0.50630826  0.49611242  0.90234280  1
  Sc  Sc64  1  0.29940535  0.29828635  0.49429408  1
  Sc  Sc65  1  0.89974166  0.29721849  0.90314905  1
  Sc  Sc66  1  0.90503645  0.89532288  0.89143712  1
  Sc  Sc67  1  0.70171857  0.09592760  0.69847901  1
  Sc  Sc68  1  0.90278358  0.09968847  0.89563338  1
  Sc  Sc69  1  0.89896469  0.30782789  0.49767839  1
  Sc  Sc70  1  0.50417954  0.89229671  0.10455733  1
  Sc  Sc71  1  0.89949376  0.89724571  0.30565403  1
  Sc  Sc72  1  0.09256287  0.70387868  0.69590893  1
  Sc  Sc73  1  0.90262519  0.70671254  0.50331016  1
  Sc  Sc74  1  0.29378296  0.69825427  0.10428485  1
  Sc  Sc75  1  0.29799356  0.30208419  0.30322642  1
  Sc  Sc76  1  0.49625577  0.29600413  0.29750938  1
  Sc  Sc77  1  0.09957555  0.89392091  0.89970573  1
  Sc  Sc78  1  0.29884616  0.10087761  0.90414845  1
  Sc  Sc79  1  0.68614028  0.49887092  0.09589525  1
  Sc  Sc80  1  0.50163650  0.69702611  0.10628599  1
  Sc  Sc81  1  0.09934882  0.69386210  0.30007024  1
  Sc  Sc82  1  0.50422050  0.70194221  0.49790303  1
  Sc  Sc83  1  0.09885549  0.70312937  0.50062329  1
  Sc  Sc84  1  0.29905406  0.49635504  0.49998543  1
  Sc  Sc85  1  0.09601080  0.90020225  0.09395119  1
  Sc  Sc86  1  0.09749798  0.10329974  0.49835119  1
  Sc  Sc87  1  0.08599765  0.89588611  0.70399724  1
  Sc  Sc88  1  0.30218435  0.10652553  0.30865154  1
  Sc  Sc89  1  0.71163622  0.10504888  0.88872779  1
  Sc  Sc90  1  0.29446965  0.89783878  0.90380593  1
  Sc  Sc91  1  0.89474536  0.90057670  0.50131961  1
  Sc  Sc92  1  0.70114321  0.50752573  0.69625686  1
  Sc  Sc93  1  0.69191072  0.10197395  0.30562615  1
  Sc  Sc94  1  0.30394802  0.10312087  0.49642508  1
  Sc  Sc95  1  0.50613089  0.69306625  0.89878477  1
  Sc  Sc96  1  0.29377281  0.88966150  0.09455205  1
  Sc  Sc97  1  0.29499109  0.10855963  0.09346043  1
  Sc  Sc98  1  0.91034433  0.49852888  0.09564972  1
  Sc  Sc99  1  0.90248436  0.71072047  0.10232605  1
  Nb  Nb100  1  0.10273260  0.29304109  0.10213038  1
  Nb  Nb101  1  0.89619549  0.49931913  0.49890648  1
  Nb  Nb102  1  0.89216065  0.70626809  0.70677780  1
  Nb  Nb103  1  0.69641749  0.89968164  0.90190461  1
  Nb  Nb104  1  0.89764205  0.69574985  0.89510894  1
  Nb  Nb105  1  0.69702058  0.70659101  0.70107952  1
  Nb  Nb106  1  0.70399020  0.89666087  0.30230439  1
  Nb  Nb107  1  0.29913346  0.49668279  0.09602775  1
  Nb  Nb108  1  0.50677192  0.89925428  0.89693539  1
  Nb  Nb109  1  0.10160908  0.09669796  0.10358158  1
  Nb  Nb110  1  0.90010877  0.90138052  0.69150144  1
  Nb  Nb111  1  0.69499825  0.30441223  0.89687096  1
  Nb  Nb112  1  0.50257961  0.30175031  0.89437362  1
  Nb  Nb113  1  0.70506701  0.70047411  0.09956175  1
  Nb  Nb114  1  0.30777949  0.90182217  0.69614961  1
  Nb  Nb115  1  0.70776063  0.30137742  0.29650747  1
  Nb  Nb116  1  0.51092096  0.70641325  0.69938100  1
  Nb  Nb117  1  0.30335052  0.29936842  0.90180017  1
  Nb  Nb118  1  0.10221164  0.30029380  0.70177442  1
  Nb  Nb119  1  0.49737289  0.89892189  0.70387556  1
  Nb  Nb120  1  0.10163610  0.30460827  0.89320157  1
  Nb  Nb121  1  0.70656137  0.70469627  0.90014164  1
  Nb  Nb122  1  0.10244030  0.89948105  0.50689364  1
  Nb  Nb123  1  0.09631304  0.49748169  0.29838370  1
  Nb  Nb124  1  0.50213414  0.10195970  0.50102088  1
  Nb  Nb125  1  0.79581058  -0.00546110  0.00351355  1
  Nb  Nb126  1  0.80079934  0.20138280  0.20182334  1
  Nb  Nb127  1  0.20231578  0.39650978  0.80106380  1
  Nb  Nb128  1  0.59907945  0.20011351  -0.00920457  1
  Nb  Nb129  1  0.80046278  0.40147175  0.20173270  1
  Nb  Nb130  1  0.19911809  0.00492068  0.19822073  1
  Nb  Nb131  1  0.19742562  0.20348634  0.79856056  1
  Nb  Nb132  1  0.40925528  -0.00317059  0.00366480  1
  Nb  Nb133  1  0.59989498  0.39847882  0.59837674  1
  Nb  Nb134  1  0.60179284  -0.00079393  -0.00438718  1
  Nb  Nb135  1  0.39396154  -0.00158215  0.19759547  1
  Nb  Nb136  1  0.39629806  0.59688188  0.00299459  1
  Nb  Nb137  1  0.79654558  0.40096267  0.80443063  1
  Nb  Nb138  1  0.19958521  0.00171537  0.79006361  1
  Nb  Nb139  1  0.79744090  0.60745176  -0.00007089  1
  Nb  Nb140  1  0.79994667  0.00375648  0.20166516  1
  Nb  Nb141  1  0.80109289  0.19954047  0.59950526  1
  Nb  Nb142  1  0.61000863  0.79993444  -0.00396635  1
  Nb  Nb143  1  0.19711899  0.59628278  0.79810845  1
  Nb  Nb144  1  0.79804833  0.59737326  0.19960238  1
  Nb  Nb145  1  0.80368281  0.59712195  0.39807299  1
  Nb  Nb146  1  0.40681490  0.80310286  0.79643883  1
  Nb  Nb147  1  0.20038256  -0.00653546  0.60327861  1
  Nb  Nb148  1  0.39815689  0.39287744  0.80016732  1
  Nb  Nb149  1  0.20048305  0.39399432  -0.00093636  1
  Pd  Pd150  1  0.40753075  0.40063766  0.60318853  1
  Pd  Pd151  1  0.40284752  0.79738321  0.40790050  1
  Pd  Pd152  1  0.60349520  0.60117167  0.19809025  1
  Pd  Pd153  1  0.19722765  0.00770493  0.40259168  1
  Pd  Pd154  1  0.39652220  0.40161248  0.20938248  1
  Pd  Pd155  1  0.19219969  0.59712414  0.60469296  1
  Pd  Pd156  1  0.19335061  0.20514842  -0.00553372  1
  Pd  Pd157  1  0.60792614  0.60454672  0.80176205  1
  Pd  Pd158  1  0.80228614  -0.00882426  0.80262593  1
  Pd  Pd159  1  0.40808804  0.60548419  0.59115044  1
  Pd  Pd160  1  0.59292595  0.39042345  0.39940115  1
  Pd  Pd161  1  0.59927106  0.39657376  0.20095356  1
  Pd  Pd162  1  0.39294200  0.59754660  0.40367561  1
  Pd  Pd163  1  0.39894324  0.80204820  0.19784976  1
  Pd  Pd164  1  0.00879631  0.20119666  -0.00700001  1
  Pd  Pd165  1  -0.00555854  0.60504274  0.19613480  1
  Pd  Pd166  1  0.19833430  0.59714384  0.39756806  1
  Pd  Pd167  1  0.80093590  0.80885890  0.79732169  1
  Pd  Pd168  1  0.59896806  0.59789459  0.59560715  1
  Pd  Pd169  1  0.79175188  0.59447703  0.80365632  1
  Pd  Pd170  1  0.20450559  0.80182812  0.79129581  1
  Pd  Pd171  1  0.19369918  0.79635303  0.39619259  1
  Pd  Pd172  1  0.19374771  0.80660043  0.20290340  1
  Pd  Pd173  1  0.20117297  0.59622483  0.20190043  1
  Pd  Pd174  1  0.39015764  0.20778844  0.79221239  1
  Pd  Pd175  1  0.80277084  0.41053170  -0.00074226  1
  Pd  Pd176  1  0.40851811  0.79540818  0.59977323  1
  Pd  Pd177  1  0.00496155  0.19505605  0.80452042  1
  Pd  Pd178  1  0.60036441  -0.00411968  0.39885562  1
  Pd  Pd179  1  0.80151856  0.19351113  0.40108817  1
  Pd  Pd180  1  0.00977136  0.39499425  0.00392520  1
  Pd  Pd181  1  0.60202492  0.00693025  0.79904007  1
  Pd  Pd182  1  0.19463074  0.40281748  0.40396307  1
  Pd  Pd183  1  0.39790089  0.60456451  0.80787865  1
  Pd  Pd184  1  0.41120783  0.79634142  -0.00599018  1
  Pd  Pd185  1  0.59825782  0.20536761  0.39741434  1
  Pd  Pd186  1  0.20465844  0.19734013  0.20582606  1
  Pd  Pd187  1  0.80437798  0.61140507  0.59550667  1
  Pd  Pd188  1  0.79635620  0.19282423  0.00040895  1
  Pd  Pd189  1  0.00976584  0.39222243  0.40781851  1
  Pd  Pd190  1  0.00117045  -0.00545096  0.41025057  1
  Pd  Pd191  1  0.60206275  0.19000551  0.80001534  1
  Pd  Pd192  1  0.80663672  0.80261647  -0.00237476  1
  Pd  Pd193  1  0.00435096  0.80217746  0.40497586  1
  Pd  Pd194  1  -0.00774461  0.60828526  0.60125082  1
  Pd  Pd195  1  0.40762747  0.19797454  0.00225930  1
  Pd  Pd196  1  0.19544084  0.80584411  0.60965159  1
  Pd  Pd197  1  0.39177425  -0.00851867  0.81050558  1
  Pd  Pd198  1  0.59865316  -0.00509759  0.20280507  1
  Pd  Pd199  1  -0.00879904  -0.00968588  -0.00187834  1
  Rh  Rh200  1  0.60099506  0.80606956  0.40497914  1
  Rh  Rh201  1  0.80543944  0.79888695  0.20974016  1
  Rh  Rh202  1  0.60602197  0.21055877  0.19834219  1
  Rh  Rh203  1  0.39312491  0.19600956  0.20274505  1
  Rh  Rh204  1  0.40207693  0.20074584  0.40078493  1
  Rh  Rh205  1  -0.01211381  0.61036099  0.00672136  1
  Rh  Rh206  1  0.00436145  0.20748602  0.40908987  1
  Rh  Rh207  1  -0.00691850  0.80206190  0.60002077  1
  Rh  Rh208  1  0.59983242  0.61104997  0.00233775  1
  Rh  Rh209  1  0.58888241  0.38845817  0.00331677  1
  Rh  Rh210  1  0.40203430  0.40236142  -0.00699947  1
  Rh  Rh211  1  0.00176058  0.60606040  0.78786199  1
  Rh  Rh212  1  0.60098146  -0.00334504  0.60263032  1
  Rh  Rh213  1  -0.00369686  0.60247993  0.40206131  1
  Rh  Rh214  1  0.39788793  0.00400333  0.59145795  1
  Rh  Rh215  1  0.59743978  0.79368367  0.80503508  1
  Rh  Rh216  1  0.20477393  0.59466069  -0.00247826  1
  Rh  Rh217  1  0.19042196  0.79905114  0.00069173  1
  Rh  Rh218  1  0.79918577  0.39132525  0.61041871  1
  Rh  Rh219  1  0.40599425  0.00293148  0.39747787  1
  Rh  Rh220  1  0.39208522  0.59831544  0.19436211  1
  Rh  Rh221  1  0.80595256  0.40929031  0.38908517  1
  Rh  Rh222  1  0.19687446  0.20194451  0.40171245  1
  Rh  Rh223  1  0.20668393  -0.00317113  0.00331696  1
  Rh  Rh224  1  -0.00990495  0.20485192  0.59533940  1
  Rh  Rh225  1  0.60850589  0.60431438  0.40465756  1
  Rh  Rh226  1  0.39859886  0.40067679  0.39532574  1
  Rh  Rh227  1  -0.00810954  0.79720869  0.79713963  1
  Rh  Rh228  1  0.80697822  0.21089191  0.79353952  1
  Rh  Rh229  1  0.60848436  0.20349666  0.59594188  1
  Rh  Rh230  1  0.00463561  -0.00675909  0.59701222  1
  Rh  Rh231  1  -0.00486060  0.79923162  -0.00512306  1
  Rh  Rh232  1  0.79571765  -0.00041480  0.39258375  1
  Rh  Rh233  1  0.80078478  0.79530272  0.40055059  1
  Rh  Rh234  1  0.79650085  0.00000012  0.60287440  1
  Rh  Rh235  1  0.00851423  0.80014677  0.20383739  1
  Rh  Rh236  1  -0.00550196  0.39911436  0.80142158  1
  Rh  Rh237  1  -0.00203057  0.39687309  0.59408074  1
  Rh  Rh238  1  0.59902690  0.40239007  0.78940664  1
  Rh  Rh239  1  0.00460441  0.00028847  0.79857546  1
  Rh  Rh240  1  0.20071126  0.18646940  0.60478034  1
  Rh  Rh241  1  0.19637175  0.40791264  0.59953021  1
  Rh  Rh242  1  0.00494446  0.39516484  0.19637820  1
  Rh  Rh243  1  0.00255801  -0.00359873  0.20027117  1
  Rh  Rh244  1  0.79965767  0.80208133  0.60664957  1
  Rh  Rh245  1  0.00071018  0.20503443  0.19899946  1
  Rh  Rh246  1  0.59803173  0.79573022  0.19893607  1
  Rh  Rh247  1  0.39951006  0.19403494  0.59464004  1
  Rh  Rh248  1  0.19437486  0.40017470  0.19408767  1
  Rh  Rh249  1  0.59835977  0.80507136  0.59799869  1
