# generated using pymatgen
data_ZrScNbPdRh
_symmetry_space_group_name_H-M   'P 1'
_cell_length_a   16.56197264
_cell_length_b   16.56057446
_cell_length_c   16.55534327
_cell_angle_alpha   90.03522997
_cell_angle_beta   89.97700821
_cell_angle_gamma   89.95382689
_symmetry_Int_Tables_number   1
_chemical_formula_structural   ZrScNbPdRh
_chemical_formula_sum   'Zr50 Sc50 Nb50 Pd50 Rh50'
_cell_volume   4540.72700841
_cell_formula_units_Z   50
loop_
 _symmetry_equiv_pos_site_id
 _symmetry_equiv_pos_as_xyz
  1  'x, y, z'
loop_
 _atom_site_type_symbol
 _atom_site_label
 _atom_site_symmetry_multiplicity
 _atom_site_fract_x
 _atom_site_fract_y
 _atom_site_fract_z
 _atom_site_occupancy
  Zr  Zr0  1  0.89764041  0.70373537  0.69886641  1
  Zr  Zr1  1  0.09041426  0.10017187  0.29411737  1
  Zr  Zr2  1  0.09050877  0.50231214  0.30404723  1
  Zr  Zr3  1  0.29775838  0.30030098  0.88725414  1
  Zr  Zr4  1  0.69452174  0.50046605  0.50258734  1
  Zr  Zr5  1  0.50745080  0.09426708  0.90190898  1
  Zr  Zr6  1  0.90193289  0.89838427  0.68814759  1
  Zr  Zr7  1  0.50663108  0.29779879  0.09662737  1
  Zr  Zr8  1  0.50158664  0.29573089  0.89579820  1
  Zr  Zr9  1  0.10437447  0.09488718  0.68523721  1
  Zr  Zr10  1  0.29054705  0.71791876  0.30843488  1
  Zr  Zr11  1  0.49429001  0.50620294  0.10565675  1
  Zr  Zr12  1  0.10947726  0.89069347  0.29987361  1
  Zr  Zr13  1  0.89734460  0.49714104  0.89842044  1
  Zr  Zr14  1  0.09497209  0.89669933  0.89862556  1
  Zr  Zr15  1  0.69059457  0.50606896  0.09928882  1
  Zr  Zr16  1  0.30376964  0.69297440  0.50625675  1
  Zr  Zr17  1  0.69622451  0.69829552  0.50561191  1
  Zr  Zr18  1  0.30592840  0.89820317  0.11306363  1
  Zr  Zr19  1  0.89293377  0.69452097  0.90256396  1
  Zr  Zr20  1  0.08901981  0.69989986  0.29565064  1
  Zr  Zr21  1  0.90020487  0.69647335  0.10496524  1
  Zr  Zr22  1  0.49954525  0.70001728  0.49533101  1
  Zr  Zr23  1  0.91251486  0.90092639  0.29628868  1
  Zr  Zr24  1  0.49826158  0.70231582  0.70531071  1
  Zr  Zr25  1  0.09331402  0.29924279  0.09824482  1
  Zr  Zr26  1  0.30258503  0.29905205  0.30455949  1
  Zr  Zr27  1  0.09311188  0.70164456  0.69693337  1
  Zr  Zr28  1  0.30110774  0.10970005  0.69912572  1
  Zr  Zr29  1  0.49705766  0.69896998  0.30419211  1
  Zr  Zr30  1  0.70224608  0.10738026  0.30156990  1
  Zr  Zr31  1  0.09684759  0.91071975  0.50917349  1
  Zr  Zr32  1  0.90402839  0.29764851  0.09510572  1
  Zr  Zr33  1  0.31006411  0.90293337  0.69431338  1
  Zr  Zr34  1  0.50206240  0.70313135  0.89683934  1
  Zr  Zr35  1  0.11089015  0.30652842  0.70073982  1
  Zr  Zr36  1  0.28650945  0.30441279  0.11238332  1
  Zr  Zr37  1  0.51353488  0.10767059  0.30474031  1
  Zr  Zr38  1  0.90327742  0.70591445  0.50906410  1
  Zr  Zr39  1  0.30501004  0.30179399  0.70072849  1
  Zr  Zr40  1  0.50764333  0.69361721  0.10511110  1
  Zr  Zr41  1  0.88776386  0.30801445  0.30821474  1
  Zr  Zr42  1  0.30579387  0.09840798  0.89867069  1
  Zr  Zr43  1  0.70346082  0.69908040  0.09045647  1
  Zr  Zr44  1  0.30059214  0.09803993  0.29371743  1
  Zr  Zr45  1  0.29691895  0.50519205  0.89234540  1
  Zr  Zr46  1  0.30160448  0.30096121  0.50151062  1
  Zr  Zr47  1  0.09125608  0.09176360  0.90198538  1
  Zr  Zr48  1  0.90177488  0.48330320  0.49226232  1
  Zr  Zr49  1  0.69538763  0.50698082  0.69430994  1
  Sc  Sc50  1  0.50933041  0.09715446  0.09484765  1
  Sc  Sc51  1  0.30686839  0.89994347  0.91593936  1
  Sc  Sc52  1  0.10717302  0.50255005  0.50498095  1
  Sc  Sc53  1  0.30503012  0.89200954  0.50022331  1
  Sc  Sc54  1  0.89743117  0.49188383  0.69744719  1
  Sc  Sc55  1  0.69915495  0.29352193  0.90003804  1
  Sc  Sc56  1  0.50377368  0.49786489  0.89870973  1
  Sc  Sc57  1  0.10570879  0.69293608  0.90200209  1
  Sc  Sc58  1  0.70034600  0.90497068  0.50067433  1
  Sc  Sc59  1  0.70821236  0.49560133  0.29924270  1
  Sc  Sc60  1  0.30104808  0.69687955  0.90331377  1
  Sc  Sc61  1  0.09856785  0.49155769  0.09686401  1
  Sc  Sc62  1  0.10176225  0.30093587  0.28714225  1
  Sc  Sc63  1  0.68484058  0.70180269  0.30267523  1
  Sc  Sc64  1  0.50458264  0.30035775  0.70277083  1
  Sc  Sc65  1  0.08438774  0.90425422  0.70107480  1
  Sc  Sc66  1  0.70149834  0.29326787  0.09699633  1
  Sc  Sc67  1  0.70502428  0.30005499  0.50135941  1
  Sc  Sc68  1  0.70375371  0.50539839  0.89708885  1
  Sc  Sc69  1  0.89467633  0.50099865  0.10352821  1
  Sc  Sc70  1  0.30794637  0.49094260  0.29924841  1
  Sc  Sc71  1  0.90842942  0.90743753  0.89487046  1
  Sc  Sc72  1  0.89407252  0.30361890  0.89944883  1
  Sc  Sc73  1  0.50407293  0.10528981  0.50490181  1
  Sc  Sc74  1  0.30774648  0.69855871  0.09605770  1
  Sc  Sc75  1  0.68908692  0.90687368  0.30198825  1
  Sc  Sc76  1  0.49944882  0.90119325  0.10272652  1
  Sc  Sc77  1  0.69953763  0.90743835  0.90518774  1
  Sc  Sc78  1  0.89596188  0.90751123  0.09953579  1
  Sc  Sc79  1  0.90112326  0.10252058  0.90564656  1
  Sc  Sc80  1  0.70187427  0.09250026  0.10308325  1
  Sc  Sc81  1  0.89744368  0.10023632  0.48743359  1
  Sc  Sc82  1  0.89654545  0.09871392  0.69398969  1
  Sc  Sc83  1  0.10689657  0.69658844  0.49297409  1
  Sc  Sc84  1  0.09865352  0.69230220  0.09828816  1
  Sc  Sc85  1  0.30547657  0.68669928  0.70642131  1
  Sc  Sc86  1  0.09921325  0.90530997  0.10153543  1
  Sc  Sc87  1  0.09791021  0.31182433  0.49141225  1
  Sc  Sc88  1  0.89684480  0.10150031  0.29579322  1
  Sc  Sc89  1  0.69943257  0.09756571  0.49848410  1
  Sc  Sc90  1  0.10362227  0.49571565  0.90437500  1
  Sc  Sc91  1  0.30081444  0.10366964  0.51387045  1
  Sc  Sc92  1  0.29996946  0.08811381  0.09969222  1
  Sc  Sc93  1  0.50184995  0.51187369  0.50155028  1
  Sc  Sc94  1  0.70190649  0.29796417  0.69889924  1
  Sc  Sc95  1  0.69444147  0.10361166  0.69322456  1
  Sc  Sc96  1  0.50064533  0.49818613  0.70317693  1
  Sc  Sc97  1  0.90437325  0.09826959  0.10421481  1
  Sc  Sc98  1  0.50042102  0.09741234  0.70162126  1
  Sc  Sc99  1  0.70056540  0.90814224  0.68872191  1
  Nb  Nb100  1  0.30393496  0.90205266  0.29937131  1
  Nb  Nb101  1  0.70289107  0.70146495  0.89452575  1
  Nb  Nb102  1  0.90487556  0.69959571  0.29800294  1
  Nb  Nb103  1  0.70361505  0.89748759  0.10087824  1
  Nb  Nb104  1  0.30020249  0.50226124  0.51273658  1
  Nb  Nb105  1  0.09523466  0.29703230  0.90250138  1
  Nb  Nb106  1  0.50478786  0.90149783  0.89840936  1
  Nb  Nb107  1  0.09320848  0.11108748  0.10039378  1
  Nb  Nb108  1  0.29543887  0.49760192  0.69902296  1
  Nb  Nb109  1  0.90482992  0.29770803  0.69608035  1
  Nb  Nb110  1  0.50486634  0.50100870  0.29898814  1
  Nb  Nb111  1  0.69120065  0.29521711  0.30179096  1
  Nb  Nb112  1  0.69537802  0.09922447  0.89620451  1
  Nb  Nb113  1  0.49361768  0.89120701  0.30700264  1
  Nb  Nb114  1  0.49872072  0.29786064  0.30522364  1
  Nb  Nb115  1  0.29687333  0.49962247  0.10024019  1
  Nb  Nb116  1  0.10379113  0.10416360  0.49831425  1
  Nb  Nb117  1  0.11193670  0.50448584  0.70287405  1
  Nb  Nb118  1  0.49725305  0.30183660  0.49649758  1
  Nb  Nb119  1  0.50057487  0.89669583  0.69735127  1
  Nb  Nb120  1  0.89485795  0.90016451  0.50329626  1
  Nb  Nb121  1  0.90011685  0.30079436  0.50196157  1
  Nb  Nb122  1  0.49845000  0.89334332  0.50593015  1
  Nb  Nb123  1  0.70249401  0.70108436  0.70194256  1
  Nb  Nb124  1  0.89800431  0.50730342  0.30066005  1
  Nb  Nb125  1  0.79618489  0.80309473  0.79832765  1
  Nb  Nb126  1  0.39355292  0.39803689  0.00302302  1
  Nb  Nb127  1  0.80554886  0.79756357  0.39614924  1
  Nb  Nb128  1  0.00056104  0.59483656  0.79618855  1
  Nb  Nb129  1  0.19646905  0.19886324  -0.00014758  1
  Nb  Nb130  1  0.60394502  0.80107535  -0.00494038  1
  Nb  Nb131  1  0.40471170  0.20256119  0.19910662  1
  Nb  Nb132  1  0.20490279  0.00237275  0.39981399  1
  Nb  Nb133  1  0.40144969  -0.00501424  0.39643113  1
  Nb  Nb134  1  0.39319184  0.20562255  0.00369227  1
  Nb  Nb135  1  0.20251084  -0.00544274  0.79815498  1
  Nb  Nb136  1  0.59549369  0.79975357  0.60512312  1
  Nb  Nb137  1  0.20289286  0.59678138  0.20179908  1
  Nb  Nb138  1  0.79907290  0.80028134  0.20629283  1
  Nb  Nb139  1  -0.00099943  0.20774220  0.59542916  1
  Nb  Nb140  1  0.20075384  0.80555491  0.79645939  1
  Nb  Nb141  1  0.80779726  0.60512670  0.39799575  1
  Nb  Nb142  1  0.59458320  0.39653054  0.39532938  1
  Nb  Nb143  1  0.59598393  0.39587986  0.20764981  1
  Nb  Nb144  1  0.20108147  0.79966158  0.60812392  1
  Nb  Nb145  1  0.19742571  0.19297180  0.39869330  1
  Nb  Nb146  1  0.79806056  0.00108618  0.79898032  1
  Nb  Nb147  1  0.00071616  0.20571639  0.79210117  1
  Nb  Nb148  1  -0.00436297  0.79754456  -0.00007583  1
  Nb  Nb149  1  0.39764750  0.40279220  0.59830557  1
  Pd  Pd150  1  -0.00762750  0.40193221  0.20233579  1
  Pd  Pd151  1  0.39932523  -0.00334310  0.80197292  1
  Pd  Pd152  1  0.41122124  0.80138326  0.00390992  1
  Pd  Pd153  1  0.80121304  -0.00733985  0.39318303  1
  Pd  Pd154  1  0.60684117  -0.00421475  0.79282866  1
  Pd  Pd155  1  0.00353321  -0.00073836  0.40149911  1
  Pd  Pd156  1  0.79086273  0.60886950  0.20849233  1
  Pd  Pd157  1  0.00266691  0.20875287  0.39909724  1
  Pd  Pd158  1  0.19170591  0.00264828  0.20036929  1
  Pd  Pd159  1  0.80820105  0.59306548  0.59431132  1
  Pd  Pd160  1  0.60032564  0.59730746  0.80156246  1
  Pd  Pd161  1  0.00565475  0.40117683  0.80039613  1
  Pd  Pd162  1  0.60264911  0.80356630  0.19421891  1
  Pd  Pd163  1  0.20765437  0.59118190  0.39129180  1
  Pd  Pd164  1  0.80207272  0.20181467  0.19672953  1
  Pd  Pd165  1  0.19803770  0.78997221  0.18639720  1
  Pd  Pd166  1  0.79688264  0.19064664  0.00211138  1
  Pd  Pd167  1  0.60945282  0.39888364  0.80056044  1
  Pd  Pd168  1  0.79233928  0.39585264  0.19539600  1
  Pd  Pd169  1  0.59853581  0.20548483  0.59890947  1
  Pd  Pd170  1  0.39090354  0.80397640  0.80590790  1
  Pd  Pd171  1  0.80422626  0.19307479  0.79961077  1
  Pd  Pd172  1  -0.00178966  0.58814123  0.60099217  1
  Pd  Pd173  1  0.39526874  0.18716986  0.40087729  1
  Pd  Pd174  1  0.80473399  0.19544603  0.59362410  1
  Pd  Pd175  1  0.80007964  0.00521948  -0.00481576  1
  Pd  Pd176  1  0.20360247  0.39453416  -0.00645391  1
  Pd  Pd177  1  0.80290839  0.80898259  -0.00358173  1
  Pd  Pd178  1  0.19952130  0.40203662  0.39693473  1
  Pd  Pd179  1  0.79464960  0.40279465  0.00308031  1
  Pd  Pd180  1  0.39123585  0.59624481  0.39401484  1
  Pd  Pd181  1  0.40562611  0.00474051  0.59280262  1
  Pd  Pd182  1  0.61055549  0.81213337  0.79828446  1
  Pd  Pd183  1  0.19499542  0.79822995  0.00109931  1
  Pd  Pd184  1  0.59829398  0.40324086  0.00105235  1
  Pd  Pd185  1  0.38799139  0.60810316  0.21145108  1
  Pd  Pd186  1  0.40116205  0.59338531  -0.00637155  1
  Pd  Pd187  1  0.00079749  0.59760178  -0.00314737  1
  Pd  Pd188  1  0.19690653  0.00220096  -0.00011104  1
  Pd  Pd189  1  0.79240582  0.39767119  0.79427904  1
  Pd  Pd190  1  -0.00579017  0.59997468  0.41097979  1
  Pd  Pd191  1  0.40660659  0.41079249  0.41034407  1
  Pd  Pd192  1  0.59142914  -0.00366434  0.40840416  1
  Pd  Pd193  1  0.79507180  0.39767241  0.60446301  1
  Pd  Pd194  1  0.40704338  0.39328474  0.19516346  1
  Pd  Pd195  1  0.41583315  0.00744852  0.20559755  1
  Pd  Pd196  1  0.18851828  0.18896396  0.80631646  1
  Pd  Pd197  1  0.00033503  0.80308685  0.40842211  1
  Pd  Pd198  1  0.59691186  -0.00337770  0.20035067  1
  Pd  Pd199  1  0.00856637  0.40068481  0.60314136  1
  Rh  Rh200  1  0.79624723  -0.00685998  0.20623197  1
  Rh  Rh201  1  0.79662992  0.59101869  0.00011141  1
  Rh  Rh202  1  -0.00385051  0.01483559  0.79095957  1
  Rh  Rh203  1  0.00593023  0.59103145  0.19431596  1
  Rh  Rh204  1  0.00001581  0.20106680  -0.00725125  1
  Rh  Rh205  1  -0.00578416  0.80337343  0.18703306  1
  Rh  Rh206  1  -0.00723399  0.40032455  -0.00308187  1
  Rh  Rh207  1  0.40070952  0.79135610  0.60260695  1
  Rh  Rh208  1  0.00326607  0.00000080  0.19629042  1
  Rh  Rh209  1  0.78819150  0.80412908  0.59856751  1
  Rh  Rh210  1  0.20821454  -0.00861421  0.60022646  1
  Rh  Rh211  1  0.19600678  0.40381412  0.80466677  1
  Rh  Rh212  1  0.40979082  0.21059899  0.60460000  1
  Rh  Rh213  1  0.60376313  0.80614879  0.41115071  1
  Rh  Rh214  1  0.39904973  0.40690412  0.79679517  1
  Rh  Rh215  1  -0.01121196  0.20666648  0.20561106  1
  Rh  Rh216  1  0.01110594  0.79997114  0.59032428  1
  Rh  Rh217  1  0.40350019  0.79370890  0.20052185  1
  Rh  Rh218  1  0.19494984  0.60524021  0.79793248  1
  Rh  Rh219  1  0.18974893  0.21455878  0.58726983  1
  Rh  Rh220  1  0.19978723  0.60795402  0.60544663  1
  Rh  Rh221  1  -0.00031740  0.39576822  0.39154577  1
  Rh  Rh222  1  -0.00073982  -0.00496822  0.00920787  1
  Rh  Rh223  1  0.60118926  0.60641560  -0.01147571  1
  Rh  Rh224  1  0.80434489  0.60256333  0.79319063  1
  Rh  Rh225  1  0.60567799  0.20751062  0.41258154  1
  Rh  Rh226  1  0.19687740  0.81156031  0.41465917  1
  Rh  Rh227  1  0.59299331  -0.00456991  0.59758514  1
  Rh  Rh228  1  0.79094375  0.40232889  0.40085079  1
  Rh  Rh229  1  0.20409440  0.59794310  0.01026037  1
  Rh  Rh230  1  -0.01313961  0.01339120  0.58965530  1
  Rh  Rh231  1  0.60523059  0.19235105  -0.00231980  1
  Rh  Rh232  1  -0.00259797  0.78427129  0.81321219  1
  Rh  Rh233  1  0.58996800  0.39729914  0.59120513  1
  Rh  Rh234  1  0.20487824  0.39952567  0.59863701  1
  Rh  Rh235  1  0.80121596  0.00620127  0.59934209  1
  Rh  Rh236  1  0.59984893  0.20314642  0.19589935  1
  Rh  Rh237  1  0.41103953  0.19359961  0.80234420  1
  Rh  Rh238  1  0.40750430  0.00063349  0.00281832  1
  Rh  Rh239  1  0.60364953  -0.00823146  0.00404632  1
  Rh  Rh240  1  0.20286310  0.18998671  0.19712271  1
  Rh  Rh241  1  0.59230684  0.60911770  0.60891451  1
  Rh  Rh242  1  0.79721136  0.20211145  0.40232553  1
  Rh  Rh243  1  0.60268793  0.19770055  0.79781006  1
  Rh  Rh244  1  0.60457300  0.59471110  0.20810591  1
  Rh  Rh245  1  0.40436292  0.59464849  0.80253738  1
  Rh  Rh246  1  0.60983541  0.58889901  0.39208343  1
  Rh  Rh247  1  0.39856701  0.80167293  0.40338213  1
  Rh  Rh248  1  0.19321693  0.41528221  0.20840147  1
  Rh  Rh249  1  0.40462247  0.59237275  0.60772542  1
