# generated using pymatgen
data_ZrScNbPdRh
_symmetry_space_group_name_H-M   'P 1'
_cell_length_a   16.55800716
_cell_length_b   16.56115246
_cell_length_c   16.55757503
_cell_angle_alpha   90.00496171
_cell_angle_beta   89.97630474
_cell_angle_gamma   89.95199153
_symmetry_Int_Tables_number   1
_chemical_formula_structural   ZrScNbPdRh
_chemical_formula_sum   'Zr50 Sc50 Nb50 Pd50 Rh50'
_cell_volume   4540.41094219
_cell_formula_units_Z   50
loop_
 _symmetry_equiv_pos_site_id
 _symmetry_equiv_pos_as_xyz
  1  'x, y, z'
loop_
 _atom_site_type_symbol
 _atom_site_label
 _atom_site_symmetry_multiplicity
 _atom_site_fract_x
 _atom_site_fract_y
 _atom_site_fract_z
 _atom_site_occupancy
  Zr  Zr0  1  0.70133064  0.30110739  0.10394648  1
  Zr  Zr1  1  0.69892983  0.09940407  0.30448919  1
  Zr  Zr2  1  0.50400390  0.49324855  0.71762255  1
  Zr  Zr3  1  0.50070790  0.31030690  0.50157043  1
  Zr  Zr4  1  0.11026181  0.08759508  0.29735811  1
  Zr  Zr5  1  0.89965088  0.10200731  0.89772682  1
  Zr  Zr6  1  0.30185761  0.49464006  0.49788776  1
  Zr  Zr7  1  0.49139621  0.70392103  0.28863051  1
  Zr  Zr8  1  0.89556662  0.30012483  0.08847617  1
  Zr  Zr9  1  0.70440898  0.49992555  0.10295401  1
  Zr  Zr10  1  0.88699025  0.90007502  0.70420432  1
  Zr  Zr11  1  0.09287217  0.29365473  0.69583982  1
  Zr  Zr12  1  0.50209392  0.10278881  0.30679808  1
  Zr  Zr13  1  0.30026858  0.89798337  0.50587337  1
  Zr  Zr14  1  0.89661521  0.50666192  0.90660164  1
  Zr  Zr15  1  0.29938166  0.09989516  0.70744476  1
  Zr  Zr16  1  0.09492232  0.90142404  0.10318275  1
  Zr  Zr17  1  0.49497256  0.30965816  0.89043471  1
  Zr  Zr18  1  0.11033421  0.70056537  0.09203435  1
  Zr  Zr19  1  0.10262586  0.69350213  0.70145280  1
  Zr  Zr20  1  0.29842252  0.50659214  0.09841598  1
  Zr  Zr21  1  0.90329962  0.50851586  0.29776618  1
  Zr  Zr22  1  0.30143430  0.10129157  0.89261131  1
  Zr  Zr23  1  0.09629281  0.88753516  0.90717056  1
  Zr  Zr24  1  0.70555991  0.31281839  0.50305504  1
  Zr  Zr25  1  0.50377029  0.09699182  0.09062714  1
  Zr  Zr26  1  0.10217304  0.70022502  0.50842353  1
  Zr  Zr27  1  0.49907494  0.88464776  0.10324043  1
  Zr  Zr28  1  0.09425543  0.69987909  0.89457357  1
  Zr  Zr29  1  0.49759069  0.10096259  0.49774767  1
  Zr  Zr30  1  0.31219520  0.49721676  0.89997322  1
  Zr  Zr31  1  0.70635097  0.69836818  0.89670563  1
  Zr  Zr32  1  0.90891068  0.89785679  0.30737300  1
  Zr  Zr33  1  0.89047797  0.69928852  0.30118788  1
  Zr  Zr34  1  0.50931011  0.29983439  0.10499361  1
  Zr  Zr35  1  0.70717459  0.50540518  0.30906803  1
  Zr  Zr36  1  0.10601363  0.29389618  0.09542450  1
  Zr  Zr37  1  0.50356591  0.90346936  0.91157757  1
  Zr  Zr38  1  0.89166382  0.49050625  0.49238904  1
  Zr  Zr39  1  0.49632227  0.89758360  0.50366346  1
  Zr  Zr40  1  0.90385477  0.30149961  0.30740425  1
  Zr  Zr41  1  0.30138679  0.30498599  0.49779797  1
  Zr  Zr42  1  0.69895968  0.69751312  0.49920897  1
  Zr  Zr43  1  0.09319677  0.29822056  0.89886573  1
  Zr  Zr44  1  0.28766828  0.10964775  0.10059701  1
  Zr  Zr45  1  0.89773901  0.50225753  0.10328660  1
  Zr  Zr46  1  0.69985763  0.09802538  0.70492740  1
  Zr  Zr47  1  0.69701523  0.89374874  0.50885409  1
  Zr  Zr48  1  0.70457724  0.89763449  0.31564276  1
  Zr  Zr49  1  0.70291562  0.30410683  0.69352365  1
  Sc  Sc50  1  0.10248081  0.50391693  0.30063274  1
  Sc  Sc51  1  0.10639786  0.50890316  0.89971855  1
  Sc  Sc52  1  0.90597707  0.09299957  0.49958088  1
  Sc  Sc53  1  0.50060852  0.69759640  0.50126489  1
  Sc  Sc54  1  0.29619245  0.69252671  0.50570159  1
  Sc  Sc55  1  0.70921273  0.90259373  0.89543856  1
  Sc  Sc56  1  0.69600664  0.50534628  0.69997193  1
  Sc  Sc57  1  0.30313991  0.09346903  0.48732725  1
  Sc  Sc58  1  0.69429585  0.30254980  0.29483070  1
  Sc  Sc59  1  0.09066931  0.90086080  0.49613708  1
  Sc  Sc60  1  0.70367243  0.70136261  0.69395129  1
  Sc  Sc61  1  0.89982972  0.70365659  0.50268265  1
  Sc  Sc62  1  0.90067373  0.89532223  0.09622623  1
  Sc  Sc63  1  0.28669709  0.30663994  0.09269385  1
  Sc  Sc64  1  0.50867901  0.30283090  0.70020379  1
  Sc  Sc65  1  0.49433017  0.50238529  0.31058701  1
  Sc  Sc66  1  0.10629054  0.50200692  0.09929031  1
  Sc  Sc67  1  0.10968341  0.29808459  0.30736187  1
  Sc  Sc68  1  0.90563137  0.10207947  0.69062967  1
  Sc  Sc69  1  0.89955986  0.09857612  0.09639180  1
  Sc  Sc70  1  0.50141521  0.89681033  0.30079054  1
  Sc  Sc71  1  0.29457230  0.70361751  0.69737580  1
  Sc  Sc72  1  0.09619809  0.10155728  0.50463028  1
  Sc  Sc73  1  0.89686324  0.89572568  0.90093362  1
  Sc  Sc74  1  0.29014062  0.69639675  0.90104797  1
  Sc  Sc75  1  0.09931157  0.88506245  0.70282504  1
  Sc  Sc76  1  0.70285836  0.11355013  0.09666183  1
  Sc  Sc77  1  0.30259753  0.89867525  0.89379825  1
  Sc  Sc78  1  0.69963117  0.09471318  0.49839742  1
  Sc  Sc79  1  0.29699709  0.49977866  0.30407756  1
  Sc  Sc80  1  0.89836203  0.69563824  0.10063538  1
  Sc  Sc81  1  0.10076681  0.50425486  0.69567152  1
  Sc  Sc82  1  0.30372851  0.89535309  0.09362904  1
  Sc  Sc83  1  0.89644838  0.89902229  0.49634345  1
  Sc  Sc84  1  0.50108534  0.69895962  0.69796755  1
  Sc  Sc85  1  0.69944239  0.89265298  0.08894981  1
  Sc  Sc86  1  0.30245613  0.68720082  0.29352310  1
  Sc  Sc87  1  0.69463614  0.09501326  0.89846264  1
  Sc  Sc88  1  0.10222453  0.30061863  0.50101180  1
  Sc  Sc89  1  0.90242591  0.70150867  0.70180162  1
  Sc  Sc90  1  0.90564571  0.49705262  0.69008315  1
  Sc  Sc91  1  0.29433862  0.92059952  0.30764624  1
  Sc  Sc92  1  0.08589166  0.69256333  0.29776916  1
  Sc  Sc93  1  0.50449493  0.29998243  0.30843334  1
  Sc  Sc94  1  0.48720469  0.89276856  0.69597493  1
  Sc  Sc95  1  0.70411617  0.29763044  0.90763828  1
  Sc  Sc96  1  0.70466093  0.70604357  0.09672597  1
  Sc  Sc97  1  0.49437670  0.69713020  0.89836230  1
  Sc  Sc98  1  0.31080111  0.69857483  0.10317173  1
  Sc  Sc99  1  0.90660768  0.30272894  0.51054385  1
  Nb  Nb100  1  0.49750502  0.49599216  0.50187890  1
  Nb  Nb101  1  0.10400893  0.50105528  0.49926828  1
  Nb  Nb102  1  0.50205927  0.69852873  0.10169424  1
  Nb  Nb103  1  0.69702756  0.90087036  0.70360926  1
  Nb  Nb104  1  0.30291253  0.29621766  0.30106372  1
  Nb  Nb105  1  0.10112902  0.10181217  0.09756798  1
  Nb  Nb106  1  0.89898453  0.70288782  0.90014102  1
  Nb  Nb107  1  0.09976414  0.89695966  0.30070590  1
  Nb  Nb108  1  0.29770322  0.30141907  0.89786820  1
  Nb  Nb109  1  0.10177734  0.09893345  0.70497245  1
  Nb  Nb110  1  0.69965130  0.69769711  0.30198123  1
  Nb  Nb111  1  0.89937523  0.09829437  0.30197998  1
  Nb  Nb112  1  0.50358837  0.50135048  0.90044916  1
  Nb  Nb113  1  0.69333171  0.50016106  0.49889519  1
  Nb  Nb114  1  0.90416927  0.30311617  0.89257258  1
  Nb  Nb115  1  0.90320422  0.30468029  0.70238011  1
  Nb  Nb116  1  0.09979621  0.09984780  0.89580020  1
  Nb  Nb117  1  0.49468443  0.50487618  0.09597380  1
  Nb  Nb118  1  0.69336796  0.50591548  0.89536145  1
  Nb  Nb119  1  0.29998516  0.30077043  0.69559809  1
  Nb  Nb120  1  0.29949449  0.89758168  0.69173751  1
  Nb  Nb121  1  0.49911943  0.10846426  0.70825092  1
  Nb  Nb122  1  0.49373772  0.10507308  0.89177922  1
  Nb  Nb123  1  0.30596390  0.10677182  0.29865734  1
  Nb  Nb124  1  0.30096633  0.49441742  0.69808682  1
  Nb  Nb125  1  0.38934683  0.79902589  0.39931608  1
  Nb  Nb126  1  0.60243752  0.80444332  0.79924308  1
  Nb  Nb127  1  0.80771743  0.20771759  0.79660232  1
  Nb  Nb128  1  0.39704179  0.20251543  0.19723666  1
  Nb  Nb129  1  0.00641854  0.00155493  0.80008850  1
  Nb  Nb130  1  0.00053632  0.39285223  0.19776695  1
  Nb  Nb131  1  0.39931175  0.20167916  0.60458019  1
  Nb  Nb132  1  0.79722699  -0.00156522  0.20558797  1
  Nb  Nb133  1  0.00410603  0.19743675  0.20061558  1
  Nb  Nb134  1  0.80425630  0.20099392  0.39988780  1
  Nb  Nb135  1  0.19745523  0.79997200  0.39366890  1
  Nb  Nb136  1  0.60356472  -0.00148316  0.19889404  1
  Nb  Nb137  1  0.39951098  0.20258643  -0.00486459  1
  Nb  Nb138  1  0.59778928  0.41022704  -0.00161744  1
  Nb  Nb139  1  0.20079772  -0.00200085  0.60917796  1
  Nb  Nb140  1  0.19795736  0.80367977  0.20828866  1
  Nb  Nb141  1  0.19146203  0.00520158  -0.00381973  1
  Nb  Nb142  1  0.59580920  0.59810649  0.00156430  1
  Nb  Nb143  1  0.20546430  0.39578207  0.79638349  1
  Nb  Nb144  1  0.39783329  0.39636340  0.19856510  1
  Nb  Nb145  1  0.80577576  0.39864586  0.80199000  1
  Nb  Nb146  1  0.59482626  0.00098547  0.60987491  1
  Nb  Nb147  1  0.59787076  0.60319789  0.19701007  1
  Nb  Nb148  1  0.40288372  0.00829119  0.19799550  1
  Nb  Nb149  1  0.40066317  0.58495756  0.60270843  1
  Pd  Pd150  1  0.79752500  0.80748787  0.20034145  1
  Pd  Pd151  1  0.80742795  0.39779588  0.20850163  1
  Pd  Pd152  1  0.59189501  0.59468980  0.60343601  1
  Pd  Pd153  1  0.00001841  0.19326133  0.39851856  1
  Pd  Pd154  1  0.39359355  0.60697718  0.79253710  1
  Pd  Pd155  1  0.59383561  0.20676250  -0.01128406  1
  Pd  Pd156  1  0.40334853  0.39258563  0.00791639  1
  Pd  Pd157  1  0.59084547  0.41400790  0.20379886  1
  Pd  Pd158  1  0.60887957  -0.00148620  0.00412198  1
  Pd  Pd159  1  0.80618938  0.59436325  0.79077143  1
  Pd  Pd160  1  0.20074998  0.19489314  0.40489166  1
  Pd  Pd161  1  0.61213124  0.80014734  0.20266575  1
  Pd  Pd162  1  0.00129341  0.00021542  -0.00687313  1
  Pd  Pd163  1  0.80676862  0.19707091  0.59598274  1
  Pd  Pd164  1  -0.00492653  0.80474339  0.60215178  1
  Pd  Pd165  1  0.19970984  0.40044208  0.20616867  1
  Pd  Pd166  1  0.59630401  0.19466033  0.59581693  1
  Pd  Pd167  1  0.19218489  0.40278167  0.60252763  1
  Pd  Pd168  1  0.19897191  0.60649991  0.39873100  1
  Pd  Pd169  1  0.39998362  0.01167541  0.60665176  1
  Pd  Pd170  1  0.00219198  0.79222439  0.19658882  1
  Pd  Pd171  1  0.38991051  0.00704531  0.00301719  1
  Pd  Pd172  1  0.40637828  -0.00807771  0.79748800  1
  Pd  Pd173  1  0.19274745  -0.01361992  0.80027811  1
  Pd  Pd174  1  0.20765312  0.18919832  0.59376456  1
  Pd  Pd175  1  0.20765890  -0.00718377  0.19022115  1
  Pd  Pd176  1  0.79564813  0.00329963  0.00632617  1
  Pd  Pd177  1  0.00125622  0.60284277  0.00328649  1
  Pd  Pd178  1  0.80701087  0.19629268  0.20551807  1
  Pd  Pd179  1  0.20380183  0.80051822  0.80022550  1
  Pd  Pd180  1  0.40186604  0.79736141  0.80216923  1
  Pd  Pd181  1  0.79361399  0.40371176  -0.00858153  1
  Pd  Pd182  1  0.58784188  -0.00813900  0.79580121  1
  Pd  Pd183  1  0.61123583  0.20804668  0.40984048  1
  Pd  Pd184  1  0.00389352  0.41374178  0.79979538  1
  Pd  Pd185  1  -0.00473506  0.59534043  0.59149917  1
  Pd  Pd186  1  0.00734944  0.40773977  0.00352316  1
  Pd  Pd187  1  -0.00232697  0.60153944  0.40942101  1
  Pd  Pd188  1  0.39518873  0.79083749  -0.00711135  1
  Pd  Pd189  1  0.00795500  -0.00883070  0.60927300  1
  Pd  Pd190  1  0.79450744  0.00200437  0.59731309  1
  Pd  Pd191  1  0.59200481  0.60372472  0.39479764  1
  Pd  Pd192  1  0.80332981  0.59693613  0.59750387  1
  Pd  Pd193  1  0.59079595  0.79378674  0.39997275  1
  Pd  Pd194  1  -0.00215447  0.19714899  0.00326181  1
  Pd  Pd195  1  -0.00832018  0.00553069  0.20005881  1
  Pd  Pd196  1  0.60981676  0.20732156  0.80587540  1
  Pd  Pd197  1  0.19737003  0.20879135  0.80099389  1
  Pd  Pd198  1  -0.00615160  0.59535700  0.79775961  1
  Pd  Pd199  1  0.01052481  0.40388552  0.39773665  1
  Rh  Rh200  1  0.39815791  0.39748611  0.39059291  1
  Rh  Rh201  1  0.80303887  0.19824977  -0.01008305  1
  Rh  Rh202  1  0.38334981  0.81568788  0.21353534  1
  Rh  Rh203  1  0.18984921  -0.00246673  0.41313639  1
  Rh  Rh204  1  0.79630149  0.79570260  0.79860792  1
  Rh  Rh205  1  0.00757938  0.40259873  0.59380704  1
  Rh  Rh206  1  0.19622452  0.40531055  -0.01447069  1
  Rh  Rh207  1  0.60035054  0.61369131  0.80504423  1
  Rh  Rh208  1  0.59971496  0.80492399  0.60956806  1
  Rh  Rh209  1  0.40836162  -0.00750134  0.39200198  1
  Rh  Rh210  1  0.59438580  -0.00647319  0.40731777  1
  Rh  Rh211  1  0.61582648  0.39329590  0.80788165  1
  Rh  Rh212  1  0.20641064  0.59133447  0.79604279  1
  Rh  Rh213  1  0.79906879  0.79922044  0.60117966  1
  Rh  Rh214  1  0.40512732  0.58778202  0.20147908  1
  Rh  Rh215  1  0.39998878  0.60482721  0.41048512  1
  Rh  Rh216  1  0.39959435  0.21005260  0.79635815  1
  Rh  Rh217  1  0.39235851  0.39505831  0.79264029  1
  Rh  Rh218  1  0.79030007  0.60773422  0.19832311  1
  Rh  Rh219  1  0.79809169  0.41020081  0.60752022  1
  Rh  Rh220  1  0.40900399  0.39837109  0.60921917  1
  Rh  Rh221  1  0.00287816  0.00240016  0.39863150  1
  Rh  Rh222  1  0.20527948  0.80522694  0.00626347  1
  Rh  Rh223  1  0.19667197  0.20353068  0.20784527  1
  Rh  Rh224  1  -0.00858458  0.80266145  0.80022614  1
  Rh  Rh225  1  0.20668257  0.59239941  0.60307890  1
  Rh  Rh226  1  0.19576583  0.80558454  0.59433568  1
  Rh  Rh227  1  0.80591406  0.79770733  -0.00269235  1
  Rh  Rh228  1  0.39618129  0.78409077  0.59460191  1
  Rh  Rh229  1  0.80941836  0.01022001  0.79759595  1
  Rh  Rh230  1  0.19763794  0.60748084  0.19858498  1
  Rh  Rh231  1  0.00385371  0.59281516  0.19223524  1
  Rh  Rh232  1  0.59953109  0.41058435  0.60134748  1
  Rh  Rh233  1  0.20626141  0.60045491  -0.00215458  1
  Rh  Rh234  1  0.80074585  0.79325461  0.40535265  1
  Rh  Rh235  1  0.39979013  0.20869308  0.40330102  1
  Rh  Rh236  1  0.79521722  0.60292034  0.00070932  1
  Rh  Rh237  1  0.79626900  0.39448577  0.39510339  1
  Rh  Rh238  1  0.80600074  0.00476359  0.40023345  1
  Rh  Rh239  1  0.60299662  0.40417253  0.39950457  1
  Rh  Rh240  1  0.00398101  0.79313990  0.40135901  1
  Rh  Rh241  1  0.60055773  0.79087769  -0.01341960  1
  Rh  Rh242  1  -0.00012772  0.19994377  0.59990844  1
  Rh  Rh243  1  0.59572155  0.19122535  0.20234274  1
  Rh  Rh244  1  0.80118525  0.60403101  0.40959797  1
  Rh  Rh245  1  0.20013041  0.40111799  0.39940564  1
  Rh  Rh246  1  0.20155783  0.19525767  -0.01442402  1
  Rh  Rh247  1  0.40133093  0.60639586  -0.00185348  1
  Rh  Rh248  1  -0.00722845  0.79089586  0.00250737  1
  Rh  Rh249  1  -0.00521606  0.19186487  0.79414488  1
