# generated using pymatgen
data_ZrScNbPdRh
_symmetry_space_group_name_H-M   'P 1'
_cell_length_a   16.56178570
_cell_length_b   16.55930818
_cell_length_c   16.56247772
_cell_angle_alpha   90.02730383
_cell_angle_beta   89.98589349
_cell_angle_gamma   89.97718739
_symmetry_Int_Tables_number   1
_chemical_formula_structural   ZrScNbPdRh
_chemical_formula_sum   'Zr50 Sc50 Nb50 Pd50 Rh50'
_cell_volume   4542.28688151
_cell_formula_units_Z   50
loop_
 _symmetry_equiv_pos_site_id
 _symmetry_equiv_pos_as_xyz
  1  'x, y, z'
loop_
 _atom_site_type_symbol
 _atom_site_label
 _atom_site_symmetry_multiplicity
 _atom_site_fract_x
 _atom_site_fract_y
 _atom_site_fract_z
 _atom_site_occupancy
  Zr  Zr0  1  0.49855052  0.10334667  0.49167322  1
  Zr  Zr1  1  0.70305619  0.30392442  0.30795200  1
  Zr  Zr2  1  0.70408163  0.69317120  0.09836291  1
  Zr  Zr3  1  0.69752756  0.30741357  0.69691075  1
  Zr  Zr4  1  0.30391688  0.89830199  0.90265074  1
  Zr  Zr5  1  0.69780448  0.89236588  0.49259488  1
  Zr  Zr6  1  0.50480625  0.89976530  0.49968642  1
  Zr  Zr7  1  0.09443883  0.50139510  0.69122699  1
  Zr  Zr8  1  0.30322350  0.10210310  0.50260912  1
  Zr  Zr9  1  0.10396475  0.69660030  0.70263402  1
  Zr  Zr10  1  0.49810675  0.50353923  0.30007602  1
  Zr  Zr11  1  0.70471219  0.09134559  0.70249793  1
  Zr  Zr12  1  0.70105316  0.49865187  0.29642985  1
  Zr  Zr13  1  0.29605566  0.89960235  0.49707209  1
  Zr  Zr14  1  0.50157250  0.30305607  0.09975484  1
  Zr  Zr15  1  0.89797710  0.29993774  0.50173841  1
  Zr  Zr16  1  0.89957569  0.50116046  0.30185689  1
  Zr  Zr17  1  0.90350241  0.29581228  0.10554236  1
  Zr  Zr18  1  0.69867127  0.89371893  0.10042426  1
  Zr  Zr19  1  0.30300828  0.90676950  0.10005271  1
  Zr  Zr20  1  0.70761624  0.70564228  0.31215572  1
  Zr  Zr21  1  0.28144706  0.29715459  0.29850660  1
  Zr  Zr22  1  0.90802532  0.29600335  0.30354643  1
  Zr  Zr23  1  0.09501395  0.49929203  0.88369678  1
  Zr  Zr24  1  0.30078400  0.90487289  0.29334321  1
  Zr  Zr25  1  0.49857322  0.90210148  0.10897040  1
  Zr  Zr26  1  0.10149051  0.69137497  0.50227250  1
  Zr  Zr27  1  0.10108165  0.88710646  0.70663265  1
  Zr  Zr28  1  0.30913111  0.49953266  0.68807389  1
  Zr  Zr29  1  0.70471881  0.09751241  0.10256851  1
  Zr  Zr30  1  0.30033366  0.50745682  0.90446299  1
  Zr  Zr31  1  0.90097828  0.10008401  0.30282887  1
  Zr  Zr32  1  0.90422184  0.29995538  0.69469100  1
  Zr  Zr33  1  0.89969174  0.89666360  0.10030678  1
  Zr  Zr34  1  0.30140057  0.29805771  0.49419479  1
  Zr  Zr35  1  0.89822969  0.09268950  0.91024062  1
  Zr  Zr36  1  0.29669929  0.30772194  0.90551006  1
  Zr  Zr37  1  0.69567482  0.88510860  0.69945953  1
  Zr  Zr38  1  0.10454449  0.90723997  0.09691418  1
  Zr  Zr39  1  0.89169345  0.51151211  0.10383240  1
  Zr  Zr40  1  0.09144689  0.70323066  0.29766910  1
  Zr  Zr41  1  0.29392866  0.10276783  0.69445316  1
  Zr  Zr42  1  0.09303196  0.69995834  0.10298601  1
  Zr  Zr43  1  0.30941798  0.69861215  0.70653519  1
  Zr  Zr44  1  0.29639764  0.09962906  0.10569799  1
  Zr  Zr45  1  0.30311862  0.50896343  0.09915222  1
  Zr  Zr46  1  0.50799172  0.50654991  0.10087669  1
  Zr  Zr47  1  0.90267111  0.10176187  0.49816776  1
  Zr  Zr48  1  0.90283934  0.29697909  0.90498721  1
  Zr  Zr49  1  0.70355862  0.09544564  0.90343855  1
  Sc  Sc50  1  0.69967172  0.09307832  0.49841931  1
  Sc  Sc51  1  0.49962212  0.70086721  0.09955458  1
  Sc  Sc52  1  0.30827278  0.68936549  0.30140992  1
  Sc  Sc53  1  0.89776274  0.70185142  0.10991434  1
  Sc  Sc54  1  0.29638351  0.29670561  0.69519359  1
  Sc  Sc55  1  0.89892740  0.10548202  0.09834414  1
  Sc  Sc56  1  0.49550597  0.09086215  0.90865439  1
  Sc  Sc57  1  0.70536149  0.69898401  0.50733472  1
  Sc  Sc58  1  0.49784037  0.89294264  0.90986343  1
  Sc  Sc59  1  0.50102268  0.09733578  0.11023898  1
  Sc  Sc60  1  0.29952488  0.69881904  0.50416032  1
  Sc  Sc61  1  0.50656414  0.30047194  0.49633522  1
  Sc  Sc62  1  0.69947080  0.90007768  0.30405080  1
  Sc  Sc63  1  0.49072486  0.49879806  0.50402085  1
  Sc  Sc64  1  0.29689391  0.89275397  0.69009941  1
  Sc  Sc65  1  0.09376090  0.09456777  0.50386685  1
  Sc  Sc66  1  0.50615614  0.31362786  0.69074861  1
  Sc  Sc67  1  0.09182928  0.30214782  0.48876667  1
  Sc  Sc68  1  0.71183731  0.50051053  0.49900234  1
  Sc  Sc69  1  0.50910219  0.29099742  0.30144946  1
  Sc  Sc70  1  0.09989516  0.90039679  0.30647205  1
  Sc  Sc71  1  0.89982099  0.09600362  0.68825787  1
  Sc  Sc72  1  0.69948592  0.29860812  0.11185868  1
  Sc  Sc73  1  0.10429460  0.89680278  0.49600155  1
  Sc  Sc74  1  0.50242147  0.50876179  0.69579200  1
  Sc  Sc75  1  0.89740321  0.89355127  0.30321096  1
  Sc  Sc76  1  0.10416496  0.49010249  0.30795226  1
  Sc  Sc77  1  0.49720365  0.70507370  0.29995266  1
  Sc  Sc78  1  0.70083515  0.70158764  0.89438165  1
  Sc  Sc79  1  0.10559311  0.29877737  0.90347734  1
  Sc  Sc80  1  0.69342516  0.50674185  0.90447366  1
  Sc  Sc81  1  0.50549799  0.49774065  0.90881229  1
  Sc  Sc82  1  0.70014269  0.10028891  0.29945456  1
  Sc  Sc83  1  0.71009749  0.89891320  0.90118463  1
  Sc  Sc84  1  0.49612444  0.70122187  0.49877503  1
  Sc  Sc85  1  0.88949089  0.89749418  0.70433391  1
  Sc  Sc86  1  0.90298118  0.90915958  0.49454427  1
  Sc  Sc87  1  0.89845087  0.70107830  0.29813842  1
  Sc  Sc88  1  0.89518684  0.68857228  0.49512186  1
  Sc  Sc89  1  0.29608544  0.10572835  0.29837093  1
  Sc  Sc90  1  0.10234240  0.29729298  0.10235637  1
  Sc  Sc91  1  0.29476762  0.10284980  0.90681603  1
  Sc  Sc92  1  0.88938941  0.69699136  0.70172409  1
  Sc  Sc93  1  0.10028743  0.50775761  0.10779410  1
  Sc  Sc94  1  0.09970344  0.30119614  0.70166105  1
  Sc  Sc95  1  0.29999132  0.51104380  0.49324213  1
  Sc  Sc96  1  0.50074037  0.09931180  0.68366570  1
  Sc  Sc97  1  0.10151968  0.10113251  0.09069289  1
  Sc  Sc98  1  0.90678784  0.50112920  0.70052937  1
  Sc  Sc99  1  0.69667756  0.51043040  0.69957166  1
  Nb  Nb100  1  0.30212093  0.69865294  0.90208696  1
  Nb  Nb101  1  0.90135063  0.69787011  0.89398789  1
  Nb  Nb102  1  0.49958769  0.90147510  0.30237726  1
  Nb  Nb103  1  0.69075062  0.70249206  0.69904449  1
  Nb  Nb104  1  0.10003006  0.89810940  0.89965277  1
  Nb  Nb105  1  0.91344587  0.50097077  0.50654011  1
  Nb  Nb106  1  0.69898359  0.50499385  0.09766283  1
  Nb  Nb107  1  0.50557245  0.30535361  0.89873200  1
  Nb  Nb108  1  0.50036392  0.09922933  0.30401260  1
  Nb  Nb109  1  0.90201261  0.89574765  0.89778207  1
  Nb  Nb110  1  0.09814078  0.09935325  0.70565418  1
  Nb  Nb111  1  0.09695686  0.09340307  0.90412962  1
  Nb  Nb112  1  0.29322798  0.69338541  0.09386211  1
  Nb  Nb113  1  0.09790737  0.50156146  0.50333206  1
  Nb  Nb114  1  0.09646162  0.10615778  0.29535462  1
  Nb  Nb115  1  0.30444670  0.49538740  0.29792855  1
  Nb  Nb116  1  0.89833472  0.50151408  0.89810121  1
  Nb  Nb117  1  0.50247110  0.89190351  0.70450332  1
  Nb  Nb118  1  0.09436266  0.29407528  0.29883604  1
  Nb  Nb119  1  0.51177963  0.71156751  0.70751260  1
  Nb  Nb120  1  0.29892969  0.29888455  0.09874033  1
  Nb  Nb121  1  0.69309077  0.30715625  0.89656809  1
  Nb  Nb122  1  0.10082418  0.70520596  0.88823620  1
  Nb  Nb123  1  0.70100547  0.30764370  0.49948160  1
  Nb  Nb124  1  0.48422864  0.70640929  0.88712334  1
  Nb  Nb125  1  0.19682356  0.40485552  0.58970367  1
  Nb  Nb126  1  0.79830596  0.40513999  0.00032033  1
  Nb  Nb127  1  0.40239566  0.20757253  0.00018691  1
  Nb  Nb128  1  0.59325911  -0.00322900  0.79676730  1
  Nb  Nb129  1  0.00256796  0.79700931  -0.01154670  1
  Nb  Nb130  1  0.00044988  0.79514754  0.60131648  1
  Nb  Nb131  1  0.59829504  0.20428456  -0.00513548  1
  Nb  Nb132  1  0.19600784  -0.00002772  0.80114763  1
  Nb  Nb133  1  0.00116749  0.00252836  0.20136457  1
  Nb  Nb134  1  0.39457270  0.39778450  0.38947293  1
  Nb  Nb135  1  0.20431394  0.79567828  0.19333660  1
  Nb  Nb136  1  0.79847825  0.20361854  0.80122713  1
  Nb  Nb137  1  0.79924593  0.39897130  0.80619624  1
  Nb  Nb138  1  0.40354179  -0.00020635  0.39680721  1
  Nb  Nb139  1  -0.00629700  0.40995510  -0.00029547  1
  Nb  Nb140  1  0.60227600  0.59800260  0.39920881  1
  Nb  Nb141  1  -0.00320386  0.60422866  -0.01200925  1
  Nb  Nb142  1  0.40181975  0.39720536  0.80383284  1
  Nb  Nb143  1  0.40818405  0.20313938  0.80446104  1
  Nb  Nb144  1  0.19888039  0.79166193  -0.00366065  1
  Nb  Nb145  1  -0.00058268  0.18937749  0.80270721  1
  Nb  Nb146  1  0.39357012  0.39797612  0.19980662  1
  Nb  Nb147  1  0.00282210  -0.00174126  0.80505348  1
  Nb  Nb148  1  0.59825135  0.19768148  0.80275390  1
  Nb  Nb149  1  0.39959915  0.00139534  0.79280334  1
  Pd  Pd150  1  0.18893798  0.19142410  0.40686405  1
  Pd  Pd151  1  0.39899784  0.20490913  0.20187052  1
  Pd  Pd152  1  0.40437892  0.79744324  0.60056497  1
  Pd  Pd153  1  0.80827081  0.40418069  0.40356166  1
  Pd  Pd154  1  0.60345649  0.79474350  0.20601274  1
  Pd  Pd155  1  0.60466376  0.61117652  0.20904118  1
  Pd  Pd156  1  0.80156300  0.39778019  0.19639806  1
  Pd  Pd157  1  0.20860338  0.40426563  0.78679219  1
  Pd  Pd158  1  0.79445362  0.19690951  0.40265391  1
  Pd  Pd159  1  0.80936752  0.79797886  0.59368490  1
  Pd  Pd160  1  0.59777953  0.60284098  0.58895070  1
  Pd  Pd161  1  0.59971259  -0.00087892  -0.00181970  1
  Pd  Pd162  1  0.78850423  0.21050449  -0.00027153  1
  Pd  Pd163  1  0.20246196  0.00894236  0.39649467  1
  Pd  Pd164  1  0.61102617  0.19839046  0.40414664  1
  Pd  Pd165  1  0.00383357  -0.01288162  0.60858722  1
  Pd  Pd166  1  0.59360738  0.61414472  -0.01028570  1
  Pd  Pd167  1  0.19989106  0.40130783  0.19314823  1
  Pd  Pd168  1  0.79171370  0.19900454  0.59953327  1
  Pd  Pd169  1  0.60423546  0.41339802  0.59085617  1
  Pd  Pd170  1  -0.00564011  0.79814537  0.41079091  1
  Pd  Pd171  1  0.60304231  -0.00546237  0.60253233  1
  Pd  Pd172  1  0.39648219  0.80468797  0.39900330  1
  Pd  Pd173  1  0.79554430  0.59608845  0.79745524  1
  Pd  Pd174  1  0.59317374  0.60065872  0.80718600  1
  Pd  Pd175  1  0.80202594  0.41110845  0.60720594  1
  Pd  Pd176  1  0.59834783  0.79348616  -0.00506247  1
  Pd  Pd177  1  0.20585811  0.59550611  0.79390919  1
  Pd  Pd178  1  0.18807132  0.40914234  0.00821139  1
  Pd  Pd179  1  0.80604908  -0.00347261  0.20282017  1
  Pd  Pd180  1  0.39346691  0.79161013  0.19437979  1
  Pd  Pd181  1  0.19062516  -0.00405537  0.60423377  1
  Pd  Pd182  1  0.60646899  0.19996650  0.60040124  1
  Pd  Pd183  1  0.40151601  -0.00664856  0.59877657  1
  Pd  Pd184  1  0.19930850  0.60009620  0.39339311  1
  Pd  Pd185  1  0.79720350  -0.01034493  0.59425727  1
  Pd  Pd186  1  0.39723054  0.79336242  0.00928194  1
  Pd  Pd187  1  0.00070836  0.59737400  0.39463665  1
  Pd  Pd188  1  0.40118246  0.40183773  0.00255897  1
  Pd  Pd189  1  0.00345564  0.40452876  0.19646947  1
  Pd  Pd190  1  0.19840908  0.60354083  0.21174028  1
  Pd  Pd191  1  0.40845260  0.58918983  0.80190175  1
  Pd  Pd192  1  0.18619928  0.20859991  0.59104395  1
  Pd  Pd193  1  0.40832291  0.21067458  0.60575879  1
  Pd  Pd194  1  0.80673889  0.79242748  -0.00192452  1
  Pd  Pd195  1  0.19807930  0.19595372  0.80660866  1
  Pd  Pd196  1  0.60302147  -0.00022885  0.20689749  1
  Pd  Pd197  1  0.18579189  0.60094448  -0.00762137  1
  Pd  Pd198  1  0.59721884  0.39907166  0.20141264  1
  Pd  Pd199  1  0.20575841  0.79073286  0.39108857  1
  Rh  Rh200  1  0.80266042  0.60138864  -0.00354380  1
  Rh  Rh201  1  0.40086245  0.60014357  0.19492077  1
  Rh  Rh202  1  -0.00320987  0.40286193  0.40073953  1
  Rh  Rh203  1  0.21372673  0.80197090  0.80549828  1
  Rh  Rh204  1  -0.00737821  -0.00852324  0.00304445  1
  Rh  Rh205  1  0.18797013  0.00001464  0.20757291  1
  Rh  Rh206  1  -0.00076120  0.59416932  0.20629816  1
  Rh  Rh207  1  0.00634385  0.39520990  0.59406347  1
  Rh  Rh208  1  0.20319510  0.40327326  0.40625684  1
  Rh  Rh209  1  0.19205304  0.19840939  0.19467929  1
  Rh  Rh210  1  0.79990658  0.20247561  0.20825131  1
  Rh  Rh211  1  0.59609813  -0.00015530  0.39449971  1
  Rh  Rh212  1  0.20673048  -0.00188926  -0.00682690  1
  Rh  Rh213  1  0.60393494  0.19417476  0.19858010  1
  Rh  Rh214  1  0.00436679  0.20126150  0.60397949  1
  Rh  Rh215  1  -0.00541145  0.38876246  0.80483962  1
  Rh  Rh216  1  -0.00327306  0.60463650  0.79572026  1
  Rh  Rh217  1  0.39563710  0.80869577  0.79597794  1
  Rh  Rh218  1  0.00232336  0.19617392  0.40416379  1
  Rh  Rh219  1  0.20461315  0.59635604  0.60314120  1
  Rh  Rh220  1  0.40125555  0.20137288  0.39181080  1
  Rh  Rh221  1  0.80433729  0.00279000  0.80098456  1
  Rh  Rh222  1  0.61134436  0.39674444  0.01099224  1
  Rh  Rh223  1  0.39074562  0.39419626  0.59260300  1
  Rh  Rh224  1  0.40857291  0.60624243  -0.00300477  1
  Rh  Rh225  1  -0.01129792  0.80200528  0.79576863  1
  Rh  Rh226  1  0.80250438  0.59662530  0.60384114  1
  Rh  Rh227  1  0.80672290  0.80179465  0.40619449  1
  Rh  Rh228  1  0.80162504  -0.00918056  0.00693114  1
  Rh  Rh229  1  0.79212589  0.79988253  0.20183839  1
  Rh  Rh230  1  0.19427490  0.79325827  0.59445017  1
  Rh  Rh231  1  0.40711114  0.61383608  0.60371887  1
  Rh  Rh232  1  -0.00648460  0.60894093  0.60359323  1
  Rh  Rh233  1  0.79962267  0.59366330  0.40086363  1
  Rh  Rh234  1  0.79898302  0.00015677  0.39935740  1
  Rh  Rh235  1  0.79691676  0.79442823  0.79996053  1
  Rh  Rh236  1  0.59457189  0.40830402  0.40579975  1
  Rh  Rh237  1  0.59895747  0.40612404  0.79254428  1
  Rh  Rh238  1  0.20322931  0.19864256  0.00191239  1
  Rh  Rh239  1  0.00919620  0.81328957  0.19609176  1
  Rh  Rh240  1  0.40548049  0.00612595  0.20916573  1
  Rh  Rh241  1  0.59743736  0.79171046  0.40049137  1
  Rh  Rh242  1  0.00388184  0.19208204  0.19402412  1
  Rh  Rh243  1  0.00365075  0.00293287  0.39186309  1
  Rh  Rh244  1  0.60303759  0.80655400  0.81241597  1
  Rh  Rh245  1  0.40648817  0.59526686  0.40145505  1
  Rh  Rh246  1  0.39698990  0.00696762  0.00264550  1
  Rh  Rh247  1  0.79498182  0.60512560  0.20696639  1
  Rh  Rh248  1  0.00901489  0.20738172  -0.00122738  1
  Rh  Rh249  1  0.59722912  0.79375716  0.59292532  1
