# generated using pymatgen
data_ZrScNbPdRh
_symmetry_space_group_name_H-M   'P 1'
_cell_length_a   16.55060930
_cell_length_b   16.55600138
_cell_length_c   16.55422664
_cell_angle_alpha   89.98478905
_cell_angle_beta   89.96611574
_cell_angle_gamma   89.95785877
_symmetry_Int_Tables_number   1
_chemical_formula_structural   ZrScNbPdRh
_chemical_formula_sum   'Zr50 Sc50 Nb50 Pd50 Rh50'
_cell_volume   4536.05308462
_cell_formula_units_Z   50
loop_
 _symmetry_equiv_pos_site_id
 _symmetry_equiv_pos_as_xyz
  1  'x, y, z'
loop_
 _atom_site_type_symbol
 _atom_site_label
 _atom_site_symmetry_multiplicity
 _atom_site_fract_x
 _atom_site_fract_y
 _atom_site_fract_z
 _atom_site_occupancy
  Zr  Zr0  1  0.49527060  0.89945003  0.49946148  1
  Zr  Zr1  1  0.69906864  0.69380563  0.69787676  1
  Zr  Zr2  1  0.69833265  0.29513540  0.29108693  1
  Zr  Zr3  1  0.50087215  0.69186400  0.10456469  1
  Zr  Zr4  1  0.30064563  0.70229930  0.28831002  1
  Zr  Zr5  1  0.31246462  0.69756631  0.70105733  1
  Zr  Zr6  1  0.90023346  0.89599783  0.70564814  1
  Zr  Zr7  1  0.50658952  0.49594511  0.09413246  1
  Zr  Zr8  1  0.89592997  0.09943984  0.29614600  1
  Zr  Zr9  1  0.69434552  0.89842561  0.69974572  1
  Zr  Zr10  1  0.10709170  0.10269148  0.70240127  1
  Zr  Zr11  1  0.49618118  0.89674535  0.30136975  1
  Zr  Zr12  1  0.90018488  0.30531032  0.90170196  1
  Zr  Zr13  1  0.10144686  0.50279190  0.89806145  1
  Zr  Zr14  1  0.71131924  0.48835507  0.29133292  1
  Zr  Zr15  1  0.90022557  0.90248047  0.09442307  1
  Zr  Zr16  1  0.10307288  0.30346828  0.29573865  1
  Zr  Zr17  1  0.89504046  0.09615559  0.10163137  1
  Zr  Zr18  1  0.69559956  0.70740483  0.30077398  1
  Zr  Zr19  1  0.10383269  0.69682399  0.90614577  1
  Zr  Zr20  1  0.10117679  0.09874190  0.29984613  1
  Zr  Zr21  1  0.90198032  0.89754443  0.30180307  1
  Zr  Zr22  1  0.70030798  0.69398817  0.09734033  1
  Zr  Zr23  1  0.10115671  0.30527477  0.90409150  1
  Zr  Zr24  1  0.10152417  0.69942935  0.09461564  1
  Zr  Zr25  1  0.30159784  0.10376009  0.89739522  1
  Zr  Zr26  1  0.49406420  0.29449791  0.50567030  1
  Zr  Zr27  1  0.49854567  0.10395628  0.50561803  1
  Zr  Zr28  1  0.30896651  0.49581056  0.09417804  1
  Zr  Zr29  1  0.70290548  0.89636275  0.09807380  1
  Zr  Zr30  1  0.49300936  0.69532025  0.30014619  1
  Zr  Zr31  1  0.10966986  0.90005384  0.49427947  1
  Zr  Zr32  1  0.89052791  0.31860816  0.29991620  1
  Zr  Zr33  1  0.89830355  0.10226151  0.69346766  1
  Zr  Zr34  1  0.89866167  0.10633699  0.50404040  1
  Zr  Zr35  1  0.30044966  0.49715022  0.50412285  1
  Zr  Zr36  1  0.10286117  0.89594033  0.30756391  1
  Zr  Zr37  1  0.69341887  0.11092349  0.70077707  1
  Zr  Zr38  1  0.10157551  0.69587484  0.29630150  1
  Zr  Zr39  1  0.90013287  0.30276508  0.50190707  1
  Zr  Zr40  1  0.69886388  0.70054792  0.50439537  1
  Zr  Zr41  1  0.89200693  0.50229659  0.10015251  1
  Zr  Zr42  1  0.09034221  0.69770812  0.70500614  1
  Zr  Zr43  1  0.10282765  0.30275658  0.70048938  1
  Zr  Zr44  1  0.89640536  0.29962014  0.09483581  1
  Zr  Zr45  1  0.30514051  0.10640077  0.49670637  1
  Zr  Zr46  1  0.49525956  0.49928671  0.69649485  1
  Zr  Zr47  1  0.49619282  0.49527892  0.90311000  1
  Zr  Zr48  1  0.29874238  0.30020583  0.90853854  1
  Zr  Zr49  1  0.30163387  0.10411425  0.29348635  1
  Sc  Sc50  1  0.10616184  0.49837552  0.49385009  1
  Sc  Sc51  1  0.30623175  0.29857172  0.29669993  1
  Sc  Sc52  1  0.69406703  0.30085146  0.10013682  1
  Sc  Sc53  1  0.89670345  0.89712752  0.90974358  1
  Sc  Sc54  1  0.30109329  0.29670157  0.69952700  1
  Sc  Sc55  1  0.70006187  0.50391908  0.70661588  1
  Sc  Sc56  1  0.29681298  0.30282771  0.50732090  1
  Sc  Sc57  1  0.10632291  0.31184098  0.50507828  1
  Sc  Sc58  1  0.70623769  0.70146854  0.90521376  1
  Sc  Sc59  1  0.70200169  0.10524007  0.10038862  1
  Sc  Sc60  1  0.09745205  0.89721820  0.90607267  1
  Sc  Sc61  1  0.10506864  0.90164915  0.69059906  1
  Sc  Sc62  1  0.90523927  0.49977169  0.49763509  1
  Sc  Sc63  1  0.70654984  0.50872317  0.50902678  1
  Sc  Sc64  1  0.29725758  0.68788554  0.89676204  1
  Sc  Sc65  1  0.09871777  0.70478298  0.49733992  1
  Sc  Sc66  1  0.49723374  0.69598912  0.51372148  1
  Sc  Sc67  1  0.29686530  0.51157090  0.30811900  1
  Sc  Sc68  1  0.90097154  0.49823890  0.90353392  1
  Sc  Sc69  1  0.29613991  0.10556397  0.70194232  1
  Sc  Sc70  1  0.90666053  0.69799898  0.50330760  1
  Sc  Sc71  1  0.31096562  0.10495027  0.09998552  1
  Sc  Sc72  1  0.29847509  0.89936030  0.90125844  1
  Sc  Sc73  1  0.09122292  0.10672678  0.10511492  1
  Sc  Sc74  1  0.30736742  0.90297668  0.09898681  1
  Sc  Sc75  1  0.50218245  0.90771254  0.09523126  1
  Sc  Sc76  1  0.69545590  0.90127611  0.90990080  1
  Sc  Sc77  1  0.09605070  0.50499889  0.09000625  1
  Sc  Sc78  1  0.30295881  0.69114823  0.48889782  1
  Sc  Sc79  1  0.49759490  0.30301042  0.10028289  1
  Sc  Sc80  1  0.50158381  0.09773615  0.09990627  1
  Sc  Sc81  1  0.09865676  0.49738113  0.70854919  1
  Sc  Sc82  1  0.70778169  0.29383461  0.49708467  1
  Sc  Sc83  1  0.30219405  0.49738004  0.70559134  1
  Sc  Sc84  1  0.90151581  0.51176962  0.70612138  1
  Sc  Sc85  1  0.49058717  0.10279628  0.29906567  1
  Sc  Sc86  1  0.90212989  0.90350558  0.49749359  1
  Sc  Sc87  1  0.69795591  0.30188907  0.89221297  1
  Sc  Sc88  1  0.89562171  0.09993353  0.91403236  1
  Sc  Sc89  1  0.50084656  0.29056588  0.70454319  1
  Sc  Sc90  1  0.49968871  0.30067136  0.28659111  1
  Sc  Sc91  1  0.09817838  0.30055680  0.09694299  1
  Sc  Sc92  1  0.10201365  0.09473470  0.50499305  1
  Sc  Sc93  1  0.90013781  0.30057798  0.70364828  1
  Sc  Sc94  1  0.50184160  0.29885560  0.89543789  1
  Sc  Sc95  1  0.70651226  0.09810837  0.50065935  1
  Sc  Sc96  1  0.50565676  0.09876230  0.90306961  1
  Sc  Sc97  1  0.09667868  0.89196672  0.09345551  1
  Sc  Sc98  1  0.49365334  0.50021251  0.28514319  1
  Sc  Sc99  1  0.48830348  0.88547573  0.68930453  1
  Nb  Nb100  1  0.49558162  0.69817618  0.89710136  1
  Nb  Nb101  1  0.69492561  0.09415393  0.89536685  1
  Nb  Nb102  1  0.69698397  0.49922583  0.08637609  1
  Nb  Nb103  1  0.29728481  0.30281908  0.10418493  1
  Nb  Nb104  1  0.49961026  0.49850238  0.50104079  1
  Nb  Nb105  1  0.90526036  0.70301907  0.89176872  1
  Nb  Nb106  1  0.29520517  0.49738759  0.90200481  1
  Nb  Nb107  1  0.49878081  0.90358092  0.90358947  1
  Nb  Nb108  1  0.49997658  0.69594750  0.70335182  1
  Nb  Nb109  1  0.68985709  0.49569067  0.90903490  1
  Nb  Nb110  1  0.90346041  0.50355034  0.29919055  1
  Nb  Nb111  1  0.69924178  0.10065012  0.29851127  1
  Nb  Nb112  1  0.69861023  0.89963130  0.31321167  1
  Nb  Nb113  1  0.69562223  0.30305909  0.70114471  1
  Nb  Nb114  1  0.10517037  0.09938538  0.89743646  1
  Nb  Nb115  1  0.29578120  0.70374717  0.09307657  1
  Nb  Nb116  1  0.69398009  0.89508481  0.49762362  1
  Nb  Nb117  1  0.29970555  0.90371426  0.30285468  1
  Nb  Nb118  1  0.29962618  0.89594265  0.69691505  1
  Nb  Nb119  1  0.10255137  0.49747511  0.29956667  1
  Nb  Nb120  1  0.90400943  0.69758350  0.29565081  1
  Nb  Nb121  1  0.89425295  0.70172657  0.70667881  1
  Nb  Nb122  1  0.90251824  0.70067560  0.09833567  1
  Nb  Nb123  1  0.50198326  0.10039691  0.70181278  1
  Nb  Nb124  1  0.29983904  0.90145231  0.50147613  1
  Nb  Nb125  1  0.59865015  0.40100657  0.40332548  1
  Nb  Nb126  1  0.59365538  0.60304583  0.80559157  1
  Nb  Nb127  1  -0.00202585  0.00610100  0.80238373  1
  Nb  Nb128  1  0.40344921  0.79494512  -0.00437905  1
  Nb  Nb129  1  0.20004576  0.60220937  0.60426628  1
  Nb  Nb130  1  0.59642415  -0.00156098  0.59958840  1
  Nb  Nb131  1  0.00404336  0.19443801  0.80459154  1
  Nb  Nb132  1  0.20372843  0.79898664  0.79458902  1
  Nb  Nb133  1  0.80385282  0.60181759  0.38951071  1
  Nb  Nb134  1  0.58922620  0.79541529  0.80301154  1
  Nb  Nb135  1  0.80327135  0.79644812  0.20381791  1
  Nb  Nb136  1  0.20265501  -0.00264896  0.20022256  1
  Nb  Nb137  1  0.60298409  0.39630907  0.59912153  1
  Nb  Nb138  1  0.60788220  -0.00297931  0.21248218  1
  Nb  Nb139  1  0.60122063  0.59228119  0.39882813  1
  Nb  Nb140  1  0.79769225  0.00399742  0.80126870  1
  Nb  Nb141  1  0.19620474  0.20081541  0.39700743  1
  Nb  Nb142  1  0.79668663  0.39930336  0.60543899  1
  Nb  Nb143  1  0.79898435  0.79879649  0.60330575  1
  Nb  Nb144  1  0.00106951  0.20563854  0.39848315  1
  Nb  Nb145  1  0.40726121  0.40222870  0.40285624  1
  Nb  Nb146  1  0.19929110  0.00594315  0.00297913  1
  Nb  Nb147  1  0.40361050  -0.00467660  0.79597769  1
  Nb  Nb148  1  0.60032966  0.20187314  0.39560294  1
  Nb  Nb149  1  0.20024927  0.40483437  0.19962835  1
  Pd  Pd150  1  0.60685157  0.59110507  0.20559971  1
  Pd  Pd151  1  0.00922876  0.20486802  0.59816660  1
  Pd  Pd152  1  0.19820078  0.19373652  0.00925345  1
  Pd  Pd153  1  0.59222907  0.79431465  -0.00328921  1
  Pd  Pd154  1  0.78904515  0.80664827  0.80299791  1
  Pd  Pd155  1  0.39775250  0.79512581  0.40499532  1
  Pd  Pd156  1  0.79706064  0.60500469  0.20152394  1
  Pd  Pd157  1  0.80102207  0.19972863  0.39464902  1
  Pd  Pd158  1  0.00379335  0.59422364  0.19631680  1
  Pd  Pd159  1  0.40714766  0.20415417  0.00144243  1
  Pd  Pd160  1  0.20948981  0.00357388  0.59802601  1
  Pd  Pd161  1  0.00517001  0.40661825  0.19148440  1
  Pd  Pd162  1  0.60117000  0.20135392  -0.00379078  1
  Pd  Pd163  1  0.78824446  0.20270527  -0.00428322  1
  Pd  Pd164  1  0.80040337  0.00023381  0.40305975  1
  Pd  Pd165  1  -0.01092734  0.20874099  0.20594600  1
  Pd  Pd166  1  0.19994876  -0.01079486  0.80482923  1
  Pd  Pd167  1  0.80656575  0.60328692  -0.00963635  1
  Pd  Pd168  1  -0.00525030  0.80473751  0.59667326  1
  Pd  Pd169  1  0.79232231  -0.00839557  0.20325182  1
  Pd  Pd170  1  0.00940664  -0.00861707  0.19600823  1
  Pd  Pd171  1  0.00208716  0.19679318  -0.00489254  1
  Pd  Pd172  1  0.79906155  0.40855129  0.79834165  1
  Pd  Pd173  1  0.20872205  0.79316375  0.39947650  1
  Pd  Pd174  1  0.58697744  0.78912470  0.40684161  1
  Pd  Pd175  1  0.00174753  0.60069545  0.39940460  1
  Pd  Pd176  1  0.39746972  0.60301016  -0.00016507  1
  Pd  Pd177  1  0.60119322  0.80789935  0.19884322  1
  Pd  Pd178  1  0.39759924  0.39489566  0.80119356  1
  Pd  Pd179  1  0.79352753  0.59385481  0.81171742  1
  Pd  Pd180  1  0.00237004  -0.00558904  0.60194201  1
  Pd  Pd181  1  0.00811018  0.80837980  0.80411703  1
  Pd  Pd182  1  0.80446230  0.19571321  0.80380368  1
  Pd  Pd183  1  0.00550294  0.59482343  0.59991915  1
  Pd  Pd184  1  0.20708430  0.78910911  0.60151618  1
  Pd  Pd185  1  0.00374851  0.39894060  0.40091092  1
  Pd  Pd186  1  0.20220719  0.80984889  0.19332819  1
  Pd  Pd187  1  0.79159487  -0.00758964  0.60207596  1
  Pd  Pd188  1  -0.00187607  0.80148486  0.19774448  1
  Pd  Pd189  1  0.39883898  0.00410555  0.60843404  1
  Pd  Pd190  1  0.59396146  -0.00936888  0.79406831  1
  Pd  Pd191  1  0.80996196  0.79329688  0.40484772  1
  Pd  Pd192  1  0.39686482  0.00111593  0.39864704  1
  Pd  Pd193  1  -0.00283089  0.00704170  0.40485177  1
  Pd  Pd194  1  0.40119205  0.80483954  0.18941907  1
  Pd  Pd195  1  0.20707661  0.39662819  0.79948092  1
  Pd  Pd196  1  0.59769917  0.00980460  0.40169729  1
  Pd  Pd197  1  0.39793590  0.80527167  0.80756427  1
  Pd  Pd198  1  0.20320827  0.59189693  0.19076478  1
  Pd  Pd199  1  -0.00502895  0.41005257  0.60728685  1
  Rh  Rh200  1  0.60496717  0.00556085  0.01081789  1
  Rh  Rh201  1  0.20982821  0.00644533  0.39587250  1
  Rh  Rh202  1  0.39971076  0.21117821  0.39804521  1
  Rh  Rh203  1  0.40220160  -0.00424035  0.20316244  1
  Rh  Rh204  1  0.60259544  0.80392626  0.60346049  1
  Rh  Rh205  1  -0.00199293  0.40481826  0.00325242  1
  Rh  Rh206  1  -0.00911943  0.60405671  -0.00406353  1
  Rh  Rh207  1  0.21196758  0.39483133  0.38867765  1
  Rh  Rh208  1  0.60252992  0.40496972  0.19646615  1
  Rh  Rh209  1  0.39378666  -0.00231162  -0.01092348  1
  Rh  Rh210  1  0.19602508  0.21148018  0.80238855  1
  Rh  Rh211  1  -0.00661767  0.79206092  -0.00395388  1
  Rh  Rh212  1  0.81286148  0.60188805  0.59558390  1
  Rh  Rh213  1  0.21067882  0.80437729  -0.00448480  1
  Rh  Rh214  1  0.59944989  0.38921674  -0.00104947  1
  Rh  Rh215  1  0.59805749  0.40753767  0.79541952  1
  Rh  Rh216  1  0.20580119  0.59469100  0.00233692  1
  Rh  Rh217  1  0.39051771  0.40368222  0.20405501  1
  Rh  Rh218  1  0.59891209  0.60417282  -0.00718319  1
  Rh  Rh219  1  0.59792867  0.20099365  0.80564721  1
  Rh  Rh220  1  0.40397976  0.19110713  0.79994677  1
  Rh  Rh221  1  0.40324810  0.58894740  0.80432825  1
  Rh  Rh222  1  0.00911358  0.00593547  -0.00302843  1
  Rh  Rh223  1  0.20029206  0.60466905  0.79340163  1
  Rh  Rh224  1  0.79735838  0.39838252  0.18358367  1
  Rh  Rh225  1  0.39191631  0.59914031  0.19215112  1
  Rh  Rh226  1  0.19897962  0.20042677  0.59144112  1
  Rh  Rh227  1  0.41130591  0.59259968  0.39972728  1
  Rh  Rh228  1  0.20459914  0.20251302  0.19850983  1
  Rh  Rh229  1  -0.00223097  0.60059068  0.80685166  1
  Rh  Rh230  1  0.19122108  0.60504167  0.40368249  1
  Rh  Rh231  1  0.80413277  0.20380179  0.19903719  1
  Rh  Rh232  1  0.79514726  0.21079477  0.60609342  1
  Rh  Rh233  1  0.79560319  0.41312224  0.41226968  1
  Rh  Rh234  1  -0.00296173  0.39531876  0.80080166  1
  Rh  Rh235  1  0.40373485  0.39590555  0.60044025  1
  Rh  Rh236  1  0.40436896  0.20348836  0.19158918  1
  Rh  Rh237  1  0.39007216  0.79470489  0.58923891  1
  Rh  Rh238  1  0.19903536  0.40333641  0.00668081  1
  Rh  Rh239  1  0.80632356  0.79286098  0.00546757  1
  Rh  Rh240  1  0.39509944  0.19847755  0.61083096  1
  Rh  Rh241  1  0.39461541  0.59891403  0.59813331  1
  Rh  Rh242  1  0.59555727  0.59131077  0.60341526  1
  Rh  Rh243  1  0.20121955  0.41075532  0.60928178  1
  Rh  Rh244  1  0.00024891  0.79682538  0.39998100  1
  Rh  Rh245  1  0.59510139  0.18787592  0.20450930  1
  Rh  Rh246  1  0.79256357  0.39784021  -0.00231310  1
  Rh  Rh247  1  0.40109044  0.39333374  -0.00337789  1
  Rh  Rh248  1  0.79133042  0.00516882  -0.00507565  1
  Rh  Rh249  1  0.60457824  0.20001795  0.59353844  1
