# generated using pymatgen
data_ZrScNbPdRh
_symmetry_space_group_name_H-M   'P 1'
_cell_length_a   16.55339152
_cell_length_b   16.54984740
_cell_length_c   16.55427893
_cell_angle_alpha   90.01857600
_cell_angle_beta   90.01974379
_cell_angle_gamma   90.00067586
_symmetry_Int_Tables_number   1
_chemical_formula_structural   ZrScNbPdRh
_chemical_formula_sum   'Zr50 Sc50 Nb50 Pd50 Rh50'
_cell_volume   4535.14524641
_cell_formula_units_Z   50
loop_
 _symmetry_equiv_pos_site_id
 _symmetry_equiv_pos_as_xyz
  1  'x, y, z'
loop_
 _atom_site_type_symbol
 _atom_site_label
 _atom_site_symmetry_multiplicity
 _atom_site_fract_x
 _atom_site_fract_y
 _atom_site_fract_z
 _atom_site_occupancy
  Zr  Zr0  1  0.88767099  0.09647500  0.11288275  1
  Zr  Zr1  1  0.89298014  0.30095985  0.50124314  1
  Zr  Zr2  1  0.69798309  0.10363791  0.70418883  1
  Zr  Zr3  1  0.30172795  0.89553662  0.49905262  1
  Zr  Zr4  1  0.69793406  0.50833116  0.29390118  1
  Zr  Zr5  1  0.30943165  0.69425826  0.89951250  1
  Zr  Zr6  1  0.90329650  0.30709656  0.89209009  1
  Zr  Zr7  1  0.50449055  0.29788493  0.48968562  1
  Zr  Zr8  1  0.09473511  0.70520639  0.29922316  1
  Zr  Zr9  1  0.29829902  0.29518835  0.09488176  1
  Zr  Zr10  1  0.10081934  0.09905774  0.49564783  1
  Zr  Zr11  1  0.10500291  0.30932850  0.50054086  1
  Zr  Zr12  1  0.69614320  0.29013071  0.69623323  1
  Zr  Zr13  1  0.90771488  0.09961661  0.31076658  1
  Zr  Zr14  1  0.30573537  0.90063078  0.90044337  1
  Zr  Zr15  1  0.30603399  0.50544026  0.30156554  1
  Zr  Zr16  1  0.89279401  0.91804999  0.50350869  1
  Zr  Zr17  1  0.69174767  0.09615877  0.90700456  1
  Zr  Zr18  1  0.71329639  0.90839065  0.09094757  1
  Zr  Zr19  1  0.69325982  0.10077836  0.09713244  1
  Zr  Zr20  1  0.10180491  0.69487748  0.10154275  1
  Zr  Zr21  1  0.69404726  0.29656818  0.10395990  1
  Zr  Zr22  1  0.69424932  0.70253749  0.89609261  1
  Zr  Zr23  1  0.49445515  0.70531599  0.09605677  1
  Zr  Zr24  1  0.10059459  0.90220211  0.29899864  1
  Zr  Zr25  1  0.29867348  0.69960613  0.30300917  1
  Zr  Zr26  1  0.70000139  0.90192112  0.30180493  1
  Zr  Zr27  1  0.29848148  0.50490990  0.50344806  1
  Zr  Zr28  1  0.69417739  0.50837610  0.90261928  1
  Zr  Zr29  1  0.90033076  0.69133920  0.70465975  1
  Zr  Zr30  1  0.90073540  0.50667260  0.10376528  1
  Zr  Zr31  1  0.10086758  0.30344641  0.90727727  1
  Zr  Zr32  1  0.90048361  0.09347000  0.69481151  1
  Zr  Zr33  1  0.10434095  0.30879666  0.10139607  1
  Zr  Zr34  1  0.90310394  0.10204300  0.89178732  1
  Zr  Zr35  1  0.50268585  0.88862771  0.90260194  1
  Zr  Zr36  1  0.29568804  0.10787278  0.70786498  1
  Zr  Zr37  1  0.30642596  0.09737693  0.09646112  1
  Zr  Zr38  1  0.09494630  0.89113555  0.10083445  1
  Zr  Zr39  1  0.10414465  0.30768710  0.30005781  1
  Zr  Zr40  1  0.48880148  0.10092482  0.30314886  1
  Zr  Zr41  1  0.89571191  0.29851766  0.30373135  1
  Zr  Zr42  1  0.90552809  0.89806771  0.71125045  1
  Zr  Zr43  1  0.69329935  0.89607276  0.69923193  1
  Zr  Zr44  1  0.29575226  0.69692396  0.69158565  1
  Zr  Zr45  1  0.89795778  0.69566379  0.29833717  1
  Zr  Zr46  1  0.69588554  0.69660963  0.69954301  1
  Zr  Zr47  1  0.89199248  0.29361299  0.70382165  1
  Zr  Zr48  1  0.90302197  0.90162871  0.28890860  1
  Zr  Zr49  1  0.49363048  0.50016410  0.69237562  1
  Sc  Sc50  1  0.49148336  0.29742083  0.90111633  1
  Sc  Sc51  1  0.30475470  0.89872670  0.30195178  1
  Sc  Sc52  1  0.09940302  0.69877883  0.69764454  1
  Sc  Sc53  1  0.50758912  0.70133540  0.70204744  1
  Sc  Sc54  1  0.49626569  0.49294886  0.29693512  1
  Sc  Sc55  1  0.10592728  0.69710783  0.89813739  1
  Sc  Sc56  1  0.30021142  0.69698239  0.10248121  1
  Sc  Sc57  1  0.69958564  0.69080022  0.51113390  1
  Sc  Sc58  1  0.50042214  0.89845284  0.69868269  1
  Sc  Sc59  1  0.90100575  0.68771523  0.49366447  1
  Sc  Sc60  1  0.70410054  0.49894499  0.49982643  1
  Sc  Sc61  1  0.50164088  0.70043434  0.50919546  1
  Sc  Sc62  1  0.10069043  0.50163267  0.29484491  1
  Sc  Sc63  1  0.49582715  0.49730515  0.49630415  1
  Sc  Sc64  1  0.50386514  0.49464539  0.09701431  1
  Sc  Sc65  1  0.30406627  0.29269542  0.90022977  1
  Sc  Sc66  1  0.10757540  0.89156115  0.49608002  1
  Sc  Sc67  1  0.30399170  0.30520756  0.70665053  1
  Sc  Sc68  1  0.90053202  0.70611368  0.10187152  1
  Sc  Sc69  1  0.30939031  0.30408397  0.29278984  1
  Sc  Sc70  1  0.69988565  0.51205082  0.69878444  1
  Sc  Sc71  1  0.10856313  0.10015279  0.89168672  1
  Sc  Sc72  1  0.70909589  0.10892011  0.28986656  1
  Sc  Sc73  1  0.49661174  0.90756698  0.49818594  1
  Sc  Sc74  1  0.50413137  0.10383667  0.69949740  1
  Sc  Sc75  1  0.48879277  0.89937245  0.30376599  1
  Sc  Sc76  1  0.70473201  0.09475936  0.50839825  1
  Sc  Sc77  1  0.30147289  0.90098416  0.09708340  1
  Sc  Sc78  1  0.50003931  0.09656156  0.49958506  1
  Sc  Sc79  1  0.30680564  0.50398931  0.69663336  1
  Sc  Sc80  1  0.09458892  0.50576127  0.69894650  1
  Sc  Sc81  1  0.10832507  0.69972390  0.49965473  1
  Sc  Sc82  1  0.70230901  0.68627807  0.10139327  1
  Sc  Sc83  1  0.30864608  0.09456597  0.49832625  1
  Sc  Sc84  1  0.09377995  0.89631126  0.89679306  1
  Sc  Sc85  1  0.69683344  0.29578014  0.89138103  1
  Sc  Sc86  1  0.49930863  0.10164366  0.09305427  1
  Sc  Sc87  1  0.30627014  0.49649706  0.09938438  1
  Sc  Sc88  1  0.48587251  0.70130428  0.29364800  1
  Sc  Sc89  1  0.11858471  0.10041966  0.10332592  1
  Sc  Sc90  1  0.90852299  0.31025120  0.10436275  1
  Sc  Sc91  1  0.10790849  0.29786933  0.70212803  1
  Sc  Sc92  1  0.90070863  0.49728368  0.50646160  1
  Sc  Sc93  1  0.69250561  0.30116288  0.31086156  1
  Sc  Sc94  1  0.09860213  0.89913852  0.70422113  1
  Sc  Sc95  1  0.90155997  0.50674338  0.30487776  1
  Sc  Sc96  1  0.48890162  0.90248673  0.09731941  1
  Sc  Sc97  1  0.49649443  0.30251354  0.09814947  1
  Sc  Sc98  1  0.50138608  0.10331129  0.90373692  1
  Sc  Sc99  1  0.90210103  0.49849858  0.70772612  1
  Nb  Nb100  1  0.29565409  0.30486368  0.50361849  1
  Nb  Nb101  1  0.30346039  0.90069232  0.69813479  1
  Nb  Nb102  1  0.49184000  0.50022156  0.89514113  1
  Nb  Nb103  1  0.90239797  0.69988617  0.89276724  1
  Nb  Nb104  1  0.69695944  0.30106310  0.50481613  1
  Nb  Nb105  1  0.29313611  0.10283734  0.29221154  1
  Nb  Nb106  1  0.89421163  0.89480978  0.90751537  1
  Nb  Nb107  1  0.69787835  0.89608793  0.50089477  1
  Nb  Nb108  1  0.70074973  0.49691659  0.09813633  1
  Nb  Nb109  1  0.29619586  0.70435453  0.50075059  1
  Nb  Nb110  1  0.90511769  0.49969705  0.89573084  1
  Nb  Nb111  1  0.70220284  0.90138958  0.90164682  1
  Nb  Nb112  1  0.30660867  0.50057818  0.89492049  1
  Nb  Nb113  1  0.09072663  0.49296387  0.09473180  1
  Nb  Nb114  1  0.90386788  0.10297081  0.50474470  1
  Nb  Nb115  1  0.90106800  0.90316603  0.09479635  1
  Nb  Nb116  1  0.10760274  0.49052690  0.49882946  1
  Nb  Nb117  1  0.09633732  0.49583352  0.90190871  1
  Nb  Nb118  1  0.49985933  0.70120996  0.89951775  1
  Nb  Nb119  1  0.30241539  0.10244435  0.90122714  1
  Nb  Nb120  1  0.70123442  0.70069952  0.30127489  1
  Nb  Nb121  1  0.50274000  0.30179007  0.30499949  1
  Nb  Nb122  1  0.10056786  0.09844840  0.69988828  1
  Nb  Nb123  1  0.49718102  0.29993895  0.69866718  1
  Nb  Nb124  1  0.10764232  0.10329070  0.29983696  1
  Nb  Nb125  1  0.59020185  0.40264900  0.79434113  1
  Nb  Nb126  1  0.39629400  0.00108504  0.80152628  1
  Nb  Nb127  1  0.39979120  0.20783018  0.59790402  1
  Nb  Nb128  1  0.60470348  0.79597788  0.39830649  1
  Nb  Nb129  1  0.00020093  0.59490756  -0.00525317  1
  Nb  Nb130  1  0.20498433  0.20108701  0.39587406  1
  Nb  Nb131  1  0.80344348  0.80221361  0.59798895  1
  Nb  Nb132  1  -0.00106467  0.19504266  0.00794980  1
  Nb  Nb133  1  0.59854631  -0.00395730  0.19985107  1
  Nb  Nb134  1  -0.00897390  0.80068384  0.59863587  1
  Nb  Nb135  1  0.00642509  0.19843019  0.20346082  1
  Nb  Nb136  1  0.20184997  0.41000971  0.80900264  1
  Nb  Nb137  1  0.21090370  0.80022395  0.79681518  1
  Nb  Nb138  1  0.60089945  0.60653228  0.39362193  1
  Nb  Nb139  1  0.59882041  0.39255125  0.60120499  1
  Nb  Nb140  1  0.79742187  0.40380403  0.00033233  1
  Nb  Nb141  1  0.79580901  0.80077781  0.40460136  1
  Nb  Nb142  1  0.39242489  0.80036929  0.60070293  1
  Nb  Nb143  1  0.60283204  0.80309198  0.20208051  1
  Nb  Nb144  1  0.79373900  0.40537359  0.19640549  1
  Nb  Nb145  1  -0.00592882  0.00081013  0.00332537  1
  Nb  Nb146  1  0.00132534  0.19591383  0.59791550  1
  Nb  Nb147  1  0.20245438  0.00162974  0.60648990  1
  Nb  Nb148  1  0.80607831  0.20608480  0.00059935  1
  Nb  Nb149  1  0.79590917  -0.00802070  0.80639973  1
  Pd  Pd150  1  0.20912087  0.40772474  0.20127877  1
  Pd  Pd151  1  0.58919234  0.60680591  0.20122112  1
  Pd  Pd152  1  0.79662421  0.79898843  0.19887309  1
  Pd  Pd153  1  0.60683165  0.80172678  0.01128295  1
  Pd  Pd154  1  -0.00134653  0.39147828  0.60920824  1
  Pd  Pd155  1  0.00877884  0.20620788  0.40239770  1
  Pd  Pd156  1  0.19753092  0.59870145  0.79770823  1
  Pd  Pd157  1  0.79659281  0.79913998  0.79713580  1
  Pd  Pd158  1  0.40655564  0.60623652  0.79282906  1
  Pd  Pd159  1  0.40830222  0.60673893  0.40578105  1
  Pd  Pd160  1  0.01074029  0.59139146  0.40687695  1
  Pd  Pd161  1  0.59053662  0.60132266  0.00064159  1
  Pd  Pd162  1  0.59655580  0.00007008  0.60011727  1
  Pd  Pd163  1  0.00905934  0.00949455  0.19231968  1
  Pd  Pd164  1  0.60017102  0.39494902  -0.01128324  1
  Pd  Pd165  1  0.00465518  -0.00567289  0.40206999  1
  Pd  Pd166  1  0.20440798  0.79876329  -0.00707773  1
  Pd  Pd167  1  -0.01054414  0.80530963  0.40931786  1
  Pd  Pd168  1  0.78593142  0.40883416  0.80175761  1
  Pd  Pd169  1  -0.00108741  0.79359182  -0.00468726  1
  Pd  Pd170  1  0.60863249  0.18658323  0.40135297  1
  Pd  Pd171  1  0.59398203  -0.00290698  0.80358778  1
  Pd  Pd172  1  0.79311552  0.40484327  0.60893546  1
  Pd  Pd173  1  0.19210861  -0.00372245  -0.00428405  1
  Pd  Pd174  1  0.01306687  -0.00394062  0.59771017  1
  Pd  Pd175  1  0.20270165  -0.00654229  0.79839793  1
  Pd  Pd176  1  0.40572101  0.20257654  0.19648056  1
  Pd  Pd177  1  0.59949925  0.39718994  0.20415799  1
  Pd  Pd178  1  -0.00327064  0.40737696  0.39947036  1
  Pd  Pd179  1  0.79574135  0.00524599  0.39635305  1
  Pd  Pd180  1  0.20535860  -0.00923622  0.19807691  1
  Pd  Pd181  1  0.79179940  0.19467891  0.40901862  1
  Pd  Pd182  1  0.00893402  0.20296955  0.79517779  1
  Pd  Pd183  1  0.19747083  0.59020179  0.00254789  1
  Pd  Pd184  1  0.39368400  0.39833251  0.40191379  1
  Pd  Pd185  1  0.80808160  0.60095973  -0.00686050  1
  Pd  Pd186  1  0.39065935  0.20322670  0.40436805  1
  Pd  Pd187  1  0.20233953  0.40760222  0.61569419  1
  Pd  Pd188  1  0.79688481  0.78768631  0.00156815  1
  Pd  Pd189  1  0.19893453  0.59154759  0.19484883  1
  Pd  Pd190  1  0.40552733  0.59463288  0.00513533  1
  Pd  Pd191  1  0.21213745  0.40807662  -0.00528865  1
  Pd  Pd192  1  0.58791566  0.19564980  0.20465190  1
  Pd  Pd193  1  0.79483230  0.40683884  0.39454539  1
  Pd  Pd194  1  0.00575221  0.60250825  0.59217047  1
  Pd  Pd195  1  0.20697492  0.80383325  0.20173553  1
  Pd  Pd196  1  0.20364642  0.19422480  0.59284603  1
  Pd  Pd197  1  0.19308474  0.59855831  0.40084915  1
  Pd  Pd198  1  0.20725141  0.00330487  0.40318709  1
  Pd  Pd199  1  0.60226833  0.00325353  0.39376126  1
  Rh  Rh200  1  0.59622100  0.58598630  0.59005576  1
  Rh  Rh201  1  0.00352941  0.60114412  0.19433475  1
  Rh  Rh202  1  0.20902359  0.39985146  0.39492490  1
  Rh  Rh203  1  0.40135217  0.00340036  0.20084774  1
  Rh  Rh204  1  0.79228694  0.18811541  0.80825861  1
  Rh  Rh205  1  0.80785275  0.21603466  0.19485893  1
  Rh  Rh206  1  0.80223714  0.59774074  0.20007075  1
  Rh  Rh207  1  0.60318762  0.40988569  0.40532112  1
  Rh  Rh208  1  0.59029167  0.59588201  0.80414005  1
  Rh  Rh209  1  0.19739452  0.80713622  0.60732491  1
  Rh  Rh210  1  0.39772407  0.40046582  -0.00345141  1
  Rh  Rh211  1  -0.00279769  0.79762109  0.19803983  1
  Rh  Rh212  1  0.00869928  0.79301499  0.79822786  1
  Rh  Rh213  1  0.60188497  0.20849297  -0.00230417  1
  Rh  Rh214  1  0.59273731  0.20649507  0.80562406  1
  Rh  Rh215  1  0.39379891  0.00278007  0.39450454  1
  Rh  Rh216  1  0.59527516  0.80547892  0.59225888  1
  Rh  Rh217  1  0.59147489  -0.01106826  0.00653466  1
  Rh  Rh218  1  0.79894860  0.59931875  0.80438762  1
  Rh  Rh219  1  0.19811503  0.20954208  0.80671890  1
  Rh  Rh220  1  0.80625457  0.60032555  0.60210270  1
  Rh  Rh221  1  0.19766638  0.19587351  -0.00350682  1
  Rh  Rh222  1  0.40326397  0.00334391  -0.00977738  1
  Rh  Rh223  1  0.39280174  0.79488002  0.00154322  1
  Rh  Rh224  1  0.79189332  -0.00428124  0.61194398  1
  Rh  Rh225  1  0.00398580  0.60145270  0.80793118  1
  Rh  Rh226  1  0.59871043  0.79898083  0.80205449  1
  Rh  Rh227  1  0.40048753  0.79990907  0.79256159  1
  Rh  Rh228  1  0.39591616  0.00550436  0.61174394  1
  Rh  Rh229  1  0.40466910  0.39673338  0.19798964  1
  Rh  Rh230  1  0.80466525  0.19737787  0.59463884  1
  Rh  Rh231  1  0.19886403  0.20680440  0.20537926  1
  Rh  Rh232  1  -0.00343138  -0.00398727  0.81012746  1
  Rh  Rh233  1  0.39835448  0.80121131  0.19661947  1
  Rh  Rh234  1  0.40047918  0.61025694  0.59490676  1
  Rh  Rh235  1  0.39814705  0.39938734  0.80449818  1
  Rh  Rh236  1  0.40587521  0.79523243  0.41149163  1
  Rh  Rh237  1  0.40262494  0.59507282  0.19470915  1
  Rh  Rh238  1  0.39926680  0.19837089  0.00169711  1
  Rh  Rh239  1  0.80871193  0.01017381  -0.00952245  1
  Rh  Rh240  1  0.19446163  0.59362691  0.59435035  1
  Rh  Rh241  1  0.59237162  0.20211388  0.59115957  1
  Rh  Rh242  1  -0.00721439  0.39990522  0.21116764  1
  Rh  Rh243  1  0.79346080  0.60277828  0.40382017  1
  Rh  Rh244  1  0.20016952  0.79714879  0.39050670  1
  Rh  Rh245  1  -0.00951352  0.40286635  -0.00230905  1
  Rh  Rh246  1  0.79478298  -0.00355745  0.20655790  1
  Rh  Rh247  1  0.00975869  0.39882357  0.79213994  1
  Rh  Rh248  1  0.40366776  0.39096383  0.59131448  1
  Rh  Rh249  1  0.40483606  0.19249274  0.79553674  1
