# generated using pymatgen
data_ZrScNbPdRh
_symmetry_space_group_name_H-M   'P 1'
_cell_length_a   16.56107910
_cell_length_b   16.56286715
_cell_length_c   16.56308581
_cell_angle_alpha   89.97833188
_cell_angle_beta   90.00936123
_cell_angle_gamma   89.99585197
_symmetry_Int_Tables_number   1
_chemical_formula_structural   ZrScNbPdRh
_chemical_formula_sum   'Zr50 Sc50 Nb50 Pd50 Rh50'
_cell_volume   4543.23669555
_cell_formula_units_Z   50
loop_
 _symmetry_equiv_pos_site_id
 _symmetry_equiv_pos_as_xyz
  1  'x, y, z'
loop_
 _atom_site_type_symbol
 _atom_site_label
 _atom_site_symmetry_multiplicity
 _atom_site_fract_x
 _atom_site_fract_y
 _atom_site_fract_z
 _atom_site_occupancy
  Zr  Zr0  1  0.90080971  0.71292463  0.70244838  1
  Zr  Zr1  1  0.30053788  0.30550514  0.29891233  1
  Zr  Zr2  1  0.50702198  0.70074691  0.10259096  1
  Zr  Zr3  1  0.89802270  0.10608487  0.49683308  1
  Zr  Zr4  1  0.49203033  0.09636617  0.10216669  1
  Zr  Zr5  1  0.49718915  0.09644438  0.70015350  1
  Zr  Zr6  1  0.89796029  0.09891838  0.29833455  1
  Zr  Zr7  1  0.70223204  0.30057085  0.50943567  1
  Zr  Zr8  1  0.09938455  0.29397854  0.89996320  1
  Zr  Zr9  1  0.30135690  0.70521343  0.50658796  1
  Zr  Zr10  1  0.70203262  0.70802693  0.09409364  1
  Zr  Zr11  1  0.10455306  0.09954237  0.70502477  1
  Zr  Zr12  1  0.29849793  0.70441308  0.30414180  1
  Zr  Zr13  1  0.69823258  0.09289051  0.29632303  1
  Zr  Zr14  1  0.90134418  0.30680134  0.49206831  1
  Zr  Zr15  1  0.90380345  0.49524087  0.30502942  1
  Zr  Zr16  1  0.69656647  0.28937489  0.90134948  1
  Zr  Zr17  1  0.09912801  0.10406771  0.49782000  1
  Zr  Zr18  1  0.89489854  0.49677427  0.89122353  1
  Zr  Zr19  1  0.10574953  0.70443488  0.89442968  1
  Zr  Zr20  1  0.30347658  0.10258351  0.49925829  1
  Zr  Zr21  1  0.69806423  0.09536121  0.90359822  1
  Zr  Zr22  1  0.69884257  0.49909794  0.50077694  1
  Zr  Zr23  1  0.28861328  0.70520358  0.10753532  1
  Zr  Zr24  1  0.50073283  0.29578694  0.70125124  1
  Zr  Zr25  1  0.10726769  0.69954983  0.69792118  1
  Zr  Zr26  1  0.49742721  0.10568987  0.50214618  1
  Zr  Zr27  1  0.29713778  0.89642051  0.49672299  1
  Zr  Zr28  1  0.70140298  0.50172277  0.89696215  1
  Zr  Zr29  1  0.50119869  0.70493767  0.30262042  1
  Zr  Zr30  1  0.30089208  0.09897923  0.89648883  1
  Zr  Zr31  1  0.10202336  0.70274155  0.51266168  1
  Zr  Zr32  1  0.50197675  0.11156947  0.30188117  1
  Zr  Zr33  1  0.10807781  0.50590247  0.69593040  1
  Zr  Zr34  1  0.10381118  0.30571815  0.50214102  1
  Zr  Zr35  1  0.49958693  0.10183842  0.89599006  1
  Zr  Zr36  1  0.50191358  0.90012011  0.70432846  1
  Zr  Zr37  1  0.28689156  0.10377449  0.09821120  1
  Zr  Zr38  1  0.49129726  0.29680624  0.90269656  1
  Zr  Zr39  1  0.89806717  0.70118422  0.09912825  1
  Zr  Zr40  1  0.29129878  0.89707365  0.30125758  1
  Zr  Zr41  1  0.69897004  0.70038067  0.28624576  1
  Zr  Zr42  1  0.70566578  0.50056879  0.70539722  1
  Zr  Zr43  1  0.90035548  0.29953764  0.90153768  1
  Zr  Zr44  1  0.49725277  0.89805639  0.09082224  1
  Zr  Zr45  1  0.70201361  0.89959189  0.50281275  1
  Zr  Zr46  1  0.30365631  0.89942981  0.90515793  1
  Zr  Zr47  1  0.90680023  0.70361036  0.29194147  1
  Zr  Zr48  1  0.71160021  0.69514633  0.89873968  1
  Zr  Zr49  1  0.10066942  0.28875579  0.09949326  1
  Sc  Sc50  1  0.49629985  0.90846498  0.89843760  1
  Sc  Sc51  1  0.91270928  0.70397857  0.50374849  1
  Sc  Sc52  1  0.50018997  0.49745970  0.50379638  1
  Sc  Sc53  1  0.90189921  0.89665928  0.89169430  1
  Sc  Sc54  1  0.49609915  0.90424628  0.50629957  1
  Sc  Sc55  1  0.71028371  0.10084666  0.09903471  1
  Sc  Sc56  1  0.10721763  0.89577242  0.09782403  1
  Sc  Sc57  1  0.09754191  0.48981852  0.89150803  1
  Sc  Sc58  1  0.49628110  0.91029892  0.29363021  1
  Sc  Sc59  1  0.30556654  0.50031704  0.70019053  1
  Sc  Sc60  1  0.30093658  0.70101602  0.88837906  1
  Sc  Sc61  1  0.29860898  0.49151073  0.10975978  1
  Sc  Sc62  1  0.90360414  0.50284764  0.49711948  1
  Sc  Sc63  1  0.69538524  0.30268918  0.69699903  1
  Sc  Sc64  1  0.30688003  0.30444642  0.50267445  1
  Sc  Sc65  1  0.49900183  0.49343521  0.09971648  1
  Sc  Sc66  1  0.11376548  0.30004172  0.70131125  1
  Sc  Sc67  1  0.09457567  0.89353875  0.70728634  1
  Sc  Sc68  1  0.49451844  0.50011603  0.70206891  1
  Sc  Sc69  1  0.30721722  0.49546796  0.89286980  1
  Sc  Sc70  1  0.68714284  0.49992055  0.30073658  1
  Sc  Sc71  1  0.89436020  0.08865896  0.70154122  1
  Sc  Sc72  1  0.68447556  0.29989806  0.29863299  1
  Sc  Sc73  1  0.30170326  0.09549859  0.29658621  1
  Sc  Sc74  1  0.30478774  0.29284420  0.89844984  1
  Sc  Sc75  1  0.69481999  0.51139390  0.10531565  1
  Sc  Sc76  1  0.71405225  0.89938503  0.69459955  1
  Sc  Sc77  1  0.29383755  0.49487985  0.29903007  1
  Sc  Sc78  1  0.10619267  0.09267006  0.90037146  1
  Sc  Sc79  1  0.89868509  0.89576536  0.09089273  1
  Sc  Sc80  1  0.49611398  0.70071133  0.89584638  1
  Sc  Sc81  1  0.10131834  0.90125288  0.90036716  1
  Sc  Sc82  1  0.90541095  0.28266054  0.10057683  1
  Sc  Sc83  1  0.49073914  0.29662439  0.10425977  1
  Sc  Sc84  1  0.29641967  0.90328836  0.09985534  1
  Sc  Sc85  1  0.30900490  0.89735032  0.70009917  1
  Sc  Sc86  1  0.30350267  0.49297588  0.50979390  1
  Sc  Sc87  1  0.30061967  0.29964113  0.69837141  1
  Sc  Sc88  1  0.69547628  0.10069968  0.50462479  1
  Sc  Sc89  1  0.90744783  0.50061584  0.10596725  1
  Sc  Sc90  1  0.09805016  0.70252351  0.29278190  1
  Sc  Sc91  1  0.88337651  0.30786648  0.69391862  1
  Sc  Sc92  1  0.09612836  0.70409399  0.10683979  1
  Sc  Sc93  1  0.49576660  0.49878816  0.89519710  1
  Sc  Sc94  1  0.69323063  0.70606773  0.51034483  1
  Sc  Sc95  1  0.50213619  0.70396213  0.50606283  1
  Sc  Sc96  1  0.89848466  0.08604274  0.90690687  1
  Sc  Sc97  1  0.09665385  0.49878716  0.29229599  1
  Sc  Sc98  1  0.10174108  0.09748281  0.29884037  1
  Sc  Sc99  1  0.49587060  0.69740883  0.69822523  1
  Nb  Nb100  1  0.70520449  0.29958278  0.09666493  1
  Nb  Nb101  1  0.29852109  0.29972836  0.09379536  1
  Nb  Nb102  1  0.69857482  0.10883925  0.69858776  1
  Nb  Nb103  1  0.10350101  0.50450198  0.09715672  1
  Nb  Nb104  1  0.29595199  0.10146094  0.69661316  1
  Nb  Nb105  1  0.90104725  0.69796305  0.90037049  1
  Nb  Nb106  1  0.49864274  0.49948751  0.30426337  1
  Nb  Nb107  1  0.69928703  0.89586223  0.09331024  1
  Nb  Nb108  1  0.70275393  0.89891514  0.90885248  1
  Nb  Nb109  1  0.09973499  0.09498959  0.10153469  1
  Nb  Nb110  1  0.08995807  0.90034379  0.30525841  1
  Nb  Nb111  1  0.70599611  0.90350054  0.29979026  1
  Nb  Nb112  1  0.90262706  0.89873016  0.69439597  1
  Nb  Nb113  1  0.10060079  0.50767418  0.50591376  1
  Nb  Nb114  1  0.89867480  0.50126512  0.70121706  1
  Nb  Nb115  1  0.90418174  0.09527219  0.10265465  1
  Nb  Nb116  1  0.90663688  0.90016209  0.49713589  1
  Nb  Nb117  1  0.49574611  0.30724742  0.31330943  1
  Nb  Nb118  1  0.90561294  0.90168049  0.30783262  1
  Nb  Nb119  1  0.70397121  0.70713455  0.70020494  1
  Nb  Nb120  1  0.08972406  0.30074934  0.30822466  1
  Nb  Nb121  1  0.09657164  0.90048652  0.49587090  1
  Nb  Nb122  1  0.29889784  0.69376285  0.69991485  1
  Nb  Nb123  1  0.49916538  0.29979650  0.49208664  1
  Nb  Nb124  1  0.90649279  0.30237885  0.30428500  1
  Nb  Nb125  1  0.19639914  -0.00316279  0.59669332  1
  Nb  Nb126  1  -0.00349951  0.60330871  0.80027047  1
  Nb  Nb127  1  0.79644268  0.39639388  0.00712207  1
  Nb  Nb128  1  0.79857777  0.19410905  0.80019166  1
  Nb  Nb129  1  0.20030468  0.39778293  0.00427948  1
  Nb  Nb130  1  0.61103664  0.80038661  0.79999545  1
  Nb  Nb131  1  0.80160127  0.60402272  0.60227918  1
  Nb  Nb132  1  0.19873283  0.59344130  0.00017890  1
  Nb  Nb133  1  0.19864294  0.20739147  0.39755426  1
  Nb  Nb134  1  0.40192253  0.60061263  0.20441525  1
  Nb  Nb135  1  0.80150481  0.80271112  0.39612426  1
  Nb  Nb136  1  -0.00213853  0.20246470  0.60545460  1
  Nb  Nb137  1  0.00287032  0.40264884  0.60029194  1
  Nb  Nb138  1  -0.00667388  0.19809383  0.79484700  1
  Nb  Nb139  1  0.00343266  0.60011401  -0.00666494  1
  Nb  Nb140  1  -0.00248559  -0.00086025  0.19809961  1
  Nb  Nb141  1  0.39797771  0.59993881  0.39768474  1
  Nb  Nb142  1  0.80018380  0.20563354  0.39307751  1
  Nb  Nb143  1  0.80080021  0.39171059  0.19953130  1
  Nb  Nb144  1  0.00118985  -0.00231628  0.59620912  1
  Nb  Nb145  1  0.60608165  0.39497216  0.00043559  1
  Nb  Nb146  1  0.60799873  0.80780569  0.39361921  1
  Nb  Nb147  1  0.79747222  0.60978291  0.40094486  1
  Nb  Nb148  1  0.20002947  0.59960918  0.40595297  1
  Nb  Nb149  1  0.39178693  0.60074430  0.00851781  1
  Pd  Pd150  1  0.19693780  0.40522742  0.40231159  1
  Pd  Pd151  1  0.59971709  0.39702492  0.19302495  1
  Pd  Pd152  1  0.39180809  -0.00171875  0.19680499  1
  Pd  Pd153  1  0.79823143  0.20647914  0.20671847  1
  Pd  Pd154  1  0.00062999  0.39448506  0.78550533  1
  Pd  Pd155  1  0.59906796  0.81424521  0.20325875  1
  Pd  Pd156  1  0.80614589  -0.01040363  0.19107061  1
  Pd  Pd157  1  0.19829218  0.20370623  0.20927047  1
  Pd  Pd158  1  0.39645112  0.20309384  0.20380636  1
  Pd  Pd159  1  0.60370776  -0.00073718  0.60577566  1
  Pd  Pd160  1  0.59579323  0.60824748  0.79650220  1
  Pd  Pd161  1  0.60838409  0.20111797  0.40508839  1
  Pd  Pd162  1  0.00039725  0.40424241  0.00764486  1
  Pd  Pd163  1  0.60258794  0.59843669  0.60844943  1
  Pd  Pd164  1  0.59297882  -0.00383912  0.40246184  1
  Pd  Pd165  1  0.61247819  -0.00822978  0.79465736  1
  Pd  Pd166  1  0.20795835  0.80753014  0.79492687  1
  Pd  Pd167  1  0.00499553  0.60310809  0.39685271  1
  Pd  Pd168  1  0.60112410  0.00387869  0.00770061  1
  Pd  Pd169  1  0.00462556  0.19287502  0.20568943  1
  Pd  Pd170  1  0.79895188  0.00249319  0.40599890  1
  Pd  Pd171  1  0.00458146  -0.00486287  0.00411209  1
  Pd  Pd172  1  0.40421780  -0.00130898  0.39792522  1
  Pd  Pd173  1  0.78806048  0.40019910  0.38935923  1
  Pd  Pd174  1  0.80598237  0.81122715  0.20092043  1
  Pd  Pd175  1  0.20828304  0.39753053  0.80551314  1
  Pd  Pd176  1  0.80357762  0.00401903  0.59485563  1
  Pd  Pd177  1  0.59954721  0.60897013  0.40369369  1
  Pd  Pd178  1  0.59297330  0.20022164  0.01149480  1
  Pd  Pd179  1  0.79526770  -0.00171231  0.80028380  1
  Pd  Pd180  1  0.39423245  0.79077998  -0.00123303  1
  Pd  Pd181  1  0.19863513  0.00659356  0.40000814  1
  Pd  Pd182  1  0.59345347  0.40125719  0.60088676  1
  Pd  Pd183  1  0.80837122  0.58972411  0.00753503  1
  Pd  Pd184  1  0.40449931  0.40095845  0.20247613  1
  Pd  Pd185  1  0.18697416  0.79332074  0.39874184  1
  Pd  Pd186  1  0.18899382  0.39296625  0.19580324  1
  Pd  Pd187  1  0.59728417  0.39783576  0.80615527  1
  Pd  Pd188  1  0.59707358  0.79852932  -0.01352071  1
  Pd  Pd189  1  0.39963154  0.20484602  0.60207374  1
  Pd  Pd190  1  0.60378586  -0.00380066  0.18914742  1
  Pd  Pd191  1  0.58989082  0.59315555  -0.00374517  1
  Pd  Pd192  1  -0.00166411  0.39460976  0.19191736  1
  Pd  Pd193  1  0.00284329  0.79684159  -0.00193231  1
  Pd  Pd194  1  0.80211047  0.58852901  0.20627256  1
  Pd  Pd195  1  0.20632297  -0.00964893  0.79373588  1
  Pd  Pd196  1  0.59878601  0.20253052  0.19322586  1
  Pd  Pd197  1  0.39969562  0.80180387  0.19802305  1
  Pd  Pd198  1  -0.00012227  0.18517569  -0.00922061  1
  Pd  Pd199  1  0.40300686  0.79888776  0.60439387  1
  Rh  Rh200  1  0.20016907  -0.00203916  0.00116044  1
  Rh  Rh201  1  0.39762609  0.40356449  -0.00076036  1
  Rh  Rh202  1  0.80341501  0.80188985  -0.00654815  1
  Rh  Rh203  1  0.79337640  0.38788591  0.80670273  1
  Rh  Rh204  1  0.80748664  0.60824057  0.78925065  1
  Rh  Rh205  1  0.79665311  0.80721302  0.80679361  1
  Rh  Rh206  1  0.59806127  0.39820994  0.40636299  1
  Rh  Rh207  1  -0.00202720  0.00102795  0.79342929  1
  Rh  Rh208  1  -0.00000819  0.19909709  0.40037310  1
  Rh  Rh209  1  -0.00109847  0.79747750  0.80301997  1
  Rh  Rh210  1  0.80780405  0.19694761  -0.00408964  1
  Rh  Rh211  1  0.39912588  0.60008884  0.59523271  1
  Rh  Rh212  1  0.40668826  0.79771068  0.79636333  1
  Rh  Rh213  1  0.80581795  0.41543522  0.59583425  1
  Rh  Rh214  1  0.00069885  0.79330137  0.40061404  1
  Rh  Rh215  1  0.21350353  0.59797568  0.59592205  1
  Rh  Rh216  1  0.39275866  0.20457331  0.39447257  1
  Rh  Rh217  1  0.00154259  0.60027390  0.19359860  1
  Rh  Rh218  1  0.19838471  0.59577184  0.80460004  1
  Rh  Rh219  1  0.19970650  0.81072589  0.60743959  1
  Rh  Rh220  1  0.39673535  0.19375431  0.00292849  1
  Rh  Rh221  1  0.41375401  0.80183101  0.40409388  1
  Rh  Rh222  1  0.79966243  -0.00515100  0.00415635  1
  Rh  Rh223  1  0.39482684  0.00614276  0.00240287  1
  Rh  Rh224  1  0.39495928  0.00289956  0.79849362  1
  Rh  Rh225  1  0.39546050  0.19496497  0.79291771  1
  Rh  Rh226  1  0.80777044  0.79517787  0.58919416  1
  Rh  Rh227  1  0.40215682  0.40797457  0.40406689  1
  Rh  Rh228  1  0.00384776  0.81068296  0.59986105  1
  Rh  Rh229  1  0.39704256  0.60234433  0.80204811  1
  Rh  Rh230  1  0.01041166  0.41102690  0.40641942  1
  Rh  Rh231  1  0.59693441  0.80704374  0.60614951  1
  Rh  Rh232  1  0.20124136  0.19521661  0.59207797  1
  Rh  Rh233  1  0.00037388  0.00324115  0.39831464  1
  Rh  Rh234  1  0.39010779  0.00213577  0.60214422  1
  Rh  Rh235  1  0.19253271  0.80808981  0.20575380  1
  Rh  Rh236  1  0.80241425  0.19635427  0.60220402  1
  Rh  Rh237  1  0.59400528  0.20170043  0.59831950  1
  Rh  Rh238  1  0.18994954  -0.00548344  0.20264403  1
  Rh  Rh239  1  0.40139926  0.39401351  0.79666034  1
  Rh  Rh240  1  0.59046293  0.59569396  0.19905824  1
  Rh  Rh241  1  0.20280422  0.59971689  0.20376308  1
  Rh  Rh242  1  0.19968255  0.20199377  -0.00453993  1
  Rh  Rh243  1  0.19907294  0.40295428  0.60167764  1
  Rh  Rh244  1  0.19938731  0.20073646  0.80416025  1
  Rh  Rh245  1  -0.00115175  0.81259089  0.19770594  1
  Rh  Rh246  1  0.60295445  0.19635133  0.79630801  1
  Rh  Rh247  1  0.20200516  0.79416253  -0.00303813  1
  Rh  Rh248  1  0.40726661  0.39480046  0.60233548  1
  Rh  Rh249  1  -0.00805013  0.59418060  0.61090873  1
