# generated using pymatgen
data_ZrScNbPdRh
_symmetry_space_group_name_H-M   'P 1'
_cell_length_a   16.55585201
_cell_length_b   16.56147384
_cell_length_c   16.56190275
_cell_angle_alpha   89.97152178
_cell_angle_beta   89.98436572
_cell_angle_gamma   90.04083019
_symmetry_Int_Tables_number   1
_chemical_formula_structural   ZrScNbPdRh
_chemical_formula_sum   'Zr50 Sc50 Nb50 Pd50 Rh50'
_cell_volume   4541.09480455
_cell_formula_units_Z   50
loop_
 _symmetry_equiv_pos_site_id
 _symmetry_equiv_pos_as_xyz
  1  'x, y, z'
loop_
 _atom_site_type_symbol
 _atom_site_label
 _atom_site_symmetry_multiplicity
 _atom_site_fract_x
 _atom_site_fract_y
 _atom_site_fract_z
 _atom_site_occupancy
  Zr  Zr0  1  0.09836176  0.49974183  0.09949859  1
  Zr  Zr1  1  0.69960273  0.50118662  0.09744726  1
  Zr  Zr2  1  0.89845100  0.88405034  0.49424704  1
  Zr  Zr3  1  0.30372656  0.89472467  0.49925127  1
  Zr  Zr4  1  0.30221911  0.09614936  0.09691875  1
  Zr  Zr5  1  0.10608696  0.89961120  0.09936402  1
  Zr  Zr6  1  0.09862072  0.88942668  0.29796341  1
  Zr  Zr7  1  0.69821573  0.50759911  0.49639061  1
  Zr  Zr8  1  0.90509620  0.71352141  0.29757415  1
  Zr  Zr9  1  0.50782407  0.50170718  0.69888637  1
  Zr  Zr10  1  0.10055796  0.09391150  0.70192429  1
  Zr  Zr11  1  0.29799155  0.89782555  0.69773923  1
  Zr  Zr12  1  0.09607243  0.50205711  0.89937653  1
  Zr  Zr13  1  0.30794386  0.30491456  0.69588592  1
  Zr  Zr14  1  0.29806315  0.09674334  0.69897866  1
  Zr  Zr15  1  0.49377728  0.70449017  0.70632970  1
  Zr  Zr16  1  0.09917073  0.69757088  0.11505833  1
  Zr  Zr17  1  0.89689604  0.50569926  0.50149691  1
  Zr  Zr18  1  0.89272035  0.89856049  0.30199678  1
  Zr  Zr19  1  0.09537318  0.30532978  0.90046564  1
  Zr  Zr20  1  0.88967094  0.30171536  0.09074678  1
  Zr  Zr21  1  0.49833914  0.09807429  0.90625044  1
  Zr  Zr22  1  0.69350426  0.09731275  0.90887677  1
  Zr  Zr23  1  0.89590015  0.49796129  0.09682675  1
  Zr  Zr24  1  0.10082923  0.90058303  0.70093803  1
  Zr  Zr25  1  0.30936099  0.69617968  0.90030384  1
  Zr  Zr26  1  0.89897648  0.89374893  0.10499783  1
  Zr  Zr27  1  0.50309039  0.49611014  0.49918561  1
  Zr  Zr28  1  0.50746053  0.09515199  0.31174970  1
  Zr  Zr29  1  0.90373904  0.09770298  0.70200288  1
  Zr  Zr30  1  0.29140064  0.50642683  0.69857234  1
  Zr  Zr31  1  0.89420015  0.28967331  0.70210296  1
  Zr  Zr32  1  0.09845332  0.30318393  0.49642949  1
  Zr  Zr33  1  0.30296979  0.90749549  0.90649648  1
  Zr  Zr34  1  0.09950364  0.50308813  0.70629584  1
  Zr  Zr35  1  0.69495061  0.89400119  0.70077988  1
  Zr  Zr36  1  0.90271566  0.31183052  0.49421992  1
  Zr  Zr37  1  0.50127867  0.89503220  0.09714730  1
  Zr  Zr38  1  0.90026180  0.50326962  0.89733291  1
  Zr  Zr39  1  0.29364504  0.29524531  0.30410451  1
  Zr  Zr40  1  0.70777903  0.10783396  0.68954388  1
  Zr  Zr41  1  0.49808309  0.69240768  0.09843945  1
  Zr  Zr42  1  0.70058206  0.69906251  0.90019173  1
  Zr  Zr43  1  0.10538627  0.69489795  0.70082938  1
  Zr  Zr44  1  0.50723265  0.29679699  0.50092838  1
  Zr  Zr45  1  0.89130102  0.09427790  0.30090154  1
  Zr  Zr46  1  0.30710902  0.10127596  0.89990881  1
  Zr  Zr47  1  0.10468790  0.89667056  0.50719713  1
  Zr  Zr48  1  0.09876376  0.90364950  0.90260114  1
  Zr  Zr49  1  0.49782488  0.89163846  0.70011163  1
  Sc  Sc50  1  0.50139985  0.30436951  0.30719637  1
  Sc  Sc51  1  0.89616764  0.89550139  0.69781218  1
  Sc  Sc52  1  0.50633393  0.90015517  0.30487091  1
  Sc  Sc53  1  0.70634706  0.30709396  0.90025184  1
  Sc  Sc54  1  0.11497641  0.10743422  0.29207923  1
  Sc  Sc55  1  0.69719957  0.69963615  0.70239029  1
  Sc  Sc56  1  0.50195196  0.89743359  0.90039238  1
  Sc  Sc57  1  0.89714266  0.69674332  0.09873517  1
  Sc  Sc58  1  0.49840334  0.10446252  0.70233388  1
  Sc  Sc59  1  0.90244955  0.10409860  0.89923041  1
  Sc  Sc60  1  0.30520616  0.89249355  0.30191329  1
  Sc  Sc61  1  0.09837188  0.70831869  0.50992536  1
  Sc  Sc62  1  0.69804266  0.50324860  0.29796116  1
  Sc  Sc63  1  0.69568335  0.69700255  0.29342504  1
  Sc  Sc64  1  0.30087343  0.49537514  0.29536114  1
  Sc  Sc65  1  0.89108939  0.09897126  0.08811412  1
  Sc  Sc66  1  0.11061986  0.09782628  0.09967245  1
  Sc  Sc67  1  0.10477111  0.30330866  0.09291686  1
  Sc  Sc68  1  0.29676761  0.89725920  0.09930111  1
  Sc  Sc69  1  0.10534771  0.30533151  0.29916703  1
  Sc  Sc70  1  0.50377917  0.50680832  0.30539251  1
  Sc  Sc71  1  0.49725276  0.69866221  0.29633651  1
  Sc  Sc72  1  0.50081896  0.30223218  0.91357857  1
  Sc  Sc73  1  0.50576627  0.30600543  0.68767728  1
  Sc  Sc74  1  0.50696344  0.69893477  0.49083275  1
  Sc  Sc75  1  0.29866617  0.49806306  0.50171400  1
  Sc  Sc76  1  0.10667409  0.10831736  0.50725621  1
  Sc  Sc77  1  0.88894871  0.48752789  0.30820678  1
  Sc  Sc78  1  0.69839922  0.70062208  0.10195240  1
  Sc  Sc79  1  0.09953018  0.49805000  0.51137776  1
  Sc  Sc80  1  0.10161165  0.49922736  0.29229520  1
  Sc  Sc81  1  0.30008805  0.30464365  0.49997506  1
  Sc  Sc82  1  0.51404469  0.10640335  0.09751370  1
  Sc  Sc83  1  0.49909973  0.89111122  0.48750683  1
  Sc  Sc84  1  0.30250216  0.70079345  0.70258181  1
  Sc  Sc85  1  0.89506677  0.10612962  0.51000645  1
  Sc  Sc86  1  0.30069542  0.50374286  0.89737878  1
  Sc  Sc87  1  0.09701329  0.30362607  0.69484878  1
  Sc  Sc88  1  0.89975036  0.90300490  0.90668655  1
  Sc  Sc89  1  0.69483759  0.10425946  0.49713586  1
  Sc  Sc90  1  0.68960239  0.89456952  0.90262313  1
  Sc  Sc91  1  0.09781328  0.09485749  0.89767744  1
  Sc  Sc92  1  0.69798510  0.89685147  0.09973865  1
  Sc  Sc93  1  0.69540008  0.30088578  0.08833502  1
  Sc  Sc94  1  0.69929594  0.31400502  0.29984774  1
  Sc  Sc95  1  0.30286885  0.10843620  0.49371873  1
  Sc  Sc96  1  0.30639446  0.31013502  0.09814461  1
  Sc  Sc97  1  0.30743735  0.29820913  0.90823787  1
  Sc  Sc98  1  0.89755571  0.69256138  0.69804546  1
  Sc  Sc99  1  0.09601415  0.69320946  0.91036168  1
  Nb  Nb100  1  0.70990922  0.70326802  0.49704050  1
  Nb  Nb101  1  0.30130997  0.69440403  0.10890907  1
  Nb  Nb102  1  0.89583790  0.30126391  0.29905145  1
  Nb  Nb103  1  0.30314850  0.50175310  0.10260381  1
  Nb  Nb104  1  0.90060346  0.69515639  0.89546096  1
  Nb  Nb105  1  0.50352911  0.09302705  0.49642731  1
  Nb  Nb106  1  0.70035423  0.49283587  0.70767626  1
  Nb  Nb107  1  0.69730263  0.30050435  0.69716530  1
  Nb  Nb108  1  0.69860884  0.09421845  0.29498150  1
  Nb  Nb109  1  0.89647865  0.69970048  0.49510834  1
  Nb  Nb110  1  0.90130450  0.29977859  0.90617547  1
  Nb  Nb111  1  0.10107358  0.69604445  0.29821520  1
  Nb  Nb112  1  0.30342256  0.70338625  0.49869401  1
  Nb  Nb113  1  0.69619985  0.30128576  0.50746972  1
  Nb  Nb114  1  0.29350395  0.69816421  0.29591103  1
  Nb  Nb115  1  0.69667676  0.10581696  0.10238694  1
  Nb  Nb116  1  0.49644679  0.69321383  0.89918990  1
  Nb  Nb117  1  0.70706804  0.91023104  0.30558518  1
  Nb  Nb118  1  0.69350306  0.49909019  0.89264139  1
  Nb  Nb119  1  0.70022764  0.89043350  0.49846807  1
  Nb  Nb120  1  0.89520423  0.50378595  0.70184513  1
  Nb  Nb121  1  0.49309687  0.49265604  0.09147518  1
  Nb  Nb122  1  0.49881184  0.30448482  0.09870647  1
  Nb  Nb123  1  0.30300559  0.09775851  0.29670419  1
  Nb  Nb124  1  0.49891984  0.50763044  0.90275531  1
  Nb  Nb125  1  0.79321837  0.19780326  0.20235279  1
  Nb  Nb126  1  0.79455275  0.40420357  0.60804754  1
  Nb  Nb127  1  0.79390542  0.00118028  0.79823564  1
  Nb  Nb128  1  0.40261440  0.00651696  0.20321950  1
  Nb  Nb129  1  0.20380691  0.20107901  0.79932582  1
  Nb  Nb130  1  0.19706151  0.80140233  0.80716781  1
  Nb  Nb131  1  -0.00844747  0.39220680  0.19750096  1
  Nb  Nb132  1  0.59188693  0.40333217  0.18935643  1
  Nb  Nb133  1  0.00501077  0.00338030  0.40095733  1
  Nb  Nb134  1  0.19974454  -0.00053580  0.39700323  1
  Nb  Nb135  1  -0.00944050  0.20079850  0.20160367  1
  Nb  Nb136  1  0.40258510  0.60239342  0.59753893  1
  Nb  Nb137  1  0.79821728  0.20410270  0.39455850  1
  Nb  Nb138  1  -0.00439246  0.19877425  0.39172075  1
  Nb  Nb139  1  0.59676611  -0.00463692  0.59392529  1
  Nb  Nb140  1  0.00184318  0.60578178  0.39980144  1
  Nb  Nb141  1  0.19678278  0.60844952  0.39746072  1
  Nb  Nb142  1  0.00085324  0.79568694  0.80341225  1
  Nb  Nb143  1  0.00032723  -0.00425051  0.59535557  1
  Nb  Nb144  1  0.60455727  0.20467020  0.79828946  1
  Nb  Nb145  1  -0.00060376  0.00344426  0.20471747  1
  Nb  Nb146  1  0.20671621  0.60038222  0.01234875  1
  Nb  Nb147  1  0.40407196  0.19753211  0.20285540  1
  Nb  Nb148  1  0.40707810  0.40688924  0.80043523  1
  Nb  Nb149  1  0.40601138  -0.00043577  0.59275573  1
  Pd  Pd150  1  0.80169999  0.79154072  0.60467051  1
  Pd  Pd151  1  0.40345625  0.59415316  0.20337583  1
  Pd  Pd152  1  0.80642028  0.80420858  0.80550555  1
  Pd  Pd153  1  0.60411202  0.80442713  0.20533177  1
  Pd  Pd154  1  0.00830520  0.20321357  0.80082001  1
  Pd  Pd155  1  0.19926459  0.79729152  0.39944162  1
  Pd  Pd156  1  0.20168143  0.20664455  0.60554836  1
  Pd  Pd157  1  0.20724099  0.40799483  -0.00320430  1
  Pd  Pd158  1  0.20276391  0.78857603  -0.00171980  1
  Pd  Pd159  1  0.79125689  0.59870468  0.60758757  1
  Pd  Pd160  1  0.20594506  0.20964591  0.19027499  1
  Pd  Pd161  1  0.19572493  0.41312512  0.40178618  1
  Pd  Pd162  1  -0.00417870  0.79216556  -0.00040022  1
  Pd  Pd163  1  0.59196889  0.39064767  0.80848296  1
  Pd  Pd164  1  0.40385777  -0.00350448  0.79320156  1
  Pd  Pd165  1  -0.00057427  0.60367484  0.59589576  1
  Pd  Pd166  1  0.60226388  0.60489666  0.79918592  1
  Pd  Pd167  1  -0.01493733  0.58775961  0.21140819  1
  Pd  Pd168  1  0.61084824  0.20494600  0.39441278  1
  Pd  Pd169  1  0.59674551  0.79777966  0.59396430  1
  Pd  Pd170  1  0.80459023  0.60156692  0.20626950  1
  Pd  Pd171  1  0.60147452  0.60002994  0.00120246  1
  Pd  Pd172  1  -0.00847290  0.40210236  0.61017512  1
  Pd  Pd173  1  0.79746478  0.59886205  -0.00485843  1
  Pd  Pd174  1  0.20942662  0.39139998  0.80416848  1
  Pd  Pd175  1  0.40033130  0.80507012  0.20258907  1
  Pd  Pd176  1  0.20018587  0.19896306  -0.00650682  1
  Pd  Pd177  1  0.79909489  0.00198375  0.18876943  1
  Pd  Pd178  1  0.40111267  0.79764201  0.00042761  1
  Pd  Pd179  1  0.60499864  0.00857215  0.78948015  1
  Pd  Pd180  1  0.79789394  -0.00792349  0.59707672  1
  Pd  Pd181  1  0.59608879  -0.00515605  0.19671029  1
  Pd  Pd182  1  0.60080402  0.21248357  0.20690258  1
  Pd  Pd183  1  0.39167898  0.60176224  0.40312068  1
  Pd  Pd184  1  0.39964454  0.39992715  0.39957988  1
  Pd  Pd185  1  0.79313870  -0.00555091  -0.00269299  1
  Pd  Pd186  1  0.60650291  0.79558739  0.39042551  1
  Pd  Pd187  1  0.80681408  0.39830948  0.80049022  1
  Pd  Pd188  1  0.00156659  0.00582955  0.00995611  1
  Pd  Pd189  1  0.40501786  0.39591696  0.20848042  1
  Pd  Pd190  1  0.59965086  0.60806577  0.59914166  1
  Pd  Pd191  1  0.00523351  0.19525605  0.00723068  1
  Pd  Pd192  1  0.80011798  0.79888463  -0.00160462  1
  Pd  Pd193  1  0.79903225  0.00600795  0.41581438  1
  Pd  Pd194  1  -0.00877365  0.39736847  0.79510502  1
  Pd  Pd195  1  0.80411402  0.60748296  0.38893649  1
  Pd  Pd196  1  0.40141982  0.20211313  0.39867365  1
  Pd  Pd197  1  0.79289442  0.19458319  0.81145952  1
  Pd  Pd198  1  0.40747422  0.21414590  0.80023888  1
  Pd  Pd199  1  0.40566025  0.19411595  0.59445425  1
  Rh  Rh200  1  0.19698074  0.60976707  0.81356771  1
  Rh  Rh201  1  0.60492991  0.60550099  0.39922346  1
  Rh  Rh202  1  0.79201116  0.39519619  0.19095684  1
  Rh  Rh203  1  0.19860324  0.39698546  0.59976015  1
  Rh  Rh204  1  0.00677797  0.79535433  0.40319441  1
  Rh  Rh205  1  -0.00491120  0.40007029  0.00208507  1
  Rh  Rh206  1  0.40189484  0.79082145  0.39263729  1
  Rh  Rh207  1  0.80329628  0.21371171  0.58818167  1
  Rh  Rh208  1  0.79529018  0.59841397  0.80009321  1
  Rh  Rh209  1  0.59956447  -0.00358000  0.00869546  1
  Rh  Rh210  1  0.78808056  0.79370063  0.39064596  1
  Rh  Rh211  1  0.39749080  0.41199927  0.60456565  1
  Rh  Rh212  1  0.78677840  0.39612532  0.41189746  1
  Rh  Rh213  1  0.20508324  0.80107037  0.19937031  1
  Rh  Rh214  1  0.60864757  0.40586082  0.59537037  1
  Rh  Rh215  1  -0.01441827  -0.01127052  0.79486415  1
  Rh  Rh216  1  0.61281945  -0.00687977  0.40900561  1
  Rh  Rh217  1  0.60257732  0.20608979  -0.00742729  1
  Rh  Rh218  1  0.20356647  -0.01071916  0.20768919  1
  Rh  Rh219  1  0.59478009  0.79151049  0.80933113  1
  Rh  Rh220  1  0.39115144  -0.00051541  0.39949291  1
  Rh  Rh221  1  0.59181946  0.59081879  0.19289777  1
  Rh  Rh222  1  0.60247805  0.40275976  0.39750670  1
  Rh  Rh223  1  0.00081068  0.60203551  0.00484668  1
  Rh  Rh224  1  0.60086737  0.40669268  -0.00095026  1
  Rh  Rh225  1  -0.00241646  0.60451597  0.79771926  1
  Rh  Rh226  1  0.20663148  0.59362315  0.20223479  1
  Rh  Rh227  1  0.00897040  0.40426508  0.38900868  1
  Rh  Rh228  1  0.39512688  0.80647143  0.81056780  1
  Rh  Rh229  1  0.39521004  0.59630176  0.00481283  1
  Rh  Rh230  1  0.19882983  0.00516854  -0.00371790  1
  Rh  Rh231  1  0.20749944  0.00397452  0.58547979  1
  Rh  Rh232  1  0.19598770  0.19568449  0.40090279  1
  Rh  Rh233  1  0.19609273  0.39794369  0.19473473  1
  Rh  Rh234  1  0.00079587  0.80451545  0.19441342  1
  Rh  Rh235  1  0.79643133  0.40924552  -0.01134956  1
  Rh  Rh236  1  0.40396060  0.79593346  0.59180333  1
  Rh  Rh237  1  0.20781307  0.79134434  0.60954949  1
  Rh  Rh238  1  0.39796658  0.40828167  -0.00937114  1
  Rh  Rh239  1  0.59460005  0.19222235  0.60410466  1
  Rh  Rh240  1  0.40422926  0.19725112  0.01320768  1
  Rh  Rh241  1  0.59442762  0.79040464  -0.00176828  1
  Rh  Rh242  1  0.40308199  0.59105517  0.79071847  1
  Rh  Rh243  1  -0.00091795  0.19638112  0.59448991  1
  Rh  Rh244  1  0.40906994  0.00055416  0.01104034  1
  Rh  Rh245  1  0.79132478  0.79949407  0.20110468  1
  Rh  Rh246  1  0.20657928  0.00228742  0.80902547  1
  Rh  Rh247  1  0.79435618  0.19860519  -0.00200924  1
  Rh  Rh248  1  0.20933823  0.60545279  0.58768362  1
  Rh  Rh249  1  -0.00907280  0.79909723  0.60789222  1
