# generated using pymatgen
data_ZrScNbPdRh
_symmetry_space_group_name_H-M   'P 1'
_cell_length_a   16.55894440
_cell_length_b   16.55509631
_cell_length_c   16.55863189
_cell_angle_alpha   90.00890182
_cell_angle_beta   89.97927390
_cell_angle_gamma   90.00512558
_symmetry_Int_Tables_number   1
_chemical_formula_structural   ZrScNbPdRh
_chemical_formula_sum   'Zr50 Sc50 Nb50 Pd50 Rh50'
_cell_volume   4539.29884804
_cell_formula_units_Z   50
loop_
 _symmetry_equiv_pos_site_id
 _symmetry_equiv_pos_as_xyz
  1  'x, y, z'
loop_
 _atom_site_type_symbol
 _atom_site_label
 _atom_site_symmetry_multiplicity
 _atom_site_fract_x
 _atom_site_fract_y
 _atom_site_fract_z
 _atom_site_occupancy
  Zr  Zr0  1  0.69575579  0.30466977  0.30528648  1
  Zr  Zr1  1  0.90564580  0.10062144  0.90501307  1
  Zr  Zr2  1  0.50518587  0.69868131  0.29499817  1
  Zr  Zr3  1  0.30033707  0.09812080  0.31271641  1
  Zr  Zr4  1  0.90117490  0.09737239  0.70199585  1
  Zr  Zr5  1  0.70139022  0.50042256  0.29335770  1
  Zr  Zr6  1  0.48646336  0.49630569  0.50339149  1
  Zr  Zr7  1  0.89568426  0.69821788  0.29531740  1
  Zr  Zr8  1  0.30375559  0.30606438  0.09531127  1
  Zr  Zr9  1  0.09909423  0.89852082  0.30118159  1
  Zr  Zr10  1  0.68866729  0.90168427  0.89608010  1
  Zr  Zr11  1  0.30497010  0.30217718  0.90171097  1
  Zr  Zr12  1  0.70060181  0.89864672  0.48922436  1
  Zr  Zr13  1  0.29627933  0.70828805  0.90721282  1
  Zr  Zr14  1  0.29914793  0.29675463  0.70903285  1
  Zr  Zr15  1  0.10688220  0.09710827  0.29815927  1
  Zr  Zr16  1  0.69325642  0.89988402  0.29752726  1
  Zr  Zr17  1  0.10134367  0.90268294  0.10267016  1
  Zr  Zr18  1  0.69919562  0.70362730  0.69578707  1
  Zr  Zr19  1  0.90394485  0.31177095  0.69441116  1
  Zr  Zr20  1  0.30759349  0.91061461  0.69965932  1
  Zr  Zr21  1  0.89735906  0.30324168  0.49908215  1
  Zr  Zr22  1  0.72231138  0.49889749  0.70132823  1
  Zr  Zr23  1  0.49866143  0.50121116  0.89969864  1
  Zr  Zr24  1  0.89227794  0.49770502  0.89154853  1
  Zr  Zr25  1  0.88828469  0.89698012  0.30162300  1
  Zr  Zr26  1  0.10130252  0.89537655  0.50060830  1
  Zr  Zr27  1  0.09438977  0.10332145  0.10017170  1
  Zr  Zr28  1  0.90122771  0.70414579  0.10353946  1
  Zr  Zr29  1  0.50405490  0.49473976  0.30066607  1
  Zr  Zr30  1  0.29722047  0.09332030  0.88848134  1
  Zr  Zr31  1  0.69684531  0.09496724  0.30009233  1
  Zr  Zr32  1  0.69794045  0.29990770  0.49507681  1
  Zr  Zr33  1  0.10817486  0.10000490  0.50284227  1
  Zr  Zr34  1  0.70659748  0.30086436  0.09401813  1
  Zr  Zr35  1  0.30817413  0.30404888  0.49894657  1
  Zr  Zr36  1  0.09305106  0.69229459  0.29524113  1
  Zr  Zr37  1  0.69335061  0.09962847  0.69914671  1
  Zr  Zr38  1  0.30112984  0.70758159  0.69915578  1
  Zr  Zr39  1  0.09634821  0.89012539  0.70213186  1
  Zr  Zr40  1  0.30449851  0.30058096  0.30191542  1
  Zr  Zr41  1  0.50603656  0.70645623  0.90532934  1
  Zr  Zr42  1  0.30601655  0.70428703  0.50093709  1
  Zr  Zr43  1  0.69234536  0.90194929  0.69539631  1
  Zr  Zr44  1  0.10066343  0.30808343  0.89792584  1
  Zr  Zr45  1  0.70075492  0.29620395  0.69778033  1
  Zr  Zr46  1  0.90107547  0.90305219  0.69605898  1
  Zr  Zr47  1  0.69950675  0.69847439  0.30084995  1
  Zr  Zr48  1  0.49698978  0.09376811  0.29876755  1
  Zr  Zr49  1  0.49843975  0.29841525  0.69886428  1
  Sc  Sc50  1  0.90481601  0.29953546  0.09996136  1
  Sc  Sc51  1  0.29288779  0.90604863  0.90552293  1
  Sc  Sc52  1  0.49506035  0.89798817  0.10470792  1
  Sc  Sc53  1  0.70989500  0.49886686  0.49087525  1
  Sc  Sc54  1  0.29709598  0.09235604  0.10448345  1
  Sc  Sc55  1  0.50260324  0.29692087  0.49476979  1
  Sc  Sc56  1  0.30113695  0.89614215  0.09534154  1
  Sc  Sc57  1  0.50744167  0.90499546  0.69782154  1
  Sc  Sc58  1  0.10668866  0.70653819  0.50426881  1
  Sc  Sc59  1  0.50352792  0.50064252  0.10668579  1
  Sc  Sc60  1  0.30771523  0.70167514  0.30602191  1
  Sc  Sc61  1  0.49844932  0.70211503  0.49647786  1
  Sc  Sc62  1  0.69274223  0.69788357  0.10084510  1
  Sc  Sc63  1  0.69949524  0.69780220  0.49267942  1
  Sc  Sc64  1  0.69853697  0.70162161  0.91027732  1
  Sc  Sc65  1  0.89479734  0.68942979  0.49463016  1
  Sc  Sc66  1  0.89625428  0.49592198  0.09641329  1
  Sc  Sc67  1  0.89438021  0.09716258  0.50522208  1
  Sc  Sc68  1  0.89685364  0.50486029  0.29655967  1
  Sc  Sc69  1  0.49894168  0.29010856  0.90442267  1
  Sc  Sc70  1  0.49977693  0.89804532  0.29850931  1
  Sc  Sc71  1  0.29934593  0.89692329  0.50099004  1
  Sc  Sc72  1  0.30196121  0.89982172  0.30941208  1
  Sc  Sc73  1  0.29785328  0.69962779  0.10106731  1
  Sc  Sc74  1  0.09943329  0.49544461  0.49768071  1
  Sc  Sc75  1  0.10277617  0.29542979  0.29131693  1
  Sc  Sc76  1  0.31945923  0.49615613  0.70657457  1
  Sc  Sc77  1  0.89868570  0.91009399  0.89844798  1
  Sc  Sc78  1  0.49569025  0.09789051  0.69676620  1
  Sc  Sc79  1  0.89654974  0.90365743  0.10377186  1
  Sc  Sc80  1  0.69953551  0.50343399  0.09353587  1
  Sc  Sc81  1  0.49656982  0.30598890  0.09468929  1
  Sc  Sc82  1  0.88946995  0.09892602  0.29162103  1
  Sc  Sc83  1  0.09184562  0.49953004  0.90099903  1
  Sc  Sc84  1  0.69502911  0.10486448  0.49621680  1
  Sc  Sc85  1  0.10379987  0.69180680  0.09462818  1
  Sc  Sc86  1  0.89292740  0.10370277  0.09828935  1
  Sc  Sc87  1  0.90245235  0.30307156  0.91120122  1
  Sc  Sc88  1  0.90303414  0.69711236  0.70483136  1
  Sc  Sc89  1  0.31093493  0.49661217  0.30489903  1
  Sc  Sc90  1  0.70072778  0.90385982  0.09916495  1
  Sc  Sc91  1  0.50152702  0.70924323  0.69560035  1
  Sc  Sc92  1  0.88940335  0.30399189  0.29095415  1
  Sc  Sc93  1  0.09839847  0.50280246  0.09644420  1
  Sc  Sc94  1  0.30097752  0.49476277  0.89838336  1
  Sc  Sc95  1  0.09893106  0.29852455  0.50736717  1
  Sc  Sc96  1  0.90262250  0.70123152  0.89848765  1
  Sc  Sc97  1  0.49426903  0.10442442  0.49788340  1
  Sc  Sc98  1  0.49960159  0.09223076  0.09671329  1
  Sc  Sc99  1  0.69441911  0.09864103  0.90937529  1
  Nb  Nb100  1  0.09990275  0.30564556  0.70334805  1
  Nb  Nb101  1  0.49833909  0.08979823  0.89938759  1
  Nb  Nb102  1  0.09978911  0.29986468  0.09537259  1
  Nb  Nb103  1  0.70239231  0.30451642  0.89807246  1
  Nb  Nb104  1  0.90106608  0.89962070  0.49759773  1
  Nb  Nb105  1  0.29461009  0.09639372  0.69399634  1
  Nb  Nb106  1  0.10128594  0.09463185  0.90228465  1
  Nb  Nb107  1  0.70046053  0.49662498  0.89861892  1
  Nb  Nb108  1  0.49794666  0.69899996  0.09899606  1
  Nb  Nb109  1  0.10133960  0.71115234  0.89235072  1
  Nb  Nb110  1  0.10054140  0.70075406  0.70383963  1
  Nb  Nb111  1  0.10882221  0.10428397  0.70351011  1
  Nb  Nb112  1  0.09556428  0.49052492  0.70640912  1
  Nb  Nb113  1  0.10385636  0.49851961  0.30010401  1
  Nb  Nb114  1  0.90091954  0.49633811  0.50679517  1
  Nb  Nb115  1  0.30051510  0.09810619  0.50653869  1
  Nb  Nb116  1  0.29901821  0.50005012  0.50336214  1
  Nb  Nb117  1  0.50480786  0.49912496  0.70390597  1
  Nb  Nb118  1  0.70081313  0.10063979  0.10808871  1
  Nb  Nb119  1  0.49620369  0.90448964  0.89772385  1
  Nb  Nb120  1  0.50097510  0.29872278  0.29962939  1
  Nb  Nb121  1  0.30471262  0.49841545  0.09870816  1
  Nb  Nb122  1  0.50045795  0.89066685  0.50663096  1
  Nb  Nb123  1  0.10262254  0.90064252  0.90334433  1
  Nb  Nb124  1  0.90411233  0.49860695  0.69313643  1
  Nb  Nb125  1  -0.00502466  0.80176213  0.39866919  1
  Nb  Nb126  1  0.40389845  0.20075486  0.20427158  1
  Nb  Nb127  1  0.00576093  0.19954709  0.79676666  1
  Nb  Nb128  1  0.19554127  0.19962990  -0.00292450  1
  Nb  Nb129  1  0.20225698  0.40446506  0.60771832  1
  Nb  Nb130  1  0.60195037  0.40593216  0.60488581  1
  Nb  Nb131  1  -0.00002004  0.39913580  0.39611909  1
  Nb  Nb132  1  0.80368267  0.20154083  0.80195127  1
  Nb  Nb133  1  0.19598727  0.79693908  0.20347422  1
  Nb  Nb134  1  0.80232448  0.80449703  0.59855136  1
  Nb  Nb135  1  0.00609573  0.59389952  0.60704039  1
  Nb  Nb136  1  0.19391433  0.60287217  0.79439558  1
  Nb  Nb137  1  0.60150347  0.59089384  0.60510458  1
  Nb  Nb138  1  0.60398066  0.59428739  0.79753060  1
  Nb  Nb139  1  -0.00191818  -0.00028570  0.40059499  1
  Nb  Nb140  1  0.59800123  0.20123410  0.19918280  1
  Nb  Nb141  1  0.20165935  0.40474328  0.19635095  1
  Nb  Nb142  1  -0.00107030  0.19786352  0.39815400  1
  Nb  Nb143  1  0.20272118  0.59459369  0.40486538  1
  Nb  Nb144  1  0.79544462  0.80669918  0.79499895  1
  Nb  Nb145  1  0.00686673  0.80323080  -0.00446757  1
  Nb  Nb146  1  0.40155712  0.60195540  0.00407304  1
  Nb  Nb147  1  0.19919840  0.59304174  0.60601340  1
  Nb  Nb148  1  0.60603290  0.40173595  0.79983735  1
  Nb  Nb149  1  0.40432644  0.80836679  0.80713568  1
  Pd  Pd150  1  0.60413425  0.39382548  0.19273695  1
  Pd  Pd151  1  0.39347176  0.18704898  0.00647550  1
  Pd  Pd152  1  0.80116891  0.60132967  0.00087349  1
  Pd  Pd153  1  0.78888124  0.79892528  0.19420761  1
  Pd  Pd154  1  -0.00565237  0.20014694  0.20549004  1
  Pd  Pd155  1  0.59963461  -0.00429379  0.00734231  1
  Pd  Pd156  1  0.59749209  0.40094457  -0.00414107  1
  Pd  Pd157  1  0.21001350  -0.01069777  0.20232872  1
  Pd  Pd158  1  0.80555525  0.19609180  0.39599310  1
  Pd  Pd159  1  0.20406157  0.59422798  -0.01080895  1
  Pd  Pd160  1  0.00713280  0.00565049  0.59687312  1
  Pd  Pd161  1  -0.00847336  0.00349261  0.20386247  1
  Pd  Pd162  1  0.59867082  0.19822611  0.00501244  1
  Pd  Pd163  1  0.00390050  0.59866570  0.79908337  1
  Pd  Pd164  1  0.19524276  0.20049196  0.80708515  1
  Pd  Pd165  1  0.40223335  0.61369586  0.80697702  1
  Pd  Pd166  1  0.40334931  0.60441752  0.60408260  1
  Pd  Pd167  1  0.40269783  -0.00862028  0.41065142  1
  Pd  Pd168  1  0.21038949  0.59705845  0.20924698  1
  Pd  Pd169  1  0.20570355  0.20911489  0.59973747  1
  Pd  Pd170  1  0.39787242  0.59895889  0.19754902  1
  Pd  Pd171  1  0.80027769  0.19871225  0.60303884  1
  Pd  Pd172  1  0.80797133  0.80631562  -0.00775035  1
  Pd  Pd173  1  0.20915023  0.80680316  0.79831548  1
  Pd  Pd174  1  0.39218246  0.80156581  0.20178231  1
  Pd  Pd175  1  0.79223988  -0.00285804  0.59280119  1
  Pd  Pd176  1  0.19538230  0.20740015  0.40502421  1
  Pd  Pd177  1  0.60230725  0.19938588  0.80698632  1
  Pd  Pd178  1  0.39649172  0.00023780  0.00069077  1
  Pd  Pd179  1  0.39757163  0.19845980  0.60083922  1
  Pd  Pd180  1  0.20942289  0.20671540  0.19105921  1
  Pd  Pd181  1  0.19465133  0.39985832  0.39919072  1
  Pd  Pd182  1  0.01008490  0.00233634  0.79804926  1
  Pd  Pd183  1  -0.00449227  0.59045647  0.19247739  1
  Pd  Pd184  1  0.40326754  0.19080583  0.80012838  1
  Pd  Pd185  1  0.79607473  0.61255335  0.80615464  1
  Pd  Pd186  1  0.58978894  -0.00229365  0.40626827  1
  Pd  Pd187  1  0.00562992  0.40416790  0.20184013  1
  Pd  Pd188  1  0.59692115  0.59310472  0.40893355  1
  Pd  Pd189  1  -0.00374103  0.60547443  -0.00426057  1
  Pd  Pd190  1  0.79829660  0.19805307  -0.00494280  1
  Pd  Pd191  1  0.19638463  0.40275106  0.00310408  1
  Pd  Pd192  1  0.19674137  -0.00755338  0.60216510  1
  Pd  Pd193  1  0.59448535  0.00617587  0.58895896  1
  Pd  Pd194  1  -0.00270460  -0.00521381  0.00622447  1
  Pd  Pd195  1  0.79129888  0.00447099  0.80530420  1
  Pd  Pd196  1  -0.01044948  0.78614653  0.59197120  1
  Pd  Pd197  1  0.00086298  0.19614238  0.60118316  1
  Pd  Pd198  1  0.59654699  0.80878422  0.00986758  1
  Pd  Pd199  1  0.00554101  0.59776205  0.40863363  1
  Rh  Rh200  1  0.59979120  0.79902984  0.19730179  1
  Rh  Rh201  1  0.79341910  0.39846522  0.59123599  1
  Rh  Rh202  1  0.00927564  0.20207978  -0.00522365  1
  Rh  Rh203  1  0.59686789  0.20281919  0.59515924  1
  Rh  Rh204  1  0.40373501  0.79777412  -0.00274964  1
  Rh  Rh205  1  0.39562086  0.00229222  0.20297756  1
  Rh  Rh206  1  0.78980297  0.20452165  0.19927603  1
  Rh  Rh207  1  0.80406059  0.79441193  0.40488155  1
  Rh  Rh208  1  0.20000764  0.00749150  0.00064812  1
  Rh  Rh209  1  0.40895871  0.80310029  0.39987229  1
  Rh  Rh210  1  0.60671361  0.79273332  0.58772009  1
  Rh  Rh211  1  0.20491682  0.80257491  0.60602272  1
  Rh  Rh212  1  0.19082695  0.80140940  0.00950388  1
  Rh  Rh213  1  0.59492182  0.00794529  0.80039415  1
  Rh  Rh214  1  0.80110552  0.59426165  0.39609918  1
  Rh  Rh215  1  0.39723054  0.39593451  0.20078420  1
  Rh  Rh216  1  0.20019354  0.00072232  0.40784374  1
  Rh  Rh217  1  0.79553680  0.00338439  0.00192953  1
  Rh  Rh218  1  0.41004800  0.39114152  0.80635207  1
  Rh  Rh219  1  -0.00909169  0.39483961  0.80561525  1
  Rh  Rh220  1  0.40717713  0.41064392  -0.00128601  1
  Rh  Rh221  1  0.59530303  0.19765252  0.39202075  1
  Rh  Rh222  1  0.79695860  -0.00155298  0.19718236  1
  Rh  Rh223  1  0.40432085  0.00026926  0.79739373  1
  Rh  Rh224  1  -0.00243621  0.40371347  0.00270274  1
  Rh  Rh225  1  0.80179821  0.40195950  0.00037713  1
  Rh  Rh226  1  0.40244269  0.80669688  0.60616313  1
  Rh  Rh227  1  0.59864020  0.79630508  0.80333318  1
  Rh  Rh228  1  0.59897978  0.00205975  0.19481945  1
  Rh  Rh229  1  0.39730053  0.60026844  0.40010119  1
  Rh  Rh230  1  0.59430979  0.40415383  0.40795896  1
  Rh  Rh231  1  0.40550667  0.39864433  0.39864271  1
  Rh  Rh232  1  0.81089954  0.40659453  0.39749607  1
  Rh  Rh233  1  0.59441630  0.80050738  0.39761928  1
  Rh  Rh234  1  0.19247213  -0.00538456  0.79418130  1
  Rh  Rh235  1  0.40092354  0.19885226  0.39780219  1
  Rh  Rh236  1  0.59429069  0.59674423  -0.00219488  1
  Rh  Rh237  1  0.80339224  0.00559580  0.40167535  1
  Rh  Rh238  1  0.40185572  0.00111533  0.59413779  1
  Rh  Rh239  1  -0.00913235  0.80768868  0.80916829  1
  Rh  Rh240  1  0.79569912  0.40168661  0.19433758  1
  Rh  Rh241  1  0.19115834  0.78553286  0.38841542  1
  Rh  Rh242  1  0.80400285  0.39006624  0.80376381  1
  Rh  Rh243  1  0.60038362  0.60042544  0.19735017  1
  Rh  Rh244  1  0.80427322  0.60501041  0.59619119  1
  Rh  Rh245  1  0.79725591  0.60069762  0.19290426  1
  Rh  Rh246  1  0.00684509  0.79679565  0.19422200  1
  Rh  Rh247  1  0.20720155  0.41052038  0.79413300  1
  Rh  Rh248  1  0.00931249  0.40517336  0.59198725  1
  Rh  Rh249  1  0.40036845  0.39440275  0.60393560  1
