# generated using pymatgen
data_ZrScNbPdRh
_symmetry_space_group_name_H-M   'P 1'
_cell_length_a   16.56200200
_cell_length_b   16.55640935
_cell_length_c   16.56539658
_cell_angle_alpha   90.01382459
_cell_angle_beta   89.99054751
_cell_angle_gamma   89.98707933
_symmetry_Int_Tables_number   1
_chemical_formula_structural   ZrScNbPdRh
_chemical_formula_sum   'Zr50 Sc50 Nb50 Pd50 Rh50'
_cell_volume   4542.35210522
_cell_formula_units_Z   50
loop_
 _symmetry_equiv_pos_site_id
 _symmetry_equiv_pos_as_xyz
  1  'x, y, z'
loop_
 _atom_site_type_symbol
 _atom_site_label
 _atom_site_symmetry_multiplicity
 _atom_site_fract_x
 _atom_site_fract_y
 _atom_site_fract_z
 _atom_site_occupancy
  Zr  Zr0  1  0.70280720  0.09854060  0.49742618  1
  Zr  Zr1  1  0.30161238  0.70131643  0.09351147  1
  Zr  Zr2  1  0.50439881  0.89349293  0.30580328  1
  Zr  Zr3  1  0.70157753  0.69277589  0.90539653  1
  Zr  Zr4  1  0.28947109  0.29857677  0.10037153  1
  Zr  Zr5  1  0.70817808  0.30024114  0.90430516  1
  Zr  Zr6  1  0.89492517  0.68756584  0.09702213  1
  Zr  Zr7  1  0.30221711  0.69937807  0.30534248  1
  Zr  Zr8  1  0.29819921  0.50449328  0.50389134  1
  Zr  Zr9  1  0.09809797  0.90948694  0.09655576  1
  Zr  Zr10  1  0.09904771  0.90673662  0.30208788  1
  Zr  Zr11  1  0.29152554  0.30110267  0.89992149  1
  Zr  Zr12  1  0.09782063  0.30041014  0.70364670  1
  Zr  Zr13  1  0.49812235  0.10562332  0.50117438  1
  Zr  Zr14  1  0.50584241  0.09799730  0.30652625  1
  Zr  Zr15  1  0.30025841  0.70254103  0.89459741  1
  Zr  Zr16  1  0.29521116  0.10279923  0.09593450  1
  Zr  Zr17  1  0.70370528  0.29829809  0.30381754  1
  Zr  Zr18  1  0.29401373  0.70375501  0.69656566  1
  Zr  Zr19  1  0.09515702  0.30199216  0.29800740  1
  Zr  Zr20  1  0.09840037  0.10459912  0.70504149  1
  Zr  Zr21  1  0.50409910  0.29252671  0.09557110  1
  Zr  Zr22  1  0.70032046  0.30939827  0.50181826  1
  Zr  Zr23  1  0.50376025  0.30463446  0.49850031  1
  Zr  Zr24  1  0.89453726  0.69536535  0.89243732  1
  Zr  Zr25  1  0.09813825  0.10211989  0.50588909  1
  Zr  Zr26  1  0.50390841  0.50524461  0.89449125  1
  Zr  Zr27  1  0.08831911  0.49984635  0.09767228  1
  Zr  Zr28  1  0.89564227  0.10115098  0.70102228  1
  Zr  Zr29  1  0.29187824  0.29832844  0.70883699  1
  Zr  Zr30  1  0.09815433  0.49834411  0.68926974  1
  Zr  Zr31  1  0.30798343  0.09572420  0.50225061  1
  Zr  Zr32  1  0.90643481  0.49858258  0.29722118  1
  Zr  Zr33  1  0.70771791  0.69629100  0.50038383  1
  Zr  Zr34  1  0.49919614  0.50626265  0.70024118  1
  Zr  Zr35  1  0.69615088  0.29705978  0.09620427  1
  Zr  Zr36  1  0.69985763  0.88906415  0.89638861  1
  Zr  Zr37  1  0.09934990  0.90682007  0.89817397  1
  Zr  Zr38  1  0.89533797  0.09729622  0.50354166  1
  Zr  Zr39  1  0.70513798  0.70649508  0.70213494  1
  Zr  Zr40  1  0.90264708  0.10304595  0.90323412  1
  Zr  Zr41  1  0.70541339  0.90126872  0.49967305  1
  Zr  Zr42  1  0.30325197  0.49813787  0.30037285  1
  Zr  Zr43  1  0.69929100  0.50317886  0.50001959  1
  Zr  Zr44  1  0.29134631  0.49835481  0.09980439  1
  Zr  Zr45  1  0.89924077  0.90051443  0.50282416  1
  Zr  Zr46  1  0.49413372  0.09155125  0.69997893  1
  Zr  Zr47  1  0.50528256  0.70717521  0.50054279  1
  Zr  Zr48  1  0.09900939  0.69563480  0.09169637  1
  Zr  Zr49  1  0.29596956  0.89634537  0.09121698  1
  Sc  Sc50  1  0.89941960  0.89756960  0.70033239  1
  Sc  Sc51  1  0.49526188  0.30771321  0.69056278  1
  Sc  Sc52  1  0.70003632  0.09995913  0.30063815  1
  Sc  Sc53  1  0.89763782  0.90588058  0.10482162  1
  Sc  Sc54  1  0.09584152  0.50340624  0.90003796  1
  Sc  Sc55  1  0.09554299  0.69728226  0.69876817  1
  Sc  Sc56  1  0.90292420  0.70223033  0.50208989  1
  Sc  Sc57  1  0.30673875  0.89968683  0.70215870  1
  Sc  Sc58  1  0.70181923  0.50085821  0.29918908  1
  Sc  Sc59  1  0.10028017  0.69861396  0.89102228  1
  Sc  Sc60  1  0.50754277  0.69809218  0.10110660  1
  Sc  Sc61  1  0.09545052  0.69886256  0.31474882  1
  Sc  Sc62  1  0.09548903  0.50056673  0.30179448  1
  Sc  Sc63  1  0.89625029  0.90502562  0.29604451  1
  Sc  Sc64  1  0.29453401  0.89573012  0.89564260  1
  Sc  Sc65  1  0.09277688  0.09828586  0.89667516  1
  Sc  Sc66  1  0.70641013  0.10227902  0.89270110  1
  Sc  Sc67  1  0.89951348  0.30327907  0.49067423  1
  Sc  Sc68  1  0.29371140  0.71245945  0.50229460  1
  Sc  Sc69  1  0.29659641  0.49599776  0.70873805  1
  Sc  Sc70  1  0.89604832  0.50345466  0.90774964  1
  Sc  Sc71  1  0.09821928  0.88851955  0.50007627  1
  Sc  Sc72  1  0.69940123  0.90240045  0.29252298  1
  Sc  Sc73  1  0.89711725  0.29611343  0.90799840  1
  Sc  Sc74  1  0.29539803  0.09338322  0.30631630  1
  Sc  Sc75  1  0.30266685  0.10155570  0.70322804  1
  Sc  Sc76  1  0.30127034  0.10515742  0.89264113  1
  Sc  Sc77  1  0.09994705  0.89582614  0.70501153  1
  Sc  Sc78  1  0.49324540  0.89985151  0.50330129  1
  Sc  Sc79  1  0.90300987  0.90522763  0.89469876  1
  Sc  Sc80  1  0.50899578  0.49486814  0.10252227  1
  Sc  Sc81  1  0.29518343  0.90017793  0.31709507  1
  Sc  Sc82  1  0.70712882  0.49881604  0.68756986  1
  Sc  Sc83  1  0.50184202  0.30092263  0.31004449  1
  Sc  Sc84  1  0.50641320  0.50207625  0.29358643  1
  Sc  Sc85  1  0.90014406  0.50008149  0.50295692  1
  Sc  Sc86  1  0.10183783  0.69650294  0.50899873  1
  Sc  Sc87  1  0.09884867  0.30090961  0.09617478  1
  Sc  Sc88  1  0.09157186  0.30481476  0.51087217  1
  Sc  Sc89  1  0.89568123  0.69004110  0.30031366  1
  Sc  Sc90  1  0.50419870  0.29758650  0.90649264  1
  Sc  Sc91  1  0.69713713  0.49914565  0.09647519  1
  Sc  Sc92  1  0.90498665  0.10596448  0.10570906  1
  Sc  Sc93  1  0.50196687  0.88857809  0.88959793  1
  Sc  Sc94  1  0.69933909  0.69694751  0.30032697  1
  Sc  Sc95  1  0.49842993  0.10876848  0.90128363  1
  Sc  Sc96  1  0.90037424  0.50487264  0.69523199  1
  Sc  Sc97  1  0.51408163  0.88654209  0.10195399  1
  Sc  Sc98  1  0.09713423  0.10026099  0.29197942  1
  Sc  Sc99  1  0.31953271  0.29689130  0.50027193  1
  Nb  Nb100  1  0.49978629  0.69413692  0.88943236  1
  Nb  Nb101  1  0.89927870  0.30075162  0.09930962  1
  Nb  Nb102  1  0.70077336  0.89624788  0.09751186  1
  Nb  Nb103  1  0.69357200  0.90443284  0.70692103  1
  Nb  Nb104  1  0.90302655  0.69494074  0.69928718  1
  Nb  Nb105  1  0.69500176  0.49578650  0.90184559  1
  Nb  Nb106  1  0.69029433  0.09917639  0.09864669  1
  Nb  Nb107  1  0.49546288  0.70801638  0.70499726  1
  Nb  Nb108  1  0.49901801  0.49785372  0.50578131  1
  Nb  Nb109  1  0.70418333  0.10081333  0.69687288  1
  Nb  Nb110  1  0.30480246  0.49937927  0.89685796  1
  Nb  Nb111  1  0.09774888  0.49579996  0.50307252  1
  Nb  Nb112  1  0.90612144  0.50046484  0.10073197  1
  Nb  Nb113  1  0.90187571  0.29031743  0.29307074  1
  Nb  Nb114  1  0.49598568  0.70278193  0.30077566  1
  Nb  Nb115  1  0.70886937  0.30087018  0.70143950  1
  Nb  Nb116  1  0.09660791  0.09130132  0.10050985  1
  Nb  Nb117  1  0.49993741  0.10216370  0.09832831  1
  Nb  Nb118  1  0.89356440  0.30479940  0.70292145  1
  Nb  Nb119  1  0.29804236  0.30117873  0.30047810  1
  Nb  Nb120  1  0.29510591  0.90093208  0.50508731  1
  Nb  Nb121  1  0.90413150  0.11384838  0.30264021  1
  Nb  Nb122  1  0.09391004  0.30076986  0.89275331  1
  Nb  Nb123  1  0.50546314  0.89385037  0.70003455  1
  Nb  Nb124  1  0.70115872  0.71835963  0.09541781  1
  Nb  Nb125  1  0.60903025  0.39808096  0.79773764  1
  Nb  Nb126  1  0.39719132  0.39135617  0.19634180  1
  Nb  Nb127  1  -0.00462470  0.00618632  0.40153770  1
  Nb  Nb128  1  0.40446280  -0.00195464  0.19374962  1
  Nb  Nb129  1  0.40818993  -0.00131122  0.00615500  1
  Nb  Nb130  1  0.80964190  0.39425331  0.19569134  1
  Nb  Nb131  1  0.40408295  0.60451948  0.59953627  1
  Nb  Nb132  1  0.19808457  0.60465147  0.19933118  1
  Nb  Nb133  1  0.39673398  0.80166396  0.20335294  1
  Nb  Nb134  1  0.20073880  0.39631777  0.40337484  1
  Nb  Nb135  1  0.79003649  0.00087323  0.00685023  1
  Nb  Nb136  1  0.60327441  -0.00079280  0.60769708  1
  Nb  Nb137  1  0.40846925  0.60098801  0.40753618  1
  Nb  Nb138  1  -0.00197594  0.79961382  0.00182459  1
  Nb  Nb139  1  -0.00347219  0.39636298  0.79896911  1
  Nb  Nb140  1  0.19814600  0.79725696  0.20033422  1
  Nb  Nb141  1  0.00382355  0.79673619  0.19537971  1
  Nb  Nb142  1  0.60696775  0.19806622  0.60625881  1
  Nb  Nb143  1  0.39860963  0.19719397  0.20126007  1
  Nb  Nb144  1  0.20068553  0.20683426  0.40221747  1
  Nb  Nb145  1  0.60777402  0.20517116  0.78835314  1
  Nb  Nb146  1  0.40080483  0.59628395  -0.00727478  1
  Nb  Nb147  1  0.20293192  -0.00159712  0.59823171  1
  Nb  Nb148  1  0.39510848  0.40394973  0.00044281  1
  Nb  Nb149  1  0.60216645  -0.00107000  0.00160272  1
  Pd  Pd150  1  0.40965321  0.39147963  0.80690511  1
  Pd  Pd151  1  0.59754268  0.00801085  0.80498296  1
  Pd  Pd152  1  0.79124374  0.59277100  0.19364012  1
  Pd  Pd153  1  0.20104066  0.59557227  0.40042244  1
  Pd  Pd154  1  0.80564089  0.79660556  0.20368673  1
  Pd  Pd155  1  0.60445364  0.80519348  0.59994131  1
  Pd  Pd156  1  -0.01263587  0.20766781  0.60250883  1
  Pd  Pd157  1  0.81225652  0.80751313  -0.00291821  1
  Pd  Pd158  1  0.20891705  0.19896840  0.59413494  1
  Pd  Pd159  1  0.19378840  0.40381262  -0.00877134  1
  Pd  Pd160  1  -0.00256784  0.39483672  0.19743136  1
  Pd  Pd161  1  -0.00351353  0.59661857  0.40932904  1
  Pd  Pd162  1  0.18701065  0.19317112  -0.00765001  1
  Pd  Pd163  1  0.40115131  -0.00725642  0.81075421  1
  Pd  Pd164  1  0.00627110  0.19873328  0.40336766  1
  Pd  Pd165  1  0.80207757  0.79800212  0.39157152  1
  Pd  Pd166  1  0.41019965  0.20967025  0.79751884  1
  Pd  Pd167  1  0.59904532  0.60340050  0.00592848  1
  Pd  Pd168  1  0.80725032  0.40412433  0.39204997  1
  Pd  Pd169  1  0.00863134  -0.00821030  0.60046580  1
  Pd  Pd170  1  0.00641640  0.19975874  0.00557539  1
  Pd  Pd171  1  0.59518997  -0.00387088  0.19574858  1
  Pd  Pd172  1  0.80379649  0.80231390  0.60679483  1
  Pd  Pd173  1  0.80195558  0.20872137  0.59383056  1
  Pd  Pd174  1  0.61313974  0.59665840  0.79008669  1
  Pd  Pd175  1  0.20671370  0.00862194  -0.01260810  1
  Pd  Pd176  1  0.19846107  0.19464761  0.20600661  1
  Pd  Pd177  1  0.20847609  0.39182469  0.59326293  1
  Pd  Pd178  1  0.19668639  0.59536664  0.79593080  1
  Pd  Pd179  1  -0.00777101  0.80560650  0.39276378  1
  Pd  Pd180  1  0.80499139  0.00452676  0.38880353  1
  Pd  Pd181  1  0.61041993  0.80178507  0.39845444  1
  Pd  Pd182  1  0.39186401  0.40584935  0.60534128  1
  Pd  Pd183  1  0.20952140  -0.00542083  0.20286145  1
  Pd  Pd184  1  0.79631782  0.19862893  0.19399355  1
  Pd  Pd185  1  0.59509831  0.20352763  0.20869964  1
  Pd  Pd186  1  0.59777754  0.60593205  0.60539906  1
  Pd  Pd187  1  0.80209023  -0.00233674  0.80314468  1
  Pd  Pd188  1  0.40030224  0.59897127  0.19706327  1
  Pd  Pd189  1  0.20250038  0.59752815  -0.00493755  1
  Pd  Pd190  1  0.80161577  0.01134457  0.19779629  1
  Pd  Pd191  1  0.80440666  0.40614417  0.00806325  1
  Pd  Pd192  1  0.80304951  0.40945074  0.80179620  1
  Pd  Pd193  1  0.41323605  0.79766536  -0.00010627  1
  Pd  Pd194  1  0.59544261  0.59716557  0.39823842  1
  Pd  Pd195  1  0.60858409  0.60779455  0.19490257  1
  Pd  Pd196  1  0.79637227  0.59043270  0.79633028  1
  Pd  Pd197  1  0.40422277  -0.00495407  0.39849977  1
  Pd  Pd198  1  -0.00244374  0.79834867  0.80328964  1
  Pd  Pd199  1  0.59788631  0.40935734  0.39584293  1
  Rh  Rh200  1  0.00750593  0.60839646  0.20396033  1
  Rh  Rh201  1  0.39630668  0.79844225  0.40161170  1
  Rh  Rh202  1  0.60139406  0.79339265  0.20637757  1
  Rh  Rh203  1  0.79168637  0.59503746  0.00627011  1
  Rh  Rh204  1  0.79439464  -0.00937987  0.60999325  1
  Rh  Rh205  1  0.79822490  0.19023655  0.00805201  1
  Rh  Rh206  1  0.79876053  0.20062383  0.40220598  1
  Rh  Rh207  1  0.39995689  -0.00811219  0.60284004  1
  Rh  Rh208  1  0.19800092  0.40936950  0.20987001  1
  Rh  Rh209  1  0.19560306  0.19618575  0.80591630  1
  Rh  Rh210  1  0.40214264  0.40859999  0.39346767  1
  Rh  Rh211  1  0.39226772  0.20217507  0.00405376  1
  Rh  Rh212  1  -0.00279385  0.39671660  -0.00782646  1
  Rh  Rh213  1  0.80544545  0.60567574  0.59805991  1
  Rh  Rh214  1  -0.00942744  0.39839699  0.60595796  1
  Rh  Rh215  1  0.60274366  0.78893201  0.80179964  1
  Rh  Rh216  1  0.19905099  0.80072824  0.79800069  1
  Rh  Rh217  1  -0.01022985  0.20753938  0.79907996  1
  Rh  Rh218  1  0.40425172  0.20235185  0.60896112  1
  Rh  Rh219  1  0.59403996  0.40193950  -0.00810021  1
  Rh  Rh220  1  0.18704692  0.40557971  0.80561470  1
  Rh  Rh221  1  0.80253263  0.20011240  0.80046677  1
  Rh  Rh222  1  -0.01122096  -0.00135456  0.00223233  1
  Rh  Rh223  1  0.39728452  0.80113071  0.79789064  1
  Rh  Rh224  1  0.18844764  0.00644359  0.41325451  1
  Rh  Rh225  1  0.00397222  0.40128446  0.40216304  1
  Rh  Rh226  1  0.80291892  0.59738940  0.40316100  1
  Rh  Rh227  1  0.60411843  0.39640775  0.60656636  1
  Rh  Rh228  1  0.39358561  0.60780641  0.79512032  1
  Rh  Rh229  1  0.60755412  0.20101632  0.40748880  1
  Rh  Rh230  1  -0.00502703  0.60514204  -0.00990498  1
  Rh  Rh231  1  0.59729946  0.79672592  -0.00898636  1
  Rh  Rh232  1  0.39219016  0.19543649  0.38865076  1
  Rh  Rh233  1  0.20042711  0.00242118  0.79145710  1
  Rh  Rh234  1  0.60064042  -0.00585889  0.40934317  1
  Rh  Rh235  1  0.00003824  0.60141166  0.59714669  1
  Rh  Rh236  1  0.20287164  0.59953681  0.60149770  1
  Rh  Rh237  1  0.60491133  0.39227252  0.20391863  1
  Rh  Rh238  1  0.80593804  0.39937347  0.59570100  1
  Rh  Rh239  1  0.18502464  0.80203928  -0.00615118  1
  Rh  Rh240  1  -0.00266884  0.79466257  0.60634034  1
  Rh  Rh241  1  0.39968981  0.79890597  0.60245871  1
  Rh  Rh242  1  0.60985651  0.19056235  -0.01341859  1
  Rh  Rh243  1  -0.00195337  0.59136226  0.79719563  1
  Rh  Rh244  1  -0.00224960  0.00278563  0.79278030  1
  Rh  Rh245  1  0.00777558  0.20016591  0.19036518  1
  Rh  Rh246  1  0.80347697  0.80075030  0.79550255  1
  Rh  Rh247  1  0.19556252  0.80918225  0.60416818  1
  Rh  Rh248  1  0.19613494  0.79930259  0.40079618  1
  Rh  Rh249  1  -0.00691281  0.00255125  0.20784312  1
