# generated using pymatgen
data_ZrScNbPdRh
_symmetry_space_group_name_H-M   'P 1'
_cell_length_a   16.55414102
_cell_length_b   16.55518987
_cell_length_c   16.55074863
_cell_angle_alpha   89.99348410
_cell_angle_beta   90.01040457
_cell_angle_gamma   89.95984211
_symmetry_Int_Tables_number   1
_chemical_formula_structural   ZrScNbPdRh
_chemical_formula_sum   'Zr50 Sc50 Nb50 Pd50 Rh50'
_cell_volume   4535.84643684
_cell_formula_units_Z   50
loop_
 _symmetry_equiv_pos_site_id
 _symmetry_equiv_pos_as_xyz
  1  'x, y, z'
loop_
 _atom_site_type_symbol
 _atom_site_label
 _atom_site_symmetry_multiplicity
 _atom_site_fract_x
 _atom_site_fract_y
 _atom_site_fract_z
 _atom_site_occupancy
  Zr  Zr0  1  0.89238900  0.90152724  0.30417263  1
  Zr  Zr1  1  0.90507145  0.30555644  0.09454764  1
  Zr  Zr2  1  0.09553083  0.11003414  0.30343644  1
  Zr  Zr3  1  0.09776090  0.29022512  0.09618272  1
  Zr  Zr4  1  0.69190873  0.28646741  0.10618211  1
  Zr  Zr5  1  0.49791662  0.30630697  0.49760528  1
  Zr  Zr6  1  0.29748387  0.10000655  0.49377016  1
  Zr  Zr7  1  0.49273500  0.09198074  0.29829546  1
  Zr  Zr8  1  0.29230357  0.70395798  0.30209586  1
  Zr  Zr9  1  0.90323571  0.89865547  0.71318626  1
  Zr  Zr10  1  0.69838242  0.70357413  0.30133163  1
  Zr  Zr11  1  0.70416806  0.29338664  0.69907766  1
  Zr  Zr12  1  0.29784530  0.10332015  0.89608412  1
  Zr  Zr13  1  0.70771292  0.10597441  0.50368006  1
  Zr  Zr14  1  0.09857428  0.89841629  0.69783739  1
  Zr  Zr15  1  0.70660466  0.69131853  0.10089150  1
  Zr  Zr16  1  0.50445091  0.50244639  0.50071937  1
  Zr  Zr17  1  0.68895907  0.50361789  0.30219318  1
  Zr  Zr18  1  0.30153330  0.68897733  0.69514434  1
  Zr  Zr19  1  0.50874307  0.31572067  0.29625766  1
  Zr  Zr20  1  0.90160831  0.69955409  0.90131950  1
  Zr  Zr21  1  0.50386247  0.90617053  0.89499631  1
  Zr  Zr22  1  0.29771775  0.49471740  0.50759369  1
  Zr  Zr23  1  0.49451925  0.70139892  0.90043702  1
  Zr  Zr24  1  0.10834388  0.30029304  0.69765481  1
  Zr  Zr25  1  0.50059204  0.50573915  0.90186451  1
  Zr  Zr26  1  0.71263396  0.29948377  0.89760560  1
  Zr  Zr27  1  0.70236427  0.90139868  0.10430018  1
  Zr  Zr28  1  0.69885325  0.09704971  0.09318720  1
  Zr  Zr29  1  0.49558991  0.09927737  0.49854410  1
  Zr  Zr30  1  0.09446414  0.50342074  0.69524571  1
  Zr  Zr31  1  0.90720109  0.89560546  0.09185825  1
  Zr  Zr32  1  0.30985073  0.70089358  0.49871810  1
  Zr  Zr33  1  0.70805208  0.89817629  0.70049820  1
  Zr  Zr34  1  0.50478917  0.70339444  0.31536223  1
  Zr  Zr35  1  0.49976578  0.69951560  0.09932846  1
  Zr  Zr36  1  0.30171560  0.90077509  0.10670117  1
  Zr  Zr37  1  0.49628022  0.89178402  0.50039631  1
  Zr  Zr38  1  0.49957645  0.50139512  0.10631747  1
  Zr  Zr39  1  0.70532728  0.50181785  0.89935773  1
  Zr  Zr40  1  0.90074553  0.29620521  0.89725610  1
  Zr  Zr41  1  0.29788672  0.69917852  0.10053585  1
  Zr  Zr42  1  0.10223983  0.68661283  0.89785445  1
  Zr  Zr43  1  0.29375939  0.29710842  0.88735956  1
  Zr  Zr44  1  0.50866676  0.11170299  0.09643765  1
  Zr  Zr45  1  0.09574321  0.49859948  0.89678031  1
  Zr  Zr46  1  0.50289148  0.09748084  0.89971189  1
  Zr  Zr47  1  0.90429699  0.09690307  0.89454488  1
  Zr  Zr48  1  0.90671075  0.50101025  0.30781370  1
  Zr  Zr49  1  0.90125231  0.09522118  0.30716212  1
  Sc  Sc50  1  0.69552687  0.30067943  0.50903317  1
  Sc  Sc51  1  0.49471303  0.28994367  0.89729751  1
  Sc  Sc52  1  0.50584106  0.70049655  0.68648107  1
  Sc  Sc53  1  0.70840874  0.90863312  0.89778816  1
  Sc  Sc54  1  0.29597721  0.49146322  0.69605633  1
  Sc  Sc55  1  0.30652892  0.90765533  0.69707096  1
  Sc  Sc56  1  0.30033013  0.09868586  0.30610831  1
  Sc  Sc57  1  0.10026015  0.89860149  0.49973685  1
  Sc  Sc58  1  0.70203557  0.69521578  0.89936889  1
  Sc  Sc59  1  0.29530056  0.50687517  0.89806863  1
  Sc  Sc60  1  0.90294305  0.89652673  0.49708627  1
  Sc  Sc61  1  0.90209296  0.48864097  0.90213252  1
  Sc  Sc62  1  0.69905398  0.50355070  0.68980554  1
  Sc  Sc63  1  0.09942563  0.09896026  0.50256171  1
  Sc  Sc64  1  0.09251313  0.29078511  0.89687805  1
  Sc  Sc65  1  0.29622948  0.50401700  0.10557790  1
  Sc  Sc66  1  0.90671781  0.29430314  0.30063662  1
  Sc  Sc67  1  0.09955324  0.09285422  0.70270526  1
  Sc  Sc68  1  0.90266576  0.10365382  0.49650458  1
  Sc  Sc69  1  0.28513092  0.50127815  0.30339858  1
  Sc  Sc70  1  0.71065428  0.89059789  0.49707146  1
  Sc  Sc71  1  0.09730644  0.49767530  0.10365869  1
  Sc  Sc72  1  0.69927388  0.69806045  0.69420324  1
  Sc  Sc73  1  0.69862005  0.09960536  0.89350014  1
  Sc  Sc74  1  0.30142124  0.90686866  0.50262985  1
  Sc  Sc75  1  0.09644036  0.70348319  0.49475048  1
  Sc  Sc76  1  0.30010326  0.10624556  0.10556442  1
  Sc  Sc77  1  0.71500443  0.10137595  0.29210986  1
  Sc  Sc78  1  0.09295264  0.69106896  0.70423173  1
  Sc  Sc79  1  0.29405393  0.09462525  0.69849096  1
  Sc  Sc80  1  0.89914814  0.50083841  0.09639639  1
  Sc  Sc81  1  0.50274901  0.10067907  0.70296609  1
  Sc  Sc82  1  0.89696403  0.69638987  0.49272156  1
  Sc  Sc83  1  0.31072404  0.89886788  0.89327600  1
  Sc  Sc84  1  0.49914869  0.30334736  0.69840186  1
  Sc  Sc85  1  0.69677640  0.69916294  0.50444469  1
  Sc  Sc86  1  0.10050875  0.29470707  0.50040236  1
  Sc  Sc87  1  0.30193644  0.90294601  0.30758085  1
  Sc  Sc88  1  0.09902746  0.89007290  0.30370779  1
  Sc  Sc89  1  0.90232549  0.70430329  0.70319804  1
  Sc  Sc90  1  0.89891819  0.30200704  0.70078161  1
  Sc  Sc91  1  0.10556752  0.70307229  0.30463913  1
  Sc  Sc92  1  0.29324420  0.30374922  0.31366397  1
  Sc  Sc93  1  0.90210194  0.09366904  0.10601817  1
  Sc  Sc94  1  0.89475404  0.09765241  0.69534954  1
  Sc  Sc95  1  0.29487535  0.29858148  0.10693445  1
  Sc  Sc96  1  0.08538655  0.90377705  0.89402429  1
  Sc  Sc97  1  0.49680265  0.90415836  0.69704830  1
  Sc  Sc98  1  0.09682448  0.30581385  0.29684138  1
  Sc  Sc99  1  0.50807012  0.91273792  0.11063232  1
  Nb  Nb100  1  0.30276896  0.70128338  0.90233964  1
  Nb  Nb101  1  0.50949146  0.89590083  0.30030260  1
  Nb  Nb102  1  0.89887744  0.70091624  0.29918069  1
  Nb  Nb103  1  0.10458033  0.10530227  0.90503293  1
  Nb  Nb104  1  0.49914700  0.30075088  0.09981786  1
  Nb  Nb105  1  0.29600789  0.30589227  0.68727862  1
  Nb  Nb106  1  0.49596897  0.70420860  0.50558228  1
  Nb  Nb107  1  0.71008507  0.49906901  0.50426486  1
  Nb  Nb108  1  0.69594723  0.89508783  0.29940593  1
  Nb  Nb109  1  0.69840396  0.10054114  0.69438486  1
  Nb  Nb110  1  0.29764108  0.30435559  0.50915155  1
  Nb  Nb111  1  0.50129998  0.50376371  0.30032319  1
  Nb  Nb112  1  0.89502146  0.50130623  0.69158516  1
  Nb  Nb113  1  0.10051309  0.70883132  0.10495158  1
  Nb  Nb114  1  0.89701410  0.89545226  0.89046886  1
  Nb  Nb115  1  0.08260244  0.50362225  0.49083526  1
  Nb  Nb116  1  0.70091405  0.50435107  0.10020779  1
  Nb  Nb117  1  0.89641750  0.49543898  0.50651685  1
  Nb  Nb118  1  0.70018814  0.30263981  0.30229151  1
  Nb  Nb119  1  0.89593593  0.30281530  0.50329747  1
  Nb  Nb120  1  0.50270482  0.50612912  0.70477714  1
  Nb  Nb121  1  0.90272106  0.70153745  0.10076254  1
  Nb  Nb122  1  0.10154738  0.89734924  0.10019497  1
  Nb  Nb123  1  0.09272891  0.50531180  0.29925623  1
  Nb  Nb124  1  0.10271200  0.09868589  0.09598092  1
  Nb  Nb125  1  0.60549116  -0.00162218  0.39935526  1
  Nb  Nb126  1  0.39865142  0.39696907  0.00168195  1
  Nb  Nb127  1  0.80418038  0.79671545  0.19903619  1
  Nb  Nb128  1  0.60086513  0.80297611  -0.00162024  1
  Nb  Nb129  1  0.60665097  0.00104462  0.59466903  1
  Nb  Nb130  1  0.39835928  0.00549468  0.00285904  1
  Nb  Nb131  1  0.00003030  0.60960927  0.20039272  1
  Nb  Nb132  1  0.60137318  0.19861928  0.39515315  1
  Nb  Nb133  1  0.79427108  0.40022415  0.20586777  1
  Nb  Nb134  1  0.20086498  0.39509120  -0.00264891  1
  Nb  Nb135  1  0.79900389  0.40107860  0.40377082  1
  Nb  Nb136  1  0.39193442  0.20661990  0.59617134  1
  Nb  Nb137  1  0.60001234  0.80055092  0.80259656  1
  Nb  Nb138  1  0.60207563  0.40448134  0.80363650  1
  Nb  Nb139  1  0.40244757  0.60187633  0.79807321  1
  Nb  Nb140  1  0.80365480  0.59413802  0.79615023  1
  Nb  Nb141  1  0.59797625  0.39786883  0.00144984  1
  Nb  Nb142  1  0.40736659  0.79927622  0.20738941  1
  Nb  Nb143  1  0.19700608  -0.00118423  0.00173902  1
  Nb  Nb144  1  0.19719554  0.80157004  -0.00294796  1
  Nb  Nb145  1  0.40761996  0.20893418  0.20411006  1
  Nb  Nb146  1  0.20163691  0.79647728  0.60684398  1
  Nb  Nb147  1  0.19031633  0.00059647  0.19522806  1
  Nb  Nb148  1  0.40378130  0.60296210  0.21079398  1
  Nb  Nb149  1  0.20379933  0.79362133  0.80186854  1
  Pd  Pd150  1  0.00465174  -0.00291980  0.40405699  1
  Pd  Pd151  1  -0.00512485  0.19754335  0.19710643  1
  Pd  Pd152  1  -0.00229877  0.40001606  0.79357627  1
  Pd  Pd153  1  0.00742099  0.79647488  -0.00911253  1
  Pd  Pd154  1  0.18666096  0.40168253  0.40717051  1
  Pd  Pd155  1  0.40254595  0.79253216  0.78621806  1
  Pd  Pd156  1  0.19111968  -0.00223022  0.39334226  1
  Pd  Pd157  1  -0.00452001  -0.00079528  0.59718541  1
  Pd  Pd158  1  0.39054881  0.20303329  0.00650274  1
  Pd  Pd159  1  -0.00202399  0.39112250  0.40315213  1
  Pd  Pd160  1  0.19805573  0.59762597  0.00669598  1
  Pd  Pd161  1  0.79787353  0.59761427  0.40297959  1
  Pd  Pd162  1  0.20598183  0.19691839  0.20907768  1
  Pd  Pd163  1  0.80591227  0.19232642  0.00203656  1
  Pd  Pd164  1  0.80559394  0.00191813  -0.00429416  1
  Pd  Pd165  1  0.19577913  0.40253958  0.80142744  1
  Pd  Pd166  1  0.80341038  -0.00357129  0.59518775  1
  Pd  Pd167  1  0.59909676  0.40321436  0.60712492  1
  Pd  Pd168  1  0.00136221  0.79544432  0.59836187  1
  Pd  Pd169  1  0.79752270  0.20978744  0.40266216  1
  Pd  Pd170  1  0.60209145  0.20591608  0.80176649  1
  Pd  Pd171  1  0.00553317  -0.00496672  0.20376138  1
  Pd  Pd172  1  0.19603561  0.40015947  0.19674666  1
  Pd  Pd173  1  0.19872359  -0.00988449  0.80802258  1
  Pd  Pd174  1  0.39463423  0.19790984  0.78322884  1
  Pd  Pd175  1  0.39606985  0.59073448  0.39764764  1
  Pd  Pd176  1  0.80931190  0.79445968  0.59958407  1
  Pd  Pd177  1  0.38905544  0.40241937  0.20180293  1
  Pd  Pd178  1  -0.00382744  0.19984663  0.60263456  1
  Pd  Pd179  1  0.79224510  0.39905073  0.01188160  1
  Pd  Pd180  1  0.39579997  0.40913534  0.39667643  1
  Pd  Pd181  1  0.00238225  0.00280257  -0.00437428  1
  Pd  Pd182  1  0.40411383  0.40609344  0.80197041  1
  Pd  Pd183  1  0.79444271  0.79906788  0.00028163  1
  Pd  Pd184  1  0.60785490  0.40444273  0.19129456  1
  Pd  Pd185  1  0.60911432  0.01018142  0.20817642  1
  Pd  Pd186  1  0.40472013  0.81340766  0.00908277  1
  Pd  Pd187  1  -0.00676894  0.60772183  0.59412587  1
  Pd  Pd188  1  0.19535114  0.59837710  0.40880707  1
  Pd  Pd189  1  0.80787213  0.59595514  0.20273679  1
  Pd  Pd190  1  0.80949468  0.20546674  0.19893493  1
  Pd  Pd191  1  0.00299874  0.39529982  0.59921987  1
  Pd  Pd192  1  0.60231008  0.60146328  0.00091537  1
  Pd  Pd193  1  0.00168094  0.19498546  0.79026176  1
  Pd  Pd194  1  -0.00330852  0.79846177  0.20790481  1
  Pd  Pd195  1  0.60300520  0.60226120  0.41095540  1
  Pd  Pd196  1  0.19060469  0.60139379  0.59124976  1
  Pd  Pd197  1  0.20170991  0.19081018  0.60065789  1
  Pd  Pd198  1  0.40226023  0.20958043  0.39738327  1
  Pd  Pd199  1  -0.00077452  0.59811618  0.00837823  1
  Rh  Rh200  1  0.80224675  0.19270873  0.79408392  1
  Rh  Rh201  1  0.59320897  0.60433673  0.20187633  1
  Rh  Rh202  1  0.40650803  0.40114164  0.60332743  1
  Rh  Rh203  1  0.80195605  -0.00814822  0.19894053  1
  Rh  Rh204  1  0.79918574  0.00640575  0.79945465  1
  Rh  Rh205  1  0.60342797  0.80254435  0.41241862  1
  Rh  Rh206  1  0.01066594  0.39670741  -0.00063883  1
  Rh  Rh207  1  0.79461894  -0.00206818  0.40151811  1
  Rh  Rh208  1  -0.00595542  0.40914823  0.19863488  1
  Rh  Rh209  1  0.60051245  0.80807912  0.60379330  1
  Rh  Rh210  1  0.79866000  0.39421116  0.59838822  1
  Rh  Rh211  1  0.60339867  0.79257402  0.19191301  1
  Rh  Rh212  1  0.60203224  0.60309137  0.79101571  1
  Rh  Rh213  1  0.20491336  0.80580818  0.19825105  1
  Rh  Rh214  1  0.18437387  0.40862406  0.59076133  1
  Rh  Rh215  1  0.00153333  0.60774366  0.39450531  1
  Rh  Rh216  1  0.19790705  0.19938216  0.79141646  1
  Rh  Rh217  1  0.39256666  0.80166515  0.60249140  1
  Rh  Rh218  1  0.40624647  0.58994853  0.60338877  1
  Rh  Rh219  1  0.79339756  0.78916093  0.80235751  1
  Rh  Rh220  1  -0.00724675  0.19260284  0.00148613  1
  Rh  Rh221  1  0.39831209  0.80507521  0.39637308  1
  Rh  Rh222  1  0.59450201  0.19478412  0.21298776  1
  Rh  Rh223  1  0.20550382  0.80284514  0.41439211  1
  Rh  Rh224  1  0.79533362  0.40903184  0.78575826  1
  Rh  Rh225  1  0.80830575  0.20372428  0.60234597  1
  Rh  Rh226  1  0.58944122  0.19279536  0.59452008  1
  Rh  Rh227  1  0.00073663  0.00580516  0.80055869  1
  Rh  Rh228  1  0.40672966  -0.01054835  0.39870898  1
  Rh  Rh229  1  0.40022483  0.00829439  0.80325324  1
  Rh  Rh230  1  0.19739394  -0.00628729  0.59855851  1
  Rh  Rh231  1  0.60754547  -0.00561076  0.78597037  1
  Rh  Rh232  1  0.20196191  0.20292436  -0.00333226  1
  Rh  Rh233  1  0.40524515  0.01143718  0.60161373  1
  Rh  Rh234  1  0.19682737  0.20464525  0.40197821  1
  Rh  Rh235  1  0.19242919  0.60034461  0.20060158  1
  Rh  Rh236  1  0.60554282  0.20828789  -0.01247682  1
  Rh  Rh237  1  0.00837408  0.79462715  0.80385342  1
  Rh  Rh238  1  -0.00326449  0.79720771  0.39840382  1
  Rh  Rh239  1  0.60908538  0.39875967  0.40806698  1
  Rh  Rh240  1  0.79988913  0.79567293  0.39522373  1
  Rh  Rh241  1  0.00014040  0.20405238  0.40437199  1
  Rh  Rh242  1  -0.01470630  0.58969313  0.79835464  1
  Rh  Rh243  1  0.80936074  0.59678084  -0.00623280  1
  Rh  Rh244  1  0.39186081  0.58922083  0.00143451  1
  Rh  Rh245  1  0.59902651  0.59835566  0.59357359  1
  Rh  Rh246  1  0.59780670  -0.00437674  0.00005073  1
  Rh  Rh247  1  0.80543704  0.60581047  0.60358865  1
  Rh  Rh248  1  0.20904254  0.60071171  0.79773559  1
  Rh  Rh249  1  0.39210082  0.00247680  0.19942407  1
