# generated using pymatgen
data_ZrScNbPdRh
_symmetry_space_group_name_H-M   'P 1'
_cell_length_a   16.56434259
_cell_length_b   16.55814387
_cell_length_c   16.55887827
_cell_angle_alpha   90.01036512
_cell_angle_beta   89.95500542
_cell_angle_gamma   89.99835215
_symmetry_Int_Tables_number   1
_chemical_formula_structural   ZrScNbPdRh
_chemical_formula_sum   'Zr50 Sc50 Nb50 Pd50 Rh50'
_cell_volume   4541.68101353
_cell_formula_units_Z   50
loop_
 _symmetry_equiv_pos_site_id
 _symmetry_equiv_pos_as_xyz
  1  'x, y, z'
loop_
 _atom_site_type_symbol
 _atom_site_label
 _atom_site_symmetry_multiplicity
 _atom_site_fract_x
 _atom_site_fract_y
 _atom_site_fract_z
 _atom_site_occupancy
  Zr  Zr0  1  0.49842164  0.90683264  0.49494670  1
  Zr  Zr1  1  0.70287790  0.10858398  0.09735688  1
  Zr  Zr2  1  0.11195525  0.49850906  0.50231414  1
  Zr  Zr3  1  0.29258913  0.70409166  0.89558486  1
  Zr  Zr4  1  0.09990726  0.49779664  0.29701364  1
  Zr  Zr5  1  0.50027370  0.69567029  0.69912567  1
  Zr  Zr6  1  0.90553021  0.69990203  0.49777783  1
  Zr  Zr7  1  0.70524254  0.68747599  0.50396647  1
  Zr  Zr8  1  0.49586999  0.70679837  0.49165786  1
  Zr  Zr9  1  0.70747082  0.49422606  0.89720170  1
  Zr  Zr10  1  0.29642930  0.10438215  0.70851411  1
  Zr  Zr11  1  0.29169500  0.29540901  0.09893606  1
  Zr  Zr12  1  0.49804058  0.89760751  0.69243570  1
  Zr  Zr13  1  0.10337926  0.90085564  0.50048706  1
  Zr  Zr14  1  0.29926115  0.50201710  0.68702449  1
  Zr  Zr15  1  0.90093397  0.30982004  0.30168963  1
  Zr  Zr16  1  0.69774066  0.11796267  0.69322047  1
  Zr  Zr17  1  0.09716061  0.70231124  0.50132318  1
  Zr  Zr18  1  0.49077967  0.49934135  0.49485164  1
  Zr  Zr19  1  0.30252164  0.69886704  0.69870811  1
  Zr  Zr20  1  0.09533621  0.70212888  0.10189797  1
  Zr  Zr21  1  0.09484091  0.49369369  0.69552066  1
  Zr  Zr22  1  0.50186610  0.10819135  0.10475591  1
  Zr  Zr23  1  0.90485454  0.10316809  0.09999832  1
  Zr  Zr24  1  0.89829228  0.49229051  0.72059153  1
  Zr  Zr25  1  0.09440896  0.30339082  0.50470645  1
  Zr  Zr26  1  0.10291075  0.09855131  0.50553787  1
  Zr  Zr27  1  0.90381287  0.90077676  0.49968829  1
  Zr  Zr28  1  0.69935287  0.69167885  0.70581090  1
  Zr  Zr29  1  0.10591252  0.08727994  0.29967192  1
  Zr  Zr30  1  0.10321707  0.30355201  0.10418954  1
  Zr  Zr31  1  0.89715581  0.69800451  0.09626742  1
  Zr  Zr32  1  0.89691918  0.50040374  0.90708494  1
  Zr  Zr33  1  0.49704173  0.29839534  0.29836630  1
  Zr  Zr34  1  0.50582437  0.69694614  0.11430483  1
  Zr  Zr35  1  0.88988198  0.50190830  0.48475118  1
  Zr  Zr36  1  0.09825739  0.70407550  0.29088141  1
  Zr  Zr37  1  0.70789692  0.10272784  0.89988815  1
  Zr  Zr38  1  0.69330747  0.48706855  0.49705600  1
  Zr  Zr39  1  0.09718635  0.70174257  0.90686680  1
  Zr  Zr40  1  0.50022864  0.88813544  0.30247286  1
  Zr  Zr41  1  0.89767356  0.10718904  0.90160516  1
  Zr  Zr42  1  0.29711375  0.69495157  0.50338212  1
  Zr  Zr43  1  0.69375438  0.90635388  0.49682577  1
  Zr  Zr44  1  0.30313858  0.29478887  0.29644095  1
  Zr  Zr45  1  0.30589839  0.89431061  0.50232814  1
  Zr  Zr46  1  0.90005012  0.90656354  0.89302136  1
  Zr  Zr47  1  0.50034789  0.89221103  0.10657716  1
  Zr  Zr48  1  0.30037065  0.90489051  0.10028104  1
  Zr  Zr49  1  0.29173464  0.49523881  0.10327967  1
  Sc  Sc50  1  0.49884812  0.49850577  0.69724047  1
  Sc  Sc51  1  0.09165581  0.90877673  0.70030256  1
  Sc  Sc52  1  0.30497518  0.70016884  0.29883715  1
  Sc  Sc53  1  0.90395982  0.89643006  0.09934465  1
  Sc  Sc54  1  0.89944729  0.30176032  0.49859276  1
  Sc  Sc55  1  0.69933094  0.69706766  0.10039235  1
  Sc  Sc56  1  0.10246394  0.69853428  0.69714292  1
  Sc  Sc57  1  0.30300303  0.08708709  0.90302407  1
  Sc  Sc58  1  0.50092169  0.10563696  0.70759916  1
  Sc  Sc59  1  0.50949147  0.49907624  0.89739167  1
  Sc  Sc60  1  0.69078331  0.30621480  0.09918397  1
  Sc  Sc61  1  0.30479171  0.08459506  0.49265824  1
  Sc  Sc62  1  0.30943795  0.31423648  0.49296264  1
  Sc  Sc63  1  0.70209171  0.69509047  0.90790447  1
  Sc  Sc64  1  0.90094399  0.10103363  0.70330482  1
  Sc  Sc65  1  0.10838037  0.09505222  0.89005980  1
  Sc  Sc66  1  0.28670222  0.70024528  0.10889227  1
  Sc  Sc67  1  0.30228435  0.90704624  0.29754764  1
  Sc  Sc68  1  0.90770077  0.09621975  0.30302835  1
  Sc  Sc69  1  0.69732462  0.90704065  0.31244420  1
  Sc  Sc70  1  0.69142646  0.30839672  0.30152419  1
  Sc  Sc71  1  0.70297339  0.49889965  0.69767235  1
  Sc  Sc72  1  0.10486127  0.10372992  0.10680306  1
  Sc  Sc73  1  0.89600703  0.30087579  0.69205537  1
  Sc  Sc74  1  0.09290142  0.49969396  0.90285054  1
  Sc  Sc75  1  0.50513447  0.50900469  0.29950557  1
  Sc  Sc76  1  0.70873096  0.29874841  0.90366135  1
  Sc  Sc77  1  0.31128633  0.30284612  0.70550151  1
  Sc  Sc78  1  0.09645960  0.30371446  0.30005505  1
  Sc  Sc79  1  0.90423915  0.10718801  0.50163069  1
  Sc  Sc80  1  0.89381851  0.49772520  0.29527795  1
  Sc  Sc81  1  0.50730241  0.30497965  0.49367135  1
  Sc  Sc82  1  0.49282180  0.10831983  0.30381205  1
  Sc  Sc83  1  0.69534225  0.90607826  0.69483067  1
  Sc  Sc84  1  0.10221935  0.89772038  0.10906936  1
  Sc  Sc85  1  0.10203036  0.50086547  0.09831975  1
  Sc  Sc86  1  0.10497464  0.89803378  0.89902575  1
  Sc  Sc87  1  0.90392258  0.68784761  0.29851839  1
  Sc  Sc88  1  0.69118585  0.68985564  0.29383728  1
  Sc  Sc89  1  0.90514905  0.69207389  0.70386862  1
  Sc  Sc90  1  0.29446823  0.50051883  0.89480620  1
  Sc  Sc91  1  0.69626354  0.49985334  0.09860837  1
  Sc  Sc92  1  0.50321480  0.69254545  0.89469701  1
  Sc  Sc93  1  0.30184718  0.89295830  0.70201078  1
  Sc  Sc94  1  0.30050645  0.50166584  0.30802144  1
  Sc  Sc95  1  0.48843614  0.90378282  0.90207685  1
  Sc  Sc96  1  0.29795102  0.29658608  0.89716181  1
  Sc  Sc97  1  0.10094986  0.30508466  0.91161496  1
  Sc  Sc98  1  0.69932941  0.88683368  0.09289505  1
  Sc  Sc99  1  0.91283531  0.90223448  0.30311468  1
  Nb  Nb100  1  0.30211763  0.50285954  0.49997084  1
  Nb  Nb101  1  0.70128880  0.09876875  0.30030805  1
  Nb  Nb102  1  0.70763605  0.50050665  0.30331294  1
  Nb  Nb103  1  0.88863045  0.50144784  0.09763769  1
  Nb  Nb104  1  0.49853255  0.49580751  0.09456007  1
  Nb  Nb105  1  0.10012364  0.10932533  0.69971783  1
  Nb  Nb106  1  0.29912436  0.10535437  0.29528408  1
  Nb  Nb107  1  0.89903562  0.70207940  0.90471183  1
  Nb  Nb108  1  0.70109517  0.90017094  0.90017158  1
  Nb  Nb109  1  0.90201051  0.30748700  0.90096490  1
  Nb  Nb110  1  0.89381189  0.90263510  0.70018986  1
  Nb  Nb111  1  0.49910463  0.10083578  0.49685108  1
  Nb  Nb112  1  0.50542998  0.29069705  0.70461955  1
  Nb  Nb113  1  0.69934622  0.29293732  0.51024138  1
  Nb  Nb114  1  0.69160026  0.30022093  0.68786009  1
  Nb  Nb115  1  0.49796461  0.70286160  0.29499368  1
  Nb  Nb116  1  0.29881645  0.89253152  0.90836693  1
  Nb  Nb117  1  0.30060150  0.10306293  0.11422056  1
  Nb  Nb118  1  0.69712619  0.09671195  0.49111171  1
  Nb  Nb119  1  0.10060740  0.89831198  0.30022886  1
  Nb  Nb120  1  0.49784177  0.29472980  0.89437431  1
  Nb  Nb121  1  0.50265059  0.10380408  0.90085753  1
  Nb  Nb122  1  0.50305836  0.30408566  0.09705512  1
  Nb  Nb123  1  0.09712374  0.30347246  0.69319793  1
  Nb  Nb124  1  0.90194915  0.29844774  0.09612813  1
  Nb  Nb125  1  0.39469345  0.79234404  0.00166442  1
  Nb  Nb126  1  0.80058881  0.80254285  0.20952033  1
  Nb  Nb127  1  0.20231614  0.19646097  0.40346937  1
  Nb  Nb128  1  0.79893534  0.80348078  0.79968917  1
  Nb  Nb129  1  0.80179378  0.80327607  0.60172831  1
  Nb  Nb130  1  0.79748700  0.00132399  0.59477531  1
  Nb  Nb131  1  0.60452186  0.00273838  0.19829126  1
  Nb  Nb132  1  0.60049168  0.38694853  0.79459202  1
  Nb  Nb133  1  0.19303816  0.39848174  0.79092654  1
  Nb  Nb134  1  0.59931751  0.00167830  -0.00171743  1
  Nb  Nb135  1  0.40387408  0.39986467  0.19192248  1
  Nb  Nb136  1  0.20527732  0.20363007  0.59789684  1
  Nb  Nb137  1  0.40415602  0.20000892  0.00158102  1
  Nb  Nb138  1  0.79207747  0.19820924  0.39783176  1
  Nb  Nb139  1  0.39956351  0.59847288  0.00596484  1
  Nb  Nb140  1  -0.00006821  0.00358314  -0.00305215  1
  Nb  Nb141  1  0.40141800  0.19865658  0.59646376  1
  Nb  Nb142  1  0.40505618  0.39713340  0.00123718  1
  Nb  Nb143  1  0.80215742  0.79660699  0.40183857  1
  Nb  Nb144  1  0.00459462  0.20897469  0.79890638  1
  Nb  Nb145  1  0.79598056  0.00038916  0.20186982  1
  Nb  Nb146  1  0.19542072  0.80486795  0.39925947  1
  Nb  Nb147  1  0.60478498  0.80808125  0.80247366  1
  Nb  Nb148  1  0.60182204  0.00134612  0.80749559  1
  Nb  Nb149  1  0.80095806  0.20120751  0.20469197  1
  Pd  Pd150  1  0.19247303  0.80560642  0.79183351  1
  Pd  Pd151  1  0.59833858  0.59826006  0.00104458  1
  Pd  Pd152  1  0.20231077  -0.01079736  0.79539030  1
  Pd  Pd153  1  -0.00710092  0.58852679  0.59845086  1
  Pd  Pd154  1  -0.00038486  0.20109127  0.20793696  1
  Pd  Pd155  1  0.19891973  0.60830944  0.39455504  1
  Pd  Pd156  1  0.39942206  0.00958202  0.60858055  1
  Pd  Pd157  1  -0.00248975  0.79839005  0.79628323  1
  Pd  Pd158  1  0.60625598  0.79554670  0.60322897  1
  Pd  Pd159  1  0.80982395  0.59509812  0.60536615  1
  Pd  Pd160  1  0.40907462  0.00114012  0.20755629  1
  Pd  Pd161  1  0.79555619  0.39511569  0.19352143  1
  Pd  Pd162  1  0.79148045  0.00113907  0.78901242  1
  Pd  Pd163  1  0.19445746  0.21263490  0.79800516  1
  Pd  Pd164  1  0.00658446  0.59358859  0.39840291  1
  Pd  Pd165  1  0.00118160  0.00289136  0.40498020  1
  Pd  Pd166  1  -0.00277159  0.40609087  0.00974944  1
  Pd  Pd167  1  0.20059774  0.39392940  0.39709496  1
  Pd  Pd168  1  0.20532697  0.00188425  0.60844815  1
  Pd  Pd169  1  0.00272077  0.20068298  0.39542154  1
  Pd  Pd170  1  0.39653238  0.59373062  0.19801965  1
  Pd  Pd171  1  0.40434318  0.00245143  0.00544514  1
  Pd  Pd172  1  0.40232544  -0.00052562  0.79911737  1
  Pd  Pd173  1  0.80655383  0.21241025  0.79559316  1
  Pd  Pd174  1  0.20159211  0.59926037  0.00022245  1
  Pd  Pd175  1  0.40045393  0.59138891  0.80643005  1
  Pd  Pd176  1  0.59986539  0.01226683  0.60594408  1
  Pd  Pd177  1  0.40198385  0.40578740  0.80488354  1
  Pd  Pd178  1  -0.00288643  0.80114010  0.61104313  1
  Pd  Pd179  1  0.59608815  0.40895772  0.20486679  1
  Pd  Pd180  1  -0.00368234  0.59042532  0.19235451  1
  Pd  Pd181  1  0.40677573  0.79885337  0.80639220  1
  Pd  Pd182  1  0.59937122  0.59953789  0.39984300  1
  Pd  Pd183  1  0.59930202  0.20356590  -0.00653799  1
  Pd  Pd184  1  0.40769879  0.39086123  0.60159735  1
  Pd  Pd185  1  -0.00400653  0.40776825  0.19115059  1
  Pd  Pd186  1  0.61055039  0.78987242  0.39777418  1
  Pd  Pd187  1  0.80402031  0.40440194  0.60000796  1
  Pd  Pd188  1  0.19208291  0.59286786  0.79569095  1
  Pd  Pd189  1  0.60368629  0.20131440  0.39894884  1
  Pd  Pd190  1  -0.01438602  0.40910009  0.59317902  1
  Pd  Pd191  1  0.58827155  0.80130966  -0.01092877  1
  Pd  Pd192  1  -0.00683775  0.00661153  0.60400301  1
  Pd  Pd193  1  0.20523340  0.18815384  -0.00392412  1
  Pd  Pd194  1  0.01054950  0.19468428  -0.00726765  1
  Pd  Pd195  1  0.00180363  0.81047602  -0.00072409  1
  Pd  Pd196  1  0.80123859  -0.00737532  0.01028585  1
  Pd  Pd197  1  0.19323089  0.00332851  0.00714965  1
  Pd  Pd198  1  0.59319003  0.59242012  0.59693160  1
  Pd  Pd199  1  0.00385908  0.60244684  0.80635674  1
  Rh  Rh200  1  0.40214183  0.79509080  0.59841676  1
  Rh  Rh201  1  0.79637117  0.60199446  0.19852451  1
  Rh  Rh202  1  0.61431998  0.80776807  0.21045988  1
  Rh  Rh203  1  0.40096036  0.60323110  0.39773543  1
  Rh  Rh204  1  0.40103473  0.20850353  0.19110579  1
  Rh  Rh205  1  0.00168952  0.19912218  0.60597029  1
  Rh  Rh206  1  0.20519610  0.40431797  -0.01160567  1
  Rh  Rh207  1  0.80845788  0.00359379  0.40157275  1
  Rh  Rh208  1  0.79782408  0.60010120  0.00103724  1
  Rh  Rh209  1  0.59905996  0.40192240  0.39618789  1
  Rh  Rh210  1  0.19066585  0.20106749  0.21091816  1
  Rh  Rh211  1  0.80180871  0.19376779  0.58974260  1
  Rh  Rh212  1  0.58462481  0.00752051  0.38986013  1
  Rh  Rh213  1  0.40239972  0.00056663  0.39163235  1
  Rh  Rh214  1  0.39126426  0.79735622  0.39716313  1
  Rh  Rh215  1  0.79568825  0.60522904  0.39220458  1
  Rh  Rh216  1  0.21064373  0.39169152  0.60256613  1
  Rh  Rh217  1  0.39155159  0.79591186  0.19479126  1
  Rh  Rh218  1  0.19823419  0.59665370  0.20619108  1
  Rh  Rh219  1  0.80326161  0.60848489  0.80822823  1
  Rh  Rh220  1  0.20129762  -0.00209455  0.19798818  1
  Rh  Rh221  1  -0.00412660  0.59765493  0.00381794  1
  Rh  Rh222  1  0.60838313  0.20152816  0.80815311  1
  Rh  Rh223  1  0.00553594  0.38993368  0.80439785  1
  Rh  Rh224  1  -0.00942463  0.80067082  0.20237680  1
  Rh  Rh225  1  0.20408008  0.80656947  0.20869341  1
  Rh  Rh226  1  0.20218863  0.80061035  0.00598356  1
  Rh  Rh227  1  0.60258452  0.59061497  0.19918457  1
  Rh  Rh228  1  0.59313770  0.40006088  0.60385987  1
  Rh  Rh229  1  0.19763030  0.60143222  0.60147270  1
  Rh  Rh230  1  0.80151487  0.21314263  0.00873748  1
  Rh  Rh231  1  -0.00254893  -0.00287560  0.19043720  1
  Rh  Rh232  1  0.00179767  0.40712736  0.40359902  1
  Rh  Rh233  1  0.40470965  0.40701213  0.38818705  1
  Rh  Rh234  1  0.60549947  0.19796787  0.20648078  1
  Rh  Rh235  1  0.80215453  0.39584947  0.00763594  1
  Rh  Rh236  1  0.19696153  0.80266326  0.59957788  1
  Rh  Rh237  1  0.59733876  0.39693697  -0.01411742  1
  Rh  Rh238  1  0.60658735  0.59074390  0.79903786  1
  Rh  Rh239  1  0.39071158  0.19569557  0.41251263  1
  Rh  Rh240  1  0.20444709  0.40022690  0.20829828  1
  Rh  Rh241  1  0.00270265  0.79624026  0.39282696  1
  Rh  Rh242  1  0.20505522  -0.00362352  0.39580685  1
  Rh  Rh243  1  0.39790718  0.19333796  0.80452508  1
  Rh  Rh244  1  0.00082141  0.01043668  0.80359926  1
  Rh  Rh245  1  0.80474777  0.79834467  -0.00232090  1
  Rh  Rh246  1  0.58824520  0.19677421  0.58801671  1
  Rh  Rh247  1  0.79129925  0.38804171  0.40282105  1
  Rh  Rh248  1  0.40453558  0.60331554  0.59534688  1
  Rh  Rh249  1  0.78976813  0.38855365  0.79285411  1
