# generated using pymatgen
data_ZrScNbPdRh
_symmetry_space_group_name_H-M   'P 1'
_cell_length_a   16.56379664
_cell_length_b   16.56287336
_cell_length_c   16.55697777
_cell_angle_alpha   90.02429453
_cell_angle_beta   90.01319610
_cell_angle_gamma   89.99695531
_symmetry_Int_Tables_number   1
_chemical_formula_structural   ZrScNbPdRh
_chemical_formula_sum   'Zr50 Sc50 Nb50 Pd50 Rh50'
_cell_volume   4542.30806989
_cell_formula_units_Z   50
loop_
 _symmetry_equiv_pos_site_id
 _symmetry_equiv_pos_as_xyz
  1  'x, y, z'
loop_
 _atom_site_type_symbol
 _atom_site_label
 _atom_site_symmetry_multiplicity
 _atom_site_fract_x
 _atom_site_fract_y
 _atom_site_fract_z
 _atom_site_occupancy
  Zr  Zr0  1  0.10354299  0.70013946  0.10055387  1
  Zr  Zr1  1  0.31554339  0.70560215  0.70120307  1
  Zr  Zr2  1  0.10054273  0.30309959  0.90222177  1
  Zr  Zr3  1  0.08498893  0.50225686  0.30203211  1
  Zr  Zr4  1  0.89838498  0.49791732  0.90505038  1
  Zr  Zr5  1  0.29488953  0.29025348  0.70329380  1
  Zr  Zr6  1  0.30041868  0.30414834  0.49436714  1
  Zr  Zr7  1  0.90513241  0.10629882  0.10697883  1
  Zr  Zr8  1  0.50759120  0.69992850  0.89725936  1
  Zr  Zr9  1  0.29518959  0.50803171  0.70666374  1
  Zr  Zr10  1  0.30304230  0.90518112  0.29374340  1
  Zr  Zr11  1  0.51178599  0.49993813  0.90482115  1
  Zr  Zr12  1  0.50466363  0.49357197  0.09694066  1
  Zr  Zr13  1  0.49808086  0.29572248  0.90379758  1
  Zr  Zr14  1  0.50533962  0.29238948  0.29672226  1
  Zr  Zr15  1  0.29796893  0.49715937  0.30635083  1
  Zr  Zr16  1  0.49838607  0.69226325  0.09902819  1
  Zr  Zr17  1  0.50555429  0.29663899  0.50046641  1
  Zr  Zr18  1  0.09599588  0.49450049  0.89809281  1
  Zr  Zr19  1  0.30063862  0.10827838  0.90111170  1
  Zr  Zr20  1  0.09329744  0.29866358  0.09768777  1
  Zr  Zr21  1  0.09607945  0.30202566  0.70434487  1
  Zr  Zr22  1  0.89151094  0.49328253  0.29709276  1
  Zr  Zr23  1  0.09416102  0.10206804  0.09736068  1
  Zr  Zr24  1  0.50170953  0.70843284  0.29788736  1
  Zr  Zr25  1  0.70138344  0.49582580  0.09697772  1
  Zr  Zr26  1  0.89264305  0.10404307  0.30477513  1
  Zr  Zr27  1  0.09499456  0.10375383  0.50304212  1
  Zr  Zr28  1  0.50688225  0.50820599  0.70647171  1
  Zr  Zr29  1  0.29725936  0.70364351  0.90231307  1
  Zr  Zr30  1  0.30357120  0.89498562  0.49002395  1
  Zr  Zr31  1  0.89390357  0.89999272  0.10235564  1
  Zr  Zr32  1  0.70643557  0.29675538  0.89904786  1
  Zr  Zr33  1  0.89797616  0.28944336  0.49619430  1
  Zr  Zr34  1  0.69560601  0.90300515  0.70013534  1
  Zr  Zr35  1  0.10718311  0.91266803  0.70015233  1
  Zr  Zr36  1  0.69854755  0.89856009  0.90856385  1
  Zr  Zr37  1  0.09780189  0.49993455  0.70669424  1
  Zr  Zr38  1  0.69967286  0.50162608  0.89724058  1
  Zr  Zr39  1  0.29977535  0.90795848  0.90135451  1
  Zr  Zr40  1  0.30192488  0.70883012  0.30084160  1
  Zr  Zr41  1  0.09704844  0.30875230  0.30347610  1
  Zr  Zr42  1  0.90016668  0.49428734  0.10180353  1
  Zr  Zr43  1  0.89302570  0.68758469  0.30529359  1
  Zr  Zr44  1  0.69588350  0.09885700  0.69535785  1
  Zr  Zr45  1  0.89343286  0.70534533  0.51366786  1
  Zr  Zr46  1  0.09905863  0.69894717  0.69719686  1
  Zr  Zr47  1  0.31171451  0.50703503  0.10598040  1
  Zr  Zr48  1  0.09211639  0.50216027  0.09274714  1
  Zr  Zr49  1  0.69690249  0.10000971  0.30373571  1
  Sc  Sc50  1  0.89074299  0.50017554  0.49667763  1
  Sc  Sc51  1  0.70245325  0.09773052  0.49917241  1
  Sc  Sc52  1  0.69921994  0.49932422  0.69407727  1
  Sc  Sc53  1  0.51052277  0.90470535  0.10341632  1
  Sc  Sc54  1  0.69645674  0.29574920  0.10110215  1
  Sc  Sc55  1  0.50049940  0.88295038  0.69895887  1
  Sc  Sc56  1  0.88989832  0.30086273  0.69963079  1
  Sc  Sc57  1  0.70378634  0.30371948  0.30627831  1
  Sc  Sc58  1  0.70485294  0.70167129  0.50218822  1
  Sc  Sc59  1  0.51124961  0.09697563  0.49622216  1
  Sc  Sc60  1  0.69787500  0.09832691  0.10158257  1
  Sc  Sc61  1  0.49735167  0.70346299  0.50529134  1
  Sc  Sc62  1  0.89156359  0.89909304  0.49567476  1
  Sc  Sc63  1  0.30406405  0.29505659  0.08918501  1
  Sc  Sc64  1  0.28990333  0.09993984  0.69929099  1
  Sc  Sc65  1  0.10861876  0.10939348  0.69643916  1
  Sc  Sc66  1  0.70111080  0.70923796  0.09581153  1
  Sc  Sc67  1  0.70668415  0.09536513  0.90203317  1
  Sc  Sc68  1  0.30908065  0.09353755  0.09758557  1
  Sc  Sc69  1  0.50414047  0.10641166  0.10208215  1
  Sc  Sc70  1  0.49031739  0.49580578  0.29182909  1
  Sc  Sc71  1  0.10133765  0.90285187  0.49669017  1
  Sc  Sc72  1  0.09208133  0.69662468  0.50757040  1
  Sc  Sc73  1  0.89466762  0.69058766  0.09443595  1
  Sc  Sc74  1  0.88742744  0.10942754  0.69555316  1
  Sc  Sc75  1  0.29072012  0.50359893  0.90105734  1
  Sc  Sc76  1  0.09658195  0.29529635  0.49994626  1
  Sc  Sc77  1  0.10609476  0.69064117  0.90914107  1
  Sc  Sc78  1  0.08996711  0.08874838  0.29080174  1
  Sc  Sc79  1  0.49918156  0.09768513  0.29625162  1
  Sc  Sc80  1  0.29808599  0.70360344  0.10198404  1
  Sc  Sc81  1  0.29841897  0.29331164  0.89998149  1
  Sc  Sc82  1  0.89100164  0.90657466  0.30061199  1
  Sc  Sc83  1  0.70387356  0.69867442  0.90414909  1
  Sc  Sc84  1  0.51009970  0.89775130  0.89575108  1
  Sc  Sc85  1  0.29505482  0.09883112  0.50319709  1
  Sc  Sc86  1  0.89264146  0.89488183  0.69706456  1
  Sc  Sc87  1  0.31233607  0.30352268  0.30471037  1
  Sc  Sc88  1  0.88921044  0.50278118  0.70009162  1
  Sc  Sc89  1  0.51020045  0.50381668  0.50757374  1
  Sc  Sc90  1  0.69775585  0.89251992  0.29971534  1
  Sc  Sc91  1  0.11102189  0.90049361  0.29480295  1
  Sc  Sc92  1  0.88808515  0.90440880  0.90177933  1
  Sc  Sc93  1  0.10575328  0.90540784  0.10452641  1
  Sc  Sc94  1  0.50327738  0.10141506  0.68812405  1
  Sc  Sc95  1  0.30600121  0.50548276  0.49767301  1
  Sc  Sc96  1  0.51245468  0.69592913  0.69880783  1
  Sc  Sc97  1  0.10636053  0.90809221  0.90717785  1
  Sc  Sc98  1  0.69721088  0.90263140  0.49577570  1
  Sc  Sc99  1  0.50221065  0.29147049  0.69673099  1
  Nb  Nb100  1  0.50757681  0.30266623  0.09794717  1
  Nb  Nb101  1  0.70238199  0.49181153  0.49511600  1
  Nb  Nb102  1  0.70269759  0.89796828  0.09145126  1
  Nb  Nb103  1  0.09511549  0.69779487  0.29791992  1
  Nb  Nb104  1  0.10287471  0.49515681  0.50144830  1
  Nb  Nb105  1  0.89704161  0.70174792  0.70182461  1
  Nb  Nb106  1  0.29882719  0.70197979  0.49923151  1
  Nb  Nb107  1  0.71556523  0.69372948  0.69602742  1
  Nb  Nb108  1  0.89778313  0.29638832  0.89991975  1
  Nb  Nb109  1  0.90223225  0.10758717  0.90477793  1
  Nb  Nb110  1  0.49836196  0.89991417  0.31452519  1
  Nb  Nb111  1  0.89742721  0.70022352  0.89719952  1
  Nb  Nb112  1  0.49991573  0.90275667  0.49537033  1
  Nb  Nb113  1  0.49378187  0.10449328  0.89222516  1
  Nb  Nb114  1  0.89933016  0.29854519  0.29151326  1
  Nb  Nb115  1  0.70098283  0.69603202  0.30238862  1
  Nb  Nb116  1  0.70052746  0.31446049  0.50460834  1
  Nb  Nb117  1  0.70859633  0.50371805  0.30517086  1
  Nb  Nb118  1  0.89948167  0.29645675  0.10421387  1
  Nb  Nb119  1  0.09482508  0.10317786  0.90294510  1
  Nb  Nb120  1  0.30099173  0.90266047  0.70024009  1
  Nb  Nb121  1  0.70104536  0.29401585  0.69775992  1
  Nb  Nb122  1  0.29661223  0.10102298  0.29389076  1
  Nb  Nb123  1  0.29724358  0.89643017  0.09723757  1
  Nb  Nb124  1  0.90314795  0.09862803  0.49581425  1
  Nb  Nb125  1  -0.00241348  0.79493620  0.20193902  1
  Nb  Nb126  1  0.19961197  0.40126072  0.19960537  1
  Nb  Nb127  1  0.39776298  0.40150948  0.60857975  1
  Nb  Nb128  1  -0.00241452  0.79885460  -0.00185758  1
  Nb  Nb129  1  -0.00750972  0.60835814  0.80022178  1
  Nb  Nb130  1  0.40067041  0.00134569  0.79454242  1
  Nb  Nb131  1  0.60735807  0.59960508  0.20722471  1
  Nb  Nb132  1  0.60805928  0.59809861  0.39318968  1
  Nb  Nb133  1  -0.00232436  0.00753014  0.80024535  1
  Nb  Nb134  1  0.00159369  0.40158559  0.59963753  1
  Nb  Nb135  1  0.00157211  0.80109773  0.80467586  1
  Nb  Nb136  1  0.39945373  -0.00973091  0.60029056  1
  Nb  Nb137  1  0.60479408  0.19765617  0.79924127  1
  Nb  Nb138  1  0.20772606  0.80020563  0.60233760  1
  Nb  Nb139  1  0.20159454  0.20225712  0.20391957  1
  Nb  Nb140  1  0.40201491  0.40009859  0.79721386  1
  Nb  Nb141  1  0.40010256  0.80595276  0.00113751  1
  Nb  Nb142  1  0.19412565  0.60282173  0.39986881  1
  Nb  Nb143  1  0.20034347  0.19711054  0.38903644  1
  Nb  Nb144  1  -0.00535384  0.00796804  0.60093397  1
  Nb  Nb145  1  0.19958211  0.40343320  0.59965134  1
  Nb  Nb146  1  0.19738822  0.59647913  0.20822234  1
  Nb  Nb147  1  -0.00533071  0.19820511  0.80638525  1
  Nb  Nb148  1  -0.00169425  0.79434651  0.39237054  1
  Nb  Nb149  1  0.19926409  0.80269334  0.79595213  1
  Pd  Pd150  1  0.80413491  -0.00274383  0.59573524  1
  Pd  Pd151  1  0.60231339  0.79435529  0.40902369  1
  Pd  Pd152  1  0.40395744  0.59721058  0.59842695  1
  Pd  Pd153  1  -0.00252524  -0.01033925  0.40096949  1
  Pd  Pd154  1  -0.00600130  -0.00860171  -0.00284399  1
  Pd  Pd155  1  0.40290439  0.59522708  0.81001617  1
  Pd  Pd156  1  0.59099790  0.00648125  0.79598781  1
  Pd  Pd157  1  0.60122262  0.19340064  -0.00673198  1
  Pd  Pd158  1  0.80309437  0.79612212  0.20160065  1
  Pd  Pd159  1  0.20048060  0.00944015  0.00497075  1
  Pd  Pd160  1  0.39690861  0.19343645  0.59600117  1
  Pd  Pd161  1  -0.01079971  0.39907502  0.40929066  1
  Pd  Pd162  1  0.40600823  0.60401776  0.40070522  1
  Pd  Pd163  1  0.61477364  0.79137957  0.79740562  1
  Pd  Pd164  1  0.59849536  0.38968076  0.79431178  1
  Pd  Pd165  1  0.80325364  0.00887447  0.00655354  1
  Pd  Pd166  1  0.60316894  -0.00512729  0.20597009  1
  Pd  Pd167  1  0.00458647  0.81361098  0.60007197  1
  Pd  Pd168  1  0.40067815  0.01084811  0.40418243  1
  Pd  Pd169  1  0.20415694  0.60163276  0.59359661  1
  Pd  Pd170  1  0.00496719  0.19700163  0.38909670  1
  Pd  Pd171  1  0.59443198  0.00701720  -0.00171523  1
  Pd  Pd172  1  0.60876890  0.20062410  0.40531585  1
  Pd  Pd173  1  0.80552865  0.00560628  0.79857316  1
  Pd  Pd174  1  0.79798901  0.80155769  0.80105648  1
  Pd  Pd175  1  0.41521266  0.40650231  0.41088346  1
  Pd  Pd176  1  0.60616637  0.79801520  0.59509510  1
  Pd  Pd177  1  0.59363042  0.40812626  0.39209834  1
  Pd  Pd178  1  0.79088161  0.20258639  0.20056074  1
  Pd  Pd179  1  0.39734895  0.20387694  0.19415195  1
  Pd  Pd180  1  0.40569468  -0.00548359  0.19835737  1
  Pd  Pd181  1  0.18824476  0.79147855  0.40570825  1
  Pd  Pd182  1  0.39916403  0.60486545  -0.00802595  1
  Pd  Pd183  1  0.79866088  0.40211990  0.79568725  1
  Pd  Pd184  1  0.59594126  0.39934846  0.60821445  1
  Pd  Pd185  1  0.20768787  0.40422471  0.00730061  1
  Pd  Pd186  1  0.79266995  0.20054186  0.58964982  1
  Pd  Pd187  1  0.79167442  0.00083588  0.19977165  1
  Pd  Pd188  1  0.60255943  0.79964438  0.19605784  1
  Pd  Pd189  1  0.39602016  0.39919844  -0.00885563  1
  Pd  Pd190  1  -0.00958178  0.58891075  0.60239836  1
  Pd  Pd191  1  0.39700299  0.38706262  0.19314785  1
  Pd  Pd192  1  0.19831760  0.00783249  0.39859544  1
  Pd  Pd193  1  -0.00295750  0.60296591  0.41206746  1
  Pd  Pd194  1  0.79952946  0.39139517  0.00474341  1
  Pd  Pd195  1  0.39774597  0.18896832  0.40299668  1
  Pd  Pd196  1  0.40476009  0.81065255  0.19151261  1
  Pd  Pd197  1  0.79312434  0.60195303  0.19073505  1
  Pd  Pd198  1  0.60749092  0.40392961  0.20794368  1
  Pd  Pd199  1  0.41234499  -0.00378307  -0.00538618  1
  Rh  Rh200  1  -0.01462942  0.39857409  0.79457023  1
  Rh  Rh201  1  0.39475269  0.80885352  0.81361131  1
  Rh  Rh202  1  0.80449500  0.79826187  0.39811857  1
  Rh  Rh203  1  0.79487200  0.60102298  0.41034871  1
  Rh  Rh204  1  0.79462310  0.00220300  0.39972637  1
  Rh  Rh205  1  0.60613330  0.39296225  -0.00184230  1
  Rh  Rh206  1  0.40040480  0.60604480  0.20753370  1
  Rh  Rh207  1  0.80495738  0.79904645  -0.00157904  1
  Rh  Rh208  1  0.79699918  0.39302986  0.19922568  1
  Rh  Rh209  1  0.58999985  -0.01111631  0.60123139  1
  Rh  Rh210  1  0.19317620  0.61131871  0.80169189  1
  Rh  Rh211  1  0.18925376  0.19696535  0.80967807  1
  Rh  Rh212  1  0.61359483  0.60702545  0.79623919  1
  Rh  Rh213  1  0.80289631  0.39790466  0.59820467  1
  Rh  Rh214  1  0.60279534  0.20232599  0.20166372  1
  Rh  Rh215  1  0.40764825  0.20021074  0.00740777  1
  Rh  Rh216  1  0.20282753  0.21001500  0.58683995  1
  Rh  Rh217  1  0.61074134  0.60168538  0.59251446  1
  Rh  Rh218  1  0.59439477  0.79928257  0.00398704  1
  Rh  Rh219  1  0.21161978  0.39481698  0.79824818  1
  Rh  Rh220  1  0.19820857  0.40118047  0.40188278  1
  Rh  Rh221  1  0.19958883  0.19414426  0.00692099  1
  Rh  Rh222  1  0.20489759  0.00747534  0.19197996  1
  Rh  Rh223  1  0.19653270  0.79643920  0.19977685  1
  Rh  Rh224  1  0.60766506  0.60281140  0.00842161  1
  Rh  Rh225  1  0.60189974  -0.00314711  0.39443073  1
  Rh  Rh226  1  0.79777552  0.59920841  -0.00063212  1
  Rh  Rh227  1  0.00402119  0.20305533  0.20665043  1
  Rh  Rh228  1  -0.01007453  0.39152535  0.00089821  1
  Rh  Rh229  1  0.60849041  0.20402275  0.59646045  1
  Rh  Rh230  1  0.20587953  0.59242044  0.01215553  1
  Rh  Rh231  1  0.80358541  0.19852126  0.00761571  1
  Rh  Rh232  1  0.20228623  -0.00662219  0.58883773  1
  Rh  Rh233  1  0.40634570  0.19645628  0.79148791  1
  Rh  Rh234  1  0.79128572  0.80813116  0.60347116  1
  Rh  Rh235  1  0.79667423  0.19505400  0.80248119  1
  Rh  Rh236  1  0.79541839  0.20360976  0.40277079  1
  Rh  Rh237  1  0.80079097  0.59890485  0.80128086  1
  Rh  Rh238  1  -0.00143037  0.39646778  0.19643176  1
  Rh  Rh239  1  -0.00323939  -0.01129496  0.19997354  1
  Rh  Rh240  1  0.20075999  0.80579408  -0.00377000  1
  Rh  Rh241  1  0.80587812  0.39110636  0.39899645  1
  Rh  Rh242  1  0.79643855  0.59449155  0.59536736  1
  Rh  Rh243  1  0.40596211  0.79652483  0.40218721  1
  Rh  Rh244  1  -0.00622567  0.20810385  -0.00372644  1
  Rh  Rh245  1  -0.00079542  0.60406748  0.19255963  1
  Rh  Rh246  1  0.39753492  0.80466836  0.59152198  1
  Rh  Rh247  1  -0.00601440  0.60536082  -0.00693026  1
  Rh  Rh248  1  0.20179525  0.00629425  0.80639765  1
  Rh  Rh249  1  -0.00551999  0.19962980  0.61164735  1
