# generated using pymatgen
data_ZrScNbPdRh
_symmetry_space_group_name_H-M   'P 1'
_cell_length_a   16.55790762
_cell_length_b   16.55812559
_cell_length_c   16.55851954
_cell_angle_alpha   90.00582137
_cell_angle_beta   89.96532067
_cell_angle_gamma   90.01605171
_symmetry_Int_Tables_number   1
_chemical_formula_structural   ZrScNbPdRh
_chemical_formula_sum   'Zr50 Sc50 Nb50 Pd50 Rh50'
_cell_volume   4539.81372466
_cell_formula_units_Z   50
loop_
 _symmetry_equiv_pos_site_id
 _symmetry_equiv_pos_as_xyz
  1  'x, y, z'
loop_
 _atom_site_type_symbol
 _atom_site_label
 _atom_site_symmetry_multiplicity
 _atom_site_fract_x
 _atom_site_fract_y
 _atom_site_fract_z
 _atom_site_occupancy
  Zr  Zr0  1  0.08676248  0.50289247  0.29759628  1
  Zr  Zr1  1  0.50301113  0.09770821  0.10274819  1
  Zr  Zr2  1  0.49973953  0.30894140  0.90000153  1
  Zr  Zr3  1  0.89934271  0.70043664  0.70148602  1
  Zr  Zr4  1  0.09936644  0.89428258  0.49791254  1
  Zr  Zr5  1  0.88978174  0.08507318  0.50770929  1
  Zr  Zr6  1  0.69903619  0.30995284  0.29864646  1
  Zr  Zr7  1  0.30519484  0.49831094  0.49928791  1
  Zr  Zr8  1  0.90350719  0.90099390  0.29635329  1
  Zr  Zr9  1  0.50334892  0.09409905  0.30427525  1
  Zr  Zr10  1  0.90731282  0.69565319  0.90136715  1
  Zr  Zr11  1  0.90515639  0.09782202  0.89573911  1
  Zr  Zr12  1  0.30171220  0.30528990  0.49439435  1
  Zr  Zr13  1  0.70673539  0.89460951  0.49413904  1
  Zr  Zr14  1  0.29734316  0.69710335  0.90270345  1
  Zr  Zr15  1  0.29697938  0.31938496  0.10197698  1
  Zr  Zr16  1  0.09534948  0.10344157  0.71179105  1
  Zr  Zr17  1  0.71341196  0.09809311  0.70228096  1
  Zr  Zr18  1  0.10491212  0.89559684  0.69410884  1
  Zr  Zr19  1  0.70918766  0.49947217  0.48938002  1
  Zr  Zr20  1  0.29483577  0.09802767  0.09987932  1
  Zr  Zr21  1  0.70776647  0.10089018  0.29490586  1
  Zr  Zr22  1  0.29859834  0.09553486  0.69919222  1
  Zr  Zr23  1  0.69982754  0.50032325  0.89722982  1
  Zr  Zr24  1  0.50352241  0.30600446  0.10460733  1
  Zr  Zr25  1  0.49782204  0.30893982  0.70147200  1
  Zr  Zr26  1  0.50729995  0.89741407  0.10720078  1
  Zr  Zr27  1  0.69693907  0.89532271  0.28901243  1
  Zr  Zr28  1  0.29644103  0.69833244  0.28964000  1
  Zr  Zr29  1  0.49920655  0.09463913  0.90275066  1
  Zr  Zr30  1  0.69594947  0.09661557  0.50599244  1
  Zr  Zr31  1  0.30156678  0.89569005  0.69698353  1
  Zr  Zr32  1  0.50045115  0.70171243  0.49217327  1
  Zr  Zr33  1  0.70444312  0.70121996  0.68992618  1
  Zr  Zr34  1  0.89463077  0.49946752  0.70197605  1
  Zr  Zr35  1  0.70028442  0.29473317  0.11117522  1
  Zr  Zr36  1  0.50372752  0.50348959  0.31196875  1
  Zr  Zr37  1  0.50606504  0.09524488  0.69346620  1
  Zr  Zr38  1  0.10170998  0.89423066  0.29819542  1
  Zr  Zr39  1  0.69804347  0.49627137  0.10460161  1
  Zr  Zr40  1  0.89799482  0.49713806  0.90307540  1
  Zr  Zr41  1  0.50084105  0.89462785  0.30519185  1
  Zr  Zr42  1  0.48880964  0.50238739  0.09665779  1
  Zr  Zr43  1  0.09936819  0.50647867  0.69164832  1
  Zr  Zr44  1  0.50230433  0.90293134  0.49408516  1
  Zr  Zr45  1  0.90567365  0.30224303  0.70400091  1
  Zr  Zr46  1  0.89871561  0.50440779  0.30409037  1
  Zr  Zr47  1  0.49961168  0.09132797  0.49961783  1
  Zr  Zr48  1  0.30327632  0.50365811  0.69864455  1
  Zr  Zr49  1  0.70280834  0.50652010  0.29972431  1
  Sc  Sc50  1  0.09483873  0.30752471  0.10011715  1
  Sc  Sc51  1  0.50091550  0.30389114  0.30192755  1
  Sc  Sc52  1  0.29986054  0.30742797  0.70172939  1
  Sc  Sc53  1  0.09429268  0.70088362  0.50670542  1
  Sc  Sc54  1  0.09609419  0.10109262  0.29120070  1
  Sc  Sc55  1  0.30091453  0.69490019  0.49830134  1
  Sc  Sc56  1  0.09897220  0.69478154  0.70098407  1
  Sc  Sc57  1  0.49130814  0.69918130  0.89885416  1
  Sc  Sc58  1  0.51198504  0.69556970  0.69863961  1
  Sc  Sc59  1  0.90090557  0.30152498  0.09551076  1
  Sc  Sc60  1  0.91146138  0.50101165  0.09846732  1
  Sc  Sc61  1  0.90212601  0.89533836  0.09867767  1
  Sc  Sc62  1  0.09645014  0.31675685  0.49839994  1
  Sc  Sc63  1  0.70091970  0.09445901  0.10660813  1
  Sc  Sc64  1  0.90823428  0.70533606  0.10001310  1
  Sc  Sc65  1  0.90196368  0.90609550  0.69985302  1
  Sc  Sc66  1  0.09605223  0.70292113  0.29283637  1
  Sc  Sc67  1  0.09378404  0.29828811  0.90054530  1
  Sc  Sc68  1  0.29730180  0.89015211  0.30818234  1
  Sc  Sc69  1  0.49673907  0.30794349  0.49473619  1
  Sc  Sc70  1  0.09641651  0.69899833  0.89789987  1
  Sc  Sc71  1  0.70803237  0.29801749  0.68979253  1
  Sc  Sc72  1  0.09565430  0.10152193  0.90582790  1
  Sc  Sc73  1  0.90239089  0.30323845  0.90619925  1
  Sc  Sc74  1  0.70287019  0.71220453  0.88170441  1
  Sc  Sc75  1  0.70423039  0.70375136  0.11786837  1
  Sc  Sc76  1  0.49729765  0.70468399  0.29762522  1
  Sc  Sc77  1  0.10820709  0.08692858  0.50158743  1
  Sc  Sc78  1  0.90334888  0.09960899  0.10271498  1
  Sc  Sc79  1  0.29024316  0.90061773  0.49922105  1
  Sc  Sc80  1  0.49061228  0.89640599  0.90177848  1
  Sc  Sc81  1  0.49732813  0.49840181  0.88904579  1
  Sc  Sc82  1  0.09340254  0.89577721  0.09675847  1
  Sc  Sc83  1  0.09524519  0.30517146  0.29468755  1
  Sc  Sc84  1  0.29921665  0.31227734  0.89958941  1
  Sc  Sc85  1  0.90276059  0.70182971  0.29629303  1
  Sc  Sc86  1  0.30113895  0.08819594  0.49716391  1
  Sc  Sc87  1  0.29786754  0.09156544  0.90372492  1
  Sc  Sc88  1  0.90568906  0.50438639  0.49526514  1
  Sc  Sc89  1  0.50089883  0.89865813  0.69993913  1
  Sc  Sc90  1  0.29123217  0.88937693  0.08830147  1
  Sc  Sc91  1  0.29772398  0.09694515  0.30898155  1
  Sc  Sc92  1  0.28927685  0.69580807  0.70171174  1
  Sc  Sc93  1  0.71370567  0.09528725  0.90499052  1
  Sc  Sc94  1  0.89339720  0.31520990  0.50480465  1
  Sc  Sc95  1  0.09365448  0.50708692  0.90823749  1
  Sc  Sc96  1  0.70857247  0.30755441  0.91077461  1
  Sc  Sc97  1  0.09231765  0.09598168  0.09586567  1
  Sc  Sc98  1  0.90121529  0.89448565  0.90588957  1
  Sc  Sc99  1  0.90225721  0.30461781  0.29384255  1
  Nb  Nb100  1  0.50469515  0.49796876  0.69366269  1
  Nb  Nb101  1  0.69837736  0.89524810  0.09723120  1
  Nb  Nb102  1  0.88895994  0.71656284  0.50159463  1
  Nb  Nb103  1  0.10326513  0.50417488  0.49422911  1
  Nb  Nb104  1  0.70365340  0.89818221  0.90100523  1
  Nb  Nb105  1  0.10507515  0.89982993  0.90960083  1
  Nb  Nb106  1  0.70943119  0.70431450  0.49757786  1
  Nb  Nb107  1  0.29951270  0.49706442  0.29692723  1
  Nb  Nb108  1  0.70076245  0.30289330  0.49586214  1
  Nb  Nb109  1  0.29802767  0.29859348  0.30029213  1
  Nb  Nb110  1  0.10771000  0.69116684  0.10575453  1
  Nb  Nb111  1  0.90111422  0.89470867  0.49565438  1
  Nb  Nb112  1  0.10152470  0.29805760  0.70291910  1
  Nb  Nb113  1  0.30149698  0.68165986  0.09804607  1
  Nb  Nb114  1  0.90036386  0.09826632  0.30438773  1
  Nb  Nb115  1  0.29164124  0.89478837  0.89704846  1
  Nb  Nb116  1  0.70100873  0.69672642  0.30335121  1
  Nb  Nb117  1  0.49517047  0.69913760  0.09523789  1
  Nb  Nb118  1  0.49508469  0.50321426  0.50243444  1
  Nb  Nb119  1  0.90138667  0.10144324  0.70515144  1
  Nb  Nb120  1  0.29437646  0.50233055  0.90525324  1
  Nb  Nb121  1  0.69956106  0.88528350  0.72013420  1
  Nb  Nb122  1  0.69463593  0.50679796  0.69611452  1
  Nb  Nb123  1  0.10597106  0.50515506  0.09809947  1
  Nb  Nb124  1  0.29031945  0.51028446  0.09462773  1
  Nb  Nb125  1  0.19510719  0.20509643  0.40276734  1
  Nb  Nb126  1  0.60184586  0.41049784  0.59585079  1
  Nb  Nb127  1  0.20568591  0.20558497  0.00478557  1
  Nb  Nb128  1  0.39920640  0.20536032  0.00281786  1
  Nb  Nb129  1  0.19447605  0.40732020  0.79837363  1
  Nb  Nb130  1  0.19811666  -0.00995556  0.80541199  1
  Nb  Nb131  1  0.60092822  0.19645208  0.80379976  1
  Nb  Nb132  1  -0.00606178  -0.00073309  0.40042747  1
  Nb  Nb133  1  0.60750227  0.20063776  0.40385809  1
  Nb  Nb134  1  0.39468695  -0.00212148  0.19986841  1
  Nb  Nb135  1  0.40132638  0.79902689  0.59752555  1
  Nb  Nb136  1  0.79277648  0.60261150  0.00002560  1
  Nb  Nb137  1  0.80155080  0.19998152  0.40217228  1
  Nb  Nb138  1  0.40462174  0.19855454  0.80099586  1
  Nb  Nb139  1  0.59728469  0.19972766  -0.00161573  1
  Nb  Nb140  1  0.39708622  0.19953150  0.60156507  1
  Nb  Nb141  1  0.60306199  0.60854193  0.00205539  1
  Nb  Nb142  1  0.39426359  0.20004678  0.20018767  1
  Nb  Nb143  1  -0.00450013  0.19462576  0.40902140  1
  Nb  Nb144  1  0.60375164  0.79676086  0.00397403  1
  Nb  Nb145  1  0.00224181  0.19851545  0.60091454  1
  Nb  Nb146  1  0.20202901  -0.00514881  0.19813950  1
  Nb  Nb147  1  0.19705695  0.59141059  0.39609098  1
  Nb  Nb148  1  0.19761828  0.20450020  0.59856835  1
  Nb  Nb149  1  0.60790950  -0.00192571  0.80353176  1
  Pd  Pd150  1  0.39864572  -0.00026535  0.80067694  1
  Pd  Pd151  1  0.59235463  0.60338270  0.19649589  1
  Pd  Pd152  1  0.59192211  0.21256814  0.59716437  1
  Pd  Pd153  1  0.20165643  0.19707513  0.20102522  1
  Pd  Pd154  1  0.60415042  0.60666287  0.40478920  1
  Pd  Pd155  1  0.40377724  0.59649338  0.20611086  1
  Pd  Pd156  1  0.59909677  0.60469628  0.80644395  1
  Pd  Pd157  1  0.80944999  0.40345876  0.19564215  1
  Pd  Pd158  1  0.61386087  -0.01691278  0.61089629  1
  Pd  Pd159  1  0.79902060  0.20879187  0.80735216  1
  Pd  Pd160  1  0.00570644  -0.01058484  0.80775994  1
  Pd  Pd161  1  0.40122346  0.60042123  0.79614981  1
  Pd  Pd162  1  0.61395587  0.39295627  0.79036906  1
  Pd  Pd163  1  0.79324584  -0.01637408  0.60976456  1
  Pd  Pd164  1  0.39540779  -0.00744520  0.00654987  1
  Pd  Pd165  1  0.80498078  -0.00434973  0.19112426  1
  Pd  Pd166  1  -0.00845153  0.60344402  0.59389233  1
  Pd  Pd167  1  -0.00078385  0.61417634  0.40533086  1
  Pd  Pd168  1  0.00816281  0.40635669  0.80397944  1
  Pd  Pd169  1  0.00092595  0.40127962  0.59930266  1
  Pd  Pd170  1  0.40057980  0.79997011  0.00435004  1
  Pd  Pd171  1  0.19707955  0.78323118  0.40362209  1
  Pd  Pd172  1  0.19304280  0.40792128  0.20404295  1
  Pd  Pd173  1  0.40152069  0.79151816  0.78993771  1
  Pd  Pd174  1  0.60444708  0.59770805  0.58691282  1
  Pd  Pd175  1  -0.00377565  0.20104589  0.20072860  1
  Pd  Pd176  1  0.19549421  0.40109520  0.39048303  1
  Pd  Pd177  1  0.60648211  -0.00376614  -0.00565751  1
  Pd  Pd178  1  0.81099847  0.60237875  0.19319726  1
  Pd  Pd179  1  0.80718931  0.59735483  0.59246261  1
  Pd  Pd180  1  0.81168794  0.20428956  0.59404684  1
  Pd  Pd181  1  0.19838632  0.39928681  0.60463739  1
  Pd  Pd182  1  0.21017725  0.20400730  0.80768858  1
  Pd  Pd183  1  0.79327239  0.39461979  0.79527298  1
  Pd  Pd184  1  0.80146571  0.79878628  0.38560369  1
  Pd  Pd185  1  0.40132941  0.61033254  0.60628763  1
  Pd  Pd186  1  0.40233794  0.40133936  0.20890984  1
  Pd  Pd187  1  0.60075848  0.40345117  0.00173828  1
  Pd  Pd188  1  0.79358713  0.78998678  0.00173658  1
  Pd  Pd189  1  -0.00263984  0.79800843  0.60429880  1
  Pd  Pd190  1  0.79850379  0.60172405  0.80371402  1
  Pd  Pd191  1  0.79815163  0.19539068  0.00553951  1
  Pd  Pd192  1  0.00452127  0.00274809  0.59797436  1
  Pd  Pd193  1  0.39097174  0.80396160  0.19195587  1
  Pd  Pd194  1  0.59789778  0.80352078  0.59652742  1
  Pd  Pd195  1  0.80692392  -0.00063797  0.00647137  1
  Pd  Pd196  1  0.00136433  0.80637294  0.80085986  1
  Pd  Pd197  1  0.19362394  0.79812625  0.80028625  1
  Pd  Pd198  1  0.40067776  0.19967696  0.40016124  1
  Pd  Pd199  1  0.19471164  0.78690284  0.00428127  1
  Rh  Rh200  1  0.00393011  0.40134931  0.00168550  1
  Rh  Rh201  1  -0.00133469  0.60407939  0.00609006  1
  Rh  Rh202  1  0.59826816  0.79139063  0.19895777  1
  Rh  Rh203  1  0.19789438  0.59308373  0.20669947  1
  Rh  Rh204  1  0.59931501  -0.00146710  0.20442129  1
  Rh  Rh205  1  0.59328161  0.19839113  0.20430416  1
  Rh  Rh206  1  0.39460072  -0.01006915  0.39515844  1
  Rh  Rh207  1  -0.00581859  -0.00260328  -0.00206816  1
  Rh  Rh208  1  -0.00178703  0.80100718  0.40034292  1
  Rh  Rh209  1  0.00011992  0.60181781  0.19464295  1
  Rh  Rh210  1  0.58832590  0.80586318  0.81156959  1
  Rh  Rh211  1  0.61334955  0.00320270  0.39405641  1
  Rh  Rh212  1  0.20616833  0.79152817  0.59689385  1
  Rh  Rh213  1  0.80620837  0.61137505  0.40152328  1
  Rh  Rh214  1  0.81503487  0.80248495  0.79955515  1
  Rh  Rh215  1  0.80249985  0.40905513  0.00796936  1
  Rh  Rh216  1  0.39633728  -0.00843391  0.59188954  1
  Rh  Rh217  1  0.80859989  0.20202089  0.20375369  1
  Rh  Rh218  1  -0.00017184  0.40463967  0.19557882  1
  Rh  Rh219  1  0.79222440  0.41048972  0.60391785  1
  Rh  Rh220  1  0.59399079  0.41119221  0.20584897  1
  Rh  Rh221  1  -0.00069787  0.59522696  0.79698365  1
  Rh  Rh222  1  -0.00425801  0.39693954  0.40019330  1
  Rh  Rh223  1  0.00511402  0.20149951  0.00211153  1
  Rh  Rh224  1  0.40654805  0.39941010  0.59733567  1
  Rh  Rh225  1  0.39646206  0.40783952  -0.00249822  1
  Rh  Rh226  1  0.19680003  0.59273350  0.80689448  1
  Rh  Rh227  1  0.00898601  0.79484772  0.00086121  1
  Rh  Rh228  1  0.40277689  0.59393143  -0.00787911  1
  Rh  Rh229  1  0.80127708  0.80753844  0.60728535  1
  Rh  Rh230  1  0.80015853  -0.00169447  0.39620356  1
  Rh  Rh231  1  0.19376224  0.40043719  -0.00757554  1
  Rh  Rh232  1  0.80042241  -0.00742783  0.80103524  1
  Rh  Rh233  1  0.39055628  0.59929333  0.39140396  1
  Rh  Rh234  1  0.19907267  0.60079407  0.58798519  1
  Rh  Rh235  1  0.38922881  0.40788817  0.80037791  1
  Rh  Rh236  1  0.59878433  0.39933418  0.40645195  1
  Rh  Rh237  1  0.60713557  0.79346202  0.39681325  1
  Rh  Rh238  1  0.18777875  0.00580506  0.38582065  1
  Rh  Rh239  1  -0.00756464  0.20304421  0.80126160  1
  Rh  Rh240  1  0.19428692  0.00427330  -0.00195931  1
  Rh  Rh241  1  0.20160435  0.80070349  0.19005918  1
  Rh  Rh242  1  0.80300840  0.80096746  0.20194603  1
  Rh  Rh243  1  0.80709814  0.39616211  0.39372422  1
  Rh  Rh244  1  0.00241850  0.79791466  0.19567314  1
  Rh  Rh245  1  0.39491862  0.79923249  0.40811623  1
  Rh  Rh246  1  0.19371884  0.60527971  -0.00468795  1
  Rh  Rh247  1  0.40019811  0.40388547  0.39331754  1
  Rh  Rh248  1  0.19642116  0.00348730  0.61043491  1
  Rh  Rh249  1  0.00412135  -0.00279874  0.20395816  1
