# generated using pymatgen
data_ZrScNbPdRh
_symmetry_space_group_name_H-M   'P 1'
_cell_length_a   16.55982918
_cell_length_b   16.56532242
_cell_length_c   16.56474093
_cell_angle_alpha   90.01068270
_cell_angle_beta   90.00262518
_cell_angle_gamma   89.97369240
_symmetry_Int_Tables_number   1
_chemical_formula_structural   ZrScNbPdRh
_chemical_formula_sum   'Zr50 Sc50 Nb50 Pd50 Rh50'
_cell_volume   4544.02110645
_cell_formula_units_Z   50
loop_
 _symmetry_equiv_pos_site_id
 _symmetry_equiv_pos_as_xyz
  1  'x, y, z'
loop_
 _atom_site_type_symbol
 _atom_site_label
 _atom_site_symmetry_multiplicity
 _atom_site_fract_x
 _atom_site_fract_y
 _atom_site_fract_z
 _atom_site_occupancy
  Zr  Zr0  1  0.50843947  0.10206169  0.89500611  1
  Zr  Zr1  1  0.51314137  0.30149456  0.10495281  1
  Zr  Zr2  1  0.50260287  0.09147317  0.49907842  1
  Zr  Zr3  1  0.90263875  0.90551723  0.69006774  1
  Zr  Zr4  1  0.69597945  0.30597955  0.70625701  1
  Zr  Zr5  1  0.30257647  0.49895322  0.10782771  1
  Zr  Zr6  1  0.10034628  0.89981846  0.50147196  1
  Zr  Zr7  1  0.09979848  0.89849372  0.70369798  1
  Zr  Zr8  1  0.69361348  0.89778587  0.50695770  1
  Zr  Zr9  1  0.29303674  0.50517590  0.29583252  1
  Zr  Zr10  1  0.71033018  0.71026850  0.89605885  1
  Zr  Zr11  1  0.49746027  0.70363390  0.10166173  1
  Zr  Zr12  1  0.69095651  0.09811455  0.70178041  1
  Zr  Zr13  1  0.90178098  0.09444020  0.50158248  1
  Zr  Zr14  1  0.30187011  0.31081646  0.29948549  1
  Zr  Zr15  1  0.89890009  0.29310650  0.70370460  1
  Zr  Zr16  1  0.90358293  0.69818365  0.30522812  1
  Zr  Zr17  1  0.30098481  0.89407268  0.49804549  1
  Zr  Zr18  1  0.91024570  0.50264537  0.50163659  1
  Zr  Zr19  1  0.90330131  0.90096071  0.09829110  1
  Zr  Zr20  1  0.29791243  0.90806633  0.90722886  1
  Zr  Zr21  1  0.49142029  0.48787100  0.29554495  1
  Zr  Zr22  1  0.10799223  0.30218857  0.31025332  1
  Zr  Zr23  1  0.69804600  0.29397077  0.29435481  1
  Zr  Zr24  1  0.90616506  0.90502956  0.30354673  1
  Zr  Zr25  1  0.10285327  0.09372367  0.30154505  1
  Zr  Zr26  1  0.30360764  0.50207631  0.50296842  1
  Zr  Zr27  1  0.50383443  0.09254513  0.29454171  1
  Zr  Zr28  1  0.49913157  0.89554326  0.89570488  1
  Zr  Zr29  1  0.90014248  0.70055476  0.70558126  1
  Zr  Zr30  1  0.70082086  0.69970119  0.10771304  1
  Zr  Zr31  1  0.50488981  0.29504505  0.89619529  1
  Zr  Zr32  1  0.49284908  0.31187001  0.49987446  1
  Zr  Zr33  1  0.28999633  0.29600124  0.49456177  1
  Zr  Zr34  1  0.69765042  0.90576244  0.89314484  1
  Zr  Zr35  1  0.70027275  0.30081059  0.49177449  1
  Zr  Zr36  1  0.09906929  0.70674980  0.09346143  1
  Zr  Zr37  1  0.90179149  0.89767774  0.49566229  1
  Zr  Zr38  1  0.49654445  0.89668004  0.50466659  1
  Zr  Zr39  1  0.30150721  0.09746448  0.90227073  1
  Zr  Zr40  1  0.90081287  0.49978995  0.69501844  1
  Zr  Zr41  1  0.29511870  0.90964845  0.29819429  1
  Zr  Zr42  1  0.90326095  0.50467535  0.29589325  1
  Zr  Zr43  1  0.30115019  0.08340854  0.10190520  1
  Zr  Zr44  1  0.69498430  0.70505132  0.50029636  1
  Zr  Zr45  1  0.70535861  0.50621670  0.70714273  1
  Zr  Zr46  1  0.10225256  0.89554681  0.90035579  1
  Zr  Zr47  1  0.09479572  0.50988876  0.10428974  1
  Zr  Zr48  1  0.49955910  0.71112919  0.90098872  1
  Zr  Zr49  1  0.89682758  0.09052821  0.09967845  1
  Sc  Sc50  1  0.49994785  0.50242328  0.50073065  1
  Sc  Sc51  1  0.90035856  0.49275797  0.10226308  1
  Sc  Sc52  1  0.49992819  0.49539179  0.10509363  1
  Sc  Sc53  1  0.90317640  0.70356777  0.49970665  1
  Sc  Sc54  1  0.70152909  0.49031053  0.10649090  1
  Sc  Sc55  1  0.29582985  0.69958684  0.68979069  1
  Sc  Sc56  1  0.10412000  0.69092659  0.30304749  1
  Sc  Sc57  1  0.69774775  0.09748444  0.10236633  1
  Sc  Sc58  1  0.50388301  0.48908902  0.90323414  1
  Sc  Sc59  1  0.49804094  0.49921139  0.68609064  1
  Sc  Sc60  1  0.69935572  0.09634041  0.30060324  1
  Sc  Sc61  1  0.88975525  0.89874469  0.90652535  1
  Sc  Sc62  1  0.89111804  0.49702513  0.90068988  1
  Sc  Sc63  1  0.09456273  0.30400411  0.09207539  1
  Sc  Sc64  1  0.50987261  0.09642579  0.10270737  1
  Sc  Sc65  1  0.29680115  0.89926319  0.68775999  1
  Sc  Sc66  1  0.89427890  0.08989428  0.30147440  1
  Sc  Sc67  1  0.50474353  0.70096729  0.29830241  1
  Sc  Sc68  1  0.49881787  0.90098551  0.30484956  1
  Sc  Sc69  1  0.29689888  0.50461906  0.69748901  1
  Sc  Sc70  1  0.69527391  0.30889200  0.89852356  1
  Sc  Sc71  1  0.10152865  0.90442521  0.30603996  1
  Sc  Sc72  1  0.10113544  0.50962987  0.70434540  1
  Sc  Sc73  1  0.49592003  0.70416207  0.50349083  1
  Sc  Sc74  1  0.50029595  0.90275264  0.10485213  1
  Sc  Sc75  1  0.90602878  0.69053430  0.09799859  1
  Sc  Sc76  1  0.29958702  0.09480030  0.50712295  1
  Sc  Sc77  1  0.70288187  0.50260489  0.30148243  1
  Sc  Sc78  1  0.09198539  0.29033277  0.69283345  1
  Sc  Sc79  1  0.70172179  0.50281864  0.50235211  1
  Sc  Sc80  1  0.29512879  0.49285211  0.89799977  1
  Sc  Sc81  1  0.30307643  0.71902309  0.90321269  1
  Sc  Sc82  1  0.69786792  0.09327174  0.49125869  1
  Sc  Sc83  1  0.09614829  0.09409588  0.09053852  1
  Sc  Sc84  1  0.10131598  0.69744523  0.49749869  1
  Sc  Sc85  1  0.70821730  0.90706636  0.09420312  1
  Sc  Sc86  1  0.70089693  0.69490066  0.30316216  1
  Sc  Sc87  1  0.70776668  0.70681470  0.69585073  1
  Sc  Sc88  1  0.08636659  0.09171122  0.69949298  1
  Sc  Sc89  1  0.90986398  0.10034254  0.89472977  1
  Sc  Sc90  1  0.30577637  0.29079596  0.69478792  1
  Sc  Sc91  1  0.10163639  0.29613524  0.90447298  1
  Sc  Sc92  1  0.29597306  0.30103188  0.90161500  1
  Sc  Sc93  1  0.10125243  0.50174521  0.30534922  1
  Sc  Sc94  1  0.10475922  0.50036466  0.89566633  1
  Sc  Sc95  1  0.90530284  0.30954358  0.50567669  1
  Sc  Sc96  1  0.49479569  0.10655516  0.70028786  1
  Sc  Sc97  1  0.10484842  0.10610519  0.50194187  1
  Sc  Sc98  1  0.29788299  0.70540630  0.50007715  1
  Sc  Sc99  1  0.90506569  0.70701346  0.90191335  1
  Nb  Nb100  1  0.49319503  0.70247746  0.70110754  1
  Nb  Nb101  1  0.29823304  0.10215539  0.29792776  1
  Nb  Nb102  1  0.69799440  0.50587265  0.89712570  1
  Nb  Nb103  1  0.69930440  0.90128210  0.69703313  1
  Nb  Nb104  1  0.30110189  0.69596503  0.29797178  1
  Nb  Nb105  1  0.70352910  0.90125610  0.30114953  1
  Nb  Nb106  1  0.10882728  0.08848996  0.89091722  1
  Nb  Nb107  1  0.10267038  0.89844249  0.10416932  1
  Nb  Nb108  1  0.30484632  0.09841203  0.70543128  1
  Nb  Nb109  1  0.50672362  0.90088444  0.69745272  1
  Nb  Nb110  1  0.49805468  0.30035359  0.70101157  1
  Nb  Nb111  1  0.90014302  0.30064879  0.90706388  1
  Nb  Nb112  1  0.89851658  0.10144081  0.69773802  1
  Nb  Nb113  1  0.70730344  0.29492616  0.09972761  1
  Nb  Nb114  1  0.29768090  0.69854916  0.10503989  1
  Nb  Nb115  1  0.09784019  0.70335698  0.71795818  1
  Nb  Nb116  1  0.30065709  0.29580324  0.09887995  1
  Nb  Nb117  1  0.89966758  0.29516527  0.29372498  1
  Nb  Nb118  1  0.89539808  0.29960395  0.09630555  1
  Nb  Nb119  1  0.09823537  0.49398805  0.50042364  1
  Nb  Nb120  1  0.29190914  0.89271515  0.10059871  1
  Nb  Nb121  1  0.69649011  0.10338800  0.90066832  1
  Nb  Nb122  1  0.09780858  0.30273769  0.49930314  1
  Nb  Nb123  1  0.10143200  0.70226287  0.89610007  1
  Nb  Nb124  1  0.49882712  0.29650292  0.30075117  1
  Nb  Nb125  1  0.40052088  -0.00215115  0.79629570  1
  Nb  Nb126  1  0.40302480  0.39844143  0.79451796  1
  Nb  Nb127  1  0.60142579  0.60151560  -0.00509488  1
  Nb  Nb128  1  0.19987435  0.18821177  0.79927406  1
  Nb  Nb129  1  0.39898105  0.60216708  -0.00181779  1
  Nb  Nb130  1  0.80110492  0.20517136  -0.00153634  1
  Nb  Nb131  1  0.80677998  0.80201331  0.20433119  1
  Nb  Nb132  1  -0.00212153  0.20226095  0.20205292  1
  Nb  Nb133  1  0.40086724  0.20091021  0.00766055  1
  Nb  Nb134  1  0.59571578  0.60463302  0.80248206  1
  Nb  Nb135  1  0.79026239  0.59796342  -0.00182155  1
  Nb  Nb136  1  0.20195802  0.19917046  0.19689466  1
  Nb  Nb137  1  0.19311970  0.39765950  0.59535864  1
  Nb  Nb138  1  0.20442379  0.60841212  0.00066857  1
  Nb  Nb139  1  0.38764447  0.80015276  0.20080247  1
  Nb  Nb140  1  -0.00095998  0.20461172  0.39576194  1
  Nb  Nb141  1  0.40595224  0.60108718  0.80427466  1
  Nb  Nb142  1  0.39615612  0.60118493  0.39368502  1
  Nb  Nb143  1  0.39637474  0.20013695  0.20033288  1
  Nb  Nb144  1  0.40026728  0.19939253  0.39225672  1
  Nb  Nb145  1  0.79612005  0.19809301  0.60300692  1
  Nb  Nb146  1  0.79681674  0.00595210  0.79381936  1
  Nb  Nb147  1  0.00055084  0.80285842  0.19995454  1
  Nb  Nb148  1  -0.00474487  0.39380174  0.80047516  1
  Nb  Nb149  1  0.60016359  0.20645115  0.59828733  1
  Pd  Pd150  1  0.59175049  0.19910521  0.40348140  1
  Pd  Pd151  1  0.19021108  0.39479477  0.19179086  1
  Pd  Pd152  1  0.80307456  0.19134484  0.19537116  1
  Pd  Pd153  1  0.00609788  0.79066507  0.60069886  1
  Pd  Pd154  1  0.79694173  0.39620478  0.59759140  1
  Pd  Pd155  1  0.39464739  0.00483771  0.40110465  1
  Pd  Pd156  1  0.59572021  0.80146035  0.39612899  1
  Pd  Pd157  1  0.60249045  0.40606330  0.39504262  1
  Pd  Pd158  1  0.80998105  0.20038892  0.40658466  1
  Pd  Pd159  1  0.00464035  0.39365064  0.20230606  1
  Pd  Pd160  1  0.60767262  0.40323935  0.00320798  1
  Pd  Pd161  1  0.59843037  -0.00463432  0.00228344  1
  Pd  Pd162  1  0.60505838  0.80884857  0.20346366  1
  Pd  Pd163  1  0.00274633  -0.00560411  -0.00821026  1
  Pd  Pd164  1  -0.00345239  0.19503444  0.00295688  1
  Pd  Pd165  1  0.79946845  0.40120494  0.20465416  1
  Pd  Pd166  1  0.19723230  0.38370797  0.78486027  1
  Pd  Pd167  1  0.19525212  0.79760735  0.20977774  1
  Pd  Pd168  1  -0.00893364  0.81028040  0.80553741  1
  Pd  Pd169  1  0.80106517  0.59845094  0.40748332  1
  Pd  Pd170  1  0.79714480  0.80161742  0.39783310  1
  Pd  Pd171  1  -0.00188474  0.59387642  -0.01165790  1
  Pd  Pd172  1  -0.00608257  0.39716420  0.39290196  1
  Pd  Pd173  1  0.38998644  0.80602552  0.78792070  1
  Pd  Pd174  1  0.59048843  0.59656847  0.39899180  1
  Pd  Pd175  1  -0.00774856  0.59136103  0.80897633  1
  Pd  Pd176  1  0.19728998  0.79867610  0.39440747  1
  Pd  Pd177  1  0.80544422  0.40212481  0.39608332  1
  Pd  Pd178  1  0.20241012  0.19425151  0.00015232  1
  Pd  Pd179  1  0.60487434  0.40009826  0.60084520  1
  Pd  Pd180  1  0.59870594  0.60711433  0.60659515  1
  Pd  Pd181  1  0.79484112  0.19533920  0.80536226  1
  Pd  Pd182  1  0.40542982  0.19812464  0.58921932  1
  Pd  Pd183  1  0.19662589  0.19737157  0.60923300  1
  Pd  Pd184  1  0.21063578  0.80160135  0.79518235  1
  Pd  Pd185  1  0.39891427  0.39781168  -0.00387631  1
  Pd  Pd186  1  0.19672688  0.40864427  0.00614150  1
  Pd  Pd187  1  0.59704615  0.59181802  0.19820879  1
  Pd  Pd188  1  0.19585589  0.00451423  0.60300841  1
  Pd  Pd189  1  0.80492859  0.39798168  0.80474400  1
  Pd  Pd190  1  0.00124287  0.40849808  -0.00743784  1
  Pd  Pd191  1  0.00875354  0.20190028  0.80701200  1
  Pd  Pd192  1  0.21419969  0.61044977  0.81064261  1
  Pd  Pd193  1  0.41244604  0.00149154  -0.00138612  1
  Pd  Pd194  1  0.19122310  0.60035671  0.59742557  1
  Pd  Pd195  1  0.60807969  0.80484787  0.00589612  1
  Pd  Pd196  1  0.00850229  0.60867128  0.60286695  1
  Pd  Pd197  1  0.79410405  0.00529246  0.60003189  1
  Pd  Pd198  1  0.80126748  0.60719741  0.59303029  1
  Pd  Pd199  1  0.60498976  0.79532905  0.78983428  1
  Rh  Rh200  1  0.60253141  0.20408819  0.79417381  1
  Rh  Rh201  1  0.40439781  -0.00429744  0.60831966  1
  Rh  Rh202  1  0.20446468  0.00224383  0.40962037  1
  Rh  Rh203  1  0.00824085  0.79795417  0.39423610  1
  Rh  Rh204  1  0.00311418  0.59706148  0.40339060  1
  Rh  Rh205  1  0.60762951  0.39724914  0.20547040  1
  Rh  Rh206  1  0.00518789  0.00046331  0.59523264  1
  Rh  Rh207  1  0.39632103  0.40383045  0.40062635  1
  Rh  Rh208  1  0.00660616  0.00775782  0.40820029  1
  Rh  Rh209  1  0.39670251  0.80239882  0.01458739  1
  Rh  Rh210  1  0.39860022  0.79229865  0.39115035  1
  Rh  Rh211  1  0.79363726  0.39946409  -0.00031602  1
  Rh  Rh212  1  -0.00978037  -0.00588409  0.80234004  1
  Rh  Rh213  1  0.79938166  0.01632133  -0.01474731  1
  Rh  Rh214  1  0.80383523  0.60271243  0.19313966  1
  Rh  Rh215  1  0.40123565  0.39029013  0.19330478  1
  Rh  Rh216  1  0.60641157  0.20187280  0.00270796  1
  Rh  Rh217  1  0.59680064  0.79591617  0.60625654  1
  Rh  Rh218  1  0.80344687  0.78886991  0.01447485  1
  Rh  Rh219  1  0.20095936  0.19309230  0.39572632  1
  Rh  Rh220  1  0.40698484  0.60847393  0.20199468  1
  Rh  Rh221  1  0.40115239  0.60582967  0.59648773  1
  Rh  Rh222  1  0.00610398  -0.00168874  0.19862032  1
  Rh  Rh223  1  0.19261923  0.00323517  0.19455751  1
  Rh  Rh224  1  0.60673870  -0.00620386  0.20188620  1
  Rh  Rh225  1  0.19216944  -0.00520304  0.00557753  1
  Rh  Rh226  1  0.60411931  -0.00985303  0.39706975  1
  Rh  Rh227  1  0.20734366  0.00016531  0.79109572  1
  Rh  Rh228  1  0.20567983  0.59670574  0.40674446  1
  Rh  Rh229  1  -0.00786781  0.19706464  0.58866409  1
  Rh  Rh230  1  0.80304437  0.79866690  0.59865094  1
  Rh  Rh231  1  0.00188782  0.60609485  0.20424100  1
  Rh  Rh232  1  0.20232361  0.41076446  0.40885595  1
  Rh  Rh233  1  0.00156554  0.80444313  0.00111427  1
  Rh  Rh234  1  0.19787206  0.79914090  -0.00179974  1
  Rh  Rh235  1  0.80605117  0.81524916  0.78916391  1
  Rh  Rh236  1  0.38679273  0.39896398  0.60767429  1
  Rh  Rh237  1  0.59509099  0.00384098  0.60290277  1
  Rh  Rh238  1  0.79482055  -0.00543928  0.20526404  1
  Rh  Rh239  1  0.60014368  0.19764436  0.20012995  1
  Rh  Rh240  1  0.40107490  0.80091313  0.60216695  1
  Rh  Rh241  1  0.19320607  0.60364886  0.19458810  1
  Rh  Rh242  1  0.01018589  0.40510439  0.61251010  1
  Rh  Rh243  1  0.79468841  -0.00707567  0.40289795  1
  Rh  Rh244  1  0.59045041  0.41301385  0.79081698  1
  Rh  Rh245  1  0.40000718  -0.00559656  0.19972570  1
  Rh  Rh246  1  0.39283844  0.20236867  0.80993538  1
  Rh  Rh247  1  0.80208015  0.60516820  0.80534887  1
  Rh  Rh248  1  0.59645042  -0.00154867  0.79539582  1
  Rh  Rh249  1  0.18818287  0.79244982  0.60496646  1
