# generated using pymatgen
data_ZrScNbPdRh
_symmetry_space_group_name_H-M   'P 1'
_cell_length_a   16.55386770
_cell_length_b   16.55675432
_cell_length_c   16.55347250
_cell_angle_alpha   89.99180820
_cell_angle_beta   90.03411027
_cell_angle_gamma   89.98443462
_symmetry_Int_Tables_number   1
_chemical_formula_structural   ZrScNbPdRh
_chemical_formula_sum   'Zr50 Sc50 Nb50 Pd50 Rh50'
_cell_volume   4536.94692499
_cell_formula_units_Z   50
loop_
 _symmetry_equiv_pos_site_id
 _symmetry_equiv_pos_as_xyz
  1  'x, y, z'
loop_
 _atom_site_type_symbol
 _atom_site_label
 _atom_site_symmetry_multiplicity
 _atom_site_fract_x
 _atom_site_fract_y
 _atom_site_fract_z
 _atom_site_occupancy
  Zr  Zr0  1  0.29957654  0.08981722  0.50323675  1
  Zr  Zr1  1  0.10331809  0.50802079  0.30362176  1
  Zr  Zr2  1  0.29863209  0.90073388  0.90071926  1
  Zr  Zr3  1  0.90895596  0.69772322  0.10257659  1
  Zr  Zr4  1  0.09539023  0.50117461  0.10116658  1
  Zr  Zr5  1  0.49819516  0.69707171  0.09356329  1
  Zr  Zr6  1  0.29474894  0.30444895  0.89736953  1
  Zr  Zr7  1  0.30007238  0.09403516  0.89895557  1
  Zr  Zr8  1  0.70434263  0.50336534  0.10769637  1
  Zr  Zr9  1  0.29612342  0.49960510  0.29582351  1
  Zr  Zr10  1  0.09944322  0.69615074  0.69572868  1
  Zr  Zr11  1  0.69694201  0.29889497  0.50516983  1
  Zr  Zr12  1  0.28916548  0.69821204  0.30077589  1
  Zr  Zr13  1  0.30090996  0.30969361  0.70219340  1
  Zr  Zr14  1  0.90317228  0.70272280  0.29880119  1
  Zr  Zr15  1  0.49308115  0.89798536  0.89476285  1
  Zr  Zr16  1  0.49297800  0.89042421  0.10148158  1
  Zr  Zr17  1  0.70182445  0.49688397  0.50439145  1
  Zr  Zr18  1  0.49993296  0.29621097  0.29901411  1
  Zr  Zr19  1  0.30404849  0.70261678  0.50292369  1
  Zr  Zr20  1  0.70045348  0.30091337  0.89745243  1
  Zr  Zr21  1  0.90516175  0.29750685  0.48928395  1
  Zr  Zr22  1  0.90365907  0.50322798  0.89994345  1
  Zr  Zr23  1  0.70558589  0.69735461  0.69927796  1
  Zr  Zr24  1  0.10314875  0.69663614  0.49117574  1
  Zr  Zr25  1  0.49737609  0.70642338  0.50076441  1
  Zr  Zr26  1  0.89425658  0.30157131  0.70602178  1
  Zr  Zr27  1  0.30112124  0.10883452  0.10340291  1
  Zr  Zr28  1  0.90035489  0.30103068  0.90084702  1
  Zr  Zr29  1  0.09838498  0.09404299  0.10379604  1
  Zr  Zr30  1  0.89285455  0.89591718  0.70180206  1
  Zr  Zr31  1  0.90684851  0.90000768  0.29706380  1
  Zr  Zr32  1  0.10606661  0.29992331  0.30684090  1
  Zr  Zr33  1  0.29063070  0.89876878  0.09973215  1
  Zr  Zr34  1  0.90533279  0.88888315  0.89823469  1
  Zr  Zr35  1  0.49591694  0.49563838  0.30345412  1
  Zr  Zr36  1  0.48558008  0.69912351  0.70189795  1
  Zr  Zr37  1  0.50199836  0.30109258  0.50640463  1
  Zr  Zr38  1  0.50448397  0.69116893  0.90459183  1
  Zr  Zr39  1  0.69958719  0.10117027  0.09536358  1
  Zr  Zr40  1  0.50326339  0.09535452  0.51047108  1
  Zr  Zr41  1  0.09991556  0.09406946  0.90570688  1
  Zr  Zr42  1  0.49666466  0.90506045  0.49379971  1
  Zr  Zr43  1  0.90124792  0.90321274  0.49957491  1
  Zr  Zr44  1  0.10176137  0.89734106  0.91159847  1
  Zr  Zr45  1  0.69771059  0.70341013  0.49715294  1
  Zr  Zr46  1  0.49947511  0.49609922  0.50307942  1
  Zr  Zr47  1  0.50110428  0.90354866  0.30524727  1
  Zr  Zr48  1  0.69454254  0.10957327  0.89692771  1
  Zr  Zr49  1  0.70202823  0.69722630  0.29584803  1
  Sc  Sc50  1  0.90017147  0.09504767  0.10080508  1
  Sc  Sc51  1  0.90850432  0.70185408  0.50053546  1
  Sc  Sc52  1  0.29341494  0.30405429  0.50051458  1
  Sc  Sc53  1  0.50525265  0.30106011  0.69562917  1
  Sc  Sc54  1  0.69026346  0.49786371  0.89989581  1
  Sc  Sc55  1  0.29799800  0.50124634  0.49877411  1
  Sc  Sc56  1  0.10663930  0.09854533  0.48548951  1
  Sc  Sc57  1  0.89825653  0.49823372  0.69575068  1
  Sc  Sc58  1  0.70493951  0.49214895  0.70270246  1
  Sc  Sc59  1  0.30123761  0.90595935  0.70485046  1
  Sc  Sc60  1  0.68772228  0.90044432  0.50383330  1
  Sc  Sc61  1  0.30229450  0.49987433  0.89478679  1
  Sc  Sc62  1  0.90003295  0.90265387  0.10131395  1
  Sc  Sc63  1  0.49732835  0.49225444  0.70528651  1
  Sc  Sc64  1  0.10765471  0.09123668  0.71043257  1
  Sc  Sc65  1  0.89024836  0.09420706  0.70989153  1
  Sc  Sc66  1  0.09363061  0.89962204  0.70924866  1
  Sc  Sc67  1  0.10190295  0.30713217  0.49720609  1
  Sc  Sc68  1  0.49644027  0.10999297  0.09963105  1
  Sc  Sc69  1  0.69373891  0.09520753  0.50432999  1
  Sc  Sc70  1  0.10459951  0.90553404  0.48709816  1
  Sc  Sc71  1  0.50329283  0.50248056  0.09228079  1
  Sc  Sc72  1  0.50944843  0.30165221  0.89898206  1
  Sc  Sc73  1  0.50162939  0.49769414  0.90124105  1
  Sc  Sc74  1  0.50230556  0.90552456  0.70231623  1
  Sc  Sc75  1  0.70102530  0.89543111  0.30491159  1
  Sc  Sc76  1  0.09643047  0.49605152  0.89940787  1
  Sc  Sc77  1  0.69066982  0.09360537  0.70496981  1
  Sc  Sc78  1  0.49332107  0.70414898  0.29374960  1
  Sc  Sc79  1  0.29430920  0.10330479  0.29873903  1
  Sc  Sc80  1  0.49730912  0.09445968  0.30059795  1
  Sc  Sc81  1  0.10169176  0.71160631  0.10203160  1
  Sc  Sc82  1  0.30170794  0.90068554  0.29919631  1
  Sc  Sc83  1  0.69243160  0.29279327  0.09754166  1
  Sc  Sc84  1  0.90324106  0.49957158  0.28074059  1
  Sc  Sc85  1  0.30147363  0.69968736  0.10606501  1
  Sc  Sc86  1  0.89639860  0.09903235  0.90688330  1
  Sc  Sc87  1  0.70931680  0.89405062  0.90211979  1
  Sc  Sc88  1  0.10493543  0.30925085  0.70118340  1
  Sc  Sc89  1  0.29672046  0.29921109  0.29292611  1
  Sc  Sc90  1  0.70436634  0.10810640  0.29536325  1
  Sc  Sc91  1  0.09633070  0.49710900  0.49555143  1
  Sc  Sc92  1  0.09916434  0.70493996  0.29759693  1
  Sc  Sc93  1  0.90332432  0.70322531  0.70358256  1
  Sc  Sc94  1  0.10358891  0.50227668  0.69284725  1
  Sc  Sc95  1  0.31369438  0.69094578  0.89341721  1
  Sc  Sc96  1  0.89960609  0.10983071  0.30094653  1
  Sc  Sc97  1  0.29282729  0.49861051  0.10236471  1
  Sc  Sc98  1  0.50032629  0.29450813  0.10092068  1
  Sc  Sc99  1  0.69253198  0.70382711  0.09875332  1
  Nb  Nb100  1  0.10332668  0.91176438  0.28926465  1
  Nb  Nb101  1  0.70175602  0.89504986  0.70506991  1
  Nb  Nb102  1  0.29714456  0.69489042  0.70044876  1
  Nb  Nb103  1  0.30234715  0.51049659  0.70164333  1
  Nb  Nb104  1  0.29566857  0.89930064  0.49635515  1
  Nb  Nb105  1  0.50383619  0.09432781  0.89027025  1
  Nb  Nb106  1  0.70562498  0.69660656  0.89823314  1
  Nb  Nb107  1  0.70176961  0.29621249  0.70431385  1
  Nb  Nb108  1  0.30021022  0.10154340  0.70124705  1
  Nb  Nb109  1  0.08711128  0.70045792  0.90250085  1
  Nb  Nb110  1  0.70386080  0.49994374  0.29839016  1
  Nb  Nb111  1  0.10566430  0.10161442  0.29314145  1
  Nb  Nb112  1  0.10064112  0.29869847  0.90385286  1
  Nb  Nb113  1  0.09765747  0.90522099  0.10591635  1
  Nb  Nb114  1  0.10626941  0.30510301  0.09578283  1
  Nb  Nb115  1  0.90772568  0.31336032  0.10681609  1
  Nb  Nb116  1  0.89723894  0.29867681  0.29832665  1
  Nb  Nb117  1  0.29648809  0.30128474  0.09942219  1
  Nb  Nb118  1  0.90335494  0.70065541  0.90371785  1
  Nb  Nb119  1  0.89801196  0.10436530  0.50163284  1
  Nb  Nb120  1  0.50071784  0.09965298  0.70618706  1
  Nb  Nb121  1  0.69556172  0.90534519  0.09891863  1
  Nb  Nb122  1  0.89944272  0.50110025  0.09980722  1
  Nb  Nb123  1  0.90098743  0.49698163  0.48821993  1
  Nb  Nb124  1  0.70481177  0.29727185  0.29948654  1
  Nb  Nb125  1  0.19727624  0.20611738  0.00083419  1
  Nb  Nb126  1  0.59741289  -0.00165791  -0.00023649  1
  Nb  Nb127  1  0.60271680  0.59652254  0.40024598  1
  Nb  Nb128  1  0.19991235  0.78856974  0.79894618  1
  Nb  Nb129  1  0.00424822  0.20997859  0.19814523  1
  Nb  Nb130  1  0.00440277  0.20251654  0.80217880  1
  Nb  Nb131  1  0.80162119  0.39892653  0.39016845  1
  Nb  Nb132  1  0.20433500  0.79902316  0.60130762  1
  Nb  Nb133  1  0.19388225  0.60382128  -0.00417038  1
  Nb  Nb134  1  0.80505877  0.40373357  0.00733358  1
  Nb  Nb135  1  0.80038479  0.59296477  0.39663287  1
  Nb  Nb136  1  0.39426600  0.39385979  0.00167509  1
  Nb  Nb137  1  0.80319601  0.19876650  0.60080055  1
  Nb  Nb138  1  0.19869607  0.19513715  0.60489986  1
  Nb  Nb139  1  0.59713722  0.20232826  0.40231918  1
  Nb  Nb140  1  0.60592932  0.79425845  0.80064062  1
  Nb  Nb141  1  0.60565061  0.39972838  0.20745409  1
  Nb  Nb142  1  -0.00436946  0.00820115  0.59702072  1
  Nb  Nb143  1  0.00140996  0.19317569  0.60560710  1
  Nb  Nb144  1  0.80488937  0.60096101  -0.00093247  1
  Nb  Nb145  1  0.80434741  0.00343574  0.40509852  1
  Nb  Nb146  1  0.59802460  0.60119570  0.59819135  1
  Nb  Nb147  1  0.40306306  0.19836508  0.40754436  1
  Nb  Nb148  1  0.40156586  0.19400597  0.79670084  1
  Nb  Nb149  1  0.60247144  -0.00237634  0.19171924  1
  Pd  Pd150  1  0.80814976  0.20486985  0.18805072  1
  Pd  Pd151  1  0.79843429  0.80143306  0.19144507  1
  Pd  Pd152  1  0.80356691  0.59592098  0.80387307  1
  Pd  Pd153  1  -0.00450318  0.00440138  0.80005402  1
  Pd  Pd154  1  0.59165405  0.59527016  0.20460280  1
  Pd  Pd155  1  0.79469956  -0.00040213  0.81000786  1
  Pd  Pd156  1  0.19787965  0.20007942  0.79986553  1
  Pd  Pd157  1  0.80081237  0.79861138  0.59378872  1
  Pd  Pd158  1  0.60014730  0.80473223  0.20398764  1
  Pd  Pd159  1  0.39543055  0.80122732  0.39301417  1
  Pd  Pd160  1  -0.00387008  0.00982361  0.39645418  1
  Pd  Pd161  1  0.40129274  -0.00644758  0.60566754  1
  Pd  Pd162  1  0.59731978  0.60101532  0.79167758  1
  Pd  Pd163  1  0.79739195  -0.00277593  -0.00596207  1
  Pd  Pd164  1  0.40232591  0.60239468  0.40030440  1
  Pd  Pd165  1  0.00928961  0.80477303  0.39672599  1
  Pd  Pd166  1  0.80290456  0.79353733  0.00816806  1
  Pd  Pd167  1  0.60668345  0.39810064  0.39515301  1
  Pd  Pd168  1  0.01188351  0.81146400  0.59529268  1
  Pd  Pd169  1  0.39014204  0.39124783  0.40000262  1
  Pd  Pd170  1  0.80479889  0.60257113  0.59380557  1
  Pd  Pd171  1  0.40025287  0.20712423  -0.01269882  1
  Pd  Pd172  1  0.39281949  0.81240933  0.60633353  1
  Pd  Pd173  1  0.60201556  0.80465373  -0.00897597  1
  Pd  Pd174  1  0.79751338  0.00353834  0.59774275  1
  Pd  Pd175  1  0.18976135  -0.00424786  0.60320166  1
  Pd  Pd176  1  0.59687675  0.79957445  0.61104852  1
  Pd  Pd177  1  -0.00624835  0.59442441  0.59592072  1
  Pd  Pd178  1  0.39942617  0.59626191  0.19461747  1
  Pd  Pd179  1  0.00174093  0.20054541  0.00354556  1
  Pd  Pd180  1  0.19339038  0.60156998  0.80936682  1
  Pd  Pd181  1  0.39158580  0.20142842  0.60307583  1
  Pd  Pd182  1  0.01080052  0.39758683  0.20809455  1
  Pd  Pd183  1  0.00445944  0.39924060  0.79558724  1
  Pd  Pd184  1  0.80774106  0.21012336  0.00891119  1
  Pd  Pd185  1  0.80017673  0.80323251  0.40569659  1
  Pd  Pd186  1  0.39027987  0.79314133  -0.00200952  1
  Pd  Pd187  1  0.40626994  0.39923917  0.18950609  1
  Pd  Pd188  1  0.20701569  0.78545003  -0.00910180  1
  Pd  Pd189  1  0.79630227  -0.00131811  0.20992382  1
  Pd  Pd190  1  0.39374462  0.40598451  0.60221608  1
  Pd  Pd191  1  -0.00159914  0.39627437  0.59827169  1
  Pd  Pd192  1  0.40646804  0.00237982  0.00597417  1
  Pd  Pd193  1  0.19604872  0.41174590  0.79874532  1
  Pd  Pd194  1  0.80606286  0.39226497  0.59378944  1
  Pd  Pd195  1  -0.00124174  0.40215773  -0.00201964  1
  Pd  Pd196  1  0.00749353  0.19587784  0.39681874  1
  Pd  Pd197  1  0.20189782  0.59937319  0.59173860  1
  Pd  Pd198  1  -0.00010364  0.59706198  0.79336723  1
  Pd  Pd199  1  0.40092741  0.00284255  0.19772723  1
  Rh  Rh200  1  0.00438641  0.79676604  0.79968387  1
  Rh  Rh201  1  0.79610919  0.40543527  0.81008663  1
  Rh  Rh202  1  0.59358529  0.20548915  0.79399967  1
  Rh  Rh203  1  0.20828002  0.19868901  0.40834933  1
  Rh  Rh204  1  0.39332749  0.00408628  0.40064945  1
  Rh  Rh205  1  0.00433722  0.80626686  0.19820065  1
  Rh  Rh206  1  0.59458713  0.79283770  0.39370817  1
  Rh  Rh207  1  0.20233448  0.59890161  0.40342621  1
  Rh  Rh208  1  0.60245534  0.40625078  0.61119670  1
  Rh  Rh209  1  0.78910617  0.20003613  0.40896541  1
  Rh  Rh210  1  0.59895922  -0.00602634  0.60963388  1
  Rh  Rh211  1  0.19783789  0.80486182  0.20491160  1
  Rh  Rh212  1  0.20380297  0.40352989  -0.00083137  1
  Rh  Rh213  1  0.40387202  0.59220941  0.60211951  1
  Rh  Rh214  1  0.00281442  0.60183121  0.00423006  1
  Rh  Rh215  1  0.20393871  0.40377876  0.60114020  1
  Rh  Rh216  1  0.60877954  0.19502485  0.60479724  1
  Rh  Rh217  1  0.20776856  -0.00055914  0.19941598  1
  Rh  Rh218  1  -0.00555795  0.40563414  0.38936735  1
  Rh  Rh219  1  0.40397440  0.39434888  0.80691644  1
  Rh  Rh220  1  0.19620308  0.40068346  0.20178325  1
  Rh  Rh221  1  0.38885794  0.58785789  0.00346645  1
  Rh  Rh222  1  0.20213497  0.00742907  0.00771613  1
  Rh  Rh223  1  -0.00760629  0.59760378  0.39316738  1
  Rh  Rh224  1  0.59148870  0.19304601  -0.00596811  1
  Rh  Rh225  1  0.40520945  0.59167062  0.79957768  1
  Rh  Rh226  1  0.19340564  0.60457299  0.19082569  1
  Rh  Rh227  1  0.39682656  0.00495298  0.79473384  1
  Rh  Rh228  1  0.59714265  0.19729802  0.20834487  1
  Rh  Rh229  1  0.60747890  -0.01370194  0.80696250  1
  Rh  Rh230  1  0.61311976  0.00959828  0.38632133  1
  Rh  Rh231  1  0.61088042  0.60002605  -0.00079777  1
  Rh  Rh232  1  0.19204604  0.20396787  0.19315408  1
  Rh  Rh233  1  0.20112248  -0.01127956  0.80146923  1
  Rh  Rh234  1  0.79846838  0.79318867  0.80003616  1
  Rh  Rh235  1  0.20300898  0.40388314  0.39765445  1
  Rh  Rh236  1  0.60256914  0.39537707  0.79603505  1
  Rh  Rh237  1  0.80394569  0.60985690  0.19861423  1
  Rh  Rh238  1  -0.00414107  0.00922077  0.20607736  1
  Rh  Rh239  1  0.39431591  0.79899920  0.20240158  1
  Rh  Rh240  1  0.00616248  0.60411410  0.20013159  1
  Rh  Rh241  1  -0.00506750  -0.00790628  0.00147635  1
  Rh  Rh242  1  0.80210536  0.19700885  0.79471315  1
  Rh  Rh243  1  0.39704779  0.20165364  0.20870390  1
  Rh  Rh244  1  0.20543912  -0.00163800  0.38787886  1
  Rh  Rh245  1  0.79255862  0.39059972  0.19616757  1
  Rh  Rh246  1  0.19907179  0.80677758  0.39963636  1
  Rh  Rh247  1  -0.00211536  0.80542819  0.00773075  1
  Rh  Rh248  1  0.39788585  0.80028918  0.79820180  1
  Rh  Rh249  1  0.59960605  0.39903965  0.01036919  1
