# generated using pymatgen
data_ZrScNbPdRh
_symmetry_space_group_name_H-M   'P 1'
_cell_length_a   16.55713843
_cell_length_b   16.55662083
_cell_length_c   16.55773582
_cell_angle_alpha   90.03714848
_cell_angle_beta   89.97234911
_cell_angle_gamma   90.00262525
_symmetry_Int_Tables_number   1
_chemical_formula_structural   ZrScNbPdRh
_chemical_formula_sum   'Zr50 Sc50 Nb50 Pd50 Rh50'
_cell_volume   4538.97498765
_cell_formula_units_Z   50
loop_
 _symmetry_equiv_pos_site_id
 _symmetry_equiv_pos_as_xyz
  1  'x, y, z'
loop_
 _atom_site_type_symbol
 _atom_site_label
 _atom_site_symmetry_multiplicity
 _atom_site_fract_x
 _atom_site_fract_y
 _atom_site_fract_z
 _atom_site_occupancy
  Zr  Zr0  1  0.30698991  0.09295858  0.09663026  1
  Zr  Zr1  1  0.30607885  0.71002860  0.09970359  1
  Zr  Zr2  1  0.49930892  0.69615750  0.29162335  1
  Zr  Zr3  1  0.69653817  0.69502094  0.29670468  1
  Zr  Zr4  1  0.10268022  0.90154135  0.10711842  1
  Zr  Zr5  1  0.28849060  0.70456665  0.49624710  1
  Zr  Zr6  1  0.29664099  0.30502986  0.30334298  1
  Zr  Zr7  1  0.29824002  0.50359888  0.09041427  1
  Zr  Zr8  1  0.29811955  0.09799110  0.89588043  1
  Zr  Zr9  1  0.50125786  0.91053055  0.70120442  1
  Zr  Zr10  1  0.29928246  0.89916755  0.29579695  1
  Zr  Zr11  1  0.70093248  0.49732182  0.91155154  1
  Zr  Zr12  1  0.90433557  0.69509950  0.49327105  1
  Zr  Zr13  1  0.89871702  0.10122376  0.50136747  1
  Zr  Zr14  1  0.69502664  0.70702117  0.49676235  1
  Zr  Zr15  1  0.90969800  0.88810146  0.09236812  1
  Zr  Zr16  1  0.30247953  0.69905543  0.90421354  1
  Zr  Zr17  1  0.70003880  0.50247626  0.69556698  1
  Zr  Zr18  1  0.49407267  0.50362599  0.69882046  1
  Zr  Zr19  1  0.90061558  0.50866990  0.89700663  1
  Zr  Zr20  1  0.10547855  0.89757214  0.70194246  1
  Zr  Zr21  1  0.89598081  0.69927031  0.29890257  1
  Zr  Zr22  1  0.10112101  0.29908126  0.89666060  1
  Zr  Zr23  1  0.30177082  0.29852959  0.49370388  1
  Zr  Zr24  1  0.90038458  0.90859649  0.90445644  1
  Zr  Zr25  1  0.69221032  0.09681452  0.10346153  1
  Zr  Zr26  1  0.09642688  0.30219665  0.49869912  1
  Zr  Zr27  1  0.50504847  0.90274892  0.49707489  1
  Zr  Zr28  1  0.69742461  0.90049555  0.49789052  1
  Zr  Zr29  1  0.30258350  0.10338985  0.30255502  1
  Zr  Zr30  1  0.49666510  0.50685653  0.90533995  1
  Zr  Zr31  1  0.08843727  0.10154290  0.89828748  1
  Zr  Zr32  1  0.10242166  0.70198623  0.69211884  1
  Zr  Zr33  1  0.70619593  0.09343876  0.29702882  1
  Zr  Zr34  1  0.09692999  0.90096392  0.90284739  1
  Zr  Zr35  1  0.29993626  0.90452091  0.70271196  1
  Zr  Zr36  1  0.09132072  0.10103204  0.29195771  1
  Zr  Zr37  1  0.30099229  0.49954890  0.90292650  1
  Zr  Zr38  1  0.10879793  0.49859271  0.90513777  1
  Zr  Zr39  1  0.50240665  0.09772733  0.09645513  1
  Zr  Zr40  1  0.90003142  0.30448266  0.69350095  1
  Zr  Zr41  1  0.10605333  0.88527832  0.50240293  1
  Zr  Zr42  1  0.89639813  0.50303252  0.69362470  1
  Zr  Zr43  1  0.09763659  0.50520490  0.70479289  1
  Zr  Zr44  1  0.30637931  0.90794910  0.50028218  1
  Zr  Zr45  1  0.50927491  0.89646918  0.89695009  1
  Zr  Zr46  1  0.09973117  0.10648689  0.49305507  1
  Zr  Zr47  1  0.10027097  0.71064297  0.30838340  1
  Zr  Zr48  1  0.89838582  0.50104926  0.30782748  1
  Zr  Zr49  1  0.30198316  0.50155437  0.29742297  1
  Sc  Sc50  1  0.50492774  0.09760395  0.29266829  1
  Sc  Sc51  1  0.50269402  0.90421828  0.30314463  1
  Sc  Sc52  1  0.69841007  0.09833022  0.69998339  1
  Sc  Sc53  1  0.70003950  0.28944599  0.69690678  1
  Sc  Sc54  1  0.69320030  0.29915173  0.10114486  1
  Sc  Sc55  1  0.50670158  0.30270298  0.29340179  1
  Sc  Sc56  1  0.10273921  0.09956078  0.70930047  1
  Sc  Sc57  1  0.69437028  0.49757198  0.10482196  1
  Sc  Sc58  1  0.30312574  0.70200824  0.29583260  1
  Sc  Sc59  1  0.10135971  0.30278593  0.70098025  1
  Sc  Sc60  1  0.69925425  0.70046407  0.69991579  1
  Sc  Sc61  1  0.91287175  0.09724380  0.11360635  1
  Sc  Sc62  1  0.70222324  0.49726533  0.49638990  1
  Sc  Sc63  1  0.89557541  0.10547374  0.70405822  1
  Sc  Sc64  1  0.90054529  0.71484407  0.90060195  1
  Sc  Sc65  1  0.69897509  0.29473666  0.90769840  1
  Sc  Sc66  1  0.10512371  0.70467179  0.89117884  1
  Sc  Sc67  1  0.50742520  0.68975974  0.70206228  1
  Sc  Sc68  1  0.29613159  0.50029761  0.70116328  1
  Sc  Sc69  1  0.29968000  0.30485131  0.69201067  1
  Sc  Sc70  1  0.89828004  0.30164716  0.50093803  1
  Sc  Sc71  1  0.50014114  0.29212372  0.91475439  1
  Sc  Sc72  1  0.50301423  0.69875040  0.90492499  1
  Sc  Sc73  1  0.69420130  0.49443569  0.30201824  1
  Sc  Sc74  1  0.89623067  0.90414545  0.29541779  1
  Sc  Sc75  1  0.30471855  0.09027172  0.69769084  1
  Sc  Sc76  1  0.49509758  0.09645538  0.49938366  1
  Sc  Sc77  1  0.70279025  0.90040509  0.89942765  1
  Sc  Sc78  1  0.88785653  0.89334802  0.50139420  1
  Sc  Sc79  1  0.30804898  0.30276089  0.08864068  1
  Sc  Sc80  1  0.69159507  0.71089345  0.90170271  1
  Sc  Sc81  1  0.50162883  0.50729074  0.09888440  1
  Sc  Sc82  1  0.69490866  0.90268064  0.09435892  1
  Sc  Sc83  1  0.70064184  0.09400305  0.90021474  1
  Sc  Sc84  1  0.70156144  0.09228103  0.50423310  1
  Sc  Sc85  1  0.89185331  0.49192619  0.09340173  1
  Sc  Sc86  1  0.29404871  0.69378391  0.70687088  1
  Sc  Sc87  1  0.50254655  0.09992768  0.69738833  1
  Sc  Sc88  1  0.69761411  0.90206454  0.69652009  1
  Sc  Sc89  1  0.89284171  0.89861539  0.70146101  1
  Sc  Sc90  1  0.90511356  0.29970343  0.90585777  1
  Sc  Sc91  1  0.48798351  0.29743593  0.50553541  1
  Sc  Sc92  1  0.50371689  0.09463360  0.90002968  1
  Sc  Sc93  1  0.10040484  0.50210271  0.50049604  1
  Sc  Sc94  1  0.50332317  0.29058349  0.10159953  1
  Sc  Sc95  1  0.90299972  0.69156617  0.70451300  1
  Sc  Sc96  1  0.50554696  0.50293242  0.29386992  1
  Sc  Sc97  1  0.10625631  0.48965845  0.30540239  1
  Sc  Sc98  1  0.10092431  0.29719334  0.30779524  1
  Sc  Sc99  1  0.29541319  0.89655846  0.90610469  1
  Nb  Nb100  1  0.49766361  0.29883719  0.70056921  1
  Nb  Nb101  1  0.69858294  0.70121003  0.10116576  1
  Nb  Nb102  1  0.69971948  0.29994418  0.30343075  1
  Nb  Nb103  1  0.09278225  0.29954017  0.09397656  1
  Nb  Nb104  1  0.09267267  0.70877131  0.10792485  1
  Nb  Nb105  1  0.69982296  0.89982291  0.30064335  1
  Nb  Nb106  1  0.10059791  0.90285486  0.30042505  1
  Nb  Nb107  1  0.90071866  0.70224442  0.10252432  1
  Nb  Nb108  1  0.90249944  0.10198601  0.90408426  1
  Nb  Nb109  1  0.49613812  0.89656920  0.09346854  1
  Nb  Nb110  1  0.89652479  0.28651462  0.29441570  1
  Nb  Nb111  1  0.10158007  0.10323561  0.09968829  1
  Nb  Nb112  1  0.90107718  0.29731078  0.09959900  1
  Nb  Nb113  1  0.30054631  0.89606299  0.09638633  1
  Nb  Nb114  1  0.90196209  0.10436710  0.30125741  1
  Nb  Nb115  1  0.50760111  0.70275479  0.09916894  1
  Nb  Nb116  1  0.69481731  0.30436386  0.49632447  1
  Nb  Nb117  1  0.30247387  0.10433037  0.49642225  1
  Nb  Nb118  1  0.10182933  0.70542293  0.50012658  1
  Nb  Nb119  1  0.31000843  0.49279154  0.49866939  1
  Nb  Nb120  1  0.49640611  0.50412117  0.51086031  1
  Nb  Nb121  1  0.49938662  0.69681341  0.50346586  1
  Nb  Nb122  1  0.10019884  0.49832567  0.10042605  1
  Nb  Nb123  1  0.89916044  0.49348130  0.50811934  1
  Nb  Nb124  1  0.29931856  0.30335119  0.89932706  1
  Nb  Nb125  1  0.59464501  0.39877899  0.60187505  1
  Nb  Nb126  1  0.80080147  0.61259120  0.00681084  1
  Nb  Nb127  1  0.80895256  0.19474407  0.00617562  1
  Nb  Nb128  1  0.00163509  -0.00126736  0.40083286  1
  Nb  Nb129  1  0.40285072  0.59770743  0.41021245  1
  Nb  Nb130  1  0.39763571  0.40346946  0.19666125  1
  Nb  Nb131  1  0.40476881  0.39506117  0.80362716  1
  Nb  Nb132  1  0.40332806  0.80086816  0.79646494  1
  Nb  Nb133  1  -0.00327115  0.39609849  0.19659668  1
  Nb  Nb134  1  0.00168285  -0.00234448  0.59456714  1
  Nb  Nb135  1  0.19660482  0.00064192  0.39730078  1
  Nb  Nb136  1  0.59709683  0.39732458  0.79744893  1
  Nb  Nb137  1  0.19586756  0.19988502  0.00127500  1
  Nb  Nb138  1  0.00070266  0.60598462  0.00888990  1
  Nb  Nb139  1  0.80427885  0.38957912  0.20508439  1
  Nb  Nb140  1  0.00327169  0.59502214  0.19648799  1
  Nb  Nb141  1  0.60817356  0.20339587  0.40038609  1
  Nb  Nb142  1  0.39948294  0.20680640  0.80032968  1
  Nb  Nb143  1  0.79507332  0.79648947  0.19613837  1
  Nb  Nb144  1  0.19802022  0.20141596  0.18941674  1
  Nb  Nb145  1  -0.00538156  0.40574547  0.79969598  1
  Nb  Nb146  1  0.19099137  0.60335302  0.19391486  1
  Nb  Nb147  1  0.40304945  0.79760934  0.60172780  1
  Nb  Nb148  1  0.20440674  0.19698593  0.59276355  1
  Nb  Nb149  1  0.79745573  0.40168543  0.80104118  1
  Pd  Pd150  1  0.00242308  0.60002179  0.59259879  1
  Pd  Pd151  1  0.79665380  0.80008029  0.79881900  1
  Pd  Pd152  1  0.79441051  0.59693606  0.40649049  1
  Pd  Pd153  1  -0.00899794  0.80984917  0.39779124  1
  Pd  Pd154  1  0.20010284  0.39583597  0.19112888  1
  Pd  Pd155  1  0.80583610  -0.00888307  0.19024852  1
  Pd  Pd156  1  0.20995973  0.20142621  0.79397162  1
  Pd  Pd157  1  0.19463049  0.00372052  -0.00284041  1
  Pd  Pd158  1  0.80584443  0.39622584  0.39755252  1
  Pd  Pd159  1  0.20302507  0.59625589  0.39697805  1
  Pd  Pd160  1  0.80178966  0.59259009  0.19366633  1
  Pd  Pd161  1  0.79031844  0.60464230  0.81178631  1
  Pd  Pd162  1  0.59443560  0.59639263  0.40393144  1
  Pd  Pd163  1  0.80578403  -0.00280323  0.40057734  1
  Pd  Pd164  1  -0.01053818  0.80265017  0.60286564  1
  Pd  Pd165  1  0.20306353  0.00554442  0.20228345  1
  Pd  Pd166  1  0.19073343  0.61530765  0.00614823  1
  Pd  Pd167  1  0.39497333  0.20902888  0.20023727  1
  Pd  Pd168  1  0.41213048  0.40548965  0.39119302  1
  Pd  Pd169  1  0.79435385  0.20130948  0.59433308  1
  Pd  Pd170  1  0.19846638  0.39779346  0.59659892  1
  Pd  Pd171  1  0.40625127  -0.00698238  0.19994633  1
  Pd  Pd172  1  0.40661020  0.80775679  0.19948792  1
  Pd  Pd173  1  0.58719487  0.39619465  0.40869979  1
  Pd  Pd174  1  0.79310296  0.20140513  0.19158170  1
  Pd  Pd175  1  0.40353971  -0.00674395  -0.00764410  1
  Pd  Pd176  1  0.79522205  0.20066738  0.40631762  1
  Pd  Pd177  1  0.20371354  0.59473019  0.59519571  1
  Pd  Pd178  1  0.79711878  0.60692308  0.59038533  1
  Pd  Pd179  1  0.59612993  0.79881311  0.39315966  1
  Pd  Pd180  1  -0.00616328  -0.00158450  0.78954277  1
  Pd  Pd181  1  0.41562194  0.19912595  0.39129704  1
  Pd  Pd182  1  0.60344382  0.80832328  0.19867539  1
  Pd  Pd183  1  0.80383838  0.79107284  0.60502703  1
  Pd  Pd184  1  0.59364261  0.39679950  0.00272894  1
  Pd  Pd185  1  0.59283154  0.79915424  0.60665216  1
  Pd  Pd186  1  0.38785592  0.60952906  0.59890394  1
  Pd  Pd187  1  0.80354786  0.20621327  0.81101303  1
  Pd  Pd188  1  0.79870678  0.00202196  0.79717770  1
  Pd  Pd189  1  0.59747811  0.20051629  0.59056002  1
  Pd  Pd190  1  -0.00168495  0.40622871  -0.00203763  1
  Pd  Pd191  1  -0.00284672  0.80152947  0.79608768  1
  Pd  Pd192  1  0.80661044  0.00738986  0.01021724  1
  Pd  Pd193  1  0.40480189  0.79342606  0.40318175  1
  Pd  Pd194  1  0.59348023  0.20165581  0.80610678  1
  Pd  Pd195  1  0.60554791  0.59691558  0.80582962  1
  Pd  Pd196  1  0.00761393  0.59574675  0.39871910  1
  Pd  Pd197  1  -0.00761344  0.39347226  0.39598176  1
  Pd  Pd198  1  0.19320833  0.00857430  0.59321376  1
  Pd  Pd199  1  0.00861349  0.19355806  0.60871120  1
  Rh  Rh200  1  0.40093204  -0.00026334  0.80593778  1
  Rh  Rh201  1  0.39327994  0.19491867  -0.00884589  1
  Rh  Rh202  1  0.79661896  0.80130732  0.38967092  1
  Rh  Rh203  1  0.39725505  0.60092536  0.80405613  1
  Rh  Rh204  1  0.20133704  0.19675356  0.39720671  1
  Rh  Rh205  1  0.20520533  0.80749515  0.39442312  1
  Rh  Rh206  1  0.59999981  0.80245789  0.00405526  1
  Rh  Rh207  1  0.20765582  0.80350524  0.79898159  1
  Rh  Rh208  1  0.59975989  0.39923011  0.19789539  1
  Rh  Rh209  1  0.00732621  0.20924065  0.20114230  1
  Rh  Rh210  1  -0.00699161  0.80067890  0.21132339  1
  Rh  Rh211  1  0.39428478  0.59604010  0.19689523  1
  Rh  Rh212  1  0.39772928  0.00446684  0.39628253  1
  Rh  Rh213  1  0.60567364  0.19889699  0.20940868  1
  Rh  Rh214  1  0.00944738  0.79441938  -0.00637234  1
  Rh  Rh215  1  0.59562865  0.80077594  0.79392484  1
  Rh  Rh216  1  0.21097151  0.79684377  0.60698043  1
  Rh  Rh217  1  -0.00154033  0.19227489  0.00327863  1
  Rh  Rh218  1  0.40433831  0.00038664  0.59632690  1
  Rh  Rh219  1  0.00290929  0.40628855  0.60305629  1
  Rh  Rh220  1  0.60757670  0.00209565  0.79932103  1
  Rh  Rh221  1  0.19840790  0.38931090  0.00291545  1
  Rh  Rh222  1  0.19429252  0.79996271  0.00605702  1
  Rh  Rh223  1  0.19760524  -0.00283806  0.80682816  1
  Rh  Rh224  1  0.40560422  0.60991464  0.00699021  1
  Rh  Rh225  1  0.80463952  0.00091941  0.60514894  1
  Rh  Rh226  1  0.19994924  0.59849696  0.80228742  1
  Rh  Rh227  1  0.60485672  0.00730940  0.39679408  1
  Rh  Rh228  1  0.79590571  0.39186853  0.00230693  1
  Rh  Rh229  1  0.20223790  0.40334531  0.79935433  1
  Rh  Rh230  1  0.60930581  0.59646777  0.59165714  1
  Rh  Rh231  1  0.79364915  0.79862312  0.00556819  1
  Rh  Rh232  1  0.60869585  0.19178879  -0.00090175  1
  Rh  Rh233  1  -0.00261459  -0.00696281  0.20353867  1
  Rh  Rh234  1  -0.00866684  0.19993821  0.39857274  1
  Rh  Rh235  1  0.20165285  0.79828165  0.20003549  1
  Rh  Rh236  1  0.00715813  0.60084319  0.80804523  1
  Rh  Rh237  1  0.20050258  0.40386618  0.40919092  1
  Rh  Rh238  1  -0.00856757  0.20851364  0.79540071  1
  Rh  Rh239  1  0.59729310  -0.00376100  -0.00155170  1
  Rh  Rh240  1  0.39101444  0.19329843  0.60876211  1
  Rh  Rh241  1  0.00148910  0.00354667  0.00657803  1
  Rh  Rh242  1  0.60105166  0.00318939  0.59729564  1
  Rh  Rh243  1  0.78834586  0.39509782  0.60220132  1
  Rh  Rh244  1  0.59480878  -0.00794549  0.19857187  1
  Rh  Rh245  1  0.60142115  0.59787371  0.19601573  1
  Rh  Rh246  1  0.40188722  0.39993330  0.60685782  1
  Rh  Rh247  1  0.40680357  0.80108952  -0.00573128  1
  Rh  Rh248  1  0.40737127  0.40080947  0.00140318  1
  Rh  Rh249  1  0.60657504  0.60456556  0.00388810  1
