# generated using pymatgen
data_ZrScNbPdRh
_symmetry_space_group_name_H-M   'P 1'
_cell_length_a   16.56055190
_cell_length_b   16.56454177
_cell_length_c   16.55753017
_cell_angle_alpha   89.99569413
_cell_angle_beta   89.96663020
_cell_angle_gamma   90.02791731
_symmetry_Int_Tables_number   1
_chemical_formula_structural   ZrScNbPdRh
_chemical_formula_sum   'Zr50 Sc50 Nb50 Pd50 Rh50'
_cell_volume   4542.02647112
_cell_formula_units_Z   50
loop_
 _symmetry_equiv_pos_site_id
 _symmetry_equiv_pos_as_xyz
  1  'x, y, z'
loop_
 _atom_site_type_symbol
 _atom_site_label
 _atom_site_symmetry_multiplicity
 _atom_site_fract_x
 _atom_site_fract_y
 _atom_site_fract_z
 _atom_site_occupancy
  Zr  Zr0  1  0.49255796  0.50099556  0.49240624  1
  Zr  Zr1  1  0.29690537  0.70051135  0.10010476  1
  Zr  Zr2  1  0.50011697  0.30190056  0.09259922  1
  Zr  Zr3  1  0.90500828  0.30359760  0.29897429  1
  Zr  Zr4  1  0.10762206  0.29490383  0.49127351  1
  Zr  Zr5  1  0.29893590  0.29947845  0.70040207  1
  Zr  Zr6  1  0.89461756  0.69914847  0.50191058  1
  Zr  Zr7  1  0.09507758  0.90791474  0.70147207  1
  Zr  Zr8  1  0.90934351  0.50089587  0.09634849  1
  Zr  Zr9  1  0.29566770  0.90579457  0.70378653  1
  Zr  Zr10  1  0.49647907  0.89249700  0.69690954  1
  Zr  Zr11  1  0.29587925  0.50208260  0.50028617  1
  Zr  Zr12  1  0.50347220  0.10680813  0.49780906  1
  Zr  Zr13  1  0.69300152  0.49786314  0.09885808  1
  Zr  Zr14  1  0.71440164  0.90785363  0.30229245  1
  Zr  Zr15  1  0.10953521  0.49681591  0.70560858  1
  Zr  Zr16  1  0.70352195  0.90280245  0.09574766  1
  Zr  Zr17  1  0.90390914  0.29726121  0.89972081  1
  Zr  Zr18  1  0.47871029  0.90384305  0.29910423  1
  Zr  Zr19  1  0.69405193  0.49771863  0.89980426  1
  Zr  Zr20  1  0.30397925  0.50384496  0.30551787  1
  Zr  Zr21  1  0.30351804  0.70223481  0.89341725  1
  Zr  Zr22  1  0.29989337  0.89774928  0.11061139  1
  Zr  Zr23  1  0.70123490  0.69854060  0.09365882  1
  Zr  Zr24  1  0.29927212  0.69270603  0.50249914  1
  Zr  Zr25  1  0.89824971  0.29482184  0.10431324  1
  Zr  Zr26  1  0.69526295  0.69788216  0.89981327  1
  Zr  Zr27  1  0.69632678  0.70014255  0.70280707  1
  Zr  Zr28  1  0.49945461  0.49729221  0.70658799  1
  Zr  Zr29  1  0.49662764  0.90550199  0.50217437  1
  Zr  Zr30  1  0.50268103  0.49808378  0.10078863  1
  Zr  Zr31  1  0.10674763  0.70158008  0.70222354  1
  Zr  Zr32  1  0.09384184  0.30456365  0.89932582  1
  Zr  Zr33  1  0.10780661  0.69271428  0.89943858  1
  Zr  Zr34  1  0.70339934  0.90315798  0.50386458  1
  Zr  Zr35  1  0.10832000  0.69441101  0.50012073  1
  Zr  Zr36  1  0.70275690  0.30416840  0.29676413  1
  Zr  Zr37  1  0.30322546  0.30065710  0.09924161  1
  Zr  Zr38  1  0.49343055  0.89531506  0.10032446  1
  Zr  Zr39  1  0.50318772  0.10857752  0.09007339  1
  Zr  Zr40  1  0.09581672  0.10524160  0.89133696  1
  Zr  Zr41  1  0.29558988  0.10333424  0.49971038  1
  Zr  Zr42  1  0.69101435  0.50040335  0.29712193  1
  Zr  Zr43  1  0.29012792  0.30198802  0.30104751  1
  Zr  Zr44  1  0.30754767  0.89772521  0.49205777  1
  Zr  Zr45  1  0.91630863  0.30998740  0.49555336  1
  Zr  Zr46  1  0.70278523  0.70505707  0.50428926  1
  Zr  Zr47  1  0.09872896  0.90164446  0.10516654  1
  Zr  Zr48  1  0.09667821  0.69483345  0.10783088  1
  Zr  Zr49  1  0.90408863  0.90193611  0.09938027  1
  Sc  Sc50  1  0.90329354  0.69904762  0.29969609  1
  Sc  Sc51  1  0.29589199  0.10099306  0.89334619  1
  Sc  Sc52  1  0.70946500  0.90020541  0.90488868  1
  Sc  Sc53  1  0.69645372  0.49040081  0.69960282  1
  Sc  Sc54  1  0.29250881  0.70027856  0.29961056  1
  Sc  Sc55  1  0.49532153  0.10711450  0.30049223  1
  Sc  Sc56  1  0.71540243  0.09079374  0.70167378  1
  Sc  Sc57  1  0.29731599  0.10766895  0.09883775  1
  Sc  Sc58  1  0.10287688  0.29461739  0.69980358  1
  Sc  Sc59  1  0.09649634  0.09721783  0.30706016  1
  Sc  Sc60  1  0.90142216  0.09484516  0.29721645  1
  Sc  Sc61  1  0.10408979  0.50296395  0.09280019  1
  Sc  Sc62  1  0.89674390  0.70693008  0.90987803  1
  Sc  Sc63  1  0.68159855  0.29492637  0.50251205  1
  Sc  Sc64  1  0.50441705  0.30003361  0.69822301  1
  Sc  Sc65  1  0.49706815  0.68627322  0.29591522  1
  Sc  Sc66  1  0.10623974  0.49140544  0.50082094  1
  Sc  Sc67  1  0.90248810  0.30904813  0.70162743  1
  Sc  Sc68  1  0.49604742  0.30048951  0.90487082  1
  Sc  Sc69  1  0.09602328  0.90497226  0.89758286  1
  Sc  Sc70  1  0.30351717  0.29918573  0.90131897  1
  Sc  Sc71  1  0.10156110  0.30140843  0.10452200  1
  Sc  Sc72  1  0.30235183  0.69305831  0.69870529  1
  Sc  Sc73  1  0.70485418  0.50422482  0.50137717  1
  Sc  Sc74  1  0.49312663  0.88390859  0.89673733  1
  Sc  Sc75  1  0.70789861  0.10393338  0.29910256  1
  Sc  Sc76  1  0.90286075  0.90447130  0.90033135  1
  Sc  Sc77  1  0.70010101  0.69430100  0.30533804  1
  Sc  Sc78  1  0.70582513  0.89819987  0.69609223  1
  Sc  Sc79  1  0.89889620  0.10010870  0.10215607  1
  Sc  Sc80  1  0.09408837  0.10183838  0.50173682  1
  Sc  Sc81  1  0.89735150  0.91043638  0.49688026  1
  Sc  Sc82  1  0.30051221  0.09766578  0.29708135  1
  Sc  Sc83  1  0.49952309  0.70347795  0.09902189  1
  Sc  Sc84  1  0.49833753  0.49020741  0.89643325  1
  Sc  Sc85  1  0.89939071  0.90673890  0.70186395  1
  Sc  Sc86  1  0.10729275  0.91137722  0.49957704  1
  Sc  Sc87  1  0.48824342  0.09811017  0.69762547  1
  Sc  Sc88  1  0.89237515  0.70772224  0.69934024  1
  Sc  Sc89  1  0.90759158  0.09443470  0.69977635  1
  Sc  Sc90  1  0.70771431  0.10255227  0.08959910  1
  Sc  Sc91  1  0.29256050  0.10119410  0.70482102  1
  Sc  Sc92  1  0.70345948  0.29437595  0.90122603  1
  Sc  Sc93  1  0.69917625  0.09624308  0.49964259  1
  Sc  Sc94  1  0.09965562  0.09911687  0.09678436  1
  Sc  Sc95  1  0.10686209  0.49853599  0.29191897  1
  Sc  Sc96  1  0.69480445  0.30511936  0.69566561  1
  Sc  Sc97  1  0.48639759  0.70537585  0.51011488  1
  Sc  Sc98  1  0.29525679  0.49551322  0.89627748  1
  Sc  Sc99  1  0.29303238  0.49945328  0.10246493  1
  Nb  Nb100  1  0.49693191  0.69594745  0.70968401  1
  Nb  Nb101  1  0.09258635  0.50028496  0.90147910  1
  Nb  Nb102  1  0.90755723  0.48890128  0.89582626  1
  Nb  Nb103  1  0.49490084  0.69407968  0.88531161  1
  Nb  Nb104  1  0.10337795  0.08844912  0.70062033  1
  Nb  Nb105  1  0.89990886  0.49753210  0.69719670  1
  Nb  Nb106  1  0.09991962  0.89716313  0.29801192  1
  Nb  Nb107  1  0.30244377  0.89805185  0.90683654  1
  Nb  Nb108  1  0.90513991  0.50062448  0.50151226  1
  Nb  Nb109  1  0.89719091  0.49292368  0.30900225  1
  Nb  Nb110  1  0.70158571  0.30107690  0.10096398  1
  Nb  Nb111  1  0.49765884  0.30039696  0.49919720  1
  Nb  Nb112  1  0.29350238  0.89930334  0.29637186  1
  Nb  Nb113  1  0.29669790  0.30434319  0.49721056  1
  Nb  Nb114  1  0.50147569  0.49638630  0.29870254  1
  Nb  Nb115  1  0.09872402  0.70038843  0.30371895  1
  Nb  Nb116  1  0.90479748  0.10542124  0.49714545  1
  Nb  Nb117  1  0.90666432  0.90839551  0.29850098  1
  Nb  Nb118  1  0.88452679  0.10570132  0.89631996  1
  Nb  Nb119  1  0.09939362  0.30059031  0.30489941  1
  Nb  Nb120  1  0.50721356  0.30705463  0.31054779  1
  Nb  Nb121  1  0.50478357  0.10062008  0.90482398  1
  Nb  Nb122  1  0.89812206  0.69987890  0.10431048  1
  Nb  Nb123  1  0.70071781  0.09782369  0.90127269  1
  Nb  Nb124  1  0.30369994  0.49595183  0.69757273  1
  Nb  Nb125  1  -0.00627302  0.59403765  0.79860562  1
  Nb  Nb126  1  0.00531483  0.80058569  0.39841329  1
  Nb  Nb127  1  0.40633321  0.39873266  0.20877088  1
  Nb  Nb128  1  0.80385480  0.39992619  0.00076558  1
  Nb  Nb129  1  -0.00165180  0.59710179  0.40337973  1
  Nb  Nb130  1  0.80694660  0.59042533  0.80288012  1
  Nb  Nb131  1  0.39964665  -0.00121569  -0.00376040  1
  Nb  Nb132  1  0.40048198  0.60242500  -0.00620358  1
  Nb  Nb133  1  0.59889719  0.00152625  0.19957174  1
  Nb  Nb134  1  -0.00321103  0.59805095  0.60200245  1
  Nb  Nb135  1  0.60172219  0.20404436  0.19733715  1
  Nb  Nb136  1  0.00338305  0.79785710  0.59393139  1
  Nb  Nb137  1  0.80553050  0.59835499  0.19726222  1
  Nb  Nb138  1  0.59684591  0.80715094  0.39767682  1
  Nb  Nb139  1  0.80884246  0.20201119  0.59119855  1
  Nb  Nb140  1  0.60418526  0.80798805  0.20870343  1
  Nb  Nb141  1  0.39684664  0.39621144  0.59360673  1
  Nb  Nb142  1  0.59439069  0.60378128  0.60586354  1
  Nb  Nb143  1  0.20076975  0.80248874  0.00233210  1
  Nb  Nb144  1  0.59655918  -0.00554824  0.39219576  1
  Nb  Nb145  1  0.80306876  0.79765789  0.19851661  1
  Nb  Nb146  1  0.60182841  0.18731768  0.80530250  1
  Nb  Nb147  1  0.59808980  0.00322345  0.80720152  1
  Nb  Nb148  1  0.39878167  0.21200929  0.40442051  1
  Nb  Nb149  1  0.80723317  0.20537266  0.40641705  1
  Pd  Pd150  1  0.20120023  0.80838639  0.59888102  1
  Pd  Pd151  1  0.60750071  0.40535235  0.40855585  1
  Pd  Pd152  1  -0.00439967  0.79368663  0.79569570  1
  Pd  Pd153  1  0.60622075  0.81051547  0.80255329  1
  Pd  Pd154  1  0.59474511  0.79847264  -0.00389847  1
  Pd  Pd155  1  0.20489298  -0.00270246  -0.00254980  1
  Pd  Pd156  1  0.80116332  0.79950220  0.80378461  1
  Pd  Pd157  1  0.19533803  0.00742185  0.20347481  1
  Pd  Pd158  1  0.39270754  0.00364581  0.59930799  1
  Pd  Pd159  1  0.20179848  0.80851713  0.80557602  1
  Pd  Pd160  1  0.19779480  0.80307395  0.39940609  1
  Pd  Pd161  1  0.00677346  0.40366095  0.19943568  1
  Pd  Pd162  1  0.40651488  0.20308176  0.80328624  1
  Pd  Pd163  1  0.19929820  0.20333872  -0.00480738  1
  Pd  Pd164  1  0.20142960  0.00291759  0.39660603  1
  Pd  Pd165  1  0.00545068  0.19346122  0.20419723  1
  Pd  Pd166  1  0.79570682  0.20454909  0.78760574  1
  Pd  Pd167  1  -0.00519563  0.01064050  -0.00486750  1
  Pd  Pd168  1  -0.00069115  0.19563955  0.00305343  1
  Pd  Pd169  1  0.60132727  0.00710105  0.60991015  1
  Pd  Pd170  1  0.80581965  0.80077976  0.39411576  1
  Pd  Pd171  1  0.00775447  0.79636984  -0.00118465  1
  Pd  Pd172  1  0.19918513  0.39872591  -0.00238468  1
  Pd  Pd173  1  0.58554980  0.60280777  -0.00540086  1
  Pd  Pd174  1  0.39723447  0.59542480  0.19224138  1
  Pd  Pd175  1  0.00025414  0.19970032  0.60700008  1
  Pd  Pd176  1  0.59480763  0.79414520  0.59731224  1
  Pd  Pd177  1  0.40106369  0.01233901  0.18972265  1
  Pd  Pd178  1  0.20081236  0.39481794  0.80552621  1
  Pd  Pd179  1  0.19455651  0.19577580  0.60278423  1
  Pd  Pd180  1  0.39589738  0.20552348  0.59764307  1
  Pd  Pd181  1  0.40101319  0.78787276  0.39294787  1
  Pd  Pd182  1  0.40664651  0.21023561  0.20831692  1
  Pd  Pd183  1  -0.00187952  0.19790190  0.78987487  1
  Pd  Pd184  1  0.79610346  0.59524238  0.61050665  1
  Pd  Pd185  1  0.40541572  -0.00211824  0.80825366  1
  Pd  Pd186  1  0.80736203  0.59113440  -0.00336280  1
  Pd  Pd187  1  0.79541409  0.39862131  0.80448414  1
  Pd  Pd188  1  0.59220966  0.61068549  0.41178216  1
  Pd  Pd189  1  -0.00504691  0.80094726  0.20607837  1
  Pd  Pd190  1  0.79721871  0.39132486  0.59094813  1
  Pd  Pd191  1  0.80383317  0.59796966  0.39329705  1
  Pd  Pd192  1  0.80346578  0.40931274  0.19371145  1
  Pd  Pd193  1  -0.00400436  0.59136339  0.21084508  1
  Pd  Pd194  1  -0.00354270  0.60562181  -0.00740445  1
  Pd  Pd195  1  0.18982070  0.19570834  0.20413336  1
  Pd  Pd196  1  0.79124211  0.39298952  0.41225674  1
  Pd  Pd197  1  0.01092472  0.40278103  0.60443017  1
  Pd  Pd198  1  0.60951980  0.18751809  0.61482000  1
  Pd  Pd199  1  0.59346775  -0.01081281  -0.00375308  1
  Rh  Rh200  1  0.39845302  0.39475436  0.79240565  1
  Rh  Rh201  1  0.20308251  0.19490443  0.39672937  1
  Rh  Rh202  1  0.00597236  0.40117900  0.79387916  1
  Rh  Rh203  1  0.80788122  0.00687476  0.59642763  1
  Rh  Rh204  1  0.20213861  0.00274161  0.59803889  1
  Rh  Rh205  1  0.60740441  0.39303158  -0.00510472  1
  Rh  Rh206  1  0.20292872  0.39930058  0.19898389  1
  Rh  Rh207  1  0.19522247  0.40448995  0.39587756  1
  Rh  Rh208  1  0.39265779  0.80233662  0.79119094  1
  Rh  Rh209  1  0.39042685  0.19121146  -0.00843685  1
  Rh  Rh210  1  0.80103055  -0.00208003  0.19200311  1
  Rh  Rh211  1  0.39799502  0.01307451  0.40163987  1
  Rh  Rh212  1  0.40069288  0.78996217  0.20846856  1
  Rh  Rh213  1  0.58943617  0.41259665  0.59382518  1
  Rh  Rh214  1  0.19359542  0.59479315  0.39590140  1
  Rh  Rh215  1  0.59831955  0.38384775  0.80590551  1
  Rh  Rh216  1  0.80549552  0.80370128  0.00490420  1
  Rh  Rh217  1  0.20503919  0.39708911  0.60211172  1
  Rh  Rh218  1  0.60027153  0.19270151  0.39106133  1
  Rh  Rh219  1  0.79932302  -0.00292367  0.80489873  1
  Rh  Rh220  1  0.39998271  0.60495628  0.39825268  1
  Rh  Rh221  1  0.19599383  0.20108909  0.79822493  1
  Rh  Rh222  1  0.20656016  0.60263170  -0.00477205  1
  Rh  Rh223  1  -0.00252460  0.19987081  0.39289614  1
  Rh  Rh224  1  0.60872488  0.20742003  -0.00105018  1
  Rh  Rh225  1  0.40500392  0.59138073  0.60751148  1
  Rh  Rh226  1  0.79609549  0.19948012  0.20490429  1
  Rh  Rh227  1  0.80181880  0.01324577  0.40327717  1
  Rh  Rh228  1  0.20180847  0.59258120  0.80070784  1
  Rh  Rh229  1  0.19782690  0.60169873  0.20256167  1
  Rh  Rh230  1  -0.00011187  0.39314154  0.00663257  1
  Rh  Rh231  1  0.60732151  0.60852595  0.19942799  1
  Rh  Rh232  1  0.39070153  0.79966370  0.60795630  1
  Rh  Rh233  1  0.00059189  -0.00502052  0.39983665  1
  Rh  Rh234  1  0.00034587  -0.00379566  0.59589106  1
  Rh  Rh235  1  0.80919701  0.00316423  -0.00220010  1
  Rh  Rh236  1  0.60659447  0.59599345  0.79528180  1
  Rh  Rh237  1  -0.00606653  0.00817830  0.80690785  1
  Rh  Rh238  1  0.80043933  0.20465352  0.00157559  1
  Rh  Rh239  1  0.39318628  0.59107171  0.80400452  1
  Rh  Rh240  1  0.59322032  0.39217718  0.19866220  1
  Rh  Rh241  1  0.01105961  0.40968359  0.39431133  1
  Rh  Rh242  1  0.19770181  -0.00214135  0.80656032  1
  Rh  Rh243  1  0.39449117  0.79464584  -0.00133353  1
  Rh  Rh244  1  0.19607521  0.79641973  0.19935424  1
  Rh  Rh245  1  0.00540790  0.00352830  0.20074025  1
  Rh  Rh246  1  0.39692709  0.39607372  0.39845151  1
  Rh  Rh247  1  0.39346819  0.41121348  0.00961335  1
  Rh  Rh248  1  0.19826556  0.59470069  0.60485040  1
  Rh  Rh249  1  0.81039229  0.81110484  0.59960049  1
