# generated using pymatgen
data_ZrScNbPdRh
_symmetry_space_group_name_H-M   'P 1'
_cell_length_a   16.55647394
_cell_length_b   16.55472027
_cell_length_c   16.55457179
_cell_angle_alpha   89.98158923
_cell_angle_beta   89.99487597
_cell_angle_gamma   89.99101344
_symmetry_Int_Tables_number   1
_chemical_formula_structural   ZrScNbPdRh
_chemical_formula_sum   'Zr50 Sc50 Nb50 Pd50 Rh50'
_cell_volume   4537.40576690
_cell_formula_units_Z   50
loop_
 _symmetry_equiv_pos_site_id
 _symmetry_equiv_pos_as_xyz
  1  'x, y, z'
loop_
 _atom_site_type_symbol
 _atom_site_label
 _atom_site_symmetry_multiplicity
 _atom_site_fract_x
 _atom_site_fract_y
 _atom_site_fract_z
 _atom_site_occupancy
  Zr  Zr0  1  0.30150573  0.89556805  0.31456884  1
  Zr  Zr1  1  0.10549320  0.49225597  0.30352196  1
  Zr  Zr2  1  0.49721072  0.29575062  0.30293343  1
  Zr  Zr3  1  0.90960147  0.50099490  0.30227635  1
  Zr  Zr4  1  0.09753302  0.29673188  0.90899058  1
  Zr  Zr5  1  0.90342504  0.90017997  0.50558709  1
  Zr  Zr6  1  0.50411198  0.29491779  0.50628190  1
  Zr  Zr7  1  0.69824588  0.89999062  0.10081974  1
  Zr  Zr8  1  0.69678300  0.29930212  0.30261173  1
  Zr  Zr9  1  0.71234969  0.50014519  0.89424497  1
  Zr  Zr10  1  0.29917494  0.50962299  0.49874254  1
  Zr  Zr11  1  0.90781635  0.70001763  0.89961166  1
  Zr  Zr12  1  0.10079503  0.90308800  0.50005692  1
  Zr  Zr13  1  0.50406430  0.90211614  0.49365122  1
  Zr  Zr14  1  0.29668823  0.90497773  0.69955489  1
  Zr  Zr15  1  0.09992019  0.30213967  0.30520987  1
  Zr  Zr16  1  0.69463886  0.89114960  0.30275659  1
  Zr  Zr17  1  0.49548437  0.09114983  0.09337452  1
  Zr  Zr18  1  0.49408738  0.29190367  0.10208839  1
  Zr  Zr19  1  0.30332322  0.70251616  0.49536901  1
  Zr  Zr20  1  0.29459970  0.89305449  0.89529844  1
  Zr  Zr21  1  0.29648159  0.49867029  0.70267122  1
  Zr  Zr22  1  0.69836334  0.10093780  0.49789423  1
  Zr  Zr23  1  0.90377671  0.49967019  0.10200392  1
  Zr  Zr24  1  0.30176352  0.69160449  0.30198358  1
  Zr  Zr25  1  0.49403512  0.10752594  0.89389845  1
  Zr  Zr26  1  0.09739969  0.10124033  0.89267758  1
  Zr  Zr27  1  0.49456723  0.29449546  0.70368515  1
  Zr  Zr28  1  0.49854998  0.69658175  0.49910748  1
  Zr  Zr29  1  0.68718837  0.89511054  0.69920922  1
  Zr  Zr30  1  0.69475987  0.70368541  0.50468753  1
  Zr  Zr31  1  0.29499578  0.10001511  0.30075485  1
  Zr  Zr32  1  0.09975121  0.70046930  0.29696029  1
  Zr  Zr33  1  0.10119199  0.50095171  0.69359167  1
  Zr  Zr34  1  0.09371850  0.70979075  0.09588028  1
  Zr  Zr35  1  0.29489905  0.09594821  0.89770989  1
  Zr  Zr36  1  0.09782405  0.09771771  0.30504725  1
  Zr  Zr37  1  0.90062452  0.70438951  0.09577798  1
  Zr  Zr38  1  0.70858038  0.49878933  0.69079705  1
  Zr  Zr39  1  0.50459750  0.50481929  0.29396308  1
  Zr  Zr40  1  0.29237406  0.29894600  0.29615351  1
  Zr  Zr41  1  0.49073663  0.09614489  0.29415236  1
  Zr  Zr42  1  0.90559423  0.09105857  0.71159547  1
  Zr  Zr43  1  0.69508055  0.50282774  0.29905581  1
  Zr  Zr44  1  0.72010720  0.09557497  0.29440772  1
  Zr  Zr45  1  0.69541733  0.71109674  0.10309951  1
  Zr  Zr46  1  0.50870885  0.50622146  0.50118855  1
  Zr  Zr47  1  0.89947610  0.48833456  0.70353560  1
  Zr  Zr48  1  0.50669160  0.89885759  0.10012057  1
  Zr  Zr49  1  0.90262376  0.49528819  0.89501000  1
  Sc  Sc50  1  0.90754037  0.50124610  0.50908162  1
  Sc  Sc51  1  0.09677697  0.49843488  0.49909714  1
  Sc  Sc52  1  0.29542739  0.69592499  0.10623440  1
  Sc  Sc53  1  0.69923401  0.29985234  0.69627419  1
  Sc  Sc54  1  0.49176022  0.50913932  0.90007922  1
  Sc  Sc55  1  0.29259272  0.69618728  0.70987691  1
  Sc  Sc56  1  0.90435139  0.70158446  0.50164070  1
  Sc  Sc57  1  0.70149629  0.70728066  0.90545814  1
  Sc  Sc58  1  0.69559734  0.50374512  0.10686537  1
  Sc  Sc59  1  0.89697875  0.30149723  0.89480757  1
  Sc  Sc60  1  0.09099552  0.90503275  0.70036597  1
  Sc  Sc61  1  0.09855638  0.48780245  0.09559743  1
  Sc  Sc62  1  0.71061003  0.30194890  0.10173942  1
  Sc  Sc63  1  0.90172352  0.30043254  0.30540745  1
  Sc  Sc64  1  0.30074633  0.50338512  0.89296971  1
  Sc  Sc65  1  0.89283943  0.09676527  0.11029021  1
  Sc  Sc66  1  0.29698920  0.50726970  0.10084186  1
  Sc  Sc67  1  0.29804859  0.29454992  0.69757412  1
  Sc  Sc68  1  0.49741625  0.50196141  0.69940281  1
  Sc  Sc69  1  0.90484025  0.90405282  0.89815155  1
  Sc  Sc70  1  0.49871379  0.10210130  0.50416739  1
  Sc  Sc71  1  0.10650774  0.90754973  0.29705457  1
  Sc  Sc72  1  0.90072429  0.89538780  0.09822914  1
  Sc  Sc73  1  0.50204870  0.89760599  0.89842661  1
  Sc  Sc74  1  0.90580045  0.69549631  0.69546970  1
  Sc  Sc75  1  0.10418705  0.89832375  0.90102881  1
  Sc  Sc76  1  0.09901542  0.69918729  0.70169872  1
  Sc  Sc77  1  0.50897402  0.70670921  0.69935704  1
  Sc  Sc78  1  0.30394775  0.10721001  0.09681664  1
  Sc  Sc79  1  0.90322175  0.10518599  0.89905871  1
  Sc  Sc80  1  0.10637349  0.30192123  0.09829584  1
  Sc  Sc81  1  0.50067432  0.69782564  0.90234354  1
  Sc  Sc82  1  0.09856057  0.49230606  0.89594964  1
  Sc  Sc83  1  0.90590361  0.30406250  0.09830468  1
  Sc  Sc84  1  0.90514641  0.30520402  0.50027918  1
  Sc  Sc85  1  0.29418086  0.29144622  0.50202757  1
  Sc  Sc86  1  0.29957172  0.09527875  0.51145457  1
  Sc  Sc87  1  0.69350626  0.89392599  0.90290944  1
  Sc  Sc88  1  0.09909650  0.30121733  0.49945925  1
  Sc  Sc89  1  0.10225230  0.30182380  0.70134848  1
  Sc  Sc90  1  0.70476148  0.10479848  0.88820601  1
  Sc  Sc91  1  0.29816239  0.90628447  0.09472153  1
  Sc  Sc92  1  0.90184484  0.69898717  0.29243990  1
  Sc  Sc93  1  0.09869102  0.90020867  0.09797089  1
  Sc  Sc94  1  0.09451483  0.69176474  0.50534984  1
  Sc  Sc95  1  0.69258304  0.30127197  0.50677201  1
  Sc  Sc96  1  0.09885945  0.09748099  0.49935146  1
  Sc  Sc97  1  0.10283669  0.09942766  0.09311455  1
  Sc  Sc98  1  0.50679456  0.69765187  0.30368234  1
  Sc  Sc99  1  0.29976807  0.30088065  0.89618013  1
  Nb  Nb100  1  0.30254645  0.89735125  0.50295786  1
  Nb  Nb101  1  0.70015971  0.50002185  0.50344114  1
  Nb  Nb102  1  0.69901500  0.89586336  0.50044794  1
  Nb  Nb103  1  0.70064917  0.09597379  0.69680399  1
  Nb  Nb104  1  0.70005659  0.69973200  0.30174822  1
  Nb  Nb105  1  0.49781815  0.10011916  0.69708990  1
  Nb  Nb106  1  0.29680867  0.30757556  0.09843733  1
  Nb  Nb107  1  0.49668213  0.89713810  0.29853533  1
  Nb  Nb108  1  0.10770295  0.70661773  0.89946291  1
  Nb  Nb109  1  0.90225175  0.09753595  0.49624800  1
  Nb  Nb110  1  0.49774058  0.90216811  0.69877784  1
  Nb  Nb111  1  0.29972686  0.49778100  0.30044041  1
  Nb  Nb112  1  0.49547287  0.50780032  0.09714389  1
  Nb  Nb113  1  0.30123247  0.10088694  0.69880056  1
  Nb  Nb114  1  0.69840675  0.09906453  0.09882138  1
  Nb  Nb115  1  0.90413346  0.09906466  0.31056833  1
  Nb  Nb116  1  0.70261432  0.69900711  0.70219983  1
  Nb  Nb117  1  0.90322472  0.29848221  0.69578964  1
  Nb  Nb118  1  0.49975429  0.30386307  0.89628938  1
  Nb  Nb119  1  0.89967126  0.89987294  0.69722157  1
  Nb  Nb120  1  0.89788534  0.91684462  0.30409926  1
  Nb  Nb121  1  0.69728649  0.30372472  0.90271630  1
  Nb  Nb122  1  0.10311581  0.10153143  0.70277531  1
  Nb  Nb123  1  0.29252026  0.70262458  0.90061173  1
  Nb  Nb124  1  0.49402258  0.69001194  0.09926520  1
  Nb  Nb125  1  0.39758053  0.80685845  0.60069068  1
  Nb  Nb126  1  0.79396734  0.41015697  0.40490582  1
  Nb  Nb127  1  0.39963831  0.40115054  0.59379835  1
  Nb  Nb128  1  0.39750961  0.79301721  0.00478012  1
  Nb  Nb129  1  0.19487732  0.60635667  -0.00721031  1
  Nb  Nb130  1  0.79732608  -0.00184417  0.60215172  1
  Nb  Nb131  1  0.00097075  0.19459098  0.20846156  1
  Nb  Nb132  1  0.39829954  0.40263770  0.39955867  1
  Nb  Nb133  1  0.61094844  0.59765402  0.79755894  1
  Nb  Nb134  1  0.80710876  0.18996699  0.60267013  1
  Nb  Nb135  1  0.59393785  0.39837383  -0.00314412  1
  Nb  Nb136  1  0.40354855  0.40136998  0.00498617  1
  Nb  Nb137  1  0.79457465  0.59859767  0.40044424  1
  Nb  Nb138  1  0.60041586  0.40159795  0.80631968  1
  Nb  Nb139  1  0.40039635  0.00281265  0.79095872  1
  Nb  Nb140  1  -0.00433972  0.19281477  0.60496615  1
  Nb  Nb141  1  0.80503535  0.60244992  0.00196212  1
  Nb  Nb142  1  0.60360618  0.19193381  0.19401180  1
  Nb  Nb143  1  0.80232783  0.80208831  0.79177106  1
  Nb  Nb144  1  0.40449946  0.79978926  0.20042968  1
  Nb  Nb145  1  0.60248520  0.20406610  -0.00217378  1
  Nb  Nb146  1  0.39725904  0.40228326  0.19931772  1
  Nb  Nb147  1  0.79326015  0.00146741  0.00231030  1
  Nb  Nb148  1  0.20522393  0.80311893  0.59752064  1
  Nb  Nb149  1  -0.00187725  0.80711570  0.39601104  1
  Pd  Pd150  1  0.80901572  0.79411056  0.39580568  1
  Pd  Pd151  1  0.20039341  0.20549347  0.79946800  1
  Pd  Pd152  1  0.19320360  0.19707120  0.19228419  1
  Pd  Pd153  1  0.38998809  -0.00936817  0.19910241  1
  Pd  Pd154  1  0.18879978  0.59371178  0.19140614  1
  Pd  Pd155  1  -0.00118879  0.80408574  0.79855358  1
  Pd  Pd156  1  0.19887534  0.00130505  0.00009891  1
  Pd  Pd157  1  0.39670571  0.00621605  0.40663034  1
  Pd  Pd158  1  -0.00566543  0.19733353  0.00961047  1
  Pd  Pd159  1  0.79726963  0.60296286  0.19873884  1
  Pd  Pd160  1  0.59879985  0.40022606  0.40402647  1
  Pd  Pd161  1  0.60609399  0.00963313  -0.01326841  1
  Pd  Pd162  1  0.20942983  0.80640231  0.19738426  1
  Pd  Pd163  1  0.00973264  0.59600599  0.19619654  1
  Pd  Pd164  1  0.60407572  0.00407369  0.20855884  1
  Pd  Pd165  1  0.19780476  0.19456302  0.40917075  1
  Pd  Pd166  1  0.40371975  0.80022038  0.79998890  1
  Pd  Pd167  1  0.18876821  0.79565931  0.40626060  1
  Pd  Pd168  1  0.59417116  0.00172267  0.80369409  1
  Pd  Pd169  1  0.79841706  0.40587509  0.00494258  1
  Pd  Pd170  1  0.00526281  0.59558408  -0.00299391  1
  Pd  Pd171  1  0.59989015  0.00274351  0.59752593  1
  Pd  Pd172  1  0.39379162  0.19949892  0.40569847  1
  Pd  Pd173  1  0.79965137  0.20628244  0.79412635  1
  Pd  Pd174  1  -0.00451501  0.81324392  0.20941517  1
  Pd  Pd175  1  0.00665462  0.59735716  0.79816914  1
  Pd  Pd176  1  0.80598314  0.60342633  0.59371365  1
  Pd  Pd177  1  0.39563719  0.20646549  -0.00607596  1
  Pd  Pd178  1  -0.00800996  0.00234668  0.00094312  1
  Pd  Pd179  1  -0.00071913  0.00335095  0.19613722  1
  Pd  Pd180  1  0.60243889  0.00527938  0.39148126  1
  Pd  Pd181  1  0.19127445  0.60041538  0.40289737  1
  Pd  Pd182  1  0.80024367  0.80197955  0.60525143  1
  Pd  Pd183  1  0.80653692  0.80722619  0.20774200  1
  Pd  Pd184  1  0.40663369  0.60881996  0.79639955  1
  Pd  Pd185  1  0.19808409  0.39544568  0.80336534  1
  Pd  Pd186  1  0.60102021  0.18726747  0.38941984  1
  Pd  Pd187  1  0.60973613  0.59639804  -0.00529041  1
  Pd  Pd188  1  0.80355380  0.21213584  0.41063379  1
  Pd  Pd189  1  0.80692819  0.20642079  0.19964512  1
  Pd  Pd190  1  0.79632757  -0.01075710  0.80354515  1
  Pd  Pd191  1  0.20449085  0.39767769  0.59450778  1
  Pd  Pd192  1  0.79573554  -0.00650046  0.40920521  1
  Pd  Pd193  1  0.19490447  -0.00038901  0.60171210  1
  Pd  Pd194  1  0.80492436  0.39818504  0.20833181  1
  Pd  Pd195  1  0.20529585  0.00055402  0.19634622  1
  Pd  Pd196  1  0.60496107  0.20433585  0.79770698  1
  Pd  Pd197  1  0.39752859  0.60588816  0.61172147  1
  Pd  Pd198  1  0.59457283  0.39244481  0.18917761  1
  Pd  Pd199  1  0.79990091  0.19465509  -0.00013305  1
  Rh  Rh200  1  0.39818885  0.20295759  0.60060915  1
  Rh  Rh201  1  0.60450501  0.79188669  0.80189953  1
  Rh  Rh202  1  0.18986970  0.19464510  0.60248677  1
  Rh  Rh203  1  -0.00332932  0.39534640  -0.00406175  1
  Rh  Rh204  1  0.20278556  0.40346110  0.19728764  1
  Rh  Rh205  1  0.20630801  0.00452213  0.40392076  1
  Rh  Rh206  1  -0.00508107  0.60821722  0.39795972  1
  Rh  Rh207  1  0.59093075  0.79345547  0.20252664  1
  Rh  Rh208  1  0.79833318  0.61586119  0.80815196  1
  Rh  Rh209  1  0.00424286  0.38931030  0.20184045  1
  Rh  Rh210  1  -0.00454746  0.40208770  0.40349994  1
  Rh  Rh211  1  0.60384277  0.60116167  0.60928235  1
  Rh  Rh212  1  0.40375242  0.59321671  0.39195812  1
  Rh  Rh213  1  0.39590841  0.20181908  0.19996152  1
  Rh  Rh214  1  0.40878836  0.79875947  0.39953162  1
  Rh  Rh215  1  0.20386821  0.20046584  -0.00129810  1
  Rh  Rh216  1  0.40305286  0.40110844  0.79572027  1
  Rh  Rh217  1  0.38495353  0.60251862  -0.00257898  1
  Rh  Rh218  1  0.20724789  0.40212377  0.40680399  1
  Rh  Rh219  1  0.00231700  0.80756145  -0.00529212  1
  Rh  Rh220  1  0.20548430  0.79500465  0.00804679  1
  Rh  Rh221  1  0.39178855  0.19505049  0.79791468  1
  Rh  Rh222  1  0.21153995  0.40880419  -0.00416876  1
  Rh  Rh223  1  0.19154612  0.80094283  0.78881071  1
  Rh  Rh224  1  -0.00118632  0.59544500  0.60582876  1
  Rh  Rh225  1  -0.00373968  0.00783256  0.60165911  1
  Rh  Rh226  1  0.59232370  0.80035088  0.59700125  1
  Rh  Rh227  1  0.60221048  0.60918261  0.19596639  1
  Rh  Rh228  1  0.39688869  -0.01142305  -0.01456813  1
  Rh  Rh229  1  0.60837505  0.60507548  0.40134555  1
  Rh  Rh230  1  0.80017661  -0.00919552  0.19395699  1
  Rh  Rh231  1  0.00477222  0.39281872  0.60236915  1
  Rh  Rh232  1  0.00318221  0.20499520  0.79524098  1
  Rh  Rh233  1  0.00523825  -0.00427900  0.80493833  1
  Rh  Rh234  1  0.00339346  -0.00560343  0.40073382  1
  Rh  Rh235  1  0.79665826  0.38771064  0.79274503  1
  Rh  Rh236  1  0.59119682  0.40270020  0.60922000  1
  Rh  Rh237  1  0.19899024  0.00046509  0.79643872  1
  Rh  Rh238  1  0.58698624  0.79440161  0.00171771  1
  Rh  Rh239  1  0.20016723  0.60623318  0.60072047  1
  Rh  Rh240  1  0.00015073  0.20047305  0.40281092  1
  Rh  Rh241  1  0.80201425  0.39035872  0.59325022  1
  Rh  Rh242  1  0.80715661  0.80321359  -0.01085736  1
  Rh  Rh243  1  0.00343900  0.39317119  0.79839128  1
  Rh  Rh244  1  0.00918201  0.80001793  0.59592369  1
  Rh  Rh245  1  0.40625086  -0.00246745  0.60340572  1
  Rh  Rh246  1  0.40140868  0.60064451  0.20564181  1
  Rh  Rh247  1  0.60461164  0.19353156  0.60845241  1
  Rh  Rh248  1  0.59693581  0.79835345  0.40031283  1
  Rh  Rh249  1  0.19223751  0.59858213  0.80641778  1
