# generated using pymatgen
data_ZrScNbPdRh
_symmetry_space_group_name_H-M   'P 1'
_cell_length_a   16.55375522
_cell_length_b   16.55582068
_cell_length_c   16.55507264
_cell_angle_alpha   89.96732607
_cell_angle_beta   89.98848668
_cell_angle_gamma   89.99654528
_symmetry_Int_Tables_number   1
_chemical_formula_structural   ZrScNbPdRh
_chemical_formula_sum   'Zr50 Sc50 Nb50 Pd50 Rh50'
_cell_volume   4537.09897362
_cell_formula_units_Z   50
loop_
 _symmetry_equiv_pos_site_id
 _symmetry_equiv_pos_as_xyz
  1  'x, y, z'
loop_
 _atom_site_type_symbol
 _atom_site_label
 _atom_site_symmetry_multiplicity
 _atom_site_fract_x
 _atom_site_fract_y
 _atom_site_fract_z
 _atom_site_occupancy
  Zr  Zr0  1  0.90406170  0.49786023  0.29252286  1
  Zr  Zr1  1  0.69485743  0.90081948  0.50516941  1
  Zr  Zr2  1  0.11022057  0.49888582  0.70588551  1
  Zr  Zr3  1  0.49996342  0.89991144  0.89596975  1
  Zr  Zr4  1  0.50061616  0.70583153  0.70184603  1
  Zr  Zr5  1  0.90062887  0.10010321  0.50458882  1
  Zr  Zr6  1  0.30741038  0.70399557  0.29313651  1
  Zr  Zr7  1  0.69582301  0.50165089  0.69290701  1
  Zr  Zr8  1  0.30240288  0.69915409  0.49492653  1
  Zr  Zr9  1  0.29799822  0.10819696  0.10445045  1
  Zr  Zr10  1  0.10268528  0.70373972  0.70223436  1
  Zr  Zr11  1  0.50125975  0.69533417  0.09950667  1
  Zr  Zr12  1  0.50569925  0.30217192  0.28617701  1
  Zr  Zr13  1  0.49965378  0.30200228  0.71106074  1
  Zr  Zr14  1  0.48991746  0.10029432  0.50367810  1
  Zr  Zr15  1  0.29812101  0.10568860  0.70862662  1
  Zr  Zr16  1  0.30438371  0.89971618  0.90392938  1
  Zr  Zr17  1  0.90232426  0.69397587  0.29725061  1
  Zr  Zr18  1  0.10160844  0.29670110  0.09351942  1
  Zr  Zr19  1  0.50642019  0.49774419  0.29672530  1
  Zr  Zr20  1  0.09910442  0.31526752  0.29862822  1
  Zr  Zr21  1  0.30445498  0.10100650  0.30386099  1
  Zr  Zr22  1  0.30286120  0.90799996  0.70918270  1
  Zr  Zr23  1  0.69387909  0.10689562  0.29755095  1
  Zr  Zr24  1  0.69359855  0.30549950  0.70277234  1
  Zr  Zr25  1  0.30412546  0.68937236  0.69897789  1
  Zr  Zr26  1  0.09684144  0.09566612  0.50137021  1
  Zr  Zr27  1  0.69179238  0.90740593  0.90020198  1
  Zr  Zr28  1  0.49793723  0.10378895  0.10395937  1
  Zr  Zr29  1  0.70013174  0.30300854  0.10030814  1
  Zr  Zr30  1  0.49523859  0.49631334  0.90266186  1
  Zr  Zr31  1  0.49422256  0.10015268  0.90666757  1
  Zr  Zr32  1  0.89525097  0.89816804  0.10383510  1
  Zr  Zr33  1  0.11255873  0.70402186  0.50323146  1
  Zr  Zr34  1  0.89741008  0.69631757  0.49891221  1
  Zr  Zr35  1  0.09732400  0.50139514  0.29208720  1
  Zr  Zr36  1  0.89553370  0.90706660  0.90070454  1
  Zr  Zr37  1  0.50131591  0.69808759  0.50277637  1
  Zr  Zr38  1  0.29258865  0.29837805  0.50689042  1
  Zr  Zr39  1  0.90136925  0.69895030  0.69884758  1
  Zr  Zr40  1  0.69930609  0.69213640  0.51197057  1
  Zr  Zr41  1  0.30242126  0.10209624  0.50505168  1
  Zr  Zr42  1  0.90208643  0.29595157  0.90543801  1
  Zr  Zr43  1  0.10451008  0.90374858  0.50060319  1
  Zr  Zr44  1  0.70093434  0.30224257  0.29274230  1
  Zr  Zr45  1  0.91150215  0.90229553  0.70858097  1
  Zr  Zr46  1  0.90463070  0.29352067  0.50601253  1
  Zr  Zr47  1  0.10274772  0.69292110  0.90225517  1
  Zr  Zr48  1  0.89542604  0.10549399  0.09260123  1
  Zr  Zr49  1  0.10340011  0.30249004  0.68683357  1
  Sc  Sc50  1  0.10392643  0.30663165  0.90268521  1
  Sc  Sc51  1  0.10776196  0.48868544  0.49350340  1
  Sc  Sc52  1  0.49127343  0.70467316  0.89955814  1
  Sc  Sc53  1  0.50991868  0.90208575  0.10355814  1
  Sc  Sc54  1  0.90888790  0.90576807  0.50464267  1
  Sc  Sc55  1  0.69481728  0.29682776  0.49823312  1
  Sc  Sc56  1  0.30623168  0.49817877  0.08411418  1
  Sc  Sc57  1  0.09341727  0.89344627  0.89938807  1
  Sc  Sc58  1  0.89714124  0.50816709  0.49549973  1
  Sc  Sc59  1  0.69774896  0.50896765  0.09573945  1
  Sc  Sc60  1  0.69783330  0.49849069  0.90737648  1
  Sc  Sc61  1  0.49757207  0.30044218  0.50054767  1
  Sc  Sc62  1  0.90667694  0.50571272  0.10146744  1
  Sc  Sc63  1  0.89453512  0.10404173  0.89806057  1
  Sc  Sc64  1  0.30674714  0.49816243  0.30450753  1
  Sc  Sc65  1  0.70313054  0.09588146  0.89988384  1
  Sc  Sc66  1  0.49477546  0.10131005  0.29182644  1
  Sc  Sc67  1  0.69078012  0.69751173  0.91129675  1
  Sc  Sc68  1  0.09966045  0.11366737  0.90358518  1
  Sc  Sc69  1  0.29356027  0.29603538  0.70535533  1
  Sc  Sc70  1  0.70078863  0.89590214  0.28024911  1
  Sc  Sc71  1  0.69830624  0.10642272  0.50052635  1
  Sc  Sc72  1  0.49794818  0.49884537  0.70550068  1
  Sc  Sc73  1  0.90416351  0.49287234  0.70483103  1
  Sc  Sc74  1  0.10477611  0.69945420  0.29993378  1
  Sc  Sc75  1  0.50303697  0.89896420  0.70558234  1
  Sc  Sc76  1  0.29780288  0.49995294  0.89590742  1
  Sc  Sc77  1  0.69321922  0.50290809  0.49970011  1
  Sc  Sc78  1  0.29708603  0.30232896  0.09749186  1
  Sc  Sc79  1  0.29492466  0.89848372  0.29833879  1
  Sc  Sc80  1  0.90561580  0.10300652  0.70587307  1
  Sc  Sc81  1  0.29935881  0.50574630  0.49743327  1
  Sc  Sc82  1  0.70029792  0.69456308  0.28762930  1
  Sc  Sc83  1  0.30034232  0.88591725  0.10557413  1
  Sc  Sc84  1  0.10399252  0.08511527  0.29465832  1
  Sc  Sc85  1  0.69316406  0.29742535  0.89636102  1
  Sc  Sc86  1  0.10422961  0.49555395  0.09157824  1
  Sc  Sc87  1  0.50204467  0.69182758  0.29035023  1
  Sc  Sc88  1  0.90045814  0.89968797  0.28889089  1
  Sc  Sc89  1  0.50276342  0.50148331  0.49540998  1
  Sc  Sc90  1  0.90999046  0.69703600  0.90663640  1
  Sc  Sc91  1  0.09879766  0.70192149  0.09143561  1
  Sc  Sc92  1  0.49626098  0.90193016  0.51356801  1
  Sc  Sc93  1  0.69658605  0.09312553  0.09461375  1
  Sc  Sc94  1  0.29759583  0.90420818  0.49565934  1
  Sc  Sc95  1  0.30333895  0.30334107  0.29489809  1
  Sc  Sc96  1  0.90121429  0.69378341  0.10093364  1
  Sc  Sc97  1  0.90400271  0.29798805  0.70421526  1
  Sc  Sc98  1  0.50207211  0.49559642  0.09321466  1
  Sc  Sc99  1  0.48963540  0.09516365  0.70324090  1
  Nb  Nb100  1  0.89472707  0.10591932  0.30305550  1
  Nb  Nb101  1  0.10069545  0.89723083  0.30213316  1
  Nb  Nb102  1  0.10101952  0.89938199  0.70208834  1
  Nb  Nb103  1  0.89891472  0.50078101  0.90324031  1
  Nb  Nb104  1  0.50267315  0.30246518  0.08780873  1
  Nb  Nb105  1  0.70013728  0.49042241  0.29350082  1
  Nb  Nb106  1  0.30118529  0.70287249  0.90974301  1
  Nb  Nb107  1  0.89820778  0.30077391  0.10287570  1
  Nb  Nb108  1  0.10137968  0.10324044  0.10014571  1
  Nb  Nb109  1  0.69530432  0.89886485  0.70695069  1
  Nb  Nb110  1  0.10055893  0.29540532  0.49800741  1
  Nb  Nb111  1  0.69507463  0.70375049  0.09554299  1
  Nb  Nb112  1  0.10317673  0.09325398  0.69817582  1
  Nb  Nb113  1  0.29942168  0.49751676  0.69870008  1
  Nb  Nb114  1  0.30107342  0.69602832  0.09214437  1
  Nb  Nb115  1  0.69768121  0.09359702  0.70510562  1
  Nb  Nb116  1  0.50321775  0.89630245  0.29696477  1
  Nb  Nb117  1  0.69962806  0.69924851  0.70095334  1
  Nb  Nb118  1  0.49929624  0.30320437  0.90415473  1
  Nb  Nb119  1  0.89750152  0.30249284  0.29081669  1
  Nb  Nb120  1  0.29854540  0.09839045  0.90248045  1
  Nb  Nb121  1  0.09858332  0.50020989  0.90078256  1
  Nb  Nb122  1  0.09625774  0.90907527  0.10917463  1
  Nb  Nb123  1  0.30069707  0.29462339  0.89979953  1
  Nb  Nb124  1  0.69923903  0.89435733  0.09534899  1
  Nb  Nb125  1  0.19207523  0.20161867  0.40097408  1
  Nb  Nb126  1  0.59698713  0.19791686  0.60891432  1
  Nb  Nb127  1  0.00864980  0.60011523  0.60104325  1
  Nb  Nb128  1  0.79490787  0.80059450  0.00107246  1
  Nb  Nb129  1  0.79612271  -0.00242826  0.60650114  1
  Nb  Nb130  1  0.79936606  0.39789328  0.59494923  1
  Nb  Nb131  1  -0.00414131  0.20111408  0.20262553  1
  Nb  Nb132  1  0.79912104  0.80264662  0.40317525  1
  Nb  Nb133  1  0.40931050  0.80029016  0.39617020  1
  Nb  Nb134  1  0.79727373  0.80544920  0.60650202  1
  Nb  Nb135  1  0.60233831  0.60319637  0.79906564  1
  Nb  Nb136  1  0.80684191  0.39848390  0.00168549  1
  Nb  Nb137  1  0.60114697  0.80278797  0.39778535  1
  Nb  Nb138  1  0.19614943  0.00235686  0.00685554  1
  Nb  Nb139  1  0.80118017  0.39708609  0.39474098  1
  Nb  Nb140  1  0.79602101  -0.00154794  0.39947345  1
  Nb  Nb141  1  0.20890903  0.60345181  0.19105578  1
  Nb  Nb142  1  0.59916864  -0.00509512  0.39565055  1
  Nb  Nb143  1  0.20293648  0.79797912  0.80145342  1
  Nb  Nb144  1  0.79377220  0.79634858  0.80153780  1
  Nb  Nb145  1  0.00569383  0.00312190  0.00892951  1
  Nb  Nb146  1  0.79650000  0.60264136  0.80283040  1
  Nb  Nb147  1  0.00041068  0.20243581  0.39112269  1
  Nb  Nb148  1  0.39525442  0.40027930  0.60532134  1
  Nb  Nb149  1  0.00150171  0.80258041  0.39839177  1
  Pd  Pd150  1  0.39250241  0.80617490  0.59801381  1
  Pd  Pd151  1  0.39930912  0.21006474  0.39495780  1
  Pd  Pd152  1  0.01254573  0.60520879  0.40711406  1
  Pd  Pd153  1  0.39680931  0.58885807  0.19346425  1
  Pd  Pd154  1  0.79685724  0.40533620  0.80347553  1
  Pd  Pd155  1  0.79080908  0.20010390  0.61169610  1
  Pd  Pd156  1  0.60574894  0.19670189  -0.00107839  1
  Pd  Pd157  1  0.40687235  -0.00993618  0.39763635  1
  Pd  Pd158  1  0.79540709  0.00731064  0.20116348  1
  Pd  Pd159  1  -0.00744763  0.00939444  0.19976365  1
  Pd  Pd160  1  -0.00732925  -0.00256409  0.39032042  1
  Pd  Pd161  1  -0.00199741  0.79696354  0.59346785  1
  Pd  Pd162  1  0.20472845  0.00048194  0.60175937  1
  Pd  Pd163  1  0.20140790  0.59721229  0.38972225  1
  Pd  Pd164  1  0.19316509  0.79241204  0.19604827  1
  Pd  Pd165  1  -0.00552318  0.59757649  0.79775110  1
  Pd  Pd166  1  0.19434787  0.80847466  -0.00102852  1
  Pd  Pd167  1  0.39558989  -0.00855981  0.19597664  1
  Pd  Pd168  1  0.39955818  0.40226312  0.19023396  1
  Pd  Pd169  1  0.58862078  0.19526233  0.40384267  1
  Pd  Pd170  1  0.78864776  0.59541308  0.39127771  1
  Pd  Pd171  1  0.00600548  0.79287963  0.20365221  1
  Pd  Pd172  1  0.79749267  0.20051644  0.79827554  1
  Pd  Pd173  1  0.20833292  0.60358011  0.80748766  1
  Pd  Pd174  1  0.00958384  0.20461157  0.79611109  1
  Pd  Pd175  1  0.41030307  0.80551410  0.00928361  1
  Pd  Pd176  1  0.59374282  0.18981065  0.80046971  1
  Pd  Pd177  1  0.60010815  0.00863737  0.60056255  1
  Pd  Pd178  1  0.39793488  0.39714892  0.40825278  1
  Pd  Pd179  1  0.19195777  0.20282496  0.21167193  1
  Pd  Pd180  1  0.19020638  -0.00409778  0.81420335  1
  Pd  Pd181  1  0.40524277  0.58898610  0.59910494  1
  Pd  Pd182  1  -0.00458092  0.40319138  0.00225714  1
  Pd  Pd183  1  0.39435716  -0.00554553  0.01279168  1
  Pd  Pd184  1  0.60513428  0.60539754  0.39171990  1
  Pd  Pd185  1  0.80311934  0.20400283  0.40050301  1
  Pd  Pd186  1  0.00585178  0.39582897  0.80407671  1
  Pd  Pd187  1  0.79769898  0.19498910  0.19335398  1
  Pd  Pd188  1  0.79646384  0.59779910  0.19350970  1
  Pd  Pd189  1  0.39562319  0.20533518  0.00140191  1
  Pd  Pd190  1  0.60506554  0.39809522  0.40209589  1
  Pd  Pd191  1  0.01040729  0.00920840  0.81168491  1
  Pd  Pd192  1  0.20950989  0.41236764  0.19384631  1
  Pd  Pd193  1  -0.00983801  0.39761739  0.40590697  1
  Pd  Pd194  1  -0.00447682  0.40963343  0.59296817  1
  Pd  Pd195  1  0.19189952  0.20491701  0.80208453  1
  Pd  Pd196  1  -0.00458010  0.80615199  0.00339434  1
  Pd  Pd197  1  0.39036241  0.39754421  0.79925460  1
  Pd  Pd198  1  0.20901230  -0.00237121  0.19682430  1
  Pd  Pd199  1  0.21195334  0.80771386  0.60846118  1
  Rh  Rh200  1  0.20013796  0.59544890  0.00065972  1
  Rh  Rh201  1  0.39320914  -0.00211553  0.60698110  1
  Rh  Rh202  1  0.59258323  0.00574712  0.80218635  1
  Rh  Rh203  1  0.81161091  0.59100994  0.61207705  1
  Rh  Rh204  1  0.00779546  0.19333116  0.60481123  1
  Rh  Rh205  1  0.20318238  0.00539147  0.39706143  1
  Rh  Rh206  1  0.59948150  0.79475866  0.19910380  1
  Rh  Rh207  1  0.20135447  0.80503441  0.39692386  1
  Rh  Rh208  1  0.59518051  0.39276428  0.59588476  1
  Rh  Rh209  1  0.39651970  0.39230918  -0.00525118  1
  Rh  Rh210  1  0.19459891  0.19091115  0.59851547  1
  Rh  Rh211  1  -0.00111685  0.00383480  0.61000927  1
  Rh  Rh212  1  0.00372307  0.79715230  0.80432354  1
  Rh  Rh213  1  -0.00055532  0.19756684  0.00489959  1
  Rh  Rh214  1  0.60203018  0.79791984  0.59916396  1
  Rh  Rh215  1  0.40660227  0.21000260  0.61076375  1
  Rh  Rh216  1  0.59822672  0.20165800  0.19040528  1
  Rh  Rh217  1  0.59004253  0.60135940  -0.00542807  1
  Rh  Rh218  1  0.00418622  0.59347148  0.00086962  1
  Rh  Rh219  1  0.79265444  0.20892273  -0.00360234  1
  Rh  Rh220  1  0.01572074  0.60247915  0.19176340  1
  Rh  Rh221  1  0.60726652  0.39779686  -0.00052427  1
  Rh  Rh222  1  0.20114208  0.39740311  0.80354373  1
  Rh  Rh223  1  0.79910642  0.78887740  0.19307236  1
  Rh  Rh224  1  0.20767688  0.39379899  0.39886641  1
  Rh  Rh225  1  0.79897236  -0.00325679  0.79322180  1
  Rh  Rh226  1  0.20706349  0.19723512  -0.00395471  1
  Rh  Rh227  1  0.60243053  0.00215113  0.20164029  1
  Rh  Rh228  1  0.20685054  0.40539182  0.59866695  1
  Rh  Rh229  1  0.20402029  0.40061744  -0.00940127  1
  Rh  Rh230  1  0.40312259  0.00441967  0.80469202  1
  Rh  Rh231  1  0.40111133  0.60097773  -0.00549169  1
  Rh  Rh232  1  0.60064312  0.41012195  0.81003564  1
  Rh  Rh233  1  0.40816766  0.80015502  0.20057640  1
  Rh  Rh234  1  0.59790541  0.80127086  -0.00055925  1
  Rh  Rh235  1  0.40444193  0.60667117  0.39747874  1
  Rh  Rh236  1  0.80305452  -0.00476484  0.00320986  1
  Rh  Rh237  1  0.00057373  0.39618874  0.18827182  1
  Rh  Rh238  1  0.39994108  0.19969875  0.80784669  1
  Rh  Rh239  1  0.59849481  0.40386508  0.18874713  1
  Rh  Rh240  1  0.38927664  0.79498564  0.79925267  1
  Rh  Rh241  1  0.58836003  0.59815862  0.60889834  1
  Rh  Rh242  1  0.19508556  0.59116807  0.59674964  1
  Rh  Rh243  1  0.59542104  0.00232281  0.00142852  1
  Rh  Rh244  1  0.40152484  0.60254144  0.80577859  1
  Rh  Rh245  1  0.60297047  0.79356147  0.80589669  1
  Rh  Rh246  1  0.80436806  0.60122029  -0.00408902  1
  Rh  Rh247  1  0.60261111  0.59446450  0.19599782  1
  Rh  Rh248  1  0.40293587  0.21094705  0.19459526  1
  Rh  Rh249  1  0.80130483  0.40920686  0.19442877  1
