# generated using pymatgen
data_ZrScNbPdRh
_symmetry_space_group_name_H-M   'P 1'
_cell_length_a   16.55699621
_cell_length_b   16.55848390
_cell_length_c   16.55865546
_cell_angle_alpha   89.99223824
_cell_angle_beta   90.02720952
_cell_angle_gamma   89.96897659
_symmetry_Int_Tables_number   1
_chemical_formula_structural   ZrScNbPdRh
_chemical_formula_sum   'Zr50 Sc50 Nb50 Pd50 Rh50'
_cell_volume   4539.69914932
_cell_formula_units_Z   50
loop_
 _symmetry_equiv_pos_site_id
 _symmetry_equiv_pos_as_xyz
  1  'x, y, z'
loop_
 _atom_site_type_symbol
 _atom_site_label
 _atom_site_symmetry_multiplicity
 _atom_site_fract_x
 _atom_site_fract_y
 _atom_site_fract_z
 _atom_site_occupancy
  Zr  Zr0  1  0.90401050  0.89884022  0.09111664  1
  Zr  Zr1  1  0.09806713  0.69478208  0.90144118  1
  Zr  Zr2  1  0.29956005  0.90080172  0.30049150  1
  Zr  Zr3  1  0.10412307  0.88841205  0.69559334  1
  Zr  Zr4  1  0.10230801  0.10575587  0.49329633  1
  Zr  Zr5  1  0.30341965  0.70055947  0.50061715  1
  Zr  Zr6  1  0.30306660  0.09541281  0.48737228  1
  Zr  Zr7  1  0.09883540  0.69574080  0.09853703  1
  Zr  Zr8  1  0.69902056  0.09839010  0.89651234  1
  Zr  Zr9  1  0.10145891  0.90270659  0.09556892  1
  Zr  Zr10  1  0.10209980  0.10720131  0.70201820  1
  Zr  Zr11  1  0.29577537  0.49985732  0.29020129  1
  Zr  Zr12  1  0.70249467  0.30289716  0.89069744  1
  Zr  Zr13  1  0.30157743  0.69746963  0.29805942  1
  Zr  Zr14  1  0.49656576  0.10055109  0.30357054  1
  Zr  Zr15  1  0.50859925  0.29060782  0.70532015  1
  Zr  Zr16  1  0.10796097  0.10414321  0.29711294  1
  Zr  Zr17  1  0.89753597  0.89894825  0.90179564  1
  Zr  Zr18  1  0.30193161  0.29657054  0.90125756  1
  Zr  Zr19  1  0.89407755  0.89445973  0.30665856  1
  Zr  Zr20  1  0.50130623  0.90290737  0.70120656  1
  Zr  Zr21  1  0.90160546  0.10297495  0.29567547  1
  Zr  Zr22  1  0.90409087  0.30133830  0.50476266  1
  Zr  Zr23  1  0.49966175  0.10283740  0.90257892  1
  Zr  Zr24  1  0.29976750  0.10483436  0.30284986  1
  Zr  Zr25  1  0.50310933  0.50558929  0.89623583  1
  Zr  Zr26  1  0.68775374  0.69583819  0.50179070  1
  Zr  Zr27  1  0.10309925  0.49934927  0.70299764  1
  Zr  Zr28  1  0.89378686  0.30117320  0.89814306  1
  Zr  Zr29  1  0.50795619  0.89749716  0.30556049  1
  Zr  Zr30  1  0.29591680  0.69920372  0.10316735  1
  Zr  Zr31  1  0.09646985  0.29645445  0.29770951  1
  Zr  Zr32  1  0.30120900  0.89533771  0.09247688  1
  Zr  Zr33  1  0.69568759  0.10488069  0.09931025  1
  Zr  Zr34  1  0.69891786  0.09730714  0.30204047  1
  Zr  Zr35  1  0.30280802  0.30701050  0.10226087  1
  Zr  Zr36  1  0.10499182  0.49818933  0.10615471  1
  Zr  Zr37  1  0.69580149  0.30438306  0.10198208  1
  Zr  Zr38  1  0.90086960  0.50316273  0.30158166  1
  Zr  Zr39  1  0.70146058  0.50108696  0.49767273  1
  Zr  Zr40  1  0.30427176  0.49999578  0.10194358  1
  Zr  Zr41  1  0.71229678  0.29720951  0.50130862  1
  Zr  Zr42  1  0.30829347  0.90120895  0.70166249  1
  Zr  Zr43  1  0.08924778  0.10198684  0.10441982  1
  Zr  Zr44  1  0.89703470  0.09752468  0.90712101  1
  Zr  Zr45  1  0.49905786  0.30119608  0.09372245  1
  Zr  Zr46  1  0.70392690  0.09569666  0.50126658  1
  Zr  Zr47  1  0.49999576  0.69803514  0.48842733  1
  Zr  Zr48  1  0.10004518  0.30074269  0.10232887  1
  Zr  Zr49  1  0.09745865  0.69557872  0.70030534  1
  Sc  Sc50  1  0.50279298  0.09121273  0.70361627  1
  Sc  Sc51  1  0.49684055  0.50344819  0.50095822  1
  Sc  Sc52  1  0.70297122  0.51069377  0.10797448  1
  Sc  Sc53  1  0.70722976  0.49643009  0.29619752  1
  Sc  Sc54  1  0.50425436  0.10585649  0.09386673  1
  Sc  Sc55  1  0.69957737  0.91329266  0.69870097  1
  Sc  Sc56  1  0.90001702  0.69758272  0.70679709  1
  Sc  Sc57  1  0.70325520  0.50583929  0.70850289  1
  Sc  Sc58  1  0.50148636  0.50834301  0.29671243  1
  Sc  Sc59  1  0.88958280  0.09777610  0.69801211  1
  Sc  Sc60  1  0.49638853  0.50421948  0.70352524  1
  Sc  Sc61  1  0.08362285  0.49329297  0.50963244  1
  Sc  Sc62  1  0.89438819  0.49838327  0.49933913  1
  Sc  Sc63  1  0.89727666  0.11037958  0.50107195  1
  Sc  Sc64  1  0.50555293  0.70544570  0.90292659  1
  Sc  Sc65  1  0.70532951  0.29761791  0.29170348  1
  Sc  Sc66  1  0.50171286  0.89825551  0.50263922  1
  Sc  Sc67  1  0.09967845  0.30933434  0.89497459  1
  Sc  Sc68  1  0.29129914  0.30807274  0.70536898  1
  Sc  Sc69  1  0.49365670  0.29602010  0.29357357  1
  Sc  Sc70  1  0.09305471  0.50393467  0.89929726  1
  Sc  Sc71  1  0.30047449  0.09704227  0.71136257  1
  Sc  Sc72  1  0.89351693  0.89641779  0.70484238  1
  Sc  Sc73  1  0.69543461  0.10197001  0.70138216  1
  Sc  Sc74  1  0.30726820  0.89914515  0.49985317  1
  Sc  Sc75  1  0.08580552  0.70605881  0.50527950  1
  Sc  Sc76  1  0.90621530  0.50527956  0.69729363  1
  Sc  Sc77  1  0.90284669  0.69924372  0.90520069  1
  Sc  Sc78  1  0.70433761  0.69203452  0.90083992  1
  Sc  Sc79  1  0.30199188  0.09649569  0.09400820  1
  Sc  Sc80  1  0.10618828  0.90133679  0.29298157  1
  Sc  Sc81  1  0.90109611  0.69596138  0.48975506  1
  Sc  Sc82  1  0.30526103  0.70164623  0.69907766  1
  Sc  Sc83  1  0.50309752  0.69947142  0.69316995  1
  Sc  Sc84  1  0.49239873  0.90200619  0.90393769  1
  Sc  Sc85  1  0.89914149  0.50300643  0.10294256  1
  Sc  Sc86  1  0.89701656  0.89392031  0.49276079  1
  Sc  Sc87  1  0.30560822  0.49395896  0.50597045  1
  Sc  Sc88  1  0.30241282  0.30638202  0.49611998  1
  Sc  Sc89  1  0.30212199  0.09152605  0.90160759  1
  Sc  Sc90  1  0.49368761  0.30256974  0.50036528  1
  Sc  Sc91  1  0.10992888  0.10044958  0.90029294  1
  Sc  Sc92  1  0.89553209  0.50348542  0.90077244  1
  Sc  Sc93  1  0.90010602  0.29561418  0.09912774  1
  Sc  Sc94  1  0.30241047  0.50125320  0.69961909  1
  Sc  Sc95  1  0.49858154  0.29807028  0.90122901  1
  Sc  Sc96  1  0.09821873  0.30983382  0.69742498  1
  Sc  Sc97  1  0.30199666  0.49700412  0.89529966  1
  Sc  Sc98  1  0.51099791  0.89388697  0.09017838  1
  Sc  Sc99  1  0.69746238  0.69555532  0.70086262  1
  Nb  Nb100  1  0.09999968  0.29995748  0.50429536  1
  Nb  Nb101  1  0.70198112  0.89421372  0.09994381  1
  Nb  Nb102  1  0.90217935  0.09401209  0.09886163  1
  Nb  Nb103  1  0.30470996  0.70812184  0.90874922  1
  Nb  Nb104  1  0.89274114  0.30386369  0.30347195  1
  Nb  Nb105  1  0.49911614  0.50193142  0.09665816  1
  Nb  Nb106  1  0.89607113  0.70055226  0.10334988  1
  Nb  Nb107  1  0.50983899  0.69738581  0.10306065  1
  Nb  Nb108  1  0.90291540  0.70026595  0.29908768  1
  Nb  Nb109  1  0.69854104  0.89833758  0.90147690  1
  Nb  Nb110  1  0.70392375  0.89868299  0.49263474  1
  Nb  Nb111  1  0.10081284  0.89635552  0.50141636  1
  Nb  Nb112  1  0.69722901  0.70406469  0.10514304  1
  Nb  Nb113  1  0.69184807  0.69369141  0.29380362  1
  Nb  Nb114  1  0.70507779  0.29644795  0.70034658  1
  Nb  Nb115  1  0.70460720  0.90495801  0.30147487  1
  Nb  Nb116  1  0.29480153  0.29652733  0.29825839  1
  Nb  Nb117  1  0.50019353  0.69878519  0.29915434  1
  Nb  Nb118  1  0.09802419  0.50142948  0.30106752  1
  Nb  Nb119  1  0.09299561  0.69568158  0.30502535  1
  Nb  Nb120  1  0.09944271  0.90201487  0.90206093  1
  Nb  Nb121  1  0.29931215  0.89885823  0.90585568  1
  Nb  Nb122  1  0.49209042  0.10325707  0.49966524  1
  Nb  Nb123  1  0.69802616  0.50054894  0.89829412  1
  Nb  Nb124  1  0.89398576  0.29188677  0.69840085  1
  Nb  Nb125  1  0.78994414  0.79975551  0.59292302  1
  Nb  Nb126  1  0.19979335  0.20575046  0.00339944  1
  Nb  Nb127  1  0.40268686  0.60427159  0.00502236  1
  Nb  Nb128  1  0.60420262  0.80707366  0.80214864  1
  Nb  Nb129  1  0.41032922  0.79657182  0.19994386  1
  Nb  Nb130  1  -0.00609502  0.19950650  0.79850182  1
  Nb  Nb131  1  0.19625695  0.60148663  0.59529186  1
  Nb  Nb132  1  0.00333086  0.00020637  0.79792253  1
  Nb  Nb133  1  0.19707047  0.00107007  0.59674874  1
  Nb  Nb134  1  0.79696098  -0.00668797  0.19465157  1
  Nb  Nb135  1  0.40508190  -0.00739744  0.19901984  1
  Nb  Nb136  1  0.60684783  0.39480111  0.60155516  1
  Nb  Nb137  1  0.59958219  0.20201188  0.40450293  1
  Nb  Nb138  1  0.19072004  0.59664730  0.40386409  1
  Nb  Nb139  1  0.20303791  0.19934921  0.59551118  1
  Nb  Nb140  1  0.00501946  -0.00157943  0.59871373  1
  Nb  Nb141  1  0.79574460  0.79720775  0.20149972  1
  Nb  Nb142  1  0.20620747  0.80101961  0.81027310  1
  Nb  Nb143  1  0.00542481  -0.00028695  0.40323584  1
  Nb  Nb144  1  0.39597191  0.19594578  0.60041997  1
  Nb  Nb145  1  0.19638764  0.79340222  0.40119232  1
  Nb  Nb146  1  0.60313255  0.39499641  0.40326297  1
  Nb  Nb147  1  0.19254650  0.40272977  0.39652131  1
  Nb  Nb148  1  -0.00556184  0.79337960  0.20072242  1
  Nb  Nb149  1  0.60318574  0.41003741  -0.00279356  1
  Pd  Pd150  1  0.80520051  0.60929091  0.60118096  1
  Pd  Pd151  1  0.39406444  0.59045725  0.39940881  1
  Pd  Pd152  1  0.59893161  -0.00020343  0.19378933  1
  Pd  Pd153  1  0.39909606  0.61049574  0.80638719  1
  Pd  Pd154  1  0.79542649  0.60435007  0.39513351  1
  Pd  Pd155  1  0.59900876  -0.00097875  0.59247210  1
  Pd  Pd156  1  0.79338591  0.40746334  0.00680647  1
  Pd  Pd157  1  -0.00022668  0.40008890  0.40005151  1
  Pd  Pd158  1  0.80321899  0.19607420  0.19417741  1
  Pd  Pd159  1  0.80657008  0.40837716  0.79136297  1
  Pd  Pd160  1  0.59459298  0.00499753  0.40963736  1
  Pd  Pd161  1  0.39871134  0.19731275  0.79532910  1
  Pd  Pd162  1  0.59537846  0.20133231  0.59357844  1
  Pd  Pd163  1  0.00707767  0.20085506  -0.00929772  1
  Pd  Pd164  1  0.79243164  -0.00049875  0.00467464  1
  Pd  Pd165  1  0.20946346  0.60603082  0.79707562  1
  Pd  Pd166  1  0.00381561  0.80260706  0.80542144  1
  Pd  Pd167  1  -0.00451241  0.40509146  0.00198232  1
  Pd  Pd168  1  0.59951468  0.40240920  0.79675732  1
  Pd  Pd169  1  0.20863884  0.00572556  0.19312164  1
  Pd  Pd170  1  0.40269106  0.39701907  0.79766479  1
  Pd  Pd171  1  0.79611777  0.20186483  0.00369964  1
  Pd  Pd172  1  0.40696403  0.79720623  0.59787918  1
  Pd  Pd173  1  0.60159128  0.59956496  0.00115505  1
  Pd  Pd174  1  -0.00802413  0.39690217  0.19905500  1
  Pd  Pd175  1  0.59536256  0.58879056  0.60488339  1
  Pd  Pd176  1  0.79489892  0.79188401  0.00122034  1
  Pd  Pd177  1  0.60155058  0.80229846  0.20288222  1
  Pd  Pd178  1  -0.01841966  0.80222720  0.60015469  1
  Pd  Pd179  1  0.80964170  -0.00718718  0.59418785  1
  Pd  Pd180  1  -0.00892845  0.39764141  0.79563909  1
  Pd  Pd181  1  0.78817624  0.78545935  0.39915987  1
  Pd  Pd182  1  0.19232507  0.79948781  -0.00366527  1
  Pd  Pd183  1  0.40488995  0.79767076  0.80235710  1
  Pd  Pd184  1  0.40086608  0.40144556  0.39005887  1
  Pd  Pd185  1  0.19750352  -0.01013365  0.79646007  1
  Pd  Pd186  1  0.79984634  0.60073440  0.00233463  1
  Pd  Pd187  1  0.79037475  0.79886160  0.79373297  1
  Pd  Pd188  1  0.79959045  0.40491336  0.61032913  1
  Pd  Pd189  1  0.40662081  0.40149978  0.20611377  1
  Pd  Pd190  1  0.19981973  0.40216989  -0.00631885  1
  Pd  Pd191  1  0.60682199  0.79888933  0.39883037  1
  Pd  Pd192  1  0.40784495  0.39199963  0.61202920  1
  Pd  Pd193  1  0.20730751  0.59101677  -0.00575698  1
  Pd  Pd194  1  -0.00664796  -0.01035812  0.20827033  1
  Pd  Pd195  1  0.60082554  -0.00227338  -0.00218426  1
  Pd  Pd196  1  -0.00441024  0.19917310  0.39705147  1
  Pd  Pd197  1  0.39800892  0.19175321  0.19159835  1
  Pd  Pd198  1  0.59695389  0.40528108  0.20134962  1
  Pd  Pd199  1  -0.00089324  0.60129390  0.19770170  1
  Rh  Rh200  1  0.39710662  0.80225052  0.39455613  1
  Rh  Rh201  1  0.19171021  0.60241424  0.20574548  1
  Rh  Rh202  1  0.59909474  0.59554756  0.20241225  1
  Rh  Rh203  1  0.40281324  0.20913635  0.40451209  1
  Rh  Rh204  1  -0.00490611  0.60015807  0.80415701  1
  Rh  Rh205  1  0.40353355  -0.00137588  0.00526272  1
  Rh  Rh206  1  0.01044593  0.80954105  0.38991997  1
  Rh  Rh207  1  0.20303030  0.21627815  0.40580165  1
  Rh  Rh208  1  0.60808031  0.81012354  0.60807343  1
  Rh  Rh209  1  0.40268827  -0.00098162  0.80812597  1
  Rh  Rh210  1  0.80200709  0.19414946  0.79738323  1
  Rh  Rh211  1  0.19583437  0.00612798  0.00350810  1
  Rh  Rh212  1  0.59702848  0.19919452  0.20808540  1
  Rh  Rh213  1  0.60721844  0.79706006  -0.00849913  1
  Rh  Rh214  1  0.19868111  0.40305194  0.59179697  1
  Rh  Rh215  1  0.19749946  0.39563470  0.20722532  1
  Rh  Rh216  1  0.39386252  0.00989412  0.59995385  1
  Rh  Rh217  1  0.00411667  0.20166024  0.60859141  1
  Rh  Rh218  1  0.60290143  0.19598499  0.80357785  1
  Rh  Rh219  1  0.79803678  0.39836311  0.39585358  1
  Rh  Rh220  1  0.80914055  0.00711574  0.39872137  1
  Rh  Rh221  1  0.60656609  0.21290658  -0.00647472  1
  Rh  Rh222  1  -0.00418150  0.59634643  0.00505228  1
  Rh  Rh223  1  0.20785776  0.79782949  0.59753257  1
  Rh  Rh224  1  0.59832329  -0.00512507  0.80766155  1
  Rh  Rh225  1  0.00001033  0.60269678  0.59826681  1
  Rh  Rh226  1  0.80257418  0.59866599  0.80373314  1
  Rh  Rh227  1  0.40601321  0.79303858  0.01008515  1
  Rh  Rh228  1  0.60022198  0.60971622  0.79917903  1
  Rh  Rh229  1  0.39156154  0.19800559  0.00064861  1
  Rh  Rh230  1  0.39651038  0.60161498  0.59853603  1
  Rh  Rh231  1  0.80065302  0.60790564  0.20378827  1
  Rh  Rh232  1  -0.00845620  0.20606969  0.20121548  1
  Rh  Rh233  1  -0.00762342  0.39599645  0.60656108  1
  Rh  Rh234  1  0.80733059  0.39954527  0.19808304  1
  Rh  Rh235  1  0.40889674  0.40962964  -0.00570734  1
  Rh  Rh236  1  0.00320844  0.79582398  0.00256105  1
  Rh  Rh237  1  0.19407050  0.21067285  0.80261028  1
  Rh  Rh238  1  0.79710947  0.19543265  0.60470883  1
  Rh  Rh239  1  0.40985907  0.60659934  0.19259482  1
  Rh  Rh240  1  0.80302943  0.00082250  0.80506397  1
  Rh  Rh241  1  0.60274678  0.59108751  0.39188029  1
  Rh  Rh242  1  0.19969473  0.40595003  0.80334502  1
  Rh  Rh243  1  0.20661356  0.19926426  0.18958557  1
  Rh  Rh244  1  0.00730969  0.00548462  -0.00995098  1
  Rh  Rh245  1  0.79815620  0.20087494  0.39659956  1
  Rh  Rh246  1  0.19288439  0.78972465  0.20731678  1
  Rh  Rh247  1  0.19324486  -0.01363122  0.40450847  1
  Rh  Rh248  1  -0.00044211  0.59202178  0.40352358  1
  Rh  Rh249  1  0.40748959  -0.00847018  0.39534056  1
