# generated using pymatgen
data_ZrScNbPdRh
_symmetry_space_group_name_H-M   'P 1'
_cell_length_a   16.55251404
_cell_length_b   16.55674043
_cell_length_c   16.55483359
_cell_angle_alpha   90.02845204
_cell_angle_beta   90.00666762
_cell_angle_gamma   90.00581793
_symmetry_Int_Tables_number   1
_chemical_formula_structural   ZrScNbPdRh
_chemical_formula_sum   'Zr50 Sc50 Nb50 Pd50 Rh50'
_cell_volume   4536.94553579
_cell_formula_units_Z   50
loop_
 _symmetry_equiv_pos_site_id
 _symmetry_equiv_pos_as_xyz
  1  'x, y, z'
loop_
 _atom_site_type_symbol
 _atom_site_label
 _atom_site_symmetry_multiplicity
 _atom_site_fract_x
 _atom_site_fract_y
 _atom_site_fract_z
 _atom_site_occupancy
  Zr  Zr0  1  0.69962674  0.70171339  0.90565413  1
  Zr  Zr1  1  0.30014322  0.08573371  0.50001925  1
  Zr  Zr2  1  0.10214425  0.91240418  0.89993393  1
  Zr  Zr3  1  0.90581582  0.69680845  0.10042674  1
  Zr  Zr4  1  0.89412953  0.30409454  0.09812744  1
  Zr  Zr5  1  0.30949423  0.30760241  0.50156307  1
  Zr  Zr6  1  0.29615028  0.70458206  0.50925894  1
  Zr  Zr7  1  0.89892091  0.29670339  0.90292743  1
  Zr  Zr8  1  0.50061687  0.09518058  0.49453709  1
  Zr  Zr9  1  0.10206740  0.70373648  0.10375499  1
  Zr  Zr10  1  0.69483401  0.30257134  0.30052757  1
  Zr  Zr11  1  0.30307475  0.30630476  0.10225191  1
  Zr  Zr12  1  0.30306166  0.10436775  0.70226278  1
  Zr  Zr13  1  0.49800689  0.10826898  0.69843934  1
  Zr  Zr14  1  0.70058492  0.50277446  0.69269095  1
  Zr  Zr15  1  0.29474616  0.49294376  0.49706709  1
  Zr  Zr16  1  0.09099251  0.50073043  0.50792090  1
  Zr  Zr17  1  0.70923022  0.09693532  0.90485379  1
  Zr  Zr18  1  0.29323798  0.90659887  0.31301398  1
  Zr  Zr19  1  0.90282970  0.10278762  0.69373305  1
  Zr  Zr20  1  0.70200418  0.69851598  0.69807382  1
  Zr  Zr21  1  0.89814395  0.50761855  0.30589011  1
  Zr  Zr22  1  0.09474591  0.70614519  0.30207524  1
  Zr  Zr23  1  0.89581821  0.90356943  0.89440861  1
  Zr  Zr24  1  0.69715095  0.69981065  0.29959680  1
  Zr  Zr25  1  0.11523428  0.89505165  0.49886698  1
  Zr  Zr26  1  0.70017081  0.89879370  0.89225909  1
  Zr  Zr27  1  0.68986395  0.09718700  0.09626972  1
  Zr  Zr28  1  0.69611408  0.90064497  0.09794057  1
  Zr  Zr29  1  0.69829323  0.10185180  0.50509598  1
  Zr  Zr30  1  0.50200226  0.50165376  0.70847444  1
  Zr  Zr31  1  0.49121438  0.70134019  0.70609486  1
  Zr  Zr32  1  0.49808686  0.91099646  0.10051255  1
  Zr  Zr33  1  0.90525641  0.10597656  0.29798207  1
  Zr  Zr34  1  0.90529267  0.70984409  0.69696007  1
  Zr  Zr35  1  0.50475661  0.30050836  0.89899713  1
  Zr  Zr36  1  0.09746810  0.09639439  0.09311439  1
  Zr  Zr37  1  0.50326860  0.70503747  0.29257349  1
  Zr  Zr38  1  0.09651177  0.30758820  0.49751156  1
  Zr  Zr39  1  0.69788052  0.29969014  0.50144367  1
  Zr  Zr40  1  0.30163790  0.49742514  0.29466852  1
  Zr  Zr41  1  0.89863796  0.49645632  0.90665732  1
  Zr  Zr42  1  0.09814736  0.89848416  0.09856863  1
  Zr  Zr43  1  0.49875648  0.69611735  0.89919457  1
  Zr  Zr44  1  0.50147375  0.70690372  0.49390796  1
  Zr  Zr45  1  0.30856275  0.70343095  0.89697921  1
  Zr  Zr46  1  0.89954335  0.30161630  0.29991598  1
  Zr  Zr47  1  0.49586401  0.89736911  0.30181058  1
  Zr  Zr48  1  0.09633564  0.10156281  0.50617009  1
  Zr  Zr49  1  0.09572606  0.89725430  0.70029983  1
  Sc  Sc50  1  0.09635462  0.30178864  0.70560865  1
  Sc  Sc51  1  0.10338253  0.70186847  0.69187487  1
  Sc  Sc52  1  0.90084964  0.69756659  0.29954033  1
  Sc  Sc53  1  0.29908160  0.90078762  0.90490512  1
  Sc  Sc54  1  0.09693220  0.29992147  0.89930001  1
  Sc  Sc55  1  0.89738425  0.70397423  0.90616191  1
  Sc  Sc56  1  0.10506578  0.49183722  0.89511877  1
  Sc  Sc57  1  0.49449758  0.69339468  0.09933696  1
  Sc  Sc58  1  0.10565335  0.29692270  0.09519005  1
  Sc  Sc59  1  0.49122478  0.49097348  0.50249026  1
  Sc  Sc60  1  0.09855907  0.10559978  0.30102185  1
  Sc  Sc61  1  0.29790019  0.69236559  0.70855527  1
  Sc  Sc62  1  0.69281297  0.10034173  0.30075559  1
  Sc  Sc63  1  0.90351559  0.10143299  0.89640389  1
  Sc  Sc64  1  0.69575078  0.29614360  0.90601084  1
  Sc  Sc65  1  0.70007197  0.50019394  0.29388370  1
  Sc  Sc66  1  0.90707739  0.69019455  0.49719972  1
  Sc  Sc67  1  0.89256410  0.50074286  0.09847644  1
  Sc  Sc68  1  0.70601411  0.30205537  0.09863064  1
  Sc  Sc69  1  0.50785664  0.10203782  0.90416946  1
  Sc  Sc70  1  0.70428250  0.69179203  0.50208056  1
  Sc  Sc71  1  0.09814284  0.10309866  0.90050675  1
  Sc  Sc72  1  0.69270993  0.70094447  0.10350417  1
  Sc  Sc73  1  0.68593071  0.91103576  0.49818832  1
  Sc  Sc74  1  0.90126040  0.90451316  0.70529261  1
  Sc  Sc75  1  0.30348854  0.70285641  0.28369328  1
  Sc  Sc76  1  0.30080549  0.49785237  0.89459635  1
  Sc  Sc77  1  0.29073169  0.90529896  0.69990669  1
  Sc  Sc78  1  0.89663671  0.49814040  0.68299817  1
  Sc  Sc79  1  0.68679861  0.89286512  0.29175887  1
  Sc  Sc80  1  0.30673900  0.10566833  0.29986475  1
  Sc  Sc81  1  0.70034450  0.09931501  0.69797221  1
  Sc  Sc82  1  0.30249390  0.89723929  0.09562282  1
  Sc  Sc83  1  0.29927610  0.49943690  0.69680278  1
  Sc  Sc84  1  0.90152686  0.10679743  0.09325004  1
  Sc  Sc85  1  0.10332668  0.49786993  0.10141977  1
  Sc  Sc86  1  0.90907695  0.89570793  0.09852015  1
  Sc  Sc87  1  0.29591753  0.09587582  0.89983529  1
  Sc  Sc88  1  0.09899592  0.09694074  0.70693870  1
  Sc  Sc89  1  0.89753706  0.29379129  0.69666800  1
  Sc  Sc90  1  0.49736079  0.29555658  0.49500211  1
  Sc  Sc91  1  0.09948998  0.49594323  0.30976705  1
  Sc  Sc92  1  0.10794422  0.69811754  0.89536873  1
  Sc  Sc93  1  0.69252006  0.49888563  0.09774359  1
  Sc  Sc94  1  0.09988326  0.29944477  0.30325878  1
  Sc  Sc95  1  0.50080459  0.31079836  0.09342520  1
  Sc  Sc96  1  0.50349172  0.49394517  0.29002035  1
  Sc  Sc97  1  0.30171801  0.09596449  0.10157124  1
  Sc  Sc98  1  0.29728714  0.29709134  0.89823547  1
  Sc  Sc99  1  0.30605064  0.30101891  0.30144498  1
  Nb  Nb100  1  0.90298253  0.29818411  0.50093366  1
  Nb  Nb101  1  0.49512465  0.89981934  0.49883246  1
  Nb  Nb102  1  0.31789564  0.29251865  0.69868963  1
  Nb  Nb103  1  0.49416391  0.89399197  0.89143479  1
  Nb  Nb104  1  0.09455580  0.89969106  0.29920983  1
  Nb  Nb105  1  0.70912304  0.50200771  0.50479833  1
  Nb  Nb106  1  0.90230089  0.90046359  0.30109092  1
  Nb  Nb107  1  0.49924755  0.28793823  0.30688857  1
  Nb  Nb108  1  0.49452890  0.10484966  0.29316667  1
  Nb  Nb109  1  0.69401041  0.49741283  0.89650158  1
  Nb  Nb110  1  0.90058599  0.90364798  0.50200230  1
  Nb  Nb111  1  0.50894182  0.49233570  0.90667065  1
  Nb  Nb112  1  0.89545586  0.49663834  0.49862461  1
  Nb  Nb113  1  0.30312894  0.90429549  0.50248425  1
  Nb  Nb114  1  0.09842669  0.50521849  0.70587015  1
  Nb  Nb115  1  0.49445886  0.49965013  0.08982329  1
  Nb  Nb116  1  0.69676435  0.30288864  0.69955961  1
  Nb  Nb117  1  0.30253632  0.69216633  0.10029378  1
  Nb  Nb118  1  0.31166230  0.50295397  0.10407303  1
  Nb  Nb119  1  0.10023747  0.70101075  0.50319617  1
  Nb  Nb120  1  0.50699961  0.90165244  0.70306627  1
  Nb  Nb121  1  0.49922559  0.29643818  0.70251990  1
  Nb  Nb122  1  0.69891628  0.90067854  0.70072013  1
  Nb  Nb123  1  0.90080621  0.10398865  0.50234978  1
  Nb  Nb124  1  0.49545431  0.09964343  0.10235322  1
  Nb  Nb125  1  0.80270559  0.59540707  0.80161963  1
  Nb  Nb126  1  0.59728567  0.80652374  0.60277585  1
  Nb  Nb127  1  0.40797608  0.39465358  0.79939603  1
  Nb  Nb128  1  0.39839279  0.60128509  0.39681864  1
  Nb  Nb129  1  0.20621269  0.20472488  0.59982931  1
  Nb  Nb130  1  0.80435287  0.20004784  0.40532644  1
  Nb  Nb131  1  0.60085328  0.39812782  0.60540532  1
  Nb  Nb132  1  -0.00497210  0.39941814  0.20135686  1
  Nb  Nb133  1  0.20146994  0.60537840  0.40348443  1
  Nb  Nb134  1  0.80318587  -0.00248965  0.20474299  1
  Nb  Nb135  1  0.80582503  -0.00014565  0.39832776  1
  Nb  Nb136  1  0.40363944  0.19935087  0.00428954  1
  Nb  Nb137  1  0.19212717  -0.00399557  0.20370298  1
  Nb  Nb138  1  -0.00367946  0.59541198  0.79587187  1
  Nb  Nb139  1  0.80241723  0.81045158  0.40379308  1
  Nb  Nb140  1  0.40785844  -0.00368916  0.79989591  1
  Nb  Nb141  1  -0.00274868  -0.00570338  0.40181831  1
  Nb  Nb142  1  0.80219607  0.39978105  0.40768510  1
  Nb  Nb143  1  0.40255279  0.81045477  0.60011216  1
  Nb  Nb144  1  0.79228151  0.40318528  0.79854503  1
  Nb  Nb145  1  0.58889048  0.19923849  0.19865343  1
  Nb  Nb146  1  0.59722829  0.59628506  0.40110822  1
  Nb  Nb147  1  0.79644184  0.80904913  0.59497770  1
  Nb  Nb148  1  0.20282390  0.20158790  0.41098768  1
  Nb  Nb149  1  0.21080519  0.60084611  0.00739513  1
  Pd  Pd150  1  0.79160777  0.59854683  0.00091228  1
  Pd  Pd151  1  0.80110239  0.80233676  0.00700258  1
  Pd  Pd152  1  0.79627675  0.20427218  0.79869260  1
  Pd  Pd153  1  0.79487185  0.59946385  0.19368919  1
  Pd  Pd154  1  -0.00080069  0.00159923  0.20104354  1
  Pd  Pd155  1  0.38866732  0.79520821  0.40101707  1
  Pd  Pd156  1  0.00511289  0.39976066  0.00836258  1
  Pd  Pd157  1  0.20674618  0.79139907  0.39605161  1
  Pd  Pd158  1  0.58883929  0.59820484  0.59107464  1
  Pd  Pd159  1  0.20519199  0.80816350  0.19965729  1
  Pd  Pd160  1  0.20586411  0.40760753  0.00055177  1
  Pd  Pd161  1  0.60493512  0.60393904  0.80451705  1
  Pd  Pd162  1  0.19258685  0.39882519  0.20347153  1
  Pd  Pd163  1  0.38881706  -0.00402879  0.20467271  1
  Pd  Pd164  1  0.19792106  0.20317277  0.79560261  1
  Pd  Pd165  1  0.00492360  -0.00584244  0.59789269  1
  Pd  Pd166  1  0.39767711  0.59289295  -0.00897286  1
  Pd  Pd167  1  0.20232757  0.80182141  0.79778910  1
  Pd  Pd168  1  0.01445380  0.59733457  -0.00862927  1
  Pd  Pd169  1  0.59356266  -0.00614101  -0.01052558  1
  Pd  Pd170  1  0.41028378  0.39290152  0.20369954  1
  Pd  Pd171  1  0.40427423  -0.00442836  0.60977316  1
  Pd  Pd172  1  0.80885070  -0.00245673  0.00975992  1
  Pd  Pd173  1  0.60844982  0.19429902  0.80197644  1
  Pd  Pd174  1  0.59014621  0.80156384  0.00231326  1
  Pd  Pd175  1  0.59854972  0.00160039  0.39063767  1
  Pd  Pd176  1  0.80448479  0.80347394  0.20242280  1
  Pd  Pd177  1  0.19408280  0.59649430  0.20225231  1
  Pd  Pd178  1  0.40134873  0.60255466  0.59490855  1
  Pd  Pd179  1  0.20140044  0.79411304  -0.00148780  1
  Pd  Pd180  1  0.59585129  0.20434899  0.59819593  1
  Pd  Pd181  1  0.00583579  0.59106552  0.20112735  1
  Pd  Pd182  1  0.00434858  0.79372977  0.80906384  1
  Pd  Pd183  1  0.79752593  -0.00350149  0.60026758  1
  Pd  Pd184  1  0.59907444  0.00740037  0.80175847  1
  Pd  Pd185  1  0.00606620  0.20973905  0.19185545  1
  Pd  Pd186  1  0.20948682  0.39373775  0.79195152  1
  Pd  Pd187  1  0.20745654  0.19757025  0.00054805  1
  Pd  Pd188  1  0.19958543  0.39350406  0.61266995  1
  Pd  Pd189  1  0.19774976  0.59779874  0.59945828  1
  Pd  Pd190  1  0.60320133  0.79497197  0.79725276  1
  Pd  Pd191  1  -0.01241833  0.40425114  0.79281332  1
  Pd  Pd192  1  0.20184115  0.19470787  0.20602533  1
  Pd  Pd193  1  -0.00176085  0.39622050  0.60786457  1
  Pd  Pd194  1  0.00419898  0.79887445  -0.00970301  1
  Pd  Pd195  1  0.78859799  0.19160254  0.20198667  1
  Pd  Pd196  1  0.60177276  0.40934671  0.40800834  1
  Pd  Pd197  1  0.59560024  0.39437513  0.19397533  1
  Pd  Pd198  1  -0.00554938  0.80155104  0.40685483  1
  Pd  Pd199  1  0.40605852  0.80091221  0.00580744  1
  Rh  Rh200  1  0.81160771  0.61189579  0.60174949  1
  Rh  Rh201  1  0.40959238  0.39999587  0.61211353  1
  Rh  Rh202  1  -0.00187633  0.00354474  0.80156199  1
  Rh  Rh203  1  0.40540692  0.20838827  0.19057506  1
  Rh  Rh204  1  0.39356804  0.19455938  0.40550623  1
  Rh  Rh205  1  0.18918546  0.01010563  0.39242163  1
  Rh  Rh206  1  0.79178289  0.40118224  -0.00819195  1
  Rh  Rh207  1  0.60650515  0.39994230  0.00366579  1
  Rh  Rh208  1  0.40114873  0.58706543  0.80740153  1
  Rh  Rh209  1  0.39429356  0.39691882  -0.00966117  1
  Rh  Rh210  1  0.59006908  0.80133612  0.18673675  1
  Rh  Rh211  1  0.79140390  0.59913816  0.39925050  1
  Rh  Rh212  1  0.59452904  0.59703798  0.19945980  1
  Rh  Rh213  1  -0.00131449  0.60033929  0.60338632  1
  Rh  Rh214  1  0.39089531  0.81142242  0.78996429  1
  Rh  Rh215  1  0.40657330  0.00165230  0.39322313  1
  Rh  Rh216  1  0.79609915  0.39011254  0.59884324  1
  Rh  Rh217  1  0.61415031  0.79334753  0.41099304  1
  Rh  Rh218  1  -0.00833533  0.40372749  0.39533496  1
  Rh  Rh219  1  -0.00570220  0.79609341  0.20156227  1
  Rh  Rh220  1  0.80596302  0.40853470  0.20723603  1
  Rh  Rh221  1  0.40237535  0.19773835  0.81536580  1
  Rh  Rh222  1  0.59509274  0.20291149  0.00984229  1
  Rh  Rh223  1  0.40772553  0.59700619  0.20280485  1
  Rh  Rh224  1  0.60182980  0.00547629  0.20499703  1
  Rh  Rh225  1  0.80079581  0.00414093  0.79240993  1
  Rh  Rh226  1  0.00988892  0.60051947  0.40492836  1
  Rh  Rh227  1  0.79741548  0.79642566  0.79409613  1
  Rh  Rh228  1  -0.00162285  0.80352843  0.59203057  1
  Rh  Rh229  1  0.20236318  0.39771435  0.39581034  1
  Rh  Rh230  1  0.19436838  0.59656837  0.80446305  1
  Rh  Rh231  1  0.60092840  0.39662478  0.79579876  1
  Rh  Rh232  1  0.20357212  0.00049124  0.80136435  1
  Rh  Rh233  1  0.39963171  0.19594672  0.58875064  1
  Rh  Rh234  1  0.60170832  0.19296910  0.39472385  1
  Rh  Rh235  1  0.00028683  0.20481659  -0.00141827  1
  Rh  Rh236  1  0.20600520  0.80134549  0.60640387  1
  Rh  Rh237  1  0.40372623  0.00612781  -0.01132235  1
  Rh  Rh238  1  0.00253065  0.19628857  0.40666613  1
  Rh  Rh239  1  0.80046236  0.20295152  0.59833123  1
  Rh  Rh240  1  0.59441602  -0.00114748  0.60303295  1
  Rh  Rh241  1  0.00668509  0.20538795  0.60320297  1
  Rh  Rh242  1  0.39950175  0.80563977  0.19370351  1
  Rh  Rh243  1  0.20131706  0.00141583  0.00769267  1
  Rh  Rh244  1  -0.00452168  0.00026248  -0.00597888  1
  Rh  Rh245  1  0.80005967  0.19898361  0.00008897  1
  Rh  Rh246  1  0.40553552  0.40514932  0.39006852  1
  Rh  Rh247  1  -0.00034420  0.19922914  0.79918993  1
  Rh  Rh248  1  0.19472572  0.00382252  0.60633405  1
  Rh  Rh249  1  0.59846793  0.59756648  0.00133189  1
