# generated using pymatgen
data_ZrScNbPdRh
_symmetry_space_group_name_H-M   'P 1'
_cell_length_a   16.56142308
_cell_length_b   16.55453403
_cell_length_c   16.55856476
_cell_angle_alpha   89.98419875
_cell_angle_beta   90.02905188
_cell_angle_gamma   89.95175107
_symmetry_Int_Tables_number   1
_chemical_formula_structural   ZrScNbPdRh
_chemical_formula_sum   'Zr50 Sc50 Nb50 Pd50 Rh50'
_cell_volume   4539.80372962
_cell_formula_units_Z   50
loop_
 _symmetry_equiv_pos_site_id
 _symmetry_equiv_pos_as_xyz
  1  'x, y, z'
loop_
 _atom_site_type_symbol
 _atom_site_label
 _atom_site_symmetry_multiplicity
 _atom_site_fract_x
 _atom_site_fract_y
 _atom_site_fract_z
 _atom_site_occupancy
  Zr  Zr0  1  0.90290869  0.89852520  0.30526722  1
  Zr  Zr1  1  0.09989271  0.70483517  0.30661738  1
  Zr  Zr2  1  0.70066909  0.30036096  0.29839269  1
  Zr  Zr3  1  0.89733544  0.30088559  0.69706435  1
  Zr  Zr4  1  0.69036192  0.30043745  0.69998285  1
  Zr  Zr5  1  0.10529132  0.30327822  0.30373811  1
  Zr  Zr6  1  0.70450076  0.10199433  0.50087169  1
  Zr  Zr7  1  0.30504775  0.90339761  0.09885590  1
  Zr  Zr8  1  0.09747718  0.68934479  0.10594219  1
  Zr  Zr9  1  0.70360529  0.90661169  0.30658703  1
  Zr  Zr10  1  0.30348575  0.29801102  0.30016313  1
  Zr  Zr11  1  0.09937904  0.09616678  0.89553647  1
  Zr  Zr12  1  0.89886185  0.29663346  0.50469564  1
  Zr  Zr13  1  0.70143466  0.90481119  0.69896428  1
  Zr  Zr14  1  0.50962307  0.89783841  0.50678497  1
  Zr  Zr15  1  0.30789751  0.09962123  0.09460230  1
  Zr  Zr16  1  0.69908808  0.50504130  0.50210799  1
  Zr  Zr17  1  0.29190991  0.49965946  0.09041412  1
  Zr  Zr18  1  0.90742394  0.49682226  0.10396053  1
  Zr  Zr19  1  0.70580977  0.49113507  0.30335057  1
  Zr  Zr20  1  0.49860560  0.90964155  0.70179665  1
  Zr  Zr21  1  0.70320659  0.29892428  0.49176682  1
  Zr  Zr22  1  0.50162745  0.09246086  0.30287861  1
  Zr  Zr23  1  0.50286949  0.69793906  0.90434570  1
  Zr  Zr24  1  0.90459106  0.69735855  0.08512134  1
  Zr  Zr25  1  0.51108620  0.10526187  0.70037963  1
  Zr  Zr26  1  0.29161587  0.90649394  0.89784457  1
  Zr  Zr27  1  0.69926869  0.89614379  0.09595974  1
  Zr  Zr28  1  0.08687921  0.30547255  0.10635011  1
  Zr  Zr29  1  0.50297639  0.90343886  0.29571648  1
  Zr  Zr30  1  0.49434074  0.50084857  0.50200479  1
  Zr  Zr31  1  0.28933343  0.10682583  0.90248943  1
  Zr  Zr32  1  0.30260546  0.69847998  0.30431157  1
  Zr  Zr33  1  0.30672603  0.50267018  0.50472614  1
  Zr  Zr34  1  0.69675718  0.49862531  0.69807117  1
  Zr  Zr35  1  0.49925504  0.10122961  0.50647336  1
  Zr  Zr36  1  0.70200971  0.09854361  0.09610879  1
  Zr  Zr37  1  0.30014513  0.70033787  0.10424534  1
  Zr  Zr38  1  0.10286741  0.88821277  0.09071545  1
  Zr  Zr39  1  0.11660787  0.49580727  0.89894006  1
  Zr  Zr40  1  0.09361226  0.09495533  0.70047690  1
  Zr  Zr41  1  0.89379603  0.30534577  0.29809025  1
  Zr  Zr42  1  0.90037804  0.09796862  0.69220092  1
  Zr  Zr43  1  0.09939085  0.09480886  0.50606096  1
  Zr  Zr44  1  0.30115923  0.89559570  0.29846052  1
  Zr  Zr45  1  0.49879671  0.29599934  0.09905720  1
  Zr  Zr46  1  0.30618025  0.10014058  0.30488940  1
  Zr  Zr47  1  0.69348842  0.50289740  0.10214428  1
  Zr  Zr48  1  0.49682065  0.49310688  0.69343500  1
  Zr  Zr49  1  0.29673995  0.89789577  0.70120874  1
  Sc  Sc50  1  0.91069619  0.69549029  0.31137056  1
  Sc  Sc51  1  0.09630778  0.71274320  0.90873392  1
  Sc  Sc52  1  0.89625359  0.09558957  0.29835785  1
  Sc  Sc53  1  0.29936460  0.70365788  0.50491770  1
  Sc  Sc54  1  0.70660457  0.29971121  0.09697191  1
  Sc  Sc55  1  0.89049973  0.50704423  0.69984800  1
  Sc  Sc56  1  0.90794023  0.89314758  0.10604847  1
  Sc  Sc57  1  0.69845764  0.09992786  0.89761118  1
  Sc  Sc58  1  0.30663947  0.29838931  0.09394391  1
  Sc  Sc59  1  0.48727024  0.70311559  0.69616395  1
  Sc  Sc60  1  0.90519735  0.11134177  0.10076973  1
  Sc  Sc61  1  0.50553030  0.09841165  0.89950713  1
  Sc  Sc62  1  0.10356846  0.29332242  0.90002202  1
  Sc  Sc63  1  0.09144656  0.89125253  0.30003445  1
  Sc  Sc64  1  0.89915158  0.88668113  0.88885039  1
  Sc  Sc65  1  0.70654485  0.70241403  0.91605242  1
  Sc  Sc66  1  0.90039219  0.51447953  0.50043316  1
  Sc  Sc67  1  0.30645944  0.09461903  0.69436622  1
  Sc  Sc68  1  0.70304771  0.89487509  0.89884988  1
  Sc  Sc69  1  0.08979173  0.10000803  0.29724352  1
  Sc  Sc70  1  0.30435885  0.30143644  0.48558149  1
  Sc  Sc71  1  0.30819227  0.30060958  0.71423886  1
  Sc  Sc72  1  0.70074241  0.30103587  0.90096519  1
  Sc  Sc73  1  0.09741016  0.70693308  0.69031556  1
  Sc  Sc74  1  0.50900168  0.68996909  0.10095179  1
  Sc  Sc75  1  0.49849774  0.30300604  0.30109109  1
  Sc  Sc76  1  0.90345056  0.70122300  0.50661151  1
  Sc  Sc77  1  0.50037935  0.30051126  0.50599844  1
  Sc  Sc78  1  0.29714432  0.90048600  0.50759198  1
  Sc  Sc79  1  0.70586075  0.70538030  0.50434746  1
  Sc  Sc80  1  0.09648610  0.50126447  0.28683584  1
  Sc  Sc81  1  0.69993969  0.69871090  0.30965283  1
  Sc  Sc82  1  0.30510757  0.10089347  0.50082211  1
  Sc  Sc83  1  0.29858403  0.70018521  0.88776889  1
  Sc  Sc84  1  0.09555466  0.10765035  0.09376053  1
  Sc  Sc85  1  0.90326369  0.10447323  0.89686791  1
  Sc  Sc86  1  0.71023335  0.70078487  0.69585506  1
  Sc  Sc87  1  0.70309523  0.49836718  0.89992718  1
  Sc  Sc88  1  0.09012704  0.29857463  0.69996740  1
  Sc  Sc89  1  0.89669578  0.09761866  0.50350160  1
  Sc  Sc90  1  0.50130640  0.49796336  0.29025074  1
  Sc  Sc91  1  0.30665090  0.49564220  0.30378575  1
  Sc  Sc92  1  0.89879635  0.89694621  0.69867760  1
  Sc  Sc93  1  0.88785644  0.50092389  0.90712669  1
  Sc  Sc94  1  0.49148001  0.69665904  0.50694334  1
  Sc  Sc95  1  0.89206282  0.30476027  0.90821213  1
  Sc  Sc96  1  0.29662913  0.70115649  0.69729274  1
  Sc  Sc97  1  0.89849084  0.30079848  0.09662390  1
  Sc  Sc98  1  0.09507781  0.89277499  0.50357657  1
  Sc  Sc99  1  0.10046618  0.50848475  0.69750066  1
  Nb  Nb100  1  0.50212627  0.89577191  0.90075880  1
  Nb  Nb101  1  0.50288909  0.90603668  0.09830802  1
  Nb  Nb102  1  0.10454582  0.90746641  0.89252427  1
  Nb  Nb103  1  0.30061673  0.31036440  0.89660025  1
  Nb  Nb104  1  0.50592644  0.29513890  0.70608594  1
  Nb  Nb105  1  0.09925748  0.30434069  0.50279227  1
  Nb  Nb106  1  0.89709412  0.50080822  0.30371653  1
  Nb  Nb107  1  0.70263239  0.70135183  0.10115342  1
  Nb  Nb108  1  0.29196561  0.49704681  0.71111908  1
  Nb  Nb109  1  0.50286635  0.49906265  0.09402873  1
  Nb  Nb110  1  0.50544012  0.09088354  0.10165138  1
  Nb  Nb111  1  0.69833959  0.10002768  0.70172520  1
  Nb  Nb112  1  0.70949763  0.89790665  0.50387003  1
  Nb  Nb113  1  0.69924455  0.09941401  0.29815882  1
  Nb  Nb114  1  0.89683083  0.69941614  0.89641368  1
  Nb  Nb115  1  0.30090993  0.48731566  0.88810403  1
  Nb  Nb116  1  0.09796291  0.50254729  0.10052010  1
  Nb  Nb117  1  0.49740416  0.50262745  0.89981071  1
  Nb  Nb118  1  0.90007831  0.70153920  0.70746877  1
  Nb  Nb119  1  0.88839825  0.90383738  0.49971767  1
  Nb  Nb120  1  0.49300964  0.30337726  0.88893072  1
  Nb  Nb121  1  0.09666181  0.50395485  0.50394758  1
  Nb  Nb122  1  0.09466281  0.69245538  0.49524046  1
  Nb  Nb123  1  0.49750030  0.69774245  0.30270178  1
  Nb  Nb124  1  0.10121943  0.90928037  0.70532518  1
  Nb  Nb125  1  0.60240863  0.79920517  0.20036106  1
  Nb  Nb126  1  -0.00233198  0.40949994  0.80214553  1
  Nb  Nb127  1  0.20068669  0.00233692  0.20021430  1
  Nb  Nb128  1  0.58837450  0.40168340  -0.00344340  1
  Nb  Nb129  1  0.19835592  -0.00269933  0.39472657  1
  Nb  Nb130  1  0.19992915  0.39873038  0.59917944  1
  Nb  Nb131  1  0.40555822  0.80142517  0.00035192  1
  Nb  Nb132  1  0.79524118  0.40054135  0.59804008  1
  Nb  Nb133  1  0.79623628  0.19865269  0.79179569  1
  Nb  Nb134  1  0.00173382  0.40280812  0.40457036  1
  Nb  Nb135  1  0.00113004  -0.00636076  -0.00782904  1
  Nb  Nb136  1  0.20293372  0.19769522  0.20148271  1
  Nb  Nb137  1  0.79767811  0.79148114  0.20026204  1
  Nb  Nb138  1  0.19731889  0.20818260  0.59687978  1
  Nb  Nb139  1  0.40538345  0.80059547  0.39707319  1
  Nb  Nb140  1  0.60090545  0.19014336  0.19875426  1
  Nb  Nb141  1  0.80882674  -0.00253633  0.00070258  1
  Nb  Nb142  1  0.19435304  0.59922126  0.40605952  1
  Nb  Nb143  1  -0.00519265  0.60437714  0.80486968  1
  Nb  Nb144  1  0.39840281  0.59390972  -0.00524854  1
  Nb  Nb145  1  0.59508182  0.60028714  0.40127673  1
  Nb  Nb146  1  0.00072933  0.20763142  0.40446219  1
  Nb  Nb147  1  0.59706887  0.79667942  0.80105208  1
  Nb  Nb148  1  0.80224633  0.60355088  0.20051404  1
  Nb  Nb149  1  0.59719952  0.60270957  0.80051609  1
  Pd  Pd150  1  0.40201562  0.40215355  -0.00322929  1
  Pd  Pd151  1  0.39877092  0.59222783  0.19321677  1
  Pd  Pd152  1  -0.00950328  0.21108918  0.80640147  1
  Pd  Pd153  1  0.19353683  0.19011698  0.40176624  1
  Pd  Pd154  1  0.40483488  0.19436793  0.20186523  1
  Pd  Pd155  1  0.00168317  0.00171068  0.40511639  1
  Pd  Pd156  1  0.19612764  0.80333423  0.20115483  1
  Pd  Pd157  1  0.20116406  0.20076460  0.78778115  1
  Pd  Pd158  1  0.60142736  0.79364863  0.60960389  1
  Pd  Pd159  1  0.19610295  0.41378964  0.40593441  1
  Pd  Pd160  1  0.40225706  0.80280547  0.80373961  1
  Pd  Pd161  1  0.00299780  0.40464975  -0.00986215  1
  Pd  Pd162  1  0.40627916  0.19829817  -0.01211887  1
  Pd  Pd163  1  0.80468447  -0.00574893  0.19226057  1
  Pd  Pd164  1  0.19450003  0.80152441  0.59793895  1
  Pd  Pd165  1  0.20645972  0.60657459  -0.01001691  1
  Pd  Pd166  1  0.20611411  0.39574614  0.19319375  1
  Pd  Pd167  1  0.39079789  0.39034067  0.60674500  1
  Pd  Pd168  1  0.19775702  0.20920651  0.00743790  1
  Pd  Pd169  1  0.20487940  0.59541103  0.21023126  1
  Pd  Pd170  1  0.59216055  0.40605414  0.40218565  1
  Pd  Pd171  1  0.20326568  0.59806953  0.59822212  1
  Pd  Pd172  1  0.00755441  0.79827952  0.79821374  1
  Pd  Pd173  1  0.21027596  0.79420008  -0.00479966  1
  Pd  Pd174  1  -0.00410261  0.41252275  0.60383428  1
  Pd  Pd175  1  0.39635416  -0.01010748  0.41074204  1
  Pd  Pd176  1  0.80614106  0.79281318  0.39784389  1
  Pd  Pd177  1  0.39891051  0.00787527  0.80636284  1
  Pd  Pd178  1  0.60564044  0.00031271  0.40977030  1
  Pd  Pd179  1  0.59754343  0.40637597  0.80720263  1
  Pd  Pd180  1  0.39836826  0.40491891  0.19609899  1
  Pd  Pd181  1  0.39891578  0.19194927  0.80549196  1
  Pd  Pd182  1  0.41358314  0.79714597  0.19480414  1
  Pd  Pd183  1  -0.00429571  0.80362186  0.59903170  1
  Pd  Pd184  1  0.80487236  0.00512588  0.80588885  1
  Pd  Pd185  1  0.59536464  0.79270325  0.39988614  1
  Pd  Pd186  1  0.39174914  0.20931094  0.60117058  1
  Pd  Pd187  1  0.79697246  0.19889644  0.20020971  1
  Pd  Pd188  1  0.59761527  0.61121468  0.60257790  1
  Pd  Pd189  1  0.59598842  0.19970329  0.39491359  1
  Pd  Pd190  1  0.40168602  0.59572893  0.79720628  1
  Pd  Pd191  1  0.60637769  0.60503870  0.21041293  1
  Pd  Pd192  1  0.40430746  -0.00161489  -0.00987511  1
  Pd  Pd193  1  0.18715697  0.61357640  0.80014455  1
  Pd  Pd194  1  0.00440730  0.59043102  -0.01182236  1
  Pd  Pd195  1  0.59713085  0.20675886  -0.00180802  1
  Pd  Pd196  1  0.00701043  0.00022407  0.18759718  1
  Pd  Pd197  1  0.19566924  0.38924027  0.00504037  1
  Pd  Pd198  1  0.60760921  -0.00370928  -0.00806655  1
  Pd  Pd199  1  0.79367814  0.60514979  0.80385352  1
  Rh  Rh200  1  0.39843939  0.80667537  0.59591972  1
  Rh  Rh201  1  0.79849162  0.59649900  0.00758308  1
  Rh  Rh202  1  0.60236932  0.39259177  0.59495609  1
  Rh  Rh203  1  0.40577905  0.40253647  0.79397907  1
  Rh  Rh204  1  -0.00644628  0.60271225  0.20286011  1
  Rh  Rh205  1  0.80690542  0.80244299  0.60182034  1
  Rh  Rh206  1  0.40304425  -0.00129104  0.59917386  1
  Rh  Rh207  1  0.19294786  0.80053983  0.79410944  1
  Rh  Rh208  1  -0.00722319  0.80490179  0.41189132  1
  Rh  Rh209  1  0.60324475  0.20121797  0.59624909  1
  Rh  Rh210  1  0.79222689  0.60072883  0.39716419  1
  Rh  Rh211  1  0.00948965  0.59050777  0.39500303  1
  Rh  Rh212  1  0.20517725  0.79717150  0.40652286  1
  Rh  Rh213  1  -0.00589347  -0.00724449  0.80141766  1
  Rh  Rh214  1  0.40089972  0.60563641  0.40081819  1
  Rh  Rh215  1  -0.00577670  -0.01085007  0.59913324  1
  Rh  Rh216  1  0.79752575  -0.00092960  0.60094905  1
  Rh  Rh217  1  -0.00595341  0.78885686  0.20087502  1
  Rh  Rh218  1  0.80998233  0.80680985  0.00524983  1
  Rh  Rh219  1  0.60428714  0.20146747  0.80623138  1
  Rh  Rh220  1  0.18963369  0.39143166  0.78994267  1
  Rh  Rh221  1  0.60792686  0.00295608  0.59635158  1
  Rh  Rh222  1  -0.00461651  0.40066588  0.20671895  1
  Rh  Rh223  1  0.41078141  0.20136086  0.40151285  1
  Rh  Rh224  1  0.80177381  0.19145499  -0.00967929  1
  Rh  Rh225  1  0.80722896  0.19125287  0.39290150  1
  Rh  Rh226  1  0.78971726  0.20361288  0.60749078  1
  Rh  Rh227  1  -0.00369946  0.80846917  -0.00949654  1
  Rh  Rh228  1  0.20556294  0.00725070  0.79078718  1
  Rh  Rh229  1  0.78896536  0.79375202  0.79903414  1
  Rh  Rh230  1  0.59951038  0.38722199  0.18945776  1
  Rh  Rh231  1  0.80270192  0.40666489  0.19351323  1
  Rh  Rh232  1  0.60185779  0.59083890  -0.00789284  1
  Rh  Rh233  1  0.19894972  0.00265984  0.59885313  1
  Rh  Rh234  1  0.39699784  0.00418223  0.19680221  1
  Rh  Rh235  1  0.00650774  0.19468385  0.59423720  1
  Rh  Rh236  1  0.59252093  0.80318706  0.00404484  1
  Rh  Rh237  1  0.80462282  0.60139741  0.59987013  1
  Rh  Rh238  1  0.40665229  0.40037146  0.39755082  1
  Rh  Rh239  1  0.81093621  0.40745737  0.41271808  1
  Rh  Rh240  1  0.79997547  0.00552629  0.40175525  1
  Rh  Rh241  1  0.60158870  -0.00794742  0.80296351  1
  Rh  Rh242  1  -0.00204610  0.19804670  -0.00631790  1
  Rh  Rh243  1  0.18916825  0.00244727  0.00947400  1
  Rh  Rh244  1  0.80561385  0.39224920  0.79398123  1
  Rh  Rh245  1  0.00169083  0.20714965  0.21011625  1
  Rh  Rh246  1  -0.00365452  0.60497179  0.61073573  1
  Rh  Rh247  1  0.60570627  -0.00031893  0.19845338  1
  Rh  Rh248  1  0.78914288  0.40477508  0.00722289  1
  Rh  Rh249  1  0.39078219  0.59767434  0.61114551  1
