# generated using pymatgen
data_ZrScNbPdRh
_symmetry_space_group_name_H-M   'P 1'
_cell_length_a   16.55699966
_cell_length_b   16.56007441
_cell_length_c   16.55918138
_cell_angle_alpha   89.98896153
_cell_angle_beta   89.99135867
_cell_angle_gamma   90.02047139
_symmetry_Int_Tables_number   1
_chemical_formula_structural   ZrScNbPdRh
_chemical_formula_sum   'Zr50 Sc50 Nb50 Pd50 Rh50'
_cell_volume   4540.28114645
_cell_formula_units_Z   50
loop_
 _symmetry_equiv_pos_site_id
 _symmetry_equiv_pos_as_xyz
  1  'x, y, z'
loop_
 _atom_site_type_symbol
 _atom_site_label
 _atom_site_symmetry_multiplicity
 _atom_site_fract_x
 _atom_site_fract_y
 _atom_site_fract_z
 _atom_site_occupancy
  Zr  Zr0  1  0.10420342  0.09575875  0.49381962  1
  Zr  Zr1  1  0.10211009  0.30252325  0.90612867  1
  Zr  Zr2  1  0.11054372  0.89746404  0.49151900  1
  Zr  Zr3  1  0.49774456  0.50484091  0.50294579  1
  Zr  Zr4  1  0.69961673  0.90457600  0.50211072  1
  Zr  Zr5  1  0.90367164  0.50640695  0.09856010  1
  Zr  Zr6  1  0.69188259  0.89996327  0.10129976  1
  Zr  Zr7  1  0.50145539  0.49886359  0.10189306  1
  Zr  Zr8  1  0.49223023  0.11023309  0.89854189  1
  Zr  Zr9  1  0.69874206  0.50527590  0.50630011  1
  Zr  Zr10  1  0.30230205  0.09340200  0.89756011  1
  Zr  Zr11  1  0.89310300  0.30632849  0.29503365  1
  Zr  Zr12  1  0.49693819  0.90453254  0.09963114  1
  Zr  Zr13  1  0.10604203  0.88974065  0.10005381  1
  Zr  Zr14  1  0.90538581  0.31474110  0.09392518  1
  Zr  Zr15  1  0.90106524  0.69328669  0.90622144  1
  Zr  Zr16  1  0.90683187  0.10659441  0.49843464  1
  Zr  Zr17  1  0.50094559  0.50680877  0.90311827  1
  Zr  Zr18  1  0.10152863  0.50510392  0.30657093  1
  Zr  Zr19  1  0.70481476  0.10296417  0.49410084  1
  Zr  Zr20  1  0.30117709  0.89696015  0.09743741  1
  Zr  Zr21  1  0.30158091  0.69627150  0.89502767  1
  Zr  Zr22  1  0.49928810  0.89598295  0.70325731  1
  Zr  Zr23  1  0.10639318  0.30167920  0.70435036  1
  Zr  Zr24  1  0.49545096  0.29577539  0.49819223  1
  Zr  Zr25  1  0.30453685  0.50725367  0.89666723  1
  Zr  Zr26  1  0.49710714  0.90370270  0.29366202  1
  Zr  Zr27  1  0.69862246  0.89291311  0.69641754  1
  Zr  Zr28  1  0.89698880  0.10326246  0.10060632  1
  Zr  Zr29  1  0.69334168  0.90666155  0.30189260  1
  Zr  Zr30  1  0.09806250  0.89810775  0.30214681  1
  Zr  Zr31  1  0.90409430  0.69499561  0.30016839  1
  Zr  Zr32  1  0.70639838  0.69993754  0.28899386  1
  Zr  Zr33  1  0.48490527  0.29822594  0.69887964  1
  Zr  Zr34  1  0.69512379  0.50716564  0.09995752  1
  Zr  Zr35  1  0.09489427  0.09785682  0.30719789  1
  Zr  Zr36  1  0.50259567  0.10603261  0.30130953  1
  Zr  Zr37  1  0.49628139  0.30536405  0.09947785  1
  Zr  Zr38  1  0.70787388  0.30065926  0.71163770  1
  Zr  Zr39  1  0.69738069  0.29182924  0.29892805  1
  Zr  Zr40  1  0.70456247  0.09959250  0.69844007  1
  Zr  Zr41  1  0.70344597  0.90306141  0.91007716  1
  Zr  Zr42  1  0.29013728  0.09239184  0.50488546  1
  Zr  Zr43  1  0.31294193  0.29591800  0.90035553  1
  Zr  Zr44  1  0.30329087  0.49973321  0.10999414  1
  Zr  Zr45  1  0.29200326  0.30296719  0.10330829  1
  Zr  Zr46  1  0.70392555  0.49546214  0.29798488  1
  Zr  Zr47  1  0.89981918  0.08836440  0.90981077  1
  Zr  Zr48  1  0.09355433  0.28878470  0.50563594  1
  Zr  Zr49  1  0.11015704  0.50960947  0.49951555  1
  Sc  Sc50  1  0.30184025  0.69526448  0.29994776  1
  Sc  Sc51  1  0.09549648  0.09524093  0.89798644  1
  Sc  Sc52  1  0.11327048  0.69977409  0.70113063  1
  Sc  Sc53  1  0.70571693  0.70177501  0.09883503  1
  Sc  Sc54  1  0.29516374  0.70089265  0.09907829  1
  Sc  Sc55  1  0.89480732  0.90877562  0.08769232  1
  Sc  Sc56  1  0.69340147  0.30594880  0.10623969  1
  Sc  Sc57  1  0.11297226  0.29688099  0.30191716  1
  Sc  Sc58  1  0.89886901  0.10026638  0.69927953  1
  Sc  Sc59  1  0.69150083  0.11073662  0.10084376  1
  Sc  Sc60  1  0.90762891  0.89352550  0.89617225  1
  Sc  Sc61  1  0.49784879  0.50909594  0.29567544  1
  Sc  Sc62  1  0.90307604  0.10374943  0.29980070  1
  Sc  Sc63  1  0.50258372  0.69785700  0.49708067  1
  Sc  Sc64  1  0.89722535  0.71243918  0.71006690  1
  Sc  Sc65  1  0.89838005  0.89869495  0.70010923  1
  Sc  Sc66  1  0.89759950  0.49070248  0.50311942  1
  Sc  Sc67  1  0.10422816  0.89827097  0.89823752  1
  Sc  Sc68  1  0.30596705  0.09428496  0.69656549  1
  Sc  Sc69  1  0.50201082  0.89087590  0.49269127  1
  Sc  Sc70  1  0.89039573  0.90154507  0.49506706  1
  Sc  Sc71  1  0.10856864  0.49398844  0.69982127  1
  Sc  Sc72  1  0.49720229  0.10015361  0.09776296  1
  Sc  Sc73  1  0.29782911  0.90691145  0.70467035  1
  Sc  Sc74  1  0.50176525  0.50374693  0.70226638  1
  Sc  Sc75  1  0.69541047  0.50547220  0.70779209  1
  Sc  Sc76  1  0.70399223  0.49672688  0.89749790  1
  Sc  Sc77  1  0.30265748  0.29116775  0.50849401  1
  Sc  Sc78  1  0.70233091  0.69594500  0.89645931  1
  Sc  Sc79  1  0.89601826  0.49104205  0.70477636  1
  Sc  Sc80  1  0.28730471  0.10880045  0.30802525  1
  Sc  Sc81  1  0.68843654  0.10903858  0.89825696  1
  Sc  Sc82  1  0.50445480  0.90433401  0.89545623  1
  Sc  Sc83  1  0.10978634  0.09527273  0.69745219  1
  Sc  Sc84  1  0.89914274  0.90042243  0.30268448  1
  Sc  Sc85  1  0.10813081  0.68630224  0.10499995  1
  Sc  Sc86  1  0.69175371  0.70787828  0.50184588  1
  Sc  Sc87  1  0.49592980  0.70241660  0.30456130  1
  Sc  Sc88  1  0.09464694  0.09947592  0.09180454  1
  Sc  Sc89  1  0.50745748  0.69237481  0.09451720  1
  Sc  Sc90  1  0.09970306  0.89771344  0.70874181  1
  Sc  Sc91  1  0.48734476  0.10734761  0.49911748  1
  Sc  Sc92  1  0.30328217  0.09657169  0.08989543  1
  Sc  Sc93  1  0.90049710  0.30993820  0.89349310  1
  Sc  Sc94  1  0.11064320  0.69823536  0.89836693  1
  Sc  Sc95  1  0.50185870  0.29880109  0.29937677  1
  Sc  Sc96  1  0.29647860  0.49043254  0.69609394  1
  Sc  Sc97  1  0.10743611  0.49886307  0.89890062  1
  Sc  Sc98  1  0.90609904  0.30050862  0.69694057  1
  Sc  Sc99  1  0.30256789  0.88352788  0.29388177  1
  Nb  Nb100  1  0.30260421  0.89968686  0.90371013  1
  Nb  Nb101  1  0.30582971  0.69759746  0.70366889  1
  Nb  Nb102  1  0.68882895  0.70071738  0.69409534  1
  Nb  Nb103  1  0.70009031  0.29995488  0.90296326  1
  Nb  Nb104  1  0.30330673  0.30394083  0.30095110  1
  Nb  Nb105  1  0.90282478  0.69548476  0.10215582  1
  Nb  Nb106  1  0.90745395  0.69723465  0.49475891  1
  Nb  Nb107  1  0.30218676  0.49571773  0.30872455  1
  Nb  Nb108  1  0.69464684  0.10483802  0.29243476  1
  Nb  Nb109  1  0.09490367  0.70247598  0.31420020  1
  Nb  Nb110  1  0.29852360  0.29840684  0.70240811  1
  Nb  Nb111  1  0.30084529  0.50823094  0.49656092  1
  Nb  Nb112  1  0.30004854  0.89568439  0.49693151  1
  Nb  Nb113  1  0.49949156  0.70122544  0.70430130  1
  Nb  Nb114  1  0.09663121  0.30783123  0.09805639  1
  Nb  Nb115  1  0.10008164  0.70038277  0.49403054  1
  Nb  Nb116  1  0.48616354  0.69584419  0.88633548  1
  Nb  Nb117  1  0.89861722  0.30146257  0.49540160  1
  Nb  Nb118  1  0.70571460  0.30377051  0.49798320  1
  Nb  Nb119  1  0.89482562  0.50362214  0.90613958  1
  Nb  Nb120  1  0.09489273  0.48238828  0.10216524  1
  Nb  Nb121  1  0.29095659  0.70054809  0.50357240  1
  Nb  Nb122  1  0.50142911  0.09592133  0.69884667  1
  Nb  Nb123  1  0.90248425  0.49878716  0.30173665  1
  Nb  Nb124  1  0.50464318  0.29792771  0.90172293  1
  Nb  Nb125  1  0.00170746  0.78939539  0.00730914  1
  Nb  Nb126  1  0.79770656  0.20914180  -0.00203087  1
  Nb  Nb127  1  0.39375400  0.79325975  0.60241136  1
  Nb  Nb128  1  0.60139250  0.39106782  0.59867968  1
  Nb  Nb129  1  0.39362186  -0.00432125  0.39865852  1
  Nb  Nb130  1  0.79524232  -0.00107100  0.80384407  1
  Nb  Nb131  1  -0.00256327  0.60623947  0.60180460  1
  Nb  Nb132  1  -0.00187966  0.79231531  0.19684389  1
  Nb  Nb133  1  0.20571275  0.20358656  0.80103314  1
  Nb  Nb134  1  0.60252269  0.20199498  0.60082655  1
  Nb  Nb135  1  0.60048311  0.39924809  0.40595939  1
  Nb  Nb136  1  0.00353559  0.21058511  0.19405398  1
  Nb  Nb137  1  0.39695956  0.40416541  0.40142104  1
  Nb  Nb138  1  0.40086175  0.79751710  -0.00984757  1
  Nb  Nb139  1  0.39168742  0.20534052  0.20153280  1
  Nb  Nb140  1  0.00377642  -0.00624989  0.59346638  1
  Nb  Nb141  1  -0.00143064  0.59852104  0.79817475  1
  Nb  Nb142  1  -0.00163889  0.39772296  0.40147790  1
  Nb  Nb143  1  0.80456073  0.59936496  0.40230616  1
  Nb  Nb144  1  0.00423447  0.79610771  0.59089589  1
  Nb  Nb145  1  0.80445194  0.60935483  0.59939249  1
  Nb  Nb146  1  0.39360180  0.60638438  0.60065916  1
  Nb  Nb147  1  0.59696693  0.00614182  0.60016166  1
  Nb  Nb148  1  0.79123978  0.00574735  0.20047225  1
  Nb  Nb149  1  0.19778123  -0.00233646  0.20012278  1
  Pd  Pd150  1  0.38489125  0.01383659  0.21132961  1
  Pd  Pd151  1  0.20032504  0.80461426  0.60593617  1
  Pd  Pd152  1  0.59053995  0.79132085  -0.00992832  1
  Pd  Pd153  1  0.19860580  0.59628583  0.20751656  1
  Pd  Pd154  1  0.40155394  0.60576061  0.19824391  1
  Pd  Pd155  1  0.39740690  0.40487435  -0.00069361  1
  Pd  Pd156  1  0.60399895  0.39968364  -0.00315834  1
  Pd  Pd157  1  0.80284064  0.00880484  0.38962674  1
  Pd  Pd158  1  -0.00192493  -0.00217454  0.19440579  1
  Pd  Pd159  1  0.60358514  0.60654264  -0.00968816  1
  Pd  Pd160  1  0.79719820  0.40570260  0.19030443  1
  Pd  Pd161  1  -0.00677149  0.20468162  -0.00045369  1
  Pd  Pd162  1  0.20569617  0.80367549  0.80060455  1
  Pd  Pd163  1  0.60202136  0.79726598  0.39297985  1
  Pd  Pd164  1  0.19656741  0.40471669  0.20606411  1
  Pd  Pd165  1  0.80728791  0.79406748  0.59456315  1
  Pd  Pd166  1  0.79663799  0.79271967  0.40164869  1
  Pd  Pd167  1  0.79541429  0.40339077  0.60659913  1
  Pd  Pd168  1  0.19910877  0.59010419  0.00599851  1
  Pd  Pd169  1  0.80400339  0.19747527  0.39523453  1
  Pd  Pd170  1  0.59408320  0.39711359  0.79735502  1
  Pd  Pd171  1  0.19610022  0.19130484  0.19093303  1
  Pd  Pd172  1  0.19913426  0.19660410  -0.00401724  1
  Pd  Pd173  1  -0.00440737  -0.00004906  0.79153729  1
  Pd  Pd174  1  0.40687099  -0.01069418  0.59108348  1
  Pd  Pd175  1  0.40410876  0.40611778  0.80061859  1
  Pd  Pd176  1  0.00563443  0.19666531  0.79827012  1
  Pd  Pd177  1  0.20841653  0.40621882  -0.00337063  1
  Pd  Pd178  1  0.81076131  0.19422988  0.81123335  1
  Pd  Pd179  1  0.00320390  0.19120659  0.61061344  1
  Pd  Pd180  1  0.80592569  0.79499740  0.00292416  1
  Pd  Pd181  1  0.20162502  0.39140267  0.41133691  1
  Pd  Pd182  1  0.19432353  0.00015655  0.00161818  1
  Pd  Pd183  1  0.00444260  0.40741987  0.59501092  1
  Pd  Pd184  1  0.40726335  0.78736346  0.18721685  1
  Pd  Pd185  1  0.00701846  0.59963729  0.20046822  1
  Pd  Pd186  1  0.80927038  0.81270853  0.19328055  1
  Pd  Pd187  1  0.79475135  0.80384051  0.80587013  1
  Pd  Pd188  1  0.59671009  0.01013287  -0.00014880  1
  Pd  Pd189  1  0.59399777  0.20521374  0.79294871  1
  Pd  Pd190  1  0.58882384  0.00807555  0.40920101  1
  Pd  Pd191  1  0.80128174  0.20682277  0.59970051  1
  Pd  Pd192  1  0.60697312  0.59905305  0.39188014  1
  Pd  Pd193  1  0.00138751  0.40867471  0.80443504  1
  Pd  Pd194  1  0.60428614  0.00089043  0.79761813  1
  Pd  Pd195  1  0.59266488  0.79377746  0.20053932  1
  Pd  Pd196  1  0.60342483  0.79431183  0.80873394  1
  Pd  Pd197  1  0.80338482  0.60112956  0.79082303  1
  Pd  Pd198  1  0.01301492  0.59773661  -0.00481886  1
  Pd  Pd199  1  0.20443471  0.39475391  0.59020356  1
  Rh  Rh200  1  0.80233720  -0.00350040  0.60754873  1
  Rh  Rh201  1  0.20691506  0.60850211  0.39440140  1
  Rh  Rh202  1  0.40163954  -0.00061231  0.80269571  1
  Rh  Rh203  1  0.20171930  0.60188594  0.60417205  1
  Rh  Rh204  1  0.20362811  0.79511328  -0.00571154  1
  Rh  Rh205  1  -0.00656994  -0.00480693  0.40945537  1
  Rh  Rh206  1  -0.00371063  0.80712574  0.39907345  1
  Rh  Rh207  1  0.40331905  0.39680621  0.21018306  1
  Rh  Rh208  1  0.59988527  0.60436771  0.20277997  1
  Rh  Rh209  1  0.80164790  0.40214988  0.80327012  1
  Rh  Rh210  1  0.80262497  0.59358774  0.20115910  1
  Rh  Rh211  1  0.58611690  0.20150629  0.19342787  1
  Rh  Rh212  1  0.60344028  0.00515519  0.19532539  1
  Rh  Rh213  1  0.40655502  -0.00825877  -0.00842965  1
  Rh  Rh214  1  0.00985488  0.39691768  0.21436174  1
  Rh  Rh215  1  0.00711944  0.78716093  0.80577038  1
  Rh  Rh216  1  0.60013182  0.20853344  0.00201123  1
  Rh  Rh217  1  0.20254224  0.00517019  0.80333116  1
  Rh  Rh218  1  0.20355070  0.19931528  0.60931519  1
  Rh  Rh219  1  0.20711550  0.79270226  0.39384653  1
  Rh  Rh220  1  0.80010613  0.40470776  0.39972662  1
  Rh  Rh221  1  0.20277015  0.20837489  0.40906667  1
  Rh  Rh222  1  0.79468306  0.39971922  -0.00014934  1
  Rh  Rh223  1  0.39559685  0.79885345  0.40760271  1
  Rh  Rh224  1  0.59723926  0.59974187  0.60693376  1
  Rh  Rh225  1  0.21295589  -0.01370358  0.38615001  1
  Rh  Rh226  1  -0.00661927  0.58633477  0.40919717  1
  Rh  Rh227  1  0.39479935  0.60206080  0.40612616  1
  Rh  Rh228  1  0.39756265  0.19272329  0.60672728  1
  Rh  Rh229  1  0.59963024  0.60461218  0.80310019  1
  Rh  Rh230  1  0.40184495  0.20410125  0.00990810  1
  Rh  Rh231  1  0.19353880  -0.01012703  0.60358150  1
  Rh  Rh232  1  0.60529506  0.20302721  0.40709033  1
  Rh  Rh233  1  0.19888273  0.59268786  0.79189398  1
  Rh  Rh234  1  0.39767216  0.59005278  0.78831612  1
  Rh  Rh235  1  0.00061801  0.40987541  -0.01093787  1
  Rh  Rh236  1  0.18952815  0.79613062  0.20928538  1
  Rh  Rh237  1  -0.00360256  0.21382661  0.38654849  1
  Rh  Rh238  1  0.39759842  0.60614641  0.00677565  1
  Rh  Rh239  1  0.80559966  0.19838241  0.19320845  1
  Rh  Rh240  1  0.59571340  0.40329963  0.20922077  1
  Rh  Rh241  1  0.39535513  0.19481868  0.79324719  1
  Rh  Rh242  1  0.58830063  0.80331503  0.59946825  1
  Rh  Rh243  1  0.39823269  0.40946145  0.59475414  1
  Rh  Rh244  1  0.00866474  -0.01555485  -0.00021610  1
  Rh  Rh245  1  0.39517361  0.80763654  0.80073987  1
  Rh  Rh246  1  0.39065841  0.19933886  0.39148465  1
  Rh  Rh247  1  0.79492914  0.59835636  0.00450966  1
  Rh  Rh248  1  0.78439904  0.01531980  0.00172433  1
  Rh  Rh249  1  0.20699538  0.39265040  0.80773821  1
