# generated using pymatgen
data_ZrScNbPdRh
_symmetry_space_group_name_H-M   'P 1'
_cell_length_a   16.55917322
_cell_length_b   16.56050194
_cell_length_c   16.56043428
_cell_angle_alpha   89.98840323
_cell_angle_beta   89.98860981
_cell_angle_gamma   90.02634473
_symmetry_Int_Tables_number   1
_chemical_formula_structural   ZrScNbPdRh
_chemical_formula_sum   'Zr50 Sc50 Nb50 Pd50 Rh50'
_cell_volume   4541.33775948
_cell_formula_units_Z   50
loop_
 _symmetry_equiv_pos_site_id
 _symmetry_equiv_pos_as_xyz
  1  'x, y, z'
loop_
 _atom_site_type_symbol
 _atom_site_label
 _atom_site_symmetry_multiplicity
 _atom_site_fract_x
 _atom_site_fract_y
 _atom_site_fract_z
 _atom_site_occupancy
  Zr  Zr0  1  0.10409949  0.30245056  0.90691012  1
  Zr  Zr1  1  0.90350607  0.09891311  0.49689625  1
  Zr  Zr2  1  0.70366005  0.29794254  0.70808089  1
  Zr  Zr3  1  0.10199627  0.90290409  0.09732910  1
  Zr  Zr4  1  0.30434355  0.70483113  0.11154360  1
  Zr  Zr5  1  0.10146295  0.69357097  0.50493203  1
  Zr  Zr6  1  0.69780167  0.10155269  0.69814524  1
  Zr  Zr7  1  0.49327031  0.31069559  0.50171461  1
  Zr  Zr8  1  0.89742672  0.70783979  0.29627447  1
  Zr  Zr9  1  0.11645156  0.90566479  0.49315357  1
  Zr  Zr10  1  0.10061811  0.10365129  0.69915808  1
  Zr  Zr11  1  0.50121734  0.09726197  0.10592261  1
  Zr  Zr12  1  0.89963077  0.09420318  0.09576292  1
  Zr  Zr13  1  0.69061422  0.70427360  0.90110563  1
  Zr  Zr14  1  0.70613550  0.50577486  0.89920210  1
  Zr  Zr15  1  0.10125869  0.29847737  0.29724227  1
  Zr  Zr16  1  0.10252434  0.29483472  0.70243262  1
  Zr  Zr17  1  0.30737365  0.51151890  0.29464671  1
  Zr  Zr18  1  0.70469096  0.90206850  0.30738932  1
  Zr  Zr19  1  0.29486458  0.89234052  0.90524373  1
  Zr  Zr20  1  0.30060428  0.89636921  0.68559427  1
  Zr  Zr21  1  0.70095722  0.49596863  0.09486955  1
  Zr  Zr22  1  0.10568097  0.50514203  0.69990961  1
  Zr  Zr23  1  0.29257917  0.90252047  0.10524694  1
  Zr  Zr24  1  0.10576468  0.10080034  0.30311941  1
  Zr  Zr25  1  0.29462271  0.30754580  0.30085154  1
  Zr  Zr26  1  0.88807568  0.69758370  0.89906030  1
  Zr  Zr27  1  0.09962164  0.49715440  0.09919689  1
  Zr  Zr28  1  0.70152800  0.10743913  0.09782233  1
  Zr  Zr29  1  0.70738257  0.08849713  0.50042478  1
  Zr  Zr30  1  0.09645686  0.49831006  0.50434959  1
  Zr  Zr31  1  0.70263165  0.70186343  0.70918538  1
  Zr  Zr32  1  0.10241522  0.69694562  0.69598026  1
  Zr  Zr33  1  0.90728589  0.50129284  0.50261685  1
  Zr  Zr34  1  0.50327502  0.10361366  0.70916077  1
  Zr  Zr35  1  0.70066844  0.69752021  0.09719494  1
  Zr  Zr36  1  0.90766368  0.30621423  0.50292065  1
  Zr  Zr37  1  0.89796060  0.90024454  0.69828305  1
  Zr  Zr38  1  0.50080886  0.69670501  0.50725442  1
  Zr  Zr39  1  0.29917416  0.49667969  0.69921478  1
  Zr  Zr40  1  0.69673803  0.50056191  0.70565084  1
  Zr  Zr41  1  0.88249340  0.90400666  0.49279537  1
  Zr  Zr42  1  0.89737659  0.30817157  0.89887795  1
  Zr  Zr43  1  0.70091832  0.29521083  0.50395670  1
  Zr  Zr44  1  0.49725791  0.10803557  0.90733028  1
  Zr  Zr45  1  0.10507066  0.09696179  0.10557115  1
  Zr  Zr46  1  0.09726224  0.71084950  0.09945872  1
  Zr  Zr47  1  0.69288623  0.09461730  0.29436467  1
  Zr  Zr48  1  0.70558173  0.29638252  0.28839413  1
  Zr  Zr49  1  0.90305722  0.70360683  0.10289846  1
  Sc  Sc50  1  0.89920199  0.09261232  0.90070150  1
  Sc  Sc51  1  0.70199751  0.30285620  0.90339929  1
  Sc  Sc52  1  0.89954604  0.48936928  0.69996713  1
  Sc  Sc53  1  0.30297664  0.11079191  0.29782190  1
  Sc  Sc54  1  0.50440895  0.49713607  0.89416083  1
  Sc  Sc55  1  0.90438278  0.50106350  0.09570316  1
  Sc  Sc56  1  0.90450921  0.70161496  0.50320210  1
  Sc  Sc57  1  0.10879513  0.30428043  0.10408042  1
  Sc  Sc58  1  0.91371460  0.09764721  0.29577502  1
  Sc  Sc59  1  0.29874391  0.49870998  0.10122725  1
  Sc  Sc60  1  0.29829029  0.29721617  0.90397601  1
  Sc  Sc61  1  0.49918670  0.69991031  0.70407667  1
  Sc  Sc62  1  0.29577097  0.49732108  0.88942627  1
  Sc  Sc63  1  0.91214523  0.49831938  0.29206218  1
  Sc  Sc64  1  0.29724525  0.29760367  0.09637881  1
  Sc  Sc65  1  0.10684120  0.71219836  0.89342095  1
  Sc  Sc66  1  0.89714213  0.30020884  0.70281068  1
  Sc  Sc67  1  0.09665173  0.89442479  0.70690544  1
  Sc  Sc68  1  0.69833520  0.10835812  0.89724219  1
  Sc  Sc69  1  0.90056701  0.10063203  0.70518342  1
  Sc  Sc70  1  0.49598048  0.90241224  0.10920946  1
  Sc  Sc71  1  0.50334488  0.70345655  0.09974273  1
  Sc  Sc72  1  0.09693376  0.09845017  0.90127748  1
  Sc  Sc73  1  0.10020212  0.49213284  0.90450016  1
  Sc  Sc74  1  0.49006964  0.69370323  0.29623810  1
  Sc  Sc75  1  0.67835311  0.50022590  0.49877713  1
  Sc  Sc76  1  0.30101626  0.49064428  0.48813166  1
  Sc  Sc77  1  0.50479057  0.09466890  0.50828928  1
  Sc  Sc78  1  0.50133820  0.89717371  0.69481376  1
  Sc  Sc79  1  0.10535708  0.90795269  0.29059107  1
  Sc  Sc80  1  0.28627020  0.09325065  0.50332659  1
  Sc  Sc81  1  0.48977150  0.28944946  0.30702436  1
  Sc  Sc82  1  0.69435463  0.70004249  0.50292116  1
  Sc  Sc83  1  0.50091954  0.30562949  0.70576117  1
  Sc  Sc84  1  0.10804204  0.49355417  0.29904369  1
  Sc  Sc85  1  0.69841745  0.89305377  0.09964940  1
  Sc  Sc86  1  0.29151883  0.69342526  0.70592575  1
  Sc  Sc87  1  0.49794829  0.49495411  0.69920745  1
  Sc  Sc88  1  0.89969747  0.70572751  0.69800988  1
  Sc  Sc89  1  0.90455694  0.90371589  0.90400396  1
  Sc  Sc90  1  0.30017256  0.29695217  0.48972672  1
  Sc  Sc91  1  0.30168144  0.09898947  0.09253276  1
  Sc  Sc92  1  0.50053481  0.29442114  0.08834672  1
  Sc  Sc93  1  0.70732914  0.70907189  0.29527028  1
  Sc  Sc94  1  0.09742148  0.90047745  0.90296912  1
  Sc  Sc95  1  0.49869832  0.89047484  0.89272843  1
  Sc  Sc96  1  0.50267534  0.50329301  0.08791629  1
  Sc  Sc97  1  0.50095047  0.29899107  0.89936223  1
  Sc  Sc98  1  0.10458611  0.69866250  0.29734836  1
  Sc  Sc99  1  0.91006625  0.89821560  0.09479093  1
  Nb  Nb100  1  0.29665010  0.29819305  0.69654564  1
  Nb  Nb101  1  0.88441225  0.29843555  0.10990241  1
  Nb  Nb102  1  0.10311337  0.29459702  0.50046865  1
  Nb  Nb103  1  0.29919973  0.89839493  0.30426871  1
  Nb  Nb104  1  0.30420663  0.89541227  0.49815627  1
  Nb  Nb105  1  0.09870670  0.10489298  0.49854025  1
  Nb  Nb106  1  0.50601954  0.91245584  0.30374198  1
  Nb  Nb107  1  0.69508374  0.49835383  0.30410710  1
  Nb  Nb108  1  0.89762538  0.30105541  0.29476552  1
  Nb  Nb109  1  0.70186629  0.89798363  0.70359668  1
  Nb  Nb110  1  0.90257906  0.50167884  0.89835551  1
  Nb  Nb111  1  0.69911924  0.89929079  0.89765470  1
  Nb  Nb112  1  0.49447424  0.50147817  0.49711338  1
  Nb  Nb113  1  0.30098845  0.09674925  0.90286214  1
  Nb  Nb114  1  0.29481145  0.70623554  0.50413338  1
  Nb  Nb115  1  0.69693650  0.90239692  0.49957780  1
  Nb  Nb116  1  0.89577380  0.89540925  0.29849060  1
  Nb  Nb117  1  0.30113832  0.70299032  0.30047098  1
  Nb  Nb118  1  0.49083503  0.69728054  0.89738599  1
  Nb  Nb119  1  0.49191445  0.89476301  0.50320366  1
  Nb  Nb120  1  0.30193262  0.69963896  0.89801461  1
  Nb  Nb121  1  0.29751620  0.10594378  0.70194541  1
  Nb  Nb122  1  0.50551065  0.09064016  0.30151703  1
  Nb  Nb123  1  0.50284229  0.49999307  0.30848736  1
  Nb  Nb124  1  0.70786320  0.29868003  0.10102086  1
  Nb  Nb125  1  0.60156693  -0.00106476  -0.00331760  1
  Nb  Nb126  1  0.79884875  0.59187368  0.40085645  1
  Nb  Nb127  1  0.00057051  0.80625479  0.39816960  1
  Nb  Nb128  1  0.59135392  0.81043662  0.40275427  1
  Nb  Nb129  1  0.80020232  0.40086077  0.39608977  1
  Nb  Nb130  1  0.60235853  0.59063230  0.20426339  1
  Nb  Nb131  1  0.79569887  0.59556689  0.59801319  1
  Nb  Nb132  1  0.39687720  0.80255114  0.40081445  1
  Nb  Nb133  1  0.39328897  0.20057608  0.60673555  1
  Nb  Nb134  1  -0.00436701  0.20545423  0.00633190  1
  Nb  Nb135  1  0.80204973  0.20384111  0.39449345  1
  Nb  Nb136  1  0.40126526  -0.00691376  0.40173872  1
  Nb  Nb137  1  0.19965427  0.39232088  0.59838050  1
  Nb  Nb138  1  0.80152673  -0.00344559  0.19944022  1
  Nb  Nb139  1  0.79035503  -0.00606041  0.79942679  1
  Nb  Nb140  1  -0.00267374  0.59770959  0.80441089  1
  Nb  Nb141  1  0.20576384  0.60837302  -0.00175775  1
  Nb  Nb142  1  0.39529856  0.60663669  -0.00785702  1
  Nb  Nb143  1  0.39188277  0.00510103  0.79883491  1
  Nb  Nb144  1  0.00377090  0.00214607  0.59230972  1
  Nb  Nb145  1  0.39804671  0.59541943  0.59413411  1
  Nb  Nb146  1  0.59744878  0.40096114  0.20203979  1
  Nb  Nb147  1  0.20902338  0.00351372  0.79860681  1
  Nb  Nb148  1  0.41025114  0.40486429  0.20204169  1
  Nb  Nb149  1  0.60262206  0.19421711  0.40075025  1
  Pd  Pd150  1  0.80274098  0.80614600  0.00040993  1
  Pd  Pd151  1  0.59088698  0.80538220  -0.00134032  1
  Pd  Pd152  1  0.39569531  0.40736790  0.00062415  1
  Pd  Pd153  1  0.00659673  0.81354401  0.58747757  1
  Pd  Pd154  1  0.80645901  0.20169485  -0.00844519  1
  Pd  Pd155  1  0.39822808  0.39508731  0.80441235  1
  Pd  Pd156  1  -0.00571932  0.19778156  0.60311384  1
  Pd  Pd157  1  -0.00168142  0.20720953  0.39709923  1
  Pd  Pd158  1  0.39657110  0.20419862  0.79978485  1
  Pd  Pd159  1  0.79310679  0.79327882  0.59597865  1
  Pd  Pd160  1  0.80338721  0.59767574  0.00370926  1
  Pd  Pd161  1  0.79043159  0.40894615  0.59208271  1
  Pd  Pd162  1  0.39521898  0.80332982  0.78978447  1
  Pd  Pd163  1  0.00740414  0.60012053  0.20276753  1
  Pd  Pd164  1  0.79942964  0.41390516  0.20292341  1
  Pd  Pd165  1  0.39443615  0.60834646  0.40799154  1
  Pd  Pd166  1  0.80894126  0.19779749  0.59930850  1
  Pd  Pd167  1  0.19503821  0.60221571  0.19304416  1
  Pd  Pd168  1  0.59975845  -0.00800776  0.60227621  1
  Pd  Pd169  1  -0.00669494  0.79494384  0.80572589  1
  Pd  Pd170  1  0.40565499  0.80587264  0.20889381  1
  Pd  Pd171  1  0.20225348  0.59885585  0.40226046  1
  Pd  Pd172  1  0.58867491  0.20864544  0.20231661  1
  Pd  Pd173  1  0.01082691  0.60913504  -0.01040593  1
  Pd  Pd174  1  0.79653829  0.59340821  0.20551502  1
  Pd  Pd175  1  0.19330062  0.00003030  0.60732008  1
  Pd  Pd176  1  -0.00801752  0.39031055  0.01118591  1
  Pd  Pd177  1  0.39913685  0.01007849  0.60177477  1
  Pd  Pd178  1  0.00565353  0.40357592  0.79608968  1
  Pd  Pd179  1  0.59641411  -0.00327523  0.80674016  1
  Pd  Pd180  1  -0.00004084  0.20584041  0.19188043  1
  Pd  Pd181  1  0.40302756  0.79988682  0.00477278  1
  Pd  Pd182  1  0.60510671  0.61557360  0.39089229  1
  Pd  Pd183  1  0.00244322  -0.00884591  0.40094861  1
  Pd  Pd184  1  0.40486637  0.18409017  0.41368004  1
  Pd  Pd185  1  0.60437274  0.80291306  0.60141484  1
  Pd  Pd186  1  0.60294478  0.39409070  0.00042141  1
  Pd  Pd187  1  0.20181581  0.19675250  0.81092475  1
  Pd  Pd188  1  0.39997672  0.20668956  0.19403059  1
  Pd  Pd189  1  -0.00432989  0.60853623  0.39145435  1
  Pd  Pd190  1  0.19709232  0.79582031  0.39380814  1
  Pd  Pd191  1  -0.00454636  0.19861946  0.81109761  1
  Pd  Pd192  1  0.39175159  0.00280760  0.20859436  1
  Pd  Pd193  1  0.59192727  0.60060017  0.79957569  1
  Pd  Pd194  1  0.59003605  0.20570993  0.59738756  1
  Pd  Pd195  1  0.59526489  0.79618479  0.21047769  1
  Pd  Pd196  1  0.00135632  0.39646121  0.39395989  1
  Pd  Pd197  1  0.40888331  -0.00816006  -0.00591342  1
  Pd  Pd198  1  0.59933299  0.40001055  0.60464640  1
  Pd  Pd199  1  0.60099420  0.38629179  0.39320752  1
  Rh  Rh200  1  0.19599848  0.79856294  0.60180240  1
  Rh  Rh201  1  0.19828122  0.80167508  0.20529274  1
  Rh  Rh202  1  -0.01214268  0.59797387  0.61556767  1
  Rh  Rh203  1  0.20724321  0.40864827  0.00097734  1
  Rh  Rh204  1  0.80172072  0.00068864  0.61191454  1
  Rh  Rh205  1  0.78612327  -0.00400867  -0.00173781  1
  Rh  Rh206  1  0.80085582  0.19330017  0.80184422  1
  Rh  Rh207  1  0.20601435  0.20639306  0.59093111  1
  Rh  Rh208  1  0.00027392  -0.00102570  0.79168139  1
  Rh  Rh209  1  0.80337570  0.40306581  -0.00099162  1
  Rh  Rh210  1  0.59482637  0.59398328  0.60751227  1
  Rh  Rh211  1  0.20275410  0.79572031  0.00505605  1
  Rh  Rh212  1  0.80214336  0.80884563  0.80508514  1
  Rh  Rh213  1  0.81069968  0.59431531  0.78938861  1
  Rh  Rh214  1  0.39577887  0.78556383  0.60177242  1
  Rh  Rh215  1  0.60476445  0.39788656  0.80437375  1
  Rh  Rh216  1  0.19295785  0.19468412  0.00065843  1
  Rh  Rh217  1  0.79789866  0.78819096  0.40924265  1
  Rh  Rh218  1  0.20883209  0.40250140  0.19897094  1
  Rh  Rh219  1  0.39580251  0.20054536  0.00251356  1
  Rh  Rh220  1  0.80857446  0.18567725  0.20597748  1
  Rh  Rh221  1  0.59170866  0.60730238  0.00006754  1
  Rh  Rh222  1  0.80495012  0.80987557  0.18805384  1
  Rh  Rh223  1  0.19694639  0.00144017  -0.00794302  1
  Rh  Rh224  1  0.40041114  0.40186668  0.39060514  1
  Rh  Rh225  1  0.20461773  0.19865301  0.19763307  1
  Rh  Rh226  1  0.00882536  0.00715273  0.00146123  1
  Rh  Rh227  1  0.79829987  0.40396060  0.80504465  1
  Rh  Rh228  1  -0.00181194  0.79484513  -0.00677948  1
  Rh  Rh229  1  0.01149253  0.39361751  0.60741899  1
  Rh  Rh230  1  0.19147430  0.39848526  0.40568670  1
  Rh  Rh231  1  0.59719363  0.79781676  0.79918498  1
  Rh  Rh232  1  0.80568092  0.01197340  0.38516484  1
  Rh  Rh233  1  0.21387263  0.58817446  0.58739250  1
  Rh  Rh234  1  0.41258351  0.59119449  0.18892996  1
  Rh  Rh235  1  0.00091412  0.39474628  0.19520952  1
  Rh  Rh236  1  0.21047925  0.00600138  0.20511597  1
  Rh  Rh237  1  0.39156443  0.39954722  0.59779139  1
  Rh  Rh238  1  0.60837038  -0.00422060  0.18676979  1
  Rh  Rh239  1  0.59304423  -0.00072870  0.41298084  1
  Rh  Rh240  1  0.20989122  0.00616329  0.39288733  1
  Rh  Rh241  1  0.60251635  0.20810875  0.80324092  1
  Rh  Rh242  1  0.60300405  0.20019075  0.00028560  1
  Rh  Rh243  1  0.18856955  0.59975056  0.81271072  1
  Rh  Rh244  1  0.40119063  0.59659300  0.79712794  1
  Rh  Rh245  1  0.00463822  0.80663455  0.20779115  1
  Rh  Rh246  1  0.19914414  0.39373128  0.79615434  1
  Rh  Rh247  1  0.20641018  0.80746152  0.79445470  1
  Rh  Rh248  1  0.19991883  0.19824707  0.40031318  1
  Rh  Rh249  1  -0.00562520  -0.00704701  0.19810312  1
