# generated using pymatgen
data_ZrScNbPdRh
_symmetry_space_group_name_H-M   'P 1'
_cell_length_a   16.56342063
_cell_length_b   16.55950135
_cell_length_c   16.55782391
_cell_angle_alpha   89.99739663
_cell_angle_beta   89.97452336
_cell_angle_gamma   89.98296904
_symmetry_Int_Tables_number   1
_chemical_formula_structural   ZrScNbPdRh
_chemical_formula_sum   'Zr50 Sc50 Nb50 Pd50 Rh50'
_cell_volume   4541.51217605
_cell_formula_units_Z   50
loop_
 _symmetry_equiv_pos_site_id
 _symmetry_equiv_pos_as_xyz
  1  'x, y, z'
loop_
 _atom_site_type_symbol
 _atom_site_label
 _atom_site_symmetry_multiplicity
 _atom_site_fract_x
 _atom_site_fract_y
 _atom_site_fract_z
 _atom_site_occupancy
  Zr  Zr0  1  0.49831623  0.09859310  0.89347126  1
  Zr  Zr1  1  0.49596372  0.70084587  0.69725158  1
  Zr  Zr2  1  0.30556604  0.72016297  0.29519037  1
  Zr  Zr3  1  0.90882358  0.29496679  0.30600684  1
  Zr  Zr4  1  0.10357607  0.30020724  0.70784965  1
  Zr  Zr5  1  0.50263371  0.49852907  0.09242854  1
  Zr  Zr6  1  0.88706329  0.10122096  0.90186809  1
  Zr  Zr7  1  0.50878376  0.10162753  0.09888693  1
  Zr  Zr8  1  0.90646839  0.49404464  0.89892420  1
  Zr  Zr9  1  0.10107574  0.50143508  0.49679932  1
  Zr  Zr10  1  0.69702480  0.90184263  0.69774984  1
  Zr  Zr11  1  0.69873388  0.90789022  0.49874257  1
  Zr  Zr12  1  0.90344661  0.51061040  0.50280635  1
  Zr  Zr13  1  0.10815610  0.09664264  0.90268682  1
  Zr  Zr14  1  0.10512615  0.71447901  0.70716248  1
  Zr  Zr15  1  0.89548258  0.48755381  0.29337207  1
  Zr  Zr16  1  0.30369151  0.90440813  0.49229691  1
  Zr  Zr17  1  0.50863231  0.30314785  0.90537056  1
  Zr  Zr18  1  0.70462508  0.10026592  0.50107591  1
  Zr  Zr19  1  0.09307393  0.10537700  0.30628341  1
  Zr  Zr20  1  0.69847637  0.10646746  0.69744116  1
  Zr  Zr21  1  0.10095020  0.29926937  0.29581805  1
  Zr  Zr22  1  0.30156423  0.09569648  0.30302173  1
  Zr  Zr23  1  0.49185291  0.70731925  0.50216115  1
  Zr  Zr24  1  0.90053906  0.09282015  0.69682898  1
  Zr  Zr25  1  0.29671524  0.70096536  0.08916502  1
  Zr  Zr26  1  0.69736946  0.10579349  0.89779915  1
  Zr  Zr27  1  0.48545384  0.89866613  0.28861959  1
  Zr  Zr28  1  0.10236779  0.08888618  0.70459434  1
  Zr  Zr29  1  0.29713170  0.49285278  0.50071592  1
  Zr  Zr30  1  0.70384425  0.09969058  0.09214363  1
  Zr  Zr31  1  0.30340707  0.09927094  0.49985909  1
  Zr  Zr32  1  0.09804251  0.49391772  0.69695617  1
  Zr  Zr33  1  0.49551740  0.90043155  0.69724014  1
  Zr  Zr34  1  0.90136376  0.70087357  0.90342840  1
  Zr  Zr35  1  0.50260093  0.29995093  0.50182063  1
  Zr  Zr36  1  0.49876631  0.69715933  0.29595922  1
  Zr  Zr37  1  0.89396537  0.70931446  0.10119612  1
  Zr  Zr38  1  0.30162733  0.09820509  0.70444889  1
  Zr  Zr39  1  0.90316818  0.90639866  0.29258358  1
  Zr  Zr40  1  0.29866910  0.49853868  0.30609074  1
  Zr  Zr41  1  0.90371983  0.50920606  0.09615528  1
  Zr  Zr42  1  0.29739495  0.30237029  0.09997310  1
  Zr  Zr43  1  0.90271560  0.50019159  0.69806431  1
  Zr  Zr44  1  0.49647228  0.09883501  0.69997301  1
  Zr  Zr45  1  0.09062737  0.69986112  0.49826794  1
  Zr  Zr46  1  0.10454256  0.48921016  0.30511998  1
  Zr  Zr47  1  0.89964430  0.70493035  0.30564866  1
  Zr  Zr48  1  0.30260502  0.49114168  0.70118148  1
  Zr  Zr49  1  0.89181543  0.89648930  0.49800495  1
  Sc  Sc50  1  0.50770815  0.69633396  0.90319767  1
  Sc  Sc51  1  0.10187346  0.70624599  0.90710718  1
  Sc  Sc52  1  0.69372548  0.29665746  0.09216662  1
  Sc  Sc53  1  0.29591127  0.90160841  0.91311844  1
  Sc  Sc54  1  0.29428611  0.10148480  0.09480367  1
  Sc  Sc55  1  0.29115509  0.90040903  0.69713208  1
  Sc  Sc56  1  0.70360632  0.49917880  0.30075099  1
  Sc  Sc57  1  0.70060696  0.50745662  0.10190957  1
  Sc  Sc58  1  0.69934503  0.70557650  0.90725746  1
  Sc  Sc59  1  0.89163994  0.29314062  0.49433945  1
  Sc  Sc60  1  0.70888630  0.90039623  0.09324981  1
  Sc  Sc61  1  0.49785446  0.29573315  0.69584358  1
  Sc  Sc62  1  0.90084157  0.89946689  0.70534970  1
  Sc  Sc63  1  0.50382086  0.29677806  0.09880286  1
  Sc  Sc64  1  0.10716812  0.10600218  0.10035395  1
  Sc  Sc65  1  0.09975780  0.70314545  0.29987254  1
  Sc  Sc66  1  0.89504380  0.30617713  0.10840590  1
  Sc  Sc67  1  0.89709688  0.30654460  0.70189059  1
  Sc  Sc68  1  0.71408944  0.31133153  0.31130490  1
  Sc  Sc69  1  0.30308236  0.70452221  0.49862294  1
  Sc  Sc70  1  0.09895025  0.90112869  0.89419982  1
  Sc  Sc71  1  0.49393766  0.90606148  0.09754007  1
  Sc  Sc72  1  0.69559576  0.70483954  0.70841535  1
  Sc  Sc73  1  0.50242755  0.50008718  0.90640878  1
  Sc  Sc74  1  0.89618970  0.89542450  0.89600040  1
  Sc  Sc75  1  0.50129496  0.90745497  0.50812858  1
  Sc  Sc76  1  0.49200320  0.48775363  0.49768158  1
  Sc  Sc77  1  0.49655734  0.90459370  0.89996716  1
  Sc  Sc78  1  0.69877508  0.48538201  0.49909766  1
  Sc  Sc79  1  0.29348948  0.30553771  0.89884401  1
  Sc  Sc80  1  0.11105396  0.29949461  0.10070588  1
  Sc  Sc81  1  0.70373212  0.90865002  0.30606592  1
  Sc  Sc82  1  0.09165137  0.69840856  0.10035022  1
  Sc  Sc83  1  0.09595720  0.90405156  0.70345961  1
  Sc  Sc84  1  0.89777237  0.70547016  0.69401545  1
  Sc  Sc85  1  0.09853650  0.89409928  0.10295246  1
  Sc  Sc86  1  0.10010960  0.49293726  0.91040657  1
  Sc  Sc87  1  0.09941620  0.90675562  0.50745118  1
  Sc  Sc88  1  0.10374363  0.49870281  0.09941683  1
  Sc  Sc89  1  0.70597446  0.69430375  0.29651374  1
  Sc  Sc90  1  0.50166752  0.09947800  0.29006513  1
  Sc  Sc91  1  0.30239473  0.30071704  0.70387979  1
  Sc  Sc92  1  0.89680071  0.09682032  0.49597658  1
  Sc  Sc93  1  0.09453836  0.30380963  0.48710665  1
  Sc  Sc94  1  0.71393548  0.70358755  0.49601872  1
  Sc  Sc95  1  0.29508465  0.29290701  0.30068252  1
  Sc  Sc96  1  0.29539701  0.09462776  0.89688574  1
  Sc  Sc97  1  0.50863092  0.69270310  0.09253804  1
  Sc  Sc98  1  0.09837965  0.89536733  0.30017813  1
  Sc  Sc99  1  0.70333307  0.49422092  0.69222482  1
  Nb  Nb100  1  0.89434599  0.09582902  0.09949246  1
  Nb  Nb101  1  0.30339503  0.50734510  0.91390043  1
  Nb  Nb102  1  0.69929842  0.49698172  0.89776918  1
  Nb  Nb103  1  0.29931225  0.69889691  0.70116645  1
  Nb  Nb104  1  0.30676897  0.29540565  0.50612568  1
  Nb  Nb105  1  0.89898744  0.90716125  0.10031428  1
  Nb  Nb106  1  0.10031065  0.09870992  0.50689158  1
  Nb  Nb107  1  0.50213976  0.49954854  0.70051132  1
  Nb  Nb108  1  0.49985732  0.10365945  0.50571764  1
  Nb  Nb109  1  0.70016809  0.10213968  0.30320025  1
  Nb  Nb110  1  0.90092928  0.70073708  0.49571597  1
  Nb  Nb111  1  0.30075163  0.89602271  0.11429192  1
  Nb  Nb112  1  0.30259947  0.49968387  0.09385278  1
  Nb  Nb113  1  0.69589546  0.29509605  0.50641016  1
  Nb  Nb114  1  0.89880955  0.10234772  0.29663097  1
  Nb  Nb115  1  0.70409549  0.29717133  0.89586424  1
  Nb  Nb116  1  0.50523945  0.30385718  0.30114466  1
  Nb  Nb117  1  0.50281583  0.49887557  0.30074722  1
  Nb  Nb118  1  0.70490147  0.89673735  0.89473190  1
  Nb  Nb119  1  0.69737166  0.70200745  0.10235812  1
  Nb  Nb120  1  0.29696587  0.69667040  0.89802960  1
  Nb  Nb121  1  0.30154196  0.90030921  0.29095475  1
  Nb  Nb122  1  0.69485517  0.29816558  0.68990481  1
  Nb  Nb123  1  0.89900404  0.29956378  0.90044692  1
  Nb  Nb124  1  0.09465747  0.29503879  0.90320662  1
  Nb  Nb125  1  0.20920581  0.59950995  0.20023012  1
  Nb  Nb126  1  -0.00737287  0.19932745  -0.00227317  1
  Nb  Nb127  1  -0.00741474  0.00460145  0.00542850  1
  Nb  Nb128  1  0.59559703  0.40188927  0.20500253  1
  Nb  Nb129  1  0.40433400  0.40322738  0.20150200  1
  Nb  Nb130  1  0.60696146  0.39691017  0.79754752  1
  Nb  Nb131  1  0.39475460  0.59930878  0.80083521  1
  Nb  Nb132  1  0.20425461  -0.00400887  0.20422229  1
  Nb  Nb133  1  0.40206602  0.20002175  -0.00332460  1
  Nb  Nb134  1  0.00280833  0.60032399  0.80000061  1
  Nb  Nb135  1  0.60223579  0.20106255  0.40131082  1
  Nb  Nb136  1  0.00602227  0.19571257  0.60278871  1
  Nb  Nb137  1  0.39202558  0.79119323  0.80112791  1
  Nb  Nb138  1  0.59554118  0.60077215  0.40399486  1
  Nb  Nb139  1  0.19697289  0.19847966  0.59712597  1
  Nb  Nb140  1  0.39712507  0.59398804  0.19703434  1
  Nb  Nb141  1  0.80106867  0.19327579  0.20466910  1
  Nb  Nb142  1  0.79892356  0.39957619  -0.00818448  1
  Nb  Nb143  1  0.20086410  0.60291187  0.60621894  1
  Nb  Nb144  1  0.59737060  0.79853387  0.39472721  1
  Nb  Nb145  1  0.80279286  0.59471849  0.80309961  1
  Nb  Nb146  1  0.59525692  0.59823620  0.59581076  1
  Nb  Nb147  1  0.60383484  0.79827041  0.19946113  1
  Nb  Nb148  1  0.20347866  0.59907013  0.80108440  1
  Nb  Nb149  1  -0.00076770  0.20003957  0.80472652  1
  Pd  Pd150  1  0.39444671  0.38935081  0.39459273  1
  Pd  Pd151  1  0.39748236  0.20683105  0.80772400  1
  Pd  Pd152  1  0.80346768  0.20525269  0.78958153  1
  Pd  Pd153  1  0.61447697  0.21127337  0.21176864  1
  Pd  Pd154  1  0.01179578  0.00406449  0.19330563  1
  Pd  Pd155  1  0.41154292  0.00115342  0.39920155  1
  Pd  Pd156  1  0.59112818  0.80495441  0.80572579  1
  Pd  Pd157  1  0.79614607  -0.00289946  0.79859864  1
  Pd  Pd158  1  -0.00240607  0.81050169  0.00033811  1
  Pd  Pd159  1  0.20479721  0.61226085  0.40004711  1
  Pd  Pd160  1  0.00741170  0.60944733  0.60944823  1
  Pd  Pd161  1  0.79510808  0.59318145  0.40117322  1
  Pd  Pd162  1  0.00047125  0.80788195  0.40115970  1
  Pd  Pd163  1  0.19339279  -0.00424878  0.39399653  1
  Pd  Pd164  1  0.80646554  0.39491471  0.59269562  1
  Pd  Pd165  1  -0.00257567  0.59479954  0.38756053  1
  Pd  Pd166  1  0.40967700  0.19932677  0.39647548  1
  Pd  Pd167  1  0.19838443  0.40732972  0.81197043  1
  Pd  Pd168  1  0.79717318  0.80118572  0.60312550  1
  Pd  Pd169  1  0.58908466  0.00285928  0.39714093  1
  Pd  Pd170  1  -0.00249386  -0.00113136  0.40443191  1
  Pd  Pd171  1  0.60855911  0.79282667  0.59045923  1
  Pd  Pd172  1  0.79041419  0.60525507  0.60557546  1
  Pd  Pd173  1  0.60201251  -0.00292147  0.80012071  1
  Pd  Pd174  1  0.60304916  0.59250013  0.79534191  1
  Pd  Pd175  1  -0.00530573  0.38698810  0.59078189  1
  Pd  Pd176  1  0.19840682  0.39064360  0.59271824  1
  Pd  Pd177  1  0.79175748  0.00453334  0.20226906  1
  Pd  Pd178  1  0.80214941  0.60053040  0.19990855  1
  Pd  Pd179  1  0.39878454  0.20301539  0.19381500  1
  Pd  Pd180  1  -0.00230731  0.39030569  0.01061470  1
  Pd  Pd181  1  0.39462562  0.00699225  0.00434326  1
  Pd  Pd182  1  -0.00330623  0.80669445  0.60140039  1
  Pd  Pd183  1  0.40090439  0.60073769  0.39825427  1
  Pd  Pd184  1  0.40873770  0.40440320  0.80748263  1
  Pd  Pd185  1  0.39852587  0.59252419  0.60121691  1
  Pd  Pd186  1  0.20192127  0.79898713  0.59228349  1
  Pd  Pd187  1  0.79365248  0.80623844  0.20511930  1
  Pd  Pd188  1  0.60780073  -0.01004291  0.19748156  1
  Pd  Pd189  1  0.19896063  0.20269150  0.40672971  1
  Pd  Pd190  1  0.59894084  0.80902429  0.00575896  1
  Pd  Pd191  1  0.79391622  0.40082419  0.79884383  1
  Pd  Pd192  1  -0.00347399  0.19999436  0.18778622  1
  Pd  Pd193  1  0.40514142  0.79669044  -0.00401868  1
  Pd  Pd194  1  0.00759905  0.59946097  0.20735035  1
  Pd  Pd195  1  0.79424425  0.59755408  -0.00516504  1
  Pd  Pd196  1  0.19577319  0.80536410  0.00213667  1
  Pd  Pd197  1  0.19618840  0.80423609  0.40418385  1
  Pd  Pd198  1  0.60507298  -0.00642054  -0.00514605  1
  Pd  Pd199  1  0.00609766  0.39824732  0.19081744  1
  Rh  Rh200  1  0.80679584  0.40456158  0.40932297  1
  Rh  Rh201  1  0.79407772  0.19573236  0.39560051  1
  Rh  Rh202  1  -0.00494699  0.79893920  0.19961927  1
  Rh  Rh203  1  0.20678437  0.38756179  0.40383565  1
  Rh  Rh204  1  0.19721172  0.19908050  0.79793270  1
  Rh  Rh205  1  0.39691386  0.39047804  0.00245378  1
  Rh  Rh206  1  0.80763387  0.00377244  0.39445346  1
  Rh  Rh207  1  0.60349242  0.39789016  0.39720919  1
  Rh  Rh208  1  0.79954730  0.80294157  0.00015967  1
  Rh  Rh209  1  0.19161349  -0.00933074  0.01367386  1
  Rh  Rh210  1  0.19383100  0.79747095  0.19769423  1
  Rh  Rh211  1  0.80546312  0.21205727  0.01026059  1
  Rh  Rh212  1  0.59744609  0.19478248  0.59549711  1
  Rh  Rh213  1  0.59842959  0.59919597  0.20556524  1
  Rh  Rh214  1  0.19304230  0.59844100  0.00219371  1
  Rh  Rh215  1  0.20402488  0.20470268  -0.00661534  1
  Rh  Rh216  1  0.59978265  0.00765692  0.60345883  1
  Rh  Rh217  1  0.00509715  0.60213524  -0.00466588  1
  Rh  Rh218  1  0.79977864  -0.00379902  0.60232289  1
  Rh  Rh219  1  0.60927140  0.59829263  -0.00330136  1
  Rh  Rh220  1  0.79791108  0.80382546  0.39487879  1
  Rh  Rh221  1  0.39675411  0.00127247  0.60112388  1
  Rh  Rh222  1  0.39245865  -0.01513727  0.79999504  1
  Rh  Rh223  1  0.20641520  0.80248754  0.80660787  1
  Rh  Rh224  1  0.40468256  0.60625019  -0.00113082  1
  Rh  Rh225  1  0.78514119  0.39410578  0.18608602  1
  Rh  Rh226  1  0.39436374  0.19954254  0.60357457  1
  Rh  Rh227  1  0.79730150  0.79338038  0.80116196  1
  Rh  Rh228  1  0.39052142  0.81019522  0.60410604  1
  Rh  Rh229  1  0.20141210  0.18912533  0.20674451  1
  Rh  Rh230  1  0.80763551  0.20243536  0.60395884  1
  Rh  Rh231  1  0.20441703  0.00425664  0.59910632  1
  Rh  Rh232  1  0.60103837  0.20858966  0.79615679  1
  Rh  Rh233  1  -0.00912157  0.40635468  0.40383395  1
  Rh  Rh234  1  0.40405230  0.39510226  0.60279912  1
  Rh  Rh235  1  0.40694231  0.81217455  0.40495613  1
  Rh  Rh236  1  0.80122561  -0.01002173  -0.00808958  1
  Rh  Rh237  1  0.20065739  0.39888216  -0.00227754  1
  Rh  Rh238  1  0.20498971  -0.01003444  0.80196044  1
  Rh  Rh239  1  0.00615922  0.39822747  0.80226564  1
  Rh  Rh240  1  0.20777013  0.40851620  0.19849919  1
  Rh  Rh241  1  0.59604166  0.19489755  -0.00714790  1
  Rh  Rh242  1  0.59506874  0.40383419  0.60646990  1
  Rh  Rh243  1  -0.00107794  0.19284172  0.40907990  1
  Rh  Rh244  1  0.39126055  0.01235254  0.19071616  1
  Rh  Rh245  1  -0.00300372  0.79585081  0.80085774  1
  Rh  Rh246  1  -0.00324428  0.00492312  0.81300281  1
  Rh  Rh247  1  0.41191331  0.78755125  0.18112156  1
  Rh  Rh248  1  -0.00700042  -0.00088740  0.59545935  1
  Rh  Rh249  1  0.61122367  0.40332168  0.00021852  1
