# generated using pymatgen
data_ZrScNbPdRh
_symmetry_space_group_name_H-M   'P 1'
_cell_length_a   16.54777567
_cell_length_b   16.55266745
_cell_length_c   16.55327407
_cell_angle_alpha   90.02766400
_cell_angle_beta   89.98268766
_cell_angle_gamma   89.96687695
_symmetry_Int_Tables_number   1
_chemical_formula_structural   ZrScNbPdRh
_chemical_formula_sum   'Zr50 Sc50 Nb50 Pd50 Rh50'
_cell_volume   4534.10295302
_cell_formula_units_Z   50
loop_
 _symmetry_equiv_pos_site_id
 _symmetry_equiv_pos_as_xyz
  1  'x, y, z'
loop_
 _atom_site_type_symbol
 _atom_site_label
 _atom_site_symmetry_multiplicity
 _atom_site_fract_x
 _atom_site_fract_y
 _atom_site_fract_z
 _atom_site_occupancy
  Zr  Zr0  1  0.70678450  0.50000546  0.49614240  1
  Zr  Zr1  1  0.91352298  0.50751546  0.91161817  1
  Zr  Zr2  1  0.29804920  0.29850763  0.50439870  1
  Zr  Zr3  1  0.48862491  0.10080807  0.10400148  1
  Zr  Zr4  1  0.49514746  0.50376388  0.89467916  1
  Zr  Zr5  1  0.09536272  0.68976164  0.88699204  1
  Zr  Zr6  1  0.91099069  0.28818017  0.89443373  1
  Zr  Zr7  1  0.49699897  0.30236558  0.29692886  1
  Zr  Zr8  1  0.70188164  0.30426143  0.49896422  1
  Zr  Zr9  1  0.90109431  0.69388255  0.10276439  1
  Zr  Zr10  1  0.70023981  0.09662418  0.69749844  1
  Zr  Zr11  1  0.70254281  0.69697555  0.09249628  1
  Zr  Zr12  1  0.10347448  0.70117039  0.50011495  1
  Zr  Zr13  1  0.69838378  0.09633859  0.49786625  1
  Zr  Zr14  1  0.90154970  0.51394586  0.30312151  1
  Zr  Zr15  1  0.90340265  0.90973703  0.89994922  1
  Zr  Zr16  1  0.29416309  0.10414829  0.90388486  1
  Zr  Zr17  1  0.10421799  0.89953643  0.10306265  1
  Zr  Zr18  1  0.09495010  0.49477687  0.09843582  1
  Zr  Zr19  1  0.69707761  0.89463372  0.09886296  1
  Zr  Zr20  1  0.69975066  0.09774744  0.89532765  1
  Zr  Zr21  1  0.69725724  0.50414894  0.30657063  1
  Zr  Zr22  1  0.90915421  0.30741954  0.50018904  1
  Zr  Zr23  1  0.30237894  0.68520726  0.30147007  1
  Zr  Zr24  1  0.49595546  0.29328614  0.49475872  1
  Zr  Zr25  1  0.49758176  0.50252206  0.70356841  1
  Zr  Zr26  1  0.49982551  0.48817017  0.10033317  1
  Zr  Zr27  1  0.90587114  0.70210403  0.29771411  1
  Zr  Zr28  1  0.10558351  0.69815559  0.69539112  1
  Zr  Zr29  1  0.70928431  0.90481918  0.50605996  1
  Zr  Zr30  1  0.69888646  0.50378824  0.70560142  1
  Zr  Zr31  1  0.49573570  0.29981990  0.10287574  1
  Zr  Zr32  1  0.89620413  0.70490735  0.89970036  1
  Zr  Zr33  1  0.50159954  0.89955014  0.70074987  1
  Zr  Zr34  1  0.30416650  0.10338864  0.69742257  1
  Zr  Zr35  1  0.90709602  0.09806827  0.09454040  1
  Zr  Zr36  1  0.49671024  0.09456045  0.69622640  1
  Zr  Zr37  1  0.70193127  0.69799464  0.89472725  1
  Zr  Zr38  1  0.89964571  0.10419105  0.71717921  1
  Zr  Zr39  1  0.48756320  0.30795593  0.90760389  1
  Zr  Zr40  1  0.69352306  0.29903141  0.30109852  1
  Zr  Zr41  1  0.48606226  0.50184875  0.29659342  1
  Zr  Zr42  1  0.10712592  0.49607942  0.30177612  1
  Zr  Zr43  1  0.08684551  0.09966110  0.90118388  1
  Zr  Zr44  1  0.29299731  0.49906658  0.49684114  1
  Zr  Zr45  1  0.29441029  0.89464184  0.09967687  1
  Zr  Zr46  1  0.10606533  0.90591469  0.69964302  1
  Zr  Zr47  1  0.49418988  0.70317103  0.69820757  1
  Zr  Zr48  1  0.69964069  0.69456247  0.30630227  1
  Zr  Zr49  1  0.90054322  0.09303835  0.50056445  1
  Sc  Sc50  1  0.30565013  0.29311619  0.08865611  1
  Sc  Sc51  1  0.09577852  0.70101445  0.29913339  1
  Sc  Sc52  1  0.90166869  0.89638370  0.30684386  1
  Sc  Sc53  1  0.10891874  0.09392814  0.70334266  1
  Sc  Sc54  1  0.91335904  0.29832282  0.30034374  1
  Sc  Sc55  1  0.10377349  0.30719230  0.49530260  1
  Sc  Sc56  1  0.10440495  0.51101552  0.69505585  1
  Sc  Sc57  1  0.49803729  0.70526163  0.89220367  1
  Sc  Sc58  1  0.48854595  0.90292343  0.30088698  1
  Sc  Sc59  1  0.90312261  0.70614171  0.70534011  1
  Sc  Sc60  1  0.69903118  0.50599218  0.90560782  1
  Sc  Sc61  1  0.49912998  0.09049261  0.89239772  1
  Sc  Sc62  1  0.50015336  0.49766057  0.49600711  1
  Sc  Sc63  1  0.91002773  0.30745760  0.09941217  1
  Sc  Sc64  1  0.30103270  0.49555997  0.11684118  1
  Sc  Sc65  1  0.70488229  0.30832588  0.69673504  1
  Sc  Sc66  1  0.68768193  0.31274130  0.09908757  1
  Sc  Sc67  1  0.91633117  0.50142356  0.69005971  1
  Sc  Sc68  1  0.10752456  0.90739526  0.89733356  1
  Sc  Sc69  1  0.90405655  0.70316070  0.49292568  1
  Sc  Sc70  1  0.89043953  0.90103792  0.70010612  1
  Sc  Sc71  1  0.50133205  0.70023341  0.09556579  1
  Sc  Sc72  1  0.10441298  0.30006186  0.10773083  1
  Sc  Sc73  1  0.90424820  0.29773412  0.69658946  1
  Sc  Sc74  1  0.70091126  0.09081543  0.09998078  1
  Sc  Sc75  1  0.29408757  0.30271717  0.31250110  1
  Sc  Sc76  1  0.10368837  0.89295512  0.30186667  1
  Sc  Sc77  1  0.70404485  0.70896126  0.70393398  1
  Sc  Sc78  1  0.30288420  0.70572233  0.88949139  1
  Sc  Sc79  1  0.89334627  0.89944613  0.09713620  1
  Sc  Sc80  1  0.69716073  0.09773651  0.30205590  1
  Sc  Sc81  1  0.70195090  0.90373713  0.30465233  1
  Sc  Sc82  1  0.90601318  0.10341173  0.29954929  1
  Sc  Sc83  1  0.29391615  0.90365127  0.29828346  1
  Sc  Sc84  1  0.10440350  0.70694732  0.11104134  1
  Sc  Sc85  1  0.29570204  0.89649809  0.49269934  1
  Sc  Sc86  1  0.10192720  0.10542178  0.30185735  1
  Sc  Sc87  1  0.29497931  0.09494056  0.10674444  1
  Sc  Sc88  1  0.49517892  0.09461038  0.49830726  1
  Sc  Sc89  1  0.29844925  0.09298318  0.30135876  1
  Sc  Sc90  1  0.69573807  0.89607839  0.69331836  1
  Sc  Sc91  1  0.70078567  0.70538288  0.50173745  1
  Sc  Sc92  1  0.48862323  0.70185594  0.50538950  1
  Sc  Sc93  1  0.69493762  0.89634688  0.89904391  1
  Sc  Sc94  1  0.29694400  0.89362249  0.90046242  1
  Sc  Sc95  1  0.10591303  0.09964507  0.10164695  1
  Sc  Sc96  1  0.69969273  0.31143252  0.90357359  1
  Sc  Sc97  1  0.49489814  0.10724846  0.30392839  1
  Sc  Sc98  1  0.30025914  0.10128616  0.49685654  1
  Sc  Sc99  1  0.49910230  0.89024469  0.09449336  1
  Nb  Nb100  1  0.29885518  0.69678063  0.51039455  1
  Nb  Nb101  1  0.70095512  0.50166318  0.10127403  1
  Nb  Nb102  1  0.08414671  0.50096671  0.50401596  1
  Nb  Nb103  1  0.09502664  0.90807640  0.49886602  1
  Nb  Nb104  1  0.90239433  0.90108194  0.50145909  1
  Nb  Nb105  1  0.10835384  0.49897610  0.89714461  1
  Nb  Nb106  1  0.29834518  0.29571578  0.69899785  1
  Nb  Nb107  1  0.30276491  0.49619138  0.30326315  1
  Nb  Nb108  1  0.89374284  0.50623084  0.10419861  1
  Nb  Nb109  1  0.10532007  0.29954737  0.69780972  1
  Nb  Nb110  1  0.30184823  0.70058615  0.09584984  1
  Nb  Nb111  1  0.91042822  0.50205713  0.50016696  1
  Nb  Nb112  1  0.30026395  0.69212395  0.68633006  1
  Nb  Nb113  1  0.49331347  0.89550317  0.89477438  1
  Nb  Nb114  1  0.10909965  0.30268486  0.89698493  1
  Nb  Nb115  1  0.50120501  0.69639158  0.30050125  1
  Nb  Nb116  1  0.30076104  0.49999529  0.89702712  1
  Nb  Nb117  1  0.90089426  0.10224796  0.90210424  1
  Nb  Nb118  1  0.50825144  0.89566824  0.50552251  1
  Nb  Nb119  1  0.09486379  0.29640658  0.30395653  1
  Nb  Nb120  1  0.29708325  0.30167974  0.89820343  1
  Nb  Nb121  1  0.30287289  0.50842325  0.70155288  1
  Nb  Nb122  1  0.09446387  0.09053865  0.50095637  1
  Nb  Nb123  1  0.29655672  0.89928340  0.70392308  1
  Nb  Nb124  1  0.49658347  0.29843722  0.69988251  1
  Nb  Nb125  1  0.80171746  0.20336691  0.39934736  1
  Nb  Nb126  1  0.81530277  0.40582285  0.80486126  1
  Nb  Nb127  1  0.00098637  -0.00225311  0.19702149  1
  Nb  Nb128  1  0.59872214  0.59896993  0.20059145  1
  Nb  Nb129  1  0.39382378  0.39641205  0.60853239  1
  Nb  Nb130  1  0.59651161  0.20249921  0.60391642  1
  Nb  Nb131  1  0.79997807  0.20726479  0.19651544  1
  Nb  Nb132  1  0.39126388  0.59792916  -0.00001448  1
  Nb  Nb133  1  0.00122207  0.79930432  -0.00334862  1
  Nb  Nb134  1  0.39872594  -0.00634308  -0.00184523  1
  Nb  Nb135  1  0.59360677  -0.00344344  0.19778478  1
  Nb  Nb136  1  0.79591414  0.79398977  0.20058535  1
  Nb  Nb137  1  0.80091678  0.40650634  0.19854585  1
  Nb  Nb138  1  0.59250715  0.80235651  0.40343541  1
  Nb  Nb139  1  0.20500795  0.59643111  -0.00252254  1
  Nb  Nb140  1  0.80172670  0.59835871  0.59709143  1
  Nb  Nb141  1  0.60369623  0.59974607  0.60123822  1
  Nb  Nb142  1  0.01241831  0.39858291  0.80246528  1
  Nb  Nb143  1  0.00819564  0.19465431  0.59915220  1
  Nb  Nb144  1  0.59825742  0.19850712  -0.00427287  1
  Nb  Nb145  1  0.59506307  0.20661979  0.79744341  1
  Nb  Nb146  1  0.20540498  0.39863459  0.79830073  1
  Nb  Nb147  1  0.39684391  0.79031602  0.20136542  1
  Nb  Nb148  1  0.79907397  0.19994931  0.00197517  1
  Nb  Nb149  1  0.00401924  0.81105525  0.59430574  1
  Pd  Pd150  1  0.58923605  0.00216727  0.00307200  1
  Pd  Pd151  1  0.01277229  0.60951536  0.00912353  1
  Pd  Pd152  1  0.20200433  0.79622008  0.39746927  1
  Pd  Pd153  1  0.80838823  0.40822455  0.60804571  1
  Pd  Pd154  1  0.20779021  0.40387987  0.00120975  1
  Pd  Pd155  1  0.00536577  0.39336566  -0.00414998  1
  Pd  Pd156  1  0.60373850  0.39729649  0.80431287  1
  Pd  Pd157  1  0.40388879  0.19958512  0.80570738  1
  Pd  Pd158  1  -0.00461033  0.40568591  0.20605680  1
  Pd  Pd159  1  0.19021221  0.78826171  -0.00892665  1
  Pd  Pd160  1  0.80213260  -0.00111586  0.20739078  1
  Pd  Pd161  1  0.19642556  0.19818369  0.80071543  1
  Pd  Pd162  1  0.59170523  0.40087677  0.59903806  1
  Pd  Pd163  1  0.00644929  0.20740137  0.00822218  1
  Pd  Pd164  1  0.79230120  -0.00852216  0.79989568  1
  Pd  Pd165  1  0.19425264  0.19847750  0.00289371  1
  Pd  Pd166  1  0.19938470  0.40829179  0.60515145  1
  Pd  Pd167  1  0.39172161  0.39756357  0.79411206  1
  Pd  Pd168  1  0.78827517  0.21210846  0.80612000  1
  Pd  Pd169  1  0.19271554  0.19243108  0.59340327  1
  Pd  Pd170  1  0.80525429  0.39807216  0.00106263  1
  Pd  Pd171  1  0.00242884  0.81067996  0.79697623  1
  Pd  Pd172  1  0.39134969  0.81036113  0.60123301  1
  Pd  Pd173  1  0.80329628  0.19875162  0.59414023  1
  Pd  Pd174  1  0.59628927  0.79637094  -0.01048515  1
  Pd  Pd175  1  0.39888856  -0.00278028  0.40449311  1
  Pd  Pd176  1  0.40096991  0.59972254  0.41046123  1
  Pd  Pd177  1  0.20352639  0.79627764  0.79637746  1
  Pd  Pd178  1  0.79709899  0.00233409  -0.00364432  1
  Pd  Pd179  1  0.39235515  -0.00988194  0.59306401  1
  Pd  Pd180  1  0.59789257  0.80113742  0.21083976  1
  Pd  Pd181  1  0.59263140  -0.00576884  0.39353812  1
  Pd  Pd182  1  0.60616921  0.18981889  0.19101825  1
  Pd  Pd183  1  0.81292346  0.39627851  0.38969471  1
  Pd  Pd184  1  0.00213935  -0.00204102  0.38728004  1
  Pd  Pd185  1  0.19883563  0.80748103  0.59695250  1
  Pd  Pd186  1  0.79579186  0.80092100  0.39853899  1
  Pd  Pd187  1  0.39029627  -0.00549469  0.80488232  1
  Pd  Pd188  1  -0.00728756  0.00187070  0.61312131  1
  Pd  Pd189  1  0.20512253  0.20545974  0.20447921  1
  Pd  Pd190  1  0.81270158  0.59334212  0.79330003  1
  Pd  Pd191  1  0.19689346  0.59940707  0.19516918  1
  Pd  Pd192  1  0.59154388  0.40210983  0.39742671  1
  Pd  Pd193  1  0.19435300  0.59862256  0.40377910  1
  Pd  Pd194  1  0.19505870  0.19528580  0.40522659  1
  Pd  Pd195  1  0.38518924  0.20474794  0.20902128  1
  Pd  Pd196  1  0.39992046  0.79748903  0.39634249  1
  Pd  Pd197  1  0.20541473  0.38907384  0.20344865  1
  Pd  Pd198  1  0.21090697  0.00013604  0.59373837  1
  Pd  Pd199  1  0.59021779  0.59832508  0.00165225  1
  Rh  Rh200  1  0.20616754  0.00373901  0.80286875  1
  Rh  Rh201  1  -0.00050054  0.19365188  0.19742481  1
  Rh  Rh202  1  -0.00218368  0.59205022  0.79465419  1
  Rh  Rh203  1  0.40026245  0.79928702  0.00221659  1
  Rh  Rh204  1  0.60446412  0.19771554  0.40895486  1
  Rh  Rh205  1  0.01049687  0.59485550  0.19800654  1
  Rh  Rh206  1  0.81202763  0.79310938  0.59845579  1
  Rh  Rh207  1  0.59862679  0.00459066  0.59991686  1
  Rh  Rh208  1  0.38951636  0.40871823  0.00336245  1
  Rh  Rh209  1  0.39542058  0.60871305  0.80268844  1
  Rh  Rh210  1  0.39341081  0.80143656  0.78891168  1
  Rh  Rh211  1  0.79021045  0.60102380  0.19947719  1
  Rh  Rh212  1  0.00030305  -0.00076000  0.79728422  1
  Rh  Rh213  1  0.00453362  -0.00869899  0.00623627  1
  Rh  Rh214  1  0.60530384  0.41130628  0.20726407  1
  Rh  Rh215  1  0.79936559  0.59795808  -0.00371529  1
  Rh  Rh216  1  0.00390682  0.40486406  0.39333095  1
  Rh  Rh217  1  0.80561635  0.79932084  0.00085511  1
  Rh  Rh218  1  0.80477790  0.00277615  0.60564523  1
  Rh  Rh219  1  0.01301243  0.20224990  0.79092408  1
  Rh  Rh220  1  0.40726975  0.60541385  0.19079796  1
  Rh  Rh221  1  0.19519286  0.00302716  0.40151038  1
  Rh  Rh222  1  0.19943513  0.59411964  0.59217438  1
  Rh  Rh223  1  0.59112116  0.60974080  0.40590854  1
  Rh  Rh224  1  0.00547999  0.80436052  0.40736693  1
  Rh  Rh225  1  -0.00571368  0.61707889  0.59891279  1
  Rh  Rh226  1  0.20984042  0.59873651  0.80096307  1
  Rh  Rh227  1  0.79647948  0.80658272  0.80337332  1
  Rh  Rh228  1  0.59687278  0.40215836  -0.00587778  1
  Rh  Rh229  1  0.00849673  0.39257900  0.60676841  1
  Rh  Rh230  1  0.40364594  -0.01456711  0.18872824  1
  Rh  Rh231  1  0.40338148  0.20412433  0.59878407  1
  Rh  Rh232  1  0.59706199  0.60713002  0.79328235  1
  Rh  Rh233  1  0.59911725  0.80188872  0.79922645  1
  Rh  Rh234  1  0.00199077  0.19876071  0.41154880  1
  Rh  Rh235  1  0.19398976  0.40253347  0.40147145  1
  Rh  Rh236  1  0.40528408  0.18893582  -0.00807495  1
  Rh  Rh237  1  0.39509540  0.19782961  0.39696967  1
  Rh  Rh238  1  0.59968846  0.79257787  0.59405599  1
  Rh  Rh239  1  0.20565481  0.00299236  -0.00195277  1
  Rh  Rh240  1  0.18943541  0.00097626  0.20654326  1
  Rh  Rh241  1  0.38819781  0.38827725  0.20376728  1
  Rh  Rh242  1  0.40388522  0.58872170  0.59567701  1
  Rh  Rh243  1  0.80712864  0.00658853  0.39664594  1
  Rh  Rh244  1  0.60124263  -0.00392597  0.79622093  1
  Rh  Rh245  1  0.00695206  0.60165827  0.39878381  1
  Rh  Rh246  1  -0.01245741  0.81022538  0.19210037  1
  Rh  Rh247  1  0.39731591  0.39872018  0.40543352  1
  Rh  Rh248  1  0.21310472  0.79143756  0.21109629  1
  Rh  Rh249  1  0.80832401  0.60287230  0.41187703  1
