# generated using pymatgen
data_ZrScNbPdRh
_symmetry_space_group_name_H-M   'P 1'
_cell_length_a   16.54671858
_cell_length_b   16.54779137
_cell_length_c   16.54701519
_cell_angle_alpha   90.00330898
_cell_angle_beta   90.01749245
_cell_angle_gamma   89.98844967
_symmetry_Int_Tables_number   1
_chemical_formula_structural   ZrScNbPdRh
_chemical_formula_sum   'Zr50 Sc50 Nb50 Pd50 Rh50'
_cell_volume   4530.76516951
_cell_formula_units_Z   50
loop_
 _symmetry_equiv_pos_site_id
 _symmetry_equiv_pos_as_xyz
  1  'x, y, z'
loop_
 _atom_site_type_symbol
 _atom_site_label
 _atom_site_symmetry_multiplicity
 _atom_site_fract_x
 _atom_site_fract_y
 _atom_site_fract_z
 _atom_site_occupancy
  Zr  Zr0  1  0.50841758  0.89334134  0.30835651  1
  Zr  Zr1  1  0.89442884  0.10707646  0.50825521  1
  Zr  Zr2  1  0.90580092  0.91029019  0.69908059  1
  Zr  Zr3  1  0.70067609  0.30349705  0.70273709  1
  Zr  Zr4  1  0.89749778  0.69617182  0.69058848  1
  Zr  Zr5  1  0.90255110  0.30022361  0.30413034  1
  Zr  Zr6  1  0.49967040  0.69427422  0.09918891  1
  Zr  Zr7  1  0.10507451  0.70383120  0.30615130  1
  Zr  Zr8  1  0.49817017  0.69699435  0.49302928  1
  Zr  Zr9  1  0.29696737  0.28912868  0.29943512  1
  Zr  Zr10  1  0.49722734  0.89697681  0.49744964  1
  Zr  Zr11  1  0.70445523  0.90465340  0.10676218  1
  Zr  Zr12  1  0.49971538  0.11145909  0.90254282  1
  Zr  Zr13  1  0.10636442  0.10756000  0.29578092  1
  Zr  Zr14  1  0.90043231  0.69881130  0.30310357  1
  Zr  Zr15  1  0.29991648  0.89966991  0.09144500  1
  Zr  Zr16  1  0.70771755  0.50188262  0.70316109  1
  Zr  Zr17  1  0.49519019  0.10084585  0.69848948  1
  Zr  Zr18  1  0.50087547  0.49838280  0.30874244  1
  Zr  Zr19  1  0.70057953  0.10307579  0.10059057  1
  Zr  Zr20  1  0.90264754  0.90497182  0.50261632  1
  Zr  Zr21  1  0.69869680  0.69948694  0.10000008  1
  Zr  Zr22  1  0.49571527  0.10245684  0.09736589  1
  Zr  Zr23  1  0.70717625  0.89962228  0.88929983  1
  Zr  Zr24  1  0.50463995  0.30893186  0.50373663  1
  Zr  Zr25  1  0.30343945  0.09437159  0.89820956  1
  Zr  Zr26  1  0.49533645  0.69901489  0.29953550  1
  Zr  Zr27  1  0.09041391  0.30256547  0.49863563  1
  Zr  Zr28  1  0.30189146  0.71145208  0.90498873  1
  Zr  Zr29  1  0.69395229  0.90490246  0.49156965  1
  Zr  Zr30  1  0.89985417  0.49503645  0.89517707  1
  Zr  Zr31  1  0.50472946  0.50643725  0.50184730  1
  Zr  Zr32  1  0.70312847  0.29550729  0.50479323  1
  Zr  Zr33  1  0.89221896  0.09645887  0.90165030  1
  Zr  Zr34  1  0.89669369  0.10438374  0.09746188  1
  Zr  Zr35  1  0.49858162  0.90107592  0.69555950  1
  Zr  Zr36  1  0.10007808  0.69588549  0.09677704  1
  Zr  Zr37  1  0.70210127  0.70137777  0.71011998  1
  Zr  Zr38  1  0.50737574  0.70007367  0.90225642  1
  Zr  Zr39  1  0.48232578  0.50331567  0.69642629  1
  Zr  Zr40  1  0.69331589  0.49358105  0.50100057  1
  Zr  Zr41  1  0.10486606  0.49791343  0.30314869  1
  Zr  Zr42  1  0.29823684  0.90569954  0.70536655  1
  Zr  Zr43  1  0.10097677  0.49343956  0.09361849  1
  Zr  Zr44  1  0.30368993  0.69549292  0.70314953  1
  Zr  Zr45  1  0.29481210  0.49281110  0.89074340  1
  Zr  Zr46  1  0.09639715  0.89925163  0.30459216  1
  Zr  Zr47  1  0.10030294  0.29942329  0.90632410  1
  Zr  Zr48  1  0.09701708  0.70552607  0.69320685  1
  Zr  Zr49  1  0.49623675  0.10873811  0.29407553  1
  Sc  Sc50  1  0.09788699  0.71157509  0.90243711  1
  Sc  Sc51  1  0.30685316  0.49328842  0.29617977  1
  Sc  Sc52  1  0.90569176  0.69432230  0.10438026  1
  Sc  Sc53  1  0.29234375  0.88534355  0.29778902  1
  Sc  Sc54  1  0.31221848  0.50406892  0.49853590  1
  Sc  Sc55  1  0.10072693  0.29348139  0.29709589  1
  Sc  Sc56  1  0.89744182  0.90870628  0.10619763  1
  Sc  Sc57  1  0.10652761  0.09758768  0.69839871  1
  Sc  Sc58  1  0.89967648  0.30299441  0.90011485  1
  Sc  Sc59  1  0.89658994  0.30245390  0.09312718  1
  Sc  Sc60  1  0.09098240  0.50401663  0.49750678  1
  Sc  Sc61  1  0.89678135  0.48762729  0.70030442  1
  Sc  Sc62  1  0.90655411  0.09824700  0.29915522  1
  Sc  Sc63  1  0.50209518  0.29424403  0.09248659  1
  Sc  Sc64  1  0.50168703  0.89808806  0.10837274  1
  Sc  Sc65  1  0.48551964  0.90735994  0.89542003  1
  Sc  Sc66  1  0.10027851  0.89221472  0.50514407  1
  Sc  Sc67  1  0.70232515  0.89458984  0.69437171  1
  Sc  Sc68  1  0.09777903  0.70245156  0.49858379  1
  Sc  Sc69  1  0.10481327  0.11077244  0.50387396  1
  Sc  Sc70  1  0.30708318  0.29944748  0.69831574  1
  Sc  Sc71  1  0.69853965  0.90008011  0.29806507  1
  Sc  Sc72  1  0.29673689  0.10432684  0.69865030  1
  Sc  Sc73  1  0.90499441  0.70226415  0.89493413  1
  Sc  Sc74  1  0.69806410  0.10410803  0.68931208  1
  Sc  Sc75  1  0.30174029  0.29292806  0.50569741  1
  Sc  Sc76  1  0.49702062  0.29603107  0.29989595  1
  Sc  Sc77  1  0.30028747  0.10528715  0.50916189  1
  Sc  Sc78  1  0.89760901  0.50662333  0.29759981  1
  Sc  Sc79  1  0.48334804  0.49807281  0.09792974  1
  Sc  Sc80  1  0.30022565  0.29464199  0.89610259  1
  Sc  Sc81  1  0.69977403  0.70052741  0.29928687  1
  Sc  Sc82  1  0.70239859  0.10106536  0.49671778  1
  Sc  Sc83  1  0.30955348  0.70066440  0.09959128  1
  Sc  Sc84  1  0.09743067  0.29611305  0.70056277  1
  Sc  Sc85  1  0.70990945  0.50232712  0.29995545  1
  Sc  Sc86  1  0.29464749  0.70187248  0.49227056  1
  Sc  Sc87  1  0.10153937  0.89069179  0.10165180  1
  Sc  Sc88  1  0.69682338  0.09960529  0.30416719  1
  Sc  Sc89  1  0.50035056  0.29767707  0.70287797  1
  Sc  Sc90  1  0.09810704  0.11477091  0.10216913  1
  Sc  Sc91  1  0.50220802  0.09755161  0.50554730  1
  Sc  Sc92  1  0.49829218  0.48866239  0.90337146  1
  Sc  Sc93  1  0.69583011  0.69033134  0.50924620  1
  Sc  Sc94  1  0.50218571  0.70123341  0.69638075  1
  Sc  Sc95  1  0.71238072  0.49405932  0.10131689  1
  Sc  Sc96  1  0.90451715  0.90549901  0.30036815  1
  Sc  Sc97  1  0.69653261  0.29582072  0.30739600  1
  Sc  Sc98  1  0.29197520  0.30859990  0.10182313  1
  Sc  Sc99  1  0.29906232  0.89421407  0.50596871  1
  Nb  Nb100  1  0.29702557  0.10258105  0.29820090  1
  Nb  Nb101  1  0.89985698  0.10475088  0.69841026  1
  Nb  Nb102  1  0.70127017  0.69929645  0.89913782  1
  Nb  Nb103  1  0.29704110  0.69050849  0.30464381  1
  Nb  Nb104  1  0.29835705  0.49946522  0.70127301  1
  Nb  Nb105  1  0.09745569  0.30209172  0.10210820  1
  Nb  Nb106  1  0.89868839  0.29448998  0.69677396  1
  Nb  Nb107  1  0.89704101  0.49969138  0.10168051  1
  Nb  Nb108  1  0.10789508  0.49892754  0.71113199  1
  Nb  Nb109  1  0.68142968  0.30226283  0.90046242  1
  Nb  Nb110  1  0.90572753  0.69951717  0.50166509  1
  Nb  Nb111  1  0.90333394  0.90697926  0.89981610  1
  Nb  Nb112  1  0.90169411  0.49390945  0.49798882  1
  Nb  Nb113  1  0.10154248  0.90379462  0.89422319  1
  Nb  Nb114  1  0.09876114  0.49486541  0.89270866  1
  Nb  Nb115  1  0.69910210  0.10208576  0.90131570  1
  Nb  Nb116  1  0.10229231  0.10623190  0.89843465  1
  Nb  Nb117  1  0.29249936  0.90430293  0.90020680  1
  Nb  Nb118  1  0.90271789  0.30427038  0.50761668  1
  Nb  Nb119  1  0.10353691  0.89868909  0.70269420  1
  Nb  Nb120  1  0.70052419  0.30327006  0.10516496  1
  Nb  Nb121  1  0.50931280  0.29681930  0.89850261  1
  Nb  Nb122  1  0.30005647  0.09583960  0.10427901  1
  Nb  Nb123  1  0.70390190  0.49902820  0.89382266  1
  Nb  Nb124  1  0.29307545  0.49919354  0.09952731  1
  Nb  Nb125  1  0.80695589  0.39772710  0.40864813  1
  Nb  Nb126  1  0.60473741  0.00001187  -0.00614751  1
  Nb  Nb127  1  0.60020744  0.00476489  0.80293659  1
  Nb  Nb128  1  0.80608195  0.79610518  0.40817040  1
  Nb  Nb129  1  0.79962934  0.80020971  -0.00406179  1
  Nb  Nb130  1  0.19566932  0.00131842  -0.00552859  1
  Nb  Nb131  1  0.20003025  0.39657730  0.40629704  1
  Nb  Nb132  1  0.39248625  0.00194309  0.20711372  1
  Nb  Nb133  1  0.79928256  0.60005702  -0.00659718  1
  Nb  Nb134  1  0.79786025  0.20437057  0.19875533  1
  Nb  Nb135  1  -0.00143918  0.40154947  0.19453167  1
  Nb  Nb136  1  0.00638862  0.59400383  0.79676238  1
  Nb  Nb137  1  0.00647819  0.00102851  -0.00879674  1
  Nb  Nb138  1  0.20455974  0.59670889  0.19652444  1
  Nb  Nb139  1  0.39317930  0.00144422  0.39313443  1
  Nb  Nb140  1  0.60467092  0.59662288  0.80547093  1
  Nb  Nb141  1  -0.00625194  0.19446468  0.80014778  1
  Nb  Nb142  1  0.20525332  0.00461982  0.39542127  1
  Nb  Nb143  1  0.59648545  0.59263222  0.19689378  1
  Nb  Nb144  1  0.20024370  0.59302868  0.60672259  1
  Nb  Nb145  1  0.79743214  0.19962667  0.80144990  1
  Nb  Nb146  1  0.19931680  0.59332144  -0.00297985  1
  Nb  Nb147  1  0.60689748  0.80747370  -0.00426756  1
  Nb  Nb148  1  0.20006445  0.40831145  0.60108042  1
  Nb  Nb149  1  0.60232121  0.40081517  0.19834734  1
  Pd  Pd150  1  0.39755585  0.80278325  0.20392000  1
  Pd  Pd151  1  0.79135806  0.21312132  -0.00413792  1
  Pd  Pd152  1  -0.00072141  0.59621851  -0.01098324  1
  Pd  Pd153  1  0.39810687  0.20288777  0.79863982  1
  Pd  Pd154  1  0.60128321  0.40779514  0.01007396  1
  Pd  Pd155  1  0.59471980  0.19685714  0.40641769  1
  Pd  Pd156  1  0.60326476  -0.00014795  0.60249978  1
  Pd  Pd157  1  0.00709778  0.59394033  0.20400274  1
  Pd  Pd158  1  0.20707345  0.19704125  0.00559199  1
  Pd  Pd159  1  0.60220793  0.79594637  0.59670447  1
  Pd  Pd160  1  -0.00459063  0.79825538  0.79348330  1
  Pd  Pd161  1  0.01164030  0.00829012  0.40917563  1
  Pd  Pd162  1  0.59287461  0.00429738  0.19983268  1
  Pd  Pd163  1  0.40234131  0.19512028  0.41047063  1
  Pd  Pd164  1  0.80585417  0.79902917  0.20402294  1
  Pd  Pd165  1  0.39268981  0.39273327  0.40388304  1
  Pd  Pd166  1  -0.00323301  0.19309050  0.40296098  1
  Pd  Pd167  1  0.59530266  0.40389521  0.61293249  1
  Pd  Pd168  1  0.40363619  0.80147134  0.79946514  1
  Pd  Pd169  1  0.00937195  0.00290346  0.18896425  1
  Pd  Pd170  1  0.80184785  -0.00253918  0.39513535  1
  Pd  Pd171  1  0.00391370  0.58898809  0.60666703  1
  Pd  Pd172  1  -0.00460759  0.80093235  0.19939358  1
  Pd  Pd173  1  0.39366402  0.39134357  -0.00407207  1
  Pd  Pd174  1  0.40672250  0.60043531  0.81095625  1
  Pd  Pd175  1  0.19955657  -0.00257324  0.59296875  1
  Pd  Pd176  1  0.39539635  0.79403429  0.59775027  1
  Pd  Pd177  1  0.00654886  0.40633234  0.61013840  1
  Pd  Pd178  1  0.19907499  0.79887696  0.79766183  1
  Pd  Pd179  1  -0.00023997  0.60099492  0.39963701  1
  Pd  Pd180  1  0.79812210  0.60028287  0.40969743  1
  Pd  Pd181  1  0.38920829  0.20904276  0.00441799  1
  Pd  Pd182  1  0.60738086  0.58858379  0.00122045  1
  Pd  Pd183  1  0.20486885  0.78884444  0.19485755  1
  Pd  Pd184  1  -0.00924245  0.81050259  0.00420412  1
  Pd  Pd185  1  0.81408968  0.80129468  0.80022649  1
  Pd  Pd186  1  0.79118746  0.00778260  0.78705486  1
  Pd  Pd187  1  0.59130420  0.40935599  0.79218776  1
  Pd  Pd188  1  -0.00263185  0.39895881  0.00245464  1
  Pd  Pd189  1  0.19755564  -0.00179678  0.19688949  1
  Pd  Pd190  1  0.40561031  0.39237939  0.19897521  1
  Pd  Pd191  1  0.01039111  0.00532027  0.59574497  1
  Pd  Pd192  1  0.19402274  0.61140529  0.80535474  1
  Pd  Pd193  1  0.80268054  0.59266777  0.59453421  1
  Pd  Pd194  1  0.38993106  0.59310327  -0.00897489  1
  Pd  Pd195  1  0.00701861  0.00818620  0.80041531  1
  Pd  Pd196  1  0.41120843  0.80799293  -0.00010400  1
  Pd  Pd197  1  0.79595721  0.39972391  -0.00697156  1
  Pd  Pd198  1  0.79973530  0.80380673  0.59309813  1
  Pd  Pd199  1  0.20136827  0.38431261  0.79351393  1
  Rh  Rh200  1  0.60646176  0.20902843  0.19816098  1
  Rh  Rh201  1  0.39779466  0.60034351  0.39900553  1
  Rh  Rh202  1  0.39356740  0.80225498  0.39670400  1
  Rh  Rh203  1  0.20131467  0.40045944  -0.00593067  1
  Rh  Rh204  1  0.39466970  -0.00061772  0.59534321  1
  Rh  Rh205  1  0.80625951  0.60126124  0.80490429  1
  Rh  Rh206  1  0.59249582  0.80295719  0.80365294  1
  Rh  Rh207  1  0.20065399  0.20102441  0.40498840  1
  Rh  Rh208  1  0.80034225  0.01197166  0.20985639  1
  Rh  Rh209  1  0.00198011  0.19722663  0.60686374  1
  Rh  Rh210  1  0.19397851  0.39923611  0.20858217  1
  Rh  Rh211  1  0.40061208  0.00335265  0.79478872  1
  Rh  Rh212  1  0.80234319  0.40073678  0.59540916  1
  Rh  Rh213  1  0.59722620  0.79067680  0.19525417  1
  Rh  Rh214  1  0.79831252  0.20155224  0.60453572  1
  Rh  Rh215  1  0.79713001  0.00026093  0.60119502  1
  Rh  Rh216  1  0.60527827  0.19873654  0.00399001  1
  Rh  Rh217  1  0.61284015  0.79019709  0.40508862  1
  Rh  Rh218  1  0.40323092  0.39292038  0.80372444  1
  Rh  Rh219  1  0.19535788  0.20065255  0.79716619  1
  Rh  Rh220  1  -0.00005502  0.19676297  -0.00520027  1
  Rh  Rh221  1  0.80092584  -0.00975375  0.00051350  1
  Rh  Rh222  1  0.19808221  0.21218469  0.60396958  1
  Rh  Rh223  1  0.39200313  0.60753959  0.59514409  1
  Rh  Rh224  1  0.40705550  0.20177449  0.59987523  1
  Rh  Rh225  1  0.59026621  0.00728099  0.39771720  1
  Rh  Rh226  1  0.80683612  0.20441266  0.39798685  1
  Rh  Rh227  1  0.19962463  0.80578427  0.40306655  1
  Rh  Rh228  1  -0.00040200  0.39443204  0.79668088  1
  Rh  Rh229  1  0.20454448  0.59039197  0.40052847  1
  Rh  Rh230  1  0.60600298  0.19419627  0.79727193  1
  Rh  Rh231  1  0.59809255  0.20201023  0.59756556  1
  Rh  Rh232  1  0.79680068  0.60349331  0.19023172  1
  Rh  Rh233  1  0.60508379  0.60156596  0.39065296  1
  Rh  Rh234  1  -0.00655646  0.79895827  0.40259780  1
  Rh  Rh235  1  -0.00185440  0.40216014  0.39080854  1
  Rh  Rh236  1  0.79855577  0.38607048  0.80489257  1
  Rh  Rh237  1  0.40007312  -0.00263989  0.00688973  1
  Rh  Rh238  1  0.19834036  0.80114160  -0.00015009  1
  Rh  Rh239  1  0.60959611  0.40212982  0.39061802  1
  Rh  Rh240  1  -0.01092571  0.21109843  0.19293591  1
  Rh  Rh241  1  0.20293366  0.79334146  0.60408310  1
  Rh  Rh242  1  0.59903066  0.59790426  0.61498661  1
  Rh  Rh243  1  0.20349137  0.20481952  0.19122570  1
  Rh  Rh244  1  0.39643692  0.39803304  0.59854980  1
  Rh  Rh245  1  0.39313308  0.20093557  0.19021752  1
  Rh  Rh246  1  0.19906961  0.00311779  0.80157574  1
  Rh  Rh247  1  0.80256767  0.39167959  0.21146566  1
  Rh  Rh248  1  0.39713460  0.59711014  0.20457846  1
  Rh  Rh249  1  -0.00241135  0.80624578  0.60258296  1
