# generated using pymatgen
data_ZrScNbPdRh
_symmetry_space_group_name_H-M   'P 1'
_cell_length_a   16.55601490
_cell_length_b   16.55343666
_cell_length_c   16.55050581
_cell_angle_alpha   89.98818649
_cell_angle_beta   90.00408151
_cell_angle_gamma   89.99609516
_symmetry_Int_Tables_number   1
_chemical_formula_structural   ZrScNbPdRh
_chemical_formula_sum   'Zr50 Sc50 Nb50 Pd50 Rh50'
_cell_volume   4535.81402813
_cell_formula_units_Z   50
loop_
 _symmetry_equiv_pos_site_id
 _symmetry_equiv_pos_as_xyz
  1  'x, y, z'
loop_
 _atom_site_type_symbol
 _atom_site_label
 _atom_site_symmetry_multiplicity
 _atom_site_fract_x
 _atom_site_fract_y
 _atom_site_fract_z
 _atom_site_occupancy
  Zr  Zr0  1  0.49909681  0.10420517  0.30987464  1
  Zr  Zr1  1  0.09712257  0.29922830  0.30985868  1
  Zr  Zr2  1  0.09604004  0.10016183  0.90009995  1
  Zr  Zr3  1  0.89876051  0.09861743  0.68753161  1
  Zr  Zr4  1  0.29954540  0.49385830  0.89519815  1
  Zr  Zr5  1  0.49965220  0.70069882  0.49863386  1
  Zr  Zr6  1  0.29173136  0.50081979  0.30729858  1
  Zr  Zr7  1  0.90192592  0.89962143  0.69631449  1
  Zr  Zr8  1  0.09484104  0.50439386  0.30027744  1
  Zr  Zr9  1  0.09786147  0.49470461  0.89551821  1
  Zr  Zr10  1  0.50734384  0.49984251  0.30595705  1
  Zr  Zr11  1  0.69645977  0.68844117  0.69729045  1
  Zr  Zr12  1  0.89792328  0.89501317  0.30762728  1
  Zr  Zr13  1  0.30498950  0.89244193  0.29831311  1
  Zr  Zr14  1  0.49851977  0.70784987  0.69505317  1
  Zr  Zr15  1  0.30149043  0.49304096  0.10461725  1
  Zr  Zr16  1  0.49877791  0.09709220  0.49862838  1
  Zr  Zr17  1  0.49709284  0.50442096  0.69340730  1
  Zr  Zr18  1  0.50043614  0.09900067  0.10730770  1
  Zr  Zr19  1  0.90471025  0.49872129  0.30560671  1
  Zr  Zr20  1  0.70194516  0.50039765  0.30046859  1
  Zr  Zr21  1  0.50153432  0.89533122  0.90150528  1
  Zr  Zr22  1  0.90602972  0.29303644  0.91289406  1
  Zr  Zr23  1  0.09897030  0.30513462  0.89903526  1
  Zr  Zr24  1  0.30521286  0.09843701  0.49449104  1
  Zr  Zr25  1  0.09387279  0.29735657  0.09688021  1
  Zr  Zr26  1  0.50538491  0.70155839  0.89831222  1
  Zr  Zr27  1  0.49369303  0.30800371  0.09955199  1
  Zr  Zr28  1  0.69944010  0.50617243  0.89631271  1
  Zr  Zr29  1  0.70504373  0.70117029  0.09952646  1
  Zr  Zr30  1  0.30304123  0.89876514  0.89915324  1
  Zr  Zr31  1  0.91254743  0.29439997  0.49576766  1
  Zr  Zr32  1  0.70278841  0.69716002  0.90292732  1
  Zr  Zr33  1  0.10276278  0.89333130  0.68651437  1
  Zr  Zr34  1  0.29674073  0.30309551  0.69351493  1
  Zr  Zr35  1  0.50071933  0.10323996  0.89063487  1
  Zr  Zr36  1  0.49946632  0.70562036  0.29977296  1
  Zr  Zr37  1  0.11429807  0.69823984  0.30094664  1
  Zr  Zr38  1  0.89887142  0.70755274  0.09101561  1
  Zr  Zr39  1  0.49843345  0.09721917  0.69286328  1
  Zr  Zr40  1  0.69679800  0.09544598  0.49825770  1
  Zr  Zr41  1  0.29675269  0.30385564  0.50192252  1
  Zr  Zr42  1  0.30941051  0.70628841  0.89955498  1
  Zr  Zr43  1  0.09905538  0.90384502  0.89414086  1
  Zr  Zr44  1  0.10449628  0.50023519  0.10663314  1
  Zr  Zr45  1  0.88409415  0.29126369  0.10340605  1
  Zr  Zr46  1  0.70465947  0.30333833  0.69970739  1
  Zr  Zr47  1  0.69536809  0.09419428  0.90382321  1
  Zr  Zr48  1  0.30424304  0.09715235  0.29433987  1
  Zr  Zr49  1  0.69884072  0.30097669  0.29642540  1
  Sc  Sc50  1  0.70369453  0.90374100  0.89877974  1
  Sc  Sc51  1  0.69595456  0.50534848  0.49991157  1
  Sc  Sc52  1  0.89504244  0.69903036  0.30711382  1
  Sc  Sc53  1  0.50131841  0.89654522  0.10451756  1
  Sc  Sc54  1  0.10126511  0.50925251  0.49967765  1
  Sc  Sc55  1  0.49688211  0.50002443  0.49674698  1
  Sc  Sc56  1  0.49713360  0.89587147  0.30557966  1
  Sc  Sc57  1  0.89356527  0.69763567  0.50348676  1
  Sc  Sc58  1  0.89889319  0.50204463  0.50177884  1
  Sc  Sc59  1  0.30426657  0.10288561  0.68814771  1
  Sc  Sc60  1  0.89814734  0.50061415  0.89652078  1
  Sc  Sc61  1  0.69448383  0.70432357  0.29798546  1
  Sc  Sc62  1  0.89899970  0.50419783  0.69484526  1
  Sc  Sc63  1  0.89610443  0.50198616  0.11014862  1
  Sc  Sc64  1  0.50787028  0.70699975  0.10152121  1
  Sc  Sc65  1  0.29742732  0.90003015  0.49540593  1
  Sc  Sc66  1  0.29688192  0.29978840  0.11524606  1
  Sc  Sc67  1  0.70189249  0.50394447  0.09629451  1
  Sc  Sc68  1  0.89980489  0.90193479  0.09453551  1
  Sc  Sc69  1  0.89645473  0.09610442  0.91277260  1
  Sc  Sc70  1  0.10709296  0.70393034  0.50663993  1
  Sc  Sc71  1  0.89864642  0.70241001  0.89735723  1
  Sc  Sc72  1  0.89941915  0.30832748  0.68279952  1
  Sc  Sc73  1  0.89313249  0.88897903  0.50259073  1
  Sc  Sc74  1  0.89702291  0.30551328  0.30395068  1
  Sc  Sc75  1  0.70752282  0.30493490  0.90676661  1
  Sc  Sc76  1  0.90025704  0.89439064  0.90383852  1
  Sc  Sc77  1  0.10414613  0.70220585  0.10840127  1
  Sc  Sc78  1  0.69496290  0.10947261  0.30732675  1
  Sc  Sc79  1  0.70749993  0.30437000  0.49511474  1
  Sc  Sc80  1  0.48435755  0.29217405  0.70754775  1
  Sc  Sc81  1  0.90381215  0.69831490  0.69610437  1
  Sc  Sc82  1  0.69983951  0.70087922  0.50291558  1
  Sc  Sc83  1  0.10672757  0.09723038  0.30081742  1
  Sc  Sc84  1  0.11182405  0.89489476  0.30727518  1
  Sc  Sc85  1  0.10534942  0.09895423  0.50260981  1
  Sc  Sc86  1  0.10288252  0.09380407  0.10515691  1
  Sc  Sc87  1  0.69907150  0.89901350  0.49531689  1
  Sc  Sc88  1  0.70034129  0.90168819  0.09312419  1
  Sc  Sc89  1  0.70275694  0.89824327  0.69484388  1
  Sc  Sc90  1  0.09621588  0.08280387  0.69293200  1
  Sc  Sc91  1  0.09840131  0.90248732  0.10028602  1
  Sc  Sc92  1  0.70388493  0.10645026  0.10080429  1
  Sc  Sc93  1  0.30591218  0.30508768  0.88592254  1
  Sc  Sc94  1  0.69773398  0.09313984  0.70155566  1
  Sc  Sc95  1  0.90205280  0.10578779  0.30812024  1
  Sc  Sc96  1  0.29408669  0.09456963  0.89056631  1
  Sc  Sc97  1  0.30049282  0.49482870  0.68862682  1
  Sc  Sc98  1  0.30093442  0.70918232  0.11132391  1
  Sc  Sc99  1  0.08959433  0.70387638  0.89500574  1
  Nb  Nb100  1  0.30240979  0.89396429  0.69748208  1
  Nb  Nb101  1  0.29837735  0.69961379  0.69196934  1
  Nb  Nb102  1  0.09797287  0.29986337  0.50302205  1
  Nb  Nb103  1  0.30507495  0.50484391  0.50308592  1
  Nb  Nb104  1  0.69637475  0.29643490  0.10610668  1
  Nb  Nb105  1  0.29855610  0.29382301  0.30543598  1
  Nb  Nb106  1  0.90663703  0.10003352  0.50023338  1
  Nb  Nb107  1  0.09410334  0.50832354  0.70407217  1
  Nb  Nb108  1  0.30490314  0.90400534  0.10164618  1
  Nb  Nb109  1  0.10542588  0.69183274  0.69523874  1
  Nb  Nb110  1  0.49516903  0.49217952  0.90588435  1
  Nb  Nb111  1  0.50153574  0.30013265  0.49340924  1
  Nb  Nb112  1  0.50489288  0.29669319  0.30654136  1
  Nb  Nb113  1  0.10448163  0.90384350  0.49937658  1
  Nb  Nb114  1  0.70127016  0.90474918  0.30059826  1
  Nb  Nb115  1  0.89854004  0.10259891  0.10535327  1
  Nb  Nb116  1  0.49879154  0.90668388  0.50434403  1
  Nb  Nb117  1  0.49578484  0.30248820  0.90017320  1
  Nb  Nb118  1  0.30089188  0.70398688  0.30447904  1
  Nb  Nb119  1  0.09940727  0.30996866  0.69938580  1
  Nb  Nb120  1  0.49308280  0.49578341  0.09856008  1
  Nb  Nb121  1  0.49426338  0.89952850  0.69004223  1
  Nb  Nb122  1  0.29815829  0.68963946  0.49845750  1
  Nb  Nb123  1  0.69821954  0.49467994  0.69756644  1
  Nb  Nb124  1  0.30163042  0.09935440  0.10311292  1
  Nb  Nb125  1  0.60526298  0.00017604  0.20716053  1
  Nb  Nb126  1  0.00693825  0.59804824  0.00248168  1
  Nb  Nb127  1  0.00066273  -0.00361394  0.40724125  1
  Nb  Nb128  1  0.59737189  0.39476216  0.60450439  1
  Nb  Nb129  1  0.40132446  0.59630463  0.00219884  1
  Nb  Nb130  1  0.18902166  0.20351202  0.79513343  1
  Nb  Nb131  1  0.20199010  0.79563568  0.79292066  1
  Nb  Nb132  1  0.59698866  0.20553400  0.59879243  1
  Nb  Nb133  1  0.39902200  0.00395339  0.00087504  1
  Nb  Nb134  1  0.39595421  0.19792253  -0.00110459  1
  Nb  Nb135  1  0.80742626  0.19975220  0.79902027  1
  Nb  Nb136  1  0.59666885  0.39808738  0.19733821  1
  Nb  Nb137  1  0.20583350  0.19805452  -0.00182352  1
  Nb  Nb138  1  0.59500473  0.40206513  0.80179439  1
  Nb  Nb139  1  0.39893445  0.60167737  0.80052212  1
  Nb  Nb140  1  0.20224074  0.80139824  -0.00495131  1
  Nb  Nb141  1  0.40272617  -0.00859969  0.79502363  1
  Nb  Nb142  1  -0.00069814  0.80135564  0.20614728  1
  Nb  Nb143  1  -0.00133096  0.20222355  0.79296721  1
  Nb  Nb144  1  -0.00268134  0.19874406  0.19912356  1
  Nb  Nb145  1  0.59309473  0.20688871  0.00020267  1
  Nb  Nb146  1  0.20265572  0.60414557  -0.00405056  1
  Nb  Nb147  1  0.20225313  0.60357141  0.79565673  1
  Nb  Nb148  1  0.79877594  0.00171515  0.20605405  1
  Nb  Nb149  1  0.40196219  0.59700323  0.20138357  1
  Pd  Pd150  1  -0.00100301  0.79434145  0.59445200  1
  Pd  Pd151  1  0.20544597  0.00004756  0.00405324  1
  Pd  Pd152  1  0.80667735  0.00349416  0.40103357  1
  Pd  Pd153  1  0.80700528  0.00457185  0.80285326  1
  Pd  Pd154  1  0.20831528  0.39186008  0.00131454  1
  Pd  Pd155  1  0.01225426  0.19797877  0.60501951  1
  Pd  Pd156  1  0.80285827  0.40298369  0.40599136  1
  Pd  Pd157  1  0.19140704  0.19531534  0.60573564  1
  Pd  Pd158  1  0.59478356  -0.01210654  0.79029392  1
  Pd  Pd159  1  -0.01171365  0.00501636  0.80175168  1
  Pd  Pd160  1  0.60534831  0.80473261  0.59725992  1
  Pd  Pd161  1  0.80102293  0.20106723  0.40026077  1
  Pd  Pd162  1  0.40087514  0.60137436  0.39506632  1
  Pd  Pd163  1  0.60698013  0.80635901  0.79459203  1
  Pd  Pd164  1  0.59513891  0.59441936  0.19292974  1
  Pd  Pd165  1  -0.00701002  -0.00093698  0.21225002  1
  Pd  Pd166  1  0.19485689  0.39284343  0.20935479  1
  Pd  Pd167  1  0.60591572  0.80327198  0.00038997  1
  Pd  Pd168  1  0.19127293  0.41005487  0.59564168  1
  Pd  Pd169  1  0.19917862  0.19517590  0.40127645  1
  Pd  Pd170  1  -0.01147292  0.41123685  0.01028040  1
  Pd  Pd171  1  0.20118467  -0.00588861  0.20329033  1
  Pd  Pd172  1  0.19436024  0.40405948  0.40726292  1
  Pd  Pd173  1  0.39797656  0.39666969  0.39846813  1
  Pd  Pd174  1  0.20626631  -0.00070333  0.78586715  1
  Pd  Pd175  1  0.59359812  0.59758462  0.00671046  1
  Pd  Pd176  1  0.79370469  0.60421803  0.40054442  1
  Pd  Pd177  1  -0.00254416  0.00076566  0.00269217  1
  Pd  Pd178  1  0.80645284  0.60222445  0.79455583  1
  Pd  Pd179  1  -0.01342940  0.39510444  0.79465332  1
  Pd  Pd180  1  0.59183964  0.59415359  0.79909445  1
  Pd  Pd181  1  0.79216001  0.19792266  0.59869537  1
  Pd  Pd182  1  -0.00720648  0.61222199  0.19723789  1
  Pd  Pd183  1  0.60136962  0.80383991  0.40173507  1
  Pd  Pd184  1  0.80068474  0.40606397  0.00563768  1
  Pd  Pd185  1  0.00316300  0.79801006  0.79106165  1
  Pd  Pd186  1  0.00600643  0.41075542  0.59334222  1
  Pd  Pd187  1  -0.00494363  0.39095699  0.19821848  1
  Pd  Pd188  1  0.40199880  0.20493734  0.20285153  1
  Pd  Pd189  1  0.80352118  0.60382514  0.20414957  1
  Pd  Pd190  1  0.60996937  0.21065605  0.80069716  1
  Pd  Pd191  1  0.80508054  0.39514746  0.80129455  1
  Pd  Pd192  1  0.00585703  0.79906814  0.40154176  1
  Pd  Pd193  1  0.00276911  0.61066786  0.40776893  1
  Pd  Pd194  1  0.80226137  0.80715945  0.19914727  1
  Pd  Pd195  1  0.60542123  0.39811039  -0.00006380  1
  Pd  Pd196  1  0.79721464  0.79663872  0.79639077  1
  Pd  Pd197  1  0.39191047  0.79932950  0.58760606  1
  Pd  Pd198  1  0.79856239  -0.00482828  0.59265050  1
  Pd  Pd199  1  0.40327157  0.40091725  0.21815835  1
  Rh  Rh200  1  0.79022508  0.40324251  0.19945963  1
  Rh  Rh201  1  0.60296769  0.00054638  0.59910382  1
  Rh  Rh202  1  0.19609004  0.80906834  0.19266616  1
  Rh  Rh203  1  0.60610687  0.81161392  0.20135185  1
  Rh  Rh204  1  0.00110085  0.60133191  0.80343500  1
  Rh  Rh205  1  0.60116745  0.60617971  0.40406069  1
  Rh  Rh206  1  0.40013149  0.80025173  0.78899901  1
  Rh  Rh207  1  0.39792584  0.79916640  0.40809439  1
  Rh  Rh208  1  0.59467991  -0.00636409  0.39585151  1
  Rh  Rh209  1  0.00435358  0.40308865  0.40737817  1
  Rh  Rh210  1  0.39495481  0.20573627  0.40191647  1
  Rh  Rh211  1  0.19899506  0.00161487  0.39898773  1
  Rh  Rh212  1  0.00810073  0.18899591  0.00847918  1
  Rh  Rh213  1  0.40688353  -0.00464038  0.19987908  1
  Rh  Rh214  1  0.78867656  0.19488536  -0.00472200  1
  Rh  Rh215  1  0.79427380  0.40801029  0.59223319  1
  Rh  Rh216  1  0.00802827  0.19171562  0.39822687  1
  Rh  Rh217  1  0.40328782  0.79668435  0.20054779  1
  Rh  Rh218  1  0.40673866  0.39363542  0.59286119  1
  Rh  Rh219  1  0.59808409  0.59448070  0.59493413  1
  Rh  Rh220  1  0.19182821  0.20281411  0.19706050  1
  Rh  Rh221  1  0.40628718  0.40887220  0.79204746  1
  Rh  Rh222  1  0.39357404  -0.00682569  0.60011774  1
  Rh  Rh223  1  0.79080163  0.79489167  0.40076363  1
  Rh  Rh224  1  0.40005574  0.60424069  0.59963783  1
  Rh  Rh225  1  0.38920772  0.39396884  -0.00197668  1
  Rh  Rh226  1  0.20689209  0.79501059  0.40897697  1
  Rh  Rh227  1  0.79422388  0.80287536  -0.00668939  1
  Rh  Rh228  1  0.60285248  0.39761600  0.39995353  1
  Rh  Rh229  1  0.38624443  0.18993109  0.80315471  1
  Rh  Rh230  1  0.20282870  0.59323690  0.60171638  1
  Rh  Rh231  1  -0.00508965  -0.00870620  0.58748557  1
  Rh  Rh232  1  0.81041729  0.59836634  -0.00288354  1
  Rh  Rh233  1  0.20011736  0.40359638  0.78688244  1
  Rh  Rh234  1  0.80047792  -0.00007473  0.00855805  1
  Rh  Rh235  1  0.01125903  0.79483233  0.00869722  1
  Rh  Rh236  1  0.80483930  0.19169815  0.20901491  1
  Rh  Rh237  1  0.79731654  0.59726491  0.60259463  1
  Rh  Rh238  1  0.20065829  0.59994583  0.40369339  1
  Rh  Rh239  1  -0.00084094  0.60146725  0.59819196  1
  Rh  Rh240  1  0.79545598  0.79570030  0.60463561  1
  Rh  Rh241  1  0.20783787  -0.00224923  0.59672008  1
  Rh  Rh242  1  0.39855611  0.80158721  0.01453019  1
  Rh  Rh243  1  0.40588699  0.20721893  0.58856612  1
  Rh  Rh244  1  0.20589462  0.79998869  0.59627006  1
  Rh  Rh245  1  0.40071713  -0.00561641  0.39792096  1
  Rh  Rh246  1  0.60445937  0.20553006  0.41080603  1
  Rh  Rh247  1  0.59498748  0.00770207  0.01050222  1
  Rh  Rh248  1  0.59498692  0.20275654  0.19639349  1
  Rh  Rh249  1  0.21362604  0.60082098  0.19829282  1
