# generated using pymatgen
data_ZrScNbPdRh
_symmetry_space_group_name_H-M   'P 1'
_cell_length_a   16.56598206
_cell_length_b   16.56251124
_cell_length_c   16.56286434
_cell_angle_alpha   89.98210304
_cell_angle_beta   90.02245283
_cell_angle_gamma   90.02570626
_symmetry_Int_Tables_number   1
_chemical_formula_structural   ZrScNbPdRh
_chemical_formula_sum   'Zr50 Sc50 Nb50 Pd50 Rh50'
_cell_volume   4544.42268681
_cell_formula_units_Z   50
loop_
 _symmetry_equiv_pos_site_id
 _symmetry_equiv_pos_as_xyz
  1  'x, y, z'
loop_
 _atom_site_type_symbol
 _atom_site_label
 _atom_site_symmetry_multiplicity
 _atom_site_fract_x
 _atom_site_fract_y
 _atom_site_fract_z
 _atom_site_occupancy
  Zr  Zr0  1  0.10292706  0.30691184  0.49963925  1
  Zr  Zr1  1  0.10457540  0.88817239  0.89864257  1
  Zr  Zr2  1  0.88953548  0.50064191  0.10795217  1
  Zr  Zr3  1  0.30069800  0.89943027  0.90503856  1
  Zr  Zr4  1  0.89895883  0.89943896  0.49835726  1
  Zr  Zr5  1  0.30031700  0.68668275  0.30170444  1
  Zr  Zr6  1  0.90120893  0.90057631  0.29988465  1
  Zr  Zr7  1  0.69053821  0.69474198  0.09319678  1
  Zr  Zr8  1  0.10110092  0.10108939  0.29387046  1
  Zr  Zr9  1  0.29557800  0.09603985  0.10241569  1
  Zr  Zr10  1  0.30080763  0.09997068  0.30083924  1
  Zr  Zr11  1  0.49693597  0.09566374  0.89276313  1
  Zr  Zr12  1  0.50105593  0.50127344  0.50129468  1
  Zr  Zr13  1  0.49892102  0.29690640  0.30054664  1
  Zr  Zr14  1  0.10202179  0.50077187  0.89962496  1
  Zr  Zr15  1  0.69225345  0.89636754  0.50032534  1
  Zr  Zr16  1  0.49257613  0.50921363  0.69205386  1
  Zr  Zr17  1  0.10162182  0.69560259  0.50629360  1
  Zr  Zr18  1  0.10613169  0.70929928  0.70479812  1
  Zr  Zr19  1  0.90021522  0.50405360  0.90726638  1
  Zr  Zr20  1  0.30256546  0.90292346  0.09765006  1
  Zr  Zr21  1  0.90475295  0.70151051  0.69795678  1
  Zr  Zr22  1  0.50176867  0.70054905  0.90384530  1
  Zr  Zr23  1  0.50134032  0.10007723  0.50082161  1
  Zr  Zr24  1  0.31224418  0.10349800  0.69736603  1
  Zr  Zr25  1  0.69661137  0.89355645  0.89270743  1
  Zr  Zr26  1  0.49739666  0.89652542  0.09822317  1
  Zr  Zr27  1  0.89092250  0.30468222  0.69537278  1
  Zr  Zr28  1  0.30294517  0.89758573  0.31166473  1
  Zr  Zr29  1  0.10276034  0.51010576  0.70077894  1
  Zr  Zr30  1  0.89995045  0.09706178  0.70000687  1
  Zr  Zr31  1  0.09706308  0.30713464  0.70296205  1
  Zr  Zr32  1  0.30262506  0.30172952  0.29542759  1
  Zr  Zr33  1  0.10045726  0.10133793  0.90145054  1
  Zr  Zr34  1  0.89782990  0.09985303  0.89784436  1
  Zr  Zr35  1  0.50078926  0.09355212  0.70186079  1
  Zr  Zr36  1  0.49272093  0.90032046  0.50254050  1
  Zr  Zr37  1  0.30300534  0.69950596  0.09903870  1
  Zr  Zr38  1  0.88662882  0.49774053  0.29899274  1
  Zr  Zr39  1  0.70239364  0.49850379  0.69908822  1
  Zr  Zr40  1  0.69626232  0.10708603  0.49814491  1
  Zr  Zr41  1  0.70769411  0.09947718  0.90272474  1
  Zr  Zr42  1  0.49350157  0.10123085  0.09987921  1
  Zr  Zr43  1  0.89485909  0.09879996  0.09640291  1
  Zr  Zr44  1  0.30096262  0.30898142  0.09571645  1
  Zr  Zr45  1  0.70376127  0.30106950  0.89832109  1
  Zr  Zr46  1  0.09654733  0.10290126  0.10051281  1
  Zr  Zr47  1  0.30408259  0.28887139  0.50128148  1
  Zr  Zr48  1  0.49994779  0.50668383  0.30062567  1
  Zr  Zr49  1  0.09748276  0.90363689  0.30485579  1
  Sc  Sc50  1  0.10855155  0.09343944  0.49986284  1
  Sc  Sc51  1  0.09892733  0.30675690  0.90710479  1
  Sc  Sc52  1  0.09750359  0.70518679  0.09750426  1
  Sc  Sc53  1  0.69815560  0.51218264  0.29484020  1
  Sc  Sc54  1  0.70696982  0.70199036  0.69405192  1
  Sc  Sc55  1  0.90431152  0.89567014  0.10887389  1
  Sc  Sc56  1  0.90522639  0.90274520  0.69844817  1
  Sc  Sc57  1  0.69739938  0.51441423  0.49819946  1
  Sc  Sc58  1  0.50290681  0.89742791  0.89049982  1
  Sc  Sc59  1  0.69562405  0.28948330  0.10125445  1
  Sc  Sc60  1  0.89684685  0.50245323  0.68993303  1
  Sc  Sc61  1  0.49911258  0.70041273  0.51186808  1
  Sc  Sc62  1  0.88743507  0.70305864  0.29797684  1
  Sc  Sc63  1  0.90415996  0.29393866  0.10245527  1
  Sc  Sc64  1  0.70326377  0.10133605  0.69205781  1
  Sc  Sc65  1  0.10426900  0.49763151  0.09733572  1
  Sc  Sc66  1  0.49059910  0.30202024  0.10140843  1
  Sc  Sc67  1  0.89868065  0.30881156  0.50217680  1
  Sc  Sc68  1  0.09467040  0.09490218  0.69730582  1
  Sc  Sc69  1  0.30441367  0.50877422  0.50111422  1
  Sc  Sc70  1  0.30418631  0.70017785  0.89661403  1
  Sc  Sc71  1  0.29940829  0.50153220  0.90067766  1
  Sc  Sc72  1  0.48818296  0.28730390  0.68884740  1
  Sc  Sc73  1  0.69486995  0.69925339  0.29976412  1
  Sc  Sc74  1  0.30750018  0.09510447  0.90375140  1
  Sc  Sc75  1  0.89281211  0.69959716  0.50992849  1
  Sc  Sc76  1  0.11375851  0.69299055  0.30600393  1
  Sc  Sc77  1  0.49952403  0.69771326  0.09464935  1
  Sc  Sc78  1  0.89425258  0.29578290  0.29674473  1
  Sc  Sc79  1  0.89732982  0.70011175  0.09566615  1
  Sc  Sc80  1  0.11000506  0.30278910  0.30376251  1
  Sc  Sc81  1  0.10284023  0.89899841  0.09738460  1
  Sc  Sc82  1  0.11029823  0.90168853  0.50571439  1
  Sc  Sc83  1  0.89668045  0.09639983  0.50889925  1
  Sc  Sc84  1  0.30271428  0.69548395  0.70139494  1
  Sc  Sc85  1  0.49526268  0.50202345  0.90821143  1
  Sc  Sc86  1  0.49802670  0.89934681  0.30170030  1
  Sc  Sc87  1  0.90291927  0.29555399  0.89918511  1
  Sc  Sc88  1  0.10009907  0.49581289  0.50256970  1
  Sc  Sc89  1  0.29738686  0.71119805  0.49883206  1
  Sc  Sc90  1  0.10235688  0.29427484  0.09800973  1
  Sc  Sc91  1  0.70464731  0.89253349  0.09635402  1
  Sc  Sc92  1  0.90476088  0.09922218  0.28933376  1
  Sc  Sc93  1  0.49937958  0.89717561  0.70150752  1
  Sc  Sc94  1  0.89196037  0.89644794  0.88873240  1
  Sc  Sc95  1  0.49422734  0.30100968  0.91020304  1
  Sc  Sc96  1  0.69705152  0.50415566  0.90435197  1
  Sc  Sc97  1  0.69687925  0.89023555  0.30489132  1
  Sc  Sc98  1  0.11788793  0.49757975  0.30891227  1
  Sc  Sc99  1  0.49249115  0.10178481  0.29964545  1
  Nb  Nb100  1  0.10512608  0.89722647  0.70391272  1
  Nb  Nb101  1  0.69530717  0.49698760  0.10577532  1
  Nb  Nb102  1  0.50610964  0.29764897  0.49263739  1
  Nb  Nb103  1  0.70128950  0.70461349  0.89626562  1
  Nb  Nb104  1  0.30177767  0.49796741  0.29803991  1
  Nb  Nb105  1  0.49565692  0.69743817  0.70785698  1
  Nb  Nb106  1  0.69981094  0.09631455  0.09852365  1
  Nb  Nb107  1  0.69738571  0.29751802  0.30645602  1
  Nb  Nb108  1  0.90319387  0.49901817  0.49829956  1
  Nb  Nb109  1  0.50159277  0.49806649  0.09598745  1
  Nb  Nb110  1  0.69589662  0.90002759  0.71013803  1
  Nb  Nb111  1  0.89853547  0.69939767  0.89582793  1
  Nb  Nb112  1  0.69876499  0.30157465  0.69387991  1
  Nb  Nb113  1  0.69205795  0.29167717  0.49712614  1
  Nb  Nb114  1  0.50002833  0.69889765  0.29257043  1
  Nb  Nb115  1  0.30530923  0.08897623  0.49753139  1
  Nb  Nb116  1  0.70493461  0.71169998  0.49748885  1
  Nb  Nb117  1  0.29668250  0.89654445  0.69382630  1
  Nb  Nb118  1  0.30370947  0.90310117  0.50393067  1
  Nb  Nb119  1  0.10094973  0.70146828  0.90066441  1
  Nb  Nb120  1  0.30161285  0.29604742  0.70054747  1
  Nb  Nb121  1  0.30254140  0.50074642  0.70474827  1
  Nb  Nb122  1  0.30291086  0.50192537  0.10607729  1
  Nb  Nb123  1  0.70345071  0.10769146  0.29700300  1
  Nb  Nb124  1  0.29947898  0.30399027  0.89638689  1
  Nb  Nb125  1  0.00117195  0.20527067  0.59770010  1
  Nb  Nb126  1  0.79637718  0.40070699  0.00745438  1
  Nb  Nb127  1  -0.00538044  0.59804532  0.39908208  1
  Nb  Nb128  1  0.59940634  0.39168748  0.59616756  1
  Nb  Nb129  1  0.59868231  0.60217373  0.79837275  1
  Nb  Nb130  1  -0.00196238  -0.00044443  -0.00403991  1
  Nb  Nb131  1  0.00209779  0.20030177  0.40546473  1
  Nb  Nb132  1  0.79355311  0.00414434  0.39657323  1
  Nb  Nb133  1  0.78720110  0.39638334  0.39979369  1
  Nb  Nb134  1  0.60369474  0.00272007  0.00276643  1
  Nb  Nb135  1  0.40242604  0.40078276  0.39832124  1
  Nb  Nb136  1  0.20631910  0.20120682  0.79854460  1
  Nb  Nb137  1  0.60699533  0.00626444  0.19617953  1
  Nb  Nb138  1  0.39742317  0.39813587  0.79360147  1
  Nb  Nb139  1  0.20010467  0.60243332  -0.00030230  1
  Nb  Nb140  1  0.60118656  0.20714881  0.79696272  1
  Nb  Nb141  1  0.20242301  -0.00183333  0.79592815  1
  Nb  Nb142  1  0.20659201  0.80001758  0.20412414  1
  Nb  Nb143  1  0.59310983  0.39832713  0.79039038  1
  Nb  Nb144  1  0.00156456  0.79290589  0.40261281  1
  Nb  Nb145  1  0.00054846  0.59366362  0.20771373  1
  Nb  Nb146  1  0.21204791  0.39955567  0.61026479  1
  Nb  Nb147  1  0.60134337  0.40121287  0.20117222  1
  Nb  Nb148  1  0.00001201  0.60722845  0.80626257  1
  Nb  Nb149  1  -0.00035340  0.40661988  0.20481478  1
  Pd  Pd150  1  -0.00940300  0.80704215  -0.00547904  1
  Pd  Pd151  1  0.80291231  -0.01278761  0.00053851  1
  Pd  Pd152  1  0.79304013  -0.00578737  0.20654158  1
  Pd  Pd153  1  0.00567272  0.60236877  0.00423249  1
  Pd  Pd154  1  0.60235648  0.00517296  0.38800032  1
  Pd  Pd155  1  0.59948907  0.80412117  0.19884027  1
  Pd  Pd156  1  0.20255090  0.00210364  0.60662385  1
  Pd  Pd157  1  0.59729673  0.19988388  0.20184215  1
  Pd  Pd158  1  0.79978853  0.60232469  0.79902133  1
  Pd  Pd159  1  0.79734851  0.81040208  0.60818828  1
  Pd  Pd160  1  0.59733208  0.19536227  -0.00666477  1
  Pd  Pd161  1  0.79186172  -0.00721826  0.59853086  1
  Pd  Pd162  1  0.20004266  -0.00837455  0.20242626  1
  Pd  Pd163  1  -0.01073488  0.41127620  0.79646489  1
  Pd  Pd164  1  0.39316790  0.19946744  -0.00086097  1
  Pd  Pd165  1  0.40252107  0.60353879  0.40610163  1
  Pd  Pd166  1  0.19344736  0.20005273  0.60688475  1
  Pd  Pd167  1  0.19695803  0.19426905  0.40002028  1
  Pd  Pd168  1  0.19329027  0.39924358  0.19494321  1
  Pd  Pd169  1  0.00606336  -0.00806916  0.80476307  1
  Pd  Pd170  1  0.79124561  0.79546645  0.19838558  1
  Pd  Pd171  1  0.58875633  0.79098509  0.40085039  1
  Pd  Pd172  1  0.80479679  0.80131802  -0.00132067  1
  Pd  Pd173  1  0.59761422  0.61392583  0.40334451  1
  Pd  Pd174  1  -0.00585474  0.00611416  0.40683242  1
  Pd  Pd175  1  0.80248471  0.60162080  0.40624880  1
  Pd  Pd176  1  0.39992157  0.39695771  0.59587502  1
  Pd  Pd177  1  0.20701273  0.20075339  -0.00635084  1
  Pd  Pd178  1  0.79474499  0.19918570  0.79286983  1
  Pd  Pd179  1  0.39567658  0.79846278  0.20420860  1
  Pd  Pd180  1  0.81121983  0.19867632  0.40538354  1
  Pd  Pd181  1  0.40688763  0.59726646  0.19285887  1
  Pd  Pd182  1  0.59659266  0.79701943  0.60813749  1
  Pd  Pd183  1  0.79266993  0.59835373  0.00270426  1
  Pd  Pd184  1  -0.01005088  0.39935821  0.39069720  1
  Pd  Pd185  1  0.80058163  0.40539871  0.80802325  1
  Pd  Pd186  1  0.60353451  0.39725089  0.00330027  1
  Pd  Pd187  1  0.00523724  0.20308006  0.79546703  1
  Pd  Pd188  1  0.20481906  0.39752775  0.79853542  1
  Pd  Pd189  1  -0.00578161  0.39776209  0.01011586  1
  Pd  Pd190  1  0.00548025  0.80720173  0.59497904  1
  Pd  Pd191  1  0.20700068  0.59813800  0.59870211  1
  Pd  Pd192  1  0.60646034  0.60718904  0.60390252  1
  Pd  Pd193  1  0.40736351  0.78962770  0.40118076  1
  Pd  Pd194  1  0.01056743  0.78692720  0.21300893  1
  Pd  Pd195  1  0.39649640  0.80278571  0.79768733  1
  Pd  Pd196  1  0.78771672  0.40363147  0.58386943  1
  Pd  Pd197  1  0.60228083  0.40578383  0.39830221  1
  Pd  Pd198  1  0.79881217  0.20339036  0.19505317  1
  Pd  Pd199  1  0.60197971  -0.00457153  0.60491645  1
  Rh  Rh200  1  0.79001597  0.38917354  0.20049892  1
  Rh  Rh201  1  0.19020674  -0.00081514  -0.00674328  1
  Rh  Rh202  1  0.59624289  0.20247902  0.60601404  1
  Rh  Rh203  1  0.79573815  -0.00145493  0.79164402  1
  Rh  Rh204  1  0.20424366  0.79987701  0.59981737  1
  Rh  Rh205  1  0.20465541  0.79145443  0.00697450  1
  Rh  Rh206  1  0.80417934  0.80456481  0.40131581  1
  Rh  Rh207  1  0.40428907  0.19318446  0.58965445  1
  Rh  Rh208  1  0.40149614  -0.00376177  0.60233932  1
  Rh  Rh209  1  0.40239865  0.20947870  0.80990849  1
  Rh  Rh210  1  0.39825268  0.79886388  0.60627379  1
  Rh  Rh211  1  0.39280016  0.61016493  0.59847147  1
  Rh  Rh212  1  0.60974437  0.01117817  0.80348240  1
  Rh  Rh213  1  0.60301284  0.78734326  0.79324861  1
  Rh  Rh214  1  0.40854992  0.40930423  0.20461001  1
  Rh  Rh215  1  0.80626046  0.20335600  0.59590655  1
  Rh  Rh216  1  0.41217532  -0.00519063  -0.00328013  1
  Rh  Rh217  1  0.19957983  0.59398889  0.41040914  1
  Rh  Rh218  1  0.59347069  0.59790934  0.19471512  1
  Rh  Rh219  1  0.38964713  -0.01190631  0.79485419  1
  Rh  Rh220  1  0.20985051  0.80192170  0.79827424  1
  Rh  Rh221  1  -0.00374998  0.79629436  0.80165128  1
  Rh  Rh222  1  0.21962299  0.40394310  0.41265176  1
  Rh  Rh223  1  0.20539240  -0.00045739  0.40120094  1
  Rh  Rh224  1  0.59447554  0.19067382  0.39252852  1
  Rh  Rh225  1  0.40320131  0.80149450  -0.00465095  1
  Rh  Rh226  1  0.19571567  0.60471832  0.18882918  1
  Rh  Rh227  1  -0.00326605  0.19440395  -0.00430316  1
  Rh  Rh228  1  0.40612249  0.59412552  0.80494207  1
  Rh  Rh229  1  0.60206195  0.59839479  -0.00594771  1
  Rh  Rh230  1  0.20518073  0.40753411  0.00236234  1
  Rh  Rh231  1  0.40198842  0.00056456  0.40023826  1
  Rh  Rh232  1  0.00125977  0.00031130  0.18718083  1
  Rh  Rh233  1  0.79704861  0.61245564  0.19194002  1
  Rh  Rh234  1  0.00903754  0.21224292  0.21284133  1
  Rh  Rh235  1  -0.00275725  0.59465071  0.59857991  1
  Rh  Rh236  1  0.79829062  0.60031505  0.59408082  1
  Rh  Rh237  1  0.40143381  0.19971032  0.40334421  1
  Rh  Rh238  1  0.80306835  0.20921456  0.00545979  1
  Rh  Rh239  1  0.00652226  0.40244814  0.60392993  1
  Rh  Rh240  1  0.39275237  0.59475513  0.00317314  1
  Rh  Rh241  1  0.19423888  0.80659221  0.39932968  1
  Rh  Rh242  1  0.80074225  0.79825442  0.79271273  1
  Rh  Rh243  1  0.59782206  0.80565922  -0.00334672  1
  Rh  Rh244  1  0.40528622  -0.00119021  0.20434164  1
  Rh  Rh245  1  0.19697663  0.60540421  0.80836910  1
  Rh  Rh246  1  0.39313388  0.40635485  -0.00424749  1
  Rh  Rh247  1  0.39165676  0.19859132  0.19443549  1
  Rh  Rh248  1  0.00516495  -0.00028431  0.59937796  1
  Rh  Rh249  1  0.20422167  0.20424932  0.19736394  1
