# generated using pymatgen
data_ZrScNbPdRh
_symmetry_space_group_name_H-M   'P 1'
_cell_length_a   16.55925748
_cell_length_b   16.56198435
_cell_length_c   16.55842974
_cell_angle_alpha   90.00551631
_cell_angle_beta   90.01880758
_cell_angle_gamma   89.97912732
_symmetry_Int_Tables_number   1
_chemical_formula_structural   ZrScNbPdRh
_chemical_formula_sum   'Zr50 Sc50 Nb50 Pd50 Rh50'
_cell_volume   4541.21772647
_cell_formula_units_Z   50
loop_
 _symmetry_equiv_pos_site_id
 _symmetry_equiv_pos_as_xyz
  1  'x, y, z'
loop_
 _atom_site_type_symbol
 _atom_site_label
 _atom_site_symmetry_multiplicity
 _atom_site_fract_x
 _atom_site_fract_y
 _atom_site_fract_z
 _atom_site_occupancy
  Zr  Zr0  1  0.11079185  0.70259000  0.89942224  1
  Zr  Zr1  1  0.29715037  0.09363058  0.30299088  1
  Zr  Zr2  1  0.69047876  0.89881463  0.08680822  1
  Zr  Zr3  1  0.90452352  0.69631279  0.89818510  1
  Zr  Zr4  1  0.50092100  0.30800174  0.30068221  1
  Zr  Zr5  1  0.49554919  0.30393358  0.09798767  1
  Zr  Zr6  1  0.49796347  0.50723822  0.30806132  1
  Zr  Zr7  1  0.10348075  0.50442487  0.29881543  1
  Zr  Zr8  1  0.70641329  0.89345746  0.29317631  1
  Zr  Zr9  1  0.30020682  0.29489909  0.90117953  1
  Zr  Zr10  1  0.29779783  0.50693621  0.10152544  1
  Zr  Zr11  1  0.89017240  0.50205971  0.49761596  1
  Zr  Zr12  1  0.70362923  0.10200985  0.09544768  1
  Zr  Zr13  1  0.09865703  0.49877231  0.89717138  1
  Zr  Zr14  1  0.29539857  0.89525222  0.10194897  1
  Zr  Zr15  1  0.69867484  0.09911064  0.70054495  1
  Zr  Zr16  1  0.29330779  0.69855420  0.09210059  1
  Zr  Zr17  1  0.09845589  0.09612296  0.51055627  1
  Zr  Zr18  1  0.29341885  0.10234600  0.89765150  1
  Zr  Zr19  1  0.89526986  0.90392239  0.89787209  1
  Zr  Zr20  1  0.69356858  0.49506500  0.69084824  1
  Zr  Zr21  1  0.69915652  0.30647012  0.10668927  1
  Zr  Zr22  1  0.10001554  0.09637279  0.70136377  1
  Zr  Zr23  1  0.70152514  0.29312618  0.69881990  1
  Zr  Zr24  1  0.49438795  0.68970579  0.49706895  1
  Zr  Zr25  1  0.29599386  0.89586797  0.31004607  1
  Zr  Zr26  1  0.30283697  0.30570348  0.30322231  1
  Zr  Zr27  1  0.90125226  0.70163811  0.50864770  1
  Zr  Zr28  1  0.49325814  0.50043000  0.70149283  1
  Zr  Zr29  1  0.70033403  0.70113054  0.10101545  1
  Zr  Zr30  1  0.30682231  0.30375700  0.69647749  1
  Zr  Zr31  1  0.50987964  0.89561536  0.90527884  1
  Zr  Zr32  1  0.49580250  0.30445957  0.89332532  1
  Zr  Zr33  1  0.90372245  0.30133312  0.51253100  1
  Zr  Zr34  1  0.10510212  0.50844158  0.49943826  1
  Zr  Zr35  1  0.48541110  0.30427303  0.49719681  1
  Zr  Zr36  1  0.29634286  0.71316503  0.50795644  1
  Zr  Zr37  1  0.90560913  0.90798497  0.30141775  1
  Zr  Zr38  1  0.90728317  0.70300201  0.10373078  1
  Zr  Zr39  1  0.30020591  0.30177810  0.10118991  1
  Zr  Zr40  1  0.49978608  0.69565580  0.11053009  1
  Zr  Zr41  1  0.89620454  0.89262533  0.70077843  1
  Zr  Zr42  1  0.10560543  0.30829678  0.29968209  1
  Zr  Zr43  1  0.50760843  0.50127298  0.50145211  1
  Zr  Zr44  1  0.69633654  0.70653065  0.89709044  1
  Zr  Zr45  1  0.69968537  0.70026747  0.29355647  1
  Zr  Zr46  1  0.31703619  0.70365432  0.30462349  1
  Zr  Zr47  1  0.70252319  0.89328926  0.70569640  1
  Zr  Zr48  1  0.09116649  0.09063444  0.30070318  1
  Zr  Zr49  1  0.90449977  0.09136950  0.49847431  1
  Sc  Sc50  1  0.49832941  0.10323487  0.31003267  1
  Sc  Sc51  1  0.69593421  0.30256675  0.89312140  1
  Sc  Sc52  1  0.90199676  0.70874977  0.30386507  1
  Sc  Sc53  1  0.50194723  0.10031250  0.50062912  1
  Sc  Sc54  1  0.09196464  0.09758256  0.09384962  1
  Sc  Sc55  1  0.50155077  0.90090832  0.69609063  1
  Sc  Sc56  1  0.09821913  0.89116722  0.09895481  1
  Sc  Sc57  1  0.29784275  0.90489435  0.89216406  1
  Sc  Sc58  1  0.90802264  0.70090859  0.69892483  1
  Sc  Sc59  1  0.49938654  0.90047220  0.50255520  1
  Sc  Sc60  1  0.90624419  0.89173162  0.49924386  1
  Sc  Sc61  1  0.70475777  0.48979596  0.30855442  1
  Sc  Sc62  1  0.09476272  0.10614430  0.89870230  1
  Sc  Sc63  1  0.09405043  0.89856639  0.90100233  1
  Sc  Sc64  1  0.70412711  0.31359347  0.50244353  1
  Sc  Sc65  1  0.89348877  0.30333579  0.09292313  1
  Sc  Sc66  1  0.10466234  0.50538388  0.70194479  1
  Sc  Sc67  1  0.09980315  0.69646324  0.30484966  1
  Sc  Sc68  1  0.90935205  0.89902256  0.09904856  1
  Sc  Sc69  1  0.69698822  0.09972723  0.30637172  1
  Sc  Sc70  1  0.30242547  0.10645691  0.09157469  1
  Sc  Sc71  1  0.69053069  0.09621424  0.50179802  1
  Sc  Sc72  1  0.49203316  0.09632634  0.08741796  1
  Sc  Sc73  1  0.50074794  0.30181164  0.70461372  1
  Sc  Sc74  1  0.29382211  0.09964955  0.70742238  1
  Sc  Sc75  1  0.90172086  0.49737345  0.90096124  1
  Sc  Sc76  1  0.90834119  0.29889028  0.90209219  1
  Sc  Sc77  1  0.48624448  0.09544091  0.89964328  1
  Sc  Sc78  1  0.50369481  0.10311830  0.69709488  1
  Sc  Sc79  1  0.30150067  0.49534320  0.50163850  1
  Sc  Sc80  1  0.09153715  0.30128270  0.69370309  1
  Sc  Sc81  1  0.88602430  0.31175562  0.29515271  1
  Sc  Sc82  1  0.70028306  0.89985931  0.49977257  1
  Sc  Sc83  1  0.70758456  0.69917981  0.70374006  1
  Sc  Sc84  1  0.30470646  0.51136898  0.89252320  1
  Sc  Sc85  1  0.10238849  0.90202915  0.29973422  1
  Sc  Sc86  1  0.70088133  0.49718249  0.09590674  1
  Sc  Sc87  1  0.69778244  0.50809489  0.89695575  1
  Sc  Sc88  1  0.10175567  0.90066627  0.70126659  1
  Sc  Sc89  1  0.09776370  0.29657457  0.90020650  1
  Sc  Sc90  1  0.29402545  0.49860286  0.30179666  1
  Sc  Sc91  1  0.50456232  0.68879370  0.89247781  1
  Sc  Sc92  1  0.91227055  0.50662119  0.69821670  1
  Sc  Sc93  1  0.50186986  0.49811753  0.09964289  1
  Sc  Sc94  1  0.90108565  0.10512552  0.70496545  1
  Sc  Sc95  1  0.29619074  0.50361607  0.70050085  1
  Sc  Sc96  1  0.71529550  0.09331966  0.90296188  1
  Sc  Sc97  1  0.09584917  0.29920343  0.09020832  1
  Sc  Sc98  1  0.69756662  0.30547358  0.30070964  1
  Sc  Sc99  1  0.49275702  0.89011040  0.30387061  1
  Nb  Nb100  1  0.29459448  0.29695258  0.50082198  1
  Nb  Nb101  1  0.50087378  0.49393365  0.88885741  1
  Nb  Nb102  1  0.10433934  0.50808963  0.10364163  1
  Nb  Nb103  1  0.90256675  0.09463526  0.91568361  1
  Nb  Nb104  1  0.90447541  0.50360969  0.29798800  1
  Nb  Nb105  1  0.10000729  0.29924074  0.49803272  1
  Nb  Nb106  1  0.89265281  0.30364234  0.69475471  1
  Nb  Nb107  1  0.90184875  0.09651919  0.30055032  1
  Nb  Nb108  1  0.69707535  0.50800007  0.50047278  1
  Nb  Nb109  1  0.90595634  0.49914012  0.09876077  1
  Nb  Nb110  1  0.29360788  0.89964412  0.50429355  1
  Nb  Nb111  1  0.49771725  0.90381779  0.09062033  1
  Nb  Nb112  1  0.50106583  0.69397079  0.30577474  1
  Nb  Nb113  1  0.11197571  0.89142067  0.50371595  1
  Nb  Nb114  1  0.89700374  0.10082754  0.09776987  1
  Nb  Nb115  1  0.09932238  0.70576120  0.50877913  1
  Nb  Nb116  1  0.29932536  0.89658529  0.69253210  1
  Nb  Nb117  1  0.10371364  0.69609171  0.09411462  1
  Nb  Nb118  1  0.30214525  0.70341572  0.89853450  1
  Nb  Nb119  1  0.30188781  0.70218864  0.70360663  1
  Nb  Nb120  1  0.10536483  0.69156721  0.69556852  1
  Nb  Nb121  1  0.29696965  0.09916372  0.50241286  1
  Nb  Nb122  1  0.70015435  0.89656639  0.89783976  1
  Nb  Nb123  1  0.49393075  0.70164660  0.69285752  1
  Nb  Nb124  1  0.69776214  0.68822726  0.50325343  1
  Nb  Nb125  1  0.60047552  0.78869440  0.59571618  1
  Nb  Nb126  1  0.00692226  0.60026223  0.00598621  1
  Nb  Nb127  1  0.38697013  -0.00076396  0.59627776  1
  Nb  Nb128  1  0.59990020  0.78741152  0.40224569  1
  Nb  Nb129  1  0.19457509  0.19939042  0.20550415  1
  Nb  Nb130  1  0.80006941  -0.00264955  0.60400695  1
  Nb  Nb131  1  0.59638833  0.19663451  0.19439206  1
  Nb  Nb132  1  0.00046571  0.40652066  0.19869498  1
  Nb  Nb133  1  0.60597782  -0.00464190  0.80524934  1
  Nb  Nb134  1  0.39807549  0.79584601  0.79715835  1
  Nb  Nb135  1  0.59890551  0.20208517  0.00195011  1
  Nb  Nb136  1  -0.00571851  0.20227808  0.20498348  1
  Nb  Nb137  1  0.19953370  0.00071483  -0.00375301  1
  Nb  Nb138  1  0.79908116  0.79934234  -0.00335108  1
  Nb  Nb139  1  0.80798345  0.19843379  0.40187965  1
  Nb  Nb140  1  0.80944324  0.59490599  0.19988851  1
  Nb  Nb141  1  0.59569165  0.00004860  0.19543839  1
  Nb  Nb142  1  0.40167482  -0.00466775  0.19726864  1
  Nb  Nb143  1  0.80304936  0.39764848  0.78971925  1
  Nb  Nb144  1  0.19759727  0.19952598  0.40480271  1
  Nb  Nb145  1  0.20105010  0.40644545  -0.00015320  1
  Nb  Nb146  1  0.79963643  0.00229707  0.19723197  1
  Nb  Nb147  1  -0.00110119  0.20598872  0.39744778  1
  Nb  Nb148  1  0.40026913  0.79613069  -0.00515095  1
  Nb  Nb149  1  0.00039402  0.40157510  0.39886136  1
  Pd  Pd150  1  0.20337305  0.00807908  0.18684446  1
  Pd  Pd151  1  -0.00476460  -0.01146121  0.60188460  1
  Pd  Pd152  1  0.60755995  0.20882976  0.40138101  1
  Pd  Pd153  1  0.19515963  0.79169951  0.20730904  1
  Pd  Pd154  1  0.40145499  0.18938594  0.20129124  1
  Pd  Pd155  1  0.40474942  0.80381550  0.19368245  1
  Pd  Pd156  1  0.39098788  0.59519297  0.59789897  1
  Pd  Pd157  1  0.59690881  0.18601957  0.81308933  1
  Pd  Pd158  1  0.60201641  0.39980570  -0.00758347  1
  Pd  Pd159  1  0.20870409  0.60988951  0.40485594  1
  Pd  Pd160  1  0.80357366  0.59968239  0.60974565  1
  Pd  Pd161  1  0.79699713  0.40003046  -0.01187279  1
  Pd  Pd162  1  0.80680700  0.60349713  0.00562224  1
  Pd  Pd163  1  0.20668179  0.61217478  0.20941271  1
  Pd  Pd164  1  0.59617554  -0.01266205  0.39266546  1
  Pd  Pd165  1  0.79956847  0.60582905  0.39154130  1
  Pd  Pd166  1  0.79655375  0.21118028  -0.00813770  1
  Pd  Pd167  1  0.39304736  0.19829741  0.40179350  1
  Pd  Pd168  1  0.00921118  0.79884961  0.20654702  1
  Pd  Pd169  1  0.40577924  -0.00547120  0.79104788  1
  Pd  Pd170  1  0.79468572  0.79430042  0.40914838  1
  Pd  Pd171  1  0.80269857  0.59198219  0.79406527  1
  Pd  Pd172  1  0.00570544  0.41070178  0.59720107  1
  Pd  Pd173  1  0.40962667  0.60151254  -0.00368270  1
  Pd  Pd174  1  0.61029828  0.58617004  0.20561028  1
  Pd  Pd175  1  -0.00579591  0.20139839  0.79790131  1
  Pd  Pd176  1  0.20024424  0.20231521  0.60321257  1
  Pd  Pd177  1  0.19761247  0.40116321  0.59988855  1
  Pd  Pd178  1  -0.00232415  0.60118375  0.40597402  1
  Pd  Pd179  1  0.79783462  0.19504586  0.20993663  1
  Pd  Pd180  1  0.59716690  0.20947170  0.58943659  1
  Pd  Pd181  1  0.00874350  0.80351142  0.40094189  1
  Pd  Pd182  1  0.00412813  0.79642191  0.79621349  1
  Pd  Pd183  1  0.19320315  0.00128760  0.40777146  1
  Pd  Pd184  1  0.58928624  0.80683450  0.20291361  1
  Pd  Pd185  1  0.40332674  -0.00389984  0.40414931  1
  Pd  Pd186  1  0.40169201  0.41132381  0.20270415  1
  Pd  Pd187  1  0.39889369  0.19189515  0.60390181  1
  Pd  Pd188  1  0.59324817  0.39171992  0.59884734  1
  Pd  Pd189  1  0.79517992  0.00235312  0.40298513  1
  Pd  Pd190  1  0.19453072  0.20838234  0.79250576  1
  Pd  Pd191  1  -0.00483939  0.39685951  0.79542305  1
  Pd  Pd192  1  0.39241606  0.40991348  -0.00690822  1
  Pd  Pd193  1  0.60085895  0.60116975  0.79100161  1
  Pd  Pd194  1  0.59402446  0.59805266  -0.00107816  1
  Pd  Pd195  1  -0.00278479  0.00293978  0.80347453  1
  Pd  Pd196  1  0.79773569  0.18931245  0.59093477  1
  Pd  Pd197  1  0.20239364  0.80414916  0.79584058  1
  Pd  Pd198  1  0.20167219  0.39673013  0.80392385  1
  Pd  Pd199  1  0.80929369  0.20324421  0.80867929  1
  Rh  Rh200  1  0.19263968  -0.00232477  0.80511554  1
  Rh  Rh201  1  -0.00246562  0.79214762  -0.00438294  1
  Rh  Rh202  1  0.80694800  0.80301976  0.18845409  1
  Rh  Rh203  1  0.40638553  0.80241731  0.41196065  1
  Rh  Rh204  1  -0.00024485  0.19882529  0.60263591  1
  Rh  Rh205  1  0.19627387  0.79561371  0.39746346  1
  Rh  Rh206  1  0.40514369  0.80730034  0.60142156  1
  Rh  Rh207  1  0.19920777  0.39777985  0.41105025  1
  Rh  Rh208  1  0.60498058  -0.00881476  0.60936452  1
  Rh  Rh209  1  0.20555117  0.60433294  0.59968391  1
  Rh  Rh210  1  0.19378172  0.39406242  0.18505335  1
  Rh  Rh211  1  0.39687268  0.59671287  0.20283169  1
  Rh  Rh212  1  0.59491528  0.78602340  0.00152870  1
  Rh  Rh213  1  0.59090473  0.80174941  0.78899815  1
  Rh  Rh214  1  -0.00172396  0.60024235  0.19606545  1
  Rh  Rh215  1  0.59937262  0.39988552  0.40699557  1
  Rh  Rh216  1  0.80699900  0.79207736  0.80765892  1
  Rh  Rh217  1  0.38478754  -0.01169159  0.00264173  1
  Rh  Rh218  1  0.60157595  0.01381089  -0.00773534  1
  Rh  Rh219  1  -0.00618319  0.00395545  0.19022009  1
  Rh  Rh220  1  0.61023091  0.60037162  0.39244668  1
  Rh  Rh221  1  0.80065826  0.40956440  0.60440828  1
  Rh  Rh222  1  0.00854643  -0.00833799  0.41019041  1
  Rh  Rh223  1  0.19367671  0.79796102  0.61054517  1
  Rh  Rh224  1  0.39117631  0.59555144  0.40523376  1
  Rh  Rh225  1  0.20452508  0.80880392  -0.00464580  1
  Rh  Rh226  1  0.59905598  0.60455850  0.60848151  1
  Rh  Rh227  1  0.19645379  0.19934977  0.00592056  1
  Rh  Rh228  1  0.40671570  0.20606438  -0.00574399  1
  Rh  Rh229  1  0.79937227  0.00342149  0.79438729  1
  Rh  Rh230  1  0.79235482  0.80224147  0.59463685  1
  Rh  Rh231  1  0.00980259  0.40845007  0.00533525  1
  Rh  Rh232  1  0.39950206  0.19949813  0.79484446  1
  Rh  Rh233  1  0.60718477  0.40506188  0.79920038  1
  Rh  Rh234  1  0.20384801  -0.00199825  0.60461054  1
  Rh  Rh235  1  0.00915006  0.80048050  0.60549044  1
  Rh  Rh236  1  0.59829492  0.40036521  0.20343705  1
  Rh  Rh237  1  0.00712412  0.60392539  0.80620796  1
  Rh  Rh238  1  0.80487461  0.39781918  0.40563297  1
  Rh  Rh239  1  0.00467380  -0.00092527  -0.00012396  1
  Rh  Rh240  1  0.00382770  0.60093340  0.59573342  1
  Rh  Rh241  1  0.39309208  0.40291350  0.79963133  1
  Rh  Rh242  1  0.40065008  0.60496354  0.79674770  1
  Rh  Rh243  1  0.39949570  0.40208519  0.60019517  1
  Rh  Rh244  1  0.19697929  0.59308262  -0.01001650  1
  Rh  Rh245  1  0.80648643  -0.01211773  0.00849754  1
  Rh  Rh246  1  0.20125388  0.60409973  0.79817367  1
  Rh  Rh247  1  0.39546577  0.40556476  0.40236616  1
  Rh  Rh248  1  -0.00669069  0.19968479  0.00640677  1
  Rh  Rh249  1  0.80365331  0.41174297  0.19534625  1
