# generated using pymatgen
data_ZrScNbPdRh
_symmetry_space_group_name_H-M   'P 1'
_cell_length_a   16.56202775
_cell_length_b   16.56263230
_cell_length_c   16.56052687
_cell_angle_alpha   89.99197978
_cell_angle_beta   90.03516288
_cell_angle_gamma   89.93087507
_symmetry_Int_Tables_number   1
_chemical_formula_structural   ZrScNbPdRh
_chemical_formula_sum   'Zr50 Sc50 Nb50 Pd50 Rh50'
_cell_volume   4542.72676698
_cell_formula_units_Z   50
loop_
 _symmetry_equiv_pos_site_id
 _symmetry_equiv_pos_as_xyz
  1  'x, y, z'
loop_
 _atom_site_type_symbol
 _atom_site_label
 _atom_site_symmetry_multiplicity
 _atom_site_fract_x
 _atom_site_fract_y
 _atom_site_fract_z
 _atom_site_occupancy
  Zr  Zr0  1  0.09046271  0.89851280  0.10279681  1
  Zr  Zr1  1  0.89720528  0.30441980  0.69605370  1
  Zr  Zr2  1  0.69700916  0.49978602  0.29523892  1
  Zr  Zr3  1  0.49483910  0.69693169  0.50497987  1
  Zr  Zr4  1  0.50669957  0.09950531  0.70661825  1
  Zr  Zr5  1  0.29458860  0.49803398  0.70829612  1
  Zr  Zr6  1  0.89908853  0.10788957  0.50387479  1
  Zr  Zr7  1  0.10318968  0.70352619  0.50087918  1
  Zr  Zr8  1  0.30069053  0.69795814  0.49561310  1
  Zr  Zr9  1  0.49803328  0.90391580  0.30291001  1
  Zr  Zr10  1  0.29400502  0.49806977  0.29252101  1
  Zr  Zr11  1  0.89213417  0.70543894  0.30541628  1
  Zr  Zr12  1  0.10384963  0.09856733  0.09880441  1
  Zr  Zr13  1  0.29932055  0.50179272  0.90305126  1
  Zr  Zr14  1  0.09847538  0.89668822  0.50734255  1
  Zr  Zr15  1  0.68625423  0.29140645  0.30344716  1
  Zr  Zr16  1  0.30267632  0.90817784  0.29167785  1
  Zr  Zr17  1  0.30019844  0.09528134  0.10589344  1
  Zr  Zr18  1  0.09836324  0.30439660  0.89985192  1
  Zr  Zr19  1  0.10360609  0.49549150  0.10195722  1
  Zr  Zr20  1  0.10403173  0.09822153  0.90293184  1
  Zr  Zr21  1  0.48853087  0.29980239  0.29143993  1
  Zr  Zr22  1  0.70459644  0.69575273  0.70743597  1
  Zr  Zr23  1  0.10230086  0.49302474  0.89867427  1
  Zr  Zr24  1  0.89833753  0.88717873  0.91059348  1
  Zr  Zr25  1  0.69796122  0.89524773  0.11188972  1
  Zr  Zr26  1  0.30751059  0.29680469  0.49554318  1
  Zr  Zr27  1  0.70879635  0.89996490  0.89539668  1
  Zr  Zr28  1  0.09802761  0.49537039  0.29802091  1
  Zr  Zr29  1  0.50587643  0.30051792  0.49314352  1
  Zr  Zr30  1  0.29848638  0.30966613  0.89736192  1
  Zr  Zr31  1  0.09811095  0.30290587  0.09590292  1
  Zr  Zr32  1  0.49446540  0.90614290  0.11089026  1
  Zr  Zr33  1  0.90040465  0.72429967  0.10245771  1
  Zr  Zr34  1  0.50391855  0.69277263  0.90032108  1
  Zr  Zr35  1  0.09918808  0.90211478  0.69849926  1
  Zr  Zr36  1  0.89901839  0.10263512  0.10269666  1
  Zr  Zr37  1  0.50538612  0.49767443  0.09777290  1
  Zr  Zr38  1  0.50964630  0.89320785  0.49974350  1
  Zr  Zr39  1  0.89723587  0.50007450  0.50900625  1
  Zr  Zr40  1  0.29928650  0.70470740  0.29639764  1
  Zr  Zr41  1  0.51353007  0.29791877  0.89797404  1
  Zr  Zr42  1  0.30240782  0.30070814  0.10960319  1
  Zr  Zr43  1  0.30713216  0.69968497  0.69547091  1
  Zr  Zr44  1  0.50250957  0.70202392  0.69817071  1
  Zr  Zr45  1  0.09667950  0.09102260  0.69774220  1
  Zr  Zr46  1  0.69813319  0.90266791  0.69883494  1
  Zr  Zr47  1  0.50600100  0.49724682  0.50565460  1
  Zr  Zr48  1  0.71018953  0.30269716  0.89867170  1
  Zr  Zr49  1  0.90209557  0.09552191  0.31120521  1
  Sc  Sc50  1  0.09906359  0.90344449  0.30283607  1
  Sc  Sc51  1  0.09692974  0.30549566  0.69771486  1
  Sc  Sc52  1  0.71076387  0.09500294  0.70119278  1
  Sc  Sc53  1  0.89559970  0.50063082  0.70061821  1
  Sc  Sc54  1  0.30150925  0.08761285  0.90838050  1
  Sc  Sc55  1  0.30918087  0.90443468  0.50163379  1
  Sc  Sc56  1  0.89606995  0.69988085  0.50203345  1
  Sc  Sc57  1  0.30716340  0.70318939  0.89787338  1
  Sc  Sc58  1  0.30305292  0.29792090  0.69255186  1
  Sc  Sc59  1  0.69860972  0.50117409  0.89736050  1
  Sc  Sc60  1  0.68783915  0.89260366  0.30892110  1
  Sc  Sc61  1  0.30937554  0.50754539  0.49111434  1
  Sc  Sc62  1  0.29938058  0.10062037  0.49365545  1
  Sc  Sc63  1  0.30239617  0.89625896  0.69815627  1
  Sc  Sc64  1  0.29882830  0.89291419  0.90140885  1
  Sc  Sc65  1  0.89940854  0.48817448  0.09177586  1
  Sc  Sc66  1  0.10409602  0.71177910  0.10357572  1
  Sc  Sc67  1  0.50163045  0.69314087  0.09560140  1
  Sc  Sc68  1  0.10243771  0.89991553  0.89695114  1
  Sc  Sc69  1  0.29919553  0.89520530  0.10137309  1
  Sc  Sc70  1  0.70373227  0.70165536  0.49651143  1
  Sc  Sc71  1  0.69832353  0.10850767  0.10918267  1
  Sc  Sc72  1  0.50503569  0.49176271  0.29011332  1
  Sc  Sc73  1  0.10849260  0.10156647  0.30523772  1
  Sc  Sc74  1  0.90371584  0.90580167  0.48754197  1
  Sc  Sc75  1  0.50716812  0.50535799  0.69822402  1
  Sc  Sc76  1  0.50049294  0.50050664  0.90338870  1
  Sc  Sc77  1  0.48725111  0.90401230  0.89576419  1
  Sc  Sc78  1  0.89910822  0.91255945  0.70735703  1
  Sc  Sc79  1  0.50338809  0.09779575  0.29552911  1
  Sc  Sc80  1  0.08826719  0.49789933  0.70636389  1
  Sc  Sc81  1  0.69515398  0.10590568  0.89079744  1
  Sc  Sc82  1  0.89701377  0.49832780  0.30473316  1
  Sc  Sc83  1  0.09399926  0.09376827  0.50013658  1
  Sc  Sc84  1  0.08223316  0.29549927  0.49738812  1
  Sc  Sc85  1  0.90806703  0.29958069  0.30704333  1
  Sc  Sc86  1  0.11042073  0.70453290  0.30207693  1
  Sc  Sc87  1  0.69946158  0.29764138  0.09365411  1
  Sc  Sc88  1  0.09728208  0.70959094  0.89664387  1
  Sc  Sc89  1  0.50428454  0.30586772  0.69319082  1
  Sc  Sc90  1  0.70462531  0.50030610  0.69724004  1
  Sc  Sc91  1  0.49698924  0.90040864  0.69161465  1
  Sc  Sc92  1  0.30243183  0.09829379  0.68593645  1
  Sc  Sc93  1  0.49889012  0.70686893  0.30211690  1
  Sc  Sc94  1  0.70245407  0.30089685  0.70165111  1
  Sc  Sc95  1  0.09733884  0.70856090  0.69727358  1
  Sc  Sc96  1  0.89233906  0.10162311  0.90360849  1
  Sc  Sc97  1  0.89833900  0.49297212  0.89487981  1
  Sc  Sc98  1  0.89690205  0.69338577  0.70619889  1
  Sc  Sc99  1  0.49368935  0.09081019  0.49625970  1
  Nb  Nb100  1  0.89653973  0.30363373  0.91010996  1
  Nb  Nb101  1  0.49860061  0.29762405  0.09943075  1
  Nb  Nb102  1  0.29887246  0.70119012  0.09770795  1
  Nb  Nb103  1  0.30092840  0.50213343  0.09767651  1
  Nb  Nb104  1  0.69610494  0.50661901  0.10440041  1
  Nb  Nb105  1  0.69665335  0.69631159  0.10224944  1
  Nb  Nb106  1  0.29406831  0.29136081  0.29879886  1
  Nb  Nb107  1  0.29792039  0.11024505  0.29513991  1
  Nb  Nb108  1  0.09996683  0.50091093  0.49868455  1
  Nb  Nb109  1  0.10206832  0.30089127  0.29529808  1
  Nb  Nb110  1  0.49811903  0.09737386  0.09446448  1
  Nb  Nb111  1  0.70521198  0.10428949  0.49184091  1
  Nb  Nb112  1  0.70136849  0.29722292  0.50315647  1
  Nb  Nb113  1  0.69502211  0.90090700  0.50801243  1
  Nb  Nb114  1  0.70098949  0.09924427  0.30390519  1
  Nb  Nb115  1  0.89823493  0.90369017  0.11081692  1
  Nb  Nb116  1  0.90409647  0.10193255  0.70109814  1
  Nb  Nb117  1  0.49855319  0.10081247  0.90187446  1
  Nb  Nb118  1  0.70799541  0.70416373  0.90143098  1
  Nb  Nb119  1  0.89154126  0.70039610  0.90468438  1
  Nb  Nb120  1  0.90009544  0.89728937  0.29038384  1
  Nb  Nb121  1  0.89341213  0.29627864  0.09045811  1
  Nb  Nb122  1  0.89126622  0.30102421  0.50649858  1
  Nb  Nb123  1  0.70466468  0.49919657  0.49940001  1
  Nb  Nb124  1  0.69980390  0.69393895  0.29905806  1
  Nb  Nb125  1  0.79520022  0.39749073  0.20083160  1
  Nb  Nb126  1  0.00272574  0.59915193  0.39868698  1
  Nb  Nb127  1  0.59941244  -0.00103504  0.00169219  1
  Nb  Nb128  1  0.39425532  0.59872926  0.19299953  1
  Nb  Nb129  1  0.19810321  0.59591767  0.59918464  1
  Nb  Nb130  1  0.79577496  0.80867980  0.60001339  1
  Nb  Nb131  1  0.80094012  0.60665521  0.00520342  1
  Nb  Nb132  1  0.60442354  0.59766111  0.39993849  1
  Nb  Nb133  1  0.00162963  0.20434093  0.19751499  1
  Nb  Nb134  1  0.19755033  0.40592666  0.58807515  1
  Nb  Nb135  1  0.79888452  -0.00122998  0.20733383  1
  Nb  Nb136  1  0.19801706  0.39321157  0.39839332  1
  Nb  Nb137  1  0.20053654  0.19674929  0.79939942  1
  Nb  Nb138  1  0.40053436  0.19797267  0.80675712  1
  Nb  Nb139  1  0.40692471  0.20028348  -0.00041432  1
  Nb  Nb140  1  0.60880868  0.19600080  0.59075546  1
  Nb  Nb141  1  -0.00588632  0.60343288  0.19849297  1
  Nb  Nb142  1  0.79458846  0.39557139  0.40481178  1
  Nb  Nb143  1  0.80035589  0.60062362  0.19394291  1
  Nb  Nb144  1  0.79533449  -0.00394622  0.01083140  1
  Nb  Nb145  1  0.19884530  0.60178464  0.00205120  1
  Nb  Nb146  1  -0.00216980  0.60532869  0.00327526  1
  Nb  Nb147  1  0.60229412  0.79788601  0.80512554  1
  Nb  Nb148  1  0.60437749  0.80306142  -0.00305957  1
  Nb  Nb149  1  -0.00078907  0.19940337  0.80174377  1
  Pd  Pd150  1  0.21268720  0.20289267  -0.00436650  1
  Pd  Pd151  1  0.80667425  -0.00146060  0.59423360  1
  Pd  Pd152  1  0.19221336  0.60973548  0.80006343  1
  Pd  Pd153  1  0.40565000  0.59456511  0.79875768  1
  Pd  Pd154  1  0.19114333  0.20513441  0.40848679  1
  Pd  Pd155  1  0.60318377  0.19350228  0.00032414  1
  Pd  Pd156  1  0.60362070  0.40410365  0.40070753  1
  Pd  Pd157  1  0.79359023  0.80904973  0.40441635  1
  Pd  Pd158  1  0.00388234  0.60161228  0.59840896  1
  Pd  Pd159  1  0.60712352  0.40197399  0.00160508  1
  Pd  Pd160  1  0.00242277  0.20030504  0.60702762  1
  Pd  Pd161  1  0.20487312  -0.00287786  0.59442359  1
  Pd  Pd162  1  0.80829107  0.20384354  0.20947812  1
  Pd  Pd163  1  -0.01283245  0.39579455  0.19629587  1
  Pd  Pd164  1  0.80749205  0.20141726  0.79811683  1
  Pd  Pd165  1  0.39757171  0.80505888  0.40091335  1
  Pd  Pd166  1  0.60062702  0.01172173  0.59646465  1
  Pd  Pd167  1  0.59298377  0.19849455  0.19797622  1
  Pd  Pd168  1  0.40609079  0.19189756  0.39454158  1
  Pd  Pd169  1  -0.00282439  0.19947407  -0.00208217  1
  Pd  Pd170  1  0.41304172  0.59293729  0.38414181  1
  Pd  Pd171  1  0.40365998  0.39529394  0.00144652  1
  Pd  Pd172  1  0.39209836  0.00381831  0.79467494  1
  Pd  Pd173  1  0.60256067  0.40500543  0.79498805  1
  Pd  Pd174  1  0.21037146  0.00348904  0.79599691  1
  Pd  Pd175  1  -0.00344882  0.40239989  0.40648644  1
  Pd  Pd176  1  0.40930804  0.39755715  0.79634264  1
  Pd  Pd177  1  0.20700135  0.81239796  0.40206695  1
  Pd  Pd178  1  0.80324395  0.20852597  0.39566521  1
  Pd  Pd179  1  0.19657439  0.60600821  0.19335226  1
  Pd  Pd180  1  0.00179751  0.79572145  0.39588448  1
  Pd  Pd181  1  -0.01783097  0.80528910  0.60665226  1
  Pd  Pd182  1  0.20142306  -0.01435158  0.00474237  1
  Pd  Pd183  1  0.39461351  0.40381384  0.39261381  1
  Pd  Pd184  1  0.40785098  0.80091522  0.00347297  1
  Pd  Pd185  1  0.79372245  -0.01015261  0.39663132  1
  Pd  Pd186  1  -0.00666915  0.00356192  0.81252618  1
  Pd  Pd187  1  -0.00742416  -0.00304337  -0.00452233  1
  Pd  Pd188  1  0.19224644  0.20755019  0.59928277  1
  Pd  Pd189  1  0.20300280  -0.00248623  0.40265025  1
  Pd  Pd190  1  0.41310043  0.19626892  0.60334396  1
  Pd  Pd191  1  -0.00852545  0.80045185  0.79608160  1
  Pd  Pd192  1  0.59700728  -0.00837146  0.80709482  1
  Pd  Pd193  1  0.20395766  0.79720713  0.79687629  1
  Pd  Pd194  1  0.60213986  0.00467090  0.40134846  1
  Pd  Pd195  1  0.59194333  0.79177990  0.19784593  1
  Pd  Pd196  1  0.00197964  0.00905033  0.20825443  1
  Pd  Pd197  1  0.39459652  0.40729653  0.60146509  1
  Pd  Pd198  1  0.60999180  0.60420845  0.59364236  1
  Pd  Pd199  1  -0.00149255  0.60345259  0.80870500  1
  Rh  Rh200  1  0.40256687  -0.00159064  0.00269027  1
  Rh  Rh201  1  0.60403416  0.60161812  0.80369731  1
  Rh  Rh202  1  0.79258237  0.19189187  -0.00378411  1
  Rh  Rh203  1  0.59297352  0.60732097  0.20850999  1
  Rh  Rh204  1  0.60793572  0.79286657  0.60557672  1
  Rh  Rh205  1  0.60647134  0.00818230  0.19866189  1
  Rh  Rh206  1  0.79823461  0.60875724  0.60012159  1
  Rh  Rh207  1  0.00370156  -0.00121527  0.39947345  1
  Rh  Rh208  1  0.20067118  0.38878922  0.78526258  1
  Rh  Rh209  1  0.39528947  0.00519478  0.39134735  1
  Rh  Rh210  1  -0.00690687  -0.00264209  0.59522651  1
  Rh  Rh211  1  0.61064157  0.60371949  -0.00727422  1
  Rh  Rh212  1  0.19859645  0.79626843  -0.00096468  1
  Rh  Rh213  1  0.59516849  0.19168701  0.40508104  1
  Rh  Rh214  1  0.20487825  0.39292913  0.20190726  1
  Rh  Rh215  1  0.39183342  0.60152033  0.00430900  1
  Rh  Rh216  1  0.00707791  0.79935242  -0.00329903  1
  Rh  Rh217  1  0.80184034  0.40034122  0.79898441  1
  Rh  Rh218  1  0.79129839  0.80030250  0.21008854  1
  Rh  Rh219  1  0.79868885  0.59174304  0.39650153  1
  Rh  Rh220  1  0.40440611  0.19294313  0.19524174  1
  Rh  Rh221  1  0.60184036  0.79005837  0.40575883  1
  Rh  Rh222  1  0.39886639  0.00927994  0.20489290  1
  Rh  Rh223  1  0.40329523  0.00004614  0.59892740  1
  Rh  Rh224  1  0.59753330  0.20477417  0.78872813  1
  Rh  Rh225  1  0.79125914  0.80276284  0.00923566  1
  Rh  Rh226  1  0.39765285  0.40633398  0.19650575  1
  Rh  Rh227  1  0.00199847  0.19803686  0.39453558  1
  Rh  Rh228  1  0.80158667  0.59338169  0.80966442  1
  Rh  Rh229  1  0.40718517  0.80040237  0.79695263  1
  Rh  Rh230  1  0.20080725  0.80822000  0.19906120  1
  Rh  Rh231  1  0.20417260  0.40350443  0.00671985  1
  Rh  Rh232  1  0.00792903  0.79684977  0.21225926  1
  Rh  Rh233  1  0.79486721  0.40023164  0.59847825  1
  Rh  Rh234  1  0.60512156  0.38697539  0.19039668  1
  Rh  Rh235  1  0.39288091  0.59135302  0.60708469  1
  Rh  Rh236  1  0.80284683  0.80157823  0.78827467  1
  Rh  Rh237  1  0.60740632  0.39455192  0.60029042  1
  Rh  Rh238  1  0.80667805  0.00313748  0.80930488  1
  Rh  Rh239  1  0.79527159  0.19556285  0.60394313  1
  Rh  Rh240  1  0.79195074  0.40689699  0.00492235  1
  Rh  Rh241  1  -0.00299789  0.40447484  -0.00376095  1
  Rh  Rh242  1  0.00088774  0.40238964  0.59960706  1
  Rh  Rh243  1  -0.01003831  0.39048692  0.80245065  1
  Rh  Rh244  1  0.19094873  0.19989712  0.19812415  1
  Rh  Rh245  1  0.19291740  0.59377019  0.40587218  1
  Rh  Rh246  1  0.40207391  0.78972456  0.19442127  1
  Rh  Rh247  1  0.20754066  0.79587832  0.59922861  1
  Rh  Rh248  1  0.40001252  0.80232550  0.59608967  1
  Rh  Rh249  1  0.19653915  -0.00028188  0.19990772  1
