# generated using pymatgen
data_ZrScNbPdRh
_symmetry_space_group_name_H-M   'P 1'
_cell_length_a   16.56108433
_cell_length_b   16.56127486
_cell_length_c   16.55468115
_cell_angle_alpha   89.98516211
_cell_angle_beta   89.99200804
_cell_angle_gamma   89.99234474
_symmetry_Int_Tables_number   1
_chemical_formula_structural   ZrScNbPdRh
_chemical_formula_sum   'Zr50 Sc50 Nb50 Pd50 Rh50'
_cell_volume   4540.49635840
_cell_formula_units_Z   50
loop_
 _symmetry_equiv_pos_site_id
 _symmetry_equiv_pos_as_xyz
  1  'x, y, z'
loop_
 _atom_site_type_symbol
 _atom_site_label
 _atom_site_symmetry_multiplicity
 _atom_site_fract_x
 _atom_site_fract_y
 _atom_site_fract_z
 _atom_site_occupancy
  Zr  Zr0  1  0.49807025  0.30014254  0.30184959  1
  Zr  Zr1  1  0.69423569  0.68803138  0.30777337  1
  Zr  Zr2  1  0.49874929  0.68812559  0.69394328  1
  Zr  Zr3  1  0.90229654  0.10032753  0.50248253  1
  Zr  Zr4  1  0.29834434  0.70074469  0.50736208  1
  Zr  Zr5  1  0.09982459  0.89659842  0.09880782  1
  Zr  Zr6  1  0.69784637  0.90170490  0.90140146  1
  Zr  Zr7  1  0.90741440  0.09371591  0.70003276  1
  Zr  Zr8  1  0.89559934  0.88557830  0.89949630  1
  Zr  Zr9  1  0.49986638  0.10549807  0.69903747  1
  Zr  Zr10  1  0.49765838  0.10286648  0.09988802  1
  Zr  Zr11  1  0.49512637  0.50300798  0.89846811  1
  Zr  Zr12  1  0.49770468  0.89431468  0.50294240  1
  Zr  Zr13  1  0.90385891  0.10759852  0.09169193  1
  Zr  Zr14  1  0.49000851  0.70236892  0.89978792  1
  Zr  Zr15  1  0.09872485  0.29448885  0.10619951  1
  Zr  Zr16  1  0.70306996  0.69412762  0.50556011  1
  Zr  Zr17  1  0.11059842  0.10045003  0.30174910  1
  Zr  Zr18  1  0.30380984  0.30961778  0.30430884  1
  Zr  Zr19  1  0.29298327  0.49513050  0.91122957  1
  Zr  Zr20  1  0.09381052  0.69445885  0.49280220  1
  Zr  Zr21  1  0.30032183  0.89697164  0.50382983  1
  Zr  Zr22  1  0.49849366  0.90267455  0.70964857  1
  Zr  Zr23  1  0.89403028  0.29575951  0.89999795  1
  Zr  Zr24  1  0.49895562  0.29494903  0.09524461  1
  Zr  Zr25  1  0.29206704  0.09799719  0.49674880  1
  Zr  Zr26  1  0.70383032  0.91080040  0.70139648  1
  Zr  Zr27  1  0.70262805  0.10094499  0.70095285  1
  Zr  Zr28  1  0.90075019  0.70131593  0.50699560  1
  Zr  Zr29  1  0.89678240  0.49224976  0.30099535  1
  Zr  Zr30  1  0.10003715  0.91025803  0.89486880  1
  Zr  Zr31  1  0.89883756  0.89878229  0.09688380  1
  Zr  Zr32  1  0.29402838  0.90679930  0.30701185  1
  Zr  Zr33  1  0.49988912  0.50106109  0.70185463  1
  Zr  Zr34  1  0.90413869  0.29950209  0.49960425  1
  Zr  Zr35  1  0.49701805  0.49924149  0.09726953  1
  Zr  Zr36  1  0.10130982  0.50402798  0.31075718  1
  Zr  Zr37  1  0.69589526  0.50214052  0.69536965  1
  Zr  Zr38  1  0.28867484  0.09815219  0.89244464  1
  Zr  Zr39  1  0.10433000  0.49632088  0.50150887  1
  Zr  Zr40  1  0.90440177  0.49977603  0.88690746  1
  Zr  Zr41  1  0.32367924  0.89400224  0.89622106  1
  Zr  Zr42  1  0.30389531  0.50318075  0.30568469  1
  Zr  Zr43  1  0.49210427  0.50841635  0.29880279  1
  Zr  Zr44  1  0.50021529  0.29769327  0.69558576  1
  Zr  Zr45  1  0.89318696  0.70307366  0.09012486  1
  Zr  Zr46  1  0.90236901  0.89627695  0.50164394  1
  Zr  Zr47  1  0.49936550  0.89874736  0.08006668  1
  Zr  Zr48  1  0.69532354  0.90767241  0.30042167  1
  Zr  Zr49  1  0.69989093  0.50404258  0.89718261  1
  Sc  Sc50  1  0.50341304  0.10159581  0.90091412  1
  Sc  Sc51  1  0.09468840  0.70271958  0.68998784  1
  Sc  Sc52  1  0.29589757  0.69702680  0.10427056  1
  Sc  Sc53  1  0.09355608  0.10681970  0.50986416  1
  Sc  Sc54  1  0.50183331  0.10653056  0.30100156  1
  Sc  Sc55  1  0.30335573  0.31240959  0.51203407  1
  Sc  Sc56  1  0.71456409  0.50536528  0.50151020  1
  Sc  Sc57  1  0.29965060  0.30222212  0.09699471  1
  Sc  Sc58  1  0.69369645  0.10095991  0.30226995  1
  Sc  Sc59  1  0.69932514  0.29225267  0.89310049  1
  Sc  Sc60  1  0.89936082  0.70145238  0.31372890  1
  Sc  Sc61  1  0.51031195  0.11362433  0.49886636  1
  Sc  Sc62  1  0.90065247  0.30301104  0.29926563  1
  Sc  Sc63  1  0.89841832  0.30648500  0.70672845  1
  Sc  Sc64  1  0.90859760  0.10480375  0.89282384  1
  Sc  Sc65  1  0.49946353  0.90722791  0.31118267  1
  Sc  Sc66  1  0.30057387  0.49722506  0.68619338  1
  Sc  Sc67  1  0.08626467  0.69683732  0.89270475  1
  Sc  Sc68  1  0.10943412  0.30009050  0.69572556  1
  Sc  Sc69  1  0.69982697  0.68366644  0.09026747  1
  Sc  Sc70  1  0.70247153  0.90520423  0.50081103  1
  Sc  Sc71  1  0.29593088  0.29867600  0.90412109  1
  Sc  Sc72  1  0.89472258  0.49374503  0.69512306  1
  Sc  Sc73  1  0.70043777  0.28857220  0.09752674  1
  Sc  Sc74  1  0.70208424  0.30529988  0.70395538  1
  Sc  Sc75  1  0.90157660  0.29873975  0.10763608  1
  Sc  Sc76  1  0.68994263  0.10196949  0.10048814  1
  Sc  Sc77  1  0.90415952  0.50096451  0.50012975  1
  Sc  Sc78  1  0.10873343  0.49675640  0.10230440  1
  Sc  Sc79  1  0.89163198  0.10376679  0.30100579  1
  Sc  Sc80  1  0.30606009  0.89551146  0.70198666  1
  Sc  Sc81  1  0.30681029  0.90018741  0.09664153  1
  Sc  Sc82  1  0.88968991  0.49730295  0.11085270  1
  Sc  Sc83  1  0.69916156  0.10091036  0.49645960  1
  Sc  Sc84  1  0.90338438  0.90103838  0.69722289  1
  Sc  Sc85  1  0.89538548  0.89838798  0.30116296  1
  Sc  Sc86  1  0.09322832  0.31053996  0.29887029  1
  Sc  Sc87  1  0.30942838  0.10083980  0.30006048  1
  Sc  Sc88  1  0.10616603  0.88839479  0.50073573  1
  Sc  Sc89  1  0.10344643  0.70668083  0.10771704  1
  Sc  Sc90  1  0.48467704  0.50745120  0.49899118  1
  Sc  Sc91  1  0.69054401  0.90681629  0.09707053  1
  Sc  Sc92  1  0.30309011  0.49646480  0.10525742  1
  Sc  Sc93  1  0.29409528  0.69789794  0.29887970  1
  Sc  Sc94  1  0.09154561  0.49503113  0.70540848  1
  Sc  Sc95  1  0.50090391  0.69109834  0.09560326  1
  Sc  Sc96  1  0.10390499  0.30436672  0.89142744  1
  Sc  Sc97  1  0.70231846  0.29337766  0.49811421  1
  Sc  Sc98  1  0.70732263  0.29395743  0.30066458  1
  Sc  Sc99  1  0.30636519  0.69804728  0.69708152  1
  Nb  Nb100  1  0.71684159  0.70026358  0.89960977  1
  Nb  Nb101  1  0.29374509  0.50139929  0.49340150  1
  Nb  Nb102  1  0.50609491  0.30594530  0.49968606  1
  Nb  Nb103  1  0.10209798  0.89675875  0.29516456  1
  Nb  Nb104  1  0.70169647  0.49541945  0.29362311  1
  Nb  Nb105  1  0.49953954  0.69953422  0.30532030  1
  Nb  Nb106  1  0.89129303  0.69570376  0.89902311  1
  Nb  Nb107  1  0.10293311  0.09629427  0.89366878  1
  Nb  Nb108  1  0.69781213  0.69557370  0.69755124  1
  Nb  Nb109  1  0.71075654  0.10107135  0.90115903  1
  Nb  Nb110  1  0.29894940  0.10602140  0.70101171  1
  Nb  Nb111  1  0.29225663  0.10232497  0.09685798  1
  Nb  Nb112  1  0.10691137  0.08961164  0.71949020  1
  Nb  Nb113  1  0.50355001  0.89501782  0.89921147  1
  Nb  Nb114  1  0.90035244  0.69907803  0.70661880  1
  Nb  Nb115  1  0.10475008  0.09726230  0.09381882  1
  Nb  Nb116  1  0.09823608  0.49931566  0.90142788  1
  Nb  Nb117  1  0.50057808  0.70153034  0.49714439  1
  Nb  Nb118  1  0.29829656  0.69761993  0.89537627  1
  Nb  Nb119  1  0.69864626  0.49668251  0.09949137  1
  Nb  Nb120  1  0.09600453  0.70623798  0.29927051  1
  Nb  Nb121  1  0.30416683  0.29693023  0.70232090  1
  Nb  Nb122  1  0.50146807  0.30569711  0.89941728  1
  Nb  Nb123  1  0.10159909  0.30201302  0.49698604  1
  Nb  Nb124  1  0.10322336  0.90270946  0.70250862  1
  Nb  Nb125  1  0.00714022  -0.00483368  0.39402923  1
  Nb  Nb126  1  0.79774619  0.40054662  -0.00089304  1
  Nb  Nb127  1  0.20127897  0.79684548  0.80229265  1
  Nb  Nb128  1  0.59697799  0.40261512  0.59103860  1
  Nb  Nb129  1  0.59607458  0.79495537  0.20417686  1
  Nb  Nb130  1  -0.00425483  0.59488894  0.00227958  1
  Nb  Nb131  1  0.60049632  0.40511977  0.39761521  1
  Nb  Nb132  1  0.60127608  0.79451016  0.60585774  1
  Nb  Nb133  1  -0.00249836  0.40451591  -0.00148846  1
  Nb  Nb134  1  -0.00017156  0.60313075  0.20206491  1
  Nb  Nb135  1  0.78733301  0.79764196  0.20056574  1
  Nb  Nb136  1  0.19856529  0.60052066  0.80430932  1
  Nb  Nb137  1  0.00678275  0.00207466  0.19973086  1
  Nb  Nb138  1  0.60317927  0.40351247  0.19990037  1
  Nb  Nb139  1  0.19901527  0.20920150  0.40455980  1
  Nb  Nb140  1  0.19859755  0.00319933  0.19229962  1
  Nb  Nb141  1  0.39695877  0.00892964  0.60327751  1
  Nb  Nb142  1  0.80111427  0.00374814  -0.00385042  1
  Nb  Nb143  1  0.60538682  0.79396813  0.80017840  1
  Nb  Nb144  1  0.20347989  0.79804663  -0.01293932  1
  Nb  Nb145  1  0.39791845  0.39399224  0.79807020  1
  Nb  Nb146  1  0.80630451  0.19788695  0.60208606  1
  Nb  Nb147  1  0.20126529  0.00304557  0.61010507  1
  Nb  Nb148  1  0.60231771  0.40031953  0.00013261  1
  Nb  Nb149  1  0.40986371  0.79939552  0.20477449  1
  Pd  Pd150  1  0.20837127  0.19995586  0.20767394  1
  Pd  Pd151  1  0.39168579  0.60238387  0.00512753  1
  Pd  Pd152  1  0.39980900  -0.00534728  0.19743377  1
  Pd  Pd153  1  0.20109182  0.40236399  0.20205398  1
  Pd  Pd154  1  0.19378528  0.59867707  0.20481992  1
  Pd  Pd155  1  0.60185678  0.19825892  0.80182306  1
  Pd  Pd156  1  0.00007424  0.19139255  0.20788966  1
  Pd  Pd157  1  0.60297969  0.60992865  0.80916269  1
  Pd  Pd158  1  0.01245478  -0.00795560  0.59448219  1
  Pd  Pd159  1  0.18838199  0.60942382  -0.00379067  1
  Pd  Pd160  1  0.39326195  0.20243404  0.19649691  1
  Pd  Pd161  1  0.60599899  0.80177295  0.40462534  1
  Pd  Pd162  1  0.80604821  0.60802583  0.20602236  1
  Pd  Pd163  1  0.19158594  0.20447133  -0.00638538  1
  Pd  Pd164  1  0.41036912  0.00958204  0.41211309  1
  Pd  Pd165  1  0.59784023  0.59965150  0.19714357  1
  Pd  Pd166  1  0.19949674  0.79358773  0.39825799  1
  Pd  Pd167  1  -0.00025223  0.20719090  0.61314695  1
  Pd  Pd168  1  0.20866709  0.40658151  0.79317174  1
  Pd  Pd169  1  -0.00281479  0.59545794  0.60533159  1
  Pd  Pd170  1  0.59962493  0.58754962  0.40951445  1
  Pd  Pd171  1  0.79634043  0.80071199  0.60758172  1
  Pd  Pd172  1  0.19494842  0.59740180  0.60768372  1
  Pd  Pd173  1  0.39776690  0.19844160  0.59018813  1
  Pd  Pd174  1  -0.00620493  0.00221779  -0.00369778  1
  Pd  Pd175  1  0.00863898  0.79080920  -0.00361990  1
  Pd  Pd176  1  0.39543958  0.19576451  -0.00700480  1
  Pd  Pd177  1  0.20851774  -0.00967580  -0.00120383  1
  Pd  Pd178  1  0.79558491  0.80021688  0.78938577  1
  Pd  Pd179  1  0.39370132  0.79497250  0.39290890  1
  Pd  Pd180  1  0.59805986  0.00283521  0.80743563  1
  Pd  Pd181  1  0.39838796  0.01207310  -0.00591948  1
  Pd  Pd182  1  0.00393330  0.80045339  0.79485111  1
  Pd  Pd183  1  0.79789126  0.19767683  0.19894698  1
  Pd  Pd184  1  0.01035658  0.20848472  -0.00729613  1
  Pd  Pd185  1  0.79156730  0.80148727  0.39687280  1
  Pd  Pd186  1  0.39839821  0.20358038  0.80935321  1
  Pd  Pd187  1  0.00251163  0.39646631  0.60173196  1
  Pd  Pd188  1  0.80175182  0.59531857  0.78975331  1
  Pd  Pd189  1  -0.01346067  0.79736639  0.20633863  1
  Pd  Pd190  1  0.19771284  0.19782955  0.60087034  1
  Pd  Pd191  1  0.80527903  0.00170726  0.40167179  1
  Pd  Pd192  1  0.59367113  -0.00121327  0.59333634  1
  Pd  Pd193  1  0.39336363  0.20489488  0.41002492  1
  Pd  Pd194  1  0.58595582  -0.00440809  0.19904084  1
  Pd  Pd195  1  0.80408493  0.00020277  0.19141575  1
  Pd  Pd196  1  0.00778900  0.20637326  0.79432797  1
  Pd  Pd197  1  0.60658232  0.78623766  -0.00217448  1
  Pd  Pd198  1  0.00490733  0.19699060  0.39247666  1
  Pd  Pd199  1  0.79565596  0.39765185  0.40495197  1
  Rh  Rh200  1  0.40360847  0.40194453  0.40538255  1
  Rh  Rh201  1  0.60211564  0.59800768  -0.00979981  1
  Rh  Rh202  1  -0.00090334  0.40127337  0.40422359  1
  Rh  Rh203  1  0.79482745  0.40185243  0.80468281  1
  Rh  Rh204  1  0.20137432  0.39538052  0.40391044  1
  Rh  Rh205  1  0.60394709  0.01105965  -0.00763222  1
  Rh  Rh206  1  0.59785568  0.59650442  0.58945815  1
  Rh  Rh207  1  -0.00029743  0.80109103  0.60278314  1
  Rh  Rh208  1  0.81068826  0.60283098  0.60675686  1
  Rh  Rh209  1  0.40391848  0.39872048  0.19704907  1
  Rh  Rh210  1  0.39054343  0.61019082  0.40454302  1
  Rh  Rh211  1  0.80412700  0.19473378  0.79059639  1
  Rh  Rh212  1  0.78693935  0.80874924  0.01088980  1
  Rh  Rh213  1  0.19012398  0.39196905  0.00672083  1
  Rh  Rh214  1  0.79069497  0.38844129  0.19273117  1
  Rh  Rh215  1  0.59961642  0.20482041  0.20452722  1
  Rh  Rh216  1  0.40478182  0.40169729  0.60287805  1
  Rh  Rh217  1  0.00264449  0.80719550  0.39986390  1
  Rh  Rh218  1  0.19008293  0.00388196  0.40611064  1
  Rh  Rh219  1  0.60277347  0.20827694  0.39441764  1
  Rh  Rh220  1  0.39512598  0.59913773  0.59265248  1
  Rh  Rh221  1  -0.00011927  0.60122564  0.79675144  1
  Rh  Rh222  1  0.59289744  0.39815115  0.79899509  1
  Rh  Rh223  1  0.80821638  0.00128139  0.80877813  1
  Rh  Rh224  1  0.79304456  0.39016089  0.59532237  1
  Rh  Rh225  1  0.39344237  0.78855657  0.01101443  1
  Rh  Rh226  1  0.19804999  0.80535027  0.61110488  1
  Rh  Rh227  1  0.00119285  0.39485799  0.80112558  1
  Rh  Rh228  1  0.40485532  0.79154568  0.79138141  1
  Rh  Rh229  1  0.61263198  0.20911298  0.60357938  1
  Rh  Rh230  1  0.80588291  0.59479719  0.39678374  1
  Rh  Rh231  1  0.41045793  0.80130383  0.60501819  1
  Rh  Rh232  1  0.59715253  0.00411775  0.40428202  1
  Rh  Rh233  1  0.00239576  0.41064068  0.19363677  1
  Rh  Rh234  1  0.40403482  0.39693719  -0.00455102  1
  Rh  Rh235  1  0.21439075  0.81105307  0.19604081  1
  Rh  Rh236  1  0.80301358  0.19841416  0.40563228  1
  Rh  Rh237  1  0.80832321  0.58616983  -0.00345471  1
  Rh  Rh238  1  0.60129196  0.20282900  -0.00699948  1
  Rh  Rh239  1  -0.00317587  0.59882244  0.39556698  1
  Rh  Rh240  1  -0.00793152  -0.00636114  0.80496614  1
  Rh  Rh241  1  0.40102084  0.01096857  0.79742351  1
  Rh  Rh242  1  0.39877678  0.60892808  0.20034717  1
  Rh  Rh243  1  0.38282170  0.58409094  0.80040073  1
  Rh  Rh244  1  0.80150565  0.00735025  0.59646229  1
  Rh  Rh245  1  0.20110088  0.60694025  0.39987918  1
  Rh  Rh246  1  0.21259011  -0.01225388  0.79658629  1
  Rh  Rh247  1  0.79888798  0.19782081  0.00007311  1
  Rh  Rh248  1  0.19833114  0.20435936  0.79874474  1
  Rh  Rh249  1  0.19877702  0.40096949  0.60109935  1
