# generated using pymatgen
data_ZrScNbPdRh
_symmetry_space_group_name_H-M   'P 1'
_cell_length_a   16.55159644
_cell_length_b   16.54984519
_cell_length_c   16.55079184
_cell_angle_alpha   90.01150711
_cell_angle_beta   90.00658668
_cell_angle_gamma   89.99757333
_symmetry_Int_Tables_number   1
_chemical_formula_structural   ZrScNbPdRh
_chemical_formula_sum   'Zr50 Sc50 Nb50 Pd50 Rh50'
_cell_volume   4533.69801563
_cell_formula_units_Z   50
loop_
 _symmetry_equiv_pos_site_id
 _symmetry_equiv_pos_as_xyz
  1  'x, y, z'
loop_
 _atom_site_type_symbol
 _atom_site_label
 _atom_site_symmetry_multiplicity
 _atom_site_fract_x
 _atom_site_fract_y
 _atom_site_fract_z
 _atom_site_occupancy
  Zr  Zr0  1  0.70236072  0.90639809  0.50479203  1
  Zr  Zr1  1  0.69213263  0.69831267  0.50801934  1
  Zr  Zr2  1  0.09540124  0.10128501  0.49261481  1
  Zr  Zr3  1  0.11096319  0.90353680  0.50096867  1
  Zr  Zr4  1  0.90322572  0.89691426  0.09799086  1
  Zr  Zr5  1  0.09501514  0.29608407  0.89546633  1
  Zr  Zr6  1  0.28894319  0.50066572  0.09657265  1
  Zr  Zr7  1  0.09621161  0.30888443  0.70489185  1
  Zr  Zr8  1  0.29321357  0.89706686  0.10806364  1
  Zr  Zr9  1  0.70787992  0.68737319  0.90098074  1
  Zr  Zr10  1  0.48852074  0.29887470  0.71018795  1
  Zr  Zr11  1  0.11162790  0.09865472  0.70912846  1
  Zr  Zr12  1  0.50634751  0.10006804  0.29802975  1
  Zr  Zr13  1  0.70434194  0.09888717  0.30219366  1
  Zr  Zr14  1  0.88842933  0.10134090  0.70654161  1
  Zr  Zr15  1  0.10650632  0.50718078  0.28700451  1
  Zr  Zr16  1  0.29558807  0.70214499  0.50161728  1
  Zr  Zr17  1  0.50333913  0.09765581  0.90020878  1
  Zr  Zr18  1  0.10156977  0.30165131  0.49633774  1
  Zr  Zr19  1  0.09959431  0.11112282  0.10202354  1
  Zr  Zr20  1  0.70124200  0.70808068  0.70415046  1
  Zr  Zr21  1  0.50896028  0.31001839  0.29665851  1
  Zr  Zr22  1  0.10069798  0.09701756  0.90451493  1
  Zr  Zr23  1  0.09940726  0.89652804  0.90341856  1
  Zr  Zr24  1  0.50579277  0.29746985  0.08727444  1
  Zr  Zr25  1  0.69956736  0.90571422  0.29461450  1
  Zr  Zr26  1  0.69081049  0.70403325  0.28484108  1
  Zr  Zr27  1  0.28602156  0.69596000  0.69879226  1
  Zr  Zr28  1  0.69977767  0.29617412  0.30089265  1
  Zr  Zr29  1  0.29882834  0.70270470  0.29459053  1
  Zr  Zr30  1  0.70609462  0.30821983  0.10220871  1
  Zr  Zr31  1  0.69851882  0.50527065  0.70200630  1
  Zr  Zr32  1  0.49328855  0.69184144  0.29494769  1
  Zr  Zr33  1  0.29973596  0.29882249  0.49933131  1
  Zr  Zr34  1  0.50292950  0.89476526  0.70154224  1
  Zr  Zr35  1  0.89505053  0.90495941  0.29864649  1
  Zr  Zr36  1  0.90488047  0.09421989  0.09160765  1
  Zr  Zr37  1  0.90193418  0.90306342  0.50290062  1
  Zr  Zr38  1  0.49521529  0.91105596  0.49949483  1
  Zr  Zr39  1  0.90705314  0.10132848  0.30390830  1
  Zr  Zr40  1  0.31292984  0.50735029  0.29611786  1
  Zr  Zr41  1  0.68723106  0.30257151  0.90765136  1
  Zr  Zr42  1  0.09319553  0.70000337  0.10874076  1
  Zr  Zr43  1  0.50224734  0.48069111  0.89949699  1
  Zr  Zr44  1  0.49656055  0.10386724  0.09434541  1
  Zr  Zr45  1  0.10486439  0.70081876  0.50282112  1
  Zr  Zr46  1  0.49863160  0.29621375  0.50147220  1
  Zr  Zr47  1  0.10705985  0.89773370  0.30040073  1
  Zr  Zr48  1  0.49454212  0.50037106  0.49640918  1
  Zr  Zr49  1  0.71034569  0.89512407  0.10327031  1
  Sc  Sc50  1  0.49980438  0.89569598  0.08687171  1
  Sc  Sc51  1  0.70202774  0.29023525  0.69921896  1
  Sc  Sc52  1  0.10514461  0.70140961  0.88766422  1
  Sc  Sc53  1  0.89654333  0.30687611  0.50646492  1
  Sc  Sc54  1  0.50065979  0.90864568  0.29455299  1
  Sc  Sc55  1  0.30746157  0.70118387  0.09314172  1
  Sc  Sc56  1  0.29209542  0.49468147  0.70122882  1
  Sc  Sc57  1  0.29777888  0.08495542  0.50084775  1
  Sc  Sc58  1  0.90892804  0.29789364  0.10071639  1
  Sc  Sc59  1  0.69017281  0.48584719  0.29517031  1
  Sc  Sc60  1  0.69331552  0.70170202  0.09162168  1
  Sc  Sc61  1  0.69809117  0.29965877  0.49523366  1
  Sc  Sc62  1  0.29440810  0.50215290  0.49734046  1
  Sc  Sc63  1  0.49909220  0.10054188  0.70453804  1
  Sc  Sc64  1  0.50023332  0.49909468  0.10808279  1
  Sc  Sc65  1  0.29728187  0.89388961  0.91319002  1
  Sc  Sc66  1  0.90876049  0.50560303  0.29729519  1
  Sc  Sc67  1  0.29630114  0.90353799  0.68680574  1
  Sc  Sc68  1  0.10211045  0.30988905  0.10526515  1
  Sc  Sc69  1  0.09977977  0.69564254  0.29747901  1
  Sc  Sc70  1  0.49984337  0.70516511  0.50935799  1
  Sc  Sc71  1  0.10029693  0.89325040  0.09546339  1
  Sc  Sc72  1  0.50303920  0.70542514  0.91586145  1
  Sc  Sc73  1  0.69757188  0.89777791  0.90288448  1
  Sc  Sc74  1  0.90646774  0.49427021  0.70251225  1
  Sc  Sc75  1  0.10608714  0.49557593  0.89714379  1
  Sc  Sc76  1  0.30055437  0.09985996  0.10462631  1
  Sc  Sc77  1  0.69845789  0.09535729  0.89341173  1
  Sc  Sc78  1  0.69912820  0.49188345  0.49866189  1
  Sc  Sc79  1  0.50584979  0.70200337  0.10587004  1
  Sc  Sc80  1  0.30265397  0.09973123  0.70672285  1
  Sc  Sc81  1  0.89963587  0.49675558  0.50148025  1
  Sc  Sc82  1  0.89708984  0.48871869  0.09525667  1
  Sc  Sc83  1  0.30770558  0.30877670  0.89703539  1
  Sc  Sc84  1  0.89934632  0.70708058  0.09784053  1
  Sc  Sc85  1  0.69743948  0.09585144  0.70166020  1
  Sc  Sc86  1  0.10012370  0.49979912  0.70134143  1
  Sc  Sc87  1  0.69444019  0.10200878  0.50246842  1
  Sc  Sc88  1  0.10364012  0.29218905  0.29824323  1
  Sc  Sc89  1  0.29339045  0.30097579  0.29752061  1
  Sc  Sc90  1  0.29542563  0.09134656  0.89938433  1
  Sc  Sc91  1  0.69828170  0.90220676  0.70398702  1
  Sc  Sc92  1  0.70121560  0.09704217  0.10158397  1
  Sc  Sc93  1  0.90071453  0.69838628  0.89176447  1
  Sc  Sc94  1  0.89578117  0.09600167  0.49582571  1
  Sc  Sc95  1  0.89104575  0.88896774  0.69581599  1
  Sc  Sc96  1  0.10507304  0.10788023  0.30518053  1
  Sc  Sc97  1  0.30091702  0.29930169  0.10251675  1
  Sc  Sc98  1  0.90853870  0.69925484  0.28892276  1
  Sc  Sc99  1  0.90072355  0.29543400  0.30131675  1
  Nb  Nb100  1  0.09259262  0.70677791  0.69889249  1
  Nb  Nb101  1  0.50666026  0.69723972  0.69903495  1
  Nb  Nb102  1  0.70660580  0.50191080  0.09089278  1
  Nb  Nb103  1  0.90086077  0.70114429  0.69506206  1
  Nb  Nb104  1  0.50526575  0.29287534  0.90332185  1
  Nb  Nb105  1  0.29720329  0.90404426  0.30594041  1
  Nb  Nb106  1  0.29474184  0.29258304  0.69659731  1
  Nb  Nb107  1  0.88904990  0.50241852  0.90204432  1
  Nb  Nb108  1  0.90265935  0.29868088  0.89606894  1
  Nb  Nb109  1  0.09584987  0.50222348  0.49969583  1
  Nb  Nb110  1  0.70918721  0.49940530  0.90565729  1
  Nb  Nb111  1  0.90512720  0.30285796  0.70572018  1
  Nb  Nb112  1  0.09387433  0.89599920  0.70045350  1
  Nb  Nb113  1  0.29765457  0.89769717  0.49152391  1
  Nb  Nb114  1  0.09816960  0.50421661  0.09903843  1
  Nb  Nb115  1  0.30419956  0.69351420  0.89514405  1
  Nb  Nb116  1  0.90427060  0.91114389  0.91544960  1
  Nb  Nb117  1  0.89723656  0.70551634  0.50234345  1
  Nb  Nb118  1  0.30375254  0.09836185  0.29855520  1
  Nb  Nb119  1  0.49971449  0.10132009  0.49084992  1
  Nb  Nb120  1  0.30049523  0.51678006  0.90114633  1
  Nb  Nb121  1  0.50015538  0.50429868  0.30118678  1
  Nb  Nb122  1  0.90456231  0.09960180  0.90567801  1
  Nb  Nb123  1  0.50046914  0.50201982  0.70116956  1
  Nb  Nb124  1  0.49823176  0.90032116  0.89763118  1
  Nb  Nb125  1  0.39786398  0.80628699  0.39964453  1
  Nb  Nb126  1  0.19707856  0.20315717  -0.00372923  1
  Nb  Nb127  1  0.40330755  0.19385440  0.39697692  1
  Nb  Nb128  1  0.80627300  0.20037260  -0.00812697  1
  Nb  Nb129  1  0.00131094  0.19962476  0.60729336  1
  Nb  Nb130  1  0.00913437  0.40547032  0.40073030  1
  Nb  Nb131  1  0.19768968  0.20199382  0.60200293  1
  Nb  Nb132  1  -0.00329495  0.79994847  0.40447425  1
  Nb  Nb133  1  0.79330650  0.59598282  0.19686759  1
  Nb  Nb134  1  0.00011044  0.59412708  -0.00197192  1
  Nb  Nb135  1  0.59852283  0.60134927  0.39623488  1
  Nb  Nb136  1  0.80219038  0.39643293  0.80653420  1
  Nb  Nb137  1  0.40339708  0.60039127  0.60982519  1
  Nb  Nb138  1  0.59791769  0.80080556  0.39863057  1
  Nb  Nb139  1  0.59482475  0.59751408  0.80268785  1
  Nb  Nb140  1  0.40438403  0.60157029  0.80105206  1
  Nb  Nb141  1  0.79780917  0.79356752  0.39955021  1
  Nb  Nb142  1  0.00330897  0.00246277  0.61132957  1
  Nb  Nb143  1  0.40061291  0.79201670  0.80073654  1
  Nb  Nb144  1  -0.00498122  -0.00373825  0.80227551  1
  Nb  Nb145  1  0.00242197  0.00111604  0.20033838  1
  Nb  Nb146  1  0.59042062  0.39900375  0.60631054  1
  Nb  Nb147  1  0.79478046  0.60675054  0.39744046  1
  Nb  Nb148  1  -0.00147785  0.60833925  0.60068491  1
  Nb  Nb149  1  0.80521070  0.60515381  0.60015995  1
  Pd  Pd150  1  -0.00628216  0.60190837  0.40678087  1
  Pd  Pd151  1  0.39720945  0.40665820  0.60437300  1
  Pd  Pd152  1  -0.00093438  0.19071753  0.79599195  1
  Pd  Pd153  1  0.60383942  0.20096490  0.19337006  1
  Pd  Pd154  1  0.59501279  -0.00312514  0.18631729  1
  Pd  Pd155  1  0.39706771  0.39274250  0.39466788  1
  Pd  Pd156  1  0.20848845  0.80785734  0.79649765  1
  Pd  Pd157  1  0.59621065  0.79374555  0.81084044  1
  Pd  Pd158  1  0.19328582  0.00573694  0.20106007  1
  Pd  Pd159  1  0.80470426  0.20003655  0.59597448  1
  Pd  Pd160  1  0.59291917  0.59138795  -0.00372694  1
  Pd  Pd161  1  0.00105700  0.59455921  0.79937538  1
  Pd  Pd162  1  0.00061506  0.39863952  0.20818442  1
  Pd  Pd163  1  0.19955769  0.39984315  0.59941310  1
  Pd  Pd164  1  0.60632403  -0.00223677  0.00164058  1
  Pd  Pd165  1  0.39903603  0.39790280  0.19509214  1
  Pd  Pd166  1  0.60841195  0.39765788  0.79343063  1
  Pd  Pd167  1  0.40374849  0.80764615  0.20308338  1
  Pd  Pd168  1  0.39437359  -0.01271085  0.80173459  1
  Pd  Pd169  1  0.18863281  0.60943701  -0.00054353  1
  Pd  Pd170  1  0.80250272  0.20099643  0.40828139  1
  Pd  Pd171  1  0.59565785  0.00352988  0.60437585  1
  Pd  Pd172  1  0.38790426  0.19752768  -0.00850263  1
  Pd  Pd173  1  0.59546717  0.20257050  0.60524987  1
  Pd  Pd174  1  0.80607807  0.19566877  0.19073751  1
  Pd  Pd175  1  0.80402303  -0.00972533  0.80663766  1
  Pd  Pd176  1  0.39228720  0.18830733  0.59397024  1
  Pd  Pd177  1  0.19756803  0.41011192  0.39081238  1
  Pd  Pd178  1  -0.01093475  0.80803031  0.80557267  1
  Pd  Pd179  1  0.40301999  -0.00474211  0.19493401  1
  Pd  Pd180  1  0.80954334  0.40685989  0.39106934  1
  Pd  Pd181  1  0.00113046  0.40475595  -0.00516889  1
  Pd  Pd182  1  0.40124223  0.00663492  0.60400399  1
  Pd  Pd183  1  0.19797103  0.78766258  0.00202717  1
  Pd  Pd184  1  0.38995911  0.40601953  0.79707526  1
  Pd  Pd185  1  0.20688871  0.40008865  0.80543746  1
  Pd  Pd186  1  0.39489602  0.19651095  0.81066002  1
  Pd  Pd187  1  0.20326131  -0.01479776  0.80218884  1
  Pd  Pd188  1  0.39531156  0.40292165  0.00479525  1
  Pd  Pd189  1  0.41043127  0.59584439  0.00125575  1
  Pd  Pd190  1  0.40046058  0.20705568  0.20669935  1
  Pd  Pd191  1  0.79366393  0.40279203  0.61065046  1
  Pd  Pd192  1  0.80698790  0.40489430  0.20729180  1
  Pd  Pd193  1  0.20182460  0.59822420  0.39660660  1
  Pd  Pd194  1  0.39311257  -0.00230909  0.00261835  1
  Pd  Pd195  1  0.80668823  0.80769662  0.80965037  1
  Pd  Pd196  1  0.79378454  0.20576405  0.80837658  1
  Pd  Pd197  1  0.39605967  0.79617977  0.60175265  1
  Pd  Pd198  1  0.20085125  0.39498968  -0.00462444  1
  Pd  Pd199  1  0.80326440  0.79505597  -0.00813239  1
  Rh  Rh200  1  0.00247845  0.20861910  0.00114686  1
  Rh  Rh201  1  0.39719457  0.59821955  0.18769734  1
  Rh  Rh202  1  0.79086232  0.79836003  0.59819234  1
  Rh  Rh203  1  0.59881434  0.58764843  0.59749875  1
  Rh  Rh204  1  0.19960952  0.00574056  0.00932914  1
  Rh  Rh205  1  0.20743398  0.60616352  0.19221134  1
  Rh  Rh206  1  0.00082216  0.81088186  0.20938758  1
  Rh  Rh207  1  0.40513435  0.61219839  0.41281383  1
  Rh  Rh208  1  0.79343615  0.00105045  0.40250576  1
  Rh  Rh209  1  0.60777184  0.58710642  0.19971128  1
  Rh  Rh210  1  0.80202548  0.79088373  0.20156096  1
  Rh  Rh211  1  -0.00886139  0.21435813  0.41055800  1
  Rh  Rh212  1  0.59615163  -0.00188825  0.80001336  1
  Rh  Rh213  1  0.00643998  -0.00938226  0.39511960  1
  Rh  Rh214  1  0.21645525  0.19132998  0.40544501  1
  Rh  Rh215  1  0.60027193  0.40272646  0.19118459  1
  Rh  Rh216  1  0.79179700  0.00649267  -0.00249675  1
  Rh  Rh217  1  0.20780889  0.20751905  0.80486220  1
  Rh  Rh218  1  0.59713685  0.19856104  0.79943132  1
  Rh  Rh219  1  0.19264682  0.59546800  0.60471486  1
  Rh  Rh220  1  -0.00704933  0.40957085  0.81014148  1
  Rh  Rh221  1  0.39921101  0.79992849  -0.00359475  1
  Rh  Rh222  1  0.60930481  0.19005605  0.00139765  1
  Rh  Rh223  1  0.60476164  -0.00177452  0.40089667  1
  Rh  Rh224  1  0.80334633  0.00400052  0.60177051  1
  Rh  Rh225  1  -0.01322308  0.59267769  0.18182359  1
  Rh  Rh226  1  0.20389987  0.20076182  0.19429773  1
  Rh  Rh227  1  0.60175807  0.81307070  0.59717032  1
  Rh  Rh228  1  0.20194440  0.40313599  0.20101321  1
  Rh  Rh229  1  0.19714773  0.59827185  0.79676726  1
  Rh  Rh230  1  0.20168112  0.00734225  0.39414122  1
  Rh  Rh231  1  0.20086222  0.79555041  0.19934686  1
  Rh  Rh232  1  0.19537833  0.00344657  0.60204652  1
  Rh  Rh233  1  0.00333316  0.78674906  -0.01026113  1
  Rh  Rh234  1  0.19672966  0.80538883  0.60458600  1
  Rh  Rh235  1  0.00077321  0.19683028  0.20256828  1
  Rh  Rh236  1  0.01196293  -0.00257639  0.00427063  1
  Rh  Rh237  1  0.60039916  0.40680474  0.00717092  1
  Rh  Rh238  1  0.60464698  0.80313353  -0.00145079  1
  Rh  Rh239  1  0.79926606  0.59580465  0.79150681  1
  Rh  Rh240  1  0.81058672  0.00877665  0.19694010  1
  Rh  Rh241  1  0.59364684  0.81044685  0.19811163  1
  Rh  Rh242  1  0.00691554  0.80195745  0.59478199  1
  Rh  Rh243  1  0.81045750  0.60403488  0.00998219  1
  Rh  Rh244  1  0.59614733  0.40324150  0.40850089  1
  Rh  Rh245  1  0.80396638  0.38870838  -0.00597135  1
  Rh  Rh246  1  0.20001170  0.79437375  0.39390172  1
  Rh  Rh247  1  0.00162336  0.40158049  0.59333544  1
  Rh  Rh248  1  0.59778207  0.20039285  0.39779224  1
  Rh  Rh249  1  0.39730562  0.00175331  0.39412511  1
