# generated using pymatgen
data_ZrScNbPdRh
_symmetry_space_group_name_H-M   'P 1'
_cell_length_a   16.56093332
_cell_length_b   16.56386155
_cell_length_c   16.56315352
_cell_angle_alpha   89.97385219
_cell_angle_beta   90.00414054
_cell_angle_gamma   89.98674795
_symmetry_Int_Tables_number   1
_chemical_formula_structural   ZrScNbPdRh
_chemical_formula_sum   'Zr50 Sc50 Nb50 Pd50 Rh50'
_cell_volume   4543.48783529
_cell_formula_units_Z   50
loop_
 _symmetry_equiv_pos_site_id
 _symmetry_equiv_pos_as_xyz
  1  'x, y, z'
loop_
 _atom_site_type_symbol
 _atom_site_label
 _atom_site_symmetry_multiplicity
 _atom_site_fract_x
 _atom_site_fract_y
 _atom_site_fract_z
 _atom_site_occupancy
  Zr  Zr0  1  0.69534952  0.69486143  0.70725039  1
  Zr  Zr1  1  0.70165483  0.90146595  0.10047217  1
  Zr  Zr2  1  0.50386059  0.49414239  0.30161995  1
  Zr  Zr3  1  0.89994328  0.50280362  0.49799485  1
  Zr  Zr4  1  0.89876264  0.70034591  0.70901072  1
  Zr  Zr5  1  0.09769715  0.50141073  0.90119765  1
  Zr  Zr6  1  0.69748964  0.90255285  0.49600829  1
  Zr  Zr7  1  0.90897787  0.69834264  0.50690348  1
  Zr  Zr8  1  0.09420837  0.49873409  0.50198395  1
  Zr  Zr9  1  0.70537094  0.10503703  0.49974806  1
  Zr  Zr10  1  0.29540514  0.29980363  0.50228683  1
  Zr  Zr11  1  0.50094713  0.89743243  0.08735404  1
  Zr  Zr12  1  0.29914164  0.10810823  0.10015500  1
  Zr  Zr13  1  0.90679200  0.50919846  0.89552252  1
  Zr  Zr14  1  0.90363372  0.50210519  0.69952284  1
  Zr  Zr15  1  0.30684418  0.10453389  0.69885978  1
  Zr  Zr16  1  0.69689831  0.29967414  0.30980035  1
  Zr  Zr17  1  0.28876395  0.09968503  0.90235412  1
  Zr  Zr18  1  0.70604666  0.70706846  0.49281064  1
  Zr  Zr19  1  0.91193921  0.70079593  0.89853369  1
  Zr  Zr20  1  0.49464985  0.10315731  0.29891585  1
  Zr  Zr21  1  0.70324021  0.30325906  0.68744487  1
  Zr  Zr22  1  0.11021761  0.49588488  0.10869746  1
  Zr  Zr23  1  0.30216416  0.29895185  0.90573191  1
  Zr  Zr24  1  0.69580302  0.89965818  0.29724439  1
  Zr  Zr25  1  0.90098588  0.10033949  0.50495991  1
  Zr  Zr26  1  0.09991866  0.10290184  0.09324464  1
  Zr  Zr27  1  0.49249599  0.29055221  0.69760346  1
  Zr  Zr28  1  0.49797891  0.29443150  0.29587347  1
  Zr  Zr29  1  0.30020167  0.89602197  0.50134588  1
  Zr  Zr30  1  0.69956950  0.30394047  0.90344065  1
  Zr  Zr31  1  0.88437405  0.69004666  0.30262792  1
  Zr  Zr32  1  0.10426823  0.69908533  0.30785803  1
  Zr  Zr33  1  0.70845844  0.50002929  0.30155950  1
  Zr  Zr34  1  0.90923445  0.09732575  0.90254012  1
  Zr  Zr35  1  0.29890614  0.49800226  0.49713586  1
  Zr  Zr36  1  0.50369789  0.50663218  0.69314183  1
  Zr  Zr37  1  0.70156595  0.09245846  0.10298829  1
  Zr  Zr38  1  0.89317442  0.90012774  0.89823715  1
  Zr  Zr39  1  0.30704950  0.69647003  0.11688069  1
  Zr  Zr40  1  0.70414455  0.08712537  0.90127276  1
  Zr  Zr41  1  0.30254719  0.49877132  0.69784416  1
  Zr  Zr42  1  0.50013459  0.08297271  0.89064723  1
  Zr  Zr43  1  0.50464145  0.70936211  0.90019808  1
  Zr  Zr44  1  0.49050223  0.30220582  0.08848157  1
  Zr  Zr45  1  0.10632697  0.29715585  0.49583469  1
  Zr  Zr46  1  0.49927661  0.50265210  0.10103096  1
  Zr  Zr47  1  0.10023874  0.30143767  0.29619336  1
  Zr  Zr48  1  0.90592758  0.89515296  0.70385205  1
  Zr  Zr49  1  0.49815214  0.89865737  0.49736072  1
  Sc  Sc50  1  0.50512031  0.69994781  0.10058120  1
  Sc  Sc51  1  0.49555784  0.70037918  0.70624037  1
  Sc  Sc52  1  0.89438542  0.29361110  0.50237806  1
  Sc  Sc53  1  0.91056001  0.28804684  0.90295894  1
  Sc  Sc54  1  0.50135753  0.91085944  0.30620969  1
  Sc  Sc55  1  0.10064416  0.10770725  0.29829303  1
  Sc  Sc56  1  0.69924500  0.70466190  0.10758205  1
  Sc  Sc57  1  0.89976976  0.28832550  0.10506359  1
  Sc  Sc58  1  0.10244452  0.10646403  0.50248833  1
  Sc  Sc59  1  0.89702879  0.49608721  0.30498971  1
  Sc  Sc60  1  0.49301841  0.70046823  0.29485335  1
  Sc  Sc61  1  0.08959605  0.90265473  0.10163981  1
  Sc  Sc62  1  0.10538537  0.29650719  0.89543043  1
  Sc  Sc63  1  0.30093245  0.90357844  0.69457085  1
  Sc  Sc64  1  0.09846036  0.89324403  0.50192774  1
  Sc  Sc65  1  0.90100514  0.90508566  0.29055822  1
  Sc  Sc66  1  0.29595853  0.49036296  0.89960683  1
  Sc  Sc67  1  0.10669821  0.10230319  0.69911371  1
  Sc  Sc68  1  0.29272988  0.29018322  0.30292023  1
  Sc  Sc69  1  0.89953111  0.70668552  0.10464773  1
  Sc  Sc70  1  0.09794648  0.29673892  0.69830242  1
  Sc  Sc71  1  0.49616280  0.10076879  0.10707044  1
  Sc  Sc72  1  0.90142821  0.09487456  0.09638072  1
  Sc  Sc73  1  0.90684284  0.10117942  0.29342486  1
  Sc  Sc74  1  0.09015013  0.69675795  0.10309218  1
  Sc  Sc75  1  0.69179871  0.50319436  0.09919566  1
  Sc  Sc76  1  0.49881603  0.30275598  0.48624689  1
  Sc  Sc77  1  0.49524137  0.09903268  0.48949981  1
  Sc  Sc78  1  0.89827015  0.09714129  0.70076844  1
  Sc  Sc79  1  0.89608716  0.90271428  0.10170053  1
  Sc  Sc80  1  0.09413805  0.49246090  0.70150586  1
  Sc  Sc81  1  0.50508955  0.49604577  0.91244509  1
  Sc  Sc82  1  0.49335146  0.50163714  0.49888037  1
  Sc  Sc83  1  0.09821026  0.90549712  0.89634814  1
  Sc  Sc84  1  0.09438573  0.71263758  0.69838414  1
  Sc  Sc85  1  0.11011648  0.89965342  0.69537526  1
  Sc  Sc86  1  0.70280057  0.29880415  0.10545767  1
  Sc  Sc87  1  0.90446609  0.51101821  0.11167934  1
  Sc  Sc88  1  0.71304728  0.90041640  0.70873736  1
  Sc  Sc89  1  0.30216601  0.70915795  0.69868483  1
  Sc  Sc90  1  0.69540835  0.50695066  0.90133568  1
  Sc  Sc91  1  0.29407911  0.51456650  0.29523482  1
  Sc  Sc92  1  0.30864567  0.70710927  0.88972557  1
  Sc  Sc93  1  0.29573125  0.10287423  0.50059922  1
  Sc  Sc94  1  0.69791087  0.70611876  0.89743310  1
  Sc  Sc95  1  0.09925290  0.49276813  0.30203374  1
  Sc  Sc96  1  0.08890084  0.90471528  0.30112904  1
  Sc  Sc97  1  0.31000797  0.90356146  0.89799169  1
  Sc  Sc98  1  0.69582003  0.48571838  0.50252350  1
  Sc  Sc99  1  0.89717210  0.89678114  0.50243558  1
  Nb  Nb100  1  0.29728149  0.49783942  0.09953224  1
  Nb  Nb101  1  0.10214786  0.69630445  0.90432314  1
  Nb  Nb102  1  0.69929795  0.29360235  0.49686384  1
  Nb  Nb103  1  0.69876136  0.70124247  0.30487650  1
  Nb  Nb104  1  0.29564735  0.70656270  0.30409999  1
  Nb  Nb105  1  0.10245072  0.70010793  0.50461835  1
  Nb  Nb106  1  0.90047464  0.29325400  0.70343164  1
  Nb  Nb107  1  0.29274300  0.30594492  0.09721165  1
  Nb  Nb108  1  0.70020563  0.49942175  0.70053092  1
  Nb  Nb109  1  0.30166195  0.90168108  0.30063679  1
  Nb  Nb110  1  0.69094572  0.90118396  0.90444246  1
  Nb  Nb111  1  0.11170457  0.30242232  0.10249103  1
  Nb  Nb112  1  0.50190715  0.70236271  0.49998700  1
  Nb  Nb113  1  0.70232044  0.09843378  0.69768847  1
  Nb  Nb114  1  0.29902931  0.89826255  0.10072777  1
  Nb  Nb115  1  0.29676841  0.70235509  0.49062901  1
  Nb  Nb116  1  0.49943065  0.90877193  0.70615056  1
  Nb  Nb117  1  0.89510448  0.30313992  0.29911542  1
  Nb  Nb118  1  0.50388015  0.09626329  0.70022983  1
  Nb  Nb119  1  0.30504380  0.09589157  0.29833256  1
  Nb  Nb120  1  0.68817500  0.09451089  0.29857405  1
  Nb  Nb121  1  0.50423999  0.30153757  0.89981333  1
  Nb  Nb122  1  0.09515995  0.10401647  0.90402477  1
  Nb  Nb123  1  0.29991381  0.30145714  0.70293229  1
  Nb  Nb124  1  0.50978137  0.89821002  0.89377597  1
  Nb  Nb125  1  0.00171633  0.39918598  0.00710376  1
  Nb  Nb126  1  0.59850179  0.19571530  -0.00740957  1
  Nb  Nb127  1  0.19829918  0.60599652  0.59738188  1
  Nb  Nb128  1  0.39265341  0.59943254  0.00312993  1
  Nb  Nb129  1  0.79604200  0.59743131  0.60346044  1
  Nb  Nb130  1  0.20408893  0.80508201  0.20322138  1
  Nb  Nb131  1  0.81003756  0.40680934  -0.00312528  1
  Nb  Nb132  1  0.60229339  0.19685124  0.79718417  1
  Nb  Nb133  1  0.79597988  0.00522453  0.39546854  1
  Nb  Nb134  1  0.60000826  0.00135876  0.60532768  1
  Nb  Nb135  1  0.19832280  0.60235377  0.79905925  1
  Nb  Nb136  1  0.20462097  -0.00164601  0.39280724  1
  Nb  Nb137  1  0.80092018  0.39884265  0.79932542  1
  Nb  Nb138  1  0.40575661  0.39447869  0.79862646  1
  Nb  Nb139  1  0.20441497  0.60624459  -0.00106919  1
  Nb  Nb140  1  0.80384483  0.60073488  -0.00187856  1
  Nb  Nb141  1  0.39195997  0.39957435  0.19385692  1
  Nb  Nb142  1  0.79579317  0.20135398  0.79725038  1
  Nb  Nb143  1  0.60272248  0.60561878  0.40021078  1
  Nb  Nb144  1  0.60062966  0.19505950  0.60038707  1
  Nb  Nb145  1  0.20341663  0.79649156  0.00635984  1
  Nb  Nb146  1  0.59972890  0.39655856  0.79332438  1
  Nb  Nb147  1  0.59653882  0.80500510  0.60161643  1
  Nb  Nb148  1  0.20674971  -0.00346194  0.20177783  1
  Nb  Nb149  1  -0.00006905  -0.00062057  0.60014422  1
  Pd  Pd150  1  0.40689912  0.18852730  -0.00851511  1
  Pd  Pd151  1  0.40338027  0.19707065  0.58872651  1
  Pd  Pd152  1  -0.00728359  0.79849407  0.39672464  1
  Pd  Pd153  1  0.00132969  0.00234130  0.40776674  1
  Pd  Pd154  1  0.40152502  -0.00614569  0.19582082  1
  Pd  Pd155  1  0.80458095  0.19336117  0.38783878  1
  Pd  Pd156  1  0.40037005  0.00299894  -0.00006625  1
  Pd  Pd157  1  0.00192718  0.20087258  0.19627877  1
  Pd  Pd158  1  0.40528581  0.60455355  0.39829787  1
  Pd  Pd159  1  0.59236147  0.59321500  0.80831561  1
  Pd  Pd160  1  0.40407650  0.79823428  0.39396922  1
  Pd  Pd161  1  -0.00662106  0.39052595  0.40336534  1
  Pd  Pd162  1  0.79635111  0.79385211  -0.00170212  1
  Pd  Pd163  1  -0.00386003  0.20562451  0.39869979  1
  Pd  Pd164  1  0.19589631  0.59495239  0.40562360  1
  Pd  Pd165  1  0.19533479  0.40278470  0.60469932  1
  Pd  Pd166  1  0.59642408  0.39326230  0.19542795  1
  Pd  Pd167  1  0.40430269  0.39623534  0.59976326  1
  Pd  Pd168  1  0.19808360  0.79929281  0.80798291  1
  Pd  Pd169  1  0.38808134  0.39848571  0.38701210  1
  Pd  Pd170  1  0.60718592  0.60784264  0.58943583  1
  Pd  Pd171  1  0.79727835  0.20227301  -0.00338335  1
  Pd  Pd172  1  0.40472758  0.79652852  0.60371701  1
  Pd  Pd173  1  0.58960685  0.39247679  0.59615661  1
  Pd  Pd174  1  0.39851155  0.58876398  0.81152769  1
  Pd  Pd175  1  -0.00404550  0.39008138  0.80659404  1
  Pd  Pd176  1  0.19634088  -0.01035534  0.00417066  1
  Pd  Pd177  1  0.40201407  0.19841061  0.80958559  1
  Pd  Pd178  1  0.60347898  0.60271211  0.20853627  1
  Pd  Pd179  1  0.39527184  0.79398795  -0.00101763  1
  Pd  Pd180  1  0.80410631  0.40296405  0.19170675  1
  Pd  Pd181  1  0.00539391  0.80653222  -0.00241558  1
  Pd  Pd182  1  0.39091967  0.61145246  0.59435019  1
  Pd  Pd183  1  0.20169322  0.00038851  0.79854628  1
  Pd  Pd184  1  0.81000965  0.81159178  0.39095674  1
  Pd  Pd185  1  0.59245119  0.80504055  0.20408303  1
  Pd  Pd186  1  0.40481851  0.80964602  0.20554708  1
  Pd  Pd187  1  0.19803672  0.20139769  0.79686773  1
  Pd  Pd188  1  0.19377359  0.81051887  0.39595009  1
  Pd  Pd189  1  0.80806521  0.40303808  0.59954477  1
  Pd  Pd190  1  0.79689863  0.19310796  0.20858614  1
  Pd  Pd191  1  0.00059081  0.79629536  0.20722364  1
  Pd  Pd192  1  -0.00731346  0.39517324  0.19559757  1
  Pd  Pd193  1  0.79505443  0.79481997  0.60721143  1
  Pd  Pd194  1  0.00298035  0.60107658  0.21006912  1
  Pd  Pd195  1  0.00169763  0.60019610  0.39436516  1
  Pd  Pd196  1  0.00736346  0.00308248  0.79109079  1
  Pd  Pd197  1  -0.00490909  0.38818607  0.59571306  1
  Pd  Pd198  1  0.60003795  0.20213154  0.19156210  1
  Pd  Pd199  1  0.40339199  0.00513642  0.59526512  1
  Rh  Rh200  1  0.59189007  -0.00512739  0.19459972  1
  Rh  Rh201  1  0.20417483  0.20401895  0.60589795  1
  Rh  Rh202  1  0.80214161  0.39397668  0.40355214  1
  Rh  Rh203  1  0.00091060  0.59473987  0.00911856  1
  Rh  Rh204  1  0.79879038  0.00508672  0.20695864  1
  Rh  Rh205  1  0.80055880  0.19999343  0.60565587  1
  Rh  Rh206  1  0.60188072  0.40344226  0.40136098  1
  Rh  Rh207  1  0.79250418  0.60182381  0.19383763  1
  Rh  Rh208  1  0.79179925  0.59284944  0.41181763  1
  Rh  Rh209  1  0.60407826  0.00821276  0.40519506  1
  Rh  Rh210  1  0.19185705  0.40184985  -0.00366563  1
  Rh  Rh211  1  0.19312399  0.60974591  0.19890136  1
  Rh  Rh212  1  0.39645148  0.40743913  -0.00113433  1
  Rh  Rh213  1  0.59704651  0.19643912  0.40347775  1
  Rh  Rh214  1  0.40294395  0.59133036  0.19993411  1
  Rh  Rh215  1  0.20576993  0.79289928  0.59522412  1
  Rh  Rh216  1  0.80183653  0.00132652  0.80382827  1
  Rh  Rh217  1  0.39065576  0.00190104  0.40463940  1
  Rh  Rh218  1  0.79570698  0.59615824  0.80107673  1
  Rh  Rh219  1  0.00968669  0.20969308  0.00625669  1
  Rh  Rh220  1  0.59145294  0.79170040  0.39853718  1
  Rh  Rh221  1  0.40546342  0.81118032  0.79573254  1
  Rh  Rh222  1  0.20745451  0.40127603  0.79486212  1
  Rh  Rh223  1  -0.00068247  0.19474766  0.60441872  1
  Rh  Rh224  1  0.39145277  0.21071160  0.19884479  1
  Rh  Rh225  1  0.20011285  0.19113433  0.39800313  1
  Rh  Rh226  1  -0.00051349  0.19413271  0.79672170  1
  Rh  Rh227  1  0.61010008  -0.00519515  0.79242434  1
  Rh  Rh228  1  0.80381788  -0.00279228  0.59385755  1
  Rh  Rh229  1  0.39418428  0.20028683  0.39993224  1
  Rh  Rh230  1  0.00673515  0.00717912  0.19446358  1
  Rh  Rh231  1  0.19303119  -0.00037388  0.58950465  1
  Rh  Rh232  1  0.60061821  0.61195827  -0.00072435  1
  Rh  Rh233  1  0.00265222  0.60381156  0.60636334  1
  Rh  Rh234  1  0.80348771  -0.00581479  0.00045512  1
  Rh  Rh235  1  0.20979109  0.39679225  0.21051804  1
  Rh  Rh236  1  0.20267042  0.40398202  0.39578875  1
  Rh  Rh237  1  0.59489038  0.00424840  0.00633076  1
  Rh  Rh238  1  -0.00056294  -0.00479150  -0.00097810  1
  Rh  Rh239  1  0.01529692  0.60765467  0.78964522  1
  Rh  Rh240  1  0.20195785  0.19537509  0.19939432  1
  Rh  Rh241  1  0.79959628  0.79981905  0.20408752  1
  Rh  Rh242  1  0.00858572  0.80334067  0.80492065  1
  Rh  Rh243  1  0.19484365  0.20486858  -0.00188761  1
  Rh  Rh244  1  0.59995912  0.80789197  0.79098716  1
  Rh  Rh245  1  0.61026278  0.39381304  0.00620850  1
  Rh  Rh246  1  0.60601255  0.79900659  0.00142841  1
  Rh  Rh247  1  0.39091352  -0.00152255  0.79743392  1
  Rh  Rh248  1  0.79687169  0.79984184  0.80863128  1
  Rh  Rh249  1  0.00036489  0.80675992  0.60055461  1
