# generated using pymatgen
data_ZrScNbPdRh
_symmetry_space_group_name_H-M   'P 1'
_cell_length_a   16.56353569
_cell_length_b   16.55907725
_cell_length_c   16.56251454
_cell_angle_alpha   90.01505839
_cell_angle_beta   89.99606690
_cell_angle_gamma   90.00121057
_symmetry_Int_Tables_number   1
_chemical_formula_structural   ZrScNbPdRh
_chemical_formula_sum   'Zr50 Sc50 Nb50 Pd50 Rh50'
_cell_volume   4542.71442913
_cell_formula_units_Z   50
loop_
 _symmetry_equiv_pos_site_id
 _symmetry_equiv_pos_as_xyz
  1  'x, y, z'
loop_
 _atom_site_type_symbol
 _atom_site_label
 _atom_site_symmetry_multiplicity
 _atom_site_fract_x
 _atom_site_fract_y
 _atom_site_fract_z
 _atom_site_occupancy
  Zr  Zr0  1  0.89976742  0.69853195  0.30382067  1
  Zr  Zr1  1  0.70251232  0.50254283  0.10860825  1
  Zr  Zr2  1  0.49148026  0.11572252  0.29097281  1
  Zr  Zr3  1  0.09426653  0.29713051  0.50505062  1
  Zr  Zr4  1  0.09919488  0.08229900  0.30665419  1
  Zr  Zr5  1  0.28471328  0.90189007  0.30392943  1
  Zr  Zr6  1  0.89531514  0.69642274  0.10069386  1
  Zr  Zr7  1  0.51459578  0.69661494  0.89745869  1
  Zr  Zr8  1  0.89890337  0.10028809  0.30471539  1
  Zr  Zr9  1  0.30867591  0.50560981  0.70544730  1
  Zr  Zr10  1  0.89921040  0.90718865  0.71517744  1
  Zr  Zr11  1  0.50515450  0.70252910  0.09699687  1
  Zr  Zr12  1  0.70763592  0.88876581  0.89707539  1
  Zr  Zr13  1  0.71010146  0.89834777  0.69786943  1
  Zr  Zr14  1  0.50076807  0.68674095  0.69860072  1
  Zr  Zr15  1  0.09831577  0.89497236  0.10178178  1
  Zr  Zr16  1  0.90705254  0.09829012  0.89470201  1
  Zr  Zr17  1  0.88220936  0.89809038  0.50701392  1
  Zr  Zr18  1  0.08890277  0.89052172  0.89692568  1
  Zr  Zr19  1  0.08742256  0.50152800  0.69688500  1
  Zr  Zr20  1  0.29665002  0.69215407  0.89747150  1
  Zr  Zr21  1  0.30421456  0.49870663  0.09510121  1
  Zr  Zr22  1  0.30005569  0.29893569  0.50234241  1
  Zr  Zr23  1  0.69998838  0.10218387  0.69544021  1
  Zr  Zr24  1  0.29197078  0.70114872  0.09316638  1
  Zr  Zr25  1  0.50263314  0.10206026  0.09264679  1
  Zr  Zr26  1  0.29361390  0.89328057  0.69674507  1
  Zr  Zr27  1  0.70662657  0.30950998  0.30053070  1
  Zr  Zr28  1  0.31275254  0.29312249  0.30155478  1
  Zr  Zr29  1  0.29612411  0.70686987  0.30065709  1
  Zr  Zr30  1  0.49932182  0.10197673  0.90178952  1
  Zr  Zr31  1  0.70052321  0.70010876  0.51245334  1
  Zr  Zr32  1  0.69828971  0.50018243  0.30239339  1
  Zr  Zr33  1  0.50160714  0.90313694  0.29605861  1
  Zr  Zr34  1  0.09791670  0.50173350  0.89290333  1
  Zr  Zr35  1  0.49601735  0.29881197  0.49953976  1
  Zr  Zr36  1  0.50221545  0.69975883  0.50580831  1
  Zr  Zr37  1  0.30356205  0.70193380  0.50521859  1
  Zr  Zr38  1  0.30079143  0.30182004  0.89544546  1
  Zr  Zr39  1  0.89637313  0.49848168  0.69660283  1
  Zr  Zr40  1  0.50303527  0.30258873  0.69284945  1
  Zr  Zr41  1  0.29828149  0.10508019  0.90662859  1
  Zr  Zr42  1  0.49713542  0.10226940  0.69076038  1
  Zr  Zr43  1  0.29697312  0.09902072  0.70103963  1
  Zr  Zr44  1  0.09756909  0.70923298  0.29951118  1
  Zr  Zr45  1  0.49780149  0.30151338  0.90276800  1
  Zr  Zr46  1  0.30596918  0.89620270  0.50293277  1
  Zr  Zr47  1  0.10090066  0.89972602  0.70634317  1
  Zr  Zr48  1  0.90437133  0.89912808  0.29702537  1
  Zr  Zr49  1  0.50030485  0.10124194  0.50034352  1
  Sc  Sc50  1  0.30503743  0.49409183  0.90009520  1
  Sc  Sc51  1  0.10193893  0.69999576  0.71205585  1
  Sc  Sc52  1  0.11106237  0.90415848  0.48802971  1
  Sc  Sc53  1  0.09933880  0.30001056  0.89638518  1
  Sc  Sc54  1  0.89536147  0.69381367  0.49825219  1
  Sc  Sc55  1  0.50777129  0.89408500  0.90891869  1
  Sc  Sc56  1  0.69819688  0.09899143  0.49841615  1
  Sc  Sc57  1  0.89889646  0.30290560  0.49290685  1
  Sc  Sc58  1  0.69238476  0.50301019  0.90719254  1
  Sc  Sc59  1  0.30964520  0.48823572  0.29876960  1
  Sc  Sc60  1  0.90222897  0.69125305  0.69531674  1
  Sc  Sc61  1  0.90071169  0.30265712  0.71187262  1
  Sc  Sc62  1  0.49763723  0.49899044  0.89931757  1
  Sc  Sc63  1  0.90144102  0.49419379  0.89986651  1
  Sc  Sc64  1  0.30578343  0.30344592  0.09451242  1
  Sc  Sc65  1  0.29896252  0.29921782  0.69891848  1
  Sc  Sc66  1  0.30017391  0.90147793  0.10120595  1
  Sc  Sc67  1  0.50298393  0.49875559  0.70051789  1
  Sc  Sc68  1  0.50357628  0.30677842  0.30389739  1
  Sc  Sc69  1  0.89324467  0.70946228  0.90810544  1
  Sc  Sc70  1  0.70428474  0.90062365  0.30458119  1
  Sc  Sc71  1  0.89618672  0.89779286  0.09217527  1
  Sc  Sc72  1  0.70256597  0.10563956  0.30505809  1
  Sc  Sc73  1  0.10477536  0.10494287  0.90418165  1
  Sc  Sc74  1  0.49500294  0.90113245  0.68867178  1
  Sc  Sc75  1  0.50622709  0.49694218  0.09593820  1
  Sc  Sc76  1  0.10068394  0.10754753  0.70131267  1
  Sc  Sc77  1  0.90078385  0.10181757  0.70208891  1
  Sc  Sc78  1  0.90250191  0.50602944  0.50281509  1
  Sc  Sc79  1  0.50023099  0.89627892  0.09710749  1
  Sc  Sc80  1  0.09986152  0.29917936  0.69734411  1
  Sc  Sc81  1  0.30843696  0.49202936  0.50444549  1
  Sc  Sc82  1  0.89798252  0.10660316  0.49906806  1
  Sc  Sc83  1  0.89359769  0.49719463  0.09236791  1
  Sc  Sc84  1  0.29796626  0.09884208  0.50736662  1
  Sc  Sc85  1  0.28752423  0.89653415  0.90260623  1
  Sc  Sc86  1  0.70622411  0.69371826  0.28572043  1
  Sc  Sc87  1  0.69530540  0.30647486  0.49555679  1
  Sc  Sc88  1  0.09692710  0.50086180  0.08519735  1
  Sc  Sc89  1  0.08889306  0.69644326  0.49437683  1
  Sc  Sc90  1  0.70910627  0.49639170  0.50320316  1
  Sc  Sc91  1  0.51031043  0.71080256  0.29203192  1
  Sc  Sc92  1  0.69421989  0.10031988  0.91044041  1
  Sc  Sc93  1  0.50783788  0.89663095  0.49575700  1
  Sc  Sc94  1  0.50362664  0.49329140  0.50783902  1
  Sc  Sc95  1  0.89190975  0.49979823  0.31091223  1
  Sc  Sc96  1  0.09839939  0.29807324  0.08554505  1
  Sc  Sc97  1  0.70325327  0.69596914  0.09203286  1
  Sc  Sc98  1  0.90251356  0.08900378  0.09849562  1
  Sc  Sc99  1  0.70300212  0.30574871  0.89513113  1
  Nb  Nb100  1  0.90294931  0.29972500  0.90896274  1
  Nb  Nb101  1  0.09673681  0.49876301  0.49766356  1
  Nb  Nb102  1  0.09672826  0.30017803  0.30238320  1
  Nb  Nb103  1  0.70128535  0.89980312  0.50439757  1
  Nb  Nb104  1  0.70036994  0.91436739  0.09185486  1
  Nb  Nb105  1  0.70254758  0.30660589  0.69706345  1
  Nb  Nb106  1  0.69425241  0.69288206  0.70998207  1
  Nb  Nb107  1  0.30068845  0.10089033  0.29573909  1
  Nb  Nb108  1  0.90022159  0.30470034  0.10137767  1
  Nb  Nb109  1  0.89965699  0.90018364  0.89863901  1
  Nb  Nb110  1  0.09640818  0.49962182  0.30332636  1
  Nb  Nb111  1  0.10372875  0.69907620  0.91581197  1
  Nb  Nb112  1  0.90210301  0.30022936  0.29918936  1
  Nb  Nb113  1  0.51518698  0.28672054  0.10486320  1
  Nb  Nb114  1  0.70211723  0.29953006  0.10489331  1
  Nb  Nb115  1  0.10149756  0.89505172  0.30071459  1
  Nb  Nb116  1  0.69473554  0.10931127  0.09921057  1
  Nb  Nb117  1  0.70091230  0.49618892  0.69551351  1
  Nb  Nb118  1  0.30438623  0.69984524  0.69787389  1
  Nb  Nb119  1  0.29654501  0.10199642  0.10371238  1
  Nb  Nb120  1  0.50287324  0.50637464  0.30184280  1
  Nb  Nb121  1  0.09538090  0.10330816  0.50474909  1
  Nb  Nb122  1  0.69897404  0.70069006  0.89341340  1
  Nb  Nb123  1  0.10622633  0.10401619  0.10251256  1
  Nb  Nb124  1  0.09944232  0.69528478  0.09545673  1
  Nb  Nb125  1  0.19668001  0.19880141  0.20276729  1
  Nb  Nb126  1  0.00104778  0.39864708  0.20258601  1
  Nb  Nb127  1  0.80438636  0.20598044  0.00567716  1
  Nb  Nb128  1  0.00492079  0.59565628  0.20099298  1
  Nb  Nb129  1  0.60042950  0.20040167  0.79431544  1
  Nb  Nb130  1  0.59643287  0.00204199  0.79808708  1
  Nb  Nb131  1  0.00182536  0.20228516  0.20077182  1
  Nb  Nb132  1  0.19533498  0.19753864  0.39603032  1
  Nb  Nb133  1  0.40005739  -0.00457117  0.80190026  1
  Nb  Nb134  1  0.79574120  0.20809707  0.60447785  1
  Nb  Nb135  1  0.00090632  -0.00303891  0.59876972  1
  Nb  Nb136  1  0.39775739  0.79703167  0.79709088  1
  Nb  Nb137  1  0.60408976  0.00759737  0.19366102  1
  Nb  Nb138  1  0.19752385  0.59347010  0.20252120  1
  Nb  Nb139  1  0.40434948  0.60163528  0.39481663  1
  Nb  Nb140  1  0.19321516  0.39758302  0.39778450  1
  Nb  Nb141  1  0.19114278  0.39710730  0.20419213  1
  Nb  Nb142  1  0.79175907  0.60081885  0.79988408  1
  Nb  Nb143  1  0.39728906  0.00321573  0.39326239  1
  Nb  Nb144  1  0.80564192  0.20549252  0.19474181  1
  Nb  Nb145  1  0.19902169  0.59776829  0.59757753  1
  Nb  Nb146  1  -0.00104466  0.80942314  0.60201987  1
  Nb  Nb147  1  0.59771548  0.60070067  0.40040499  1
  Nb  Nb148  1  0.20209528  0.59189498  0.39996537  1
  Nb  Nb149  1  0.39901475  0.60233300  0.20169328  1
  Pd  Pd150  1  0.00200453  0.19796559  0.39797290  1
  Pd  Pd151  1  0.40609450  0.80257150  0.39622375  1
  Pd  Pd152  1  0.00697047  0.00016522  -0.00171717  1
  Pd  Pd153  1  -0.00779844  -0.01012927  0.41187414  1
  Pd  Pd154  1  0.19869809  0.59800330  0.79638227  1
  Pd  Pd155  1  0.61217633  0.79225493  0.39775313  1
  Pd  Pd156  1  0.59806792  0.39948129  0.79972378  1
  Pd  Pd157  1  0.19758213  0.40020712  -0.00074878  1
  Pd  Pd158  1  -0.00719264  0.78741452  0.79935865  1
  Pd  Pd159  1  0.19811395  -0.00037194  0.19484464  1
  Pd  Pd160  1  0.79306750  0.00668973  0.20083280  1
  Pd  Pd161  1  0.61536188  0.81184984  0.19056564  1
  Pd  Pd162  1  0.19904705  0.40809208  0.60025913  1
  Pd  Pd163  1  0.39621976  0.79978770  -0.00978922  1
  Pd  Pd164  1  0.60019548  0.80283540  0.60972615  1
  Pd  Pd165  1  0.80583771  0.79093739  0.61218541  1
  Pd  Pd166  1  0.41011614  0.39958647  0.19270933  1
  Pd  Pd167  1  0.40285475  0.19790445  0.79515569  1
  Pd  Pd168  1  0.80110843  0.00714600  -0.00725248  1
  Pd  Pd169  1  0.79457020  0.80649946  0.19278096  1
  Pd  Pd170  1  0.79764255  0.00090093  0.40294897  1
  Pd  Pd171  1  0.39431078  0.79907937  0.19828808  1
  Pd  Pd172  1  0.79980578  0.40838465  0.80466711  1
  Pd  Pd173  1  0.79149362  0.79345352  0.39684598  1
  Pd  Pd174  1  0.19377122  -0.00300542  0.00103652  1
  Pd  Pd175  1  -0.00880550  0.59880330  -0.00167721  1
  Pd  Pd176  1  -0.01169925  0.60863874  0.81168554  1
  Pd  Pd177  1  0.60323587  0.20390510  0.39682199  1
  Pd  Pd178  1  0.39785622  0.20483161  0.00558943  1
  Pd  Pd179  1  -0.00475889  0.80965066  0.41143356  1
  Pd  Pd180  1  0.59042033  0.81088238  0.78966410  1
  Pd  Pd181  1  0.00040049  -0.00046280  0.19635507  1
  Pd  Pd182  1  0.60298441  -0.00603594  0.60086139  1
  Pd  Pd183  1  -0.00538562  0.19624804  0.00522226  1
  Pd  Pd184  1  0.79473578  0.19978577  0.80434730  1
  Pd  Pd185  1  0.78951414  0.00984687  0.81072143  1
  Pd  Pd186  1  0.59384823  0.40029461  0.19996547  1
  Pd  Pd187  1  0.18529279  0.78832008  0.59507086  1
  Pd  Pd188  1  0.19961841  0.00352474  0.80620907  1
  Pd  Pd189  1  0.40421495  -0.00095767  0.19918878  1
  Pd  Pd190  1  0.00486499  0.20401975  0.79904421  1
  Pd  Pd191  1  -0.00339370  0.79540030  0.19293460  1
  Pd  Pd192  1  -0.00975862  0.39324272  0.59865001  1
  Pd  Pd193  1  0.79427896  0.39907652  -0.00289464  1
  Pd  Pd194  1  0.60240032  0.39619767  0.00401746  1
  Pd  Pd195  1  0.19252407  0.00272718  0.59804055  1
  Pd  Pd196  1  0.40673660  0.60153634  0.00084074  1
  Pd  Pd197  1  0.19728033  0.40079901  0.79238101  1
  Pd  Pd198  1  0.39690883  -0.00657681  -0.00445338  1
  Pd  Pd199  1  0.59554858  0.00493274  0.39171778  1
  Rh  Rh200  1  0.80480075  0.40055776  0.40398268  1
  Rh  Rh201  1  0.60976758  0.19988807  0.20938251  1
  Rh  Rh202  1  0.00806216  0.60784146  0.59853094  1
  Rh  Rh203  1  0.20140928  0.59110166  -0.00120707  1
  Rh  Rh204  1  0.80352970  0.01320495  0.59427987  1
  Rh  Rh205  1  0.40295233  0.40523119  0.40323694  1
  Rh  Rh206  1  0.80785882  0.78933787  0.79515682  1
  Rh  Rh207  1  0.20057235  0.20331623  0.80107251  1
  Rh  Rh208  1  0.19699973  0.79829033  0.19265507  1
  Rh  Rh209  1  0.41159171  0.39253386  0.00654767  1
  Rh  Rh210  1  0.40079751  0.39900492  0.60633837  1
  Rh  Rh211  1  0.61162978  0.79937960  0.00555558  1
  Rh  Rh212  1  0.40124027  0.39982236  0.79755461  1
  Rh  Rh213  1  0.40033684  -0.00372583  0.59415609  1
  Rh  Rh214  1  0.40703027  0.79836098  0.60562892  1
  Rh  Rh215  1  0.80453802  0.39322891  0.59836178  1
  Rh  Rh216  1  0.20392579  0.79091784  0.80619354  1
  Rh  Rh217  1  0.00182457  0.40057405  -0.00072551  1
  Rh  Rh218  1  -0.00290730  0.79939145  0.00253792  1
  Rh  Rh219  1  0.79762062  0.20655464  0.40191194  1
  Rh  Rh220  1  0.60985673  0.21423726  -0.00990368  1
  Rh  Rh221  1  0.39502375  0.20452611  0.18639537  1
  Rh  Rh222  1  0.19906092  0.19866158  0.59706038  1
  Rh  Rh223  1  0.00000793  0.39601760  0.80345420  1
  Rh  Rh224  1  0.60465137  0.40093417  0.59758640  1
  Rh  Rh225  1  0.20500171  0.20344785  0.00474614  1
  Rh  Rh226  1  0.39379861  0.19058599  0.41013864  1
  Rh  Rh227  1  -0.00231930  0.40433069  0.40048730  1
  Rh  Rh228  1  0.60220606  0.60045144  0.00210327  1
  Rh  Rh229  1  0.60001626  -0.00358064  -0.00111390  1
  Rh  Rh230  1  0.59277730  0.60106579  0.20000727  1
  Rh  Rh231  1  0.19661006  0.80336436  0.00121359  1
  Rh  Rh232  1  0.60576123  0.58684715  0.79898252  1
  Rh  Rh233  1  0.80758016  0.40136703  0.20259129  1
  Rh  Rh234  1  0.78892209  0.60445139  0.40357251  1
  Rh  Rh235  1  0.81263258  0.59203889  0.20024482  1
  Rh  Rh236  1  0.79624379  0.80195040  0.00360225  1
  Rh  Rh237  1  0.39335569  0.20145450  0.59988558  1
  Rh  Rh238  1  0.39627082  0.59526864  0.59391938  1
  Rh  Rh239  1  0.79741724  0.59822075  -0.00997380  1
  Rh  Rh240  1  0.59698973  0.40880814  0.40275060  1
  Rh  Rh241  1  0.00842748  0.00651130  0.79960348  1
  Rh  Rh242  1  0.40434826  0.60466562  0.80593447  1
  Rh  Rh243  1  0.19596299  0.79171346  0.40718029  1
  Rh  Rh244  1  -0.01136179  0.19691483  0.60269498  1
  Rh  Rh245  1  0.79476192  0.59923903  0.60786783  1
  Rh  Rh246  1  0.60566788  0.59177131  0.59605651  1
  Rh  Rh247  1  0.20873634  0.00853064  0.40661631  1
  Rh  Rh248  1  -0.00058178  0.59821203  0.39493683  1
  Rh  Rh249  1  0.61001630  0.20945339  0.60033237  1
