# generated using pymatgen
data_ZrScNbPdRh
_symmetry_space_group_name_H-M   'P 1'
_cell_length_a   16.56185028
_cell_length_b   16.55669626
_cell_length_c   16.56280604
_cell_angle_alpha   89.99902797
_cell_angle_beta   90.03038925
_cell_angle_gamma   90.01913205
_symmetry_Int_Tables_number   1
_chemical_formula_structural   ZrScNbPdRh
_chemical_formula_sum   'Zr50 Sc50 Nb50 Pd50 Rh50'
_cell_volume   4541.67827798
_cell_formula_units_Z   50
loop_
 _symmetry_equiv_pos_site_id
 _symmetry_equiv_pos_as_xyz
  1  'x, y, z'
loop_
 _atom_site_type_symbol
 _atom_site_label
 _atom_site_symmetry_multiplicity
 _atom_site_fract_x
 _atom_site_fract_y
 _atom_site_fract_z
 _atom_site_occupancy
  Zr  Zr0  1  0.89647970  0.69617654  0.49152433  1
  Zr  Zr1  1  0.10121824  0.69395212  0.10021011  1
  Zr  Zr2  1  0.70149091  0.30241815  0.30621269  1
  Zr  Zr3  1  0.09797545  0.69959137  0.49803561  1
  Zr  Zr4  1  0.30642782  0.70017668  0.49558955  1
  Zr  Zr5  1  0.29739345  0.50298686  0.09428726  1
  Zr  Zr6  1  0.49839728  0.49461015  0.30793420  1
  Zr  Zr7  1  0.09679826  0.89669804  0.49867794  1
  Zr  Zr8  1  0.29948838  0.29845475  0.69962539  1
  Zr  Zr9  1  0.49681685  0.30043755  0.90309786  1
  Zr  Zr10  1  0.48373563  0.08894867  0.50443484  1
  Zr  Zr11  1  0.10066983  0.69576765  0.70739085  1
  Zr  Zr12  1  0.09511156  0.90316248  0.29240882  1
  Zr  Zr13  1  0.89652455  0.09814558  0.30345180  1
  Zr  Zr14  1  0.70277435  0.90363322  0.29842843  1
  Zr  Zr15  1  0.88956209  0.70772652  0.70219042  1
  Zr  Zr16  1  0.09370649  0.10224499  0.90173761  1
  Zr  Zr17  1  0.90543846  0.90048522  0.89738159  1
  Zr  Zr18  1  0.50402636  0.09867043  0.90883867  1
  Zr  Zr19  1  0.70118275  0.10425940  0.09790328  1
  Zr  Zr20  1  0.70101176  0.50520236  0.10387580  1
  Zr  Zr21  1  0.69860509  0.09524186  0.90175837  1
  Zr  Zr22  1  0.50607564  0.30839210  0.49636171  1
  Zr  Zr23  1  0.29045052  0.09639444  0.90322353  1
  Zr  Zr24  1  0.70260724  0.29775978  0.69715682  1
  Zr  Zr25  1  0.90280341  0.90379990  0.69877640  1
  Zr  Zr26  1  0.50420259  0.70027617  0.49726703  1
  Zr  Zr27  1  0.69064587  0.90205674  0.10541780  1
  Zr  Zr28  1  0.69726921  0.69791220  0.09802204  1
  Zr  Zr29  1  0.70085046  0.10077550  0.69751458  1
  Zr  Zr30  1  0.50841252  0.30613596  0.70568056  1
  Zr  Zr31  1  0.09983953  0.30819382  0.90556569  1
  Zr  Zr32  1  0.10416367  0.49835423  0.09720768  1
  Zr  Zr33  1  0.09483565  0.29300927  0.49742063  1
  Zr  Zr34  1  0.30654009  0.69631340  0.71716784  1
  Zr  Zr35  1  0.08791986  0.49661824  0.50955776  1
  Zr  Zr36  1  0.11166171  0.90344521  0.89972454  1
  Zr  Zr37  1  0.51363376  0.90392866  0.69775583  1
  Zr  Zr38  1  0.90037820  0.49893743  0.69633460  1
  Zr  Zr39  1  0.89973758  0.69743660  0.10389240  1
  Zr  Zr40  1  0.89861726  0.89601262  0.29904286  1
  Zr  Zr41  1  0.91078830  0.49326916  0.89780938  1
  Zr  Zr42  1  0.30100138  0.69651739  0.09483037  1
  Zr  Zr43  1  0.31065101  0.90088867  0.49586890  1
  Zr  Zr44  1  0.70433316  0.70783278  0.90362688  1
  Zr  Zr45  1  0.30121651  0.10241634  0.68642556  1
  Zr  Zr46  1  0.49592544  0.69969772  0.29570643  1
  Zr  Zr47  1  0.09451169  0.90441009  0.70173748  1
  Zr  Zr48  1  0.90167159  0.69985806  0.90675285  1
  Zr  Zr49  1  0.09066341  0.70379792  0.30322497  1
  Sc  Sc50  1  0.89094504  0.50374514  0.30123450  1
  Sc  Sc51  1  0.70480476  0.30172686  0.50332112  1
  Sc  Sc52  1  0.10633581  0.30854539  0.10010197  1
  Sc  Sc53  1  0.09336215  0.29576054  0.69694530  1
  Sc  Sc54  1  0.70843557  0.70348120  0.29395359  1
  Sc  Sc55  1  0.09775128  0.30056599  0.29586717  1
  Sc  Sc56  1  0.70421914  0.89234088  0.49536175  1
  Sc  Sc57  1  0.09609906  0.50553114  0.90254398  1
  Sc  Sc58  1  0.69830635  0.50027406  0.68650166  1
  Sc  Sc59  1  0.49953889  0.29399929  0.30101046  1
  Sc  Sc60  1  0.31069684  0.69760878  0.30166584  1
  Sc  Sc61  1  0.09498453  0.49706435  0.28812089  1
  Sc  Sc62  1  0.50121368  0.29328842  0.08954239  1
  Sc  Sc63  1  0.89616342  0.30120621  0.30581288  1
  Sc  Sc64  1  0.31962933  0.49746061  0.49838202  1
  Sc  Sc65  1  0.90540974  0.50265748  0.10473545  1
  Sc  Sc66  1  0.50831736  0.50036093  0.50636370  1
  Sc  Sc67  1  0.49657986  0.90264046  0.10166454  1
  Sc  Sc68  1  0.10247671  0.90237980  0.10107054  1
  Sc  Sc69  1  0.10282566  0.70142795  0.90608520  1
  Sc  Sc70  1  0.50674095  0.09504597  0.69592396  1
  Sc  Sc71  1  0.50164964  0.09658857  0.10689972  1
  Sc  Sc72  1  0.49626078  0.49883834  0.69783145  1
  Sc  Sc73  1  0.68954375  0.90000465  0.90435974  1
  Sc  Sc74  1  0.90502613  0.10801333  0.70466687  1
  Sc  Sc75  1  0.89928092  0.89495267  0.50228500  1
  Sc  Sc76  1  0.29938844  0.30156862  0.91290528  1
  Sc  Sc77  1  0.91006077  0.29045256  0.90532421  1
  Sc  Sc78  1  0.29597209  0.10196601  0.10996743  1
  Sc  Sc79  1  0.08709235  0.50047290  0.70892612  1
  Sc  Sc80  1  0.49950189  0.48810275  0.89825435  1
  Sc  Sc81  1  0.50059293  0.50650748  0.09123116  1
  Sc  Sc82  1  0.68793257  0.49827387  0.90712541  1
  Sc  Sc83  1  0.90073100  0.29937085  0.49780221  1
  Sc  Sc84  1  0.90692363  0.90622792  0.10432659  1
  Sc  Sc85  1  0.10373644  0.09193160  0.10044919  1
  Sc  Sc86  1  0.29910088  0.90704487  0.09775462  1
  Sc  Sc87  1  0.09774664  0.10162800  0.69883920  1
  Sc  Sc88  1  0.49612816  0.70269055  0.10499316  1
  Sc  Sc89  1  0.30286375  0.50142479  0.29534210  1
  Sc  Sc90  1  0.29321858  0.28662772  0.29361663  1
  Sc  Sc91  1  0.70571026  0.69668384  0.50519392  1
  Sc  Sc92  1  0.70514925  0.09648321  0.29525613  1
  Sc  Sc93  1  0.89328838  0.49894870  0.50162496  1
  Sc  Sc94  1  0.68246524  0.29922456  0.89778501  1
  Sc  Sc95  1  0.30057426  0.28457591  0.50229248  1
  Sc  Sc96  1  0.10496917  0.10573468  0.29086448  1
  Sc  Sc97  1  0.48869387  0.71293762  0.89839007  1
  Sc  Sc98  1  0.70540889  0.49666944  0.49931424  1
  Sc  Sc99  1  0.49721371  0.89374284  0.28979145  1
  Nb  Nb100  1  0.90087500  0.09774722  0.49298179  1
  Nb  Nb101  1  0.29701642  0.31043164  0.10166469  1
  Nb  Nb102  1  0.30501093  0.09544485  0.30088166  1
  Nb  Nb103  1  0.90036851  0.10975331  0.08697440  1
  Nb  Nb104  1  0.29185036  0.70680727  0.89997088  1
  Nb  Nb105  1  0.50134815  0.89706079  0.49923115  1
  Nb  Nb106  1  0.70945506  0.89744816  0.70441596  1
  Nb  Nb107  1  0.49451137  0.91191152  0.90029809  1
  Nb  Nb108  1  0.29622655  0.09594299  0.49578597  1
  Nb  Nb109  1  0.50998693  0.69927743  0.69371666  1
  Nb  Nb110  1  0.69913387  0.70669386  0.70290106  1
  Nb  Nb111  1  0.89495867  0.29487502  0.09541414  1
  Nb  Nb112  1  0.30019566  0.50997069  0.89409890  1
  Nb  Nb113  1  0.90137038  0.70019857  0.29824667  1
  Nb  Nb114  1  0.69956161  0.49870710  0.30186345  1
  Nb  Nb115  1  0.09702812  0.09990390  0.49949660  1
  Nb  Nb116  1  0.29883987  0.89662683  0.29474043  1
  Nb  Nb117  1  0.30046263  0.89109206  0.89502747  1
  Nb  Nb118  1  0.89791437  0.09768075  0.90997945  1
  Nb  Nb119  1  0.70714110  0.09728760  0.49357042  1
  Nb  Nb120  1  0.29712451  0.50142135  0.70411087  1
  Nb  Nb121  1  0.49834225  0.09795746  0.29954724  1
  Nb  Nb122  1  0.29662427  0.89780690  0.70219371  1
  Nb  Nb123  1  0.70193703  0.30211884  0.10419825  1
  Nb  Nb124  1  0.89498188  0.30588390  0.70400343  1
  Nb  Nb125  1  0.80069247  0.00349717  0.60146163  1
  Nb  Nb126  1  0.20318943  0.00297973  0.39874953  1
  Nb  Nb127  1  0.59843771  0.18633009  0.40353523  1
  Nb  Nb128  1  0.40501884  0.80148159  0.60573622  1
  Nb  Nb129  1  0.59370273  0.00068155  0.40144036  1
  Nb  Nb130  1  0.20746678  0.79887099  0.60446236  1
  Nb  Nb131  1  0.20154894  0.40560041  0.60066175  1
  Nb  Nb132  1  0.20517876  0.59683743  0.60093249  1
  Nb  Nb133  1  -0.00943790  0.19974208  0.18984578  1
  Nb  Nb134  1  0.60043596  0.40009464  0.19956864  1
  Nb  Nb135  1  0.19777509  0.40360750  0.40764825  1
  Nb  Nb136  1  0.60529918  0.59842528  0.39489359  1
  Nb  Nb137  1  0.80062647  0.00048142  0.80004010  1
  Nb  Nb138  1  0.19693361  0.59249945  0.40759775  1
  Nb  Nb139  1  0.60247021  0.60980000  0.79360287  1
  Nb  Nb140  1  0.79399590  0.59806892  0.80102892  1
  Nb  Nb141  1  0.20079086  -0.00224759  0.59143014  1
  Nb  Nb142  1  0.79939534  0.39468548  0.00159182  1
  Nb  Nb143  1  0.39976639  0.19373852  0.80296145  1
  Nb  Nb144  1  0.39617958  -0.00331766  0.80212195  1
  Nb  Nb145  1  0.20344648  0.40500542  0.79649194  1
  Nb  Nb146  1  0.20202990  0.79781713  0.20239744  1
  Nb  Nb147  1  0.79949781  0.39968503  0.80438086  1
  Nb  Nb148  1  0.40223598  0.39650361  0.19237638  1
  Nb  Nb149  1  0.00459740  0.00351791  0.40107740  1
  Pd  Pd150  1  -0.00827232  0.20041417  0.59970205  1
  Pd  Pd151  1  0.39403632  0.19395511  0.00400101  1
  Pd  Pd152  1  0.80192995  0.20206926  0.81071255  1
  Pd  Pd153  1  0.60095170  0.20450803  0.20480480  1
  Pd  Pd154  1  0.59516934  0.19798635  0.58935627  1
  Pd  Pd155  1  0.00601434  0.79696207  0.80539871  1
  Pd  Pd156  1  0.39707843  0.80598383  0.00487953  1
  Pd  Pd157  1  0.39957755  0.60454036  0.60368773  1
  Pd  Pd158  1  0.39316416  0.00295690  0.00102838  1
  Pd  Pd159  1  0.00017426  0.40398785  0.39433689  1
  Pd  Pd160  1  0.80181885  0.81211374  0.00815706  1
  Pd  Pd161  1  0.20329172  0.00428504  0.79137287  1
  Pd  Pd162  1  0.80891093  0.19585503  0.59357434  1
  Pd  Pd163  1  0.80394954  0.19936585  0.20450471  1
  Pd  Pd164  1  0.00015928  0.20147327  0.80315878  1
  Pd  Pd165  1  0.39995835  0.20416198  0.19301085  1
  Pd  Pd166  1  0.79798210  -0.00911724  -0.00065393  1
  Pd  Pd167  1  0.40301852  -0.00836786  0.38694993  1
  Pd  Pd168  1  0.78857807  0.21077950  -0.01183783  1
  Pd  Pd169  1  0.41218821  0.20768209  0.60453035  1
  Pd  Pd170  1  0.38595565  0.38563064  0.38954877  1
  Pd  Pd171  1  0.41450718  0.59883942  0.80512486  1
  Pd  Pd172  1  0.80027835  0.80036979  0.19290575  1
  Pd  Pd173  1  0.61370393  -0.00423187  0.58914903  1
  Pd  Pd174  1  0.20415233  0.79917400  0.39534337  1
  Pd  Pd175  1  0.20195858  0.20720446  0.80137800  1
  Pd  Pd176  1  0.80063025  0.40233931  0.19720127  1
  Pd  Pd177  1  0.19624633  0.19856223  0.39624107  1
  Pd  Pd178  1  0.80366345  0.58767069  -0.00640957  1
  Pd  Pd179  1  0.80587436  0.00380903  0.18910066  1
  Pd  Pd180  1  0.60600008  0.80248883  0.59624045  1
  Pd  Pd181  1  0.58705744  0.60996170  -0.01366965  1
  Pd  Pd182  1  -0.00515821  0.60754798  0.60343392  1
  Pd  Pd183  1  0.40362836  0.20217865  0.40052553  1
  Pd  Pd184  1  0.19575978  0.19984522  0.01016824  1
  Pd  Pd185  1  0.20186379  0.60636411  0.21224251  1
  Pd  Pd186  1  0.41049921  0.80890423  0.79259970  1
  Pd  Pd187  1  0.39813452  0.39526551  0.60085445  1
  Pd  Pd188  1  0.60257483  0.79847570  0.39215364  1
  Pd  Pd189  1  0.39157717  0.39381527  0.80505440  1
  Pd  Pd190  1  0.59274818  0.19326099  0.79987598  1
  Pd  Pd191  1  0.40419368  0.60135073  -0.01123561  1
  Pd  Pd192  1  -0.00863585  0.39134771  0.19683833  1
  Pd  Pd193  1  0.58849369  0.80059132  0.00260465  1
  Pd  Pd194  1  0.00000093  0.79179382  0.60090180  1
  Pd  Pd195  1  0.59659241  0.80175536  0.80636000  1
  Pd  Pd196  1  0.59687266  0.59608681  0.20603060  1
  Pd  Pd197  1  0.00068513  0.58888683  0.39346938  1
  Pd  Pd198  1  0.00469846  -0.00229740  0.00178741  1
  Pd  Pd199  1  0.00507039  0.80460913  0.00528374  1
  Rh  Rh200  1  0.19332513  0.79830818  0.79880026  1
  Rh  Rh201  1  0.20002169  0.59949123  -0.00962698  1
  Rh  Rh202  1  0.20619581  -0.00469420  0.20694686  1
  Rh  Rh203  1  0.38843640  0.80135472  0.19278665  1
  Rh  Rh204  1  0.79428308  0.20374262  0.40277453  1
  Rh  Rh205  1  0.59766431  0.00216887  0.20665267  1
  Rh  Rh206  1  0.20516638  0.41143768  -0.01185840  1
  Rh  Rh207  1  -0.00970395  0.80575871  0.39916141  1
  Rh  Rh208  1  0.79931949  0.60420481  0.60584242  1
  Rh  Rh209  1  0.00128028  0.59869230  0.00324904  1
  Rh  Rh210  1  0.80407405  0.39606903  0.60316794  1
  Rh  Rh211  1  0.60542649  0.39671080  0.01336095  1
  Rh  Rh212  1  0.19349310  0.19772707  0.59554336  1
  Rh  Rh213  1  0.60224690  0.39914243  0.60049321  1
  Rh  Rh214  1  0.19491560  0.59571454  0.80328056  1
  Rh  Rh215  1  0.79747545  0.80376135  0.59711139  1
  Rh  Rh216  1  0.60517281  0.60085883  0.59717085  1
  Rh  Rh217  1  0.39437923  -0.01139732  0.61034350  1
  Rh  Rh218  1  0.79325904  0.60129994  0.39506222  1
  Rh  Rh219  1  0.80261599  0.79608373  0.39810152  1
  Rh  Rh220  1  -0.00766491  0.01497280  0.20194227  1
  Rh  Rh221  1  -0.00171740  0.39090144  0.60320705  1
  Rh  Rh222  1  -0.00926565  0.60942268  0.80380456  1
  Rh  Rh223  1  0.20280825  -0.00266070  0.00029004  1
  Rh  Rh224  1  0.80270700  -0.00708385  0.40767389  1
  Rh  Rh225  1  0.60591137  0.40147622  0.39762711  1
  Rh  Rh226  1  -0.00604677  0.39932544  0.00961231  1
  Rh  Rh227  1  0.01170549  0.20208096  0.00756295  1
  Rh  Rh228  1  0.39511010  0.40509235  0.00321073  1
  Rh  Rh229  1  0.00169092  0.39062818  0.79703948  1
  Rh  Rh230  1  0.00459918  0.79519631  0.19371235  1
  Rh  Rh231  1  0.21006041  0.39911139  0.21033271  1
  Rh  Rh232  1  0.20417127  0.80166692  0.00742819  1
  Rh  Rh233  1  0.60157330  0.79783082  0.19804281  1
  Rh  Rh234  1  0.60960679  0.41365211  0.79003536  1
  Rh  Rh235  1  0.60357513  0.19874969  0.00459847  1
  Rh  Rh236  1  0.00085421  0.19269535  0.39011081  1
  Rh  Rh237  1  0.40359865  0.59048553  0.19752524  1
  Rh  Rh238  1  -0.00351335  0.00860674  0.59264265  1
  Rh  Rh239  1  0.80021819  0.80458813  0.80741015  1
  Rh  Rh240  1  0.19285830  0.20354862  0.19330945  1
  Rh  Rh241  1  0.59819806  0.00022379  0.00862273  1
  Rh  Rh242  1  0.80111585  0.40119606  0.40402905  1
  Rh  Rh243  1  0.80173076  0.60270964  0.20326380  1
  Rh  Rh244  1  -0.00742510  0.00990263  0.80640018  1
  Rh  Rh245  1  0.40686044  0.59800768  0.39986994  1
  Rh  Rh246  1  -0.00342967  0.60052032  0.20299320  1
  Rh  Rh247  1  0.40831069  0.80478941  0.39884202  1
  Rh  Rh248  1  0.39840982  0.00127499  0.20161476  1
  Rh  Rh249  1  0.60419258  -0.00120987  0.80206520  1
