# generated using pymatgen
data_ZrScNbPdRh
_symmetry_space_group_name_H-M   'P 1'
_cell_length_a   16.55739410
_cell_length_b   16.55471486
_cell_length_c   16.55814514
_cell_angle_alpha   89.99431020
_cell_angle_beta   90.03517135
_cell_angle_gamma   89.97022167
_symmetry_Int_Tables_number   1
_chemical_formula_structural   ZrScNbPdRh
_chemical_formula_sum   'Zr50 Sc50 Nb50 Pd50 Rh50'
_cell_volume   4538.63474569
_cell_formula_units_Z   50
loop_
 _symmetry_equiv_pos_site_id
 _symmetry_equiv_pos_as_xyz
  1  'x, y, z'
loop_
 _atom_site_type_symbol
 _atom_site_label
 _atom_site_symmetry_multiplicity
 _atom_site_fract_x
 _atom_site_fract_y
 _atom_site_fract_z
 _atom_site_occupancy
  Zr  Zr0  1  0.89683619  0.49398579  0.50137607  1
  Zr  Zr1  1  0.30327810  0.29740990  0.48833386  1
  Zr  Zr2  1  0.89703113  0.89074402  0.09464157  1
  Zr  Zr3  1  0.70126685  0.30200846  0.69325389  1
  Zr  Zr4  1  0.49689793  0.89710094  0.50850390  1
  Zr  Zr5  1  0.89846044  0.09431126  0.89387403  1
  Zr  Zr6  1  0.28865309  0.09861581  0.10026486  1
  Zr  Zr7  1  0.48856564  0.10526857  0.89175956  1
  Zr  Zr8  1  0.89950295  0.70010753  0.70111739  1
  Zr  Zr9  1  0.50363180  0.49546015  0.91117071  1
  Zr  Zr10  1  0.50173091  0.70495286  0.90669463  1
  Zr  Zr11  1  0.49358691  0.89854940  0.89968248  1
  Zr  Zr12  1  0.90610953  0.69607865  0.12303965  1
  Zr  Zr13  1  0.50110467  0.29656089  0.89869079  1
  Zr  Zr14  1  0.70037844  0.69839465  0.29210247  1
  Zr  Zr15  1  0.70230989  0.10182951  0.89969121  1
  Zr  Zr16  1  0.90976993  0.70468445  0.89638192  1
  Zr  Zr17  1  0.29326544  0.89717054  0.49936583  1
  Zr  Zr18  1  0.50537034  0.68842947  0.30487962  1
  Zr  Zr19  1  0.90612502  0.51014426  0.69855193  1
  Zr  Zr20  1  0.50087555  0.29166679  0.70018678  1
  Zr  Zr21  1  0.29974445  0.10677359  0.50462885  1
  Zr  Zr22  1  0.90044716  0.29700837  0.29985321  1
  Zr  Zr23  1  0.70275887  0.30231321  0.10190231  1
  Zr  Zr24  1  0.69888461  0.90738605  0.29304160  1
  Zr  Zr25  1  0.50279443  0.29714631  0.50369936  1
  Zr  Zr26  1  0.89970868  0.50919737  0.29474118  1
  Zr  Zr27  1  0.89346762  0.29671887  0.49324991  1
  Zr  Zr28  1  0.69693792  0.30472469  0.89424141  1
  Zr  Zr29  1  0.29396663  0.50137159  0.90353401  1
  Zr  Zr30  1  0.71333166  0.49484885  0.70116235  1
  Zr  Zr31  1  0.70884259  0.69890320  0.70005076  1
  Zr  Zr32  1  0.29920668  0.90536528  0.69683487  1
  Zr  Zr33  1  0.70813108  0.09970917  0.69745209  1
  Zr  Zr34  1  0.70641464  0.71169094  0.09851764  1
  Zr  Zr35  1  0.49546218  0.69651609  0.49932976  1
  Zr  Zr36  1  0.49995954  0.50539306  0.49091472  1
  Zr  Zr37  1  0.29061498  0.70459351  0.30464191  1
  Zr  Zr38  1  0.29604934  0.31380605  0.10630993  1
  Zr  Zr39  1  0.90131793  0.90291147  0.50610759  1
  Zr  Zr40  1  0.09738592  0.90261937  0.09532462  1
  Zr  Zr41  1  0.29449448  0.68941055  0.09723337  1
  Zr  Zr42  1  0.70038963  0.09399481  0.30498041  1
  Zr  Zr43  1  0.89851544  0.90306100  0.30010955  1
  Zr  Zr44  1  0.09586353  0.10553069  0.69004171  1
  Zr  Zr45  1  0.49191025  0.50021289  0.10727503  1
  Zr  Zr46  1  0.50006923  0.70133079  0.68812861  1
  Zr  Zr47  1  0.29636884  0.90470777  0.29231289  1
  Zr  Zr48  1  0.49678570  0.10164694  0.09336211  1
  Zr  Zr49  1  0.08690238  0.69537752  0.29458048  1
  Sc  Sc50  1  0.29854595  0.48634923  0.28866403  1
  Sc  Sc51  1  0.30012312  0.89429708  0.89716604  1
  Sc  Sc52  1  0.89935878  0.28914582  0.69550959  1
  Sc  Sc53  1  0.50431327  0.90016547  0.29108741  1
  Sc  Sc54  1  0.90034491  0.69269253  0.51359337  1
  Sc  Sc55  1  0.30038262  0.29937286  0.90310543  1
  Sc  Sc56  1  0.09449252  0.68732050  0.70429146  1
  Sc  Sc57  1  0.72200948  0.89785797  0.91070115  1
  Sc  Sc58  1  0.69293196  0.70458977  0.50192583  1
  Sc  Sc59  1  0.49698290  0.30880434  0.08951843  1
  Sc  Sc60  1  0.70362325  0.49468844  0.89832787  1
  Sc  Sc61  1  0.30607351  0.69519270  0.50557731  1
  Sc  Sc62  1  0.29371172  0.29838804  0.69737954  1
  Sc  Sc63  1  0.09157535  0.10211030  0.91526232  1
  Sc  Sc64  1  0.70224445  0.48488317  0.50397363  1
  Sc  Sc65  1  0.90170600  0.10370411  0.49624321  1
  Sc  Sc66  1  0.09467814  0.29268844  0.50595966  1
  Sc  Sc67  1  0.10520354  0.70401527  0.89923007  1
  Sc  Sc68  1  0.10560470  0.49994435  0.89770815  1
  Sc  Sc69  1  0.08822696  0.90983798  0.69400004  1
  Sc  Sc70  1  0.49311083  0.90597571  0.69461054  1
  Sc  Sc71  1  0.90592340  0.30128660  0.90822147  1
  Sc  Sc72  1  0.10064923  0.89954015  0.30330306  1
  Sc  Sc73  1  0.09413416  0.49547129  0.50732768  1
  Sc  Sc74  1  0.70522810  0.30419331  0.30810722  1
  Sc  Sc75  1  0.90074357  0.10240187  0.30454723  1
  Sc  Sc76  1  0.51042428  0.49915639  0.68601778  1
  Sc  Sc77  1  0.29682639  0.69899736  0.70328981  1
  Sc  Sc78  1  0.09739795  0.49691064  0.30148622  1
  Sc  Sc79  1  0.90263038  0.49244262  0.89704605  1
  Sc  Sc80  1  0.29660215  0.70412339  0.89761362  1
  Sc  Sc81  1  0.69576079  0.49799102  0.10931354  1
  Sc  Sc82  1  0.30491873  0.10052080  0.69652130  1
  Sc  Sc83  1  0.09697668  0.10281183  0.29199322  1
  Sc  Sc84  1  0.09630412  0.90628761  0.50315090  1
  Sc  Sc85  1  0.69807141  0.91319938  0.50191285  1
  Sc  Sc86  1  0.70379636  0.70425648  0.90712530  1
  Sc  Sc87  1  0.30303606  0.90286561  0.09873540  1
  Sc  Sc88  1  0.28744314  0.50287095  0.69935753  1
  Sc  Sc89  1  0.10027480  0.29406010  0.08488226  1
  Sc  Sc90  1  0.11665180  0.49502109  0.09574716  1
  Sc  Sc91  1  0.49711661  0.89417570  0.09802685  1
  Sc  Sc92  1  0.50389288  0.10441231  0.50758960  1
  Sc  Sc93  1  0.49403308  0.30954174  0.30928475  1
  Sc  Sc94  1  0.91109902  0.10861663  0.10919838  1
  Sc  Sc95  1  0.70146159  0.09357027  0.10708798  1
  Sc  Sc96  1  0.50056150  0.69826031  0.09925990  1
  Sc  Sc97  1  0.50426135  0.09656733  0.30418713  1
  Sc  Sc98  1  0.10481547  0.49706750  0.70084243  1
  Sc  Sc99  1  0.10604435  0.30114463  0.30557696  1
  Nb  Nb100  1  0.70588986  0.28956398  0.50685167  1
  Nb  Nb101  1  0.10625922  0.09956179  0.09802249  1
  Nb  Nb102  1  0.89670729  0.70026266  0.30110085  1
  Nb  Nb103  1  0.89453067  0.90715309  0.70552220  1
  Nb  Nb104  1  0.10056102  0.29993600  0.89970818  1
  Nb  Nb105  1  0.30204401  0.49505012  0.09720296  1
  Nb  Nb106  1  0.49657851  0.09682901  0.70120952  1
  Nb  Nb107  1  0.10158985  0.29751694  0.70342791  1
  Nb  Nb108  1  0.08766709  0.90193918  0.90050645  1
  Nb  Nb109  1  0.10420258  0.70568928  0.49402510  1
  Nb  Nb110  1  0.10104764  0.09782554  0.50478011  1
  Nb  Nb111  1  0.90236013  0.49545685  0.09776553  1
  Nb  Nb112  1  0.91533996  0.89977162  0.89586233  1
  Nb  Nb113  1  0.90118498  0.09236998  0.70425833  1
  Nb  Nb114  1  0.70304870  0.90530263  0.70149906  1
  Nb  Nb115  1  0.29876553  0.10471459  0.29990723  1
  Nb  Nb116  1  0.69105964  0.50541137  0.30364306  1
  Nb  Nb117  1  0.69896620  0.11055491  0.49882763  1
  Nb  Nb118  1  0.51511747  0.50483005  0.29815042  1
  Nb  Nb119  1  0.29722682  0.10120377  0.89554638  1
  Nb  Nb120  1  0.30130659  0.50216965  0.50259589  1
  Nb  Nb121  1  0.30206753  0.29242496  0.30109302  1
  Nb  Nb122  1  0.69758906  0.90001563  0.09798638  1
  Nb  Nb123  1  0.09627005  0.70047193  0.09988042  1
  Nb  Nb124  1  0.90012534  0.30700786  0.09830645  1
  Nb  Nb125  1  0.80353745  0.79759976  0.39756513  1
  Nb  Nb126  1  0.60121323  -0.00249796  -0.00626462  1
  Nb  Nb127  1  0.40118037  0.40445239  0.79532415  1
  Nb  Nb128  1  0.19322510  0.79588696  0.19437379  1
  Nb  Nb129  1  -0.00018935  0.59900624  0.00654448  1
  Nb  Nb130  1  0.19953600  0.59816514  0.40451291  1
  Nb  Nb131  1  0.79786601  0.60219689  0.39631749  1
  Nb  Nb132  1  0.59459463  0.20261766  0.20058939  1
  Nb  Nb133  1  0.19376072  0.00572724  0.80527500  1
  Nb  Nb134  1  0.60472875  0.80518343  0.79688380  1
  Nb  Nb135  1  0.20294888  0.00831039  0.40013530  1
  Nb  Nb136  1  -0.00634879  0.79544131  0.40169516  1
  Nb  Nb137  1  -0.00289640  0.39752705  0.19056219  1
  Nb  Nb138  1  0.40886400  0.59417316  0.79983374  1
  Nb  Nb139  1  0.59839552  0.60610649  0.79995451  1
  Nb  Nb140  1  0.19425931  0.19627061  0.80464357  1
  Nb  Nb141  1  0.60428120  -0.00444440  0.80085338  1
  Nb  Nb142  1  0.80238819  0.20308721  0.00384766  1
  Nb  Nb143  1  0.00750731  0.39135950  0.79767578  1
  Nb  Nb144  1  0.40028283  0.80318953  0.39799166  1
  Nb  Nb145  1  0.39649175  0.40321675  0.59592805  1
  Nb  Nb146  1  0.19420882  0.79822307  0.59831907  1
  Nb  Nb147  1  0.81079523  0.59856984  0.00887125  1
  Nb  Nb148  1  0.39385931  -0.00099315  0.40094883  1
  Nb  Nb149  1  0.39664342  0.20245372  0.20399632  1
  Pd  Pd150  1  0.80524751  0.00855854  0.00901237  1
  Pd  Pd151  1  0.59781757  0.20529508  0.39327214  1
  Pd  Pd152  1  0.60722499  0.80750953  0.60614518  1
  Pd  Pd153  1  0.60680286  0.39363173  0.40640444  1
  Pd  Pd154  1  0.00026951  0.39596065  0.39456827  1
  Pd  Pd155  1  0.38870807  0.59497771  0.38825106  1
  Pd  Pd156  1  0.79793505  0.60009060  0.81379765  1
  Pd  Pd157  1  0.80035434  0.80523285  0.80296504  1
  Pd  Pd158  1  0.39783395  -0.00092155  -0.00341303  1
  Pd  Pd159  1  -0.00152044  0.60286818  0.41039521  1
  Pd  Pd160  1  -0.00411883  0.39333934  0.60900203  1
  Pd  Pd161  1  0.39559097  0.59842031  0.20796091  1
  Pd  Pd162  1  0.20393657  0.39233330  0.59225279  1
  Pd  Pd163  1  0.19706883  0.59819581  0.20616208  1
  Pd  Pd164  1  0.20074432  0.80511221  0.00271102  1
  Pd  Pd165  1  0.80351745  0.00778286  0.59348235  1
  Pd  Pd166  1  0.79350546  0.19804954  0.20004489  1
  Pd  Pd167  1  0.20180210  -0.00604824  -0.01031691  1
  Pd  Pd168  1  0.61173667  0.59493940  0.59790979  1
  Pd  Pd169  1  -0.00831784  0.00597855  0.00791558  1
  Pd  Pd170  1  0.38728946  0.20621110  0.00815457  1
  Pd  Pd171  1  0.18992589  0.19372845  0.40106751  1
  Pd  Pd172  1  0.80218855  0.40526575  0.20742908  1
  Pd  Pd173  1  0.79533727  0.40156138  -0.00164534  1
  Pd  Pd174  1  0.00792065  0.80218660  0.78813815  1
  Pd  Pd175  1  0.39506619  0.79138204  0.20134813  1
  Pd  Pd176  1  0.80597261  0.20904064  0.80574814  1
  Pd  Pd177  1  0.59164223  -0.00258276  0.40754376  1
  Pd  Pd178  1  0.60102648  0.80612239  0.39824850  1
  Pd  Pd179  1  0.80879554  0.00271640  0.19289217  1
  Pd  Pd180  1  0.59342636  0.39086560  0.20265978  1
  Pd  Pd181  1  0.00504864  0.79592661  0.60092428  1
  Pd  Pd182  1  0.01074396  0.21089054  0.19775345  1
  Pd  Pd183  1  0.59369472  0.40893731  0.79491335  1
  Pd  Pd184  1  0.19821817  0.40612817  0.40559613  1
  Pd  Pd185  1  0.19701842  0.20717095  0.19731045  1
  Pd  Pd186  1  0.18740825  0.81007832  0.78929606  1
  Pd  Pd187  1  0.79524615  0.80432845  0.59374326  1
  Pd  Pd188  1  0.59596816  0.79738336  0.19744764  1
  Pd  Pd189  1  0.39630291  0.60284032  -0.00608374  1
  Pd  Pd190  1  0.40519076  0.00895144  0.20333093  1
  Pd  Pd191  1  0.60938755  0.19572418  0.00666910  1
  Pd  Pd192  1  0.00298553  0.20021054  0.80353397  1
  Pd  Pd193  1  0.60331190  0.19176563  0.79303311  1
  Pd  Pd194  1  0.00082140  -0.00230177  0.19823883  1
  Pd  Pd195  1  0.61233720  0.59596260  0.00173489  1
  Pd  Pd196  1  0.19460765  0.60656455  0.59474386  1
  Pd  Pd197  1  0.00703268  0.00052978  0.40051356  1
  Pd  Pd198  1  0.39765399  0.41001326  0.39768770  1
  Pd  Pd199  1  0.40504484  0.79442874  0.79235966  1
  Rh  Rh200  1  0.60352374  0.19395996  0.60621249  1
  Rh  Rh201  1  0.20351402  0.19922428  -0.00411682  1
  Rh  Rh202  1  0.81494394  0.39429541  0.79417935  1
  Rh  Rh203  1  0.01303872  0.58192262  0.18834886  1
  Rh  Rh204  1  0.19998175  0.39046438  0.80299966  1
  Rh  Rh205  1  -0.00105977  0.79234153  0.00221957  1
  Rh  Rh206  1  0.59217548  0.00445442  0.18529995  1
  Rh  Rh207  1  -0.00593305  0.19733382  0.59716107  1
  Rh  Rh208  1  0.79426283  0.59639519  0.58958761  1
  Rh  Rh209  1  0.79824594  0.19507807  0.39755725  1
  Rh  Rh210  1  0.00448508  0.19783358  0.40066588  1
  Rh  Rh211  1  0.39520539  0.58935516  0.61188697  1
  Rh  Rh212  1  0.40579866  0.39875403  0.20632468  1
  Rh  Rh213  1  0.19050048  0.39262058  0.20148864  1
  Rh  Rh214  1  0.00380522  0.58973869  0.81000764  1
  Rh  Rh215  1  0.79811912  -0.00024112  0.40515249  1
  Rh  Rh216  1  0.79207324  0.59251563  0.19976564  1
  Rh  Rh217  1  0.20043157  0.20377601  0.60232341  1
  Rh  Rh218  1  0.19578588  0.79985159  0.40057514  1
  Rh  Rh219  1  0.40245030  0.00602389  0.59271929  1
  Rh  Rh220  1  0.40743703  0.19079622  0.39391666  1
  Rh  Rh221  1  0.19485305  0.60262754  -0.00244491  1
  Rh  Rh222  1  0.80907260  0.39408785  0.60377814  1
  Rh  Rh223  1  0.59697031  0.39511480  0.59464792  1
  Rh  Rh224  1  0.00473397  0.00258501  0.79899835  1
  Rh  Rh225  1  0.80600424  0.19271455  0.59843219  1
  Rh  Rh226  1  0.39184900  0.79411262  0.00685357  1
  Rh  Rh227  1  0.19836237  -0.00326247  0.60046485  1
  Rh  Rh228  1  0.79742094  0.80993151  0.20571821  1
  Rh  Rh229  1  0.81520926  0.79080354  -0.00038037  1
  Rh  Rh230  1  0.19096565  -0.00291595  0.20303540  1
  Rh  Rh231  1  -0.01046151  0.00731855  0.59947717  1
  Rh  Rh232  1  0.60144178  0.60458951  0.18967090  1
  Rh  Rh233  1  0.39432894  0.00150061  0.79965876  1
  Rh  Rh234  1  0.61108177  0.59948758  0.40923387  1
  Rh  Rh235  1  0.00662793  0.60016618  0.59692080  1
  Rh  Rh236  1  0.38892926  0.20645018  0.79295443  1
  Rh  Rh237  1  0.20513518  0.60307021  0.80402201  1
  Rh  Rh238  1  0.79833554  0.40770946  0.39447554  1
  Rh  Rh239  1  0.39509336  0.39971038  -0.00721821  1
  Rh  Rh240  1  0.38808210  0.79853135  0.59887495  1
  Rh  Rh241  1  0.60054060  0.81282313  -0.00488702  1
  Rh  Rh242  1  -0.00682688  0.19782571  0.00281639  1
  Rh  Rh243  1  0.00531846  0.81049503  0.20543517  1
  Rh  Rh244  1  0.60025539  0.00821815  0.60730721  1
  Rh  Rh245  1  0.39816576  0.20575680  0.60358085  1
  Rh  Rh246  1  0.00873680  0.40639596  -0.00211727  1
  Rh  Rh247  1  0.79915261  -0.00739896  0.80272210  1
  Rh  Rh248  1  0.60554092  0.40307160  0.00351285  1
  Rh  Rh249  1  0.20110207  0.39725349  -0.00444465  1
