# generated using pymatgen
data_ZrScNbPdRh
_symmetry_space_group_name_H-M   'P 1'
_cell_length_a   16.55477010
_cell_length_b   16.55614120
_cell_length_c   16.55122877
_cell_angle_alpha   90.01234538
_cell_angle_beta   89.95142684
_cell_angle_gamma   89.99492615
_symmetry_Int_Tables_number   1
_chemical_formula_structural   ZrScNbPdRh
_chemical_formula_sum   'Zr50 Sc50 Nb50 Pd50 Rh50'
_cell_volume   4536.41052482
_cell_formula_units_Z   50
loop_
 _symmetry_equiv_pos_site_id
 _symmetry_equiv_pos_as_xyz
  1  'x, y, z'
loop_
 _atom_site_type_symbol
 _atom_site_label
 _atom_site_symmetry_multiplicity
 _atom_site_fract_x
 _atom_site_fract_y
 _atom_site_fract_z
 _atom_site_occupancy
  Zr  Zr0  1  0.09932750  0.69914170  0.30018091  1
  Zr  Zr1  1  0.70263511  0.69857779  0.30216188  1
  Zr  Zr2  1  0.11253196  0.50535471  0.69596716  1
  Zr  Zr3  1  0.69472500  0.89798177  0.90131255  1
  Zr  Zr4  1  0.69771966  0.90397819  0.51462883  1
  Zr  Zr5  1  0.50553004  0.88914955  0.10770339  1
  Zr  Zr6  1  0.30139200  0.09172162  0.90970382  1
  Zr  Zr7  1  0.09567435  0.69123432  0.90916273  1
  Zr  Zr8  1  0.89955047  0.10046727  0.09660129  1
  Zr  Zr9  1  0.29714711  0.10700883  0.10503670  1
  Zr  Zr10  1  0.50484890  0.49977950  0.49823557  1
  Zr  Zr11  1  0.50195458  0.30624142  0.50014935  1
  Zr  Zr12  1  0.90509492  0.70129492  0.10011379  1
  Zr  Zr13  1  0.09511854  0.69492548  0.49080485  1
  Zr  Zr14  1  0.30041060  0.71153196  0.50128527  1
  Zr  Zr15  1  0.10274988  0.30172595  0.09940702  1
  Zr  Zr16  1  0.90215720  0.70148702  0.89848773  1
  Zr  Zr17  1  0.10349957  0.09866406  0.10044483  1
  Zr  Zr18  1  0.70493677  0.29748070  0.89764829  1
  Zr  Zr19  1  0.49734817  0.89245045  0.90382823  1
  Zr  Zr20  1  0.10346868  0.50416191  0.09226483  1
  Zr  Zr21  1  0.89603438  0.50395680  0.49647521  1
  Zr  Zr22  1  0.29890683  0.69098970  0.69284947  1
  Zr  Zr23  1  0.29355507  0.09369769  0.48792962  1
  Zr  Zr24  1  0.89785856  0.29691674  0.70535262  1
  Zr  Zr25  1  0.69392399  0.69840139  0.90073201  1
  Zr  Zr26  1  0.29139250  0.10203840  0.69453554  1
  Zr  Zr27  1  0.30986252  0.89589707  0.31146196  1
  Zr  Zr28  1  0.90248100  0.70107660  0.30710426  1
  Zr  Zr29  1  0.29841280  0.69427309  0.10407248  1
  Zr  Zr30  1  0.29547779  0.90055149  0.08830259  1
  Zr  Zr31  1  0.10604896  0.28932917  0.70566983  1
  Zr  Zr32  1  0.69784512  0.09675675  0.91059348  1
  Zr  Zr33  1  0.10242097  0.09746243  0.49910707  1
  Zr  Zr34  1  0.69281538  0.50134571  0.09614922  1
  Zr  Zr35  1  0.10169423  0.10585361  0.88684749  1
  Zr  Zr36  1  0.70391818  0.30943416  0.70087619  1
  Zr  Zr37  1  0.90273966  0.50443279  0.90634259  1
  Zr  Zr38  1  0.09489065  0.91064410  0.70041217  1
  Zr  Zr39  1  0.70317404  0.08636845  0.10788336  1
  Zr  Zr40  1  0.89633226  0.70591568  0.50207445  1
  Zr  Zr41  1  0.50324036  0.49981076  0.69830821  1
  Zr  Zr42  1  0.89497936  0.30734948  0.29006276  1
  Zr  Zr43  1  0.49529898  0.29856302  0.11154494  1
  Zr  Zr44  1  0.50436112  0.28858445  0.90298128  1
  Zr  Zr45  1  0.50707933  0.50171376  0.90433581  1
  Zr  Zr46  1  0.70861825  0.49301567  0.29867907  1
  Zr  Zr47  1  0.89893510  0.10678490  0.50021995  1
  Zr  Zr48  1  0.49909325  0.69882343  0.69775172  1
  Zr  Zr49  1  0.10493482  0.29402259  0.49244411  1
  Sc  Sc50  1  0.88940055  0.49465434  0.69809628  1
  Sc  Sc51  1  0.10066278  0.90605323  0.90538363  1
  Sc  Sc52  1  0.10478841  0.90033442  0.50152924  1
  Sc  Sc53  1  0.49636577  0.10881422  0.69741361  1
  Sc  Sc54  1  0.49832807  0.10944455  0.50032391  1
  Sc  Sc55  1  0.89618228  0.89971074  0.69885114  1
  Sc  Sc56  1  0.28908852  0.51007820  0.50541383  1
  Sc  Sc57  1  0.70319120  0.90088703  0.27830363  1
  Sc  Sc58  1  0.50285105  0.69560000  0.50055371  1
  Sc  Sc59  1  0.69108668  0.30203076  0.10402774  1
  Sc  Sc60  1  0.50343412  0.49751585  0.30643854  1
  Sc  Sc61  1  0.09409915  0.89950071  0.29787612  1
  Sc  Sc62  1  0.50297031  0.88973196  0.69262415  1
  Sc  Sc63  1  0.49970609  0.10591314  0.09695890  1
  Sc  Sc64  1  0.30234880  0.29570751  0.70108699  1
  Sc  Sc65  1  0.11166169  0.10381394  0.29713153  1
  Sc  Sc66  1  0.90008659  0.90428642  0.10554843  1
  Sc  Sc67  1  0.69688602  0.69484158  0.10415380  1
  Sc  Sc68  1  0.50111180  0.10918083  0.29527226  1
  Sc  Sc69  1  0.69838836  0.50529589  0.90449946  1
  Sc  Sc70  1  0.30197506  0.69582753  0.30140585  1
  Sc  Sc71  1  0.30123082  0.29337651  0.90561044  1
  Sc  Sc72  1  0.90530373  0.09377879  0.69841888  1
  Sc  Sc73  1  0.89386064  0.10334129  0.89569753  1
  Sc  Sc74  1  0.50058862  0.30396923  0.30041940  1
  Sc  Sc75  1  0.89927068  0.88934943  0.29546096  1
  Sc  Sc76  1  0.89998825  0.90630972  0.89395243  1
  Sc  Sc77  1  0.70411714  0.09549079  0.69033094  1
  Sc  Sc78  1  0.30102823  0.50244156  0.30283021  1
  Sc  Sc79  1  0.30448437  0.50715121  0.10390829  1
  Sc  Sc80  1  0.90104957  0.89662326  0.50743033  1
  Sc  Sc81  1  0.09967404  0.09840292  0.69660698  1
  Sc  Sc82  1  0.70354728  0.70169463  0.50314279  1
  Sc  Sc83  1  0.30577974  0.29472200  0.29904253  1
  Sc  Sc84  1  0.89602239  0.49723827  0.10569407  1
  Sc  Sc85  1  0.29894772  0.88830909  0.68961313  1
  Sc  Sc86  1  0.69368655  0.49833596  0.49721669  1
  Sc  Sc87  1  0.50577051  0.70118134  0.89948850  1
  Sc  Sc88  1  0.09664532  0.69917125  0.70703812  1
  Sc  Sc89  1  0.09198898  0.90249090  0.09921626  1
  Sc  Sc90  1  0.30182851  0.50452118  0.90876447  1
  Sc  Sc91  1  0.49508375  0.29623916  0.70187510  1
  Sc  Sc92  1  0.70010859  0.10746685  0.50161183  1
  Sc  Sc93  1  0.89037531  0.11230281  0.29343981  1
  Sc  Sc94  1  0.30456632  0.70171039  0.91258970  1
  Sc  Sc95  1  0.69910352  0.30169336  0.49765297  1
  Sc  Sc96  1  0.49488952  0.70264493  0.29675710  1
  Sc  Sc97  1  0.30016055  0.29194024  0.49912311  1
  Sc  Sc98  1  0.70133892  0.50288542  0.69366469  1
  Sc  Sc99  1  0.69400371  0.71037482  0.69792901  1
  Nb  Nb100  1  0.69501993  0.90305895  0.69932354  1
  Nb  Nb101  1  0.90237465  0.50037150  0.30042293  1
  Nb  Nb102  1  0.30240012  0.50004271  0.70103627  1
  Nb  Nb103  1  0.70271479  0.10150108  0.30165009  1
  Nb  Nb104  1  0.89830141  0.30329452  0.89596914  1
  Nb  Nb105  1  0.30067214  0.09186299  0.29914246  1
  Nb  Nb106  1  0.09922186  0.49716143  0.49746046  1
  Nb  Nb107  1  0.70354582  0.89832489  0.09464823  1
  Nb  Nb108  1  0.09631153  0.30682675  0.90173611  1
  Nb  Nb109  1  0.70269273  0.28968055  0.30103907  1
  Nb  Nb110  1  0.10275529  0.30467706  0.29648021  1
  Nb  Nb111  1  0.10346323  0.70109901  0.10203835  1
  Nb  Nb112  1  0.49622200  0.89942456  0.30279589  1
  Nb  Nb113  1  0.90639739  0.30416495  0.09651169  1
  Nb  Nb114  1  0.10406448  0.50415155  0.30729759  1
  Nb  Nb115  1  0.49314532  0.90286711  0.49036851  1
  Nb  Nb116  1  0.49945316  0.09708296  0.89589712  1
  Nb  Nb117  1  0.50282953  0.49378750  0.09795695  1
  Nb  Nb118  1  0.09871100  0.49700218  0.90064041  1
  Nb  Nb119  1  0.49376088  0.69003980  0.10157895  1
  Nb  Nb120  1  0.30338474  0.30159408  0.10403740  1
  Nb  Nb121  1  0.29890425  0.89712688  0.90152823  1
  Nb  Nb122  1  0.90992848  0.29852385  0.49510493  1
  Nb  Nb123  1  0.30602756  0.90315327  0.49483942  1
  Nb  Nb124  1  0.89789890  0.69923855  0.69821601  1
  Nb  Nb125  1  0.20233412  0.80059744  0.80723629  1
  Nb  Nb126  1  0.80337686  0.39400258  0.00064695  1
  Nb  Nb127  1  -0.00193522  0.59462622  0.59703720  1
  Nb  Nb128  1  0.79627874  0.80198242  0.00026968  1
  Nb  Nb129  1  0.40027651  -0.00480506  0.79838090  1
  Nb  Nb130  1  -0.00126873  0.20975407  -0.00367002  1
  Nb  Nb131  1  0.59333200  0.00024736  0.80103879  1
  Nb  Nb132  1  0.60069943  0.39773792  0.80200834  1
  Nb  Nb133  1  0.00542854  0.40087572  0.79997773  1
  Nb  Nb134  1  0.59856801  0.81134395  0.39717453  1
  Nb  Nb135  1  0.19741632  0.39932143  0.20127741  1
  Nb  Nb136  1  -0.00763574  0.00588161  0.39983037  1
  Nb  Nb137  1  0.60230193  -0.00261025  0.39449682  1
  Nb  Nb138  1  0.39680277  0.40593707  0.60130882  1
  Nb  Nb139  1  0.00276162  0.40068211  0.39714469  1
  Nb  Nb140  1  0.00342291  0.59654737  0.20671254  1
  Nb  Nb141  1  0.39851950  -0.00310749  0.20351169  1
  Nb  Nb142  1  0.40038623  0.59654673  0.79661962  1
  Nb  Nb143  1  0.19842115  0.40362387  0.80575528  1
  Nb  Nb144  1  0.79592887  0.00213120  0.39697706  1
  Nb  Nb145  1  0.40702617  0.39690447  0.00751248  1
  Nb  Nb146  1  0.39672487  -0.00255433  0.59497027  1
  Nb  Nb147  1  0.00392705  0.39861329  0.59604107  1
  Nb  Nb148  1  0.20112839  0.79730009  0.19580445  1
  Nb  Nb149  1  0.80119739  0.60736355  0.79889040  1
  Pd  Pd150  1  0.80522312  0.39451675  0.58864617  1
  Pd  Pd151  1  0.79438777  0.59899140  0.40376775  1
  Pd  Pd152  1  0.78842059  0.81446793  0.40026876  1
  Pd  Pd153  1  0.19480565  0.20095778  -0.00345103  1
  Pd  Pd154  1  0.60221071  0.20574953  0.60498614  1
  Pd  Pd155  1  0.40435690  0.79269961  0.00632619  1
  Pd  Pd156  1  0.20532719  0.39783723  0.39487459  1
  Pd  Pd157  1  0.21293715  0.40227516  0.00177668  1
  Pd  Pd158  1  0.39829525  0.40375878  0.80512865  1
  Pd  Pd159  1  0.38962519  0.40407309  0.40856534  1
  Pd  Pd160  1  -0.00759958  0.58983464  0.78856348  1
  Pd  Pd161  1  0.80178604  0.39362557  0.40412421  1
  Pd  Pd162  1  0.39222060  0.79611010  0.79828445  1
  Pd  Pd163  1  -0.00547674  0.00775617  0.21265186  1
  Pd  Pd164  1  0.20412320  0.39134569  0.60472125  1
  Pd  Pd165  1  0.80634561  0.60116230  0.19892231  1
  Pd  Pd166  1  0.00290213  0.19724208  0.19849092  1
  Pd  Pd167  1  0.39871505  0.60163980  0.40466712  1
  Pd  Pd168  1  0.00309838  0.20131828  0.60405072  1
  Pd  Pd169  1  0.40725642  0.59109749  0.20552283  1
  Pd  Pd170  1  0.20903016  -0.00918021  0.79649592  1
  Pd  Pd171  1  0.40148689  0.19874900  0.39596040  1
  Pd  Pd172  1  0.59092934  0.00366382  0.20468422  1
  Pd  Pd173  1  0.59311505  0.59752619  0.20756013  1
  Pd  Pd174  1  0.20623614  -0.01365067  0.20513019  1
  Pd  Pd175  1  0.59988615  0.19845969  0.39788735  1
  Pd  Pd176  1  0.00028663  0.19917400  0.38377296  1
  Pd  Pd177  1  0.60755666  0.60433758  0.59838817  1
  Pd  Pd178  1  0.60272104  0.19799204  0.00938301  1
  Pd  Pd179  1  0.60207234  0.79253235  0.20257866  1
  Pd  Pd180  1  -0.00402682  0.80697787  -0.00000625  1
  Pd  Pd181  1  0.00762583  0.80580402  0.80125660  1
  Pd  Pd182  1  0.59049265  -0.00137074  0.00082470  1
  Pd  Pd183  1  0.00505152  0.79517533  0.60276743  1
  Pd  Pd184  1  0.60965166  0.19475513  0.79147949  1
  Pd  Pd185  1  -0.00180438  0.00978408  -0.00856267  1
  Pd  Pd186  1  0.79145355  0.00285332  0.79709850  1
  Pd  Pd187  1  0.79660745  0.79785827  0.80043025  1
  Pd  Pd188  1  0.40812593  0.00014281  0.00574585  1
  Pd  Pd189  1  0.60233353  0.39888042  0.20888209  1
  Pd  Pd190  1  0.39194936  0.19068346  0.80189629  1
  Pd  Pd191  1  0.79496809  0.18818013  0.79402532  1
  Pd  Pd192  1  0.20975114  0.60336742  0.81181440  1
  Pd  Pd193  1  0.19558908  0.80381349  0.39310583  1
  Pd  Pd194  1  0.18824246  0.79707992  0.60569931  1
  Pd  Pd195  1  0.80078906  0.20561498  0.59931036  1
  Pd  Pd196  1  0.00786975  0.40977095  0.20336400  1
  Pd  Pd197  1  0.58621531  0.00474258  0.59992730  1
  Pd  Pd198  1  0.80240345  0.20637934  0.00743661  1
  Pd  Pd199  1  0.79396328  0.20599649  0.18829280  1
  Rh  Rh200  1  0.39039758  0.80492678  0.19331443  1
  Rh  Rh201  1  0.59988678  0.39222778  -0.00719291  1
  Rh  Rh202  1  0.00054133  0.81397794  0.40405424  1
  Rh  Rh203  1  0.60255053  0.59399395  0.79452678  1
  Rh  Rh204  1  0.79398510  0.39677624  0.19214243  1
  Rh  Rh205  1  0.39591748  0.19286987  0.20521462  1
  Rh  Rh206  1  0.80118243  0.60696402  0.60550362  1
  Rh  Rh207  1  -0.00193657  0.00167593  0.79976486  1
  Rh  Rh208  1  0.79887603  0.79525660  0.18854444  1
  Rh  Rh209  1  0.20703273  -0.00391989  0.59747104  1
  Rh  Rh210  1  0.80528099  -0.00040631  0.59595977  1
  Rh  Rh211  1  0.79770483  0.80211648  0.60926259  1
  Rh  Rh212  1  0.40709185  0.80387301  0.59159235  1
  Rh  Rh213  1  0.00611089  0.79242537  0.19783145  1
  Rh  Rh214  1  -0.00761405  0.39868907  -0.00498707  1
  Rh  Rh215  1  0.20322884  0.19951961  0.39095734  1
  Rh  Rh216  1  0.19324683  0.00280035  -0.00104777  1
  Rh  Rh217  1  0.80700155  -0.00141973  0.20430716  1
  Rh  Rh218  1  0.19309182  0.79920161  0.00046437  1
  Rh  Rh219  1  0.79669682  0.41527734  0.81251566  1
  Rh  Rh220  1  0.60021628  0.80803203  0.79559186  1
  Rh  Rh221  1  0.41043077  0.01326476  0.39888062  1
  Rh  Rh222  1  0.20119014  0.60077128  -0.00249083  1
  Rh  Rh223  1  0.59481324  0.79958110  0.59082986  1
  Rh  Rh224  1  0.60344980  0.60788236  0.39519123  1
  Rh  Rh225  1  0.39323014  0.40523374  0.19701653  1
  Rh  Rh226  1  0.20759370  0.20617511  0.80819753  1
  Rh  Rh227  1  0.40123478  0.20368140  0.00234744  1
  Rh  Rh228  1  -0.00197482  0.00088616  0.59209981  1
  Rh  Rh229  1  -0.00331235  0.59305155  0.39990324  1
  Rh  Rh230  1  0.60831019  0.39578354  0.39216131  1
  Rh  Rh231  1  -0.00157468  0.59809872  0.01069912  1
  Rh  Rh232  1  -0.00523220  0.20213680  0.80454446  1
  Rh  Rh233  1  0.19188485  0.60909217  0.59228508  1
  Rh  Rh234  1  0.60561028  0.19782553  0.20130541  1
  Rh  Rh235  1  0.40133752  0.59326482  0.60018166  1
  Rh  Rh236  1  0.19386989  0.59924975  0.20394094  1
  Rh  Rh237  1  0.18965763  -0.00644839  0.39517981  1
  Rh  Rh238  1  0.79925267  0.20234272  0.40239110  1
  Rh  Rh239  1  0.20630028  0.60383380  0.40318894  1
  Rh  Rh240  1  0.80528716  -0.00861158  0.00007461  1
  Rh  Rh241  1  0.20573736  0.20864614  0.20485418  1
  Rh  Rh242  1  0.80153974  0.60339233  -0.00360686  1
  Rh  Rh243  1  0.40835635  0.78839292  0.40557230  1
  Rh  Rh244  1  0.40877363  0.59549142  -0.00293963  1
  Rh  Rh245  1  0.39507827  0.20024473  0.59566354  1
  Rh  Rh246  1  0.60262101  0.79098684  0.01186605  1
  Rh  Rh247  1  0.59443207  0.60730802  0.00713908  1
  Rh  Rh248  1  0.59290640  0.39400006  0.60728289  1
  Rh  Rh249  1  0.20034922  0.19928056  0.59461084  1
