# generated using pymatgen
data_ZrScNbPdRh
_symmetry_space_group_name_H-M   'P 1'
_cell_length_a   16.55858017
_cell_length_b   16.55878302
_cell_length_c   16.55816458
_cell_angle_alpha   90.03267957
_cell_angle_beta   89.99060933
_cell_angle_gamma   90.02083729
_symmetry_Int_Tables_number   1
_chemical_formula_structural   ZrScNbPdRh
_chemical_formula_sum   'Zr50 Sc50 Nb50 Pd50 Rh50'
_cell_volume   4540.08098975
_cell_formula_units_Z   50
loop_
 _symmetry_equiv_pos_site_id
 _symmetry_equiv_pos_as_xyz
  1  'x, y, z'
loop_
 _atom_site_type_symbol
 _atom_site_label
 _atom_site_symmetry_multiplicity
 _atom_site_fract_x
 _atom_site_fract_y
 _atom_site_fract_z
 _atom_site_occupancy
  Zr  Zr0  1  0.50228823  0.49366347  0.09717533  1
  Zr  Zr1  1  0.70531617  0.09811151  0.90659218  1
  Zr  Zr2  1  0.30000771  0.29733938  0.70200500  1
  Zr  Zr3  1  0.29868314  0.29404550  0.09730059  1
  Zr  Zr4  1  0.90918907  0.70085280  0.30117509  1
  Zr  Zr5  1  0.10115036  0.70596393  0.30146405  1
  Zr  Zr6  1  0.29789513  0.10357465  0.90484709  1
  Zr  Zr7  1  0.29608421  0.70771194  0.69671649  1
  Zr  Zr8  1  0.69871125  0.50645485  0.49623000  1
  Zr  Zr9  1  0.50375124  0.29808152  0.10135276  1
  Zr  Zr10  1  0.30105311  0.70935352  0.50361901  1
  Zr  Zr11  1  0.49519973  0.49634366  0.49620030  1
  Zr  Zr12  1  0.49589612  0.69221934  0.89249730  1
  Zr  Zr13  1  0.49024144  0.90147314  0.49958590  1
  Zr  Zr14  1  0.30254422  0.29892139  0.50345928  1
  Zr  Zr15  1  0.09888730  0.49770889  0.10112629  1
  Zr  Zr16  1  0.89934656  0.50227733  0.29988846  1
  Zr  Zr17  1  0.70469161  0.49916479  0.69545064  1
  Zr  Zr18  1  0.70569086  0.49771449  0.89973989  1
  Zr  Zr19  1  0.09687665  0.69706585  0.70415433  1
  Zr  Zr20  1  0.10277552  0.10321464  0.30795578  1
  Zr  Zr21  1  0.90509799  0.90462394  0.10186169  1
  Zr  Zr22  1  0.90469632  0.10117099  0.30206878  1
  Zr  Zr23  1  0.30004072  0.70028461  0.90004094  1
  Zr  Zr24  1  0.89907523  0.49159932  0.50182194  1
  Zr  Zr25  1  0.70708124  0.69711822  0.90120405  1
  Zr  Zr26  1  0.69537662  0.70891563  0.50387561  1
  Zr  Zr27  1  0.90707385  0.90611013  0.69814327  1
  Zr  Zr28  1  0.29999440  0.10494603  0.10360330  1
  Zr  Zr29  1  0.48714238  0.70924529  0.09857477  1
  Zr  Zr30  1  0.69672070  0.69762716  0.69826403  1
  Zr  Zr31  1  0.49224436  0.91630396  0.69894457  1
  Zr  Zr32  1  0.89487538  0.29800632  0.30255167  1
  Zr  Zr33  1  0.10355568  0.90628299  0.50268383  1
  Zr  Zr34  1  0.09412414  0.29938862  0.29937613  1
  Zr  Zr35  1  0.70107759  0.49259390  0.29802908  1
  Zr  Zr36  1  0.10040941  0.30685613  0.10383522  1
  Zr  Zr37  1  0.09430797  0.10185662  0.49907200  1
  Zr  Zr38  1  0.10480970  0.09517404  0.90231026  1
  Zr  Zr39  1  0.69498959  0.90581246  0.49746910  1
  Zr  Zr40  1  0.09897523  0.49933807  0.90058680  1
  Zr  Zr41  1  0.69110525  0.91421929  0.09739678  1
  Zr  Zr42  1  0.90607350  0.90532896  0.90252904  1
  Zr  Zr43  1  0.50066695  0.50726558  0.70100568  1
  Zr  Zr44  1  0.49672208  0.09519708  0.30345173  1
  Zr  Zr45  1  0.89528100  0.10406824  0.70519660  1
  Zr  Zr46  1  0.10498675  0.30249966  0.70124997  1
  Zr  Zr47  1  0.49860604  0.09789842  0.88883449  1
  Zr  Zr48  1  0.09943239  0.29823385  0.49602153  1
  Zr  Zr49  1  0.69388545  0.09845230  0.69582942  1
  Sc  Sc50  1  0.09504663  0.50373054  0.29107438  1
  Sc  Sc51  1  0.70647029  0.29378290  0.70039361  1
  Sc  Sc52  1  0.90202864  0.70219372  0.90273881  1
  Sc  Sc53  1  0.09168304  0.69854017  0.89958609  1
  Sc  Sc54  1  0.49759527  0.29485822  0.91062212  1
  Sc  Sc55  1  0.09553264  0.49111439  0.70850587  1
  Sc  Sc56  1  0.51104985  0.48764148  0.30801239  1
  Sc  Sc57  1  0.10452685  0.68987390  0.10469383  1
  Sc  Sc58  1  0.09206009  0.90747029  0.09776344  1
  Sc  Sc59  1  0.29782329  0.50088725  0.69040899  1
  Sc  Sc60  1  0.30602156  0.88461156  0.11310287  1
  Sc  Sc61  1  0.31073391  0.10393202  0.69952892  1
  Sc  Sc62  1  0.71033272  0.90592804  0.90094194  1
  Sc  Sc63  1  0.70775054  0.89961942  0.69486399  1
  Sc  Sc64  1  0.29281257  0.69740396  0.10063529  1
  Sc  Sc65  1  0.10031820  0.09664095  0.09505528  1
  Sc  Sc66  1  0.09240008  0.69967567  0.49409332  1
  Sc  Sc67  1  0.30695078  0.49779720  0.50324536  1
  Sc  Sc68  1  0.30027685  0.49251280  0.29893266  1
  Sc  Sc69  1  0.49741491  0.90360847  0.89652732  1
  Sc  Sc70  1  0.71233037  0.69263389  0.09878856  1
  Sc  Sc71  1  0.69903475  0.28625062  0.49256468  1
  Sc  Sc72  1  0.90257727  0.89879309  0.50470415  1
  Sc  Sc73  1  0.10876439  0.30112974  0.89193661  1
  Sc  Sc74  1  0.29626840  0.90201143  0.87830258  1
  Sc  Sc75  1  0.90251527  0.49659931  0.09768889  1
  Sc  Sc76  1  0.70216695  0.10179080  0.31904313  1
  Sc  Sc77  1  0.29564770  0.09600889  0.50067055  1
  Sc  Sc78  1  0.49685591  0.90580710  0.29959726  1
  Sc  Sc79  1  0.89456303  0.09725380  0.50048949  1
  Sc  Sc80  1  0.29906386  0.89829078  0.31296517  1
  Sc  Sc81  1  0.50415428  0.09134072  0.10318249  1
  Sc  Sc82  1  0.70126802  0.69690550  0.31377859  1
  Sc  Sc83  1  0.70343096  0.29786638  0.90947901  1
  Sc  Sc84  1  0.29224258  0.71458689  0.28905703  1
  Sc  Sc85  1  0.49735950  0.69840677  0.69166955  1
  Sc  Sc86  1  0.50339420  0.09607390  0.50398411  1
  Sc  Sc87  1  0.70951387  0.29909915  0.09783516  1
  Sc  Sc88  1  0.89829847  0.69092822  0.10044443  1
  Sc  Sc89  1  0.71189432  0.49756772  0.10051948  1
  Sc  Sc90  1  0.89979294  0.71190027  0.69950702  1
  Sc  Sc91  1  0.09719174  0.09994853  0.70547213  1
  Sc  Sc92  1  0.29003431  0.29099931  0.28975839  1
  Sc  Sc93  1  0.89999496  0.10257030  0.10302681  1
  Sc  Sc94  1  0.09180367  0.49873086  0.49575586  1
  Sc  Sc95  1  0.29938103  0.29344357  0.90215916  1
  Sc  Sc96  1  0.49865067  0.29953461  0.49577860  1
  Sc  Sc97  1  0.89081838  0.30391498  0.89222244  1
  Sc  Sc98  1  0.28772955  0.50203363  0.09753611  1
  Sc  Sc99  1  0.89973101  0.70350687  0.49564235  1
  Nb  Nb100  1  0.10451721  0.90344228  0.90157326  1
  Nb  Nb101  1  0.29904697  0.10072663  0.29964940  1
  Nb  Nb102  1  0.09639341  0.89796805  0.29826674  1
  Nb  Nb103  1  0.50437125  0.69847978  0.29947415  1
  Nb  Nb104  1  0.29817625  0.89758654  0.68276791  1
  Nb  Nb105  1  0.50279801  0.90184358  0.09956921  1
  Nb  Nb106  1  0.69717451  0.09732207  0.50047510  1
  Nb  Nb107  1  0.49949919  0.10897207  0.70138036  1
  Nb  Nb108  1  0.90891491  0.30357059  0.50081401  1
  Nb  Nb109  1  0.70114125  0.90247869  0.29831177  1
  Nb  Nb110  1  0.90317699  0.49866978  0.88990892  1
  Nb  Nb111  1  0.89968387  0.48825915  0.70095780  1
  Nb  Nb112  1  0.90660336  0.89885168  0.29356130  1
  Nb  Nb113  1  0.90155342  0.10382220  0.89821112  1
  Nb  Nb114  1  0.69802091  0.09923007  0.10453740  1
  Nb  Nb115  1  0.69100846  0.29967631  0.30077458  1
  Nb  Nb116  1  0.30075095  0.50354233  0.89751783  1
  Nb  Nb117  1  0.49850616  0.29125229  0.70461697  1
  Nb  Nb118  1  0.49903785  0.50104454  0.89762343  1
  Nb  Nb119  1  0.50263549  0.69995897  0.49141292  1
  Nb  Nb120  1  0.90259235  0.30930730  0.69463784  1
  Nb  Nb121  1  0.90252708  0.29599865  0.09670395  1
  Nb  Nb122  1  0.10943132  0.89760774  0.70792146  1
  Nb  Nb123  1  0.30195485  0.90025203  0.51229100  1
  Nb  Nb124  1  0.50599772  0.30190275  0.30452473  1
  Nb  Nb125  1  0.20067601  0.59977469  0.80126733  1
  Nb  Nb126  1  0.40062137  0.60783508  0.39360910  1
  Nb  Nb127  1  0.19834393  0.39956290  0.39817381  1
  Nb  Nb128  1  -0.00562826  0.20713528  0.60363805  1
  Nb  Nb129  1  0.20617664  0.59940673  0.39907202  1
  Nb  Nb130  1  0.40383306  0.39699477  0.19894547  1
  Nb  Nb131  1  0.59814181  0.79828504  -0.00005743  1
  Nb  Nb132  1  0.40633470  0.59591882  0.20620916  1
  Nb  Nb133  1  -0.00769534  0.59315879  0.60689685  1
  Nb  Nb134  1  0.79793450  -0.00100235  0.20633154  1
  Nb  Nb135  1  0.59561992  0.60177616  0.00098685  1
  Nb  Nb136  1  0.19545095  0.80545718  -0.00668754  1
  Nb  Nb137  1  0.59790933  0.39700661  0.60551866  1
  Nb  Nb138  1  0.79772152  0.80840050  0.20542458  1
  Nb  Nb139  1  0.60099770  0.79870213  0.80267927  1
  Nb  Nb140  1  0.80850575  0.59343342  0.79416492  1
  Nb  Nb141  1  0.59380830  0.39944427  0.79870750  1
  Nb  Nb142  1  -0.00501218  0.20261312  -0.00561597  1
  Nb  Nb143  1  0.19914605  -0.00095759  0.20832876  1
  Nb  Nb144  1  0.39788791  -0.00415471  0.00242275  1
  Nb  Nb145  1  0.59674188  0.60352222  0.19811803  1
  Nb  Nb146  1  0.60528923  0.19970040  0.20605909  1
  Nb  Nb147  1  0.39781839  0.19746810  0.39330374  1
  Nb  Nb148  1  0.60295826  0.79946794  0.19721541  1
  Nb  Nb149  1  0.40513882  0.40276389  0.80277985  1
  Pd  Pd150  1  0.00555095  0.79746080  0.59844099  1
  Pd  Pd151  1  -0.00300028  0.59836710  0.00145110  1
  Pd  Pd152  1  0.18636386  0.79676030  0.59510267  1
  Pd  Pd153  1  0.40849078  0.39363973  0.61024633  1
  Pd  Pd154  1  0.60756515  0.20758368  0.80671219  1
  Pd  Pd155  1  0.80417026  0.39423192  0.19632061  1
  Pd  Pd156  1  0.78863544  0.38794706  0.59092482  1
  Pd  Pd157  1  0.39036599  0.40275238  -0.00099713  1
  Pd  Pd158  1  0.59254490  0.80976535  0.60794878  1
  Pd  Pd159  1  -0.00514889  0.39131228  -0.00968456  1
  Pd  Pd160  1  0.00688287  0.79523043  0.00640521  1
  Pd  Pd161  1  0.19752675  0.00849736  0.60839216  1
  Pd  Pd162  1  0.00258333  0.80637028  0.80366545  1
  Pd  Pd163  1  0.40612025  0.80368165  0.79130027  1
  Pd  Pd164  1  -0.00506886  -0.00514529  0.40193867  1
  Pd  Pd165  1  0.19391994  0.40926207  0.59198351  1
  Pd  Pd166  1  0.20334924  -0.00442455  0.39898964  1
  Pd  Pd167  1  0.79832280  0.80489965  0.01025149  1
  Pd  Pd168  1  0.59804450  0.19130628  0.00662334  1
  Pd  Pd169  1  0.20444708  0.39663639  -0.00542329  1
  Pd  Pd170  1  0.00063026  0.79264215  0.18943126  1
  Pd  Pd171  1  0.00545487  0.19600903  0.19137557  1
  Pd  Pd172  1  0.59539033  0.80939190  0.39273994  1
  Pd  Pd173  1  0.39108428  -0.00541910  0.19816889  1
  Pd  Pd174  1  0.79492221  0.39197619  0.40568890  1
  Pd  Pd175  1  0.60716152  0.40381592  -0.00235343  1
  Pd  Pd176  1  0.59432177  0.59698197  0.59189863  1
  Pd  Pd177  1  0.20709895  0.00577934  0.78895568  1
  Pd  Pd178  1  0.39368554  0.81207475  -0.01031921  1
  Pd  Pd179  1  0.79951105  0.00071482  0.59870205  1
  Pd  Pd180  1  0.80617082  -0.00601860  0.39798671  1
  Pd  Pd181  1  0.21417916  -0.01410969  0.01349040  1
  Pd  Pd182  1  0.79890498  0.79954789  0.79896666  1
  Pd  Pd183  1  0.80413247  0.80647948  0.39850056  1
  Pd  Pd184  1  0.81079534  0.60853307  0.60311488  1
  Pd  Pd185  1  0.40986766  0.20490550  0.20511294  1
  Pd  Pd186  1  -0.00007539  0.20849045  0.80155667  1
  Pd  Pd187  1  0.00285489  -0.00098994  0.79972134  1
  Pd  Pd188  1  0.79434359  0.20156485  0.80147113  1
  Pd  Pd189  1  0.19471278  0.19217452  0.60296377  1
  Pd  Pd190  1  0.60952014  -0.00751333  0.79930953  1
  Pd  Pd191  1  0.18726617  0.59427151  0.59699946  1
  Pd  Pd192  1  0.80573294  0.20317663  0.59280407  1
  Pd  Pd193  1  0.39821544  0.59460353  0.00936006  1
  Pd  Pd194  1  0.39898209  0.79710903  0.39540566  1
  Pd  Pd195  1  0.79179657  0.19396070  0.20433002  1
  Pd  Pd196  1  0.80805150  0.00689212  0.00739822  1
  Pd  Pd197  1  0.59483528  0.20404771  0.59557886  1
  Pd  Pd198  1  0.80377703  0.60250901  0.40130196  1
  Pd  Pd199  1  0.38842265  0.59623154  0.79059901  1
  Rh  Rh200  1  0.79410174  0.60831946  0.21227617  1
  Rh  Rh201  1  0.60794082  0.00604750  0.21213995  1
  Rh  Rh202  1  0.00441796  0.00615061  0.60689558  1
  Rh  Rh203  1  -0.00149697  0.59981621  0.19795455  1
  Rh  Rh204  1  -0.00513679  0.01042762  -0.00633172  1
  Rh  Rh205  1  -0.00965481  0.19851371  0.40942048  1
  Rh  Rh206  1  0.59069272  0.00182332  -0.01060159  1
  Rh  Rh207  1  0.80783031  0.19609947  0.00198945  1
  Rh  Rh208  1  0.21469846  0.40868522  0.80137176  1
  Rh  Rh209  1  0.80002034  0.00329979  0.79779014  1
  Rh  Rh210  1  0.59169911  0.19456341  0.39770360  1
  Rh  Rh211  1  0.39933921  0.00988447  0.59881525  1
  Rh  Rh212  1  0.80397439  0.20218500  0.40386834  1
  Rh  Rh213  1  0.79419862  0.40009442  0.79894915  1
  Rh  Rh214  1  0.20588678  0.59729775  0.21071783  1
  Rh  Rh215  1  0.39810839  0.20603898  0.80470217  1
  Rh  Rh216  1  0.40558474  0.19693466  0.59174135  1
  Rh  Rh217  1  0.00685258  0.39962889  0.60201023  1
  Rh  Rh218  1  0.19388179  0.79387160  0.80360115  1
  Rh  Rh219  1  0.18498412  0.81126471  0.18913465  1
  Rh  Rh220  1  0.60877982  0.39625499  0.41377617  1
  Rh  Rh221  1  0.00159097  0.59595206  0.40430475  1
  Rh  Rh222  1  0.20934473  0.20667824  0.40323588  1
  Rh  Rh223  1  0.18895967  0.19007519  0.19606664  1
  Rh  Rh224  1  0.80963630  0.39979917  0.00203198  1
  Rh  Rh225  1  0.59869244  0.00098772  0.60114151  1
  Rh  Rh226  1  0.61159189  0.60033470  0.80789313  1
  Rh  Rh227  1  0.38695251  0.38692179  0.38755383  1
  Rh  Rh228  1  0.60151690  0.39565001  0.19513330  1
  Rh  Rh229  1  0.00242621  0.80982837  0.40397851  1
  Rh  Rh230  1  0.00355452  0.40286116  0.39021466  1
  Rh  Rh231  1  -0.00082154  0.39182719  0.80410190  1
  Rh  Rh232  1  0.39221594  0.00431210  0.79809335  1
  Rh  Rh233  1  0.20490191  0.19425139  0.79800846  1
  Rh  Rh234  1  0.40842565  0.79853417  0.60158971  1
  Rh  Rh235  1  0.19647828  0.60705988  -0.01118627  1
  Rh  Rh236  1  0.40913102  0.18614070  -0.00033618  1
  Rh  Rh237  1  -0.00984227  0.40025902  0.20291031  1
  Rh  Rh238  1  0.59566877  0.59633495  0.39786876  1
  Rh  Rh239  1  -0.00376088  0.59758187  0.79260474  1
  Rh  Rh240  1  0.19607029  0.80163857  0.40753128  1
  Rh  Rh241  1  0.18527764  0.20641683  0.00269928  1
  Rh  Rh242  1  0.39206509  0.00478381  0.40721902  1
  Rh  Rh243  1  0.79919403  0.80265724  0.59532250  1
  Rh  Rh244  1  0.40298745  0.60832622  0.58814916  1
  Rh  Rh245  1  0.20438571  0.40170949  0.20254639  1
  Rh  Rh246  1  0.59834693  -0.00223328  0.40213517  1
  Rh  Rh247  1  0.40879395  0.80092274  0.21162620  1
  Rh  Rh248  1  0.00432630  0.00717059  0.20638125  1
  Rh  Rh249  1  0.80753069  0.59114401  -0.01122564  1
