# generated using pymatgen
data_ZrScNbPdRh
_symmetry_space_group_name_H-M   'P 1'
_cell_length_a   16.56246754
_cell_length_b   16.55897262
_cell_length_c   16.56113415
_cell_angle_alpha   90.00350811
_cell_angle_beta   90.00942882
_cell_angle_gamma   89.95597889
_symmetry_Int_Tables_number   1
_chemical_formula_structural   ZrScNbPdRh
_chemical_formula_sum   'Zr50 Sc50 Nb50 Pd50 Rh50'
_cell_volume   4542.01295111
_cell_formula_units_Z   50
loop_
 _symmetry_equiv_pos_site_id
 _symmetry_equiv_pos_as_xyz
  1  'x, y, z'
loop_
 _atom_site_type_symbol
 _atom_site_label
 _atom_site_symmetry_multiplicity
 _atom_site_fract_x
 _atom_site_fract_y
 _atom_site_fract_z
 _atom_site_occupancy
  Zr  Zr0  1  0.70013736  0.49221754  0.70640780  1
  Zr  Zr1  1  0.70455039  0.89349112  0.29243753  1
  Zr  Zr2  1  0.29615039  0.89992480  0.69710750  1
  Zr  Zr3  1  0.88954408  0.30039565  0.69638793  1
  Zr  Zr4  1  0.49703214  0.10227560  0.50379564  1
  Zr  Zr5  1  0.50928010  0.49874141  0.90233118  1
  Zr  Zr6  1  0.28968420  0.31051839  0.89994690  1
  Zr  Zr7  1  0.50194228  0.30440436  0.50106493  1
  Zr  Zr8  1  0.49927821  0.50112354  0.49185883  1
  Zr  Zr9  1  0.70323292  0.69984739  0.10150283  1
  Zr  Zr10  1  0.29664381  0.28681933  0.50092334  1
  Zr  Zr11  1  0.29880592  0.51428488  0.49848700  1
  Zr  Zr12  1  0.90254977  0.49408117  0.48702620  1
  Zr  Zr13  1  0.49966450  0.70006768  0.90599994  1
  Zr  Zr14  1  0.70355002  0.50259822  0.90211063  1
  Zr  Zr15  1  0.08993981  0.11469245  0.89783170  1
  Zr  Zr16  1  0.49747609  0.70215134  0.10499274  1
  Zr  Zr17  1  0.90367103  0.10095041  0.70589680  1
  Zr  Zr18  1  0.90311167  0.70237624  0.70378692  1
  Zr  Zr19  1  0.50549468  0.09651036  0.90344954  1
  Zr  Zr20  1  0.70041528  0.89100841  0.10327029  1
  Zr  Zr21  1  0.70023581  0.69964436  0.70133660  1
  Zr  Zr22  1  0.29175528  0.70040953  0.69344817  1
  Zr  Zr23  1  0.29690400  0.70155171  0.49616717  1
  Zr  Zr24  1  0.51049842  0.30399585  0.70299332  1
  Zr  Zr25  1  0.09561711  0.30929365  0.89966579  1
  Zr  Zr26  1  0.69781074  0.30669815  0.28675048  1
  Zr  Zr27  1  0.10012454  0.91013277  0.30259650  1
  Zr  Zr28  1  0.10665139  0.70354699  0.49535430  1
  Zr  Zr29  1  0.29823112  0.69719959  0.08772588  1
  Zr  Zr30  1  0.90662570  0.49662803  0.89630539  1
  Zr  Zr31  1  0.90163522  0.50528382  0.10134059  1
  Zr  Zr32  1  0.50855765  0.50141190  0.69519274  1
  Zr  Zr33  1  0.70699307  0.10749667  0.70991603  1
  Zr  Zr34  1  0.09833216  0.09757863  0.10090023  1
  Zr  Zr35  1  0.30700223  0.09499067  0.90291358  1
  Zr  Zr36  1  0.89466314  0.88871060  0.10174584  1
  Zr  Zr37  1  0.90641291  0.89664540  0.70062768  1
  Zr  Zr38  1  0.30500071  0.49954703  0.30139687  1
  Zr  Zr39  1  0.10313166  0.29441434  0.70853476  1
  Zr  Zr40  1  0.10403902  0.90009529  0.49942434  1
  Zr  Zr41  1  0.50529832  0.89347194  0.28582783  1
  Zr  Zr42  1  0.69324447  0.69846519  0.89888858  1
  Zr  Zr43  1  0.90078679  0.70107260  0.49828578  1
  Zr  Zr44  1  0.30275529  0.30450575  0.28764179  1
  Zr  Zr45  1  0.29653962  0.50637698  0.69818223  1
  Zr  Zr46  1  0.90194453  0.09908719  0.31046495  1
  Zr  Zr47  1  0.29684556  0.29477550  0.70132740  1
  Zr  Zr48  1  0.09090580  0.89565847  0.09853440  1
  Zr  Zr49  1  0.69415369  0.09979381  0.89873506  1
  Sc  Sc50  1  0.30352418  0.69484451  0.30404267  1
  Sc  Sc51  1  0.49843709  0.09509584  0.28476503  1
  Sc  Sc52  1  0.09616119  0.50205545  0.70841842  1
  Sc  Sc53  1  0.69433898  0.50255682  0.48966567  1
  Sc  Sc54  1  0.90035560  0.89826138  0.90011702  1
  Sc  Sc55  1  0.30536849  0.89323004  0.89931630  1
  Sc  Sc56  1  0.50056589  0.50225251  0.10115722  1
  Sc  Sc57  1  0.09380607  0.29946120  0.50050525  1
  Sc  Sc58  1  0.29708187  0.90465385  0.29265217  1
  Sc  Sc59  1  0.90140083  0.09953501  0.08788444  1
  Sc  Sc60  1  0.50060946  0.09381982  0.09549342  1
  Sc  Sc61  1  0.09260278  0.89789236  0.69585397  1
  Sc  Sc62  1  0.29803102  0.10385311  0.69305858  1
  Sc  Sc63  1  0.29459667  0.89747172  0.50540003  1
  Sc  Sc64  1  0.90826915  0.89968173  0.50078127  1
  Sc  Sc65  1  0.70111238  0.10482259  0.09397777  1
  Sc  Sc66  1  0.69505491  0.89344546  0.70929131  1
  Sc  Sc67  1  0.09669941  0.50322793  0.09346688  1
  Sc  Sc68  1  0.10696831  0.30690015  0.10293559  1
  Sc  Sc69  1  0.10196253  0.49593895  0.30587672  1
  Sc  Sc70  1  0.29324005  0.70286860  0.90033853  1
  Sc  Sc71  1  0.90235179  0.11185535  0.49859295  1
  Sc  Sc72  1  0.29709669  0.09816577  0.50892842  1
  Sc  Sc73  1  0.30576280  0.09311605  0.10829965  1
  Sc  Sc74  1  0.09879656  0.49703584  0.49702910  1
  Sc  Sc75  1  0.89912252  0.90513745  0.29793799  1
  Sc  Sc76  1  0.69062447  0.29995141  0.10001613  1
  Sc  Sc77  1  0.50556136  0.89179751  0.50975075  1
  Sc  Sc78  1  0.90484696  0.69515825  0.30546103  1
  Sc  Sc79  1  0.50149910  0.89624098  0.70585985  1
  Sc  Sc80  1  0.51353676  0.69623817  0.49846247  1
  Sc  Sc81  1  0.49847914  0.09670036  0.70514027  1
  Sc  Sc82  1  0.71344302  0.10711856  0.49186546  1
  Sc  Sc83  1  0.29033449  0.09968212  0.29547694  1
  Sc  Sc84  1  0.11449340  0.30031007  0.30638642  1
  Sc  Sc85  1  0.68991978  0.29568885  0.89669767  1
  Sc  Sc86  1  0.70452825  0.88675668  0.49729600  1
  Sc  Sc87  1  0.89223576  0.30059752  0.31009456  1
  Sc  Sc88  1  0.89275228  0.29501693  0.10059780  1
  Sc  Sc89  1  0.89657573  0.69238940  0.89586611  1
  Sc  Sc90  1  0.28976198  0.50737271  0.91052834  1
  Sc  Sc91  1  0.50789390  0.70453828  0.69746213  1
  Sc  Sc92  1  0.89492780  0.10487557  0.89888043  1
  Sc  Sc93  1  0.70970897  0.30345433  0.50278228  1
  Sc  Sc94  1  0.89694817  0.49661495  0.70915642  1
  Sc  Sc95  1  0.70832812  0.10005019  0.29448868  1
  Sc  Sc96  1  0.09684927  0.88531940  0.90163510  1
  Sc  Sc97  1  0.10274102  0.10159185  0.49618872  1
  Sc  Sc98  1  0.29812324  0.49530076  0.09969205  1
  Sc  Sc99  1  0.69255329  0.89665380  0.90394034  1
  Nb  Nb100  1  0.09782530  0.09853061  0.29754657  1
  Nb  Nb101  1  0.10289219  0.69236171  0.90137921  1
  Nb  Nb102  1  0.30222762  0.30536921  0.10066524  1
  Nb  Nb103  1  0.29488036  0.89803776  0.09667657  1
  Nb  Nb104  1  0.49844208  0.30744198  0.29633824  1
  Nb  Nb105  1  0.70080278  0.29938946  0.70004252  1
  Nb  Nb106  1  0.49567464  0.30455462  0.10076261  1
  Nb  Nb107  1  0.90330397  0.69838120  0.10859557  1
  Nb  Nb108  1  0.09678352  0.69945340  0.70158552  1
  Nb  Nb109  1  0.10709589  0.70547907  0.30113188  1
  Nb  Nb110  1  0.70709990  0.69666795  0.49334346  1
  Nb  Nb111  1  0.50428378  0.69289941  0.29582596  1
  Nb  Nb112  1  0.69913058  0.50192480  0.28857704  1
  Nb  Nb113  1  0.50111053  0.30130551  0.90549303  1
  Nb  Nb114  1  0.09376961  0.70192820  0.10226088  1
  Nb  Nb115  1  0.09616311  0.49756804  0.89980647  1
  Nb  Nb116  1  0.89424612  0.49534416  0.29830723  1
  Nb  Nb117  1  0.69582314  0.69559545  0.30468291  1
  Nb  Nb118  1  0.90340074  0.30203945  0.89992358  1
  Nb  Nb119  1  0.49285102  0.89926198  0.09920399  1
  Nb  Nb120  1  0.70166641  0.49344962  0.10577193  1
  Nb  Nb121  1  0.89941037  0.30109436  0.50227502  1
  Nb  Nb122  1  0.10273139  0.10109895  0.70545336  1
  Nb  Nb123  1  0.50482251  0.50183958  0.30035638  1
  Nb  Nb124  1  0.50095967  0.90562627  0.90430792  1
  Nb  Nb125  1  0.80259157  0.60160920  0.59415248  1
  Nb  Nb126  1  0.40291443  0.20881357  0.80931282  1
  Nb  Nb127  1  0.19807446  -0.00064486  -0.00278214  1
  Nb  Nb128  1  0.40727473  -0.00251390  0.39894056  1
  Nb  Nb129  1  0.39553393  0.40239772  0.60150218  1
  Nb  Nb130  1  -0.00383785  0.60302741  0.59974997  1
  Nb  Nb131  1  0.79940708  0.59803345  0.20337235  1
  Nb  Nb132  1  0.59465266  0.20089306  0.39540105  1
  Nb  Nb133  1  0.20402377  0.40002934  0.60299892  1
  Nb  Nb134  1  0.19271257  0.60761176  0.19869829  1
  Nb  Nb135  1  -0.00511157  0.39780570  0.20695142  1
  Nb  Nb136  1  0.40048468  0.40406041  0.80044880  1
  Nb  Nb137  1  0.00371658  0.20036930  0.20572220  1
  Nb  Nb138  1  0.19451744  0.79559233  0.19525468  1
  Nb  Nb139  1  0.19490579  0.00260840  0.80322621  1
  Nb  Nb140  1  0.60703816  0.19855212  0.59950801  1
  Nb  Nb141  1  0.40493664  0.19936852  0.39156249  1
  Nb  Nb142  1  0.61133168  0.00613990  0.59711602  1
  Nb  Nb143  1  0.59834981  0.00166094  0.40131887  1
  Nb  Nb144  1  0.40139804  0.59777373  0.79975526  1
  Nb  Nb145  1  0.20652751  0.19918140  0.00238088  1
  Nb  Nb146  1  0.39807882  0.21075229  0.00232635  1
  Nb  Nb147  1  0.40660534  0.80194231  0.39491851  1
  Nb  Nb148  1  0.79892194  0.40294560  -0.00058813  1
  Nb  Nb149  1  0.79947254  0.00034646  0.60534085  1
  Pd  Pd150  1  0.79509270  0.20964491  -0.00668211  1
  Pd  Pd151  1  0.39515042  0.00194132  0.79375718  1
  Pd  Pd152  1  0.60790738  0.00296286  0.19670477  1
  Pd  Pd153  1  0.60802642  0.39611438  0.39532402  1
  Pd  Pd154  1  0.20626446  0.39901997  0.40972656  1
  Pd  Pd155  1  0.79968915  0.80287482  0.80712342  1
  Pd  Pd156  1  0.40314354  0.79209812  0.80035511  1
  Pd  Pd157  1  -0.00914255  0.78779239  -0.00664880  1
  Pd  Pd158  1  0.40265643  0.79360273  0.59384312  1
  Pd  Pd159  1  0.00476420  0.40636977  0.60534820  1
  Pd  Pd160  1  0.00541749  0.20751755  0.39452196  1
  Pd  Pd161  1  0.00312899  0.59330717  0.21096264  1
  Pd  Pd162  1  0.40253687  0.80311787  -0.00268711  1
  Pd  Pd163  1  0.40762915  0.60536825  0.60214138  1
  Pd  Pd164  1  0.79775988  -0.00721827  0.40895062  1
  Pd  Pd165  1  -0.00603058  0.39325409  0.01219426  1
  Pd  Pd166  1  0.79094824  0.39888109  0.39887758  1
  Pd  Pd167  1  0.40325004  0.19856177  0.19688976  1
  Pd  Pd168  1  -0.00226269  0.80564076  0.39460088  1
  Pd  Pd169  1  0.19319983  0.80528789  0.79589382  1
  Pd  Pd170  1  0.80476024  0.79403756  -0.00655764  1
  Pd  Pd171  1  -0.01111010  0.00614657  0.19782793  1
  Pd  Pd172  1  -0.00215809  0.00925730  0.59390563  1
  Pd  Pd173  1  0.40593254  -0.00699177  0.59859673  1
  Pd  Pd174  1  0.20111107  0.59930464  0.80430895  1
  Pd  Pd175  1  0.40043250  0.40456067  -0.00235537  1
  Pd  Pd176  1  0.20957772  0.00422741  0.40369687  1
  Pd  Pd177  1  0.80839907  0.19555031  0.20005513  1
  Pd  Pd178  1  0.80747233  0.80167110  0.39234388  1
  Pd  Pd179  1  0.61113832  0.59998073  0.59687951  1
  Pd  Pd180  1  0.59659786  0.80277852  0.39734370  1
  Pd  Pd181  1  0.00646644  0.59820268  0.39847264  1
  Pd  Pd182  1  0.60054604  0.59817348  0.01026904  1
  Pd  Pd183  1  0.00168800  -0.00261300  -0.00914562  1
  Pd  Pd184  1  0.39213110  0.39464595  0.40442813  1
  Pd  Pd185  1  0.59509019  0.19819839  0.19938540  1
  Pd  Pd186  1  0.60408523  -0.00694549  0.00869456  1
  Pd  Pd187  1  0.00631443  -0.00397143  0.80904998  1
  Pd  Pd188  1  0.38752443  0.79764997  0.20362721  1
  Pd  Pd189  1  0.00014821  0.60604896  -0.00527245  1
  Pd  Pd190  1  0.80153057  0.59844262  0.00499842  1
  Pd  Pd191  1  0.80507557  0.00857775  0.19044189  1
  Pd  Pd192  1  0.79801521  0.41173095  0.59453115  1
  Pd  Pd193  1  0.79679481  -0.00418681  -0.00188127  1
  Pd  Pd194  1  0.00248264  0.19818784  0.60324753  1
  Pd  Pd195  1  0.79777128  -0.00914118  0.80104065  1
  Pd  Pd196  1  0.19593698  0.20053823  0.19459219  1
  Pd  Pd197  1  0.79828464  0.80157267  0.60220810  1
  Pd  Pd198  1  -0.00073920  0.80114483  0.21175835  1
  Pd  Pd199  1  0.39297984  0.59658701  0.19718937  1
  Rh  Rh200  1  -0.00185789  0.39578983  0.79288081  1
  Rh  Rh201  1  0.19560671  0.59862020  0.39201996  1
  Rh  Rh202  1  0.79491342  0.59745033  0.39555161  1
  Rh  Rh203  1  0.59589379  0.60431646  0.79915462  1
  Rh  Rh204  1  0.79648861  0.39059413  0.81226302  1
  Rh  Rh205  1  0.21270530  0.80566706  0.38910773  1
  Rh  Rh206  1  0.60991988  0.80313191  0.59918796  1
  Rh  Rh207  1  0.19289162  0.00075084  0.60942772  1
  Rh  Rh208  1  0.60243849  0.39895849  0.80581255  1
  Rh  Rh209  1  0.79232948  0.21061111  0.39613257  1
  Rh  Rh210  1  0.79949105  0.19560521  0.60013266  1
  Rh  Rh211  1  0.60056596  0.59879793  0.39366161  1
  Rh  Rh212  1  0.40577659  0.40819108  0.19824834  1
  Rh  Rh213  1  0.00725671  0.79219255  0.59689699  1
  Rh  Rh214  1  0.19072578  0.60046926  0.00452642  1
  Rh  Rh215  1  0.59420064  0.19736675  0.79596867  1
  Rh  Rh216  1  0.19395404  0.80150482  0.60526825  1
  Rh  Rh217  1  0.58898996  0.40454727  0.19624221  1
  Rh  Rh218  1  0.60495837  0.60121836  0.19964303  1
  Rh  Rh219  1  0.20933837  0.18731823  0.80942057  1
  Rh  Rh220  1  0.00259059  0.79344698  0.80525740  1
  Rh  Rh221  1  0.39725736  -0.00483195  0.20038850  1
  Rh  Rh222  1  0.60641255  0.39955626  0.00524784  1
  Rh  Rh223  1  0.41129196  0.61060231  0.39871136  1
  Rh  Rh224  1  0.40074987  0.59701132  -0.00574337  1
  Rh  Rh225  1  0.19420020  0.41319494  0.19713437  1
  Rh  Rh226  1  0.59041256  0.20281260  0.00709391  1
  Rh  Rh227  1  0.80323177  0.20817886  0.80841785  1
  Rh  Rh228  1  0.41164945  0.20926515  0.60716878  1
  Rh  Rh229  1  0.18156932  0.59599224  0.59785916  1
  Rh  Rh230  1  0.20634049  0.19348528  0.39723813  1
  Rh  Rh231  1  0.00486146  0.60371526  0.79992561  1
  Rh  Rh232  1  0.19871102  0.41201713  0.79710214  1
  Rh  Rh233  1  0.60170538  0.79264006  0.19474798  1
  Rh  Rh234  1  0.59231228  0.80108747  0.80832843  1
  Rh  Rh235  1  0.80650085  0.78603428  0.20929752  1
  Rh  Rh236  1  0.59893539  -0.00296014  0.79674428  1
  Rh  Rh237  1  0.00064749  0.00183336  0.40552253  1
  Rh  Rh238  1  0.80728278  0.40290845  0.19219267  1
  Rh  Rh239  1  0.18668603  0.20124585  0.59635982  1
  Rh  Rh240  1  0.59219871  0.80459029  0.00453228  1
  Rh  Rh241  1  0.60487760  0.39665964  0.59508511  1
  Rh  Rh242  1  -0.01001957  0.20843257  0.79542936  1
  Rh  Rh243  1  0.19608144  -0.00838096  0.19123534  1
  Rh  Rh244  1  0.19431554  0.40092407  0.00453885  1
  Rh  Rh245  1  -0.00150764  0.39234566  0.39361087  1
  Rh  Rh246  1  0.79640852  0.59950773  0.79302642  1
  Rh  Rh247  1  0.39613883  -0.00543477  0.00743105  1
  Rh  Rh248  1  0.00694659  0.21059629  0.00988021  1
  Rh  Rh249  1  0.19446300  0.80235633  0.00455560  1
