# generated using pymatgen
data_ZrScNbPdRh
_symmetry_space_group_name_H-M   'P 1'
_cell_length_a   16.55516092
_cell_length_b   16.55362044
_cell_length_c   16.55252883
_cell_angle_alpha   89.95214366
_cell_angle_beta   90.01623985
_cell_angle_gamma   90.00752840
_symmetry_Int_Tables_number   1
_chemical_formula_structural   ZrScNbPdRh
_chemical_formula_sum   'Zr50 Sc50 Nb50 Pd50 Rh50'
_cell_volume   4536.18313721
_cell_formula_units_Z   50
loop_
 _symmetry_equiv_pos_site_id
 _symmetry_equiv_pos_as_xyz
  1  'x, y, z'
loop_
 _atom_site_type_symbol
 _atom_site_label
 _atom_site_symmetry_multiplicity
 _atom_site_fract_x
 _atom_site_fract_y
 _atom_site_fract_z
 _atom_site_occupancy
  Zr  Zr0  1  0.29459392  0.50218549  0.09603931  1
  Zr  Zr1  1  0.31173133  0.09843647  0.70089268  1
  Zr  Zr2  1  0.29953092  0.70457390  0.90543364  1
  Zr  Zr3  1  0.10437389  0.69427706  0.50195610  1
  Zr  Zr4  1  0.30120434  0.09650240  0.89895753  1
  Zr  Zr5  1  0.51018122  0.89161793  0.71662106  1
  Zr  Zr6  1  0.29093047  0.09842785  0.09208905  1
  Zr  Zr7  1  0.90784398  0.49840540  0.89883780  1
  Zr  Zr8  1  0.10034295  0.90485336  0.29280528  1
  Zr  Zr9  1  0.49936287  0.50428486  0.30007450  1
  Zr  Zr10  1  0.10085184  0.49646970  0.70863181  1
  Zr  Zr11  1  0.10142331  0.09965014  0.69947526  1
  Zr  Zr12  1  0.29367081  0.30020388  0.30024551  1
  Zr  Zr13  1  0.70281064  0.10693939  0.70263054  1
  Zr  Zr14  1  0.90620817  0.10716327  0.29282327  1
  Zr  Zr15  1  0.09713529  0.09501458  0.11021227  1
  Zr  Zr16  1  0.09243702  0.30548607  0.90097494  1
  Zr  Zr17  1  0.71395316  0.89935763  0.50670415  1
  Zr  Zr18  1  0.29346313  0.70265854  0.69717615  1
  Zr  Zr19  1  0.29585061  0.51361099  0.49322009  1
  Zr  Zr20  1  0.70916853  0.30218311  0.29823027  1
  Zr  Zr21  1  0.09554548  0.50313448  0.29916112  1
  Zr  Zr22  1  0.50019217  0.10595698  0.09886852  1
  Zr  Zr23  1  0.49874423  0.70256899  0.88464142  1
  Zr  Zr24  1  0.70507576  0.89109158  0.09871893  1
  Zr  Zr25  1  0.49801702  0.89966163  0.30059683  1
  Zr  Zr26  1  0.89956737  0.10297581  0.70334798  1
  Zr  Zr27  1  0.09740186  0.30118101  0.50490561  1
  Zr  Zr28  1  0.70116450  0.10411500  0.30587609  1
  Zr  Zr29  1  0.89513152  0.90477030  0.69366944  1
  Zr  Zr30  1  0.90114705  0.90186934  0.09427001  1
  Zr  Zr31  1  0.70581086  0.50499974  0.50787324  1
  Zr  Zr32  1  0.49833160  0.70445819  0.50101247  1
  Zr  Zr33  1  0.29820765  0.71117197  0.50155484  1
  Zr  Zr34  1  0.70205704  0.29459578  0.89924826  1
  Zr  Zr35  1  0.30691192  0.90178896  0.90618820  1
  Zr  Zr36  1  0.71431072  0.30077625  0.70499921  1
  Zr  Zr37  1  0.50204912  0.50163210  0.90354412  1
  Zr  Zr38  1  0.90465128  0.89656030  0.89781870  1
  Zr  Zr39  1  0.10358866  0.10273262  0.90759604  1
  Zr  Zr40  1  0.30528969  0.29421395  0.10165664  1
  Zr  Zr41  1  0.90073506  0.49906419  0.29775255  1
  Zr  Zr42  1  0.90387605  0.69841490  0.70326248  1
  Zr  Zr43  1  0.50178402  0.49435729  0.09620547  1
  Zr  Zr44  1  0.70435975  0.69674177  0.28850419  1
  Zr  Zr45  1  0.29244450  0.70207995  0.09631186  1
  Zr  Zr46  1  0.29970517  0.49658424  0.30178668  1
  Zr  Zr47  1  0.70543384  0.70255454  0.50173582  1
  Zr  Zr48  1  0.50344824  0.50960994  0.70374426  1
  Zr  Zr49  1  0.29522663  0.49850264  0.90593096  1
  Sc  Sc50  1  0.70156076  0.10364529  0.08928622  1
  Sc  Sc51  1  0.10043608  0.90085790  0.89506433  1
  Sc  Sc52  1  0.50292744  0.69826045  0.30281273  1
  Sc  Sc53  1  0.70086041  0.50301475  0.89983444  1
  Sc  Sc54  1  0.30268871  0.30212402  0.90357022  1
  Sc  Sc55  1  0.49703218  0.09396704  0.30245596  1
  Sc  Sc56  1  0.11179551  0.89735349  0.49163055  1
  Sc  Sc57  1  0.89858155  0.70247176  0.49319165  1
  Sc  Sc58  1  0.50882464  0.69379537  0.09979769  1
  Sc  Sc59  1  0.10729586  0.69642829  0.10245209  1
  Sc  Sc60  1  0.29485172  0.89954752  0.30394251  1
  Sc  Sc61  1  0.90372969  0.30677494  0.50172694  1
  Sc  Sc62  1  0.50023098  0.09146671  0.89121285  1
  Sc  Sc63  1  0.90249803  0.29456431  0.10349871  1
  Sc  Sc64  1  0.29619889  0.08217295  0.50952855  1
  Sc  Sc65  1  0.69260057  0.90441010  0.89928432  1
  Sc  Sc66  1  0.48961281  0.30253650  0.29171219  1
  Sc  Sc67  1  0.68828021  0.69655375  0.69281291  1
  Sc  Sc68  1  0.28889523  0.09249939  0.28638121  1
  Sc  Sc69  1  0.89011561  0.70276141  0.09639257  1
  Sc  Sc70  1  0.09468798  0.70252084  0.29707582  1
  Sc  Sc71  1  0.49632952  0.50621100  0.49637637  1
  Sc  Sc72  1  0.49645061  0.90251358  0.09455444  1
  Sc  Sc73  1  0.90716358  0.10184418  0.90945341  1
  Sc  Sc74  1  0.29496388  0.30990799  0.50733951  1
  Sc  Sc75  1  0.50120527  0.30065351  0.91060039  1
  Sc  Sc76  1  0.29211348  0.69674634  0.30463083  1
  Sc  Sc77  1  0.71580666  0.29715561  0.50104575  1
  Sc  Sc78  1  0.10223656  0.89524023  0.09999182  1
  Sc  Sc79  1  0.90449201  0.30377693  0.70725970  1
  Sc  Sc80  1  0.69143214  0.29443488  0.09307596  1
  Sc  Sc81  1  0.48756225  0.30069112  0.50720221  1
  Sc  Sc82  1  0.69764669  0.51221838  0.09423678  1
  Sc  Sc83  1  0.90303893  0.50638280  0.50239392  1
  Sc  Sc84  1  0.49858465  0.29883406  0.09637314  1
  Sc  Sc85  1  0.89372084  0.49801454  0.70187240  1
  Sc  Sc86  1  0.70519793  0.69218228  0.90355813  1
  Sc  Sc87  1  0.49096699  0.90138080  0.49451492  1
  Sc  Sc88  1  0.89975498  0.69658991  0.90377659  1
  Sc  Sc89  1  0.48916610  0.09429337  0.50403853  1
  Sc  Sc90  1  0.48102226  0.29723667  0.69874785  1
  Sc  Sc91  1  0.90115948  0.30417408  0.30208924  1
  Sc  Sc92  1  0.10497892  0.70181192  0.70271200  1
  Sc  Sc93  1  0.10366135  0.29177250  0.09116550  1
  Sc  Sc94  1  0.90714523  0.88282522  0.30331890  1
  Sc  Sc95  1  0.89336736  0.11274028  0.50253238  1
  Sc  Sc96  1  0.09764448  0.49905493  0.49755445  1
  Sc  Sc97  1  0.29543534  0.49296154  0.70633889  1
  Sc  Sc98  1  0.90959952  0.50021270  0.09986652  1
  Sc  Sc99  1  0.09762537  0.70207242  0.89744115  1
  Nb  Nb100  1  0.90140009  0.30593964  0.90179130  1
  Nb  Nb101  1  0.10529499  0.49689179  0.09431749  1
  Nb  Nb102  1  0.90358634  0.69507005  0.30524475  1
  Nb  Nb103  1  0.50090810  0.69740844  0.69940383  1
  Nb  Nb104  1  0.90448420  0.09257799  0.10399284  1
  Nb  Nb105  1  0.09794682  0.10021841  0.49730952  1
  Nb  Nb106  1  0.49999431  0.89198077  0.90103911  1
  Nb  Nb107  1  0.49997137  0.09918859  0.69594934  1
  Nb  Nb108  1  0.08955816  0.90101630  0.70487165  1
  Nb  Nb109  1  0.10171887  0.09714426  0.30259310  1
  Nb  Nb110  1  0.28866781  0.90137997  0.69332063  1
  Nb  Nb111  1  0.69842851  0.10164298  0.50164144  1
  Nb  Nb112  1  0.70096984  0.10686372  0.89507296  1
  Nb  Nb113  1  0.69862051  0.49801851  0.69731514  1
  Nb  Nb114  1  0.69984431  0.70035760  0.09393042  1
  Nb  Nb115  1  0.10065126  0.30130196  0.30762287  1
  Nb  Nb116  1  0.90082168  0.89837629  0.49880644  1
  Nb  Nb117  1  0.10095852  0.49213525  0.91441749  1
  Nb  Nb118  1  0.29895317  0.89354107  0.09579165  1
  Nb  Nb119  1  0.11005417  0.30179106  0.69970753  1
  Nb  Nb120  1  0.69803159  0.49905436  0.30003506  1
  Nb  Nb121  1  0.70072809  0.90109454  0.30026734  1
  Nb  Nb122  1  0.70576427  0.90012881  0.69795730  1
  Nb  Nb123  1  0.29199578  0.30004010  0.70107106  1
  Nb  Nb124  1  0.29976734  0.89160076  0.50255380  1
  Nb  Nb125  1  0.60409257  0.39720691  0.40070506  1
  Nb  Nb126  1  0.60395925  0.00273576  0.60481025  1
  Nb  Nb127  1  0.19599001  0.19445714  0.40204026  1
  Nb  Nb128  1  0.00162300  0.80743289  0.59826323  1
  Nb  Nb129  1  0.60531929  0.40464256  0.20574937  1
  Nb  Nb130  1  0.38999380  0.19680206  0.40149914  1
  Nb  Nb131  1  0.59485605  0.20476247  0.40691327  1
  Nb  Nb132  1  0.79672279  0.00177437  0.80113022  1
  Nb  Nb133  1  0.60846524  -0.00252699  0.20116000  1
  Nb  Nb134  1  0.20070266  0.20466476  0.79500927  1
  Nb  Nb135  1  0.80471156  -0.00137556  0.39847703  1
  Nb  Nb136  1  0.39644884  0.60080840  0.19803059  1
  Nb  Nb137  1  0.60273861  0.39665312  0.60163146  1
  Nb  Nb138  1  0.80442733  0.39738626  -0.00447834  1
  Nb  Nb139  1  0.79625401  0.80518293  0.79530969  1
  Nb  Nb140  1  -0.00159530  0.00296134  0.40332589  1
  Nb  Nb141  1  0.39884503  0.60800980  0.60515755  1
  Nb  Nb142  1  0.60204485  0.40013314  0.79279247  1
  Nb  Nb143  1  0.59893261  0.79840704  -0.00416951  1
  Nb  Nb144  1  0.59891385  0.19895742  0.59963575  1
  Nb  Nb145  1  0.00046791  -0.00094332  0.59227530  1
  Nb  Nb146  1  0.60972024  0.80511690  0.39679498  1
  Nb  Nb147  1  0.19438531  0.39975933  0.19914608  1
  Nb  Nb148  1  0.39520405  0.79595425  0.19537925  1
  Nb  Nb149  1  0.80105792  -0.00118927  0.20303269  1
  Pd  Pd150  1  0.00744475  0.59674859  0.80414993  1
  Pd  Pd151  1  0.40551763  0.80399991  0.61058510  1
  Pd  Pd152  1  0.00746704  0.20803638  0.19895131  1
  Pd  Pd153  1  0.20190677  0.80630266  0.80331542  1
  Pd  Pd154  1  0.60532665  0.60317205  0.40362902  1
  Pd  Pd155  1  0.00097428  0.60386114  0.60155439  1
  Pd  Pd156  1  -0.00320373  0.79193119  0.19212139  1
  Pd  Pd157  1  -0.00310723  0.20041702  0.60347956  1
  Pd  Pd158  1  0.60452847  -0.00012055  0.40533314  1
  Pd  Pd159  1  0.59958587  -0.00094176  0.00273016  1
  Pd  Pd160  1  0.19911581  0.41056823  0.59701636  1
  Pd  Pd161  1  0.59626292  0.20193077  0.20930180  1
  Pd  Pd162  1  0.00275270  0.60606917  0.00528244  1
  Pd  Pd163  1  -0.00182117  0.60751388  0.19321251  1
  Pd  Pd164  1  0.58727611  0.20969951  0.79526822  1
  Pd  Pd165  1  0.79846527  0.19531842  0.19034234  1
  Pd  Pd166  1  0.79773339  0.00208920  -0.00466651  1
  Pd  Pd167  1  0.40576871  0.60667209  0.00304043  1
  Pd  Pd168  1  0.40916775  -0.01721363  0.61080354  1
  Pd  Pd169  1  0.00866557  0.39156709  0.19558533  1
  Pd  Pd170  1  0.39852670  0.19071601  0.20705096  1
  Pd  Pd171  1  0.40462474  0.39903687  0.80450699  1
  Pd  Pd172  1  0.80881748  0.20209655  0.00138533  1
  Pd  Pd173  1  0.20865029  0.19667578  0.59674893  1
  Pd  Pd174  1  -0.00337586  0.40395505  0.60659419  1
  Pd  Pd175  1  0.80721464  0.80043387  0.20327079  1
  Pd  Pd176  1  0.40544245  0.00378558  0.00069394  1
  Pd  Pd177  1  0.39953024  0.41411540  0.60124974  1
  Pd  Pd178  1  0.59527433  0.81115770  0.59233964  1
  Pd  Pd179  1  0.40377349  0.39403589  0.40326110  1
  Pd  Pd180  1  0.19711190  0.59774597  0.80737154  1
  Pd  Pd181  1  0.79301334  0.40572090  0.18350176  1
  Pd  Pd182  1  0.00040402  0.20024450  0.40074595  1
  Pd  Pd183  1  0.20126788  0.00184477  0.79971141  1
  Pd  Pd184  1  0.59223009  0.80311404  0.19721543  1
  Pd  Pd185  1  0.79487269  0.60454865  0.79417618  1
  Pd  Pd186  1  0.38829954  0.59867455  0.79592590  1
  Pd  Pd187  1  0.00943868  -0.00370480  0.00022366  1
  Pd  Pd188  1  0.39951855  -0.00593097  0.19503873  1
  Pd  Pd189  1  0.38821591  0.80574791  0.79259408  1
  Pd  Pd190  1  0.38593044  0.00429593  0.39559246  1
  Pd  Pd191  1  0.80250476  0.40602487  0.40501983  1
  Pd  Pd192  1  0.00619469  0.79448635  0.00331331  1
  Pd  Pd193  1  0.00392083  0.20243264  0.80162597  1
  Pd  Pd194  1  0.39887414  0.20383683  0.80657630  1
  Pd  Pd195  1  0.19477630  0.79774987  0.39248500  1
  Pd  Pd196  1  0.19009418  -0.00674534  0.59928616  1
  Pd  Pd197  1  0.80451345  0.59605149  0.19414889  1
  Pd  Pd198  1  0.60602454  0.00288518  0.79767136  1
  Pd  Pd199  1  0.80164330  0.59807268  0.39788960  1
  Rh  Rh200  1  0.59316256  0.59523577  0.59381346  1
  Rh  Rh201  1  -0.00060234  0.60067154  0.39939417  1
  Rh  Rh202  1  0.19641346  -0.00665424  0.00319159  1
  Rh  Rh203  1  0.20411010  0.59387357  0.60422295  1
  Rh  Rh204  1  -0.00781537  -0.00559215  0.20654502  1
  Rh  Rh205  1  0.19219888  0.60225196  0.39552277  1
  Rh  Rh206  1  0.20226977  0.59087214  0.20442772  1
  Rh  Rh207  1  0.39632501  0.39715411  0.00196517  1
  Rh  Rh208  1  -0.00448444  0.19816862  0.00590627  1
  Rh  Rh209  1  0.61364516  0.79219995  0.80645170  1
  Rh  Rh210  1  0.80935890  0.78732886  0.60804382  1
  Rh  Rh211  1  0.80168379  0.01164561  0.59770905  1
  Rh  Rh212  1  0.20643061  0.80346933  0.20178187  1
  Rh  Rh213  1  0.40014628  -0.01076297  0.79414276  1
  Rh  Rh214  1  0.39630835  0.61281214  0.40068380  1
  Rh  Rh215  1  0.19717670  0.39442944  0.80815092  1
  Rh  Rh216  1  0.60689437  0.59797913  0.80219684  1
  Rh  Rh217  1  0.80290337  0.60430172  0.60462555  1
  Rh  Rh218  1  0.61093732  0.40141165  -0.00018567  1
  Rh  Rh219  1  0.19981859  0.00333410  0.40151383  1
  Rh  Rh220  1  0.59611378  0.60788594  -0.00777016  1
  Rh  Rh221  1  0.19114974  0.60501945  -0.00823676  1
  Rh  Rh222  1  0.81433901  0.19351871  0.81201717  1
  Rh  Rh223  1  0.40262577  0.19321068  -0.00465029  1
  Rh  Rh224  1  0.19408555  0.39792287  0.39912169  1
  Rh  Rh225  1  -0.00657011  0.79911533  0.79624751  1
  Rh  Rh226  1  0.80074347  0.19968801  0.40093973  1
  Rh  Rh227  1  0.18832407  0.80808489  0.60490043  1
  Rh  Rh228  1  0.79192365  0.79999690  -0.01258807  1
  Rh  Rh229  1  0.59373924  0.19045798  -0.01006124  1
  Rh  Rh230  1  0.80727135  0.59105243  0.00344272  1
  Rh  Rh231  1  0.79673866  0.79972265  0.39173527  1
  Rh  Rh232  1  0.20365896  0.39116801  0.00601692  1
  Rh  Rh233  1  0.80225905  0.20529887  0.60046298  1
  Rh  Rh234  1  0.39732170  0.40817715  0.19076517  1
  Rh  Rh235  1  -0.00554861  0.39590964  0.00738596  1
  Rh  Rh236  1  0.39434195  0.19707135  0.59424442  1
  Rh  Rh237  1  0.80311215  0.40152676  0.59991133  1
  Rh  Rh238  1  0.79634175  0.40525202  0.80875748  1
  Rh  Rh239  1  0.00380344  0.40146929  0.79682186  1
  Rh  Rh240  1  0.19010972  0.20712537  0.20788047  1
  Rh  Rh241  1  -0.00560159  0.00431086  0.79875043  1
  Rh  Rh242  1  0.41044372  0.79387331  0.00625959  1
  Rh  Rh243  1  0.20208633  -0.00849629  0.19083243  1
  Rh  Rh244  1  0.40116360  0.79904365  0.39083203  1
  Rh  Rh245  1  0.19407103  0.80282294  -0.00544664  1
  Rh  Rh246  1  0.59779097  0.59479532  0.19732317  1
  Rh  Rh247  1  0.20389597  0.20328029  -0.01043139  1
  Rh  Rh248  1  0.00584623  0.79873807  0.40626295  1
  Rh  Rh249  1  -0.00347287  0.40343715  0.40173386  1
