# generated using pymatgen
data_ZrScNbPdRh
_symmetry_space_group_name_H-M   'P 1'
_cell_length_a   16.55958661
_cell_length_b   16.55892244
_cell_length_c   16.55535818
_cell_angle_alpha   89.98830929
_cell_angle_beta   90.01650769
_cell_angle_gamma   89.99127381
_symmetry_Int_Tables_number   1
_chemical_formula_structural   ZrScNbPdRh
_chemical_formula_sum   'Zr50 Sc50 Nb50 Pd50 Rh50'
_cell_volume   4539.62638890
_cell_formula_units_Z   50
loop_
 _symmetry_equiv_pos_site_id
 _symmetry_equiv_pos_as_xyz
  1  'x, y, z'
loop_
 _atom_site_type_symbol
 _atom_site_label
 _atom_site_symmetry_multiplicity
 _atom_site_fract_x
 _atom_site_fract_y
 _atom_site_fract_z
 _atom_site_occupancy
  Zr  Zr0  1  0.70229884  0.48619812  0.89793380  1
  Zr  Zr1  1  0.90633576  0.30233644  0.30760690  1
  Zr  Zr2  1  0.10884921  0.30090232  0.30612832  1
  Zr  Zr3  1  0.30121099  0.49460526  0.50727042  1
  Zr  Zr4  1  0.50047404  0.90417040  0.50046023  1
  Zr  Zr5  1  0.49537395  0.90788785  0.30069346  1
  Zr  Zr6  1  0.50031199  0.50061813  0.69617012  1
  Zr  Zr7  1  0.91201870  0.29858759  0.69555300  1
  Zr  Zr8  1  0.50657167  0.50096695  0.29924461  1
  Zr  Zr9  1  0.70357676  0.89804643  0.69817624  1
  Zr  Zr10  1  0.29189182  0.69811181  0.50732353  1
  Zr  Zr11  1  0.29918489  0.90265259  0.69689689  1
  Zr  Zr12  1  0.89815247  0.49814964  0.09927284  1
  Zr  Zr13  1  0.50110140  0.69505976  0.10010295  1
  Zr  Zr14  1  0.30113659  0.11346366  0.29745465  1
  Zr  Zr15  1  0.10117204  0.90141155  0.49529406  1
  Zr  Zr16  1  0.09411662  0.69803005  0.90159102  1
  Zr  Zr17  1  0.09414213  0.90600321  0.69140208  1
  Zr  Zr18  1  0.10250120  0.50276111  0.89270366  1
  Zr  Zr19  1  0.91028367  0.10607748  0.10329233  1
  Zr  Zr20  1  0.50445838  0.90050014  0.69249174  1
  Zr  Zr21  1  0.28739869  0.69756263  0.89969712  1
  Zr  Zr22  1  0.89751552  0.70282624  0.89976518  1
  Zr  Zr23  1  0.70204761  0.50752329  0.49477641  1
  Zr  Zr24  1  0.30008866  0.10508267  0.70287709  1
  Zr  Zr25  1  0.89673587  0.49750148  0.30072966  1
  Zr  Zr26  1  0.10373237  0.29486244  0.09936893  1
  Zr  Zr27  1  0.51373953  0.69664910  0.50420331  1
  Zr  Zr28  1  0.49705651  0.29658928  0.29924963  1
  Zr  Zr29  1  0.91241088  0.89801419  0.30192856  1
  Zr  Zr30  1  0.50066651  0.69553169  0.89766576  1
  Zr  Zr31  1  0.29526014  0.90047816  0.50481207  1
  Zr  Zr32  1  0.69444478  0.90940807  0.09707905  1
  Zr  Zr33  1  0.30613834  0.28807519  0.90192694  1
  Zr  Zr34  1  0.11061407  0.10278253  0.90473187  1
  Zr  Zr35  1  0.29272065  0.29949920  0.49537065  1
  Zr  Zr36  1  0.50444199  0.49885719  0.90583259  1
  Zr  Zr37  1  0.09446814  0.49742473  0.09614949  1
  Zr  Zr38  1  0.10262966  0.49127183  0.69731651  1
  Zr  Zr39  1  0.49301428  0.09949183  0.69327528  1
  Zr  Zr40  1  0.69473580  0.29780465  0.09586735  1
  Zr  Zr41  1  0.09463643  0.69874232  0.49630578  1
  Zr  Zr42  1  0.49183249  0.30627675  0.49971888  1
  Zr  Zr43  1  0.69965608  0.30670130  0.70793759  1
  Zr  Zr44  1  0.30045060  0.29578932  0.10766469  1
  Zr  Zr45  1  0.89371949  0.91401304  0.70476244  1
  Zr  Zr46  1  0.29437188  0.89553278  0.10689940  1
  Zr  Zr47  1  0.90720274  0.70020583  0.30198563  1
  Zr  Zr48  1  0.10252131  0.89221666  0.30156721  1
  Zr  Zr49  1  0.49510815  0.90425966  0.10250611  1
  Sc  Sc50  1  0.50654555  0.69282050  0.69911077  1
  Sc  Sc51  1  0.09757919  0.50450496  0.30098444  1
  Sc  Sc52  1  0.28983621  0.48907723  0.30641343  1
  Sc  Sc53  1  0.70013405  0.69964396  0.69388190  1
  Sc  Sc54  1  0.70017381  0.08822160  0.69926182  1
  Sc  Sc55  1  0.49599162  0.10709031  0.89344227  1
  Sc  Sc56  1  0.10092123  0.10325978  0.09923892  1
  Sc  Sc57  1  0.69938115  0.49344015  0.30089925  1
  Sc  Sc58  1  0.50612449  0.10276048  0.29949268  1
  Sc  Sc59  1  0.50160651  0.29795822  0.09322269  1
  Sc  Sc60  1  0.10644242  0.90776958  0.90336839  1
  Sc  Sc61  1  0.29837585  0.30139371  0.30340412  1
  Sc  Sc62  1  0.70863751  0.70209976  0.09726081  1
  Sc  Sc63  1  0.50557970  0.70036127  0.30340006  1
  Sc  Sc64  1  0.90475819  0.69896964  0.09037449  1
  Sc  Sc65  1  0.50658396  0.90784141  0.89182193  1
  Sc  Sc66  1  0.28746521  0.70609619  0.29630170  1
  Sc  Sc67  1  0.29260186  0.10621715  0.09876375  1
  Sc  Sc68  1  0.69091551  0.09450723  0.49566170  1
  Sc  Sc69  1  0.09547483  0.69148840  0.69569927  1
  Sc  Sc70  1  0.69623692  0.30297031  0.49016063  1
  Sc  Sc71  1  0.69142266  0.30177372  0.29853826  1
  Sc  Sc72  1  0.09639848  0.30154478  0.50820189  1
  Sc  Sc73  1  0.69646016  0.50068447  0.70437553  1
  Sc  Sc74  1  0.90875489  0.30589580  0.10015581  1
  Sc  Sc75  1  0.91811067  0.09295471  0.89436391  1
  Sc  Sc76  1  0.90761198  0.49920575  0.70570487  1
  Sc  Sc77  1  0.69343193  0.90061856  0.50771627  1
  Sc  Sc78  1  0.49800621  0.09780485  0.49406765  1
  Sc  Sc79  1  0.51425444  0.09997641  0.10059266  1
  Sc  Sc80  1  0.69663442  0.90165553  0.30157056  1
  Sc  Sc81  1  0.68443860  0.09856335  0.90377326  1
  Sc  Sc82  1  0.70095185  0.90258348  0.88993289  1
  Sc  Sc83  1  0.70357851  0.69654480  0.89052032  1
  Sc  Sc84  1  0.89336385  0.70252264  0.69501251  1
  Sc  Sc85  1  0.09176542  0.09761660  0.30251171  1
  Sc  Sc86  1  0.90255494  0.88983720  0.09946002  1
  Sc  Sc87  1  0.49694981  0.29968002  0.70429576  1
  Sc  Sc88  1  0.90564712  0.90511457  0.51402265  1
  Sc  Sc89  1  0.10127350  0.09899059  0.50207386  1
  Sc  Sc90  1  0.69931729  0.69475643  0.30741116  1
  Sc  Sc91  1  0.28543064  0.49922305  0.10128391  1
  Sc  Sc92  1  0.09753991  0.10644314  0.70095155  1
  Sc  Sc93  1  0.10787680  0.69431033  0.09836966  1
  Sc  Sc94  1  0.90098681  0.50177769  0.90200982  1
  Sc  Sc95  1  0.29589515  0.29564201  0.69719249  1
  Sc  Sc96  1  0.10258908  0.30023308  0.69952212  1
  Sc  Sc97  1  0.29451525  0.90234804  0.29684414  1
  Sc  Sc98  1  0.29746764  0.10321866  0.50741400  1
  Sc  Sc99  1  0.90041958  0.49914153  0.49367594  1
  Nb  Nb100  1  0.89912280  0.29903363  0.50229400  1
  Nb  Nb101  1  0.90023403  0.10171510  0.50149808  1
  Nb  Nb102  1  0.88853815  0.69787945  0.49846937  1
  Nb  Nb103  1  0.30291487  0.69796131  0.09804738  1
  Nb  Nb104  1  0.70031398  0.10318611  0.29755444  1
  Nb  Nb105  1  0.29645227  0.49744938  0.89629832  1
  Nb  Nb106  1  0.29819765  0.50141515  0.70727551  1
  Nb  Nb107  1  0.30364440  0.69893237  0.70270214  1
  Nb  Nb108  1  0.69949583  0.29795427  0.89585640  1
  Nb  Nb109  1  0.09537534  0.70850608  0.30872400  1
  Nb  Nb110  1  0.29875172  0.09361637  0.89841203  1
  Nb  Nb111  1  0.50518873  0.50019186  0.09951946  1
  Nb  Nb112  1  0.29719243  0.90146345  0.89881780  1
  Nb  Nb113  1  0.89992312  0.09946891  0.69265337  1
  Nb  Nb114  1  0.10403704  0.29890824  0.89483081  1
  Nb  Nb115  1  0.10957109  0.50375789  0.51003587  1
  Nb  Nb116  1  0.50647170  0.30028867  0.89917225  1
  Nb  Nb117  1  0.90220391  0.89883800  0.89643433  1
  Nb  Nb118  1  0.70980436  0.69945829  0.50214240  1
  Nb  Nb119  1  0.69176392  0.49529295  0.10264866  1
  Nb  Nb120  1  0.49613585  0.50093340  0.49966786  1
  Nb  Nb121  1  0.10735185  0.90454027  0.10588324  1
  Nb  Nb122  1  0.90213493  0.10031543  0.30274291  1
  Nb  Nb123  1  0.89145931  0.30122826  0.89461686  1
  Nb  Nb124  1  0.70269744  0.10103739  0.10111009  1
  Nb  Nb125  1  0.80338650  0.80203897  0.40680730  1
  Nb  Nb126  1  0.60301469  0.20424192  0.59894652  1
  Nb  Nb127  1  0.80425991  0.19459022  0.39881171  1
  Nb  Nb128  1  0.80186418  0.19638870  0.20120302  1
  Nb  Nb129  1  0.80608019  0.00297657  0.39656626  1
  Nb  Nb130  1  0.39960499  0.60035229  0.40120604  1
  Nb  Nb131  1  0.80348160  0.19948145  0.80070733  1
  Nb  Nb132  1  0.20008429  0.39447842  -0.00961047  1
  Nb  Nb133  1  0.39270536  0.59738109  0.00423980  1
  Nb  Nb134  1  0.80318969  0.00650680  0.20154208  1
  Nb  Nb135  1  0.80105816  0.19756389  -0.00476256  1
  Nb  Nb136  1  0.39168358  -0.00369273  -0.00492501  1
  Nb  Nb137  1  -0.00402240  0.80709453  0.80164479  1
  Nb  Nb138  1  0.80358013  0.39331425  0.59782634  1
  Nb  Nb139  1  0.79988623  0.20021614  0.59875992  1
  Nb  Nb140  1  0.39718377  0.59530128  0.19961484  1
  Nb  Nb141  1  0.39258672  0.79891507  0.80002581  1
  Nb  Nb142  1  0.80165835  0.59407834  0.19789974  1
  Nb  Nb143  1  0.59793441  0.80292622  0.19466942  1
  Nb  Nb144  1  0.59507308  0.80096056  0.00072344  1
  Nb  Nb145  1  0.39640741  0.80037273  -0.00627762  1
  Nb  Nb146  1  0.39912905  0.79590940  0.40581441  1
  Nb  Nb147  1  0.80433807  0.00640561  0.00335640  1
  Nb  Nb148  1  0.40435413  0.40811119  0.19491378  1
  Nb  Nb149  1  0.39673725  0.40341878  0.80716573  1
  Pd  Pd150  1  0.00138275  -0.00315494  0.19588330  1
  Pd  Pd151  1  -0.00752362  0.59565322  0.59621928  1
  Pd  Pd152  1  0.00716191  0.39705331  0.20485457  1
  Pd  Pd153  1  0.60329319  0.80294640  0.39725072  1
  Pd  Pd154  1  0.40540817  0.79305593  0.60213070  1
  Pd  Pd155  1  0.79874646  0.39441159  0.00328819  1
  Pd  Pd156  1  0.39367095  0.39538385  0.61193505  1
  Pd  Pd157  1  0.79841519  0.01383542  0.81364377  1
  Pd  Pd158  1  0.00082043  0.59447212  0.40603722  1
  Pd  Pd159  1  -0.00187404  0.60568959  0.19699892  1
  Pd  Pd160  1  -0.00171050  0.39843245  0.80553244  1
  Pd  Pd161  1  0.19289180  0.80124332  0.79104277  1
  Pd  Pd162  1  0.79304967  0.79731129  0.21052804  1
  Pd  Pd163  1  0.19706707  0.00927173  0.20417647  1
  Pd  Pd164  1  0.19217971  0.79502173  0.60688149  1
  Pd  Pd165  1  0.59714756  0.40220808  0.40258563  1
  Pd  Pd166  1  0.01053894  0.80787540  -0.00070477  1
  Pd  Pd167  1  0.19414698  0.00207661  0.79376886  1
  Pd  Pd168  1  0.60401744  0.19380453  0.79100935  1
  Pd  Pd169  1  0.00034641  -0.00812324  0.00583201  1
  Pd  Pd170  1  0.39716532  0.01565837  0.19176662  1
  Pd  Pd171  1  0.59647665  0.79775859  0.80007501  1
  Pd  Pd172  1  0.00962934  0.40674579  0.40891709  1
  Pd  Pd173  1  0.40323033  0.79045917  0.20802916  1
  Pd  Pd174  1  0.40174576  -0.00466430  0.80151301  1
  Pd  Pd175  1  0.19899976  0.60145656  0.20654536  1
  Pd  Pd176  1  0.19505708  0.60304795  0.79246834  1
  Pd  Pd177  1  0.39366519  0.40628029  0.00297986  1
  Pd  Pd178  1  -0.00670853  0.79677201  0.60339620  1
  Pd  Pd179  1  0.00918283  0.79246942  0.18804546  1
  Pd  Pd180  1  0.00067040  0.19862122  0.80189169  1
  Pd  Pd181  1  0.40676535  0.18712930  0.00531541  1
  Pd  Pd182  1  0.20425756  0.00758880  0.39523880  1
  Pd  Pd183  1  0.79267352  0.59409432  0.00388707  1
  Pd  Pd184  1  0.40071757  0.19740996  0.40483227  1
  Pd  Pd185  1  0.79117971  0.80986743  -0.00707941  1
  Pd  Pd186  1  0.80266604  0.58711073  0.60742628  1
  Pd  Pd187  1  0.60880548  0.60621593  0.19997456  1
  Pd  Pd188  1  0.00357839  0.19930427  0.40602391  1
  Pd  Pd189  1  0.39885117  0.60290911  0.59785144  1
  Pd  Pd190  1  0.38914888  -0.00089389  0.40096853  1
  Pd  Pd191  1  -0.00401126  0.20746379  -0.00920641  1
  Pd  Pd192  1  0.60727859  0.39856717  0.59583474  1
  Pd  Pd193  1  0.20324447  0.59930265  0.39651930  1
  Pd  Pd194  1  0.80177075  0.59722812  0.79483106  1
  Pd  Pd195  1  0.79538031  0.39572392  0.20044661  1
  Pd  Pd196  1  0.39968607  0.59907973  0.80459709  1
  Pd  Pd197  1  0.61068109  0.60404915  -0.00328122  1
  Pd  Pd198  1  0.00439043  0.39544130  -0.01061090  1
  Pd  Pd199  1  0.19671995  0.80294332  0.00396548  1
  Rh  Rh200  1  0.60681528  0.59483475  0.59774710  1
  Rh  Rh201  1  0.19492269  0.19735009  0.40362472  1
  Rh  Rh202  1  0.80735791  0.39846609  0.79297069  1
  Rh  Rh203  1  0.19098459  0.40314042  0.40990203  1
  Rh  Rh204  1  0.60506401  0.79704717  0.60149581  1
  Rh  Rh205  1  0.40737601  0.20352837  0.19544931  1
  Rh  Rh206  1  0.60463217  -0.00220250  0.20869733  1
  Rh  Rh207  1  0.60047018  0.19913405  0.40476522  1
  Rh  Rh208  1  0.59589249  0.00420621  0.79420291  1
  Rh  Rh209  1  0.59749459  0.00750259  0.60055571  1
  Rh  Rh210  1  0.79656309  0.00527905  0.59055340  1
  Rh  Rh211  1  0.60426095  -0.00039415  0.39533539  1
  Rh  Rh212  1  0.19173881  0.19667792  0.20769282  1
  Rh  Rh213  1  0.20130294  0.19947929  0.79986385  1
  Rh  Rh214  1  0.59534214  -0.00282356  -0.00629081  1
  Rh  Rh215  1  0.00062260  0.59690507  -0.00154523  1
  Rh  Rh216  1  0.58871973  0.40272739  0.80294056  1
  Rh  Rh217  1  0.79913250  0.39245769  0.40367889  1
  Rh  Rh218  1  0.59259790  0.39335983  0.19480278  1
  Rh  Rh219  1  0.60220401  0.39511079  -0.00121857  1
  Rh  Rh220  1  0.20037253  0.59130168  -0.00074251  1
  Rh  Rh221  1  0.80623277  0.79892840  0.79715672  1
  Rh  Rh222  1  0.20408716  0.79903045  0.40146853  1
  Rh  Rh223  1  0.19161602  0.79326364  0.19790990  1
  Rh  Rh224  1  0.40278430  0.40836352  0.39002631  1
  Rh  Rh225  1  -0.00784340  0.80102401  0.41402890  1
  Rh  Rh226  1  0.20526159  0.00033475  0.00727979  1
  Rh  Rh227  1  0.00760204  -0.00227268  0.79863279  1
  Rh  Rh228  1  0.00325957  0.00919584  0.59820912  1
  Rh  Rh229  1  -0.00166121  -0.00241313  0.40613972  1
  Rh  Rh230  1  0.40522230  0.20359883  0.59594673  1
  Rh  Rh231  1  0.20906132  0.39060606  0.80329154  1
  Rh  Rh232  1  0.60118139  0.20223703  -0.00411942  1
  Rh  Rh233  1  0.80204782  0.60480645  0.39038851  1
  Rh  Rh234  1  0.60198100  0.20426326  0.20006758  1
  Rh  Rh235  1  0.00234053  0.20746371  0.20613976  1
  Rh  Rh236  1  0.59919066  0.59694893  0.40463810  1
  Rh  Rh237  1  0.39653037  0.00304760  0.59546701  1
  Rh  Rh238  1  -0.00594853  0.61087620  0.80093093  1
  Rh  Rh239  1  0.20038546  0.39756348  0.19427467  1
  Rh  Rh240  1  0.20308166  0.39855552  0.60251971  1
  Rh  Rh241  1  0.19572987  0.20074061  0.59919645  1
  Rh  Rh242  1  0.60553989  0.59539643  0.79992330  1
  Rh  Rh243  1  0.00023525  0.19572606  0.59755845  1
  Rh  Rh244  1  -0.00194375  0.40888220  0.59369085  1
  Rh  Rh245  1  0.20333163  0.59789765  0.60896104  1
  Rh  Rh246  1  0.79956404  0.80581872  0.59555666  1
  Rh  Rh247  1  0.20236649  0.20349414  -0.00265385  1
  Rh  Rh248  1  0.40004316  0.20440696  0.79957586  1
  Rh  Rh249  1  0.19900706  0.00614649  0.60421567  1
