# generated using pymatgen
data_ZrScNbPdRh
_symmetry_space_group_name_H-M   'P 1'
_cell_length_a   16.56628380
_cell_length_b   16.55679201
_cell_length_c   16.56491292
_cell_angle_alpha   90.02008732
_cell_angle_beta   90.01015902
_cell_angle_gamma   90.01487880
_symmetry_Int_Tables_number   1
_chemical_formula_structural   ZrScNbPdRh
_chemical_formula_sum   'Zr50 Sc50 Nb50 Pd50 Rh50'
_cell_volume   4543.49860768
_cell_formula_units_Z   50
loop_
 _symmetry_equiv_pos_site_id
 _symmetry_equiv_pos_as_xyz
  1  'x, y, z'
loop_
 _atom_site_type_symbol
 _atom_site_label
 _atom_site_symmetry_multiplicity
 _atom_site_fract_x
 _atom_site_fract_y
 _atom_site_fract_z
 _atom_site_occupancy
  Zr  Zr0  1  0.10203835  0.88834111  0.29994068  1
  Zr  Zr1  1  0.90153714  0.09267236  0.69904878  1
  Zr  Zr2  1  0.50276122  0.10050095  0.69916389  1
  Zr  Zr3  1  0.69318467  0.70761282  0.29918591  1
  Zr  Zr4  1  0.10620994  0.30394157  0.69943623  1
  Zr  Zr5  1  0.09671636  0.89896102  0.70826010  1
  Zr  Zr6  1  0.30499821  0.90383921  0.49707818  1
  Zr  Zr7  1  0.89525669  0.29268523  0.10344591  1
  Zr  Zr8  1  0.70436928  0.10145650  0.10276569  1
  Zr  Zr9  1  0.30266756  0.90389224  0.09588546  1
  Zr  Zr10  1  0.69207068  0.29616262  0.70306067  1
  Zr  Zr11  1  0.90012811  0.89737536  0.69925312  1
  Zr  Zr12  1  0.90255260  0.10341939  0.89688640  1
  Zr  Zr13  1  0.30498702  0.69776237  0.69724714  1
  Zr  Zr14  1  0.09979525  0.70187074  0.49514237  1
  Zr  Zr15  1  0.30012709  0.29544213  0.10074513  1
  Zr  Zr16  1  0.49389309  0.89510916  0.69899298  1
  Zr  Zr17  1  0.09355969  0.09739087  0.70571683  1
  Zr  Zr18  1  0.10470808  0.10361307  0.09890738  1
  Zr  Zr19  1  0.30442586  0.10054838  0.70807764  1
  Zr  Zr20  1  0.09881577  0.10406259  0.50044307  1
  Zr  Zr21  1  0.70403778  0.49554030  0.30043270  1
  Zr  Zr22  1  0.51023574  0.30901352  0.90116102  1
  Zr  Zr23  1  0.09972237  0.49706989  0.69766263  1
  Zr  Zr24  1  0.89905520  0.50266073  0.89486774  1
  Zr  Zr25  1  0.49658833  0.70007976  0.50114400  1
  Zr  Zr26  1  0.30872116  0.11123948  0.30202105  1
  Zr  Zr27  1  0.70144398  0.69800245  0.90306855  1
  Zr  Zr28  1  0.10143233  0.50689305  0.90015160  1
  Zr  Zr29  1  0.29825662  0.30170926  0.89360526  1
  Zr  Zr30  1  0.30574558  0.09837819  0.49366932  1
  Zr  Zr31  1  0.49871318  0.50131323  0.29017106  1
  Zr  Zr32  1  0.70742550  0.90358651  0.30140975  1
  Zr  Zr33  1  0.89524124  0.29617717  0.89771161  1
  Zr  Zr34  1  0.69127013  0.30563142  0.49803656  1
  Zr  Zr35  1  0.69983596  0.90078742  0.09917090  1
  Zr  Zr36  1  0.89331324  0.70163608  0.50948587  1
  Zr  Zr37  1  0.89494716  0.49478766  0.11154122  1
  Zr  Zr38  1  0.49652062  0.10252713  0.89778791  1
  Zr  Zr39  1  0.29981590  0.90356110  0.30105571  1
  Zr  Zr40  1  0.29329089  0.89903269  0.90498297  1
  Zr  Zr41  1  0.89885366  0.89955484  0.11046099  1
  Zr  Zr42  1  0.89757317  0.71421927  0.29464931  1
  Zr  Zr43  1  0.30075503  0.29883155  0.30130763  1
  Zr  Zr44  1  0.48985367  0.90485604  0.90485720  1
  Zr  Zr45  1  0.89598941  0.09665714  0.29449259  1
  Zr  Zr46  1  0.29895084  0.90323944  0.69525140  1
  Zr  Zr47  1  0.29744804  0.09847791  0.90620934  1
  Zr  Zr48  1  0.90266466  0.10335854  0.50309881  1
  Zr  Zr49  1  0.10251419  0.29050373  0.89926595  1
  Sc  Sc50  1  0.10072109  0.29861496  0.50029625  1
  Sc  Sc51  1  0.29416896  0.70243142  0.90147216  1
  Sc  Sc52  1  0.09070916  0.69989959  0.70498973  1
  Sc  Sc53  1  0.49902740  0.70031566  0.30363406  1
  Sc  Sc54  1  0.50643099  0.90711172  0.09911308  1
  Sc  Sc55  1  0.30007025  0.49117983  0.49292898  1
  Sc  Sc56  1  0.30936922  0.70096566  0.49342618  1
  Sc  Sc57  1  0.29678414  0.70333239  0.09663317  1
  Sc  Sc58  1  0.11422567  0.90157866  0.10725563  1
  Sc  Sc59  1  0.09721904  0.29741859  0.10518146  1
  Sc  Sc60  1  0.69921770  0.09896954  0.69762909  1
  Sc  Sc61  1  0.51224050  0.10263158  0.10187764  1
  Sc  Sc62  1  0.49305455  0.70879952  0.89091674  1
  Sc  Sc63  1  0.70720304  0.89786432  0.70024146  1
  Sc  Sc64  1  0.70916849  0.69625659  0.69991339  1
  Sc  Sc65  1  0.50294210  0.09631319  0.49647962  1
  Sc  Sc66  1  0.70430825  0.10342827  0.90268677  1
  Sc  Sc67  1  0.29394083  0.50638713  0.09476352  1
  Sc  Sc68  1  0.89737075  0.30764941  0.29284629  1
  Sc  Sc69  1  0.50761652  0.49676526  0.09851058  1
  Sc  Sc70  1  0.90374021  0.29135218  0.69971864  1
  Sc  Sc71  1  0.51502793  0.69208827  0.10669362  1
  Sc  Sc72  1  0.89100714  0.69740993  0.89711060  1
  Sc  Sc73  1  0.69699744  0.89853932  0.49475842  1
  Sc  Sc74  1  0.10743100  0.10660341  0.29693248  1
  Sc  Sc75  1  0.49392712  0.29613298  0.29377051  1
  Sc  Sc76  1  0.69791823  0.49987989  0.69659781  1
  Sc  Sc77  1  0.49532346  0.89927481  0.49612567  1
  Sc  Sc78  1  0.89394346  0.50241374  0.49748409  1
  Sc  Sc79  1  0.89242785  0.89794739  0.50206457  1
  Sc  Sc80  1  0.29441968  0.10089685  0.10560667  1
  Sc  Sc81  1  0.89040799  0.49630396  0.29791053  1
  Sc  Sc82  1  0.70722582  0.69840999  0.10408544  1
  Sc  Sc83  1  0.69273101  0.09823512  0.50225801  1
  Sc  Sc84  1  0.90642853  0.50383596  0.70348927  1
  Sc  Sc85  1  0.29741411  0.49647215  0.89581233  1
  Sc  Sc86  1  0.11514353  0.70175771  0.10321393  1
  Sc  Sc87  1  0.30010201  0.68826872  0.29896101  1
  Sc  Sc88  1  0.69744482  0.50277194  0.89770592  1
  Sc  Sc89  1  0.29923523  0.30297822  0.48973057  1
  Sc  Sc90  1  0.69478141  0.30691850  0.29947509  1
  Sc  Sc91  1  0.69641377  0.50692787  0.10633803  1
  Sc  Sc92  1  0.51686313  0.89451409  0.30637049  1
  Sc  Sc93  1  0.48509710  0.49587148  0.69739638  1
  Sc  Sc94  1  0.68970076  0.29432138  0.09738042  1
  Sc  Sc95  1  0.10691706  0.70484249  0.89534132  1
  Sc  Sc96  1  0.88879139  0.90151417  0.89728609  1
  Sc  Sc97  1  0.50233211  0.48902232  0.50955072  1
  Sc  Sc98  1  0.50195335  0.30546197  0.70377083  1
  Sc  Sc99  1  0.10856838  0.50533142  0.30022086  1
  Nb  Nb100  1  0.09916216  0.49845468  0.50006799  1
  Nb  Nb101  1  0.70236229  0.49702913  0.49582787  1
  Nb  Nb102  1  0.49589667  0.69825441  0.69562477  1
  Nb  Nb103  1  0.89837825  0.70113720  0.09766282  1
  Nb  Nb104  1  0.29704976  0.30669113  0.70109334  1
  Nb  Nb105  1  0.50150777  0.09756990  0.30220286  1
  Nb  Nb106  1  0.90166841  0.90354559  0.30335619  1
  Nb  Nb107  1  0.90064571  0.70052747  0.69888071  1
  Nb  Nb108  1  0.69457063  0.09533936  0.30738039  1
  Nb  Nb109  1  0.09954588  0.69770413  0.29988068  1
  Nb  Nb110  1  0.90146630  0.10125672  0.09728597  1
  Nb  Nb111  1  0.10843836  0.90094899  0.49617579  1
  Nb  Nb112  1  0.09865759  0.09588126  0.90068712  1
  Nb  Nb113  1  0.10222867  0.30666085  0.30267812  1
  Nb  Nb114  1  0.50030394  0.29664154  0.50932148  1
  Nb  Nb115  1  0.90036053  0.29498125  0.49727639  1
  Nb  Nb116  1  0.69916401  0.69032962  0.50500701  1
  Nb  Nb117  1  0.29346996  0.48612907  0.69603926  1
  Nb  Nb118  1  0.09791804  0.50279955  0.10134891  1
  Nb  Nb119  1  0.49982922  0.50430128  0.90205825  1
  Nb  Nb120  1  0.69803298  0.89774352  0.89954986  1
  Nb  Nb121  1  0.30055444  0.49369334  0.29615169  1
  Nb  Nb122  1  0.70075605  0.29939522  0.89819303  1
  Nb  Nb123  1  0.09634217  0.90280792  0.90327745  1
  Nb  Nb124  1  0.49893675  0.29805622  0.09626633  1
  Nb  Nb125  1  0.00008129  0.60280471  0.39560489  1
  Nb  Nb126  1  0.40228772  0.80579709  0.19982772  1
  Nb  Nb127  1  0.20126758  0.40291808  0.20323899  1
  Nb  Nb128  1  0.79781776  0.19955218  0.39967577  1
  Nb  Nb129  1  0.79961058  0.39476388  -0.00362287  1
  Nb  Nb130  1  -0.00131584  0.80117107  0.00373008  1
  Nb  Nb131  1  0.19943889  0.59769656  0.59762056  1
  Nb  Nb132  1  -0.00063553  0.60300406  0.00825114  1
  Nb  Nb133  1  -0.00418128  0.40381612  0.00278406  1
  Nb  Nb134  1  0.19763404  0.79933510  0.59670372  1
  Nb  Nb135  1  0.00035683  0.00009312  0.00197170  1
  Nb  Nb136  1  0.58863650  0.60495498  0.79503160  1
  Nb  Nb137  1  0.79836742  0.39524094  0.59448523  1
  Nb  Nb138  1  0.59736180  0.78895985  0.60256197  1
  Nb  Nb139  1  0.59998405  -0.00772336  0.80489040  1
  Nb  Nb140  1  0.00296643  0.40468756  0.40052916  1
  Nb  Nb141  1  0.60603382  0.59511326  0.40752105  1
  Nb  Nb142  1  0.40605431  0.00127314  0.20601701  1
  Nb  Nb143  1  0.40481586  0.20633519  0.00126085  1
  Nb  Nb144  1  0.00203116  0.60509682  0.20134959  1
  Nb  Nb145  1  0.39650930  0.20485069  0.60121001  1
  Nb  Nb146  1  0.00027252  -0.00723971  0.39655609  1
  Nb  Nb147  1  0.60443461  0.80238389  -0.00648434  1
  Nb  Nb148  1  0.20806814  0.19979424  0.60501903  1
  Nb  Nb149  1  0.40637046  0.59839069  -0.00532192  1
  Pd  Pd150  1  0.00234552  0.20036932  0.20628562  1
  Pd  Pd151  1  0.00211288  -0.00994408  0.59046950  1
  Pd  Pd152  1  0.80381368  0.58982071  0.60745216  1
  Pd  Pd153  1  0.00352070  0.39583691  0.80481594  1
  Pd  Pd154  1  0.19419165  0.00659346  0.39276889  1
  Pd  Pd155  1  0.40519719  0.21166404  0.80059201  1
  Pd  Pd156  1  0.60013973  0.20120490  0.20622057  1
  Pd  Pd157  1  0.80323929  0.59041493  0.00379568  1
  Pd  Pd158  1  0.60263273  0.79838317  0.79673172  1
  Pd  Pd159  1  0.60320508  0.00142256  -0.00759380  1
  Pd  Pd160  1  0.00055873  0.19995947  0.00111742  1
  Pd  Pd161  1  0.20058350  0.59598385  0.40412984  1
  Pd  Pd162  1  0.59929248  0.20136044  0.39729164  1
  Pd  Pd163  1  0.00596461  0.80605643  0.59559570  1
  Pd  Pd164  1  -0.00523222  0.20358106  0.38870449  1
  Pd  Pd165  1  0.79804201  0.40197966  0.79352445  1
  Pd  Pd166  1  0.41377518  0.78805174  0.01308773  1
  Pd  Pd167  1  0.59787804  0.41311491  0.79490227  1
  Pd  Pd168  1  0.40863861  0.58715129  0.40466742  1
  Pd  Pd169  1  0.80574748  0.00088804  -0.00171413  1
  Pd  Pd170  1  0.58724470  0.40460626  0.39516998  1
  Pd  Pd171  1  0.00746612  0.79513325  0.19052899  1
  Pd  Pd172  1  0.79581301  0.79834274  0.40558137  1
  Pd  Pd173  1  0.39026290  0.59030291  0.59360144  1
  Pd  Pd174  1  0.39722524  0.59406375  0.80385659  1
  Pd  Pd175  1  0.60076363  -0.01316884  0.60443402  1
  Pd  Pd176  1  0.38910173  0.80248177  0.80073006  1
  Pd  Pd177  1  0.19832019  0.00222543  0.59990153  1
  Pd  Pd178  1  0.39533490  0.40398577  0.18995188  1
  Pd  Pd179  1  0.79376838  -0.00228422  0.59508628  1
  Pd  Pd180  1  0.20012540  -0.00077511  0.80499013  1
  Pd  Pd181  1  0.79671936  0.00167485  0.20018710  1
  Pd  Pd182  1  -0.00812463  0.79666418  0.81244091  1
  Pd  Pd183  1  0.61006843  0.40497554  0.00383392  1
  Pd  Pd184  1  0.20399095  0.59935460  0.79068667  1
  Pd  Pd185  1  0.00893139  0.00201960  0.20114468  1
  Pd  Pd186  1  0.19157240  0.39730920  0.00536630  1
  Pd  Pd187  1  0.79297317  0.20487158  0.59456131  1
  Pd  Pd188  1  0.80096116  0.60727286  0.39289950  1
  Pd  Pd189  1  0.00182651  0.59839321  0.59449181  1
  Pd  Pd190  1  0.21059851  0.79286146  0.39969446  1
  Pd  Pd191  1  -0.00527310  0.80201299  0.40698255  1
  Pd  Pd192  1  0.40929239  0.39887071  0.39949082  1
  Pd  Pd193  1  0.79042815  0.20334227  0.20894327  1
  Pd  Pd194  1  0.39962964  0.40382617  0.00240934  1
  Pd  Pd195  1  0.39654823  0.60509523  0.18826279  1
  Pd  Pd196  1  0.59760858  0.59661101  0.60352469  1
  Pd  Pd197  1  -0.00972526  0.39717239  0.59267032  1
  Pd  Pd198  1  0.79566654  0.19314220  0.79537139  1
  Pd  Pd199  1  0.80166853  0.79666936  0.79720108  1
  Rh  Rh200  1  0.59984155  -0.00075337  0.40134748  1
  Rh  Rh201  1  0.20420286  0.20018853  -0.00190530  1
  Rh  Rh202  1  0.40914691  0.19075637  0.19064044  1
  Rh  Rh203  1  0.79207854  0.79799484  0.60099705  1
  Rh  Rh204  1  0.19507800  0.40424119  0.80544230  1
  Rh  Rh205  1  0.60007930  0.00226126  0.20836971  1
  Rh  Rh206  1  0.59772332  0.80453693  0.18939308  1
  Rh  Rh207  1  0.20310961  0.80358809  0.79335874  1
  Rh  Rh208  1  0.01256231  0.40908639  0.20582223  1
  Rh  Rh209  1  0.59269989  0.20069032  0.60176241  1
  Rh  Rh210  1  0.20144148  0.60274135  -0.00284387  1
  Rh  Rh211  1  -0.00304092  0.60901645  0.80629543  1
  Rh  Rh212  1  0.19422748  0.40155731  0.39498366  1
  Rh  Rh213  1  0.40054419  0.40185374  0.80097534  1
  Rh  Rh214  1  0.39812001  0.80204711  0.59694617  1
  Rh  Rh215  1  0.19066620  0.80350405  -0.00265701  1
  Rh  Rh216  1  0.40070898  0.01752449  0.01566138  1
  Rh  Rh217  1  0.21268709  0.79473817  0.20821341  1
  Rh  Rh218  1  0.20115383  0.59521698  0.20039716  1
  Rh  Rh219  1  0.00941893  0.20523671  0.60626489  1
  Rh  Rh220  1  0.79671600  0.59862300  0.79380613  1
  Rh  Rh221  1  0.79393394  0.00366225  0.79908245  1
  Rh  Rh222  1  0.20703778  0.00457153  0.20697367  1
  Rh  Rh223  1  0.79605337  0.80308072  0.19938000  1
  Rh  Rh224  1  0.79881385  0.80273622  0.00371472  1
  Rh  Rh225  1  -0.00652255  -0.00458630  0.80937542  1
  Rh  Rh226  1  0.40079280  -0.00581804  0.79870504  1
  Rh  Rh227  1  0.41130652  0.20539925  0.40902880  1
  Rh  Rh228  1  0.00260002  0.20082516  0.79662904  1
  Rh  Rh229  1  0.80615660  0.00925631  0.40466000  1
  Rh  Rh230  1  0.59085099  0.61058101  -0.01386817  1
  Rh  Rh231  1  0.60404732  0.78923929  0.41425458  1
  Rh  Rh232  1  0.79597978  0.20345781  0.00145525  1
  Rh  Rh233  1  0.20309269  0.39894103  0.59085638  1
  Rh  Rh234  1  0.39978779  0.80175275  0.38777833  1
  Rh  Rh235  1  0.59782741  0.20023470  -0.00603995  1
  Rh  Rh236  1  0.60633606  0.59795714  0.21371525  1
  Rh  Rh237  1  0.80325742  0.60719814  0.20596923  1
  Rh  Rh238  1  0.78484838  0.39125175  0.18701012  1
  Rh  Rh239  1  0.60389508  0.19161613  0.80353120  1
  Rh  Rh240  1  0.19865244  0.20262107  0.40575744  1
  Rh  Rh241  1  0.80837766  0.38908106  0.40802665  1
  Rh  Rh242  1  0.59796324  0.39689626  0.19626565  1
  Rh  Rh243  1  0.60541973  0.40187360  0.60531313  1
  Rh  Rh244  1  0.19626575  0.21019031  0.20372769  1
  Rh  Rh245  1  0.39353932  0.39035292  0.59808745  1
  Rh  Rh246  1  0.40466358  0.00872504  0.59830772  1
  Rh  Rh247  1  0.19158945  0.00051185  0.00008483  1
  Rh  Rh248  1  0.19605762  0.19498061  0.79571048  1
  Rh  Rh249  1  0.40973951  -0.00333158  0.39132027  1
