# generated using pymatgen
data_ZrScNbPdRh
_symmetry_space_group_name_H-M   'P 1'
_cell_length_a   16.56963567
_cell_length_b   16.57107853
_cell_length_c   16.56550694
_cell_angle_alpha   90.02400579
_cell_angle_beta   89.99592423
_cell_angle_gamma   89.96690774
_symmetry_Int_Tables_number   1
_chemical_formula_structural   ZrScNbPdRh
_chemical_formula_sum   'Zr50 Sc50 Nb50 Pd50 Rh50'
_cell_volume   4548.50162393
_cell_formula_units_Z   50
loop_
 _symmetry_equiv_pos_site_id
 _symmetry_equiv_pos_as_xyz
  1  'x, y, z'
loop_
 _atom_site_type_symbol
 _atom_site_label
 _atom_site_symmetry_multiplicity
 _atom_site_fract_x
 _atom_site_fract_y
 _atom_site_fract_z
 _atom_site_occupancy
  Zr  Zr0  1  0.90290544  0.69281595  0.50057548  1
  Zr  Zr1  1  0.30079023  0.10180106  0.90323298  1
  Zr  Zr2  1  0.70107974  0.49730078  0.90562430  1
  Zr  Zr3  1  0.09998052  0.50149102  0.69840395  1
  Zr  Zr4  1  0.69478860  0.30488899  0.09754417  1
  Zr  Zr5  1  0.90338419  0.50104907  0.69937765  1
  Zr  Zr6  1  0.89965358  0.30296145  0.10390620  1
  Zr  Zr7  1  0.90552081  0.49848391  0.50165569  1
  Zr  Zr8  1  0.70598677  0.90657247  0.89771659  1
  Zr  Zr9  1  0.31326930  0.29249891  0.29714563  1
  Zr  Zr10  1  0.69393969  0.10556756  0.69146641  1
  Zr  Zr11  1  0.09813695  0.10278266  0.29518383  1
  Zr  Zr12  1  0.29850488  0.49958668  0.49454338  1
  Zr  Zr13  1  0.49139965  0.09547640  0.08842853  1
  Zr  Zr14  1  0.90398644  0.69714635  0.10381803  1
  Zr  Zr15  1  0.30039515  0.29884810  0.70151159  1
  Zr  Zr16  1  0.49617163  0.70389623  0.90188259  1
  Zr  Zr17  1  0.50299378  0.31877253  0.49172831  1
  Zr  Zr18  1  0.09573884  0.49739346  0.50152884  1
  Zr  Zr19  1  0.10532781  0.10660389  0.70320156  1
  Zr  Zr20  1  0.49866796  0.49920623  0.10011429  1
  Zr  Zr21  1  0.11100604  0.90095717  0.50079160  1
  Zr  Zr22  1  0.29866084  0.70437025  0.29887166  1
  Zr  Zr23  1  0.10197042  0.69890034  0.11136189  1
  Zr  Zr24  1  0.90168246  0.69466687  0.29752250  1
  Zr  Zr25  1  0.09700876  0.29717180  0.70787252  1
  Zr  Zr26  1  0.30439497  0.70562339  0.50025249  1
  Zr  Zr27  1  0.30765444  0.50784785  0.29662526  1
  Zr  Zr28  1  0.69761788  0.10501900  0.10788528  1
  Zr  Zr29  1  0.90354368  0.49921314  0.30337552  1
  Zr  Zr30  1  0.10223605  0.49783289  0.09853099  1
  Zr  Zr31  1  0.70351127  0.90383568  0.10728823  1
  Zr  Zr32  1  0.31015493  0.90410378  0.10947717  1
  Zr  Zr33  1  0.30797108  0.88944781  0.69603226  1
  Zr  Zr34  1  0.09546017  0.29878855  0.30021019  1
  Zr  Zr35  1  0.30086818  0.09491483  0.49851610  1
  Zr  Zr36  1  0.29376863  0.09953982  0.29359526  1
  Zr  Zr37  1  0.10646989  0.10195254  0.49632557  1
  Zr  Zr38  1  0.88839305  0.10435157  0.49824920  1
  Zr  Zr39  1  0.89888720  0.10783311  0.69571656  1
  Zr  Zr40  1  0.50172949  0.11541509  0.29810681  1
  Zr  Zr41  1  0.29752372  0.49323210  0.69823901  1
  Zr  Zr42  1  0.89660593  0.89640546  0.70589441  1
  Zr  Zr43  1  0.10545189  0.50331660  0.30129634  1
  Zr  Zr44  1  0.89850309  0.69407629  0.89680301  1
  Zr  Zr45  1  0.89997592  0.89487441  0.89731046  1
  Zr  Zr46  1  0.90380793  0.50051950  0.09291309  1
  Zr  Zr47  1  0.51074231  0.08568695  0.50037369  1
  Zr  Zr48  1  0.10444773  0.89918076  0.89963884  1
  Zr  Zr49  1  0.30375743  0.29919248  0.50646209  1
  Sc  Sc50  1  0.09280822  0.29438486  0.09069883  1
  Sc  Sc51  1  0.90697887  0.31225214  0.89981759  1
  Sc  Sc52  1  0.89870417  0.30380551  0.69432052  1
  Sc  Sc53  1  0.70005820  0.90255540  0.30442850  1
  Sc  Sc54  1  0.90035646  0.70295281  0.71067521  1
  Sc  Sc55  1  0.11118546  0.89511479  0.70181604  1
  Sc  Sc56  1  0.50311222  0.10149633  0.69815870  1
  Sc  Sc57  1  0.69427150  0.30063025  0.69600046  1
  Sc  Sc58  1  0.70258342  0.68463471  0.89796129  1
  Sc  Sc59  1  0.68760649  0.70497661  0.50258026  1
  Sc  Sc60  1  0.49358170  0.29606072  0.09972547  1
  Sc  Sc61  1  0.69683342  0.69076090  0.10821461  1
  Sc  Sc62  1  0.68217164  0.49772137  0.50329860  1
  Sc  Sc63  1  0.69771621  0.50092184  0.70279745  1
  Sc  Sc64  1  0.49752800  0.29759948  0.69558980  1
  Sc  Sc65  1  0.29589830  0.29848091  0.90049241  1
  Sc  Sc66  1  0.49629844  0.29148839  0.90292556  1
  Sc  Sc67  1  0.70013865  0.29794985  0.50370094  1
  Sc  Sc68  1  0.89919540  0.90531821  0.28707847  1
  Sc  Sc69  1  0.90539572  0.09820333  0.10638284  1
  Sc  Sc70  1  0.69517316  0.28835082  0.29645328  1
  Sc  Sc71  1  0.70550120  0.89734573  0.69404438  1
  Sc  Sc72  1  0.30302071  0.89665164  0.50213058  1
  Sc  Sc73  1  0.69513236  0.50650169  0.29885540  1
  Sc  Sc74  1  0.89420586  0.08818340  0.90932418  1
  Sc  Sc75  1  0.09886659  0.30111520  0.49607306  1
  Sc  Sc76  1  0.89839319  0.91307387  0.09983890  1
  Sc  Sc77  1  0.09683395  0.90020185  0.11004088  1
  Sc  Sc78  1  0.30301520  0.10330188  0.69402893  1
  Sc  Sc79  1  0.10558050  0.69649324  0.50354374  1
  Sc  Sc80  1  0.30193054  0.70706158  0.10651649  1
  Sc  Sc81  1  0.30454971  0.89190048  0.90467681  1
  Sc  Sc82  1  0.90242420  0.29904944  0.50148075  1
  Sc  Sc83  1  0.10854292  0.90453890  0.29563259  1
  Sc  Sc84  1  0.50366018  0.89096514  0.50119434  1
  Sc  Sc85  1  0.90382206  0.29485894  0.29981797  1
  Sc  Sc86  1  0.09599850  0.49547151  0.89704399  1
  Sc  Sc87  1  0.69605436  0.69902433  0.29594128  1
  Sc  Sc88  1  0.50480501  0.70437085  0.69489920  1
  Sc  Sc89  1  0.30126955  0.70956454  0.89960458  1
  Sc  Sc90  1  0.10265093  0.11234823  0.90276516  1
  Sc  Sc91  1  0.10237330  0.69453428  0.70214053  1
  Sc  Sc92  1  0.69758535  0.49836706  0.09649331  1
  Sc  Sc93  1  0.10021244  0.69848537  0.89433802  1
  Sc  Sc94  1  0.29736129  0.48215489  0.89995285  1
  Sc  Sc95  1  0.50383120  0.49471994  0.69230058  1
  Sc  Sc96  1  0.68489113  0.09822928  0.89678351  1
  Sc  Sc97  1  0.50159082  0.89991342  0.69013822  1
  Sc  Sc98  1  0.88385863  0.90891862  0.50546595  1
  Sc  Sc99  1  0.69352126  0.90676512  0.49907447  1
  Nb  Nb100  1  0.69692076  0.30124303  0.90107935  1
  Nb  Nb101  1  0.50272939  0.50130327  0.90332197  1
  Nb  Nb102  1  0.49858260  0.69479610  0.29887793  1
  Nb  Nb103  1  0.49845365  0.89726275  0.09907481  1
  Nb  Nb104  1  0.49986528  0.30436758  0.30046537  1
  Nb  Nb105  1  0.49757674  0.09076121  0.89722265  1
  Nb  Nb106  1  0.89761188  0.09932066  0.30468964  1
  Nb  Nb107  1  0.49973637  0.90164162  0.90686014  1
  Nb  Nb108  1  0.30085868  0.49638298  0.09637876  1
  Nb  Nb109  1  0.70334799  0.09175870  0.49083916  1
  Nb  Nb110  1  0.10506448  0.30126218  0.90162890  1
  Nb  Nb111  1  0.30529953  0.90210420  0.30115455  1
  Nb  Nb112  1  0.49775474  0.49455540  0.31211618  1
  Nb  Nb113  1  0.50157445  0.70503984  0.10540949  1
  Nb  Nb114  1  0.29789967  0.30789552  0.09292085  1
  Nb  Nb115  1  0.10427939  0.09852179  0.10250325  1
  Nb  Nb116  1  0.89419581  0.50937744  0.89862277  1
  Nb  Nb117  1  0.09695068  0.70684347  0.29051566  1
  Nb  Nb118  1  0.50133952  0.69390847  0.50053327  1
  Nb  Nb119  1  0.69902812  0.69916437  0.70054430  1
  Nb  Nb120  1  0.30906754  0.69625312  0.70130686  1
  Nb  Nb121  1  0.29398140  0.10588875  0.09993946  1
  Nb  Nb122  1  0.49631695  0.50499428  0.49445389  1
  Nb  Nb123  1  0.49625892  0.89787008  0.29181925  1
  Nb  Nb124  1  0.69905594  0.09486487  0.30924861  1
  Nb  Nb125  1  0.20214774  0.00435170  0.00817682  1
  Nb  Nb126  1  0.00198795  -0.00079966  0.60072678  1
  Nb  Nb127  1  0.40486252  -0.00296534  0.80534598  1
  Nb  Nb128  1  0.60088192  0.80312406  0.00161225  1
  Nb  Nb129  1  0.79558364  0.60287734  0.60249588  1
  Nb  Nb130  1  -0.00251449  0.80557788  0.40073788  1
  Nb  Nb131  1  0.39804075  0.59717297  -0.00131478  1
  Nb  Nb132  1  0.40117258  0.60001837  0.59774887  1
  Nb  Nb133  1  0.80614120  0.79653917  0.39936893  1
  Nb  Nb134  1  0.79555704  0.20453026  -0.00327755  1
  Nb  Nb135  1  0.40337179  -0.00378559  0.39058340  1
  Nb  Nb136  1  0.79847424  0.40312433  0.39960940  1
  Nb  Nb137  1  0.00290393  0.00141969  0.79520908  1
  Nb  Nb138  1  0.40017647  0.59720821  0.79942565  1
  Nb  Nb139  1  0.59254953  0.00178867  0.20363781  1
  Nb  Nb140  1  0.79858152  0.79718185  0.00214151  1
  Nb  Nb141  1  0.79434496  0.20467624  0.80779678  1
  Nb  Nb142  1  -0.00124181  0.80650484  0.59548374  1
  Nb  Nb143  1  -0.00241943  -0.00063445  0.40416587  1
  Nb  Nb144  1  0.58997596  0.39955115  0.20665715  1
  Nb  Nb145  1  0.60092962  0.80176457  0.80660495  1
  Nb  Nb146  1  0.59912147  0.39905744  0.80997362  1
  Nb  Nb147  1  0.20761792  0.39850736  0.19597850  1
  Nb  Nb148  1  0.20819738  0.59680980  0.00331483  1
  Nb  Nb149  1  -0.00439165  0.79882948  0.00148763  1
  Pd  Pd150  1  0.78545553  0.59926259  0.41074833  1
  Pd  Pd151  1  0.40610045  0.19378023  0.41160829  1
  Pd  Pd152  1  -0.00927942  0.19866908  -0.00401595  1
  Pd  Pd153  1  0.78879061  0.40262368  0.21032605  1
  Pd  Pd154  1  0.41151830  0.19703400  0.59151724  1
  Pd  Pd155  1  0.19423335  0.79931909  0.39376917  1
  Pd  Pd156  1  0.20759037  0.60300427  0.59964122  1
  Pd  Pd157  1  0.59353282  -0.00851257  0.78956000  1
  Pd  Pd158  1  -0.00033776  0.40408966  0.80124085  1
  Pd  Pd159  1  0.40358569  0.60461251  0.19516969  1
  Pd  Pd160  1  0.19726446  0.21303359  0.19111689  1
  Pd  Pd161  1  0.39529320  0.20411318  -0.00061620  1
  Pd  Pd162  1  0.00660054  0.40089505  0.19948242  1
  Pd  Pd163  1  0.60150252  0.20481314  0.40812061  1
  Pd  Pd164  1  0.40157958  0.19173081  0.79860227  1
  Pd  Pd165  1  0.01134458  -0.00334619  -0.00332379  1
  Pd  Pd166  1  0.00429384  0.19956994  0.59175281  1
  Pd  Pd167  1  0.79348499  0.40808455  0.59257544  1
  Pd  Pd168  1  0.80110303  0.01325591  0.79332867  1
  Pd  Pd169  1  0.80509967  0.39741404  -0.00189909  1
  Pd  Pd170  1  0.60158435  0.60354576  0.39632848  1
  Pd  Pd171  1  0.19295002  0.39288542  0.60035403  1
  Pd  Pd172  1  0.20318097  0.20640259  0.39999093  1
  Pd  Pd173  1  0.40702665  0.80286345  0.39875143  1
  Pd  Pd174  1  0.19315987  0.80118167  0.00964217  1
  Pd  Pd175  1  0.80172555  0.79901844  0.20064593  1
  Pd  Pd176  1  0.59636909  0.60739320  0.00489728  1
  Pd  Pd177  1  0.41054393  0.40163571  0.80305997  1
  Pd  Pd178  1  0.59951622  0.19935401  -0.00250392  1
  Pd  Pd179  1  0.40537722  0.01084403  0.20411406  1
  Pd  Pd180  1  0.79432839  0.39669163  0.79769413  1
  Pd  Pd181  1  0.79741696  0.21037257  0.39988041  1
  Pd  Pd182  1  0.21072555  0.59744676  0.81160218  1
  Pd  Pd183  1  0.20267723  0.79360902  0.79601593  1
  Pd  Pd184  1  0.20791817  0.39268864  0.39063016  1
  Pd  Pd185  1  0.59516298  0.20297553  0.58868317  1
  Pd  Pd186  1  0.01268267  0.60798954  0.39613768  1
  Pd  Pd187  1  0.80547352  0.19608609  0.19932239  1
  Pd  Pd188  1  0.20326392  -0.00023450  0.60789641  1
  Pd  Pd189  1  0.79837873  0.59070943  0.19636900  1
  Pd  Pd190  1  0.60369881  -0.00371189  0.00738962  1
  Pd  Pd191  1  0.20622826  0.00125969  0.80637645  1
  Pd  Pd192  1  0.80091084  0.79185044  0.59224544  1
  Pd  Pd193  1  0.60094458  0.80381730  0.19934895  1
  Pd  Pd194  1  -0.01289967  0.19453621  0.81364935  1
  Pd  Pd195  1  0.40113088  0.39842986  0.19841831  1
  Pd  Pd196  1  0.01104271  0.60424323  -0.00516803  1
  Pd  Pd197  1  0.19629205  0.60778731  0.39857826  1
  Pd  Pd198  1  0.59193100  0.59857960  0.79374317  1
  Pd  Pd199  1  0.60158669  0.80046693  0.39470271  1
  Rh  Rh200  1  0.61096730  0.39646289  0.38922669  1
  Rh  Rh201  1  0.20575993  0.80706931  0.20311963  1
  Rh  Rh202  1  0.00120658  0.00606877  0.20769242  1
  Rh  Rh203  1  0.80609171  -0.00789329  0.39142437  1
  Rh  Rh204  1  0.01084206  0.80673488  0.79932336  1
  Rh  Rh205  1  0.79378693  0.20127554  0.60200581  1
  Rh  Rh206  1  -0.00777905  0.39601898  0.40042361  1
  Rh  Rh207  1  0.59049150  0.39548340  0.00122184  1
  Rh  Rh208  1  -0.00039377  0.59482696  0.80027896  1
  Rh  Rh209  1  0.40432643  0.40064057  -0.00604618  1
  Rh  Rh210  1  0.39890646  -0.00150824  0.59795894  1
  Rh  Rh211  1  0.79118650  0.00595062  0.00640348  1
  Rh  Rh212  1  0.59354178  0.20183442  0.19557658  1
  Rh  Rh213  1  0.59984127  0.20724663  0.80292351  1
  Rh  Rh214  1  0.58908118  0.59096608  0.20539981  1
  Rh  Rh215  1  0.19308887  0.39908680  0.00254648  1
  Rh  Rh216  1  0.38986843  -0.00310596  -0.00528689  1
  Rh  Rh217  1  0.40250067  0.40788099  0.59603488  1
  Rh  Rh218  1  0.59701627  0.60113473  0.60169399  1
  Rh  Rh219  1  0.59093325  -0.00477889  0.38938645  1
  Rh  Rh220  1  -0.00590059  0.60977379  0.60980830  1
  Rh  Rh221  1  0.40641258  0.79233181  0.59646627  1
  Rh  Rh222  1  0.19865870  0.20602960  0.60014580  1
  Rh  Rh223  1  0.40228693  0.79348858  0.20401289  1
  Rh  Rh224  1  0.00671193  0.39433370  0.60118306  1
  Rh  Rh225  1  0.40337643  0.60645078  0.40300707  1
  Rh  Rh226  1  0.39218622  0.39996390  0.40018285  1
  Rh  Rh227  1  0.80102373  0.59562951  0.79142257  1
  Rh  Rh228  1  -0.00230892  0.19578159  0.19834361  1
  Rh  Rh229  1  0.79575462  0.00654768  0.60498229  1
  Rh  Rh230  1  0.19959028  0.20000995  0.00281788  1
  Rh  Rh231  1  -0.00098475  0.40344884  -0.00574559  1
  Rh  Rh232  1  0.20579827  0.20427124  0.80071134  1
  Rh  Rh233  1  0.78452828  0.79064153  0.80993154  1
  Rh  Rh234  1  -0.00410143  0.80593701  0.20042660  1
  Rh  Rh235  1  0.59753561  0.39852342  0.60620134  1
  Rh  Rh236  1  0.60649687  -0.00313533  0.60270615  1
  Rh  Rh237  1  0.39877151  0.20044583  0.18935043  1
  Rh  Rh238  1  0.00131519  0.59204027  0.20421036  1
  Rh  Rh239  1  0.60246450  0.79906200  0.60459247  1
  Rh  Rh240  1  0.79237916  0.00970136  0.20612065  1
  Rh  Rh241  1  -0.00195412  0.19301321  0.40070406  1
  Rh  Rh242  1  0.20268351  0.59476340  0.19583484  1
  Rh  Rh243  1  0.41054626  0.80359422  0.79429934  1
  Rh  Rh244  1  0.20138733  -0.00347791  0.19564725  1
  Rh  Rh245  1  0.19843460  0.79097435  0.60629886  1
  Rh  Rh246  1  0.79890763  0.60245669  0.00717771  1
  Rh  Rh247  1  0.19401434  0.39532829  0.79939799  1
  Rh  Rh248  1  0.40559736  0.79510145  0.00969193  1
  Rh  Rh249  1  0.20673010  -0.00158568  0.39465796  1
