# generated using pymatgen
data_ZrScNbPdRh
_symmetry_space_group_name_H-M   'P 1'
_cell_length_a   16.55749122
_cell_length_b   16.55756413
_cell_length_c   16.56223676
_cell_angle_alpha   90.02826783
_cell_angle_beta   90.02981542
_cell_angle_gamma   89.99956965
_symmetry_Int_Tables_number   1
_chemical_formula_structural   ZrScNbPdRh
_chemical_formula_sum   'Zr50 Sc50 Nb50 Pd50 Rh50'
_cell_volume   4540.56457162
_cell_formula_units_Z   50
loop_
 _symmetry_equiv_pos_site_id
 _symmetry_equiv_pos_as_xyz
  1  'x, y, z'
loop_
 _atom_site_type_symbol
 _atom_site_label
 _atom_site_symmetry_multiplicity
 _atom_site_fract_x
 _atom_site_fract_y
 _atom_site_fract_z
 _atom_site_occupancy
  Zr  Zr0  1  0.69919612  0.50106993  0.90073550  1
  Zr  Zr1  1  0.90298184  0.89670181  0.49042131  1
  Zr  Zr2  1  0.89698075  0.30820055  0.50004841  1
  Zr  Zr3  1  0.30370751  0.89901418  0.49405549  1
  Zr  Zr4  1  0.29773658  0.29519829  0.49492449  1
  Zr  Zr5  1  0.10281507  0.10039482  0.70103887  1
  Zr  Zr6  1  0.49363784  0.09612200  0.50161694  1
  Zr  Zr7  1  0.30265681  0.89381440  0.10392867  1
  Zr  Zr8  1  0.69934653  0.68835485  0.90150514  1
  Zr  Zr9  1  0.89748937  0.49090199  0.71094319  1
  Zr  Zr10  1  0.50141854  0.09382184  0.09555790  1
  Zr  Zr11  1  0.50265232  0.49276196  0.90873946  1
  Zr  Zr12  1  0.09961067  0.29283352  0.29788977  1
  Zr  Zr13  1  0.29558254  0.08754195  0.10501330  1
  Zr  Zr14  1  0.69802459  0.09022263  0.69037376  1
  Zr  Zr15  1  0.30376764  0.50021148  0.29021920  1
  Zr  Zr16  1  0.69592879  0.89419276  0.10521202  1
  Zr  Zr17  1  0.89358124  0.10567112  0.10717406  1
  Zr  Zr18  1  0.50302310  0.89440984  0.69274246  1
  Zr  Zr19  1  0.10088781  0.69521415  0.49477168  1
  Zr  Zr20  1  0.29617062  0.69805946  0.89218205  1
  Zr  Zr21  1  0.70397398  0.69928858  0.30340922  1
  Zr  Zr22  1  0.69906863  0.88812277  0.70160304  1
  Zr  Zr23  1  0.49527230  0.90264616  0.90141709  1
  Zr  Zr24  1  0.30113827  0.70055525  0.49892300  1
  Zr  Zr25  1  0.30386691  0.31134448  0.89729765  1
  Zr  Zr26  1  0.10292060  0.90560846  0.70448378  1
  Zr  Zr27  1  0.89533146  0.89778526  0.69082206  1
  Zr  Zr28  1  0.10145495  0.49915654  0.89756739  1
  Zr  Zr29  1  0.30037496  0.70600442  0.30041009  1
  Zr  Zr30  1  0.90673726  0.89896650  0.89824938  1
  Zr  Zr31  1  0.50335175  0.10089157  0.30221597  1
  Zr  Zr32  1  0.50947060  0.49503724  0.29787345  1
  Zr  Zr33  1  0.10118663  0.69688457  0.69851373  1
  Zr  Zr34  1  0.48708968  0.09845096  0.70208951  1
  Zr  Zr35  1  0.49990877  0.10706601  0.89511314  1
  Zr  Zr36  1  0.68859787  0.30531801  0.89797259  1
  Zr  Zr37  1  0.50649568  0.30699914  0.50535621  1
  Zr  Zr38  1  0.29656573  0.09280449  0.49959213  1
  Zr  Zr39  1  0.08586415  0.30042008  0.70179465  1
  Zr  Zr40  1  0.30224548  0.50404241  0.10158177  1
  Zr  Zr41  1  0.90603239  0.68528440  0.10242685  1
  Zr  Zr42  1  0.69870950  0.10554186  0.90339946  1
  Zr  Zr43  1  0.70051205  0.90739887  0.51402086  1
  Zr  Zr44  1  0.50435275  0.29763698  0.70286386  1
  Zr  Zr45  1  0.09917462  0.50544511  0.49475869  1
  Zr  Zr46  1  0.10006491  0.10085866  0.10459243  1
  Zr  Zr47  1  0.49589280  0.89641809  0.10184684  1
  Zr  Zr48  1  0.10253072  0.70450798  0.90021999  1
  Zr  Zr49  1  0.71115732  0.10062602  0.29471253  1
  Sc  Sc50  1  0.29585346  0.30925850  0.10806528  1
  Sc  Sc51  1  0.30265299  0.50016059  0.90291580  1
  Sc  Sc52  1  0.30019579  0.90990289  0.70124953  1
  Sc  Sc53  1  0.10438378  0.70084981  0.10134309  1
  Sc  Sc54  1  0.50067332  0.50695549  0.68725077  1
  Sc  Sc55  1  0.69781227  0.88335537  0.90273287  1
  Sc  Sc56  1  0.10527191  0.69506691  0.30256318  1
  Sc  Sc57  1  0.10036762  0.50595768  0.30242451  1
  Sc  Sc58  1  0.69808411  0.89533021  0.30774603  1
  Sc  Sc59  1  0.29622756  0.89808328  0.30050413  1
  Sc  Sc60  1  0.49931082  0.70307007  0.10180837  1
  Sc  Sc61  1  0.29706950  0.09842591  0.30873136  1
  Sc  Sc62  1  0.69985022  0.69766468  0.49556571  1
  Sc  Sc63  1  0.50091353  0.68715522  0.90679909  1
  Sc  Sc64  1  0.09746589  0.28919931  0.10636047  1
  Sc  Sc65  1  0.09881262  0.09825721  0.89147603  1
  Sc  Sc66  1  0.89023372  0.30008018  0.29881765  1
  Sc  Sc67  1  0.89901654  0.50207866  0.49177382  1
  Sc  Sc68  1  0.90159392  0.69841760  0.90892749  1
  Sc  Sc69  1  0.10146449  0.51460458  0.10302325  1
  Sc  Sc70  1  0.89074946  0.09638188  0.49473805  1
  Sc  Sc71  1  0.89408973  0.29699839  0.89426239  1
  Sc  Sc72  1  0.49755004  0.50401218  0.09909145  1
  Sc  Sc73  1  0.70229220  0.10859249  0.10175458  1
  Sc  Sc74  1  0.30025042  0.30446597  0.70268705  1
  Sc  Sc75  1  0.69608810  0.49626469  0.49192127  1
  Sc  Sc76  1  0.29397618  0.49787574  0.50300845  1
  Sc  Sc77  1  0.10666180  0.90081038  0.90086760  1
  Sc  Sc78  1  0.90440002  0.70107445  0.49622660  1
  Sc  Sc79  1  0.29482804  0.29790094  0.29786241  1
  Sc  Sc80  1  0.49791922  0.89246550  0.30534424  1
  Sc  Sc81  1  0.11664451  0.90151476  0.09975216  1
  Sc  Sc82  1  0.09603487  0.49631147  0.70184315  1
  Sc  Sc83  1  0.29334543  0.89803208  0.90177558  1
  Sc  Sc84  1  0.10353791  0.30334121  0.89474292  1
  Sc  Sc85  1  0.10768694  0.09836719  0.29999527  1
  Sc  Sc86  1  0.10157179  0.90080245  0.49051237  1
  Sc  Sc87  1  0.69684931  0.09741260  0.49865967  1
  Sc  Sc88  1  0.30340383  0.09710617  0.88367636  1
  Sc  Sc89  1  0.30081515  0.70118244  0.10335389  1
  Sc  Sc90  1  0.51098330  0.30854708  0.10233285  1
  Sc  Sc91  1  0.89621860  0.89523072  0.10039676  1
  Sc  Sc92  1  0.30077797  0.50214031  0.70141154  1
  Sc  Sc93  1  0.89201932  0.50942089  0.29860315  1
  Sc  Sc94  1  0.89482275  0.29256125  0.09914614  1
  Sc  Sc95  1  0.90770659  0.10716287  0.70782987  1
  Sc  Sc96  1  0.09690857  0.30783354  0.49756239  1
  Sc  Sc97  1  0.89493980  0.50638390  0.90293057  1
  Sc  Sc98  1  0.69976959  0.31278863  0.29620527  1
  Sc  Sc99  1  0.90238236  0.10836462  0.89886518  1
  Nb  Nb100  1  0.09907475  0.09837911  0.49704017  1
  Nb  Nb101  1  0.70565717  0.50452096  0.29824103  1
  Nb  Nb102  1  0.30568738  0.70211754  0.69633966  1
  Nb  Nb103  1  0.71296598  0.50027424  0.10111769  1
  Nb  Nb104  1  0.49784293  0.29717236  0.89815537  1
  Nb  Nb105  1  0.70498145  0.31164913  0.69838346  1
  Nb  Nb106  1  0.89901410  0.69901511  0.69678618  1
  Nb  Nb107  1  0.89585085  0.30327998  0.69945028  1
  Nb  Nb108  1  0.69770874  0.69325919  0.70671986  1
  Nb  Nb109  1  0.70795601  0.30655043  0.09720536  1
  Nb  Nb110  1  0.69965524  0.30180497  0.49990241  1
  Nb  Nb111  1  0.49683298  0.89554016  0.50120919  1
  Nb  Nb112  1  0.89795724  0.70339270  0.30493162  1
  Nb  Nb113  1  0.29691610  0.09681891  0.69390612  1
  Nb  Nb114  1  0.70703395  0.50815573  0.71048190  1
  Nb  Nb115  1  0.50188921  0.30270320  0.29848246  1
  Nb  Nb116  1  0.89939647  0.09491418  0.29777508  1
  Nb  Nb117  1  0.69986007  0.69685095  0.10211678  1
  Nb  Nb118  1  0.90062597  0.89970929  0.30265905  1
  Nb  Nb119  1  0.09480263  0.89830920  0.30322110  1
  Nb  Nb120  1  0.49311812  0.69965808  0.68502952  1
  Nb  Nb121  1  0.49140382  0.69892565  0.50624808  1
  Nb  Nb122  1  0.49917686  0.50250381  0.49556843  1
  Nb  Nb123  1  0.90160968  0.49993075  0.10188547  1
  Nb  Nb124  1  0.50657557  0.70240386  0.30431762  1
  Nb  Nb125  1  -0.00320063  0.00286260  0.00834993  1
  Nb  Nb126  1  -0.00086394  0.79673390  0.79319091  1
  Nb  Nb127  1  0.60966012  0.60074493  0.20249161  1
  Nb  Nb128  1  -0.00271280  0.80229664  0.20718853  1
  Nb  Nb129  1  0.60048793  0.20727937  0.40015871  1
  Nb  Nb130  1  0.80241857  -0.00067174  -0.00254519  1
  Nb  Nb131  1  0.79534494  -0.00363741  0.80376021  1
  Nb  Nb132  1  0.80492671  0.79398973  0.20445672  1
  Nb  Nb133  1  0.00247563  0.00319750  0.59431207  1
  Nb  Nb134  1  -0.00595455  0.40488196  0.19474673  1
  Nb  Nb135  1  0.40179536  0.79212862  0.79206977  1
  Nb  Nb136  1  0.40508907  0.19897974  0.19611962  1
  Nb  Nb137  1  -0.00363538  -0.00480431  0.20445988  1
  Nb  Nb138  1  0.20929586  0.19866828  -0.00158199  1
  Nb  Nb139  1  0.19607381  0.19452351  0.60029646  1
  Nb  Nb140  1  -0.00412490  0.19440510  0.39845994  1
  Nb  Nb141  1  0.39819781  0.20391969  0.00139217  1
  Nb  Nb142  1  0.60000701  -0.00119829  0.20025676  1
  Nb  Nb143  1  0.20310095  0.79869679  0.60093036  1
  Nb  Nb144  1  0.40679794  0.40270750  0.39865307  1
  Nb  Nb145  1  0.40875533  0.59858034  0.40059786  1
  Nb  Nb146  1  0.60193924  -0.00323006  0.80053550  1
  Nb  Nb147  1  0.79684766  0.59970029  0.61102963  1
  Nb  Nb148  1  -0.00269781  0.40332971  0.00721131  1
  Nb  Nb149  1  0.79817221  0.21199576  0.60336628  1
  Pd  Pd150  1  0.59330513  0.40952517  0.79194917  1
  Pd  Pd151  1  0.00942518  0.80851681  0.00752222  1
  Pd  Pd152  1  0.20099594  0.59352047  0.79454365  1
  Pd  Pd153  1  0.60029984  0.80168565  0.41232128  1
  Pd  Pd154  1  -0.00095106  0.41021780  0.59802246  1
  Pd  Pd155  1  -0.01084130  0.59126430  0.60007521  1
  Pd  Pd156  1  0.41148089  0.60875490  0.20450962  1
  Pd  Pd157  1  0.60378383  0.78922182  0.59263291  1
  Pd  Pd158  1  0.60622093  0.19901200  0.59736012  1
  Pd  Pd159  1  0.39699495  0.40256426  0.59589363  1
  Pd  Pd160  1  0.80155555  0.79642666  0.00701870  1
  Pd  Pd161  1  0.38991103  0.00531779  -0.00892556  1
  Pd  Pd162  1  0.01024426  0.80692059  0.59901068  1
  Pd  Pd163  1  0.00858007  0.20285277  -0.00830573  1
  Pd  Pd164  1  0.79475260  0.40883125  0.59590003  1
  Pd  Pd165  1  0.19460507  0.39344507  0.60492794  1
  Pd  Pd166  1  0.60948990  0.59931323  0.59728607  1
  Pd  Pd167  1  0.20350413  0.60058817  0.60350196  1
  Pd  Pd168  1  0.60792537  0.41175036  0.60530256  1
  Pd  Pd169  1  0.80718349  0.79446585  0.80474843  1
  Pd  Pd170  1  0.18847126  0.39398011  0.00903602  1
  Pd  Pd171  1  0.40282420  0.39491851  0.00948004  1
  Pd  Pd172  1  0.59526517  0.79278548  -0.00189083  1
  Pd  Pd173  1  0.18500720  0.40490041  0.19636507  1
  Pd  Pd174  1  0.79441637  -0.00571097  0.39983782  1
  Pd  Pd175  1  0.60225542  0.19924855  0.20290471  1
  Pd  Pd176  1  0.79624899  0.78668346  0.59212665  1
  Pd  Pd177  1  0.60724736  0.19603930  0.78937805  1
  Pd  Pd178  1  -0.00433703  0.60566101  0.80466692  1
  Pd  Pd179  1  0.79706855  0.20414692  0.40379019  1
  Pd  Pd180  1  0.39026638  0.20433041  0.60380080  1
  Pd  Pd181  1  0.58780658  0.79152317  0.80425531  1
  Pd  Pd182  1  0.59812671  0.60178146  0.39843768  1
  Pd  Pd183  1  0.58710286  0.59861647  0.79544411  1
  Pd  Pd184  1  0.40909008  0.40839144  0.79290865  1
  Pd  Pd185  1  0.40719510  0.59864522  0.79927271  1
  Pd  Pd186  1  0.39668127  0.79184492  -0.00839432  1
  Pd  Pd187  1  0.60833054  0.40842926  0.19185575  1
  Pd  Pd188  1  0.20255505  0.60385598  0.00074749  1
  Pd  Pd189  1  0.60190666  0.00157381  0.39710887  1
  Pd  Pd190  1  0.59651468  0.20892816  0.00613347  1
  Pd  Pd191  1  -0.00559609  0.19505201  0.58980711  1
  Pd  Pd192  1  0.20495652  0.40444881  0.39337753  1
  Pd  Pd193  1  0.20434036  0.20447131  0.79840425  1
  Pd  Pd194  1  0.80691515  0.39658329  -0.00560502  1
  Pd  Pd195  1  0.40598037  0.20673904  0.39364078  1
  Pd  Pd196  1  0.61038538  -0.00400137  -0.00077101  1
  Pd  Pd197  1  0.40392399  -0.00077212  0.21129466  1
  Pd  Pd198  1  0.79199757  0.19839013  0.79202580  1
  Pd  Pd199  1  -0.00470486  0.39763468  0.38576518  1
  Rh  Rh200  1  0.19465911  0.01159112  -0.00865390  1
  Rh  Rh201  1  0.40234546  0.39177614  0.20316198  1
  Rh  Rh202  1  0.39494108  0.60127789  0.00139737  1
  Rh  Rh203  1  0.60071071  0.39522767  0.39880667  1
  Rh  Rh204  1  0.00622064  0.59225923  -0.00450808  1
  Rh  Rh205  1  -0.00549973  0.39736496  0.81223048  1
  Rh  Rh206  1  0.00103601  0.60151090  0.20781328  1
  Rh  Rh207  1  0.40348961  -0.01017700  0.79875118  1
  Rh  Rh208  1  0.39398347  0.59302955  0.59133254  1
  Rh  Rh209  1  0.21384388  0.19539400  0.19535957  1
  Rh  Rh210  1  0.39287358  0.20771693  0.79985822  1
  Rh  Rh211  1  0.79854403  0.59971675  0.00135976  1
  Rh  Rh212  1  0.79548617  0.21066780  0.20228105  1
  Rh  Rh213  1  0.60340834  0.79702309  0.20259840  1
  Rh  Rh214  1  0.79731640  -0.01111481  0.19611974  1
  Rh  Rh215  1  0.79678725  0.80330037  0.40283196  1
  Rh  Rh216  1  0.20544324  0.79542611  0.00254177  1
  Rh  Rh217  1  -0.00815345  -0.00762555  0.79604072  1
  Rh  Rh218  1  0.20178063  0.60344792  0.20110225  1
  Rh  Rh219  1  0.79675658  0.40486496  0.39671674  1
  Rh  Rh220  1  0.81552347  0.01250801  0.60790171  1
  Rh  Rh221  1  0.79333475  0.20172915  -0.00051388  1
  Rh  Rh222  1  0.19375885  0.80006356  0.20405163  1
  Rh  Rh223  1  0.40194570  -0.00549755  0.39885044  1
  Rh  Rh224  1  0.19290293  -0.00006539  0.59532187  1
  Rh  Rh225  1  0.60542912  0.59374851  0.01365686  1
  Rh  Rh226  1  0.18949886  0.20293232  0.40803870  1
  Rh  Rh227  1  0.79776189  0.39702943  0.80821727  1
  Rh  Rh228  1  0.80762873  0.60846755  0.79926751  1
  Rh  Rh229  1  0.79752451  0.60451498  0.19948064  1
  Rh  Rh230  1  0.20434572  -0.00051627  0.80337080  1
  Rh  Rh231  1  0.40142386  -0.00540387  0.59771319  1
  Rh  Rh232  1  -0.00851092  0.20044221  0.21373986  1
  Rh  Rh233  1  -0.00352115  0.60198004  0.39509372  1
  Rh  Rh234  1  0.20216484  0.80120563  0.79120357  1
  Rh  Rh235  1  0.00547961  0.79255376  0.39423952  1
  Rh  Rh236  1  0.19838426  -0.00386506  0.39567528  1
  Rh  Rh237  1  0.40274893  0.79784708  0.20505866  1
  Rh  Rh238  1  0.00014054  0.20813894  0.80492673  1
  Rh  Rh239  1  0.21195716  0.59464427  0.39619498  1
  Rh  Rh240  1  0.60350203  0.40260240  0.00552296  1
  Rh  Rh241  1  0.80211607  0.60031386  0.40949123  1
  Rh  Rh242  1  0.40499644  0.79434307  0.39757816  1
  Rh  Rh243  1  0.80466294  0.40106678  0.19982713  1
  Rh  Rh244  1  0.58844687  0.00116451  0.60160121  1
  Rh  Rh245  1  0.00043577  0.00852197  0.39776058  1
  Rh  Rh246  1  0.19547569  -0.00572381  0.21021308  1
  Rh  Rh247  1  0.39200410  0.80892791  0.60315602  1
  Rh  Rh248  1  0.19555083  0.80142933  0.40233359  1
  Rh  Rh249  1  0.19940065  0.40393986  0.79464615  1
