# generated using pymatgen
data_ZrScNbPdRh
_symmetry_space_group_name_H-M   'P 1'
_cell_length_a   16.55921912
_cell_length_b   16.56328067
_cell_length_c   16.55924546
_cell_angle_alpha   89.96896394
_cell_angle_beta   89.98573383
_cell_angle_gamma   90.01577094
_symmetry_Int_Tables_number   1
_chemical_formula_structural   ZrScNbPdRh
_chemical_formula_sum   'Zr50 Sc50 Nb50 Pd50 Rh50'
_cell_volume   4541.78596863
_cell_formula_units_Z   50
loop_
 _symmetry_equiv_pos_site_id
 _symmetry_equiv_pos_as_xyz
  1  'x, y, z'
loop_
 _atom_site_type_symbol
 _atom_site_label
 _atom_site_symmetry_multiplicity
 _atom_site_fract_x
 _atom_site_fract_y
 _atom_site_fract_z
 _atom_site_occupancy
  Zr  Zr0  1  0.69865320  0.49460064  0.30536195  1
  Zr  Zr1  1  0.29341025  0.90610157  0.49631254  1
  Zr  Zr2  1  0.90361698  0.89603223  0.90603857  1
  Zr  Zr3  1  0.89856462  0.70202018  0.49497739  1
  Zr  Zr4  1  0.09510182  0.50399273  0.30368867  1
  Zr  Zr5  1  0.89444292  0.30241995  0.90060873  1
  Zr  Zr6  1  0.29489771  0.89966471  0.30293270  1
  Zr  Zr7  1  0.08748989  0.10852677  0.09354012  1
  Zr  Zr8  1  0.51037901  0.50224718  0.29822424  1
  Zr  Zr9  1  0.29935712  0.71189991  0.29602444  1
  Zr  Zr10  1  0.29290904  0.11211292  0.50414606  1
  Zr  Zr11  1  0.10046685  0.69589781  0.50174062  1
  Zr  Zr12  1  0.30869060  0.90643297  0.89635261  1
  Zr  Zr13  1  0.50267502  0.30831449  0.70102685  1
  Zr  Zr14  1  0.70525267  0.69490731  0.10255906  1
  Zr  Zr15  1  0.10089902  0.28970601  0.90516153  1
  Zr  Zr16  1  0.89918733  0.50872606  0.30245129  1
  Zr  Zr17  1  0.29540668  0.50093163  0.50721467  1
  Zr  Zr18  1  0.71328986  0.90371092  0.10032158  1
  Zr  Zr19  1  0.30330036  0.71211742  0.50295907  1
  Zr  Zr20  1  0.70518191  0.69684060  0.50267918  1
  Zr  Zr21  1  0.70562411  0.49130605  0.70384647  1
  Zr  Zr22  1  0.91747686  0.10089626  0.49739810  1
  Zr  Zr23  1  0.50541757  0.10248037  0.28977737  1
  Zr  Zr24  1  0.70926377  0.50080798  0.49343422  1
  Zr  Zr25  1  0.09781112  0.31016137  0.70145790  1
  Zr  Zr26  1  0.69885727  0.90532903  0.29399570  1
  Zr  Zr27  1  0.70349857  0.30414254  0.49831787  1
  Zr  Zr28  1  0.29051407  0.48427583  0.69708176  1
  Zr  Zr29  1  0.70050522  0.69707018  0.70524055  1
  Zr  Zr30  1  0.50332645  0.69722924  0.89880803  1
  Zr  Zr31  1  0.90150781  0.50640079  0.09808665  1
  Zr  Zr32  1  0.70431241  0.29599780  0.09031317  1
  Zr  Zr33  1  0.70549921  0.70039925  0.89215392  1
  Zr  Zr34  1  0.49596168  0.70546802  0.70426281  1
  Zr  Zr35  1  0.70215990  0.10245451  0.29959594  1
  Zr  Zr36  1  0.51068767  0.49440582  0.49506107  1
  Zr  Zr37  1  0.49700729  0.90333222  0.50315154  1
  Zr  Zr38  1  0.90547994  0.69593281  0.90327323  1
  Zr  Zr39  1  0.90472535  0.10872208  0.69414711  1
  Zr  Zr40  1  0.50306991  0.90995295  0.09830464  1
  Zr  Zr41  1  0.70124623  0.90116337  0.90110409  1
  Zr  Zr42  1  0.69587664  0.90095929  0.49722301  1
  Zr  Zr43  1  0.49066474  0.29703476  0.50502137  1
  Zr  Zr44  1  0.69907659  0.30705859  0.89325001  1
  Zr  Zr45  1  0.50289262  0.90376606  0.89662888  1
  Zr  Zr46  1  0.50237301  0.29769652  0.90188125  1
  Zr  Zr47  1  0.48637622  0.09074833  0.90416416  1
  Zr  Zr48  1  0.49896310  0.09726950  0.69860270  1
  Zr  Zr49  1  0.09318052  0.89489786  0.90606425  1
  Sc  Sc50  1  0.50067199  0.10268285  0.09647510  1
  Sc  Sc51  1  0.29476218  0.70616213  0.69807366  1
  Sc  Sc52  1  0.10448034  0.89373972  0.30429230  1
  Sc  Sc53  1  0.29904150  0.89665370  0.69873314  1
  Sc  Sc54  1  0.29571820  0.30511686  0.90321041  1
  Sc  Sc55  1  0.09094189  0.70044342  0.29945234  1
  Sc  Sc56  1  0.70191534  0.29677194  0.29394054  1
  Sc  Sc57  1  0.29835888  0.30340080  0.10024979  1
  Sc  Sc58  1  0.09253226  0.10895478  0.30860125  1
  Sc  Sc59  1  0.50488502  0.50665871  0.09711970  1
  Sc  Sc60  1  0.30151291  0.10141456  0.29883761  1
  Sc  Sc61  1  0.90183013  0.29583102  0.51361724  1
  Sc  Sc62  1  0.29417765  0.29246521  0.29525884  1
  Sc  Sc63  1  0.10135716  0.70828017  0.09581471  1
  Sc  Sc64  1  0.70346427  0.49950942  0.90251479  1
  Sc  Sc65  1  0.89203959  0.10379651  0.09764458  1
  Sc  Sc66  1  0.70058038  0.49371231  0.10160351  1
  Sc  Sc67  1  0.29540382  0.70159939  0.90470805  1
  Sc  Sc68  1  0.09464419  0.70195446  0.69892705  1
  Sc  Sc69  1  0.69452686  0.10325492  0.90256865  1
  Sc  Sc70  1  0.49335168  0.90148286  0.71012648  1
  Sc  Sc71  1  0.10380447  0.30350860  0.10213119  1
  Sc  Sc72  1  0.50775390  0.29465066  0.30058816  1
  Sc  Sc73  1  0.09812229  0.09936401  0.70243269  1
  Sc  Sc74  1  0.89664675  0.29522130  0.09907510  1
  Sc  Sc75  1  0.10629089  0.49928999  0.10267317  1
  Sc  Sc76  1  0.70922441  0.68880260  0.29976857  1
  Sc  Sc77  1  0.89645505  0.28609916  0.29988040  1
  Sc  Sc78  1  0.49155573  0.90777756  0.29799771  1
  Sc  Sc79  1  0.28693448  0.09998351  0.70023554  1
  Sc  Sc80  1  0.69851761  0.10126397  0.70362541  1
  Sc  Sc81  1  0.30004689  0.69622900  0.10479211  1
  Sc  Sc82  1  0.89878810  0.88623357  0.29610223  1
  Sc  Sc83  1  0.50404538  0.49109387  0.90216417  1
  Sc  Sc84  1  0.09267862  0.49523127  0.90705172  1
  Sc  Sc85  1  0.10108326  0.90268360  0.70172205  1
  Sc  Sc86  1  0.31307815  0.10837218  0.09676235  1
  Sc  Sc87  1  0.29889718  0.88974935  0.10810872  1
  Sc  Sc88  1  0.29175357  0.50291085  0.28860475  1
  Sc  Sc89  1  0.49907989  0.29430547  0.09771423  1
  Sc  Sc90  1  0.68754736  0.90474945  0.70247108  1
  Sc  Sc91  1  0.91188846  0.89933017  0.69683356  1
  Sc  Sc92  1  0.09593117  0.50179671  0.51808009  1
  Sc  Sc93  1  0.70037148  0.09588430  0.10330563  1
  Sc  Sc94  1  0.29468669  0.49963889  0.09247215  1
  Sc  Sc95  1  0.10230257  0.29380616  0.29336457  1
  Sc  Sc96  1  0.09504311  0.90890225  0.49989502  1
  Sc  Sc97  1  0.91523940  0.10516477  0.90377747  1
  Sc  Sc98  1  0.50292990  0.10096827  0.49175022  1
  Sc  Sc99  1  0.89941120  0.70105958  0.70223563  1
  Nb  Nb100  1  0.09783767  0.10671960  0.50430119  1
  Nb  Nb101  1  0.09510261  0.70362533  0.89633645  1
  Nb  Nb102  1  0.49601013  0.49799349  0.69760466  1
  Nb  Nb103  1  0.10026145  0.50294959  0.69983111  1
  Nb  Nb104  1  0.49946313  0.69881391  0.49889820  1
  Nb  Nb105  1  0.90228114  0.49666913  0.50056906  1
  Nb  Nb106  1  0.09649800  0.90532050  0.09497554  1
  Nb  Nb107  1  0.69413033  0.09078977  0.50095986  1
  Nb  Nb108  1  0.10134673  0.28906268  0.49263970  1
  Nb  Nb109  1  0.90452828  0.90045408  0.09830557  1
  Nb  Nb110  1  0.89965281  0.09760029  0.29633032  1
  Nb  Nb111  1  0.30507453  0.29774872  0.69178613  1
  Nb  Nb112  1  0.89019857  0.30505130  0.70024006  1
  Nb  Nb113  1  0.90424264  0.69204097  0.29128541  1
  Nb  Nb114  1  0.89408161  0.90238233  0.50025969  1
  Nb  Nb115  1  0.91466634  0.48162488  0.69349644  1
  Nb  Nb116  1  0.10935915  0.10116308  0.89984421  1
  Nb  Nb117  1  0.50172705  0.70074592  0.10448377  1
  Nb  Nb118  1  0.70987820  0.29759268  0.70142373  1
  Nb  Nb119  1  0.29555848  0.10366347  0.89690384  1
  Nb  Nb120  1  0.29818593  0.50241663  0.89914546  1
  Nb  Nb121  1  0.89893698  0.70290111  0.11423414  1
  Nb  Nb122  1  0.50204356  0.69483010  0.29521602  1
  Nb  Nb123  1  0.90115171  0.49841729  0.90107320  1
  Nb  Nb124  1  0.29655060  0.30264934  0.50718149  1
  Nb  Nb125  1  -0.00286334  0.40264750  0.20712052  1
  Nb  Nb126  1  0.39969607  0.60044615  0.39996879  1
  Nb  Nb127  1  0.19793530  0.00403459  -0.00035610  1
  Nb  Nb128  1  0.59663689  0.79380292  0.59524097  1
  Nb  Nb129  1  0.41000806  0.79829662  0.00318846  1
  Nb  Nb130  1  0.59772001  0.59888987  0.60272782  1
  Nb  Nb131  1  0.60071826  0.79729227  0.00510509  1
  Nb  Nb132  1  0.59605852  0.79384272  0.39596343  1
  Nb  Nb133  1  0.39247363  0.40281203  0.39735680  1
  Nb  Nb134  1  0.60579129  0.20336202  0.60110779  1
  Nb  Nb135  1  0.40182958  0.40234530  0.20546236  1
  Nb  Nb136  1  0.20428386  0.59990896  0.40383145  1
  Nb  Nb137  1  0.18926413  0.00224292  0.19144653  1
  Nb  Nb138  1  0.80277709  0.00065375  0.59634788  1
  Nb  Nb139  1  0.39236340  0.20240913  0.79762387  1
  Nb  Nb140  1  0.39406262  0.00383560  0.59609879  1
  Nb  Nb141  1  0.39217106  0.59038696  0.79733733  1
  Nb  Nb142  1  0.19570121  0.59421824  0.80073907  1
  Nb  Nb143  1  0.59788184  0.79582455  0.19991579  1
  Nb  Nb144  1  0.19791056  0.39908375  0.40543624  1
  Nb  Nb145  1  0.80538669  0.00143973  0.40351349  1
  Nb  Nb146  1  -0.00096663  -0.00238952  0.19605469  1
  Nb  Nb147  1  0.40511030  0.59746961  0.60125008  1
  Nb  Nb148  1  0.00221722  0.39776856  0.40334620  1
  Nb  Nb149  1  0.80682789  0.00176170  0.79727431  1
  Pd  Pd150  1  0.39799084  0.39778648  0.80517073  1
  Pd  Pd151  1  0.19420773  0.40052948  0.80931044  1
  Pd  Pd152  1  0.79592809  0.79948208  0.39036579  1
  Pd  Pd153  1  0.19845188  0.79631716  0.80231688  1
  Pd  Pd154  1  0.19800128  -0.00523255  0.80349738  1
  Pd  Pd155  1  -0.00318110  -0.00792942  0.38860778  1
  Pd  Pd156  1  -0.00185516  0.00138535  0.80112799  1
  Pd  Pd157  1  0.00053358  0.20481339  0.79709752  1
  Pd  Pd158  1  0.00268582  0.80196457  0.59625616  1
  Pd  Pd159  1  0.39849877  0.59349574  0.20175511  1
  Pd  Pd160  1  0.00618521  0.80426236  0.19651854  1
  Pd  Pd161  1  0.79414946  0.81098658  0.61096090  1
  Pd  Pd162  1  0.00038842  0.39821654  0.80807639  1
  Pd  Pd163  1  -0.00111760  0.39468933  0.01033486  1
  Pd  Pd164  1  0.39753012  0.01059220  0.40352297  1
  Pd  Pd165  1  0.00222677  0.59694921  0.79703459  1
  Pd  Pd166  1  0.60373074  0.20321666  0.40591198  1
  Pd  Pd167  1  -0.01043332  0.60309319  0.60365250  1
  Pd  Pd168  1  0.59515974  0.39324378  0.19233370  1
  Pd  Pd169  1  0.79329384  0.19031588  0.59288977  1
  Pd  Pd170  1  0.19219798  0.60160820  -0.00762406  1
  Pd  Pd171  1  0.38880163  0.00141495  0.19552079  1
  Pd  Pd172  1  0.00673928  0.60511325  0.00669740  1
  Pd  Pd173  1  0.80275248  0.79343819  0.00259992  1
  Pd  Pd174  1  0.19296537  0.01215753  0.39459912  1
  Pd  Pd175  1  0.20657470  0.19736145  0.00786948  1
  Pd  Pd176  1  0.59344152  0.58840965  0.79762561  1
  Pd  Pd177  1  0.40077151  0.40052398  0.00833443  1
  Pd  Pd178  1  0.20046211  0.18978299  0.19373612  1
  Pd  Pd179  1  0.19061383  0.80839510  0.59860422  1
  Pd  Pd180  1  0.60574447  0.60056240  -0.00064552  1
  Pd  Pd181  1  0.39960357  0.60310050  -0.00450169  1
  Pd  Pd182  1  0.19017701  0.20416322  0.60941241  1
  Pd  Pd183  1  0.40803076  0.79876225  0.39323020  1
  Pd  Pd184  1  0.80527515  0.81178545  0.79142920  1
  Pd  Pd185  1  0.80770459  0.39896790  0.20070685  1
  Pd  Pd186  1  0.81555262  0.58802820  0.79396657  1
  Pd  Pd187  1  0.81279092  0.39101676  0.39750768  1
  Pd  Pd188  1  0.80305240  0.19114232  0.80705101  1
  Pd  Pd189  1  0.59911059  0.19458720  0.00019787  1
  Pd  Pd190  1  0.00020756  0.80163341  0.40228218  1
  Pd  Pd191  1  0.60894187  0.39888415  0.60150481  1
  Pd  Pd192  1  0.80688823  0.59128245  0.60784754  1
  Pd  Pd193  1  0.59388419  0.19792937  0.79615986  1
  Pd  Pd194  1  0.79965717  0.59808538  0.00029594  1
  Pd  Pd195  1  0.19299128  0.60868389  0.20316807  1
  Pd  Pd196  1  0.80328069  0.19224971  0.40890846  1
  Pd  Pd197  1  0.20784214  0.80593119  0.00014132  1
  Pd  Pd198  1  0.80590448  0.01087375  -0.00986057  1
  Pd  Pd199  1  0.39535444  0.20418072  0.39397705  1
  Rh  Rh200  1  0.60025435  0.00045277  0.19849402  1
  Rh  Rh201  1  0.19003298  0.79171265  0.40333643  1
  Rh  Rh202  1  0.00184758  0.00392884  0.00139126  1
  Rh  Rh203  1  0.60612664  -0.00157216  0.00118868  1
  Rh  Rh204  1  0.40432112  0.20894192  0.20241098  1
  Rh  Rh205  1  0.19265995  0.80332709  0.19864750  1
  Rh  Rh206  1  0.60282846  0.40210992  0.79877794  1
  Rh  Rh207  1  0.60147377  0.39886884  0.00242085  1
  Rh  Rh208  1  0.60444944  0.20017888  0.19247930  1
  Rh  Rh209  1  -0.00028888  0.59753331  0.40979808  1
  Rh  Rh210  1  0.00498037  0.39122896  0.59352462  1
  Rh  Rh211  1  0.81179499  -0.00052589  0.20627039  1
  Rh  Rh212  1  0.59889763  0.38795986  0.39756142  1
  Rh  Rh213  1  0.80763959  0.40589913  0.80253291  1
  Rh  Rh214  1  0.00500037  0.59855407  0.18899729  1
  Rh  Rh215  1  0.00064867  0.79802188  0.79969360  1
  Rh  Rh216  1  0.80098996  0.40396463  0.60004806  1
  Rh  Rh217  1  -0.00504737  0.20056489  0.19886571  1
  Rh  Rh218  1  0.79750102  0.19773540  -0.00591038  1
  Rh  Rh219  1  0.20328356  0.20874085  0.79614722  1
  Rh  Rh220  1  0.40525756  0.19296796  0.60677544  1
  Rh  Rh221  1  0.59938930  0.60746000  0.40383448  1
  Rh  Rh222  1  0.80849085  0.60266788  0.40029204  1
  Rh  Rh223  1  0.60076991  -0.00342326  0.38942467  1
  Rh  Rh224  1  0.39618011  0.20585207  -0.01073544  1
  Rh  Rh225  1  0.60693579  0.00411366  0.80459927  1
  Rh  Rh226  1  0.19971327  0.00119654  0.59696649  1
  Rh  Rh227  1  0.20570961  0.60607494  0.60777117  1
  Rh  Rh228  1  0.20271298  0.20157644  0.39926395  1
  Rh  Rh229  1  0.00092403  -0.00046923  0.60031575  1
  Rh  Rh230  1  0.40474790  0.80755142  0.60294436  1
  Rh  Rh231  1  0.79883835  0.79692855  0.20222470  1
  Rh  Rh232  1  0.59431827  0.00081151  0.60368983  1
  Rh  Rh233  1  0.00734798  0.20923305  0.60854734  1
  Rh  Rh234  1  0.39317264  0.78983067  0.81006035  1
  Rh  Rh235  1  0.40741174  0.80125194  0.19632512  1
  Rh  Rh236  1  0.18857941  0.38994900  0.59356813  1
  Rh  Rh237  1  0.79619875  0.59163878  0.19952161  1
  Rh  Rh238  1  0.60231212  0.80365254  0.80152457  1
  Rh  Rh239  1  -0.00341591  0.20804339  0.00084867  1
  Rh  Rh240  1  -0.00311658  0.20625390  0.39706353  1
  Rh  Rh241  1  0.60798579  0.60050101  0.19818912  1
  Rh  Rh242  1  0.38758976  -0.00610502  0.00775657  1
  Rh  Rh243  1  0.38883641  0.01169772  0.78719399  1
  Rh  Rh244  1  -0.00699681  0.79032747  0.00722473  1
  Rh  Rh245  1  0.79674938  0.19774298  0.19521419  1
  Rh  Rh246  1  0.80249414  0.40448595  -0.00298160  1
  Rh  Rh247  1  0.19974764  0.39821788  0.20393693  1
  Rh  Rh248  1  0.40117589  0.40469616  0.59337876  1
  Rh  Rh249  1  0.19825988  0.40128230  -0.00268087  1
