# generated using pymatgen
data_ZrScNbPdRh
_symmetry_space_group_name_H-M   'P 1'
_cell_length_a   16.56392866
_cell_length_b   16.55738363
_cell_length_c   16.56238446
_cell_angle_alpha   90.01694191
_cell_angle_beta   89.95894920
_cell_angle_gamma   89.98340307
_symmetry_Int_Tables_number   1
_chemical_formula_structural   ZrScNbPdRh
_chemical_formula_sum   'Zr50 Sc50 Nb50 Pd50 Rh50'
_cell_volume   4542.32051425
_cell_formula_units_Z   50
loop_
 _symmetry_equiv_pos_site_id
 _symmetry_equiv_pos_as_xyz
  1  'x, y, z'
loop_
 _atom_site_type_symbol
 _atom_site_label
 _atom_site_symmetry_multiplicity
 _atom_site_fract_x
 _atom_site_fract_y
 _atom_site_fract_z
 _atom_site_occupancy
  Zr  Zr0  1  0.31207774  0.89891834  0.10126166  1
  Zr  Zr1  1  0.69108485  0.30281588  0.89769662  1
  Zr  Zr2  1  0.69368102  0.49735241  0.89769511  1
  Zr  Zr3  1  0.90180241  0.09988942  0.50489596  1
  Zr  Zr4  1  0.09546002  0.89830507  0.89052574  1
  Zr  Zr5  1  0.31000655  0.50279160  0.10380239  1
  Zr  Zr6  1  0.49491223  0.89664263  0.49743746  1
  Zr  Zr7  1  0.89984368  0.09968971  0.10329345  1
  Zr  Zr8  1  0.89786268  0.31073635  0.50320019  1
  Zr  Zr9  1  0.30096830  0.30764180  0.10206084  1
  Zr  Zr10  1  0.29797956  0.69128360  0.10049443  1
  Zr  Zr11  1  0.30393876  0.89057364  0.30573789  1
  Zr  Zr12  1  0.69912265  0.51198787  0.29687057  1
  Zr  Zr13  1  0.69767523  0.10483736  0.30270442  1
  Zr  Zr14  1  0.10007228  0.09616384  0.49983756  1
  Zr  Zr15  1  0.69447595  0.69716640  0.90623982  1
  Zr  Zr16  1  0.70237878  0.09530753  0.49733671  1
  Zr  Zr17  1  0.69449711  0.09800898  0.69281095  1
  Zr  Zr18  1  0.69335651  0.88649443  0.30041233  1
  Zr  Zr19  1  0.89971097  0.30416885  0.29313388  1
  Zr  Zr20  1  0.29673054  0.69240596  0.30005675  1
  Zr  Zr21  1  0.90467739  0.69530163  0.49547154  1
  Zr  Zr22  1  0.70274953  0.09361407  0.10032367  1
  Zr  Zr23  1  0.69952999  0.69609418  0.49065952  1
  Zr  Zr24  1  0.29636935  0.30660972  0.30008053  1
  Zr  Zr25  1  0.90241569  0.69788804  0.90059718  1
  Zr  Zr26  1  0.30579981  0.89568947  0.90078541  1
  Zr  Zr27  1  0.10634167  0.89821017  0.69236140  1
  Zr  Zr28  1  0.30109722  0.09820791  0.90529302  1
  Zr  Zr29  1  0.69187952  0.10162813  0.90436379  1
  Zr  Zr30  1  0.49918172  0.69871653  0.69715600  1
  Zr  Zr31  1  0.10409062  0.49934875  0.30901819  1
  Zr  Zr32  1  0.49759204  0.88831350  0.69640895  1
  Zr  Zr33  1  0.88777164  0.90027794  0.10016349  1
  Zr  Zr34  1  0.50346285  0.30584502  0.10838755  1
  Zr  Zr35  1  0.89395746  0.69370192  0.09809769  1
  Zr  Zr36  1  0.29457599  0.49984336  0.48420064  1
  Zr  Zr37  1  0.49331928  0.30097079  0.49684854  1
  Zr  Zr38  1  0.08718793  0.50738009  0.50308967  1
  Zr  Zr39  1  0.69547432  0.89747150  0.69418843  1
  Zr  Zr40  1  0.30648332  0.70710327  0.70321572  1
  Zr  Zr41  1  0.90603073  0.29878276  0.10278538  1
  Zr  Zr42  1  0.10321524  0.90334573  0.31365364  1
  Zr  Zr43  1  0.29687231  0.50109299  0.70804322  1
  Zr  Zr44  1  0.10375974  0.50881404  0.89151433  1
  Zr  Zr45  1  0.90108869  0.09414124  0.89908006  1
  Zr  Zr46  1  0.89714641  0.49016706  0.68854287  1
  Zr  Zr47  1  0.10287546  0.69642710  0.71006606  1
  Zr  Zr48  1  0.50336020  0.10569707  0.10227921  1
  Zr  Zr49  1  0.50325705  0.30640882  0.90147423  1
  Sc  Sc50  1  0.50828901  0.10357884  0.50149294  1
  Sc  Sc51  1  0.09372389  0.29932612  0.71257933  1
  Sc  Sc52  1  0.49602234  0.50448729  0.70677419  1
  Sc  Sc53  1  0.31093603  0.69805900  0.49618574  1
  Sc  Sc54  1  0.30261436  0.30547331  0.70218076  1
  Sc  Sc55  1  0.31294856  0.10334447  0.10271106  1
  Sc  Sc56  1  0.90965453  0.70654301  0.69476358  1
  Sc  Sc57  1  0.09521233  0.70149740  0.50685219  1
  Sc  Sc58  1  0.70046513  0.69634124  0.10431956  1
  Sc  Sc59  1  0.09554964  0.10596737  0.88792718  1
  Sc  Sc60  1  0.69585694  0.50271448  0.09953789  1
  Sc  Sc61  1  0.50669209  0.70669193  0.30483879  1
  Sc  Sc62  1  0.90974977  0.89278167  0.29584640  1
  Sc  Sc63  1  0.91360046  0.09939018  0.69828550  1
  Sc  Sc64  1  0.69715084  0.49433757  0.70154935  1
  Sc  Sc65  1  0.50179825  0.49492238  0.29328586  1
  Sc  Sc66  1  0.50292710  0.10570400  0.29288420  1
  Sc  Sc67  1  0.50522901  0.10927616  0.90885047  1
  Sc  Sc68  1  0.10995478  0.50004715  0.08985224  1
  Sc  Sc69  1  0.89822207  0.89790115  0.89952639  1
  Sc  Sc70  1  0.89556622  0.70102776  0.30538206  1
  Sc  Sc71  1  0.50004592  0.69615479  0.89745312  1
  Sc  Sc72  1  0.49312245  0.50511028  0.49172282  1
  Sc  Sc73  1  0.69715566  0.89495743  0.91510745  1
  Sc  Sc74  1  0.90614382  0.90382553  0.69772884  1
  Sc  Sc75  1  0.30093788  0.10204373  0.69248353  1
  Sc  Sc76  1  0.90037065  0.30179509  0.70174487  1
  Sc  Sc77  1  0.30367701  0.49513050  0.90613243  1
  Sc  Sc78  1  0.50125183  0.10790367  0.69005829  1
  Sc  Sc79  1  0.90478995  0.30606018  0.89767542  1
  Sc  Sc80  1  0.88979393  0.49512410  0.10267413  1
  Sc  Sc81  1  0.70276942  0.49763277  0.49054909  1
  Sc  Sc82  1  0.68452994  0.70061035  0.69236733  1
  Sc  Sc83  1  0.69830836  0.30780178  0.70396075  1
  Sc  Sc84  1  0.29825084  0.10213623  0.50310479  1
  Sc  Sc85  1  0.09143095  0.89338625  0.12222579  1
  Sc  Sc86  1  0.09819512  0.30729651  0.89931323  1
  Sc  Sc87  1  0.69855406  0.29868741  0.48671636  1
  Sc  Sc88  1  0.49517692  0.30141685  0.69858831  1
  Sc  Sc89  1  0.30070630  0.30533853  0.49955396  1
  Sc  Sc90  1  0.09587962  0.71281333  0.29907211  1
  Sc  Sc91  1  0.90385928  0.90256140  0.50130496  1
  Sc  Sc92  1  0.10835913  0.29707307  0.28940405  1
  Sc  Sc93  1  0.50176110  0.88350433  0.90969243  1
  Sc  Sc94  1  0.50167312  0.50038905  0.90272217  1
  Sc  Sc95  1  0.70007108  0.90465780  0.50327200  1
  Sc  Sc96  1  0.69321704  0.30046279  0.29450222  1
  Sc  Sc97  1  0.89675995  0.49958756  0.90307149  1
  Sc  Sc98  1  0.89178868  0.09713620  0.29723122  1
  Sc  Sc99  1  0.09862837  0.30130161  0.49476898  1
  Nb  Nb100  1  0.69517894  0.89404285  0.09897388  1
  Nb  Nb101  1  0.29677211  0.90295911  0.50948741  1
  Nb  Nb102  1  0.11329567  0.10628078  0.30310660  1
  Nb  Nb103  1  0.09774749  0.10191097  0.69629975  1
  Nb  Nb104  1  0.30003542  0.30123865  0.89704874  1
  Nb  Nb105  1  0.70129519  0.69435763  0.30300039  1
  Nb  Nb106  1  0.90166967  0.50226398  0.49392515  1
  Nb  Nb107  1  0.90654893  0.50474315  0.30447645  1
  Nb  Nb108  1  0.50189253  0.69853802  0.50704648  1
  Nb  Nb109  1  0.29665701  0.10795558  0.30180609  1
  Nb  Nb110  1  0.30057133  0.70563554  0.90798928  1
  Nb  Nb111  1  0.09896904  0.70005078  0.90546546  1
  Nb  Nb112  1  0.49775607  0.50061766  0.09556110  1
  Nb  Nb113  1  0.70400125  0.30074698  0.10071536  1
  Nb  Nb114  1  0.09944989  0.69588992  0.09836467  1
  Nb  Nb115  1  0.29895892  0.49735054  0.30166758  1
  Nb  Nb116  1  0.30317038  0.90304526  0.69586254  1
  Nb  Nb117  1  0.49668782  0.89725306  0.29568267  1
  Nb  Nb118  1  0.10586311  0.50603809  0.69777742  1
  Nb  Nb119  1  0.50015499  0.29708760  0.29739523  1
  Nb  Nb120  1  0.10248974  0.10482586  0.10438143  1
  Nb  Nb121  1  0.50306408  0.88947468  0.10978966  1
  Nb  Nb122  1  0.10099365  0.29006430  0.09868755  1
  Nb  Nb123  1  0.10874181  0.90458651  0.49922417  1
  Nb  Nb124  1  0.49772805  0.69572051  0.09407895  1
  Nb  Nb125  1  0.80351441  0.59684965  0.59693520  1
  Nb  Nb126  1  0.00511372  0.79761615  0.00339291  1
  Nb  Nb127  1  0.79662605  0.19467233  0.80069983  1
  Nb  Nb128  1  0.00750930  -0.00232362  0.00761650  1
  Nb  Nb129  1  0.79058809  -0.00078335  0.79912495  1
  Nb  Nb130  1  0.19292553  0.20408161  0.60392551  1
  Nb  Nb131  1  0.79792651  0.60424904  0.79278619  1
  Nb  Nb132  1  0.20610109  -0.00161061  0.79599634  1
  Nb  Nb133  1  0.59524161  0.40158214  0.59334354  1
  Nb  Nb134  1  0.19419768  0.40619667  0.60402812  1
  Nb  Nb135  1  0.19784541  0.19968559  0.00235026  1
  Nb  Nb136  1  0.40320423  -0.00002692  0.79854711  1
  Nb  Nb137  1  0.39734859  0.19765539  0.80508286  1
  Nb  Nb138  1  0.79986903  0.20059085  0.60126870  1
  Nb  Nb139  1  0.39850400  0.19936095  0.39391100  1
  Nb  Nb140  1  0.59550452  -0.00357520  0.80045570  1
  Nb  Nb141  1  0.00148192  0.19716188  0.39568806  1
  Nb  Nb142  1  0.59810463  -0.01225134  0.19878978  1
  Nb  Nb143  1  0.19121505  -0.00137207  0.00580214  1
  Nb  Nb144  1  0.20290585  0.00621359  0.20338653  1
  Nb  Nb145  1  0.79897638  0.20250718  -0.00104971  1
  Nb  Nb146  1  0.00042165  0.59741076  0.20058870  1
  Nb  Nb147  1  0.19335307  0.79928400  0.00262788  1
  Nb  Nb148  1  0.39806360  0.00041780  0.39492737  1
  Nb  Nb149  1  0.79465961  0.79843933  0.79808945  1
  Pd  Pd150  1  0.80321750  -0.01194697  0.39318228  1
  Pd  Pd151  1  0.59099986  0.00090838  0.39181555  1
  Pd  Pd152  1  0.00421851  0.40661944  0.00397340  1
  Pd  Pd153  1  0.40940330  0.60240393  0.38975915  1
  Pd  Pd154  1  0.40965863  0.60216810  0.20864933  1
  Pd  Pd155  1  -0.01031816  0.59341435  0.79263625  1
  Pd  Pd156  1  0.20801391  0.60113452  0.59505871  1
  Pd  Pd157  1  0.20545676  0.19800483  0.79837804  1
  Pd  Pd158  1  0.19066301  0.59446217  0.20328741  1
  Pd  Pd159  1  0.21195005  0.60597898  0.80953377  1
  Pd  Pd160  1  0.60877571  0.21504970  0.59762880  1
  Pd  Pd161  1  0.01038856  0.39439396  0.60434068  1
  Pd  Pd162  1  0.19466071  0.40711360  0.19607793  1
  Pd  Pd163  1  0.00102604  0.19607983  -0.00657187  1
  Pd  Pd164  1  0.59597695  0.40346872  0.39886253  1
  Pd  Pd165  1  0.40170705  0.00435713  0.20828083  1
  Pd  Pd166  1  0.60555149  0.58743667  0.59419915  1
  Pd  Pd167  1  0.80006330  0.79209870  0.60238097  1
  Pd  Pd168  1  -0.00384787  0.00610408  0.39475414  1
  Pd  Pd169  1  0.40136020  0.78443375  0.20106480  1
  Pd  Pd170  1  0.80385577  0.80677295  0.40299158  1
  Pd  Pd171  1  0.78990503  -0.00872682  0.21046404  1
  Pd  Pd172  1  -0.00017951  0.40963100  0.79844222  1
  Pd  Pd173  1  0.39548359  0.60262309  0.81073777  1
  Pd  Pd174  1  0.20127010  0.79184047  0.41144866  1
  Pd  Pd175  1  0.18975568  0.61146351  0.40375888  1
  Pd  Pd176  1  0.40585338  0.00535803  0.59688813  1
  Pd  Pd177  1  0.01090450  0.40958550  0.19220412  1
  Pd  Pd178  1  0.20567238  0.79087220  0.59411386  1
  Pd  Pd179  1  0.00475505  0.39056028  0.39362524  1
  Pd  Pd180  1  0.00021091  0.19345156  0.21063244  1
  Pd  Pd181  1  0.79792524  0.40375069  0.38949089  1
  Pd  Pd182  1  0.39458022  0.59287902  0.59840446  1
  Pd  Pd183  1  0.79834493  0.79351354  0.20297547  1
  Pd  Pd184  1  -0.00219586  0.59420015  0.00736353  1
  Pd  Pd185  1  0.58862449  -0.00800924  0.00290129  1
  Pd  Pd186  1  0.79356232  0.40536232  0.20650462  1
  Pd  Pd187  1  0.59246585  0.60574036  0.19774972  1
  Pd  Pd188  1  0.59713302  0.79820819  0.40637150  1
  Pd  Pd189  1  0.80860820  0.20399983  0.40258319  1
  Pd  Pd190  1  0.21208354  0.00138500  0.39967246  1
  Pd  Pd191  1  0.79802061  0.39450467  -0.00268675  1
  Pd  Pd192  1  0.20431473  0.80132645  0.80345759  1
  Pd  Pd193  1  0.39789437  0.41033488  0.59993962  1
  Pd  Pd194  1  0.00361648  0.80550898  0.59505740  1
  Pd  Pd195  1  0.00770544  0.00796944  0.20568518  1
  Pd  Pd196  1  0.39727752  0.21157397  -0.00133525  1
  Pd  Pd197  1  0.41220346  -0.00451123  -0.00356558  1
  Pd  Pd198  1  0.19907236  0.39585147  -0.00416092  1
  Pd  Pd199  1  0.20386991  0.80391089  0.19630128  1
  Rh  Rh200  1  0.19779058  0.40252059  0.79837089  1
  Rh  Rh201  1  0.80284846  0.59620126  0.40118431  1
  Rh  Rh202  1  0.00363956  0.60753739  0.39007009  1
  Rh  Rh203  1  0.00278615  -0.00151930  0.79699024  1
  Rh  Rh204  1  0.39582215  0.79621675  0.59399691  1
  Rh  Rh205  1  0.20114660  0.20523811  0.41112684  1
  Rh  Rh206  1  0.19344564  0.39840118  0.40524187  1
  Rh  Rh207  1  0.78790264  0.39939965  0.59266532  1
  Rh  Rh208  1  0.60623693  0.20960241  0.01274312  1
  Rh  Rh209  1  0.21088628  0.19652587  0.18884421  1
  Rh  Rh210  1  0.39945764  0.79216685  0.00678339  1
  Rh  Rh211  1  0.00027193  0.20732661  0.59291265  1
  Rh  Rh212  1  0.39555946  0.20773691  0.20643696  1
  Rh  Rh213  1  0.00674935  -0.00759794  0.59862864  1
  Rh  Rh214  1  0.59017793  0.40307918  0.78862059  1
  Rh  Rh215  1  0.59102182  -0.00714931  0.60214179  1
  Rh  Rh216  1  0.60196544  0.79309985  0.19657855  1
  Rh  Rh217  1  0.40103135  0.40334778  0.20382463  1
  Rh  Rh218  1  0.59637131  0.59822471  0.00406432  1
  Rh  Rh219  1  0.59822585  0.40290504  0.00922225  1
  Rh  Rh220  1  -0.00703602  0.20223302  0.80166450  1
  Rh  Rh221  1  0.80298044  0.79658572  -0.00343233  1
  Rh  Rh222  1  0.38958777  0.20335461  0.59614620  1
  Rh  Rh223  1  -0.01030346  0.78529069  0.19315578  1
  Rh  Rh224  1  0.40199613  0.80135744  0.80067526  1
  Rh  Rh225  1  0.80539231  0.00095568  -0.00373127  1
  Rh  Rh226  1  0.19776050  0.00772368  0.60532534  1
  Rh  Rh227  1  0.59836464  0.78929327  0.01055790  1
  Rh  Rh228  1  0.60402116  0.80373437  0.80441434  1
  Rh  Rh229  1  -0.00747799  0.59890854  0.60719484  1
  Rh  Rh230  1  0.80767456  0.00823225  0.60622695  1
  Rh  Rh231  1  0.59037321  0.20052935  0.39704067  1
  Rh  Rh232  1  0.60341994  0.59937755  0.79974971  1
  Rh  Rh233  1  0.80088593  0.40021305  0.80640501  1
  Rh  Rh234  1  0.79318220  0.59387926  -0.00706796  1
  Rh  Rh235  1  0.59421343  0.60074884  0.39912224  1
  Rh  Rh236  1  0.60367563  0.40216180  0.19624421  1
  Rh  Rh237  1  0.40338017  0.39580019  0.38929732  1
  Rh  Rh238  1  0.59401977  0.19482904  0.79441904  1
  Rh  Rh239  1  0.40018358  0.80063106  0.40634889  1
  Rh  Rh240  1  0.80760001  0.59806423  0.20658593  1
  Rh  Rh241  1  0.40358192  0.39993295  -0.00007369  1
  Rh  Rh242  1  0.40091867  0.39470647  0.80492341  1
  Rh  Rh243  1  0.60717415  0.19762678  0.19742124  1
  Rh  Rh244  1  0.20622684  0.60289393  -0.00605743  1
  Rh  Rh245  1  0.79665504  0.20351319  0.19356363  1
  Rh  Rh246  1  0.40185131  0.59974410  -0.00364341  1
  Rh  Rh247  1  0.59953890  0.80047881  0.58834180  1
  Rh  Rh248  1  0.00293749  0.80448653  0.40795952  1
  Rh  Rh249  1  -0.00710168  0.79853901  0.80385493  1
