# generated using pymatgen
data_ZrScNbPdRh
_symmetry_space_group_name_H-M   'P 1'
_cell_length_a   16.56391111
_cell_length_b   16.55647137
_cell_length_c   16.55843175
_cell_angle_alpha   89.98330959
_cell_angle_beta   90.03943046
_cell_angle_gamma   89.97409255
_symmetry_Int_Tables_number   1
_chemical_formula_structural   ZrScNbPdRh
_chemical_formula_sum   'Zr50 Sc50 Nb50 Pd50 Rh50'
_cell_volume   4540.98126990
_cell_formula_units_Z   50
loop_
 _symmetry_equiv_pos_site_id
 _symmetry_equiv_pos_as_xyz
  1  'x, y, z'
loop_
 _atom_site_type_symbol
 _atom_site_label
 _atom_site_symmetry_multiplicity
 _atom_site_fract_x
 _atom_site_fract_y
 _atom_site_fract_z
 _atom_site_occupancy
  Zr  Zr0  1  0.50502729  0.49250065  0.89568114  1
  Zr  Zr1  1  0.89806399  0.90366211  0.70442146  1
  Zr  Zr2  1  0.90758926  0.30028580  0.90344375  1
  Zr  Zr3  1  0.29882096  0.10209552  0.50612360  1
  Zr  Zr4  1  0.29912618  0.89771356  0.29797271  1
  Zr  Zr5  1  0.49556947  0.29079623  0.30518665  1
  Zr  Zr6  1  0.50770912  0.49770757  0.70018430  1
  Zr  Zr7  1  0.09673029  0.50186721  0.10416809  1
  Zr  Zr8  1  0.69798041  0.90207603  0.69261478  1
  Zr  Zr9  1  0.89439291  0.70614275  0.49826858  1
  Zr  Zr10  1  0.09547081  0.70071922  0.89883037  1
  Zr  Zr11  1  0.50615953  0.49767310  0.30600351  1
  Zr  Zr12  1  0.69419798  0.09323010  0.50126435  1
  Zr  Zr13  1  0.29965763  0.68989991  0.09861270  1
  Zr  Zr14  1  0.89214318  0.30424502  0.50520922  1
  Zr  Zr15  1  0.69484208  0.50306505  0.29406325  1
  Zr  Zr16  1  0.30954273  0.90191530  0.50247900  1
  Zr  Zr17  1  0.29270224  0.70568291  0.49981598  1
  Zr  Zr18  1  0.29115811  0.09427950  0.09916131  1
  Zr  Zr19  1  0.10792396  0.91252922  0.09984823  1
  Zr  Zr20  1  0.69973363  0.70478920  0.50590870  1
  Zr  Zr21  1  0.30843714  0.70468637  0.29390423  1
  Zr  Zr22  1  0.10178294  0.50314160  0.30282494  1
  Zr  Zr23  1  0.69998141  0.89837117  0.50157512  1
  Zr  Zr24  1  0.29219017  0.49347769  0.49221382  1
  Zr  Zr25  1  0.69457288  0.30295924  0.29171167  1
  Zr  Zr26  1  0.30785247  0.50565934  0.91478015  1
  Zr  Zr27  1  0.89511580  0.90186067  0.50736855  1
  Zr  Zr28  1  0.90387164  0.10056767  0.69705203  1
  Zr  Zr29  1  0.69412944  0.69761342  0.09982975  1
  Zr  Zr30  1  0.10233013  0.11313982  0.89350744  1
  Zr  Zr31  1  0.08699107  0.89698132  0.90721452  1
  Zr  Zr32  1  0.49751002  0.70351771  0.10563700  1
  Zr  Zr33  1  0.49989881  0.10465907  0.89670687  1
  Zr  Zr34  1  0.49205478  0.90177732  0.30215357  1
  Zr  Zr35  1  0.89457189  0.29905140  0.30478379  1
  Zr  Zr36  1  0.70507461  0.70123253  0.89845852  1
  Zr  Zr37  1  0.10214100  0.09822427  0.50085783  1
  Zr  Zr38  1  0.50465982  0.30106864  0.89843755  1
  Zr  Zr39  1  0.10326865  0.70398431  0.69660865  1
  Zr  Zr40  1  0.10465333  0.49265254  0.69346990  1
  Zr  Zr41  1  0.89898060  0.10799112  0.09970632  1
  Zr  Zr42  1  0.09481810  0.48980718  0.90903793  1
  Zr  Zr43  1  0.49953252  0.30735269  0.70347722  1
  Zr  Zr44  1  0.29657714  0.50542785  0.30183731  1
  Zr  Zr45  1  0.90230390  0.50295425  0.28974418  1
  Zr  Zr46  1  0.10008285  0.29635089  0.08912408  1
  Zr  Zr47  1  0.10510214  0.10214867  0.29849135  1
  Zr  Zr48  1  0.30562250  0.09366683  0.88862756  1
  Zr  Zr49  1  0.89832160  0.89727855  0.30327857  1
  Sc  Sc50  1  0.50560724  0.90663935  0.50388174  1
  Sc  Sc51  1  0.69353192  0.90151059  0.30220020  1
  Sc  Sc52  1  0.10240937  0.69167134  0.29655889  1
  Sc  Sc53  1  0.49441882  0.49864186  0.09016476  1
  Sc  Sc54  1  0.70990094  0.10466970  0.69744584  1
  Sc  Sc55  1  0.69362773  0.49106657  0.50470248  1
  Sc  Sc56  1  0.70277155  0.48896585  0.09557653  1
  Sc  Sc57  1  0.70645492  0.29628901  0.49731061  1
  Sc  Sc58  1  0.30050713  0.28426452  0.10246662  1
  Sc  Sc59  1  0.30267831  0.28858825  0.90574177  1
  Sc  Sc60  1  0.31241740  0.70596137  0.69701782  1
  Sc  Sc61  1  0.09865356  0.89369940  0.50614045  1
  Sc  Sc62  1  0.50353462  0.29935202  0.10292069  1
  Sc  Sc63  1  0.09767788  0.90048567  0.29226947  1
  Sc  Sc64  1  0.91154307  0.10722456  0.30309434  1
  Sc  Sc65  1  0.10102433  0.29195730  0.29984578  1
  Sc  Sc66  1  0.91648536  0.89726058  0.09588539  1
  Sc  Sc67  1  0.68871432  0.10760921  0.30043891  1
  Sc  Sc68  1  0.89399784  0.30073451  0.10406574  1
  Sc  Sc69  1  0.09594423  0.70615495  0.09763113  1
  Sc  Sc70  1  0.70272836  0.50294993  0.90147254  1
  Sc  Sc71  1  0.30856112  0.29878812  0.49343154  1
  Sc  Sc72  1  0.70846832  0.10848720  0.89583223  1
  Sc  Sc73  1  0.11653935  0.30508605  0.50065964  1
  Sc  Sc74  1  0.70434337  0.30502283  0.90256368  1
  Sc  Sc75  1  0.68595993  0.89720870  0.09179942  1
  Sc  Sc76  1  0.69615219  0.69919221  0.70635327  1
  Sc  Sc77  1  0.89973414  0.10440956  0.89195019  1
  Sc  Sc78  1  0.49583272  0.90376763  0.89821713  1
  Sc  Sc79  1  0.90015332  0.29848462  0.69745558  1
  Sc  Sc80  1  0.49519571  0.09506516  0.49182659  1
  Sc  Sc81  1  0.49663413  0.90415229  0.10058259  1
  Sc  Sc82  1  0.49834463  0.09669727  0.10883008  1
  Sc  Sc83  1  0.49183784  0.69787261  0.89007295  1
  Sc  Sc84  1  0.89956639  0.10513225  0.49779977  1
  Sc  Sc85  1  0.89473425  0.70560196  0.70961078  1
  Sc  Sc86  1  0.30518569  0.11098699  0.29745980  1
  Sc  Sc87  1  0.49785648  0.89430663  0.69686340  1
  Sc  Sc88  1  0.89237787  0.70356296  0.90084140  1
  Sc  Sc89  1  0.09204114  0.90618232  0.70079148  1
  Sc  Sc90  1  0.70580177  0.30208441  0.69623382  1
  Sc  Sc91  1  0.49852915  0.69987257  0.51273042  1
  Sc  Sc92  1  0.89864819  0.49534537  0.09627157  1
  Sc  Sc93  1  0.50360417  0.69773412  0.69974824  1
  Sc  Sc94  1  0.30277618  0.29067486  0.69363842  1
  Sc  Sc95  1  0.69595961  0.50315213  0.70398609  1
  Sc  Sc96  1  0.90182951  0.49080516  0.69424334  1
  Sc  Sc97  1  0.89899591  0.69204457  0.09812252  1
  Sc  Sc98  1  0.30963478  0.49550171  0.69576184  1
  Sc  Sc99  1  0.50066650  0.49402368  0.50882424  1
  Nb  Nb100  1  0.69500639  0.69543344  0.29840080  1
  Nb  Nb101  1  0.50631120  0.69630591  0.29641879  1
  Nb  Nb102  1  0.30026273  0.30421390  0.30361317  1
  Nb  Nb103  1  0.89083685  0.70045446  0.29959212  1
  Nb  Nb104  1  0.10342194  0.10315564  0.10618767  1
  Nb  Nb105  1  0.29527622  0.89851741  0.09650973  1
  Nb  Nb106  1  0.70347215  0.10183315  0.09873968  1
  Nb  Nb107  1  0.29805282  0.49962474  0.10485613  1
  Nb  Nb108  1  0.49645047  0.30029023  0.50622712  1
  Nb  Nb109  1  0.10282639  0.50683576  0.49480733  1
  Nb  Nb110  1  0.29518436  0.09348773  0.70178021  1
  Nb  Nb111  1  0.89890511  0.49999640  0.49912014  1
  Nb  Nb112  1  0.29709782  0.70086737  0.89837320  1
  Nb  Nb113  1  0.89581901  0.89938002  0.89793871  1
  Nb  Nb114  1  0.89619646  0.50305996  0.90004318  1
  Nb  Nb115  1  0.09946531  0.69432681  0.49905504  1
  Nb  Nb116  1  0.70085040  0.89964221  0.89983863  1
  Nb  Nb117  1  0.29964385  0.89930564  0.89681644  1
  Nb  Nb118  1  0.10317299  0.29545246  0.70950922  1
  Nb  Nb119  1  0.10269507  0.30008985  0.89468060  1
  Nb  Nb120  1  0.70250795  0.29219462  0.09846673  1
  Nb  Nb121  1  0.49923809  0.09817353  0.30253434  1
  Nb  Nb122  1  0.11191931  0.10874275  0.69746498  1
  Nb  Nb123  1  0.49820358  0.10508639  0.70815307  1
  Nb  Nb124  1  0.30336643  0.90872210  0.70958211  1
  Nb  Nb125  1  0.80009573  -0.00293909  0.00024094  1
  Nb  Nb126  1  0.00018034  0.40805468  0.40602011  1
  Nb  Nb127  1  0.79885939  0.00025236  0.39457928  1
  Nb  Nb128  1  0.60271723  0.00248491  0.79858194  1
  Nb  Nb129  1  0.79664445  0.60109450  0.39885461  1
  Nb  Nb130  1  -0.00256687  0.79174231  0.40068448  1
  Nb  Nb131  1  0.20314205  -0.00071402  0.40068253  1
  Nb  Nb132  1  0.39215577  0.39939108  0.20477066  1
  Nb  Nb133  1  0.80731065  0.40400063  0.80442316  1
  Nb  Nb134  1  0.79595999  0.80046988  0.20149052  1
  Nb  Nb135  1  0.40353092  0.60384220  0.39843366  1
  Nb  Nb136  1  0.00165736  0.59858190  0.59384134  1
  Nb  Nb137  1  0.59840840  0.60370304  -0.00238845  1
  Nb  Nb138  1  0.01296442  0.20281141  0.60409878  1
  Nb  Nb139  1  0.60675952  0.19812115  0.00557598  1
  Nb  Nb140  1  0.19918423  0.39884280  0.80633808  1
  Nb  Nb141  1  0.59816822  0.79122462  0.39530294  1
  Nb  Nb142  1  0.38663855  0.80150859  -0.00305066  1
  Nb  Nb143  1  0.20539483  0.39957700  0.19872336  1
  Nb  Nb144  1  0.00314843  0.59410332  0.79671941  1
  Nb  Nb145  1  0.20033552  0.59731386  0.80307080  1
  Nb  Nb146  1  0.20539047  0.80188500  0.80440678  1
  Nb  Nb147  1  0.80535676  0.59779984  0.59510458  1
  Nb  Nb148  1  0.79822755  -0.00186348  0.19563592  1
  Nb  Nb149  1  0.59144112  0.20052251  0.60111850  1
  Pd  Pd150  1  0.39843572  -0.00370078  0.00151677  1
  Pd  Pd151  1  0.19778192  -0.00926216  0.59732678  1
  Pd  Pd152  1  0.00666001  0.39534091  0.59135589  1
  Pd  Pd153  1  -0.00546249  0.00595846  0.19942760  1
  Pd  Pd154  1  0.18801576  -0.00793515  0.80547024  1
  Pd  Pd155  1  0.60997284  0.20036813  0.79702316  1
  Pd  Pd156  1  0.41284203  0.79299465  0.40710697  1
  Pd  Pd157  1  0.40477470  0.19406431  0.60362586  1
  Pd  Pd158  1  0.20075487  0.80002058  -0.00143589  1
  Pd  Pd159  1  0.00248065  -0.01009139  0.40306842  1
  Pd  Pd160  1  0.20876404  0.39261801  0.60484688  1
  Pd  Pd161  1  0.18810805  0.80351573  0.39618536  1
  Pd  Pd162  1  0.79327899  -0.00131335  0.80442878  1
  Pd  Pd163  1  0.59902189  0.39012279  0.40749304  1
  Pd  Pd164  1  0.00448672  0.21489874  0.41365475  1
  Pd  Pd165  1  0.59219542  0.40304907  0.19116527  1
  Pd  Pd166  1  0.79905471  0.19372192  0.20954836  1
  Pd  Pd167  1  -0.00323600  0.79529351  0.59959496  1
  Pd  Pd168  1  -0.00009067  0.19666486  0.00042430  1
  Pd  Pd169  1  0.41000509  0.19603411  0.00717842  1
  Pd  Pd170  1  0.00590457  0.00687763  0.80003709  1
  Pd  Pd171  1  0.79678976  0.60076112  0.19528672  1
  Pd  Pd172  1  0.39582983  0.59509895  0.59244363  1
  Pd  Pd173  1  0.00665735  0.39094694  0.20443023  1
  Pd  Pd174  1  0.60106647  0.80760693  0.20528590  1
  Pd  Pd175  1  0.59734741  0.80676112  0.80360245  1
  Pd  Pd176  1  0.39280650  0.00198617  0.20197599  1
  Pd  Pd177  1  0.40935828  0.58950993  0.20376464  1
  Pd  Pd178  1  -0.00899266  0.60224666  0.40002482  1
  Pd  Pd179  1  0.59841138  0.60419434  0.41362631  1
  Pd  Pd180  1  0.19725766  0.00682484  -0.01178296  1
  Pd  Pd181  1  0.20420853  0.60038934  0.60603217  1
  Pd  Pd182  1  0.19766123  0.79564613  0.19716205  1
  Pd  Pd183  1  -0.00452627  0.60204927  -0.00302766  1
  Pd  Pd184  1  0.19370062  0.60017195  -0.00001286  1
  Pd  Pd185  1  0.80008790  0.40882940  0.39353846  1
  Pd  Pd186  1  0.21050809  0.39281175  0.00351801  1
  Pd  Pd187  1  0.80462073  0.80801019  0.01050769  1
  Pd  Pd188  1  0.60397479  0.00156973  0.20359613  1
  Pd  Pd189  1  0.20627731  0.81003172  0.61086119  1
  Pd  Pd190  1  0.60655580  0.01056849  -0.01003373  1
  Pd  Pd191  1  0.40758038  0.00439582  0.60817020  1
  Pd  Pd192  1  -0.00513973  0.01281653  -0.00345902  1
  Pd  Pd193  1  0.59853851  0.20374178  0.40907301  1
  Pd  Pd194  1  0.39665038  0.59683189  0.79663145  1
  Pd  Pd195  1  0.58439400  0.79408140  -0.01161547  1
  Pd  Pd196  1  0.38629242  0.39398343  0.80299992  1
  Pd  Pd197  1  -0.00444883  0.79212709  0.20345267  1
  Pd  Pd198  1  0.39518871  0.38870483  0.00964054  1
  Pd  Pd199  1  -0.00151238  0.40228190  0.79955207  1
  Rh  Rh200  1  0.81081751  0.59016021  0.79142956  1
  Rh  Rh201  1  0.79723130  0.79458592  0.61495296  1
  Rh  Rh202  1  0.00009692  0.79742808  0.80223224  1
  Rh  Rh203  1  -0.00753213  0.79491143  -0.00136469  1
  Rh  Rh204  1  0.00395935  0.20258380  0.19552622  1
  Rh  Rh205  1  0.59523231  0.19659377  0.19391319  1
  Rh  Rh206  1  0.79275193  0.40845261  0.60796765  1
  Rh  Rh207  1  0.79179787  0.59806476  0.00228549  1
  Rh  Rh208  1  0.39706042  0.80727983  0.18866331  1
  Rh  Rh209  1  0.39991369  0.19717917  0.40170304  1
  Rh  Rh210  1  0.20917838  0.61045126  0.39886122  1
  Rh  Rh211  1  0.20690228  0.19414325  0.40126480  1
  Rh  Rh212  1  0.39235048  0.00508914  0.39471669  1
  Rh  Rh213  1  0.39763091  0.40064211  0.59606204  1
  Rh  Rh214  1  0.60325078  0.39620153  0.00024439  1
  Rh  Rh215  1  0.40325982  0.20274391  0.20178526  1
  Rh  Rh216  1  0.59663070  0.59059804  0.18611212  1
  Rh  Rh217  1  0.20079528  0.20458584  0.59961679  1
  Rh  Rh218  1  0.61343259  0.39859063  0.80123043  1
  Rh  Rh219  1  0.59674167  0.60037579  0.80726789  1
  Rh  Rh220  1  0.80356969  0.00676062  0.59250846  1
  Rh  Rh221  1  0.80516991  0.21345632  0.79969683  1
  Rh  Rh222  1  0.20489139  0.00221128  0.20805603  1
  Rh  Rh223  1  0.59720670  0.79851587  0.59695949  1
  Rh  Rh224  1  0.19453353  0.59960439  0.19423937  1
  Rh  Rh225  1  0.79631452  0.80912474  0.79870727  1
  Rh  Rh226  1  -0.00683051  0.39713813  0.00477189  1
  Rh  Rh227  1  0.40859850  0.60876750  -0.00075404  1
  Rh  Rh228  1  0.21140021  0.20614825  0.79990101  1
  Rh  Rh229  1  0.40964374  -0.00189035  0.79498771  1
  Rh  Rh230  1  0.60745479  0.59892720  0.60291981  1
  Rh  Rh231  1  0.59977930  -0.00731073  0.39432819  1
  Rh  Rh232  1  0.40703288  0.40475142  0.39880699  1
  Rh  Rh233  1  0.80017132  0.19689659  0.59670947  1
  Rh  Rh234  1  0.19113796  0.39537271  0.39029794  1
  Rh  Rh235  1  0.79742687  0.39713097  0.19994162  1
  Rh  Rh236  1  0.00331264  0.00990417  0.60300520  1
  Rh  Rh237  1  0.39538838  0.80367462  0.80101336  1
  Rh  Rh238  1  0.79367383  0.80137590  0.38818782  1
  Rh  Rh239  1  0.79766019  0.19840378  -0.00307233  1
  Rh  Rh240  1  0.20040956  0.19300105  -0.00422155  1
  Rh  Rh241  1  0.80455864  0.39764580  -0.00439461  1
  Rh  Rh242  1  0.60288841  0.38941779  0.60060584  1
  Rh  Rh243  1  0.39969172  0.80502787  0.60229110  1
  Rh  Rh244  1  -0.00113533  0.60470448  0.19691956  1
  Rh  Rh245  1  0.39369339  0.20135371  0.79484571  1
  Rh  Rh246  1  -0.00162989  0.20011346  0.79175203  1
  Rh  Rh247  1  0.59367652  0.01381574  0.61360991  1
  Rh  Rh248  1  0.19857997  0.20563782  0.19967480  1
  Rh  Rh249  1  0.79448384  0.19101158  0.39596262  1
