# generated using pymatgen
data_ZrScNbPdRh
_symmetry_space_group_name_H-M   'P 1'
_cell_length_a   16.55153530
_cell_length_b   16.55376803
_cell_length_c   16.55424629
_cell_angle_alpha   90.02091442
_cell_angle_beta   90.02495019
_cell_angle_gamma   90.01964953
_symmetry_Int_Tables_number   1
_chemical_formula_structural   ZrScNbPdRh
_chemical_formula_sum   'Zr50 Sc50 Nb50 Pd50 Rh50'
_cell_volume   4535.70150982
_cell_formula_units_Z   50
loop_
 _symmetry_equiv_pos_site_id
 _symmetry_equiv_pos_as_xyz
  1  'x, y, z'
loop_
 _atom_site_type_symbol
 _atom_site_label
 _atom_site_symmetry_multiplicity
 _atom_site_fract_x
 _atom_site_fract_y
 _atom_site_fract_z
 _atom_site_occupancy
  Zr  Zr0  1  0.09958194  0.29572243  0.89923105  1
  Zr  Zr1  1  0.29873849  0.30275536  0.70078718  1
  Zr  Zr2  1  0.30475144  0.49383397  0.09315826  1
  Zr  Zr3  1  0.08766491  0.30381437  0.49237803  1
  Zr  Zr4  1  0.09814978  0.09684133  0.09178301  1
  Zr  Zr5  1  0.89473949  0.09898142  0.30106235  1
  Zr  Zr6  1  0.10132342  0.10181818  0.29528955  1
  Zr  Zr7  1  0.10024676  0.30110101  0.09416003  1
  Zr  Zr8  1  0.10456289  0.90418143  0.91402908  1
  Zr  Zr9  1  0.70320977  0.29441735  0.10274135  1
  Zr  Zr10  1  0.50070101  0.49912182  0.70607979  1
  Zr  Zr11  1  0.70153641  0.50480924  0.29399893  1
  Zr  Zr12  1  0.89223865  0.89743068  0.29866492  1
  Zr  Zr13  1  0.29614999  0.69867308  0.70522561  1
  Zr  Zr14  1  0.70440320  0.50061099  0.10317609  1
  Zr  Zr15  1  0.50349458  0.49910150  0.90231017  1
  Zr  Zr16  1  0.50554356  0.10070791  0.70060392  1
  Zr  Zr17  1  0.49840998  0.90069222  0.29248651  1
  Zr  Zr18  1  0.49535513  0.89491068  0.10193518  1
  Zr  Zr19  1  0.49739302  0.50125522  0.49908443  1
  Zr  Zr20  1  0.50244102  0.70285694  0.29979631  1
  Zr  Zr21  1  0.71583019  0.70266020  0.30836590  1
  Zr  Zr22  1  0.30224077  0.50305352  0.49241544  1
  Zr  Zr23  1  0.90453789  0.30008044  0.30066946  1
  Zr  Zr24  1  0.88674119  0.90156645  0.90461175  1
  Zr  Zr25  1  0.50024833  0.10407091  0.50022327  1
  Zr  Zr26  1  0.69438059  0.89307476  0.89490246  1
  Zr  Zr27  1  0.69914333  0.30016032  0.29317245  1
  Zr  Zr28  1  0.49964568  0.30191698  0.50322971  1
  Zr  Zr29  1  0.09623533  0.30510758  0.29673393  1
  Zr  Zr30  1  0.69593872  0.10036805  0.29569800  1
  Zr  Zr31  1  0.90649006  0.70375918  0.70234897  1
  Zr  Zr32  1  0.70350646  0.09747657  0.50785895  1
  Zr  Zr33  1  0.49987368  0.09881780  0.29829491  1
  Zr  Zr34  1  0.29893524  0.10753105  0.49641607  1
  Zr  Zr35  1  0.89766898  0.50200033  0.29621239  1
  Zr  Zr36  1  0.49703191  0.08694969  0.89485558  1
  Zr  Zr37  1  0.29711016  0.50100101  0.30048965  1
  Zr  Zr38  1  0.09916322  0.69773412  0.70821265  1
  Zr  Zr39  1  0.70708291  0.50956414  0.50437410  1
  Zr  Zr40  1  0.70214385  0.89652955  0.30362510  1
  Zr  Zr41  1  0.29882884  0.89403025  0.30259370  1
  Zr  Zr42  1  0.48954482  0.88854100  0.50051401  1
  Zr  Zr43  1  0.70276483  0.29560100  0.50637838  1
  Zr  Zr44  1  0.29880850  0.09833621  0.70520207  1
  Zr  Zr45  1  0.89855031  0.90031162  0.69609523  1
  Zr  Zr46  1  0.89061477  0.10342752  0.08827892  1
  Zr  Zr47  1  0.30239560  0.29809668  0.49978522  1
  Zr  Zr48  1  0.30892090  0.71341340  0.50206101  1
  Zr  Zr49  1  0.50641235  0.29768842  0.29738476  1
  Sc  Sc50  1  0.50004451  0.70038215  0.09985059  1
  Sc  Sc51  1  0.50229735  0.89793558  0.90567872  1
  Sc  Sc52  1  0.30094331  0.30161795  0.29214664  1
  Sc  Sc53  1  0.30475786  0.10843934  0.30116218  1
  Sc  Sc54  1  0.50135192  0.49638646  0.29864822  1
  Sc  Sc55  1  0.29808780  0.88801371  0.10102789  1
  Sc  Sc56  1  0.69720785  0.69137221  0.09952780  1
  Sc  Sc57  1  0.49671503  0.31480807  0.09979070  1
  Sc  Sc58  1  0.09325087  0.69592309  0.89796580  1
  Sc  Sc59  1  0.70040167  0.89841357  0.09580568  1
  Sc  Sc60  1  0.89477285  0.70273287  0.49791389  1
  Sc  Sc61  1  0.29789122  0.50118129  0.89639733  1
  Sc  Sc62  1  0.50635019  0.50331230  0.09936062  1
  Sc  Sc63  1  0.69964591  0.69112270  0.90193919  1
  Sc  Sc64  1  0.70119681  0.50207653  0.89562527  1
  Sc  Sc65  1  0.50705042  0.69529008  0.70563792  1
  Sc  Sc66  1  0.29833089  0.30619976  0.09739451  1
  Sc  Sc67  1  0.89824445  0.69656284  0.08304027  1
  Sc  Sc68  1  0.89494528  0.90013638  0.09431824  1
  Sc  Sc69  1  0.50578484  0.90210416  0.71157879  1
  Sc  Sc70  1  0.90621134  0.49139003  0.50027847  1
  Sc  Sc71  1  0.89814195  0.90286286  0.51398530  1
  Sc  Sc72  1  0.28473135  0.09506277  0.89893774  1
  Sc  Sc73  1  0.30433135  0.90580015  0.90071180  1
  Sc  Sc74  1  0.09681095  0.11391354  0.49973497  1
  Sc  Sc75  1  0.89879794  0.29085303  0.89627883  1
  Sc  Sc76  1  0.29649406  0.10848939  0.10099740  1
  Sc  Sc77  1  0.09633011  0.30287785  0.71067341  1
  Sc  Sc78  1  0.69906901  0.10136209  0.10327419  1
  Sc  Sc79  1  0.29404266  0.70307043  0.30955244  1
  Sc  Sc80  1  0.51108013  0.31063014  0.89035900  1
  Sc  Sc81  1  0.09055423  0.89046283  0.69574614  1
  Sc  Sc82  1  0.10478889  0.69903391  0.49236356  1
  Sc  Sc83  1  0.29099537  0.30725382  0.90546538  1
  Sc  Sc84  1  0.50488336  0.30220293  0.70099739  1
  Sc  Sc85  1  0.71096397  0.10326952  0.89885499  1
  Sc  Sc86  1  0.28780855  0.69678881  0.90749413  1
  Sc  Sc87  1  0.08834405  0.49171961  0.09012969  1
  Sc  Sc88  1  0.90404374  0.50986812  0.90248713  1
  Sc  Sc89  1  0.10432708  0.70647666  0.08558309  1
  Sc  Sc90  1  0.70325304  0.29817659  0.89383942  1
  Sc  Sc91  1  0.90747860  0.30471220  0.10765672  1
  Sc  Sc92  1  0.89775121  0.30076432  0.69789651  1
  Sc  Sc93  1  0.29807047  0.89168290  0.69861606  1
  Sc  Sc94  1  0.09742764  0.49604647  0.89556296  1
  Sc  Sc95  1  0.70042207  0.10297828  0.69785691  1
  Sc  Sc96  1  0.70271563  0.29776623  0.70691064  1
  Sc  Sc97  1  0.50889752  0.69702570  0.90134384  1
  Sc  Sc98  1  0.50252929  0.08884570  0.10664766  1
  Sc  Sc99  1  0.10293474  0.10842885  0.70657747  1
  Nb  Nb100  1  0.70332198  0.89282994  0.69284643  1
  Nb  Nb101  1  0.89957613  0.50406958  0.70269395  1
  Nb  Nb102  1  0.09687334  0.90202453  0.49747747  1
  Nb  Nb103  1  0.10314070  0.49909851  0.49760139  1
  Nb  Nb104  1  0.70486388  0.50885206  0.69830854  1
  Nb  Nb105  1  0.10009790  0.90060423  0.29679920  1
  Nb  Nb106  1  0.29799824  0.69357541  0.10267942  1
  Nb  Nb107  1  0.70283661  0.89571118  0.50583540  1
  Nb  Nb108  1  0.70034242  0.70099569  0.50261374  1
  Nb  Nb109  1  0.29830750  0.49919700  0.69848873  1
  Nb  Nb110  1  0.09925769  0.90077142  0.10943996  1
  Nb  Nb111  1  0.89561701  0.69920169  0.89612663  1
  Nb  Nb112  1  0.89892991  0.09831809  0.70004996  1
  Nb  Nb113  1  0.29638446  0.89869099  0.50053270  1
  Nb  Nb114  1  0.10058935  0.49953652  0.70226966  1
  Nb  Nb115  1  0.90187828  0.49700359  0.09862332  1
  Nb  Nb116  1  0.10030758  0.50819685  0.31254935  1
  Nb  Nb117  1  0.09737678  0.69958227  0.30063604  1
  Nb  Nb118  1  0.89983749  0.09903747  0.89577076  1
  Nb  Nb119  1  0.09476629  0.10319174  0.89929285  1
  Nb  Nb120  1  0.90061793  0.29320634  0.49645558  1
  Nb  Nb121  1  0.49966139  0.69752502  0.50357585  1
  Nb  Nb122  1  0.90427122  0.70307358  0.30170922  1
  Nb  Nb123  1  0.90076548  0.10930095  0.50551711  1
  Nb  Nb124  1  0.70158089  0.69096077  0.69705128  1
  Nb  Nb125  1  0.40040650  0.79576729  0.80290361  1
  Nb  Nb126  1  0.79562441  0.79416215  0.79462493  1
  Nb  Nb127  1  0.60206741  -0.00605280  0.40552011  1
  Nb  Nb128  1  0.19540099  0.40693698  0.59825325  1
  Nb  Nb129  1  0.19995847  -0.00297607  0.59181337  1
  Nb  Nb130  1  0.60311644  0.60774220  0.40590285  1
  Nb  Nb131  1  0.20097818  0.59431561  0.60070797  1
  Nb  Nb132  1  0.60668456  0.40886351  0.60176016  1
  Nb  Nb133  1  0.39955440  0.19867569  0.80685448  1
  Nb  Nb134  1  0.59242547  0.19889874  -0.00244669  1
  Nb  Nb135  1  0.00242314  0.80634956  0.39375507  1
  Nb  Nb136  1  0.00352872  0.79817001  0.20139946  1
  Nb  Nb137  1  -0.00261374  0.00481218  0.80675597  1
  Nb  Nb138  1  0.00795034  0.59245119  0.60283719  1
  Nb  Nb139  1  0.39098756  0.60217435  0.19920585  1
  Nb  Nb140  1  0.39658150  0.59997409  0.60295157  1
  Nb  Nb141  1  0.60654273  0.79357190  0.59960624  1
  Nb  Nb142  1  0.00074971  -0.00106806  0.40153294  1
  Nb  Nb143  1  0.19397317  0.60004444  0.20026718  1
  Nb  Nb144  1  0.80482118  0.40300113  0.00471837  1
  Nb  Nb145  1  0.80107401  0.39459966  0.40127721  1
  Nb  Nb146  1  0.39420360  -0.00233422  0.59797650  1
  Nb  Nb147  1  0.00468253  0.60622488  0.20217458  1
  Nb  Nb148  1  0.40748556  0.20032779  -0.00911895  1
  Nb  Nb149  1  0.19488060  -0.00449257  0.40205028  1
  Pd  Pd150  1  0.80531950  0.79162137  0.18609339  1
  Pd  Pd151  1  0.80540991  0.40582184  0.80669321  1
  Pd  Pd152  1  0.59288106  -0.01150034  0.59587346  1
  Pd  Pd153  1  0.19593046  0.79130540  0.19805180  1
  Pd  Pd154  1  0.60299840  0.19436445  0.40245676  1
  Pd  Pd155  1  0.20855111  0.00277077  0.20173699  1
  Pd  Pd156  1  0.61325245  0.00266869  0.79902176  1
  Pd  Pd157  1  -0.00740659  -0.00271469  0.19855012  1
  Pd  Pd158  1  0.38751208  0.00016274  0.19412568  1
  Pd  Pd159  1  0.19871349  0.20389738  0.19773324  1
  Pd  Pd160  1  -0.00481304  -0.00259879  -0.00100696  1
  Pd  Pd161  1  0.79682426  0.20291679  0.39793224  1
  Pd  Pd162  1  0.00111254  0.20336191  0.61038687  1
  Pd  Pd163  1  0.60000507  0.80002582  0.40638972  1
  Pd  Pd164  1  0.81158333  0.60993818  0.19217111  1
  Pd  Pd165  1  -0.00249335  0.19434312  0.19374788  1
  Pd  Pd166  1  0.20784960  -0.00254004  0.01171316  1
  Pd  Pd167  1  0.19047400  0.59147602  0.00319217  1
  Pd  Pd168  1  0.39969406  0.39358984  0.39195190  1
  Pd  Pd169  1  0.61024536  0.40873282  0.40639921  1
  Pd  Pd170  1  0.60683936  0.00505855  0.00132404  1
  Pd  Pd171  1  0.19127198  0.40982154  0.19657080  1
  Pd  Pd172  1  0.20295798  0.80703863  0.81002273  1
  Pd  Pd173  1  0.00837299  0.01068949  0.60242044  1
  Pd  Pd174  1  0.20150012  0.39140058  0.40152710  1
  Pd  Pd175  1  0.61171873  0.39530034  0.00115731  1
  Pd  Pd176  1  0.81579031  0.60290805  0.59836265  1
  Pd  Pd177  1  0.40329056  0.60236610  0.00183041  1
  Pd  Pd178  1  0.39709554  0.79193431  -0.00803415  1
  Pd  Pd179  1  0.00185980  0.40134482  0.60340103  1
  Pd  Pd180  1  0.18995866  0.79743531  0.59811879  1
  Pd  Pd181  1  0.40599014  0.20475019  0.18795030  1
  Pd  Pd182  1  -0.00457004  0.20390176  -0.00007402  1
  Pd  Pd183  1  0.18704821  -0.01039552  0.78993982  1
  Pd  Pd184  1  -0.00970500  0.40245702  0.80484141  1
  Pd  Pd185  1  0.39805956  -0.00109677  0.40375483  1
  Pd  Pd186  1  0.60881942  0.79715815  0.19456295  1
  Pd  Pd187  1  0.19079983  0.20700634  0.60248501  1
  Pd  Pd188  1  0.39828309  0.60640607  0.80315887  1
  Pd  Pd189  1  -0.00225954  0.80221722  0.00078965  1
  Pd  Pd190  1  0.39515346  0.39455109  0.80574354  1
  Pd  Pd191  1  0.40293525  0.19713989  0.60981199  1
  Pd  Pd192  1  -0.00506610  0.81149817  0.81430933  1
  Pd  Pd193  1  0.80179330  -0.00331826  0.41173286  1
  Pd  Pd194  1  0.79586092  -0.00113233  0.19131646  1
  Pd  Pd195  1  0.60296346  0.79402510  0.00433590  1
  Pd  Pd196  1  0.79715787  -0.00307317  0.79310301  1
  Pd  Pd197  1  0.39149448  0.00558063  0.00773032  1
  Pd  Pd198  1  -0.00654367  0.60420086  0.40613099  1
  Pd  Pd199  1  0.80042443  0.39824810  0.59864016  1
  Rh  Rh200  1  0.80861429  0.80681945  0.41129912  1
  Rh  Rh201  1  0.60184366  0.21088482  0.60439906  1
  Rh  Rh202  1  -0.00583159  0.19326113  0.79647341  1
  Rh  Rh203  1  0.80242465  0.59532699  0.40283990  1
  Rh  Rh204  1  0.60468355  0.59698479  0.80357727  1
  Rh  Rh205  1  0.20214965  0.19936731  -0.00114770  1
  Rh  Rh206  1  0.00555620  0.78598839  0.58747245  1
  Rh  Rh207  1  0.20394173  0.60657447  0.40339721  1
  Rh  Rh208  1  0.59282371  0.60215029  0.20870742  1
  Rh  Rh209  1  0.59983188  0.59659821  0.00005753  1
  Rh  Rh210  1  0.80174670  0.00586900  0.60213758  1
  Rh  Rh211  1  0.40262837  0.20898511  0.39317576  1
  Rh  Rh212  1  0.79207554  0.00253875  -0.00019280  1
  Rh  Rh213  1  0.79970939  0.59237371  -0.00144754  1
  Rh  Rh214  1  -0.00992564  0.39434423  -0.01018960  1
  Rh  Rh215  1  0.60020110  0.40259083  0.19636382  1
  Rh  Rh216  1  0.40194875  0.40850119  0.20127451  1
  Rh  Rh217  1  0.61259596  0.40884520  0.78950509  1
  Rh  Rh218  1  0.00119379  0.60204589  -0.00024069  1
  Rh  Rh219  1  0.40192672  0.40680392  0.60261794  1
  Rh  Rh220  1  0.20024159  0.40105110  0.79641746  1
  Rh  Rh221  1  0.39561396  -0.00513984  0.79333203  1
  Rh  Rh222  1  0.19289429  0.80464031  0.40124396  1
  Rh  Rh223  1  0.80686690  0.19852396  0.19951114  1
  Rh  Rh224  1  0.20187961  0.80358481  0.00016933  1
  Rh  Rh225  1  0.79596655  0.79198476  0.60350370  1
  Rh  Rh226  1  0.40759447  0.60838337  0.39699803  1
  Rh  Rh227  1  0.59520032  0.19312793  0.80743559  1
  Rh  Rh228  1  0.79567695  0.20810470  -0.00133433  1
  Rh  Rh229  1  -0.00167051  0.59499236  0.79783445  1
  Rh  Rh230  1  0.39428319  0.79021151  0.20260549  1
  Rh  Rh231  1  0.80495715  0.19852177  0.60629404  1
  Rh  Rh232  1  0.80464343  0.19677475  0.79384120  1
  Rh  Rh233  1  0.19977080  0.20300086  0.39252942  1
  Rh  Rh234  1  0.79286353  0.79280764  -0.00739352  1
  Rh  Rh235  1  0.00823830  0.41341673  0.20799389  1
  Rh  Rh236  1  0.60366206  0.79420583  0.79303700  1
  Rh  Rh237  1  0.80352393  0.60396420  0.79946810  1
  Rh  Rh238  1  0.19538507  0.40355803  -0.00274754  1
  Rh  Rh239  1  0.40142034  0.79806094  0.39265523  1
  Rh  Rh240  1  0.59339076  0.59960451  0.59730165  1
  Rh  Rh241  1  0.60582533  -0.00876005  0.20491957  1
  Rh  Rh242  1  0.19747620  0.59523280  0.80076076  1
  Rh  Rh243  1  0.20525553  0.20468945  0.80645133  1
  Rh  Rh244  1  -0.00255508  0.19127206  0.39561994  1
  Rh  Rh245  1  0.40170675  0.39675252  -0.00802295  1
  Rh  Rh246  1  -0.00641507  0.40400648  0.39569248  1
  Rh  Rh247  1  0.41353578  0.79993189  0.61778082  1
  Rh  Rh248  1  0.59028722  0.20251422  0.18801709  1
  Rh  Rh249  1  0.80178946  0.39603344  0.19898939  1
