# generated using pymatgen
data_ZrScNbPdRh
_symmetry_space_group_name_H-M   'P 1'
_cell_length_a   16.55673718
_cell_length_b   16.56168006
_cell_length_c   16.56155260
_cell_angle_alpha   90.02672967
_cell_angle_beta   90.02926693
_cell_angle_gamma   89.96028599
_symmetry_Int_Tables_number   1
_chemical_formula_structural   ZrScNbPdRh
_chemical_formula_sum   'Zr50 Sc50 Nb50 Pd50 Rh50'
_cell_volume   4541.29783468
_cell_formula_units_Z   50
loop_
 _symmetry_equiv_pos_site_id
 _symmetry_equiv_pos_as_xyz
  1  'x, y, z'
loop_
 _atom_site_type_symbol
 _atom_site_label
 _atom_site_symmetry_multiplicity
 _atom_site_fract_x
 _atom_site_fract_y
 _atom_site_fract_z
 _atom_site_occupancy
  Zr  Zr0  1  0.29501868  0.89690652  0.29759103  1
  Zr  Zr1  1  0.09430180  0.50340229  0.68904728  1
  Zr  Zr2  1  0.90194680  0.50691566  0.30649861  1
  Zr  Zr3  1  0.69926408  0.70848512  0.50235472  1
  Zr  Zr4  1  0.30053029  0.90132765  0.69992854  1
  Zr  Zr5  1  0.30421575  0.09450122  0.11311619  1
  Zr  Zr6  1  0.09997642  0.29551058  0.09909102  1
  Zr  Zr7  1  0.89914584  0.69633262  0.90376228  1
  Zr  Zr8  1  0.90072518  0.50095964  0.49993215  1
  Zr  Zr9  1  0.69998784  0.90519113  0.09916675  1
  Zr  Zr10  1  0.69974260  0.30357226  0.69352767  1
  Zr  Zr11  1  0.50014930  0.50621337  0.29755626  1
  Zr  Zr12  1  0.50654967  0.10025255  0.10815108  1
  Zr  Zr13  1  0.30467953  0.08973027  0.69925712  1
  Zr  Zr14  1  0.50976808  0.09984211  0.89601344  1
  Zr  Zr15  1  0.70532593  0.30586189  0.49846551  1
  Zr  Zr16  1  0.70624087  0.50457486  0.50156829  1
  Zr  Zr17  1  0.89922898  0.29436963  0.30143155  1
  Zr  Zr18  1  0.50329724  0.50075695  0.49522650  1
  Zr  Zr19  1  0.09487004  0.89494613  0.49685423  1
  Zr  Zr20  1  0.89936471  0.29666542  0.89384942  1
  Zr  Zr21  1  0.09147808  0.10494212  0.30424048  1
  Zr  Zr22  1  0.10045580  0.70082478  0.51239671  1
  Zr  Zr23  1  0.30527773  0.09844864  0.89660946  1
  Zr  Zr24  1  0.70465177  0.49623810  0.28972435  1
  Zr  Zr25  1  0.49722291  0.90195628  0.49895892  1
  Zr  Zr26  1  0.10393982  0.69731779  0.09757240  1
  Zr  Zr27  1  0.49722081  0.29747519  0.90140318  1
  Zr  Zr28  1  0.51349071  0.89681240  0.90551328  1
  Zr  Zr29  1  0.09977277  0.50435803  0.30656170  1
  Zr  Zr30  1  0.50487047  0.69797219  0.49789328  1
  Zr  Zr31  1  0.08651703  0.89041233  0.69338199  1
  Zr  Zr32  1  0.49665116  0.09562833  0.69881319  1
  Zr  Zr33  1  0.90602166  0.69569920  0.10165115  1
  Zr  Zr34  1  0.29477695  0.30625640  0.89410193  1
  Zr  Zr35  1  0.28627450  0.49416104  0.50051685  1
  Zr  Zr36  1  0.29952292  0.29407251  0.09568465  1
  Zr  Zr37  1  0.09875084  0.29889094  0.89063256  1
  Zr  Zr38  1  0.90487961  0.09966641  0.48996448  1
  Zr  Zr39  1  0.10095467  0.90195584  0.10231022  1
  Zr  Zr40  1  0.50542259  0.90015656  0.10342095  1
  Zr  Zr41  1  0.69411333  0.29358379  0.91035031  1
  Zr  Zr42  1  0.29564693  0.51558652  0.10345833  1
  Zr  Zr43  1  0.09282237  0.70236844  0.90569400  1
  Zr  Zr44  1  0.90333265  0.09076764  0.70012270  1
  Zr  Zr45  1  0.89095120  0.29149399  0.10306426  1
  Zr  Zr46  1  0.10498933  0.89871315  0.90461804  1
  Zr  Zr47  1  0.89253429  0.90438532  0.50364212  1
  Zr  Zr48  1  0.91721049  0.70392877  0.70610197  1
  Zr  Zr49  1  0.09490397  0.50005173  0.49781036  1
  Sc  Sc50  1  0.89919024  0.49939685  0.70184005  1
  Sc  Sc51  1  0.10503274  0.10005340  0.11248863  1
  Sc  Sc52  1  0.49038946  0.90109046  0.70420110  1
  Sc  Sc53  1  0.50315447  0.70298764  0.89675340  1
  Sc  Sc54  1  0.89161374  0.09402370  0.89586978  1
  Sc  Sc55  1  0.50311730  0.10231256  0.49405627  1
  Sc  Sc56  1  0.29837025  0.29180201  0.31454287  1
  Sc  Sc57  1  0.29858271  0.69218817  0.30451708  1
  Sc  Sc58  1  0.11393876  0.30370951  0.49663295  1
  Sc  Sc59  1  0.29950180  0.90158547  0.90034189  1
  Sc  Sc60  1  0.29425305  0.90267144  0.09810088  1
  Sc  Sc61  1  0.51146029  0.50238385  0.10131518  1
  Sc  Sc62  1  0.69863900  0.70503649  0.90015298  1
  Sc  Sc63  1  0.10199179  0.09719032  0.70376320  1
  Sc  Sc64  1  0.50870070  0.29541959  0.09648540  1
  Sc  Sc65  1  0.49677863  0.50655842  0.89704408  1
  Sc  Sc66  1  0.69430411  0.09617748  0.70123250  1
  Sc  Sc67  1  0.50738862  0.90523673  0.29613333  1
  Sc  Sc68  1  0.30266627  0.50177837  0.70285342  1
  Sc  Sc69  1  0.50084756  0.69887462  0.70272880  1
  Sc  Sc70  1  0.30438831  0.69742118  0.69312453  1
  Sc  Sc71  1  0.30133107  0.50620494  0.30392925  1
  Sc  Sc72  1  0.29643653  0.70314510  0.49961047  1
  Sc  Sc73  1  0.10448556  0.49655323  0.90457721  1
  Sc  Sc74  1  0.90408698  0.31242173  0.70665614  1
  Sc  Sc75  1  0.70644751  0.49862973  0.69481177  1
  Sc  Sc76  1  0.10776014  0.10277137  0.88957202  1
  Sc  Sc77  1  0.89312762  0.09919393  0.11183276  1
  Sc  Sc78  1  0.70032362  0.70229067  0.31059347  1
  Sc  Sc79  1  0.70017326  0.90343312  0.30672262  1
  Sc  Sc80  1  0.89177950  0.50660658  0.11060795  1
  Sc  Sc81  1  0.90020652  0.30449888  0.48943401  1
  Sc  Sc82  1  0.89739358  0.09694015  0.30155586  1
  Sc  Sc83  1  0.70789130  0.89775408  0.69262330  1
  Sc  Sc84  1  0.70305704  0.09751981  0.48453783  1
  Sc  Sc85  1  0.89084045  0.69661109  0.49243933  1
  Sc  Sc86  1  0.70344823  0.29837727  0.29875706  1
  Sc  Sc87  1  0.89674208  0.90782891  0.10295902  1
  Sc  Sc88  1  0.29981250  0.88945547  0.50143872  1
  Sc  Sc89  1  0.10039549  0.51015484  0.10123560  1
  Sc  Sc90  1  0.69777978  0.69817358  0.69732158  1
  Sc  Sc91  1  0.50612752  0.69958299  0.09350505  1
  Sc  Sc92  1  0.69952317  0.50201554  0.89446291  1
  Sc  Sc93  1  0.50196501  0.10318094  0.29613251  1
  Sc  Sc94  1  0.30621525  0.69911052  0.91327353  1
  Sc  Sc95  1  0.49770995  0.51010435  0.70001819  1
  Sc  Sc96  1  0.69722907  0.29228507  0.10530242  1
  Sc  Sc97  1  0.50996960  0.30074045  0.48999861  1
  Sc  Sc98  1  0.70262014  0.69734036  0.09360596  1
  Sc  Sc99  1  0.29275453  0.11286647  0.49654129  1
  Nb  Nb100  1  0.89793182  0.90536301  0.89757588  1
  Nb  Nb101  1  0.08850884  0.70540578  0.30169605  1
  Nb  Nb102  1  0.70505281  0.10033809  0.10186921  1
  Nb  Nb103  1  0.69706080  0.89835251  0.49600363  1
  Nb  Nb104  1  0.70180525  0.09252920  0.90617163  1
  Nb  Nb105  1  0.29698082  0.70029267  0.10807403  1
  Nb  Nb106  1  0.30146702  0.50288523  0.89937486  1
  Nb  Nb107  1  0.90113995  0.90314517  0.70386798  1
  Nb  Nb108  1  0.70042101  0.48921372  0.09660894  1
  Nb  Nb109  1  0.09916173  0.29869218  0.70220583  1
  Nb  Nb110  1  0.49546540  0.69538146  0.29570119  1
  Nb  Nb111  1  0.09325753  0.89700916  0.30166888  1
  Nb  Nb112  1  0.90551767  0.90000267  0.30039131  1
  Nb  Nb113  1  0.89550863  0.48875174  0.89294916  1
  Nb  Nb114  1  0.09559160  0.30205601  0.29907908  1
  Nb  Nb115  1  0.49692096  0.30439805  0.29700437  1
  Nb  Nb116  1  0.29681765  0.09209918  0.29967363  1
  Nb  Nb117  1  0.90036768  0.70091637  0.29812974  1
  Nb  Nb118  1  0.29755974  0.30497987  0.69363376  1
  Nb  Nb119  1  0.10120760  0.69958776  0.70223603  1
  Nb  Nb120  1  0.71078725  0.91072250  0.90563268  1
  Nb  Nb121  1  0.29970660  0.30160250  0.50547982  1
  Nb  Nb122  1  0.70068566  0.09552316  0.29461782  1
  Nb  Nb123  1  0.49978245  0.29704612  0.69821190  1
  Nb  Nb124  1  0.09627258  0.09882236  0.50068182  1
  Nb  Nb125  1  0.60055353  -0.00581464  0.59149804  1
  Nb  Nb126  1  0.19577727  0.00000414  0.40015382  1
  Nb  Nb127  1  0.39701259  0.39806456  0.19802411  1
  Nb  Nb128  1  -0.00000972  0.00624255  -0.00061758  1
  Nb  Nb129  1  0.20024084  0.39817011  0.20297925  1
  Nb  Nb130  1  0.80651551  0.79884779  0.20606039  1
  Nb  Nb131  1  0.39436843  0.40429954  0.00207524  1
  Nb  Nb132  1  0.39052224  0.00251920  0.39557189  1
  Nb  Nb133  1  0.80618393  0.19985205  0.60122124  1
  Nb  Nb134  1  -0.00168803  0.19661032  -0.00235823  1
  Nb  Nb135  1  -0.00804908  0.39597219  0.00310446  1
  Nb  Nb136  1  0.19634009  0.79472201  0.20397413  1
  Nb  Nb137  1  0.79492587  0.19782642  0.79647221  1
  Nb  Nb138  1  0.19502629  0.79226779  0.79791732  1
  Nb  Nb139  1  0.39798320  0.79259909  0.19964957  1
  Nb  Nb140  1  0.00303066  0.20141108  0.60075948  1
  Nb  Nb141  1  0.00291213  0.39745024  0.20001002  1
  Nb  Nb142  1  0.19558731  -0.00130097  0.59253999  1
  Nb  Nb143  1  0.40067756  0.39280449  0.59802203  1
  Nb  Nb144  1  0.19872833  0.60513136  0.80166712  1
  Nb  Nb145  1  0.79969149  0.40104600  0.00122763  1
  Nb  Nb146  1  0.40726904  0.00345853  0.00312911  1
  Nb  Nb147  1  0.59502351  0.39359122  0.79698300  1
  Nb  Nb148  1  0.80838845  0.80910123  0.80350648  1
  Nb  Nb149  1  0.39866920  0.20904297  0.60044309  1
  Pd  Pd150  1  0.60459937  0.79130931  0.20311364  1
  Pd  Pd151  1  -0.00991170  0.81079466  0.00416654  1
  Pd  Pd152  1  0.60233104  0.59721147  -0.00596809  1
  Pd  Pd153  1  0.40651868  0.80226289  0.39060257  1
  Pd  Pd154  1  0.79114404  0.61024214  0.20195822  1
  Pd  Pd155  1  0.20009786  0.40723299  0.00864997  1
  Pd  Pd156  1  0.40153070  0.19623292  0.00056119  1
  Pd  Pd157  1  0.20070266  0.01117763  0.00156952  1
  Pd  Pd158  1  -0.00720798  0.58392143  -0.00387495  1
  Pd  Pd159  1  0.19505976  0.18986642  -0.00183894  1
  Pd  Pd160  1  0.39167923  0.79457855  0.80378061  1
  Pd  Pd161  1  0.39670245  0.40048285  0.39915766  1
  Pd  Pd162  1  0.60525565  0.20065650  0.39125091  1
  Pd  Pd163  1  0.60350700  0.59531012  0.79731524  1
  Pd  Pd164  1  0.20907404  0.19922315  0.78998774  1
  Pd  Pd165  1  0.59259682  0.80672891  0.60765740  1
  Pd  Pd166  1  0.79075716  0.00815212  0.59596925  1
  Pd  Pd167  1  0.40618285  0.40352157  0.79750633  1
  Pd  Pd168  1  0.39660638  0.59434663  0.59271870  1
  Pd  Pd169  1  0.19769088  0.19505726  0.60672855  1
  Pd  Pd170  1  0.60680682  0.20254862  0.79676847  1
  Pd  Pd171  1  0.80276245  0.80307371  0.00282891  1
  Pd  Pd172  1  0.80699007  0.60764467  0.60804129  1
  Pd  Pd173  1  0.39843784  0.80694601  0.00879293  1
  Pd  Pd174  1  0.59360812  0.80122738  0.39374184  1
  Pd  Pd175  1  0.79951903  0.60936672  0.79636074  1
  Pd  Pd176  1  0.40005754  0.20676559  0.20597068  1
  Pd  Pd177  1  0.40212398  0.19539485  0.40206894  1
  Pd  Pd178  1  0.79732479  0.59039235  -0.00278279  1
  Pd  Pd179  1  0.59497500  0.39394808  0.20028564  1
  Pd  Pd180  1  0.20426035  0.20551280  0.21044900  1
  Pd  Pd181  1  0.61290202  0.80697931  0.79720400  1
  Pd  Pd182  1  -0.00085108  0.38894759  0.59376929  1
  Pd  Pd183  1  -0.00950683  0.79541244  0.40852738  1
  Pd  Pd184  1  0.40557867  0.79380675  0.60128134  1
  Pd  Pd185  1  0.60311409  0.19050285  0.59418138  1
  Pd  Pd186  1  0.80701538  0.79404670  0.60808182  1
  Pd  Pd187  1  -0.00127834  0.80289527  0.19388658  1
  Pd  Pd188  1  0.60761198  0.40217849  0.39245092  1
  Pd  Pd189  1  0.60781440  0.59850960  0.39798067  1
  Pd  Pd190  1  0.39341091  0.20252506  0.79273582  1
  Pd  Pd191  1  0.00601764  0.58921110  0.80702761  1
  Pd  Pd192  1  0.19466076  0.41102567  0.79070056  1
  Pd  Pd193  1  0.59137416  0.40849651  0.60513157  1
  Pd  Pd194  1  0.00723837  0.00029770  0.80801293  1
  Pd  Pd195  1  0.60621659  -0.01188271  0.79022129  1
  Pd  Pd196  1  0.40646536  0.59769599  0.00495425  1
  Pd  Pd197  1  0.19382513  0.61004787  0.40194438  1
  Pd  Pd198  1  0.60846482  0.60809257  0.19744779  1
  Pd  Pd199  1  0.39544304  0.60094003  0.40858794  1
  Rh  Rh200  1  0.79662928  -0.00814516  0.20744542  1
  Rh  Rh201  1  0.19974471  0.40293953  0.60661266  1
  Rh  Rh202  1  0.80682860  0.00765922  0.00647754  1
  Rh  Rh203  1  0.60822575  0.00318342  0.20136247  1
  Rh  Rh204  1  0.40792378  0.60118610  0.19497352  1
  Rh  Rh205  1  0.59965294  0.00487639  0.00431228  1
  Rh  Rh206  1  0.00113595  -0.00412993  0.39733337  1
  Rh  Rh207  1  0.80126756  -0.00451330  0.39444479  1
  Rh  Rh208  1  0.00045564  0.00298162  0.19809389  1
  Rh  Rh209  1  0.00423688  0.00400103  0.59815598  1
  Rh  Rh210  1  0.00174601  0.60971382  0.40537891  1
  Rh  Rh211  1  0.39654542  0.01403842  0.58143620  1
  Rh  Rh212  1  0.20367496  0.80463503  0.60831399  1
  Rh  Rh213  1  0.00797898  0.21106766  0.41041605  1
  Rh  Rh214  1  -0.00367952  0.20089186  0.19721767  1
  Rh  Rh215  1  -0.01320009  0.79602557  0.59072804  1
  Rh  Rh216  1  0.40738882  -0.00807371  0.81631853  1
  Rh  Rh217  1  0.60351277  0.18878794  0.00704809  1
  Rh  Rh218  1  -0.00725823  0.60445984  0.59520401  1
  Rh  Rh219  1  0.19047626  0.60559803  0.21115090  1
  Rh  Rh220  1  0.18865525  -0.00668368  0.21105522  1
  Rh  Rh221  1  0.20272616  0.59881408  0.60570720  1
  Rh  Rh222  1  0.79592405  0.19873877  0.40059484  1
  Rh  Rh223  1  0.59372537  0.00076222  0.40173987  1
  Rh  Rh224  1  0.79211532  -0.00098781  0.79534372  1
  Rh  Rh225  1  0.20496006  0.79492562  0.00257752  1
  Rh  Rh226  1  0.20320780  0.60280100  -0.00887276  1
  Rh  Rh227  1  0.19245289  0.79884591  0.39251174  1
  Rh  Rh228  1  0.81037109  0.39497064  0.59637968  1
  Rh  Rh229  1  -0.00774717  0.19535113  0.79527026  1
  Rh  Rh230  1  0.79372011  0.19411684  0.20927612  1
  Rh  Rh231  1  0.80467813  0.80803112  0.39324693  1
  Rh  Rh232  1  0.39199282  0.60725594  0.80341657  1
  Rh  Rh233  1  -0.00076528  0.80562259  0.80941590  1
  Rh  Rh234  1  0.80123272  0.19518383  -0.00627230  1
  Rh  Rh235  1  0.40270416  -0.01011155  0.20015832  1
  Rh  Rh236  1  0.20178730  0.39717070  0.39200960  1
  Rh  Rh237  1  0.78318240  0.39089111  0.80792047  1
  Rh  Rh238  1  0.19381764  0.19662219  0.39650574  1
  Rh  Rh239  1  0.79766920  0.40531110  0.39553066  1
  Rh  Rh240  1  0.60440415  0.20057607  0.20581655  1
  Rh  Rh241  1  0.80544263  0.39780625  0.19590601  1
  Rh  Rh242  1  0.00145412  0.39712627  0.39608672  1
  Rh  Rh243  1  0.19178125  -0.01510092  0.78792407  1
  Rh  Rh244  1  0.60129723  0.60049898  0.59869308  1
  Rh  Rh245  1  0.59868934  0.40731702  -0.00947374  1
  Rh  Rh246  1  0.60989727  0.80005283  -0.00147937  1
  Rh  Rh247  1  0.79551362  0.59928098  0.39725638  1
  Rh  Rh248  1  0.00965792  0.40783328  0.80292980  1
  Rh  Rh249  1  0.00327651  0.59576766  0.20334445  1
