# generated using pymatgen
data_ZrScNbPdRh
_symmetry_space_group_name_H-M   'P 1'
_cell_length_a   16.55663588
_cell_length_b   16.55710061
_cell_length_c   16.55146141
_cell_angle_alpha   89.98820409
_cell_angle_beta   90.04880739
_cell_angle_gamma   89.96857922
_symmetry_Int_Tables_number   1
_chemical_formula_structural   ZrScNbPdRh
_chemical_formula_sum   'Zr50 Sc50 Nb50 Pd50 Rh50'
_cell_volume   4537.24780412
_cell_formula_units_Z   50
loop_
 _symmetry_equiv_pos_site_id
 _symmetry_equiv_pos_as_xyz
  1  'x, y, z'
loop_
 _atom_site_type_symbol
 _atom_site_label
 _atom_site_symmetry_multiplicity
 _atom_site_fract_x
 _atom_site_fract_y
 _atom_site_fract_z
 _atom_site_occupancy
  Zr  Zr0  1  0.49619921  0.69836187  0.30286817  1
  Zr  Zr1  1  0.89794823  0.49539347  0.10245231  1
  Zr  Zr2  1  0.50525581  0.28954234  0.30870386  1
  Zr  Zr3  1  0.50272421  0.90076664  0.29190826  1
  Zr  Zr4  1  0.49973585  0.09496393  0.29693857  1
  Zr  Zr5  1  0.29934005  0.89796864  0.29848773  1
  Zr  Zr6  1  0.30243857  0.29850207  0.49820997  1
  Zr  Zr7  1  0.89667934  0.89769615  0.90498289  1
  Zr  Zr8  1  0.30055246  0.10426825  0.09550006  1
  Zr  Zr9  1  0.30077150  0.50042107  0.69065170  1
  Zr  Zr10  1  0.09918805  0.89543489  0.69341991  1
  Zr  Zr11  1  0.70296684  0.70356261  0.50497678  1
  Zr  Zr12  1  0.10149379  0.70318085  0.89868297  1
  Zr  Zr13  1  0.89221087  0.30751024  0.70433459  1
  Zr  Zr14  1  0.29884671  0.30605702  0.10121819  1
  Zr  Zr15  1  0.70058159  0.30049339  0.69304325  1
  Zr  Zr16  1  0.70330150  0.49827458  0.10545481  1
  Zr  Zr17  1  0.90570410  0.90304220  0.10145982  1
  Zr  Zr18  1  0.70020728  0.69546395  0.30078701  1
  Zr  Zr19  1  0.49978542  0.50374892  0.50755377  1
  Zr  Zr20  1  0.48999518  0.50007513  0.09446455  1
  Zr  Zr21  1  0.29861846  0.50019038  0.29185958  1
  Zr  Zr22  1  0.50223774  0.70295324  0.89672410  1
  Zr  Zr23  1  0.10419920  0.90383738  0.29514144  1
  Zr  Zr24  1  0.89710210  0.49834097  0.89078961  1
  Zr  Zr25  1  0.29981792  0.09970052  0.49716916  1
  Zr  Zr26  1  0.69333775  0.69511759  0.10442816  1
  Zr  Zr27  1  0.70414052  0.89663544  0.50178315  1
  Zr  Zr28  1  0.50211807  0.09638622  0.71012931  1
  Zr  Zr29  1  0.49851407  0.90421839  0.90220761  1
  Zr  Zr30  1  0.09514188  0.70916398  0.10730316  1
  Zr  Zr31  1  0.50945130  0.50654582  0.88990076  1
  Zr  Zr32  1  0.69016674  0.09855137  0.89711347  1
  Zr  Zr33  1  0.09989834  0.50445197  0.49736268  1
  Zr  Zr34  1  0.89618683  0.90696509  0.30381336  1
  Zr  Zr35  1  0.10603995  0.09388745  0.09759880  1
  Zr  Zr36  1  0.30531729  0.30384488  0.69682233  1
  Zr  Zr37  1  0.09756763  0.09203102  0.70235802  1
  Zr  Zr38  1  0.09551420  0.90103813  0.49628947  1
  Zr  Zr39  1  0.89316942  0.29307400  0.10101491  1
  Zr  Zr40  1  0.89604123  0.09847516  0.90524820  1
  Zr  Zr41  1  0.10264059  0.69208485  0.69754896  1
  Zr  Zr42  1  0.89815524  0.10508905  0.49225245  1
  Zr  Zr43  1  0.50257272  0.69857937  0.50259324  1
  Zr  Zr44  1  0.89934205  0.70598719  0.10433532  1
  Zr  Zr45  1  0.89293649  0.70595002  0.89882248  1
  Zr  Zr46  1  0.09676148  0.29362814  0.10318879  1
  Zr  Zr47  1  0.49768602  0.50138643  0.30306036  1
  Zr  Zr48  1  0.29841266  0.09999395  0.70819753  1
  Zr  Zr49  1  0.49463969  0.31017750  0.89722589  1
  Sc  Sc50  1  0.89506521  0.50687823  0.30608241  1
  Sc  Sc51  1  0.69744337  0.49078740  0.70531919  1
  Sc  Sc52  1  0.09808809  0.69650418  0.30097724  1
  Sc  Sc53  1  0.70609202  0.30180845  0.49385300  1
  Sc  Sc54  1  0.30593246  0.89734057  0.70193574  1
  Sc  Sc55  1  0.29477841  0.49766696  0.49967299  1
  Sc  Sc56  1  0.29228565  0.09858316  0.90466123  1
  Sc  Sc57  1  0.30792708  0.70597669  0.89478495  1
  Sc  Sc58  1  0.69503352  0.90390293  0.10165734  1
  Sc  Sc59  1  0.49760956  0.89925144  0.50082768  1
  Sc  Sc60  1  0.69321258  0.69806833  0.89431607  1
  Sc  Sc61  1  0.69985423  0.71160872  0.69953480  1
  Sc  Sc62  1  0.09664240  0.09987201  0.48673067  1
  Sc  Sc63  1  0.09997129  0.29862326  0.90542284  1
  Sc  Sc64  1  0.09861201  0.91366541  0.90544722  1
  Sc  Sc65  1  0.90350578  0.90043762  0.68933990  1
  Sc  Sc66  1  0.31659747  0.50331911  0.89840825  1
  Sc  Sc67  1  0.89960258  0.69935631  0.70123310  1
  Sc  Sc68  1  0.09361028  0.50298367  0.89256506  1
  Sc  Sc69  1  0.90105679  0.89563475  0.49707931  1
  Sc  Sc70  1  0.29729527  0.29391817  0.90446623  1
  Sc  Sc71  1  0.49673149  0.89534701  0.70308445  1
  Sc  Sc72  1  0.69543277  0.89301121  0.90069619  1
  Sc  Sc73  1  0.90250653  0.30297165  0.90695950  1
  Sc  Sc74  1  0.10126162  0.50730327  0.11534922  1
  Sc  Sc75  1  0.49136215  0.29829109  0.09666588  1
  Sc  Sc76  1  0.49461864  0.10245302  0.49182623  1
  Sc  Sc77  1  0.49800761  0.90390680  0.09902769  1
  Sc  Sc78  1  0.90084067  0.49665544  0.49160454  1
  Sc  Sc79  1  0.10786990  0.30792487  0.48973051  1
  Sc  Sc80  1  0.70100451  0.49008606  0.50166393  1
  Sc  Sc81  1  0.70553072  0.49920556  0.30445076  1
  Sc  Sc82  1  0.10668723  0.30067082  0.70529857  1
  Sc  Sc83  1  0.89644614  0.29162402  0.30943573  1
  Sc  Sc84  1  0.29499174  0.09363957  0.30365294  1
  Sc  Sc85  1  0.49752883  0.70282789  0.10062550  1
  Sc  Sc86  1  0.70044901  0.10011435  0.30110080  1
  Sc  Sc87  1  0.30035458  0.70277224  0.69799318  1
  Sc  Sc88  1  0.70731742  0.10334346  0.10279709  1
  Sc  Sc89  1  0.10439596  0.29289128  0.30379992  1
  Sc  Sc90  1  0.89861590  0.10058442  0.10688391  1
  Sc  Sc91  1  0.89602024  0.09888604  0.68933912  1
  Sc  Sc92  1  0.29932193  0.90457376  0.10555880  1
  Sc  Sc93  1  0.90012468  0.10243775  0.29711256  1
  Sc  Sc94  1  0.71000893  0.29899979  0.89142628  1
  Sc  Sc95  1  0.30388412  0.70177882  0.29997604  1
  Sc  Sc96  1  0.30114775  0.89333877  0.49583787  1
  Sc  Sc97  1  0.09473620  0.09967723  0.29842516  1
  Sc  Sc98  1  0.09718436  0.69878209  0.49932856  1
  Sc  Sc99  1  0.30677223  0.89728431  0.89828239  1
  Nb  Nb100  1  0.89654291  0.29883527  0.50478350  1
  Nb  Nb101  1  0.70257101  0.10355843  0.51188491  1
  Nb  Nb102  1  0.49959349  0.49002567  0.70152753  1
  Nb  Nb103  1  0.10016121  0.50334637  0.69199698  1
  Nb  Nb104  1  0.69839135  0.10230180  0.69917327  1
  Nb  Nb105  1  0.90472858  0.50097327  0.69697935  1
  Nb  Nb106  1  0.10024311  0.89799282  0.10368555  1
  Nb  Nb107  1  0.29759797  0.69941127  0.09761625  1
  Nb  Nb108  1  0.31704434  0.69812697  0.49296686  1
  Nb  Nb109  1  0.70476688  0.89854820  0.69257491  1
  Nb  Nb110  1  0.69585196  0.50439023  0.90372028  1
  Nb  Nb111  1  0.70098910  0.29867795  0.10103834  1
  Nb  Nb112  1  0.49716796  0.10137680  0.09317006  1
  Nb  Nb113  1  0.30119561  0.29910529  0.30215565  1
  Nb  Nb114  1  0.69821695  0.89889812  0.29980595  1
  Nb  Nb115  1  0.10525329  0.10404971  0.89467393  1
  Nb  Nb116  1  0.89630141  0.69390242  0.49282613  1
  Nb  Nb117  1  0.69895339  0.29566649  0.29496727  1
  Nb  Nb118  1  0.49795831  0.29890761  0.50419111  1
  Nb  Nb119  1  0.50507960  0.68909284  0.69413931  1
  Nb  Nb120  1  0.89040933  0.69862140  0.31012985  1
  Nb  Nb121  1  0.30042651  0.50244162  0.10092704  1
  Nb  Nb122  1  0.49838804  0.10141116  0.90513972  1
  Nb  Nb123  1  0.50043896  0.31130508  0.69796917  1
  Nb  Nb124  1  0.09713426  0.49573651  0.30855147  1
  Nb  Nb125  1  0.60536570  0.39780933  0.00286939  1
  Nb  Nb126  1  -0.00339482  0.60356665  0.00153799  1
  Nb  Nb127  1  -0.00020678  0.39949500  0.20709658  1
  Nb  Nb128  1  0.39965186  0.19801588  0.20265637  1
  Nb  Nb129  1  0.00227540  0.80267289  0.80034146  1
  Nb  Nb130  1  0.79760531  0.80130140  0.20753890  1
  Nb  Nb131  1  0.20062238  0.60157610  0.00411141  1
  Nb  Nb132  1  0.20199368  0.40705738  0.80050778  1
  Nb  Nb133  1  0.80082545  0.59825263  -0.00068200  1
  Nb  Nb134  1  0.59646918  0.20050535  0.60233060  1
  Nb  Nb135  1  0.60256118  0.39249680  0.19798283  1
  Nb  Nb136  1  0.40581714  0.20032552  0.80153391  1
  Nb  Nb137  1  0.79186548  -0.00141523  0.79259326  1
  Nb  Nb138  1  0.00090433  0.40151350  0.60213437  1
  Nb  Nb139  1  0.19699136  0.19510638  0.60026658  1
  Nb  Nb140  1  0.59792972  0.20332926  -0.00093037  1
  Nb  Nb141  1  0.80581795  0.59572293  0.60184581  1
  Nb  Nb142  1  0.19944334  0.00132822  0.59858099  1
  Nb  Nb143  1  0.60633746  0.00527725  0.60379055  1
  Nb  Nb144  1  0.19883540  0.79870743  0.00709505  1
  Nb  Nb145  1  0.00211620  0.19426651  0.79873568  1
  Nb  Nb146  1  0.00220088  0.20838791  0.59939217  1
  Nb  Nb147  1  0.60242565  0.80203857  0.39548756  1
  Nb  Nb148  1  0.40250316  0.39429099  0.40063243  1
  Nb  Nb149  1  0.20205796  0.41222563  0.00294426  1
  Pd  Pd150  1  0.00776604  0.39353211  0.79553634  1
  Pd  Pd151  1  -0.01286569  -0.00090444  0.80029298  1
  Pd  Pd152  1  0.60855345  0.19494076  0.41050088  1
  Pd  Pd153  1  0.59625094  0.80256017  0.79379516  1
  Pd  Pd154  1  0.78637248  0.79653457  0.00895568  1
  Pd  Pd155  1  0.20417483  -0.01100172  0.79873223  1
  Pd  Pd156  1  0.20030641  0.79276554  0.40164924  1
  Pd  Pd157  1  0.20788824  0.59314976  0.80667600  1
  Pd  Pd158  1  0.60603319  0.60095415  0.40477248  1
  Pd  Pd159  1  0.80172519  -0.00164757  0.59896420  1
  Pd  Pd160  1  0.79467435  0.40163081  -0.00708780  1
  Pd  Pd161  1  0.40341712  0.19442405  0.60741374  1
  Pd  Pd162  1  -0.00759805  0.59555136  0.20637581  1
  Pd  Pd163  1  0.39933906  -0.00713034  0.39954519  1
  Pd  Pd164  1  0.40115590  0.60398380  0.78938147  1
  Pd  Pd165  1  0.79077926  0.59801589  0.79541973  1
  Pd  Pd166  1  0.19099411  0.39760770  0.20107605  1
  Pd  Pd167  1  0.39891059  0.60746213  -0.00169716  1
  Pd  Pd168  1  0.79138260  -0.00058624  -0.00203895  1
  Pd  Pd169  1  0.00166981  0.19133963  -0.00325083  1
  Pd  Pd170  1  0.61314363  0.59335505  0.60809639  1
  Pd  Pd171  1  0.20561352  0.19492376  0.20573253  1
  Pd  Pd172  1  0.40895744  0.39122186  0.20793323  1
  Pd  Pd173  1  -0.00856787  0.80271076  0.21570108  1
  Pd  Pd174  1  0.60448405  -0.00218622  0.40921751  1
  Pd  Pd175  1  0.20583827  0.60461175  0.40064920  1
  Pd  Pd176  1  0.79523401  0.00649279  0.40113116  1
  Pd  Pd177  1  0.00107980  0.79708175  0.39527274  1
  Pd  Pd178  1  0.80881760  0.19299835  0.79877741  1
  Pd  Pd179  1  0.39363581  -0.00377976  -0.00061443  1
  Pd  Pd180  1  -0.00483616  0.39439438  0.39900992  1
  Pd  Pd181  1  0.59487406  0.19985222  0.19021738  1
  Pd  Pd182  1  -0.00169936  0.60700770  0.80157987  1
  Pd  Pd183  1  0.00157129  0.00650926  0.00335148  1
  Pd  Pd184  1  0.59833735  0.80013706  0.00373677  1
  Pd  Pd185  1  0.80331084  0.39318618  0.21189290  1
  Pd  Pd186  1  0.20846443  0.61070944  0.58850368  1
  Pd  Pd187  1  0.40136999  0.79713871  0.60279145  1
  Pd  Pd188  1  0.39751938  0.79865163  0.19474119  1
  Pd  Pd189  1  0.20636750  0.79854519  0.59185146  1
  Pd  Pd190  1  -0.00486705  0.78935119  0.60064027  1
  Pd  Pd191  1  0.19601153  0.80861233  0.80663808  1
  Pd  Pd192  1  0.40083681  -0.00069158  0.60000711  1
  Pd  Pd193  1  0.59285496  0.59056414  0.19942315  1
  Pd  Pd194  1  0.60490741  -0.01287159  0.79499955  1
  Pd  Pd195  1  0.01181840  0.41026899  0.01000119  1
  Pd  Pd196  1  0.20157661  0.60669930  0.20236046  1
  Pd  Pd197  1  0.59850786  0.39896893  0.39783363  1
  Pd  Pd198  1  0.60394505  0.00659682  0.19234509  1
  Pd  Pd199  1  0.59436151  0.21141823  0.80007620  1
  Rh  Rh200  1  0.40921792  0.80409613  0.39722097  1
  Rh  Rh201  1  0.59801420  0.39409819  0.59675502  1
  Rh  Rh202  1  0.80825753  0.81371033  0.79267239  1
  Rh  Rh203  1  0.60679105  0.39767020  0.80622103  1
  Rh  Rh204  1  -0.00259605  -0.00048140  0.39590043  1
  Rh  Rh205  1  0.01069232  0.80160148  -0.00801043  1
  Rh  Rh206  1  0.40874546  0.79299227  0.79491742  1
  Rh  Rh207  1  -0.00366803  0.20566372  0.20264889  1
  Rh  Rh208  1  0.60360102  0.80117291  0.20445716  1
  Rh  Rh209  1  0.19785770  -0.00385142  0.40290564  1
  Rh  Rh210  1  0.59270484  0.80805858  0.59766640  1
  Rh  Rh211  1  0.19971902  0.00232384  0.19944806  1
  Rh  Rh212  1  0.19502817  0.20626373  0.00026153  1
  Rh  Rh213  1  0.80028134  0.39490719  0.39713964  1
  Rh  Rh214  1  0.39548790  0.20191636  0.39326866  1
  Rh  Rh215  1  0.60267049  0.60133632  0.78973422  1
  Rh  Rh216  1  -0.00865570  0.59532473  0.59302743  1
  Rh  Rh217  1  0.39562949  0.80202308  0.00336019  1
  Rh  Rh218  1  0.80494678  0.60801909  0.19747371  1
  Rh  Rh219  1  0.20428357  0.79901943  0.19856407  1
  Rh  Rh220  1  0.80004837  0.20323924  0.59928468  1
  Rh  Rh221  1  0.39318648  0.58817773  0.40062116  1
  Rh  Rh222  1  0.60222991  0.59621198  0.00322825  1
  Rh  Rh223  1  0.20854721  0.40385938  0.39059823  1
  Rh  Rh224  1  0.39849856  0.00871792  0.19741681  1
  Rh  Rh225  1  0.60054087  0.00718176  0.00492078  1
  Rh  Rh226  1  0.79822315  -0.00506117  0.20137778  1
  Rh  Rh227  1  0.19079249  0.39410555  0.60574092  1
  Rh  Rh228  1  0.20177012  -0.00742023  0.00179440  1
  Rh  Rh229  1  0.40344890  0.19990879  -0.00165629  1
  Rh  Rh230  1  0.40299228  0.40462916  0.59143193  1
  Rh  Rh231  1  0.20175201  0.20790374  0.79926184  1
  Rh  Rh232  1  0.79734128  0.40468387  0.80182712  1
  Rh  Rh233  1  0.00075273  0.20425639  0.40505123  1
  Rh  Rh234  1  0.39973172  0.60674103  0.19697532  1
  Rh  Rh235  1  0.39886816  0.60001838  0.60205523  1
  Rh  Rh236  1  0.80768632  0.40779092  0.59746411  1
  Rh  Rh237  1  0.39719134  0.00582361  0.80897758  1
  Rh  Rh238  1  0.79347986  0.59458631  0.41255302  1
  Rh  Rh239  1  0.39198190  0.39854669  0.79952555  1
  Rh  Rh240  1  0.00050397  0.60286200  0.39767688  1
  Rh  Rh241  1  0.20111512  0.19670070  0.40138010  1
  Rh  Rh242  1  0.00366233  0.00862038  0.58642619  1
  Rh  Rh243  1  0.79523694  0.80121107  0.39667190  1
  Rh  Rh244  1  0.80030739  0.19978557  0.20436794  1
  Rh  Rh245  1  0.81064279  0.79064188  0.59896015  1
  Rh  Rh246  1  0.79426433  0.19852523  -0.00051291  1
  Rh  Rh247  1  0.00197676  0.00209020  0.19905506  1
  Rh  Rh248  1  0.79373490  0.19876724  0.39975892  1
  Rh  Rh249  1  0.39664018  0.40422794  -0.00439444  1
