# generated using pymatgen
data_ZrScNbPdRh
_symmetry_space_group_name_H-M   'P 1'
_cell_length_a   16.55590566
_cell_length_b   16.55102979
_cell_length_c   16.55076431
_cell_angle_alpha   90.02862310
_cell_angle_beta   89.99278913
_cell_angle_gamma   89.97045369
_symmetry_Int_Tables_number   1
_chemical_formula_structural   ZrScNbPdRh
_chemical_formula_sum   'Zr50 Sc50 Nb50 Pd50 Rh50'
_cell_volume   4535.19434139
_cell_formula_units_Z   50
loop_
 _symmetry_equiv_pos_site_id
 _symmetry_equiv_pos_as_xyz
  1  'x, y, z'
loop_
 _atom_site_type_symbol
 _atom_site_label
 _atom_site_symmetry_multiplicity
 _atom_site_fract_x
 _atom_site_fract_y
 _atom_site_fract_z
 _atom_site_occupancy
  Zr  Zr0  1  0.10354794  0.89584056  0.30588337  1
  Zr  Zr1  1  0.49683541  0.48890471  0.69951616  1
  Zr  Zr2  1  0.90206159  0.89902396  0.90350757  1
  Zr  Zr3  1  0.49952418  0.50232067  0.90680345  1
  Zr  Zr4  1  0.50134335  0.09152162  0.29892070  1
  Zr  Zr5  1  0.09627496  0.49498914  0.70200422  1
  Zr  Zr6  1  0.30527323  0.10075785  0.90280905  1
  Zr  Zr7  1  0.69660455  0.71307781  0.69736235  1
  Zr  Zr8  1  0.89725205  0.89365476  0.09654725  1
  Zr  Zr9  1  0.50756523  0.10024427  0.69894593  1
  Zr  Zr10  1  0.09397638  0.30621084  0.29605305  1
  Zr  Zr11  1  0.29713613  0.10529669  0.09776287  1
  Zr  Zr12  1  0.90302336  0.28766593  0.90241514  1
  Zr  Zr13  1  0.69600090  0.49502336  0.89667480  1
  Zr  Zr14  1  0.70757071  0.69770386  0.29540376  1
  Zr  Zr15  1  0.48534912  0.90377979  0.10243254  1
  Zr  Zr16  1  0.69484038  0.50790472  0.29574735  1
  Zr  Zr17  1  0.10321982  0.70173692  0.69545906  1
  Zr  Zr18  1  0.90405876  0.10155253  0.89063170  1
  Zr  Zr19  1  0.49591724  0.90053075  0.89659239  1
  Zr  Zr20  1  0.70551419  0.09367442  0.69880320  1
  Zr  Zr21  1  0.89115670  0.90979529  0.70315244  1
  Zr  Zr22  1  0.90925107  0.29614258  0.69420230  1
  Zr  Zr23  1  0.51078033  0.69759136  0.30276838  1
  Zr  Zr24  1  0.89966558  0.30153076  0.10625449  1
  Zr  Zr25  1  0.70414498  0.49494382  0.50539945  1
  Zr  Zr26  1  0.70519106  0.89915856  0.09667546  1
  Zr  Zr27  1  0.50232026  0.09986734  0.89592856  1
  Zr  Zr28  1  0.49113114  0.31403685  0.29246606  1
  Zr  Zr29  1  0.30238146  0.49228248  0.89807231  1
  Zr  Zr30  1  0.69431507  0.11599595  0.49463475  1
  Zr  Zr31  1  0.30752530  0.90209502  0.90246708  1
  Zr  Zr32  1  0.50425614  0.49138275  0.10990662  1
  Zr  Zr33  1  0.49233385  0.10281978  0.50192803  1
  Zr  Zr34  1  0.09773342  0.90192197  0.10031319  1
  Zr  Zr35  1  0.89671386  0.10630078  0.09302488  1
  Zr  Zr36  1  0.50144972  0.90494991  0.29817390  1
  Zr  Zr37  1  0.10169023  0.30013879  0.09029967  1
  Zr  Zr38  1  0.10408789  0.69879270  0.30571110  1
  Zr  Zr39  1  0.29443485  0.29504214  0.29860975  1
  Zr  Zr40  1  0.89991389  0.70491200  0.69813353  1
  Zr  Zr41  1  0.29833311  0.70259182  0.70256726  1
  Zr  Zr42  1  0.50595691  0.29646803  0.90216884  1
  Zr  Zr43  1  0.70141059  0.49331215  0.70324764  1
  Zr  Zr44  1  0.09741026  0.70019303  0.90409221  1
  Zr  Zr45  1  0.10240497  0.09426196  0.30209284  1
  Zr  Zr46  1  0.50538165  0.29948034  0.50494339  1
  Zr  Zr47  1  0.89635978  0.51401699  0.90027491  1
  Zr  Zr48  1  0.30252763  0.49815583  0.70372598  1
  Zr  Zr49  1  0.70135873  0.50816776  0.10078714  1
  Sc  Sc50  1  0.11182272  0.69572112  0.10397087  1
  Sc  Sc51  1  0.10109302  0.49788572  0.90281135  1
  Sc  Sc52  1  0.30087352  0.70282524  0.10283373  1
  Sc  Sc53  1  0.49660282  0.91049583  0.49940324  1
  Sc  Sc54  1  0.10880727  0.09451189  0.50256929  1
  Sc  Sc55  1  0.31054602  0.49275168  0.50241662  1
  Sc  Sc56  1  0.89993181  0.49606908  0.30061223  1
  Sc  Sc57  1  0.29866494  0.50067179  0.09377052  1
  Sc  Sc58  1  0.70372629  0.30478520  0.69762674  1
  Sc  Sc59  1  0.09968766  0.10878353  0.89921931  1
  Sc  Sc60  1  0.10365987  0.90234492  0.49537530  1
  Sc  Sc61  1  0.91319026  0.90689753  0.30291248  1
  Sc  Sc62  1  0.70334545  0.11386865  0.90150487  1
  Sc  Sc63  1  0.08791692  0.51159226  0.49718946  1
  Sc  Sc64  1  0.90120629  0.10576755  0.50508208  1
  Sc  Sc65  1  0.28660555  0.70060909  0.29770566  1
  Sc  Sc66  1  0.69988274  0.89652748  0.88947015  1
  Sc  Sc67  1  0.29576207  0.10108237  0.68725290  1
  Sc  Sc68  1  0.49631849  0.70241482  0.70844271  1
  Sc  Sc69  1  0.09963428  0.90138715  0.69122838  1
  Sc  Sc70  1  0.29512481  0.29997139  0.70808516  1
  Sc  Sc71  1  0.90788230  0.90185011  0.50154406  1
  Sc  Sc72  1  0.90109465  0.10521590  0.30644074  1
  Sc  Sc73  1  0.29754781  0.29737961  0.09964158  1
  Sc  Sc74  1  0.69629510  0.29502305  0.10400284  1
  Sc  Sc75  1  0.49101174  0.69614340  0.09476962  1
  Sc  Sc76  1  0.49801854  0.10362534  0.10184628  1
  Sc  Sc77  1  0.69987230  0.68669664  0.89847298  1
  Sc  Sc78  1  0.90179865  0.69838355  0.49918543  1
  Sc  Sc79  1  0.70557181  0.69799099  0.49826825  1
  Sc  Sc80  1  0.09992284  0.70757206  0.49475572  1
  Sc  Sc81  1  0.29866142  0.29743100  0.90177511  1
  Sc  Sc82  1  0.69313222  0.10829907  0.10500677  1
  Sc  Sc83  1  0.50073761  0.29671469  0.10274393  1
  Sc  Sc84  1  0.51146107  0.90297036  0.70747547  1
  Sc  Sc85  1  0.10534821  0.49514297  0.09808669  1
  Sc  Sc86  1  0.50547613  0.70077131  0.50379776  1
  Sc  Sc87  1  0.09722863  0.10568817  0.69668909  1
  Sc  Sc88  1  0.90070517  0.49978626  0.69535796  1
  Sc  Sc89  1  0.69815868  0.89318082  0.51152010  1
  Sc  Sc90  1  0.30923883  0.69869580  0.89785795  1
  Sc  Sc91  1  0.08561552  0.28905115  0.50653526  1
  Sc  Sc92  1  0.30216277  0.90038035  0.29598524  1
  Sc  Sc93  1  0.90147555  0.49756486  0.10314969  1
  Sc  Sc94  1  0.70104517  0.28242054  0.29405770  1
  Sc  Sc95  1  0.89506886  0.50464032  0.50279634  1
  Sc  Sc96  1  0.50284755  0.29817678  0.70195617  1
  Sc  Sc97  1  0.30302046  0.28570716  0.49763660  1
  Sc  Sc98  1  0.29959299  0.49013889  0.30106502  1
  Sc  Sc99  1  0.88962650  0.69761814  0.09341048  1
  Nb  Nb100  1  0.70143901  0.70139293  0.10777601  1
  Nb  Nb101  1  0.90837520  0.70137735  0.90238904  1
  Nb  Nb102  1  0.70401835  0.30197898  0.89923228  1
  Nb  Nb103  1  0.29584038  0.90548321  0.50629507  1
  Nb  Nb104  1  0.30047538  0.08948661  0.49286317  1
  Nb  Nb105  1  0.90211559  0.09875504  0.70659342  1
  Nb  Nb106  1  0.29224020  0.89453616  0.69848266  1
  Nb  Nb107  1  0.70349598  0.89639796  0.70093834  1
  Nb  Nb108  1  0.90205764  0.29950788  0.30012712  1
  Nb  Nb109  1  0.49864328  0.70695108  0.90316609  1
  Nb  Nb110  1  0.69766845  0.90104631  0.29610735  1
  Nb  Nb111  1  0.49978225  0.49326073  0.49999212  1
  Nb  Nb112  1  0.09671468  0.90341328  0.90052008  1
  Nb  Nb113  1  0.10235062  0.30159125  0.69957554  1
  Nb  Nb114  1  0.29998188  0.90427234  0.09846577  1
  Nb  Nb115  1  0.50073426  0.49938387  0.30322167  1
  Nb  Nb116  1  0.70113384  0.30093070  0.49837259  1
  Nb  Nb117  1  0.10145708  0.50254692  0.29906533  1
  Nb  Nb118  1  0.10094746  0.30151150  0.89057606  1
  Nb  Nb119  1  0.29923113  0.70109578  0.50017138  1
  Nb  Nb120  1  0.69459350  0.09238849  0.29734845  1
  Nb  Nb121  1  0.10037037  0.10386801  0.10048018  1
  Nb  Nb122  1  0.29656451  0.10216109  0.30600938  1
  Nb  Nb123  1  0.89786502  0.70310822  0.29538032  1
  Nb  Nb124  1  0.89144675  0.29445015  0.49063133  1
  Nb  Nb125  1  -0.00177303  0.80276395  0.80425372  1
  Nb  Nb126  1  0.39219475  0.80522536  0.59879393  1
  Nb  Nb127  1  0.59741562  0.59195135  0.60291874  1
  Nb  Nb128  1  0.79196040  -0.00042000  0.39639670  1
  Nb  Nb129  1  0.59836805  -0.00400201  -0.00167295  1
  Nb  Nb130  1  0.60340496  0.80119981  0.19435773  1
  Nb  Nb131  1  0.79647467  0.38997753  0.39871154  1
  Nb  Nb132  1  0.80082625  0.80652545  0.39130376  1
  Nb  Nb133  1  0.00442692  0.60224079  0.20620368  1
  Nb  Nb134  1  0.39535240  0.79705815  0.40643025  1
  Nb  Nb135  1  0.00188503  0.20314749  0.19858108  1
  Nb  Nb136  1  0.40351789  0.60064758  0.39934987  1
  Nb  Nb137  1  0.20021354  -0.00459980  0.80096170  1
  Nb  Nb138  1  0.00051860  0.00304662  -0.00067223  1
  Nb  Nb139  1  0.79756189  0.39826156  -0.00480195  1
  Nb  Nb140  1  0.19352820  0.39991082  0.59741506  1
  Nb  Nb141  1  0.79692785  0.00082545  0.20583162  1
  Nb  Nb142  1  0.20217180  0.80922985  -0.00199502  1
  Nb  Nb143  1  -0.00055951  0.79235912  0.20073693  1
  Nb  Nb144  1  0.59868057  0.79954156  0.00269031  1
  Nb  Nb145  1  0.40260232  0.59455622  0.20923749  1
  Nb  Nb146  1  0.20516296  0.59670611  0.59941299  1
  Nb  Nb147  1  0.20150152  0.00396347  0.19589254  1
  Nb  Nb148  1  0.19102147  0.39875345  0.40602267  1
  Nb  Nb149  1  0.60294670  0.39968279  0.40056904  1
  Pd  Pd150  1  -0.00365464  0.00433125  0.19366858  1
  Pd  Pd151  1  0.39174989  0.00065055  0.78635502  1
  Pd  Pd152  1  0.19805623  0.59581407  0.80078170  1
  Pd  Pd153  1  0.59974170  0.59377137  0.41308313  1
  Pd  Pd154  1  0.59429149  0.60144408  0.79376048  1
  Pd  Pd155  1  0.38971958  0.38587540  0.60035060  1
  Pd  Pd156  1  0.60481387  0.00084603  0.59578816  1
  Pd  Pd157  1  0.79785864  0.00145528  0.58817636  1
  Pd  Pd158  1  0.00174336  0.59988019  0.01494288  1
  Pd  Pd159  1  0.79489028  0.00896298  -0.00170364  1
  Pd  Pd160  1  0.61011993  0.20406513  0.79404192  1
  Pd  Pd161  1  0.20171501  0.40307485  0.19986446  1
  Pd  Pd162  1  0.19393919  0.80581351  0.80799747  1
  Pd  Pd163  1  0.39981618  -0.00610478  0.60953846  1
  Pd  Pd164  1  -0.00672788  0.40072697  0.80669758  1
  Pd  Pd165  1  0.80375912  0.79257351  0.80754315  1
  Pd  Pd166  1  0.81249044  0.39474579  0.80420861  1
  Pd  Pd167  1  0.78930838  0.78890374  -0.01168883  1
  Pd  Pd168  1  0.79321807  0.40006530  0.20329215  1
  Pd  Pd169  1  0.80034863  0.20199339  0.60531695  1
  Pd  Pd170  1  0.19400080  0.00149030  -0.00199831  1
  Pd  Pd171  1  -0.00897472  0.60245283  0.39460074  1
  Pd  Pd172  1  -0.00409271  0.40325231  0.40693067  1
  Pd  Pd173  1  0.00110839  0.60412034  0.79508419  1
  Pd  Pd174  1  0.39726479  0.20036598  0.79452357  1
  Pd  Pd175  1  0.59705266  0.60634634  0.00546506  1
  Pd  Pd176  1  0.39602632  0.20320663  0.60630023  1
  Pd  Pd177  1  0.79975332  0.60570100  0.79242693  1
  Pd  Pd178  1  0.58889969  0.20793126  0.38994580  1
  Pd  Pd179  1  0.40103340  0.19675297  0.20244849  1
  Pd  Pd180  1  0.79461918  0.60466630  0.60664482  1
  Pd  Pd181  1  0.60629321  0.39389281  0.00441029  1
  Pd  Pd182  1  -0.00234020  0.40068550  0.58868839  1
  Pd  Pd183  1  0.00496410  0.19306732  0.39799396  1
  Pd  Pd184  1  0.40694792  0.59965931  0.80430079  1
  Pd  Pd185  1  0.40229574  0.78843758  0.20961463  1
  Pd  Pd186  1  0.58870388  0.79969580  0.60120504  1
  Pd  Pd187  1  0.00388086  0.00460064  0.59893514  1
  Pd  Pd188  1  0.20981678  0.58782127  0.40841584  1
  Pd  Pd189  1  0.60668477  -0.00397173  0.41212231  1
  Pd  Pd190  1  0.40337845  0.60718835  0.59474334  1
  Pd  Pd191  1  0.20023029  0.19218434  0.79848373  1
  Pd  Pd192  1  0.79291780  0.00408682  0.80921635  1
  Pd  Pd193  1  0.19115212  0.20562665  0.40670417  1
  Pd  Pd194  1  0.20830011  0.60630492  -0.00275246  1
  Pd  Pd195  1  0.60242409  0.80594725  0.40057885  1
  Pd  Pd196  1  0.40022604  0.39269470  0.00481742  1
  Pd  Pd197  1  0.40664474  0.19974637  0.39405334  1
  Pd  Pd198  1  -0.00660306  0.40441894  -0.00682073  1
  Pd  Pd199  1  -0.00200093  0.80468665  0.60291145  1
  Rh  Rh200  1  0.59029681  0.60806980  0.19041168  1
  Rh  Rh201  1  0.81062774  0.39277239  0.59281209  1
  Rh  Rh202  1  0.20354888  0.59106150  0.20164683  1
  Rh  Rh203  1  0.19745948  0.39948390  0.79842260  1
  Rh  Rh204  1  0.40730777  0.01020817  0.00356275  1
  Rh  Rh205  1  0.20087202  0.39541754  -0.00810852  1
  Rh  Rh206  1  0.39308452  -0.00548512  0.39714571  1
  Rh  Rh207  1  0.38978935  0.40554625  0.19394332  1
  Rh  Rh208  1  0.60180536  0.40022500  0.59828414  1
  Rh  Rh209  1  0.79832346  0.59847351  0.00117638  1
  Rh  Rh210  1  0.00288757  0.40361719  0.19910975  1
  Rh  Rh211  1  0.81184699  0.59470252  0.19929792  1
  Rh  Rh212  1  0.59555735  0.39491615  0.80169521  1
  Rh  Rh213  1  0.00556607  0.20161952  0.79341875  1
  Rh  Rh214  1  0.19940203  0.00167715  0.60475190  1
  Rh  Rh215  1  0.39601673  0.79581038  -0.00008486  1
  Rh  Rh216  1  0.80099782  0.20281637  0.79044738  1
  Rh  Rh217  1  0.80761556  0.80498591  0.59128260  1
  Rh  Rh218  1  0.20163759  0.79566160  0.59172940  1
  Rh  Rh219  1  0.19305466  0.19411200  0.20283979  1
  Rh  Rh220  1  0.20982464  0.80852222  0.40530659  1
  Rh  Rh221  1  0.80749585  0.19062758  0.20522041  1
  Rh  Rh222  1  0.61039014  0.00363878  0.80472102  1
  Rh  Rh223  1  0.60029369  0.19653756  -0.00062324  1
  Rh  Rh224  1  0.79264538  0.20963480  0.00288098  1
  Rh  Rh225  1  0.00515079  0.60486175  0.60171193  1
  Rh  Rh226  1  0.40318037  0.80515089  0.79256711  1
  Rh  Rh227  1  0.60921714  0.39464379  0.20687924  1
  Rh  Rh228  1  0.80470931  0.80928862  0.20679620  1
  Rh  Rh229  1  0.60054833  0.79617927  0.80701307  1
  Rh  Rh230  1  0.79833496  0.19760743  0.39358674  1
  Rh  Rh231  1  0.00757190  0.19748973  0.00180849  1
  Rh  Rh232  1  0.00889815  0.80014411  0.00288144  1
  Rh  Rh233  1  0.40621790  0.39306240  0.80678107  1
  Rh  Rh234  1  -0.00589426  0.00647518  0.41073794  1
  Rh  Rh235  1  0.20781005  -0.00496929  0.39364757  1
  Rh  Rh236  1  0.60528076  -0.00540449  0.18649377  1
  Rh  Rh237  1  0.60430490  0.20184749  0.60660969  1
  Rh  Rh238  1  0.20096215  0.20485105  0.59620089  1
  Rh  Rh239  1  0.40256784  0.20104139  0.00028950  1
  Rh  Rh240  1  0.80510132  0.60124018  0.39529218  1
  Rh  Rh241  1  0.00712896  -0.00335621  0.80085258  1
  Rh  Rh242  1  0.58913873  0.19913065  0.20535671  1
  Rh  Rh243  1  0.38632066  0.01169172  0.20344917  1
  Rh  Rh244  1  -0.00736949  0.79795231  0.39522700  1
  Rh  Rh245  1  0.19674126  0.20431116  -0.00722502  1
  Rh  Rh246  1  0.19652802  0.81076594  0.19201790  1
  Rh  Rh247  1  0.39939172  0.59732022  0.00354630  1
  Rh  Rh248  1  0.39982566  0.39993494  0.40310118  1
  Rh  Rh249  1  -0.00222624  0.19370280  0.60275562  1
