# generated using pymatgen
data_ZrScNbPdRh
_symmetry_space_group_name_H-M   'P 1'
_cell_length_a   16.55664376
_cell_length_b   16.55163184
_cell_length_c   16.55438801
_cell_angle_alpha   89.99668353
_cell_angle_beta   89.99334054
_cell_angle_gamma   89.98717853
_symmetry_Int_Tables_number   1
_chemical_formula_structural   ZrScNbPdRh
_chemical_formula_sum   'Zr50 Sc50 Nb50 Pd50 Rh50'
_cell_volume   4536.55559694
_cell_formula_units_Z   50
loop_
 _symmetry_equiv_pos_site_id
 _symmetry_equiv_pos_as_xyz
  1  'x, y, z'
loop_
 _atom_site_type_symbol
 _atom_site_label
 _atom_site_symmetry_multiplicity
 _atom_site_fract_x
 _atom_site_fract_y
 _atom_site_fract_z
 _atom_site_occupancy
  Zr  Zr0  1  0.50359534  0.50666662  0.50671493  1
  Zr  Zr1  1  0.50289633  0.10881111  0.69929664  1
  Zr  Zr2  1  0.89038669  0.49691058  0.50131651  1
  Zr  Zr3  1  0.70471981  0.69765673  0.70445559  1
  Zr  Zr4  1  0.10657258  0.50095804  0.89380675  1
  Zr  Zr5  1  0.30261966  0.10263932  0.89401443  1
  Zr  Zr6  1  0.50455429  0.10523375  0.30159955  1
  Zr  Zr7  1  0.89552024  0.29457258  0.49669897  1
  Zr  Zr8  1  0.49962239  0.10587911  0.10915141  1
  Zr  Zr9  1  0.10574475  0.70171153  0.49105229  1
  Zr  Zr10  1  0.89783257  0.70326239  0.09207839  1
  Zr  Zr11  1  0.30377660  0.89905459  0.10466139  1
  Zr  Zr12  1  0.49490957  0.70093814  0.89912915  1
  Zr  Zr13  1  0.29435783  0.30734195  0.31154113  1
  Zr  Zr14  1  0.49904261  0.29750084  0.30089143  1
  Zr  Zr15  1  0.29934901  0.09995618  0.50421713  1
  Zr  Zr16  1  0.70104792  0.30287594  0.09487873  1
  Zr  Zr17  1  0.30614879  0.30362544  0.70462806  1
  Zr  Zr18  1  0.70713183  0.90284801  0.70643665  1
  Zr  Zr19  1  0.88902126  0.28936786  0.90357887  1
  Zr  Zr20  1  0.89512155  0.09249213  0.69451560  1
  Zr  Zr21  1  0.69997936  0.10178494  0.48967723  1
  Zr  Zr22  1  0.89901773  0.89480498  0.68770421  1
  Zr  Zr23  1  0.89959605  0.30023290  0.29757888  1
  Zr  Zr24  1  0.89471502  0.89651084  0.91043276  1
  Zr  Zr25  1  0.50595932  0.49645346  0.89547068  1
  Zr  Zr26  1  0.30096544  0.70254585  0.70175456  1
  Zr  Zr27  1  0.89800248  0.10690876  0.30729129  1
  Zr  Zr28  1  0.10115573  0.09625686  0.90205089  1
  Zr  Zr29  1  0.50559149  0.30363558  0.10315829  1
  Zr  Zr30  1  0.70776056  0.10271430  0.89364346  1
  Zr  Zr31  1  0.50107177  0.69840001  0.30455787  1
  Zr  Zr32  1  0.70941275  0.69305760  0.10082632  1
  Zr  Zr33  1  0.69695045  0.70447825  0.30527473  1
  Zr  Zr34  1  0.90916924  0.68500308  0.29886488  1
  Zr  Zr35  1  0.50331729  0.49183930  0.09845682  1
  Zr  Zr36  1  0.29980176  0.30159443  0.49507661  1
  Zr  Zr37  1  0.10066860  0.49891401  0.50492972  1
  Zr  Zr38  1  0.49938189  0.69702503  0.49855557  1
  Zr  Zr39  1  0.49514252  0.50362914  0.29333243  1
  Zr  Zr40  1  0.09842186  0.31276488  0.69796162  1
  Zr  Zr41  1  0.30715224  0.50579795  0.09646200  1
  Zr  Zr42  1  0.50872102  0.30599683  0.69761804  1
  Zr  Zr43  1  0.09607076  0.30108913  0.29880472  1
  Zr  Zr44  1  0.30010281  0.69760248  0.30340339  1
  Zr  Zr45  1  0.89820560  0.30104823  0.69810349  1
  Zr  Zr46  1  0.30049495  0.70433232  0.50213853  1
  Zr  Zr47  1  0.71443087  0.89519523  0.10349627  1
  Zr  Zr48  1  0.69855397  0.09153968  0.30014399  1
  Zr  Zr49  1  0.49379356  0.89812030  0.50527670  1
  Sc  Sc50  1  0.09891436  0.10125563  0.28716049  1
  Sc  Sc51  1  0.88992193  0.89740378  0.30079296  1
  Sc  Sc52  1  0.30233423  0.90975757  0.69589859  1
  Sc  Sc53  1  0.10722322  0.69282358  0.69886341  1
  Sc  Sc54  1  0.29441475  0.89910907  0.29662893  1
  Sc  Sc55  1  0.30087620  0.49502103  0.90226080  1
  Sc  Sc56  1  0.10304086  0.30156533  0.50310620  1
  Sc  Sc57  1  0.89283349  0.50509389  0.11472275  1
  Sc  Sc58  1  0.49884107  0.89439971  0.10338725  1
  Sc  Sc59  1  0.50549246  0.09881841  0.89421083  1
  Sc  Sc60  1  0.30487603  0.30062119  0.08813667  1
  Sc  Sc61  1  0.08838738  0.51162883  0.30397211  1
  Sc  Sc62  1  0.10304750  0.90340651  0.69483893  1
  Sc  Sc63  1  0.08899523  0.70765944  0.10490354  1
  Sc  Sc64  1  0.90858508  0.09562962  0.09362469  1
  Sc  Sc65  1  0.10471192  0.89758663  0.29746619  1
  Sc  Sc66  1  0.29453259  0.10343127  0.29844487  1
  Sc  Sc67  1  0.89814031  0.49512270  0.70040152  1
  Sc  Sc68  1  0.29887616  0.10587850  0.10622701  1
  Sc  Sc69  1  0.69634698  0.69635497  0.49830276  1
  Sc  Sc70  1  0.30575281  0.69202831  0.90306454  1
  Sc  Sc71  1  0.49870412  0.68815948  0.70071979  1
  Sc  Sc72  1  0.09416576  0.90162966  0.90358131  1
  Sc  Sc73  1  0.10487289  0.09585649  0.69525373  1
  Sc  Sc74  1  0.10600555  0.89321950  0.50012111  1
  Sc  Sc75  1  0.90349498  0.30175194  0.09842845  1
  Sc  Sc76  1  0.70012511  0.50364124  0.50202411  1
  Sc  Sc77  1  0.71811188  0.69438648  0.89475266  1
  Sc  Sc78  1  0.69456035  0.30409237  0.50178776  1
  Sc  Sc79  1  0.09408096  0.29839302  0.09935301  1
  Sc  Sc80  1  0.69240062  0.49816988  0.70300367  1
  Sc  Sc81  1  0.69919688  0.09256590  0.10197041  1
  Sc  Sc82  1  0.08936778  0.90314469  0.10401629  1
  Sc  Sc83  1  0.09915344  0.10020125  0.50543317  1
  Sc  Sc84  1  0.89201833  0.49860425  0.89302239  1
  Sc  Sc85  1  0.70268607  0.30409825  0.89641056  1
  Sc  Sc86  1  0.50468108  0.89423469  0.29883641  1
  Sc  Sc87  1  0.48746649  0.90685748  0.70795090  1
  Sc  Sc88  1  0.10061419  0.69329896  0.89830878  1
  Sc  Sc89  1  0.31024102  0.70167048  0.09705389  1
  Sc  Sc90  1  0.50410705  0.10727530  0.49405656  1
  Sc  Sc91  1  0.49527514  0.69728057  0.10401510  1
  Sc  Sc92  1  0.50247702  0.49896971  0.70023544  1
  Sc  Sc93  1  0.29508726  0.50120188  0.70336909  1
  Sc  Sc94  1  0.31183872  0.89968617  0.88803313  1
  Sc  Sc95  1  0.49543981  0.30306028  0.89540462  1
  Sc  Sc96  1  0.69846817  0.29837553  0.30070410  1
  Sc  Sc97  1  0.70873793  0.89376457  0.48658033  1
  Sc  Sc98  1  0.10012792  0.30844601  0.90694786  1
  Sc  Sc99  1  0.29886271  0.50313281  0.49225238  1
  Nb  Nb100  1  0.29582614  0.50205273  0.29638255  1
  Nb  Nb101  1  0.69624293  0.10456010  0.69890035  1
  Nb  Nb102  1  0.09898948  0.50210986  0.09490600  1
  Nb  Nb103  1  0.69674777  0.49826435  0.09877088  1
  Nb  Nb104  1  0.90024593  0.69701080  0.89752761  1
  Nb  Nb105  1  0.09424367  0.49961353  0.70225920  1
  Nb  Nb106  1  0.30266092  0.90139789  0.50127645  1
  Nb  Nb107  1  0.90622114  0.89876040  0.50042606  1
  Nb  Nb108  1  0.90535885  0.89157862  0.09315853  1
  Nb  Nb109  1  0.69219106  0.28564405  0.69922387  1
  Nb  Nb110  1  0.10295622  0.09550138  0.09946146  1
  Nb  Nb111  1  0.90280914  0.10203492  0.89696031  1
  Nb  Nb112  1  0.10394303  0.69824336  0.30161252  1
  Nb  Nb113  1  0.70407197  0.50139750  0.30005780  1
  Nb  Nb114  1  0.89824941  0.09572508  0.49797351  1
  Nb  Nb115  1  0.70230221  0.89657002  0.30153345  1
  Nb  Nb116  1  0.50189390  0.89750617  0.90455369  1
  Nb  Nb117  1  0.30021253  0.29998886  0.89340222  1
  Nb  Nb118  1  0.89507678  0.70296520  0.70621216  1
  Nb  Nb119  1  0.49887003  0.30286906  0.49824069  1
  Nb  Nb120  1  0.90337130  0.71125881  0.50568522  1
  Nb  Nb121  1  0.69708599  0.50073255  0.90396140  1
  Nb  Nb122  1  0.89053857  0.49566008  0.30631848  1
  Nb  Nb123  1  0.69292394  0.90355189  0.90515974  1
  Nb  Nb124  1  0.30543713  0.09940379  0.70324382  1
  Nb  Nb125  1  0.00091814  0.19577839  0.80041534  1
  Nb  Nb126  1  -0.00594360  0.60587640  0.60185724  1
  Nb  Nb127  1  0.59468421  0.40518920  0.39798179  1
  Nb  Nb128  1  -0.00699409  -0.00054919  0.80073593  1
  Nb  Nb129  1  0.60628679  0.79752387  -0.00482650  1
  Nb  Nb130  1  0.39566143  -0.00109194  0.40322987  1
  Nb  Nb131  1  0.19932981  0.20296901  0.79908500  1
  Nb  Nb132  1  0.40103603  0.00110502  0.00089080  1
  Nb  Nb133  1  0.19602672  0.59978995  0.19972203  1
  Nb  Nb134  1  0.19850389  0.80113101  0.80286649  1
  Nb  Nb135  1  0.60466773  -0.00126113  0.60117994  1
  Nb  Nb136  1  0.40140923  0.20540707  0.59919498  1
  Nb  Nb137  1  0.19805611  0.41061726  0.19887446  1
  Nb  Nb138  1  -0.00339381  0.59739371  -0.00118108  1
  Nb  Nb139  1  0.60152737  0.19970818  0.00049746  1
  Nb  Nb140  1  0.80197720  0.19696353  0.19966211  1
  Nb  Nb141  1  -0.00379749  0.79781584  0.79819165  1
  Nb  Nb142  1  -0.00851734  0.40195518  0.39960367  1
  Nb  Nb143  1  0.60021535  0.80564081  0.60762834  1
  Nb  Nb144  1  0.20519954  -0.00207417  0.00228101  1
  Nb  Nb145  1  -0.00573652  -0.00155524  0.40544461  1
  Nb  Nb146  1  0.20207408  0.80597138  -0.00343747  1
  Nb  Nb147  1  0.60684801  0.59911267  -0.00108531  1
  Nb  Nb148  1  0.79578014  0.19363397  0.60023115  1
  Nb  Nb149  1  0.60112078  0.80336130  0.80506041  1
  Pd  Pd150  1  0.20575896  0.20220264  0.60801435  1
  Pd  Pd151  1  0.59247528  -0.01037402  0.40403586  1
  Pd  Pd152  1  0.59567771  -0.00224881  0.79420477  1
  Pd  Pd153  1  0.00308949  0.19967679  -0.00114076  1
  Pd  Pd154  1  0.79040239  0.00106834  0.58818237  1
  Pd  Pd155  1  0.19231368  0.61309543  0.00954160  1
  Pd  Pd156  1  0.19835963  0.19767367  -0.00222419  1
  Pd  Pd157  1  -0.00669970  0.80286979  0.20954365  1
  Pd  Pd158  1  0.20182823  0.21282940  0.19466220  1
  Pd  Pd159  1  0.79050646  0.39905428  0.79343900  1
  Pd  Pd160  1  0.78850241  0.39229135  0.60634738  1
  Pd  Pd161  1  0.40961862  0.19575317  -0.00510865  1
  Pd  Pd162  1  -0.00222514  0.60286850  0.79764685  1
  Pd  Pd163  1  0.38919689  0.39210482  0.19866629  1
  Pd  Pd164  1  0.19901271  0.59698921  0.60144556  1
  Pd  Pd165  1  0.59876883  -0.01125554  0.19811559  1
  Pd  Pd166  1  0.40632858  0.41052750  0.40178655  1
  Pd  Pd167  1  0.19086747  0.19164661  0.39978376  1
  Pd  Pd168  1  0.39650931  0.40276733  0.59904165  1
  Pd  Pd169  1  0.20034207  -0.00306824  0.59853807  1
  Pd  Pd170  1  0.39533017  0.80725830  0.39391935  1
  Pd  Pd171  1  0.40076280  0.00028399  0.20654977  1
  Pd  Pd172  1  0.20616500  0.40540771  0.60110544  1
  Pd  Pd173  1  -0.00497564  0.39276516  0.80937733  1
  Pd  Pd174  1  0.19976085  0.79307154  0.19202434  1
  Pd  Pd175  1  -0.00378304  0.19805317  0.60464922  1
  Pd  Pd176  1  -0.00702000  -0.00342908  0.20829769  1
  Pd  Pd177  1  0.39498537  0.59189210  0.80078600  1
  Pd  Pd178  1  0.80344402  0.60227828  0.60400634  1
  Pd  Pd179  1  0.60267175  0.59982982  0.19614053  1
  Pd  Pd180  1  0.19587531  0.00100609  0.39843033  1
  Pd  Pd181  1  -0.00054758  0.80697281  0.39131615  1
  Pd  Pd182  1  0.20298795  0.39868030  0.00480070  1
  Pd  Pd183  1  0.80301074  0.00512819  0.00289428  1
  Pd  Pd184  1  0.59329770  0.00001205  0.00807175  1
  Pd  Pd185  1  -0.01044388  0.41056844  -0.00310560  1
  Pd  Pd186  1  0.00424787  0.40931599  0.20504659  1
  Pd  Pd187  1  0.79979029  0.60852137  0.40296173  1
  Pd  Pd188  1  0.00967660  0.19841819  0.40417574  1
  Pd  Pd189  1  0.80595123  -0.00443096  0.80517597  1
  Pd  Pd190  1  0.60172445  0.79938595  0.19258071  1
  Pd  Pd191  1  0.80714955  0.40799332  0.00360390  1
  Pd  Pd192  1  0.80877105  0.79197569  0.20746093  1
  Pd  Pd193  1  0.81119212  0.00329927  0.19757219  1
  Pd  Pd194  1  0.79457973  0.39458073  0.20002547  1
  Pd  Pd195  1  0.38894702  0.20884564  0.20633855  1
  Pd  Pd196  1  0.40543003  0.79714845  0.61012629  1
  Pd  Pd197  1  0.79050502  0.79648601  0.59208771  1
  Pd  Pd198  1  0.01152059  0.79226390  0.60705370  1
  Pd  Pd199  1  -0.00482702  0.59529033  0.41242351  1
  Rh  Rh200  1  0.60266778  0.60697807  0.60504824  1
  Rh  Rh201  1  0.20159800  0.59798006  0.39445852  1
  Rh  Rh202  1  0.20409133  0.80342164  0.60609821  1
  Rh  Rh203  1  -0.00441130  0.19528397  0.19018832  1
  Rh  Rh204  1  0.41416025  0.59224452  -0.00171111  1
  Rh  Rh205  1  0.39961899  0.80818469  0.00017950  1
  Rh  Rh206  1  0.20403746  0.80323638  0.39988863  1
  Rh  Rh207  1  0.60220371  0.59105013  0.39593982  1
  Rh  Rh208  1  0.79579394  0.59987031  0.20701771  1
  Rh  Rh209  1  0.00467863  0.59838260  0.19280171  1
  Rh  Rh210  1  0.40736337  0.01328016  0.59210686  1
  Rh  Rh211  1  0.39477221  0.59720019  0.60015926  1
  Rh  Rh212  1  0.60092947  0.20491790  0.81292539  1
  Rh  Rh213  1  0.60502530  0.60605554  0.80804386  1
  Rh  Rh214  1  0.19623755  -0.00024976  0.80261993  1
  Rh  Rh215  1  -0.00271593  0.40860634  0.59282681  1
  Rh  Rh216  1  0.60080029  0.39786859  -0.00660925  1
  Rh  Rh217  1  0.60493955  0.39523964  0.79904345  1
  Rh  Rh218  1  0.61294285  0.20097794  0.19275968  1
  Rh  Rh219  1  0.40185678  0.79523708  0.20667971  1
  Rh  Rh220  1  0.40003325  0.79748518  0.79677056  1
  Rh  Rh221  1  0.80318712  0.59015779  -0.00123689  1
  Rh  Rh222  1  0.39740373  0.19268333  0.40383561  1
  Rh  Rh223  1  0.00378308  -0.00325478  0.59406438  1
  Rh  Rh224  1  0.79419529  0.39789792  0.39794901  1
  Rh  Rh225  1  0.60705364  0.40396334  0.21119239  1
  Rh  Rh226  1  0.59887147  0.80224338  0.40654132  1
  Rh  Rh227  1  0.40026784  0.39844908  -0.00585265  1
  Rh  Rh228  1  0.40569078  0.00604450  0.80629913  1
  Rh  Rh229  1  0.80090177  0.58976070  0.79497336  1
  Rh  Rh230  1  0.39945770  0.20148170  0.79404298  1
  Rh  Rh231  1  0.80706010  0.79245704  0.39853325  1
  Rh  Rh232  1  0.60295214  0.40251312  0.59456981  1
  Rh  Rh233  1  0.80392471  0.20129188  0.78987573  1
  Rh  Rh234  1  0.79220241  0.19141719  0.00952786  1
  Rh  Rh235  1  0.79310321  0.20390324  0.39938094  1
  Rh  Rh236  1  0.18520504  0.40939245  0.39094822  1
  Rh  Rh237  1  0.79398045  0.79856920  -0.00548914  1
  Rh  Rh238  1  0.60245674  0.21228221  0.40064253  1
  Rh  Rh239  1  0.19748262  0.00079531  0.19306447  1
  Rh  Rh240  1  0.20025364  0.39773303  0.79950883  1
  Rh  Rh241  1  0.80680541  -0.00620387  0.40127161  1
  Rh  Rh242  1  0.39528178  0.60412178  0.20071706  1
  Rh  Rh243  1  0.80143243  0.80703921  0.80792096  1
  Rh  Rh244  1  0.39751364  0.59845147  0.40143649  1
  Rh  Rh245  1  0.20360661  0.60149862  0.79955883  1
  Rh  Rh246  1  0.40152932  0.40566832  0.80083765  1
  Rh  Rh247  1  0.60032573  0.19596110  0.59063374  1
  Rh  Rh248  1  0.00612688  0.79090259  -0.00911622  1
  Rh  Rh249  1  0.00300511  0.00002586  -0.00134905  1
