# generated using pymatgen
data_ZrScNbPdRh
_symmetry_space_group_name_H-M   'P 1'
_cell_length_a   16.55608952
_cell_length_b   16.55674299
_cell_length_c   16.55590842
_cell_angle_alpha   89.99433357
_cell_angle_beta   90.01125317
_cell_angle_gamma   90.00773427
_symmetry_Int_Tables_number   1
_chemical_formula_structural   ZrScNbPdRh
_chemical_formula_sum   'Zr50 Sc50 Nb50 Pd50 Rh50'
_cell_volume   4538.22134684
_cell_formula_units_Z   50
loop_
 _symmetry_equiv_pos_site_id
 _symmetry_equiv_pos_as_xyz
  1  'x, y, z'
loop_
 _atom_site_type_symbol
 _atom_site_label
 _atom_site_symmetry_multiplicity
 _atom_site_fract_x
 _atom_site_fract_y
 _atom_site_fract_z
 _atom_site_occupancy
  Zr  Zr0  1  0.50076135  0.50020818  0.69735891  1
  Zr  Zr1  1  0.10622211  0.30710397  0.91015694  1
  Zr  Zr2  1  0.70186514  0.51255312  0.89567761  1
  Zr  Zr3  1  0.49814665  0.69472777  0.70372876  1
  Zr  Zr4  1  0.10661637  0.89430013  0.49886763  1
  Zr  Zr5  1  0.90355521  0.09703221  0.69733711  1
  Zr  Zr6  1  0.69418918  0.09925195  0.69581530  1
  Zr  Zr7  1  0.30271832  0.89903935  0.70109776  1
  Zr  Zr8  1  0.89780213  0.69704477  0.29015886  1
  Zr  Zr9  1  0.89993244  0.90139600  0.49887481  1
  Zr  Zr10  1  0.69548247  0.50272292  0.50046904  1
  Zr  Zr11  1  0.68875622  0.89572286  0.28878733  1
  Zr  Zr12  1  0.51062622  0.69234393  0.50032722  1
  Zr  Zr13  1  0.70040437  0.69646341  0.10521924  1
  Zr  Zr14  1  0.49888219  0.70626004  0.31046476  1
  Zr  Zr15  1  0.49964003  0.90487103  0.89959557  1
  Zr  Zr16  1  0.30024706  0.30985261  0.89398486  1
  Zr  Zr17  1  0.90250341  0.89381358  0.28354821  1
  Zr  Zr18  1  0.09881871  0.89562742  0.70372954  1
  Zr  Zr19  1  0.30177134  0.49608163  0.70456581  1
  Zr  Zr20  1  0.10612222  0.30961108  0.70200020  1
  Zr  Zr21  1  0.09286120  0.90904575  0.89899888  1
  Zr  Zr22  1  0.09928110  0.89420659  0.29808129  1
  Zr  Zr23  1  0.29682789  0.09909155  0.49815977  1
  Zr  Zr24  1  0.09082807  0.09353961  0.70903644  1
  Zr  Zr25  1  0.09671039  0.50379698  0.91560294  1
  Zr  Zr26  1  0.09603552  0.68972444  0.29850470  1
  Zr  Zr27  1  0.09704224  0.10048834  0.50333651  1
  Zr  Zr28  1  0.88937532  0.30517924  0.69950048  1
  Zr  Zr29  1  0.70265622  0.09790842  0.49961024  1
  Zr  Zr30  1  0.29775721  0.90209636  0.50103274  1
  Zr  Zr31  1  0.90131754  0.09882757  0.50167839  1
  Zr  Zr32  1  0.49849401  0.10226443  0.70341525  1
  Zr  Zr33  1  0.30065750  0.10128400  0.29474726  1
  Zr  Zr34  1  0.30559687  0.70103304  0.48583079  1
  Zr  Zr35  1  0.50346357  0.10335383  0.10218229  1
  Zr  Zr36  1  0.30098728  0.69438531  0.71533908  1
  Zr  Zr37  1  0.49725735  0.30103071  0.50239687  1
  Zr  Zr38  1  0.69828387  0.89748738  0.70086046  1
  Zr  Zr39  1  0.08464803  0.89780082  0.10078703  1
  Zr  Zr40  1  0.50023416  0.89466406  0.49598375  1
  Zr  Zr41  1  0.30463819  0.30790308  0.70033863  1
  Zr  Zr42  1  0.29887018  0.51303823  0.10208140  1
  Zr  Zr43  1  0.50345530  0.10119310  0.89722637  1
  Zr  Zr44  1  0.90123867  0.30214911  0.90520846  1
  Zr  Zr45  1  0.31150694  0.70276932  0.91232848  1
  Zr  Zr46  1  0.70281598  0.49002072  0.69879525  1
  Zr  Zr47  1  0.91042040  0.30030801  0.49696963  1
  Zr  Zr48  1  0.29921599  0.69269629  0.29698370  1
  Zr  Zr49  1  0.69436071  0.49082662  0.09794169  1
  Sc  Sc50  1  0.10107982  0.68367160  0.09275402  1
  Sc  Sc51  1  0.30034960  0.50420937  0.89703964  1
  Sc  Sc52  1  0.31164670  0.30843932  0.30903094  1
  Sc  Sc53  1  0.29425097  0.30872584  0.08991342  1
  Sc  Sc54  1  0.90858514  0.89441550  0.70437375  1
  Sc  Sc55  1  0.10077669  0.69725348  0.89785886  1
  Sc  Sc56  1  0.29124550  0.09931044  0.90511235  1
  Sc  Sc57  1  0.30111117  0.49267188  0.49921250  1
  Sc  Sc58  1  0.90864427  0.09948937  0.89834861  1
  Sc  Sc59  1  0.91154150  0.69013083  0.49321335  1
  Sc  Sc60  1  0.29667134  0.30542166  0.50288042  1
  Sc  Sc61  1  0.69777504  0.68967007  0.70526195  1
  Sc  Sc62  1  0.10130594  0.50108403  0.49734768  1
  Sc  Sc63  1  0.89830819  0.08959707  0.10467854  1
  Sc  Sc64  1  0.88595436  0.30841929  0.10204088  1
  Sc  Sc65  1  0.89837869  0.09803821  0.29753121  1
  Sc  Sc66  1  0.49526576  0.69796414  0.09457904  1
  Sc  Sc67  1  0.49982252  0.50305325  0.90456874  1
  Sc  Sc68  1  0.10225626  0.69489655  0.50084233  1
  Sc  Sc69  1  0.30012895  0.89535636  0.08825804  1
  Sc  Sc70  1  0.30370082  0.89406354  0.89644147  1
  Sc  Sc71  1  0.69199549  0.09408004  0.91234754  1
  Sc  Sc72  1  0.49609127  0.49873063  0.30025592  1
  Sc  Sc73  1  0.69734572  0.29925141  0.51703996  1
  Sc  Sc74  1  0.90806299  0.70019957  0.70831583  1
  Sc  Sc75  1  0.30202923  0.50105529  0.30373296  1
  Sc  Sc76  1  0.50884807  0.30768789  0.10174265  1
  Sc  Sc77  1  0.51025182  0.90272489  0.11019675  1
  Sc  Sc78  1  0.50465390  0.10296831  0.50159488  1
  Sc  Sc79  1  0.90849387  0.49763315  0.29478267  1
  Sc  Sc80  1  0.29066008  0.89852015  0.30842935  1
  Sc  Sc81  1  0.69732094  0.10125017  0.29641573  1
  Sc  Sc82  1  0.90413654  0.50337085  0.09453268  1
  Sc  Sc83  1  0.10911942  0.51331608  0.70138586  1
  Sc  Sc84  1  0.69575199  0.69196387  0.29961074  1
  Sc  Sc85  1  0.50098256  0.11043785  0.29176308  1
  Sc  Sc86  1  0.10145362  0.70182868  0.69920419  1
  Sc  Sc87  1  0.10239622  0.30740071  0.49695137  1
  Sc  Sc88  1  0.70165865  0.50284828  0.29183045  1
  Sc  Sc89  1  0.49772546  0.91170824  0.69998027  1
  Sc  Sc90  1  0.29759530  0.10588924  0.10166708  1
  Sc  Sc91  1  0.49910198  0.50170003  0.50400972  1
  Sc  Sc92  1  0.69706332  0.10443534  0.10067897  1
  Sc  Sc93  1  0.10609777  0.09179205  0.09502121  1
  Sc  Sc94  1  0.30336660  0.09560567  0.69483976  1
  Sc  Sc95  1  0.70311267  0.30049653  0.28258086  1
  Sc  Sc96  1  0.50165015  0.49742999  0.10040827  1
  Sc  Sc97  1  0.69264691  0.90750044  0.49896164  1
  Sc  Sc98  1  0.10048491  0.08765691  0.29057336  1
  Sc  Sc99  1  0.69829818  0.29696757  0.91630159  1
  Nb  Nb100  1  0.10003333  0.49232319  0.10697465  1
  Nb  Nb101  1  0.89520442  0.88785065  0.09861926  1
  Nb  Nb102  1  0.88748476  0.70060214  0.89734322  1
  Nb  Nb103  1  0.50506794  0.30250295  0.30298768  1
  Nb  Nb104  1  0.50025901  0.70520961  0.89896268  1
  Nb  Nb105  1  0.49813275  0.90088436  0.29846787  1
  Nb  Nb106  1  0.70142284  0.90221672  0.09519903  1
  Nb  Nb107  1  0.90452015  0.30391803  0.30246409  1
  Nb  Nb108  1  0.89861487  0.50631646  0.89195242  1
  Nb  Nb109  1  0.09972657  0.49078102  0.28574904  1
  Nb  Nb110  1  0.09794681  0.10683842  0.90170864  1
  Nb  Nb111  1  0.70358809  0.69600332  0.49931548  1
  Nb  Nb112  1  0.69452255  0.29881803  0.70150113  1
  Nb  Nb113  1  0.89938627  0.71281829  0.10200771  1
  Nb  Nb114  1  0.89260391  0.88612483  0.90155082  1
  Nb  Nb115  1  0.70029316  0.70165459  0.89712391  1
  Nb  Nb116  1  0.69725265  0.30410222  0.10028795  1
  Nb  Nb117  1  0.49719117  0.29946992  0.89617505  1
  Nb  Nb118  1  0.89465143  0.50089420  0.70314434  1
  Nb  Nb119  1  0.50164946  0.29726445  0.70542333  1
  Nb  Nb120  1  0.09091571  0.31457952  0.29937141  1
  Nb  Nb121  1  0.89907980  0.49681994  0.50583713  1
  Nb  Nb122  1  0.30142082  0.70373705  0.09981860  1
  Nb  Nb123  1  0.09998440  0.31410411  0.09954818  1
  Nb  Nb124  1  0.70299321  0.89867770  0.90153670  1
  Nb  Nb125  1  -0.00511199  0.40889469  0.60795606  1
  Nb  Nb126  1  0.40036183  0.79576727  0.59890083  1
  Nb  Nb127  1  0.60157552  0.79863066  0.80769011  1
  Nb  Nb128  1  0.40257224  -0.00018098  0.39450237  1
  Nb  Nb129  1  0.39682238  0.79992383  0.20316737  1
  Nb  Nb130  1  0.79577338  0.19625368  0.79924901  1
  Nb  Nb131  1  0.80333025  0.20872526  0.39940946  1
  Nb  Nb132  1  0.79852735  0.79749382  0.40061783  1
  Nb  Nb133  1  0.00073138  -0.00497688  0.39943287  1
  Nb  Nb134  1  0.79783609  0.79006084  0.59306600  1
  Nb  Nb135  1  0.00578252  0.21034485  0.19648128  1
  Nb  Nb136  1  0.79967354  -0.00395745  0.80611884  1
  Nb  Nb137  1  0.40577724  0.00643266  0.00172675  1
  Nb  Nb138  1  0.60695556  0.80025146  -0.00431392  1
  Nb  Nb139  1  0.19467308  0.20027109  0.80203803  1
  Nb  Nb140  1  0.20184804  0.79149223  0.19437028  1
  Nb  Nb141  1  0.00671179  0.20494278  0.00867346  1
  Nb  Nb142  1  0.80105023  0.39589895  0.40092193  1
  Nb  Nb143  1  0.40477109  0.20357108  -0.00496362  1
  Nb  Nb144  1  0.59897110  0.39172981  0.80106423  1
  Nb  Nb145  1  -0.00471094  0.40959492  0.80127088  1
  Nb  Nb146  1  0.19006720  0.21539698  0.20285328  1
  Nb  Nb147  1  0.60456940  0.39465527  0.39773365  1
  Nb  Nb148  1  0.80500110  0.59818371  0.59990222  1
  Nb  Nb149  1  0.19325027  0.20307824  0.38772055  1
  Pd  Pd150  1  0.79386215  -0.00216031  0.19859134  1
  Pd  Pd151  1  0.80778453  0.19055441  -0.00036059  1
  Pd  Pd152  1  0.19810703  0.79765261  0.80933112  1
  Pd  Pd153  1  0.00167864  0.58902704  0.39538267  1
  Pd  Pd154  1  0.79273039  0.79426254  0.00403881  1
  Pd  Pd155  1  0.40221294  0.40145599  0.00154899  1
  Pd  Pd156  1  0.39029321  0.60428771  0.59564325  1
  Pd  Pd157  1  0.59108623  0.00701399  0.39184033  1
  Pd  Pd158  1  0.40840232  0.60506903  0.20115973  1
  Pd  Pd159  1  0.39257605  0.21638794  0.19002748  1
  Pd  Pd160  1  -0.01331403  0.60926194  0.00084663  1
  Pd  Pd161  1  0.80095580  0.20000679  0.59945976  1
  Pd  Pd162  1  0.80532436  0.59308633  0.19180963  1
  Pd  Pd163  1  0.00647402  0.21130721  0.60632971  1
  Pd  Pd164  1  0.20446830  0.00515311  0.80101215  1
  Pd  Pd165  1  0.20926675  0.78847305  0.60176245  1
  Pd  Pd166  1  0.61113835  0.79882788  0.40000022  1
  Pd  Pd167  1  0.38676880  0.19322133  0.80517455  1
  Pd  Pd168  1  0.39207573  -0.01080929  0.19812365  1
  Pd  Pd169  1  -0.00974144  0.00290162  -0.00082889  1
  Pd  Pd170  1  0.20402352  -0.00481181  -0.00056318  1
  Pd  Pd171  1  0.00417285  0.18948660  0.38586223  1
  Pd  Pd172  1  0.19446449  0.00133890  0.60661068  1
  Pd  Pd173  1  0.39869532  0.39736508  0.19622723  1
  Pd  Pd174  1  0.80668832  0.20103091  0.20080131  1
  Pd  Pd175  1  0.00039118  0.21145152  0.80508882  1
  Pd  Pd176  1  0.59992150  0.79541336  0.60772318  1
  Pd  Pd177  1  0.61189124  0.20862173  0.39785051  1
  Pd  Pd178  1  0.80728067  0.00241723  -0.00414482  1
  Pd  Pd179  1  0.39514311  0.19680082  0.40140633  1
  Pd  Pd180  1  0.58948781  0.59966958  0.20333713  1
  Pd  Pd181  1  0.59613604  0.60435361  -0.00060263  1
  Pd  Pd182  1  -0.00502124  0.79325235  0.59760200  1
  Pd  Pd183  1  0.19639108  0.20038030  0.60357119  1
  Pd  Pd184  1  0.18945767  0.80113079  0.00115357  1
  Pd  Pd185  1  0.20743104  -0.01121786  0.19079992  1
  Pd  Pd186  1  0.00326995  0.59994429  0.79991101  1
  Pd  Pd187  1  0.19770524  0.58997444  0.39770365  1
  Pd  Pd188  1  0.80351058  0.60079587  0.00583489  1
  Pd  Pd189  1  0.79891216  0.40882130  -0.00452735  1
  Pd  Pd190  1  0.21482257  0.39768771  0.20591318  1
  Pd  Pd191  1  0.79311107  0.39200921  0.81195666  1
  Pd  Pd192  1  0.20809504  0.60208414  0.59664560  1
  Pd  Pd193  1  0.80376676  0.59620539  0.40187196  1
  Pd  Pd194  1  -0.00473169  0.79990586  0.39940516  1
  Pd  Pd195  1  0.61006596  0.20361147  0.80810065  1
  Pd  Pd196  1  0.00253178  0.79044809  -0.00581912  1
  Pd  Pd197  1  0.80363668  -0.00388324  0.38958485  1
  Pd  Pd198  1  0.80277054  -0.01093892  0.60860202  1
  Pd  Pd199  1  0.39921152  0.20168796  0.59896129  1
  Rh  Rh200  1  0.40268374  0.59798066  -0.00007822  1
  Rh  Rh201  1  -0.00113431  0.41130985  0.40566074  1
  Rh  Rh202  1  0.40596352  -0.00448497  0.58851233  1
  Rh  Rh203  1  -0.01059516  -0.00701875  0.80864343  1
  Rh  Rh204  1  0.19810420  0.20097739  0.00193421  1
  Rh  Rh205  1  0.19478495  0.40896430  0.59912947  1
  Rh  Rh206  1  0.80237934  0.40271132  0.59288782  1
  Rh  Rh207  1  -0.01032255  0.39810385  0.19038287  1
  Rh  Rh208  1  0.19664554  0.39857050  0.39527021  1
  Rh  Rh209  1  0.19371410  0.78825842  0.39261637  1
  Rh  Rh210  1  0.20548625  0.59924746  -0.00002145  1
  Rh  Rh211  1  0.00754628  -0.01043836  0.59418645  1
  Rh  Rh212  1  0.39145329  0.00583301  0.80915665  1
  Rh  Rh213  1  0.41070917  0.40264984  0.40414343  1
  Rh  Rh214  1  0.80189948  0.60659145  0.79369954  1
  Rh  Rh215  1  0.59473867  0.59742370  0.80135832  1
  Rh  Rh216  1  0.00105807  0.79737482  0.80947584  1
  Rh  Rh217  1  0.41563911  0.81161053  0.01131478  1
  Rh  Rh218  1  -0.00717285  0.40122415  -0.00060563  1
  Rh  Rh219  1  0.59656689  -0.00682803  0.00656990  1
  Rh  Rh220  1  0.19062571  0.40608755  0.80527911  1
  Rh  Rh221  1  0.40428393  0.59557556  0.80941354  1
  Rh  Rh222  1  -0.00375193  0.00240112  0.19979911  1
  Rh  Rh223  1  0.59436726  0.79176670  0.19365469  1
  Rh  Rh224  1  0.59219058  0.39538299  0.60303054  1
  Rh  Rh225  1  -0.00169452  0.59941682  0.19189307  1
  Rh  Rh226  1  0.39731664  0.80978564  0.39732093  1
  Rh  Rh227  1  0.19704231  0.01280557  0.39957833  1
  Rh  Rh228  1  0.20089761  0.60192906  0.80845475  1
  Rh  Rh229  1  0.60230145  0.20534826  0.19593249  1
  Rh  Rh230  1  0.60056425  0.40101848  -0.00763783  1
  Rh  Rh231  1  0.60949142  -0.00446109  0.79858907  1
  Rh  Rh232  1  0.59881702  0.59058674  0.39584321  1
  Rh  Rh233  1  -0.00357713  0.59571571  0.60442115  1
  Rh  Rh234  1  0.60868583  0.59975562  0.60368094  1
  Rh  Rh235  1  0.59449754  0.00393527  0.59848006  1
  Rh  Rh236  1  0.79615926  0.80107300  0.79185504  1
  Rh  Rh237  1  0.59845818  0.40108035  0.20667595  1
  Rh  Rh238  1  0.60463729  0.00654538  0.20080783  1
  Rh  Rh239  1  0.78918751  0.79861056  0.20317933  1
  Rh  Rh240  1  0.19564153  0.59951959  0.19918964  1
  Rh  Rh241  1  0.41141278  0.40719583  0.80006934  1
  Rh  Rh242  1  0.59515761  0.19805796  0.60090511  1
  Rh  Rh243  1  0.40339917  0.39722769  0.60177742  1
  Rh  Rh244  1  0.40966398  0.80452102  0.78965037  1
  Rh  Rh245  1  0.40404199  0.59114079  0.40376168  1
  Rh  Rh246  1  0.20807105  0.41571222  0.00193077  1
  Rh  Rh247  1  0.59366644  0.20733578  0.00568407  1
  Rh  Rh248  1  0.80184159  0.40592550  0.20297566  1
  Rh  Rh249  1  0.01122164  0.78546267  0.19197929  1
