# generated using pymatgen
data_ZrScNbPdRh
_symmetry_space_group_name_H-M   'P 1'
_cell_length_a   16.56724934
_cell_length_b   16.56315378
_cell_length_c   16.56587427
_cell_angle_alpha   90.02626068
_cell_angle_beta   90.00381269
_cell_angle_gamma   90.02653163
_symmetry_Int_Tables_number   1
_chemical_formula_structural   ZrScNbPdRh
_chemical_formula_sum   'Zr50 Sc50 Nb50 Pd50 Rh50'
_cell_volume   4545.77263897
_cell_formula_units_Z   50
loop_
 _symmetry_equiv_pos_site_id
 _symmetry_equiv_pos_as_xyz
  1  'x, y, z'
loop_
 _atom_site_type_symbol
 _atom_site_label
 _atom_site_symmetry_multiplicity
 _atom_site_fract_x
 _atom_site_fract_y
 _atom_site_fract_z
 _atom_site_occupancy
  Zr  Zr0  1  0.30665211  0.90443085  0.90265103  1
  Zr  Zr1  1  0.50891218  0.50213418  0.49228660  1
  Zr  Zr2  1  0.11404240  0.10571097  0.89757885  1
  Zr  Zr3  1  0.10211826  0.10347852  0.09748060  1
  Zr  Zr4  1  0.09961344  0.29800657  0.68432379  1
  Zr  Zr5  1  0.90585717  0.90184882  0.69520872  1
  Zr  Zr6  1  0.49739912  0.89858927  0.51035012  1
  Zr  Zr7  1  0.10843716  0.89046865  0.30956089  1
  Zr  Zr8  1  0.89333224  0.10135200  0.89916090  1
  Zr  Zr9  1  0.89725532  0.30831275  0.30016608  1
  Zr  Zr10  1  0.91039813  0.08923867  0.10277783  1
  Zr  Zr11  1  0.08719342  0.30334979  0.31002611  1
  Zr  Zr12  1  0.50058343  0.70298556  0.90805301  1
  Zr  Zr13  1  0.09593130  0.10297908  0.50415367  1
  Zr  Zr14  1  0.50302764  0.69990643  0.49678421  1
  Zr  Zr15  1  0.29711411  0.89886285  0.69185073  1
  Zr  Zr16  1  0.89521488  0.09636246  0.50175313  1
  Zr  Zr17  1  0.69708586  0.29647443  0.90863880  1
  Zr  Zr18  1  0.70740770  0.50068315  0.69845241  1
  Zr  Zr19  1  0.11008256  0.70536175  0.70107575  1
  Zr  Zr20  1  0.70260947  0.29289294  0.29731614  1
  Zr  Zr21  1  0.90180733  0.09978017  0.69829621  1
  Zr  Zr22  1  0.50668611  0.30200727  0.10080399  1
  Zr  Zr23  1  0.29300248  0.70984481  0.29161958  1
  Zr  Zr24  1  0.50429715  0.30503938  0.30097522  1
  Zr  Zr25  1  0.50191211  0.50313380  0.29803416  1
  Zr  Zr26  1  0.29178861  0.69179379  0.89556212  1
  Zr  Zr27  1  0.30526836  0.10651912  0.70184904  1
  Zr  Zr28  1  0.29656624  0.50104331  0.49803661  1
  Zr  Zr29  1  0.30045475  0.51019075  0.69843085  1
  Zr  Zr30  1  0.90156114  0.69902985  0.10407855  1
  Zr  Zr31  1  0.89737947  0.70715915  0.50197432  1
  Zr  Zr32  1  0.89448743  0.30007681  0.09949425  1
  Zr  Zr33  1  0.70112157  0.10042063  0.09304270  1
  Zr  Zr34  1  0.89748376  0.90481662  0.89247379  1
  Zr  Zr35  1  0.29746579  0.91044502  0.48604114  1
  Zr  Zr36  1  0.70294507  0.09408314  0.31453176  1
  Zr  Zr37  1  0.70493007  0.69682148  0.50374171  1
  Zr  Zr38  1  0.09808508  0.50930819  0.30156562  1
  Zr  Zr39  1  0.69117353  0.70254799  0.29873926  1
  Zr  Zr40  1  0.90033782  0.11012120  0.30301036  1
  Zr  Zr41  1  0.50269981  0.49752410  0.70589233  1
  Zr  Zr42  1  0.50311453  0.49930517  0.89851861  1
  Zr  Zr43  1  0.30072667  0.30352849  0.10147453  1
  Zr  Zr44  1  0.08988877  0.90494349  0.10825399  1
  Zr  Zr45  1  0.09338424  0.09859992  0.30029223  1
  Zr  Zr46  1  0.89525465  0.70055672  0.89453644  1
  Zr  Zr47  1  0.30486445  0.29562232  0.69758895  1
  Zr  Zr48  1  0.49733761  0.70294349  0.68939886  1
  Zr  Zr49  1  0.70729299  0.90163254  0.48967010  1
  Sc  Sc50  1  0.68494829  0.70225399  0.09933348  1
  Sc  Sc51  1  0.69468001  0.90781927  0.90282688  1
  Sc  Sc52  1  0.10743762  0.49804441  0.49951034  1
  Sc  Sc53  1  0.11103487  0.30345632  0.90659784  1
  Sc  Sc54  1  0.50099473  0.88283942  0.08774893  1
  Sc  Sc55  1  0.70133129  0.09921168  0.90142907  1
  Sc  Sc56  1  0.91067405  0.30364920  0.49865898  1
  Sc  Sc57  1  0.10704203  0.50132800  0.68680539  1
  Sc  Sc58  1  0.10436181  0.30801382  0.09839385  1
  Sc  Sc59  1  0.30347902  0.69627625  0.50120784  1
  Sc  Sc60  1  0.69814060  0.69101518  0.89701171  1
  Sc  Sc61  1  0.49620226  0.69901365  0.10615038  1
  Sc  Sc62  1  0.50042965  0.10027921  0.50420749  1
  Sc  Sc63  1  0.69959246  0.30117013  0.69683329  1
  Sc  Sc64  1  0.10270721  0.90418558  0.88524260  1
  Sc  Sc65  1  0.10083285  0.89574010  0.50688762  1
  Sc  Sc66  1  0.49813242  0.30622210  0.89524043  1
  Sc  Sc67  1  0.30559193  0.88893835  0.10155771  1
  Sc  Sc68  1  0.10527003  0.49516511  0.10103812  1
  Sc  Sc69  1  0.51022170  0.10144146  0.09739354  1
  Sc  Sc70  1  0.91310474  0.69559445  0.31030061  1
  Sc  Sc71  1  0.49657749  0.69480925  0.29935077  1
  Sc  Sc72  1  0.09868883  0.70314299  0.49464693  1
  Sc  Sc73  1  0.70266625  0.90512474  0.69506068  1
  Sc  Sc74  1  0.89254533  0.30588387  0.69303914  1
  Sc  Sc75  1  0.10165450  0.69460866  0.11941049  1
  Sc  Sc76  1  0.11357057  0.50162898  0.90426482  1
  Sc  Sc77  1  0.69275431  0.29814964  0.50857783  1
  Sc  Sc78  1  0.30601311  0.49939996  0.89944785  1
  Sc  Sc79  1  0.49657971  0.08468245  0.89534626  1
  Sc  Sc80  1  0.69599752  0.49904160  0.89641650  1
  Sc  Sc81  1  0.88428036  0.49839857  0.89967336  1
  Sc  Sc82  1  0.49805261  0.29503967  0.69750353  1
  Sc  Sc83  1  0.69714791  0.29884354  0.09743427  1
  Sc  Sc84  1  0.29982728  0.10014656  0.89317550  1
  Sc  Sc85  1  0.30926420  0.31013711  0.30478210  1
  Sc  Sc86  1  0.50707798  0.09855444  0.31278639  1
  Sc  Sc87  1  0.29581427  0.09432594  0.08753573  1
  Sc  Sc88  1  0.88795263  0.71030092  0.70193390  1
  Sc  Sc89  1  0.49788771  0.89022617  0.30905188  1
  Sc  Sc90  1  0.70337407  0.10047080  0.68688951  1
  Sc  Sc91  1  0.29970543  0.49823228  0.10293030  1
  Sc  Sc92  1  0.30203054  0.29455271  0.89314126  1
  Sc  Sc93  1  0.10185574  0.09582110  0.69747565  1
  Sc  Sc94  1  0.88640516  0.30702676  0.90108982  1
  Sc  Sc95  1  0.30106651  0.50779842  0.30114786  1
  Sc  Sc96  1  0.30452324  0.08994600  0.31906420  1
  Sc  Sc97  1  0.69799160  0.49666130  0.31156764  1
  Sc  Sc98  1  0.49957535  0.49799067  0.10204443  1
  Sc  Sc99  1  0.89737454  0.49129672  0.09696985  1
  Nb  Nb100  1  0.30068282  0.69842634  0.69900871  1
  Nb  Nb101  1  0.89884216  0.50004272  0.69898072  1
  Nb  Nb102  1  0.90268548  0.89154265  0.49661492  1
  Nb  Nb103  1  0.50156392  0.09553095  0.69984889  1
  Nb  Nb104  1  0.10689820  0.30029184  0.50236900  1
  Nb  Nb105  1  0.69363580  0.09463026  0.49944750  1
  Nb  Nb106  1  0.30011549  0.90259083  0.29830271  1
  Nb  Nb107  1  0.49698748  0.90564704  0.70192732  1
  Nb  Nb108  1  0.10616660  0.69649874  0.30455853  1
  Nb  Nb109  1  0.29863441  0.70549858  0.10033845  1
  Nb  Nb110  1  0.70234544  0.89930972  0.29880399  1
  Nb  Nb111  1  0.89171874  0.50068150  0.30954212  1
  Nb  Nb112  1  0.29974908  0.10659022  0.50104300  1
  Nb  Nb113  1  0.09892998  0.90061001  0.69510165  1
  Nb  Nb114  1  0.69795471  0.50358097  0.09923533  1
  Nb  Nb115  1  0.90084821  0.89743227  0.10179312  1
  Nb  Nb116  1  0.69932123  0.89571695  0.10520202  1
  Nb  Nb117  1  0.49244995  0.30041273  0.50203868  1
  Nb  Nb118  1  0.69661132  0.70062194  0.70322904  1
  Nb  Nb119  1  0.70848342  0.50539142  0.50399856  1
  Nb  Nb120  1  0.89657383  0.89972685  0.30527809  1
  Nb  Nb121  1  0.09810048  0.69794525  0.89830599  1
  Nb  Nb122  1  0.87940113  0.51078397  0.50297114  1
  Nb  Nb123  1  0.49557210  0.89338814  0.89103170  1
  Nb  Nb124  1  0.29993648  0.29641923  0.50449555  1
  Nb  Nb125  1  0.80310722  0.80410947  0.00691345  1
  Nb  Nb126  1  0.00088110  0.79749925  -0.00320956  1
  Nb  Nb127  1  0.19922842  0.39934512  0.79034123  1
  Nb  Nb128  1  0.19090602  0.79335108  0.00002580  1
  Nb  Nb129  1  -0.00039055  0.20863757  0.80266988  1
  Nb  Nb130  1  0.20046193  0.20513903  0.40521372  1
  Nb  Nb131  1  0.00306435  0.40403019  0.79603156  1
  Nb  Nb132  1  0.20671583  0.19676503  0.20977456  1
  Nb  Nb133  1  0.39726520  0.19283645  0.19944300  1
  Nb  Nb134  1  0.00019240  0.59524990  0.79727202  1
  Nb  Nb135  1  0.40137331  0.39958923  0.59326147  1
  Nb  Nb136  1  0.80156875  0.80172441  0.20188789  1
  Nb  Nb137  1  0.59693893  0.19260960  0.79553851  1
  Nb  Nb138  1  0.79938199  -0.00744880  0.20178090  1
  Nb  Nb139  1  0.00095832  0.60555801  -0.00605430  1
  Nb  Nb140  1  -0.00881873  0.60061087  0.60376634  1
  Nb  Nb141  1  0.40306158  -0.00095454  0.20236825  1
  Nb  Nb142  1  -0.00207659  0.20053906  -0.00521948  1
  Nb  Nb143  1  0.40378142  0.20053224  0.00398937  1
  Nb  Nb144  1  0.60435807  -0.00989665  0.20221505  1
  Nb  Nb145  1  0.40008452  0.79973917  0.79350990  1
  Nb  Nb146  1  0.59207476  0.80364356  0.79516908  1
  Nb  Nb147  1  0.79868882  0.59991793  0.20414340  1
  Nb  Nb148  1  0.20624830  -0.00030520  0.20573902  1
  Nb  Nb149  1  -0.00612407  -0.00639445  0.40188544  1
  Pd  Pd150  1  0.59583653  0.40170177  0.59947887  1
  Pd  Pd151  1  -0.00161944  0.40700803  0.20053568  1
  Pd  Pd152  1  0.40451382  0.59322657  0.59297358  1
  Pd  Pd153  1  0.00632661  0.21143550  0.19038510  1
  Pd  Pd154  1  0.39684309  0.00622052  0.59718357  1
  Pd  Pd155  1  0.20704722  0.80731258  0.80466484  1
  Pd  Pd156  1  0.20144407  0.39660118  0.39439111  1
  Pd  Pd157  1  0.00731962  -0.00091991  -0.01431691  1
  Pd  Pd158  1  0.60871092  0.80688865  0.60283502  1
  Pd  Pd159  1  0.60788054  0.00123302  0.79395808  1
  Pd  Pd160  1  0.20523185  0.79702529  0.58984763  1
  Pd  Pd161  1  0.59807740  0.18836281  0.20645340  1
  Pd  Pd162  1  0.39899057  0.39563552  -0.00179050  1
  Pd  Pd163  1  0.39348899  0.60069165  0.19656334  1
  Pd  Pd164  1  0.19915442  0.39697443  0.21182769  1
  Pd  Pd165  1  0.79934315  0.21005045  0.41287587  1
  Pd  Pd166  1  0.79328571  0.39073242  0.41034048  1
  Pd  Pd167  1  0.00009107  0.59303999  0.41401253  1
  Pd  Pd168  1  0.59222367  -0.00773107  0.00465075  1
  Pd  Pd169  1  -0.00108193  0.79828755  0.20867064  1
  Pd  Pd170  1  0.20158062  0.00468575  0.60014384  1
  Pd  Pd171  1  0.79728346  0.19089644  0.19411061  1
  Pd  Pd172  1  0.80228800  0.20499963  0.59299493  1
  Pd  Pd173  1  0.19492945  0.60443992  0.01218313  1
  Pd  Pd174  1  0.79505875  0.20190811  0.79458350  1
  Pd  Pd175  1  0.40905422  0.00170409  0.01036394  1
  Pd  Pd176  1  0.59975803  0.20475418  0.40906431  1
  Pd  Pd177  1  0.59985956  0.80128498  0.40335591  1
  Pd  Pd178  1  0.40700963  0.60712195  0.80173916  1
  Pd  Pd179  1  0.39821358  0.20009210  0.39641089  1
  Pd  Pd180  1  0.39963832  0.60075656  0.00680900  1
  Pd  Pd181  1  -0.00054780  0.40277450  -0.01241507  1
  Pd  Pd182  1  -0.00552284  0.41102445  0.59453946  1
  Pd  Pd183  1  0.60293890  0.59664413  0.60275962  1
  Pd  Pd184  1  0.19703795  -0.01503255  0.00592952  1
  Pd  Pd185  1  0.00514514  0.01064865  0.80114813  1
  Pd  Pd186  1  0.00196524  0.79591524  0.79678368  1
  Pd  Pd187  1  0.60845893  0.39447986  0.40560330  1
  Pd  Pd188  1  0.40038813  0.40560029  0.40398084  1
  Pd  Pd189  1  0.60571654  0.39009070  0.79827879  1
  Pd  Pd190  1  0.79165604  0.40878829  0.19885585  1
  Pd  Pd191  1  0.39421921  0.79531920  0.40153795  1
  Pd  Pd192  1  0.80143087  -0.00615567  0.59751384  1
  Pd  Pd193  1  0.78306309  0.80748432  0.80636434  1
  Pd  Pd194  1  0.80005581  0.60427504  0.00813618  1
  Pd  Pd195  1  0.79981306  -0.00571770  0.00480627  1
  Pd  Pd196  1  -0.00440185  0.41524859  0.41116720  1
  Pd  Pd197  1  -0.00809250  0.58693903  0.19582574  1
  Pd  Pd198  1  0.59586439  0.59656403  0.00362489  1
  Pd  Pd199  1  0.60914163  0.40579288  0.19958852  1
  Rh  Rh200  1  0.20235813  0.60479277  0.39932277  1
  Rh  Rh201  1  0.60137385  -0.00140349  0.59604890  1
  Rh  Rh202  1  0.79945300  0.39885113  0.59442782  1
  Rh  Rh203  1  0.79539716  0.80429132  0.60065303  1
  Rh  Rh204  1  0.20452225  0.59710098  0.20043120  1
  Rh  Rh205  1  0.39933492  0.60379330  0.39659634  1
  Rh  Rh206  1  0.20561010  0.20646119  0.00835071  1
  Rh  Rh207  1  0.00064479  0.79529396  0.60660507  1
  Rh  Rh208  1  0.79590116  0.00244911  0.79454768  1
  Rh  Rh209  1  0.58784095  0.19707775  -0.01887768  1
  Rh  Rh210  1  -0.00240726  -0.00705779  0.21550117  1
  Rh  Rh211  1  0.80858674  0.19567698  0.00707579  1
  Rh  Rh212  1  0.38733414  0.78928230  -0.00902676  1
  Rh  Rh213  1  0.20222290  0.19342060  0.59707457  1
  Rh  Rh214  1  -0.00615517  0.20026433  0.60302522  1
  Rh  Rh215  1  0.41305326  0.19301858  0.80904621  1
  Rh  Rh216  1  0.60553968  0.60144575  0.40079148  1
  Rh  Rh217  1  0.80137941  0.60867902  0.61082510  1
  Rh  Rh218  1  0.19334756  0.61042184  0.59482212  1
  Rh  Rh219  1  0.40480376  0.39910225  0.20245259  1
  Rh  Rh220  1  0.21342130  0.39904032  0.60209567  1
  Rh  Rh221  1  0.39226911  -0.00445298  0.79279712  1
  Rh  Rh222  1  0.59448870  -0.00855274  0.40280991  1
  Rh  Rh223  1  0.80071988  0.79122887  0.39356690  1
  Rh  Rh224  1  0.20592942  0.79413225  0.40548184  1
  Rh  Rh225  1  0.40544587  0.80377506  0.20254597  1
  Rh  Rh226  1  0.41046389  -0.00105119  0.40068957  1
  Rh  Rh227  1  0.59809861  0.60783176  0.79494534  1
  Rh  Rh228  1  0.78774473  0.40284021  0.00412648  1
  Rh  Rh229  1  0.19277373  0.59141820  0.79347110  1
  Rh  Rh230  1  0.18980882  0.00731525  0.40063042  1
  Rh  Rh231  1  0.19645612  0.80620760  0.19325333  1
  Rh  Rh232  1  0.79877623  0.39897353  0.79812011  1
  Rh  Rh233  1  0.80081971  0.59713983  0.79433249  1
  Rh  Rh234  1  0.40697242  0.20016948  0.59726151  1
  Rh  Rh235  1  0.60416731  0.59350104  0.20090749  1
  Rh  Rh236  1  0.59330419  0.80483819  0.20369001  1
  Rh  Rh237  1  0.20477191  -0.00277322  0.79049732  1
  Rh  Rh238  1  0.39175824  0.40299250  0.78964662  1
  Rh  Rh239  1  0.39352189  0.80210593  0.59974781  1
  Rh  Rh240  1  0.21186102  0.40086461  -0.00898208  1
  Rh  Rh241  1  0.19090823  0.20888568  0.79067262  1
  Rh  Rh242  1  0.79543660  0.60718796  0.39096845  1
  Rh  Rh243  1  0.00248062  0.80299058  0.39781304  1
  Rh  Rh244  1  0.80668114  0.00011052  0.40064182  1
  Rh  Rh245  1  0.61124120  0.80002531  -0.01318533  1
  Rh  Rh246  1  0.00012749  -0.00664972  0.59278578  1
  Rh  Rh247  1  0.59350914  0.19428679  0.60314758  1
  Rh  Rh248  1  0.00230716  0.19714473  0.40831972  1
  Rh  Rh249  1  0.60229294  0.40650120  0.00054452  1
