# generated using pymatgen
data_ZrScNbPdRh
_symmetry_space_group_name_H-M   'P 1'
_cell_length_a   16.56314522
_cell_length_b   16.56212579
_cell_length_c   16.56429925
_cell_angle_alpha   89.98181759
_cell_angle_beta   90.01474387
_cell_angle_gamma   90.00898915
_symmetry_Int_Tables_number   1
_chemical_formula_structural   ZrScNbPdRh
_chemical_formula_sum   'Zr50 Sc50 Nb50 Pd50 Rh50'
_cell_volume   4543.93295364
_cell_formula_units_Z   50
loop_
 _symmetry_equiv_pos_site_id
 _symmetry_equiv_pos_as_xyz
  1  'x, y, z'
loop_
 _atom_site_type_symbol
 _atom_site_label
 _atom_site_symmetry_multiplicity
 _atom_site_fract_x
 _atom_site_fract_y
 _atom_site_fract_z
 _atom_site_occupancy
  Zr  Zr0  1  0.09808048  0.90453666  0.91086083  1
  Zr  Zr1  1  0.89989717  0.49822484  0.89879571  1
  Zr  Zr2  1  0.89607994  0.48787067  0.09848258  1
  Zr  Zr3  1  0.10176675  0.51562523  0.30288001  1
  Zr  Zr4  1  0.69383791  0.89542374  0.69355829  1
  Zr  Zr5  1  0.30588377  0.29576071  0.71028332  1
  Zr  Zr6  1  0.69546694  0.69276288  0.90782488  1
  Zr  Zr7  1  0.50433151  0.30589353  0.50052264  1
  Zr  Zr8  1  0.09826355  0.49644438  0.49978076  1
  Zr  Zr9  1  0.70386752  0.10038460  0.90694234  1
  Zr  Zr10  1  0.49455575  0.30211763  0.89831665  1
  Zr  Zr11  1  0.90052297  0.90457371  0.09657553  1
  Zr  Zr12  1  0.49740256  0.10507399  0.29492479  1
  Zr  Zr13  1  0.90114611  0.29813963  0.90569429  1
  Zr  Zr14  1  0.30191534  0.29809660  0.49772196  1
  Zr  Zr15  1  0.49437388  0.49461843  0.10179335  1
  Zr  Zr16  1  0.29430475  0.50249103  0.71190239  1
  Zr  Zr17  1  0.69749171  0.30036125  0.51006019  1
  Zr  Zr18  1  0.69687716  0.89481490  0.49940030  1
  Zr  Zr19  1  0.50358478  0.70009680  0.70202050  1
  Zr  Zr20  1  0.50669360  0.89667700  0.29990288  1
  Zr  Zr21  1  0.31005527  0.70471444  0.10095944  1
  Zr  Zr22  1  0.89788045  0.49714583  0.49567972  1
  Zr  Zr23  1  0.88331332  0.09853397  0.29239752  1
  Zr  Zr24  1  0.10378690  0.09921108  0.09354384  1
  Zr  Zr25  1  0.30486702  0.50080046  0.28832854  1
  Zr  Zr26  1  0.70412936  0.10481043  0.70168441  1
  Zr  Zr27  1  0.90513860  0.49784473  0.70108156  1
  Zr  Zr28  1  0.51425274  0.30476095  0.70123455  1
  Zr  Zr29  1  0.10407239  0.89933580  0.50787947  1
  Zr  Zr30  1  0.31068628  0.10015117  0.90125036  1
  Zr  Zr31  1  0.70010980  0.50067965  0.49923244  1
  Zr  Zr32  1  0.50189326  0.50394485  0.90057503  1
  Zr  Zr33  1  0.30540339  0.10280060  0.29571754  1
  Zr  Zr34  1  0.10988181  0.10604830  0.29305210  1
  Zr  Zr35  1  0.49687361  0.89870083  0.09813761  1
  Zr  Zr36  1  0.09239801  0.29819455  0.09628346  1
  Zr  Zr37  1  0.89381006  0.69337946  0.70182942  1
  Zr  Zr38  1  0.29974438  0.29571570  0.30466647  1
  Zr  Zr39  1  0.90327793  0.69464331  0.89703290  1
  Zr  Zr40  1  0.30394760  0.09830983  0.70456095  1
  Zr  Zr41  1  0.70111683  0.09701705  0.49989556  1
  Zr  Zr42  1  0.89684259  0.10242586  0.50939531  1
  Zr  Zr43  1  0.09047069  0.09636089  0.69960277  1
  Zr  Zr44  1  0.30610793  0.49379291  0.90322626  1
  Zr  Zr45  1  0.10381984  0.49182550  0.10531985  1
  Zr  Zr46  1  0.30023224  0.10397831  0.49461182  1
  Zr  Zr47  1  0.89826991  0.89828969  0.29630195  1
  Zr  Zr48  1  0.30401515  0.90476621  0.28730416  1
  Zr  Zr49  1  0.89147128  0.30041122  0.29802931  1
  Sc  Sc50  1  0.10246843  0.71174897  0.89812931  1
  Sc  Sc51  1  0.49719945  0.70345672  0.90024381  1
  Sc  Sc52  1  0.10034844  0.70772354  0.11340987  1
  Sc  Sc53  1  0.88571045  0.89758520  0.50398078  1
  Sc  Sc54  1  0.70061814  0.50163709  0.90811246  1
  Sc  Sc55  1  0.69429265  0.29772881  0.29667874  1
  Sc  Sc56  1  0.91274637  0.69202580  0.29320642  1
  Sc  Sc57  1  0.09552081  0.29687350  0.89760211  1
  Sc  Sc58  1  0.69352968  0.90340118  0.09429146  1
  Sc  Sc59  1  0.30286630  0.50927214  0.48668841  1
  Sc  Sc60  1  0.30094434  0.69763420  0.50807448  1
  Sc  Sc61  1  0.49734453  0.10233782  0.49710985  1
  Sc  Sc62  1  0.11242498  0.69840065  0.70140344  1
  Sc  Sc63  1  0.30263409  0.31778790  0.09973124  1
  Sc  Sc64  1  0.29958040  0.69411090  0.29376012  1
  Sc  Sc65  1  0.90003218  0.10080203  0.70460734  1
  Sc  Sc66  1  0.50558827  0.90150168  0.50593072  1
  Sc  Sc67  1  0.89689435  0.49751054  0.30525868  1
  Sc  Sc68  1  0.69872621  0.70156526  0.50817493  1
  Sc  Sc69  1  0.30276696  0.90099985  0.51077550  1
  Sc  Sc70  1  0.69241680  0.90780832  0.90471957  1
  Sc  Sc71  1  0.68606034  0.71449511  0.30524608  1
  Sc  Sc72  1  0.29609012  0.90332619  0.09365471  1
  Sc  Sc73  1  0.71183131  0.09689189  0.09894849  1
  Sc  Sc74  1  0.49401838  0.10253692  0.09835195  1
  Sc  Sc75  1  0.10558347  0.30335204  0.29423890  1
  Sc  Sc76  1  0.89630188  0.09781667  0.90101671  1
  Sc  Sc77  1  0.50199077  0.30135184  0.29629796  1
  Sc  Sc78  1  0.89646673  0.30459453  0.50340545  1
  Sc  Sc79  1  0.49545276  0.70410594  0.28909243  1
  Sc  Sc80  1  0.49677295  0.09685989  0.70644295  1
  Sc  Sc81  1  0.09088531  0.10385408  0.89732176  1
  Sc  Sc82  1  0.30504372  0.70309174  0.70702567  1
  Sc  Sc83  1  0.90986120  0.69343250  0.10213752  1
  Sc  Sc84  1  0.49908748  0.90077548  0.90295646  1
  Sc  Sc85  1  0.10314317  0.48746382  0.88799064  1
  Sc  Sc86  1  0.89722485  0.29900920  0.09747941  1
  Sc  Sc87  1  0.49820282  0.09362014  0.90383661  1
  Sc  Sc88  1  0.88686746  0.69493296  0.50010665  1
  Sc  Sc89  1  0.50481029  0.70724281  0.09450904  1
  Sc  Sc90  1  0.09846055  0.30048925  0.49317840  1
  Sc  Sc91  1  0.08956151  0.30077080  0.70737112  1
  Sc  Sc92  1  0.50403100  0.30396129  0.10676694  1
  Sc  Sc93  1  0.10119728  0.89910513  0.70271155  1
  Sc  Sc94  1  0.70123323  0.90287614  0.30502264  1
  Sc  Sc95  1  0.50669965  0.50731616  0.70042097  1
  Sc  Sc96  1  0.89757159  0.90444328  0.70230937  1
  Sc  Sc97  1  0.11236202  0.69200276  0.49852372  1
  Sc  Sc98  1  0.69752546  0.30134532  0.89523582  1
  Sc  Sc99  1  0.30773590  0.89462421  0.69948100  1
  Nb  Nb100  1  0.69816465  0.30668505  0.69905831  1
  Nb  Nb101  1  0.09991709  0.49234959  0.69807466  1
  Nb  Nb102  1  0.89500254  0.30021465  0.69819518  1
  Nb  Nb103  1  0.90027676  0.89193441  0.89944001  1
  Nb  Nb104  1  0.69736369  0.49736386  0.10032071  1
  Nb  Nb105  1  0.70247148  0.69371349  0.69937063  1
  Nb  Nb106  1  0.10107856  0.70916928  0.29985175  1
  Nb  Nb107  1  0.10147806  0.90545846  0.10706761  1
  Nb  Nb108  1  0.30094007  0.29786655  0.89728487  1
  Nb  Nb109  1  0.69953416  0.49679396  0.29741867  1
  Nb  Nb110  1  0.29933979  0.09287586  0.09863032  1
  Nb  Nb111  1  0.49857186  0.89554635  0.70855693  1
  Nb  Nb112  1  0.29952233  0.89730446  0.90159470  1
  Nb  Nb113  1  0.49969440  0.50149860  0.30183911  1
  Nb  Nb114  1  0.30021829  0.50337035  0.09818246  1
  Nb  Nb115  1  0.49493647  0.68707100  0.49705378  1
  Nb  Nb116  1  0.30208293  0.70291338  0.90134661  1
  Nb  Nb117  1  0.10070481  0.89851476  0.29382486  1
  Nb  Nb118  1  0.49795742  0.50472032  0.49705353  1
  Nb  Nb119  1  0.69979849  0.50442893  0.69755699  1
  Nb  Nb120  1  0.69549931  0.10095459  0.29519168  1
  Nb  Nb121  1  0.09733381  0.09746182  0.50071366  1
  Nb  Nb122  1  0.69884527  0.31014069  0.09859084  1
  Nb  Nb123  1  0.89728411  0.10142348  0.09711045  1
  Nb  Nb124  1  0.69774638  0.69769556  0.09924425  1
  Nb  Nb125  1  0.19707511  0.19962061  0.60170348  1
  Nb  Nb126  1  0.79727206  0.40008865  0.79161721  1
  Nb  Nb127  1  0.39914182  0.40515308  0.59861366  1
  Nb  Nb128  1  0.21042758  0.20104546  -0.00310179  1
  Nb  Nb129  1  0.60350742  0.59292729  0.20024522  1
  Nb  Nb130  1  0.20435898  -0.00044771  0.80649972  1
  Nb  Nb131  1  0.79704852  0.79347335  0.19141080  1
  Nb  Nb132  1  0.20303644  0.59906982  0.00100287  1
  Nb  Nb133  1  0.20125997  0.80535557  0.39431115  1
  Nb  Nb134  1  0.00339857  0.00099298  0.39668377  1
  Nb  Nb135  1  0.00174310  0.00235394  0.19899619  1
  Nb  Nb136  1  0.60414811  0.20338316  0.00435915  1
  Nb  Nb137  1  -0.00306198  0.19017837  0.39658000  1
  Nb  Nb138  1  0.39788670  0.79858981  0.40102191  1
  Nb  Nb139  1  0.59385929  0.59508744  0.39619104  1
  Nb  Nb140  1  0.78917412  0.59959534  0.19796259  1
  Nb  Nb141  1  0.00236746  0.59733310  0.60285644  1
  Nb  Nb142  1  0.00670562  0.80320856  0.40140770  1
  Nb  Nb143  1  0.01141713  0.59364237  0.00014926  1
  Nb  Nb144  1  0.79551376  0.79602910  0.80531083  1
  Nb  Nb145  1  0.19567866  -0.00244941  0.39793156  1
  Nb  Nb146  1  0.20479768  0.39691449  0.60328926  1
  Nb  Nb147  1  -0.00029557  0.79120736  0.59612424  1
  Nb  Nb148  1  0.60095196  0.00638116  0.20259580  1
  Nb  Nb149  1  0.80262790  0.79679893  -0.00147654  1
  Pd  Pd150  1  0.40030449  0.39982740  0.39969597  1
  Pd  Pd151  1  0.20538549  0.00583432  0.60609688  1
  Pd  Pd152  1  0.01613911  0.60122297  0.80029345  1
  Pd  Pd153  1  0.39641915  -0.00836092  0.40327680  1
  Pd  Pd154  1  -0.00915588  -0.01054306  0.59683404  1
  Pd  Pd155  1  0.79954673  0.40539129  0.60306737  1
  Pd  Pd156  1  0.21101108  0.20914981  0.18439357  1
  Pd  Pd157  1  0.19747795  0.39701836  -0.00616683  1
  Pd  Pd158  1  0.19736509  0.60228726  0.81211987  1
  Pd  Pd159  1  0.79970101  -0.00003682  0.40278037  1
  Pd  Pd160  1  0.20065551  0.59175543  0.60225083  1
  Pd  Pd161  1  0.40310952  0.20488943  0.60317847  1
  Pd  Pd162  1  -0.00586734  0.00564220  0.00037920  1
  Pd  Pd163  1  0.20441940  0.80870691  0.79844910  1
  Pd  Pd164  1  -0.00528019  0.19404846  0.20229772  1
  Pd  Pd165  1  0.20202505  0.40598863  0.39890767  1
  Pd  Pd166  1  0.00293660  0.21029730  0.59602491  1
  Pd  Pd167  1  0.39530818  0.59344203  0.60964098  1
  Pd  Pd168  1  0.59915738  0.00116949  0.79927595  1
  Pd  Pd169  1  0.59950618  0.19955340  0.40053293  1
  Pd  Pd170  1  0.79880159  0.20435827  0.40486507  1
  Pd  Pd171  1  0.80758995  0.78925469  0.38889088  1
  Pd  Pd172  1  0.59679152  0.19111572  0.60205023  1
  Pd  Pd173  1  0.78791585  0.60982376  0.38694466  1
  Pd  Pd174  1  0.19462616  0.19442194  0.80184472  1
  Pd  Pd175  1  0.40832352  0.79667640  0.59534074  1
  Pd  Pd176  1  0.80890300  0.60202178  0.00844159  1
  Pd  Pd177  1  0.59262638  0.79250000  0.59713037  1
  Pd  Pd178  1  0.60542729  0.79991182  0.80668490  1
  Pd  Pd179  1  -0.00323411  0.80260348  0.78951421  1
  Pd  Pd180  1  0.40783504  0.40551335  0.79303512  1
  Pd  Pd181  1  0.60339939  0.40186261  0.39693019  1
  Pd  Pd182  1  0.59469887  0.00546310  0.60472210  1
  Pd  Pd183  1  0.79093786  0.20790559  0.19046995  1
  Pd  Pd184  1  0.39403869  0.20789367  0.19031438  1
  Pd  Pd185  1  0.19888925  0.79474489  0.00841763  1
  Pd  Pd186  1  0.00001291  0.61100409  0.40936449  1
  Pd  Pd187  1  0.40103054  0.20860943  0.00786172  1
  Pd  Pd188  1  -0.00003876  0.39098264  0.39281372  1
  Pd  Pd189  1  0.40674424  -0.00030460  0.60132713  1
  Pd  Pd190  1  0.79814746  -0.00866859  0.80302864  1
  Pd  Pd191  1  0.20012392  0.60576672  0.19305433  1
  Pd  Pd192  1  0.59889884  0.00452230  0.39606527  1
  Pd  Pd193  1  0.59876097  0.39640328  -0.00436202  1
  Pd  Pd194  1  0.60306082  0.59859140  0.80265743  1
  Pd  Pd195  1  0.59719682  0.19403299  0.80871198  1
  Pd  Pd196  1  0.40067885  0.60371878  -0.00059415  1
  Pd  Pd197  1  0.00137690  0.79273863  0.00793416  1
  Pd  Pd198  1  -0.00100182  0.40279135  0.21041196  1
  Pd  Pd199  1  0.80147807  0.20695432  0.79995503  1
  Rh  Rh200  1  0.60304561  0.60009169  0.59359289  1
  Rh  Rh201  1  0.79626057  0.40106090  0.20233834  1
  Rh  Rh202  1  0.60658647  0.80692777  0.19349710  1
  Rh  Rh203  1  0.20196891  0.40004890  0.20449587  1
  Rh  Rh204  1  0.80297919  0.59335679  0.60014621  1
  Rh  Rh205  1  0.19904265  0.00075047  0.19981856  1
  Rh  Rh206  1  0.79735391  0.20051918  0.60407106  1
  Rh  Rh207  1  0.40800660  -0.00006621  0.19278658  1
  Rh  Rh208  1  0.80345451  0.80041135  0.61209258  1
  Rh  Rh209  1  0.79166888  0.39147857  0.39900878  1
  Rh  Rh210  1  0.59428870  0.41145650  0.60121201  1
  Rh  Rh211  1  0.40185218  0.60874858  0.39003548  1
  Rh  Rh212  1  0.19822430  0.79625398  0.59991892  1
  Rh  Rh213  1  0.40250798  0.39761727  -0.00060320  1
  Rh  Rh214  1  0.00480501  0.40423990  -0.00420085  1
  Rh  Rh215  1  0.60328601  0.79947986  -0.00354082  1
  Rh  Rh216  1  0.59607327  0.01296438  0.00924477  1
  Rh  Rh217  1  0.60781244  0.19322643  0.18768053  1
  Rh  Rh218  1  0.00506352  0.40050720  0.59966077  1
  Rh  Rh219  1  0.40968612  0.60004905  0.19481153  1
  Rh  Rh220  1  0.20406572  0.00704926  -0.00780114  1
  Rh  Rh221  1  0.78919607  0.59566744  0.79909117  1
  Rh  Rh222  1  0.59961170  0.40430012  0.20305317  1
  Rh  Rh223  1  0.79506158  0.00079187  0.60480098  1
  Rh  Rh224  1  0.79379315  0.39456036  -0.00816498  1
  Rh  Rh225  1  0.40058711  0.60417579  0.80164894  1
  Rh  Rh226  1  0.39662899  -0.01116789  0.80188985  1
  Rh  Rh227  1  0.79307408  0.20743326  0.00538705  1
  Rh  Rh228  1  0.80560370  -0.00769955  -0.00549390  1
  Rh  Rh229  1  0.00075823  0.19672108  0.00067574  1
  Rh  Rh230  1  0.39876082  0.80384487  -0.00593369  1
  Rh  Rh231  1  -0.00590867  0.80840596  0.20018183  1
  Rh  Rh232  1  0.20005830  0.39022761  0.79637669  1
  Rh  Rh233  1  0.41070885  0.20581994  0.39780850  1
  Rh  Rh234  1  -0.00991341  0.39294386  0.79959028  1
  Rh  Rh235  1  0.41124612  0.20047009  0.80065731  1
  Rh  Rh236  1  0.39985935  0.39799761  0.20548547  1
  Rh  Rh237  1  0.39767677  -0.00650376  0.00155309  1
  Rh  Rh238  1  -0.00472390  0.58739679  0.19383432  1
  Rh  Rh239  1  0.58538308  0.78996351  0.41259904  1
  Rh  Rh240  1  0.39930914  0.80275615  0.20048927  1
  Rh  Rh241  1  0.00433621  -0.00493002  0.80542258  1
  Rh  Rh242  1  0.40260102  0.79986913  0.80414180  1
  Rh  Rh243  1  -0.01098715  0.19989763  0.79989210  1
  Rh  Rh244  1  0.60911232  0.41011376  0.80042871  1
  Rh  Rh245  1  0.59022637  0.59738096  0.00821351  1
  Rh  Rh246  1  0.20675699  0.60666605  0.39300421  1
  Rh  Rh247  1  0.18997946  0.19409558  0.40822108  1
  Rh  Rh248  1  0.79476556  -0.00828412  0.19628961  1
  Rh  Rh249  1  0.20745818  0.80123215  0.19854780  1
