# generated using pymatgen
data_ZrScNbPdRh
_symmetry_space_group_name_H-M   'P 1'
_cell_length_a   16.54901541
_cell_length_b   16.54983310
_cell_length_c   16.55136547
_cell_angle_alpha   89.96986564
_cell_angle_beta   90.01015520
_cell_angle_gamma   89.98038948
_symmetry_Int_Tables_number   1
_chemical_formula_structural   ZrScNbPdRh
_chemical_formula_sum   'Zr50 Sc50 Nb50 Pd50 Rh50'
_cell_volume   4533.14399935
_cell_formula_units_Z   50
loop_
 _symmetry_equiv_pos_site_id
 _symmetry_equiv_pos_as_xyz
  1  'x, y, z'
loop_
 _atom_site_type_symbol
 _atom_site_label
 _atom_site_symmetry_multiplicity
 _atom_site_fract_x
 _atom_site_fract_y
 _atom_site_fract_z
 _atom_site_occupancy
  Zr  Zr0  1  0.30430127  0.71178763  0.69827577  1
  Zr  Zr1  1  0.09994806  0.69843716  0.70316969  1
  Zr  Zr2  1  0.69948129  0.50714652  0.30207652  1
  Zr  Zr3  1  0.50333834  0.29303767  0.29473444  1
  Zr  Zr4  1  0.10751983  0.89008557  0.09400445  1
  Zr  Zr5  1  0.31014349  0.09867073  0.50719333  1
  Zr  Zr6  1  0.30145256  0.48847706  0.09885513  1
  Zr  Zr7  1  0.29761623  0.49721195  0.30094726  1
  Zr  Zr8  1  0.49842008  0.50391157  0.89750741  1
  Zr  Zr9  1  0.30797710  0.09896560  0.08805537  1
  Zr  Zr10  1  0.49901281  0.29405079  0.50274909  1
  Zr  Zr11  1  0.29789703  0.29632769  0.91369663  1
  Zr  Zr12  1  0.50482835  0.30921596  0.70102571  1
  Zr  Zr13  1  0.90140790  0.10388299  0.69923848  1
  Zr  Zr14  1  0.30060542  0.90148658  0.10018628  1
  Zr  Zr15  1  0.50454714  0.90042603  0.89439770  1
  Zr  Zr16  1  0.09759061  0.90379456  0.89737512  1
  Zr  Zr17  1  0.29684211  0.69462221  0.30646293  1
  Zr  Zr18  1  0.71041196  0.09638775  0.71381088  1
  Zr  Zr19  1  0.90914335  0.49827515  0.10401620  1
  Zr  Zr20  1  0.29912885  0.90860213  0.90733461  1
  Zr  Zr21  1  0.50161219  0.70577917  0.70087960  1
  Zr  Zr22  1  0.11205059  0.30282700  0.69095772  1
  Zr  Zr23  1  0.70235124  0.70469947  0.91055711  1
  Zr  Zr24  1  0.10237300  0.50186322  0.89357894  1
  Zr  Zr25  1  0.89839592  0.89769704  0.49563278  1
  Zr  Zr26  1  0.89760425  0.30238354  0.90091133  1
  Zr  Zr27  1  0.89876665  0.10411227  0.11698326  1
  Zr  Zr28  1  0.89750597  0.49946132  0.30031708  1
  Zr  Zr29  1  0.49756044  0.90401579  0.50392780  1
  Zr  Zr30  1  0.29252100  0.49305735  0.70787177  1
  Zr  Zr31  1  0.10015771  0.10197613  0.70869617  1
  Zr  Zr32  1  0.89621056  0.50429616  0.69013925  1
  Zr  Zr33  1  0.29622123  0.71175756  0.10569663  1
  Zr  Zr34  1  0.90038252  0.29964653  0.10040563  1
  Zr  Zr35  1  0.50255152  0.09668550  0.49140941  1
  Zr  Zr36  1  0.69936854  0.70087738  0.28749601  1
  Zr  Zr37  1  0.10347683  0.49060349  0.50548827  1
  Zr  Zr38  1  0.30284990  0.50458224  0.49207622  1
  Zr  Zr39  1  0.09192083  0.09827278  0.29976825  1
  Zr  Zr40  1  0.51082650  0.29745374  0.89946788  1
  Zr  Zr41  1  0.89849280  0.70205336  0.50453747  1
  Zr  Zr42  1  0.08960942  0.29584507  0.10245188  1
  Zr  Zr43  1  0.50407017  0.70408313  0.89609849  1
  Zr  Zr44  1  0.08798533  0.70187860  0.90319183  1
  Zr  Zr45  1  0.70363065  0.50718529  0.10216531  1
  Zr  Zr46  1  0.30288080  0.30444105  0.29062887  1
  Zr  Zr47  1  0.50171840  0.10438884  0.30547406  1
  Zr  Zr48  1  0.70546972  0.89837099  0.49810030  1
  Zr  Zr49  1  0.69844465  0.90998115  0.89032302  1
  Sc  Sc50  1  0.71078318  0.50201462  0.50366951  1
  Sc  Sc51  1  0.10192900  0.49900329  0.29119334  1
  Sc  Sc52  1  0.89993851  0.69799217  0.08941037  1
  Sc  Sc53  1  0.10498376  0.90362309  0.30483339  1
  Sc  Sc54  1  0.48963835  0.90287002  0.09459026  1
  Sc  Sc55  1  0.50876918  0.50345084  0.50315855  1
  Sc  Sc56  1  0.89754041  0.69904909  0.89607032  1
  Sc  Sc57  1  0.50802599  0.69421669  0.50416298  1
  Sc  Sc58  1  0.89564380  0.70130316  0.30003371  1
  Sc  Sc59  1  0.10208079  0.71331953  0.50141347  1
  Sc  Sc60  1  0.89817264  0.88781975  0.89760228  1
  Sc  Sc61  1  0.49461845  0.29040025  0.10490043  1
  Sc  Sc62  1  0.89947145  0.49760835  0.89699353  1
  Sc  Sc63  1  0.30109884  0.29377804  0.10222974  1
  Sc  Sc64  1  0.89611149  0.90424875  0.30138491  1
  Sc  Sc65  1  0.70453533  0.10201339  0.48830590  1
  Sc  Sc66  1  0.29086966  0.29941265  0.50895177  1
  Sc  Sc67  1  0.69758615  0.69782461  0.69430515  1
  Sc  Sc68  1  0.51074216  0.09589959  0.91058451  1
  Sc  Sc69  1  0.69974483  0.69792587  0.50210678  1
  Sc  Sc70  1  0.31279804  0.69725532  0.90028891  1
  Sc  Sc71  1  0.70078619  0.09958009  0.10720099  1
  Sc  Sc72  1  0.70560014  0.10494739  0.30028864  1
  Sc  Sc73  1  0.70602976  0.88918825  0.10446435  1
  Sc  Sc74  1  0.50518179  0.69047631  0.30292596  1
  Sc  Sc75  1  0.49457717  0.91078685  0.30443702  1
  Sc  Sc76  1  0.69615105  0.49601663  0.69793022  1
  Sc  Sc77  1  0.29658961  0.89622039  0.50088042  1
  Sc  Sc78  1  0.50204257  0.49047449  0.09576221  1
  Sc  Sc79  1  0.50121948  0.50491438  0.30375207  1
  Sc  Sc80  1  0.10121505  0.10125263  0.89465880  1
  Sc  Sc81  1  0.89796559  0.29414369  0.29948805  1
  Sc  Sc82  1  0.10106300  0.89992714  0.49403954  1
  Sc  Sc83  1  0.90947124  0.10436667  0.88862577  1
  Sc  Sc84  1  0.10790976  0.29766202  0.30260289  1
  Sc  Sc85  1  0.88954101  0.29862457  0.70055707  1
  Sc  Sc86  1  0.09440496  0.49677378  0.70271207  1
  Sc  Sc87  1  0.69889929  0.49720457  0.90134183  1
  Sc  Sc88  1  0.89712838  0.10189521  0.48663016  1
  Sc  Sc89  1  0.49165314  0.09965695  0.68956118  1
  Sc  Sc90  1  0.29805908  0.70601354  0.50070049  1
  Sc  Sc91  1  0.10677496  0.10112722  0.48693087  1
  Sc  Sc92  1  0.29405603  0.89874872  0.29527407  1
  Sc  Sc93  1  0.90043819  0.70026816  0.70069355  1
  Sc  Sc94  1  0.69065288  0.30012458  0.10484652  1
  Sc  Sc95  1  0.09736507  0.90145277  0.70284045  1
  Sc  Sc96  1  0.29584902  0.09607694  0.30238880  1
  Sc  Sc97  1  0.50219604  0.70828688  0.09354804  1
  Sc  Sc98  1  0.09125140  0.29578392  0.90131189  1
  Sc  Sc99  1  0.88585180  0.30097191  0.50133337  1
  Nb  Nb100  1  0.10010202  0.69833562  0.29441738  1
  Nb  Nb101  1  0.69887072  0.90825155  0.69832709  1
  Nb  Nb102  1  0.69771227  0.28999803  0.88704972  1
  Nb  Nb103  1  0.50047155  0.89739425  0.69884722  1
  Nb  Nb104  1  0.90157525  0.90342059  0.09845683  1
  Nb  Nb105  1  0.70257557  0.09936694  0.90253873  1
  Nb  Nb106  1  0.09212442  0.51157761  0.09985616  1
  Nb  Nb107  1  0.29977437  0.49616553  0.90653328  1
  Nb  Nb108  1  0.30466153  0.29161105  0.69785528  1
  Nb  Nb109  1  0.49931409  0.50034118  0.70149011  1
  Nb  Nb110  1  0.70470593  0.29852480  0.50175672  1
  Nb  Nb111  1  0.08696303  0.10220655  0.10234308  1
  Nb  Nb112  1  0.50192063  0.09914117  0.10769331  1
  Nb  Nb113  1  0.89666449  0.09772744  0.29688728  1
  Nb  Nb114  1  0.09882484  0.30081362  0.50118220  1
  Nb  Nb115  1  0.29575819  0.10309724  0.70149343  1
  Nb  Nb116  1  0.30156727  0.10025723  0.89492689  1
  Nb  Nb117  1  0.70027835  0.89968114  0.30019046  1
  Nb  Nb118  1  0.30736767  0.90032034  0.69646219  1
  Nb  Nb119  1  0.88829628  0.91196622  0.69753441  1
  Nb  Nb120  1  0.09546753  0.69373718  0.10041145  1
  Nb  Nb121  1  0.69939077  0.29440273  0.70041020  1
  Nb  Nb122  1  0.90050277  0.50001185  0.49799000  1
  Nb  Nb123  1  0.70075346  0.30060846  0.30497542  1
  Nb  Nb124  1  0.70417436  0.69944860  0.10073552  1
  Nb  Nb125  1  -0.00018796  0.59660094  0.40356652  1
  Nb  Nb126  1  -0.00185561  0.40168715  0.40608678  1
  Nb  Nb127  1  0.39605884  0.00350201  0.79730379  1
  Nb  Nb128  1  0.00455574  0.79766242  0.19413058  1
  Nb  Nb129  1  0.19908872  0.59618781  0.00233855  1
  Nb  Nb130  1  0.40575271  0.79797523  0.40068182  1
  Nb  Nb131  1  0.39472798  0.59888513  0.19713165  1
  Nb  Nb132  1  0.79661508  0.40195233  0.20292460  1
  Nb  Nb133  1  0.60584616  0.00025218  0.60297835  1
  Nb  Nb134  1  0.79522244  0.19694840  -0.00599037  1
  Nb  Nb135  1  0.60918412  0.19917946  0.60143070  1
  Nb  Nb136  1  0.80523172  0.00446886  0.00036217  1
  Nb  Nb137  1  0.40502082  0.39666432  0.40081388  1
  Nb  Nb138  1  0.39598155  0.39707384  0.80340080  1
  Nb  Nb139  1  0.60435674  0.39357233  0.40220027  1
  Nb  Nb140  1  -0.00456368  0.00047318  0.00637345  1
  Nb  Nb141  1  -0.00042518  0.00495086  0.59849798  1
  Nb  Nb142  1  0.20385035  0.60029447  0.60435807  1
  Nb  Nb143  1  0.60140106  0.80412838  0.39674753  1
  Nb  Nb144  1  0.39581400  0.19971287  0.80119257  1
  Nb  Nb145  1  0.20108063  0.00344587  0.60685011  1
  Nb  Nb146  1  0.60030448  -0.00124188  0.20356293  1
  Nb  Nb147  1  0.39835659  0.59735723  0.60802752  1
  Nb  Nb148  1  0.20405851  0.80406482  0.80170672  1
  Nb  Nb149  1  0.00372005  0.19945339  0.59451955  1
  Pd  Pd150  1  0.39657895  0.59453404  0.79553206  1
  Pd  Pd151  1  0.20327621  0.78803421  -0.01183359  1
  Pd  Pd152  1  0.18931914  0.01220245  0.00473174  1
  Pd  Pd153  1  0.60074130  0.40335467  0.20675809  1
  Pd  Pd154  1  -0.01173501  0.38869513  0.59796559  1
  Pd  Pd155  1  -0.00382104  0.39688862  0.79197942  1
  Pd  Pd156  1  0.39633402  0.60288513  0.01072194  1
  Pd  Pd157  1  0.40942825  0.79411498  0.21131128  1
  Pd  Pd158  1  0.79552715  0.59825789  0.79956257  1
  Pd  Pd159  1  0.20560094  0.61019057  0.80469416  1
  Pd  Pd160  1  0.00824862  0.60362012  0.59336082  1
  Pd  Pd161  1  0.59827401  0.60189413  0.00442839  1
  Pd  Pd162  1  0.18481069  0.60448281  0.40930779  1
  Pd  Pd163  1  0.39510015  0.40659996  0.59854218  1
  Pd  Pd164  1  0.20354326  0.38794696  0.80686755  1
  Pd  Pd165  1  0.19585287  0.00597674  0.19368389  1
  Pd  Pd166  1  0.78965803  0.39074577  0.00586489  1
  Pd  Pd167  1  0.40137474  0.00505889  0.20468775  1
  Pd  Pd168  1  0.80126568  0.60834492  0.40250890  1
  Pd  Pd169  1  -0.00183591  0.81143455  0.60568922  1
  Pd  Pd170  1  0.20801181  0.20291126  0.40088711  1
  Pd  Pd171  1  0.60531555  0.19847159  0.00850538  1
  Pd  Pd172  1  0.79365726  0.79904839  0.79210296  1
  Pd  Pd173  1  0.20167993  0.20874199  0.80573643  1
  Pd  Pd174  1  0.60901036  0.39929208  0.59331558  1
  Pd  Pd175  1  0.79491486  0.40295615  0.79495820  1
  Pd  Pd176  1  0.20089974  0.19017299  0.19419618  1
  Pd  Pd177  1  0.58826705  0.80896808  0.20523534  1
  Pd  Pd178  1  0.61167886  0.79829662  0.79554181  1
  Pd  Pd179  1  0.18926736  0.39842874  0.19137636  1
  Pd  Pd180  1  0.60827929  0.59938270  0.79832076  1
  Pd  Pd181  1  0.19106264  0.19302821  0.00360747  1
  Pd  Pd182  1  0.00598326  0.40474987  -0.00335251  1
  Pd  Pd183  1  0.81213893  0.79990636  0.19808007  1
  Pd  Pd184  1  0.60413483  0.80961472  0.00329020  1
  Pd  Pd185  1  0.20571012  0.59813544  0.19197506  1
  Pd  Pd186  1  0.38819477  0.20745103  0.39892075  1
  Pd  Pd187  1  0.60629257  0.39730581  -0.00336853  1
  Pd  Pd188  1  0.59008251  0.18587754  0.79103425  1
  Pd  Pd189  1  0.00122817  0.79582547  0.38860169  1
  Pd  Pd190  1  0.58828581  0.60090302  0.18801202  1
  Pd  Pd191  1  -0.00514941  0.20762498  0.40185902  1
  Pd  Pd192  1  0.80661204  0.59756622  -0.00211330  1
  Pd  Pd193  1  0.79815666  0.79735069  0.60763149  1
  Pd  Pd194  1  0.40882045  0.39105256  -0.00275564  1
  Pd  Pd195  1  0.00542440  -0.01245097  0.20037926  1
  Pd  Pd196  1  0.60965442  -0.00677418  0.01475570  1
  Pd  Pd197  1  0.18631935  0.40214609  0.00696720  1
  Pd  Pd198  1  -0.00310345  0.80454231  0.79131495  1
  Pd  Pd199  1  0.80075560  0.00965018  0.58992168  1
  Rh  Rh200  1  -0.00447519  -0.00107491  0.40217716  1
  Rh  Rh201  1  -0.00878139  0.19050336  -0.00066251  1
  Rh  Rh202  1  0.81028247  -0.00113906  0.81164932  1
  Rh  Rh203  1  0.79426608  0.21023089  0.19754449  1
  Rh  Rh204  1  0.59580387  0.59587189  0.60519739  1
  Rh  Rh205  1  0.20509821  0.80021125  0.39345413  1
  Rh  Rh206  1  0.80757826  0.60039333  0.19078773  1
  Rh  Rh207  1  0.20461062  -0.00193251  0.40847939  1
  Rh  Rh208  1  0.79960131  0.60135261  0.60090051  1
  Rh  Rh209  1  0.60211933  0.80959308  0.59560228  1
  Rh  Rh210  1  0.60952193  -0.00637011  0.39819782  1
  Rh  Rh211  1  0.20146793  0.39329707  0.40043250  1
  Rh  Rh212  1  0.40709356  0.00508111  -0.00649453  1
  Rh  Rh213  1  -0.00584776  0.80439180  0.00573696  1
  Rh  Rh214  1  0.40874891  0.19507000  -0.00381387  1
  Rh  Rh215  1  0.79788396  0.19548424  0.59871362  1
  Rh  Rh216  1  0.80424263  0.20152297  0.80616262  1
  Rh  Rh217  1  0.60430431  0.19128976  0.20120059  1
  Rh  Rh218  1  0.20971058  -0.00880401  0.79374586  1
  Rh  Rh219  1  0.40576739  0.20235124  0.60461600  1
  Rh  Rh220  1  0.60036960  0.40536942  0.80343358  1
  Rh  Rh221  1  -0.00946561  0.59611892  0.79959517  1
  Rh  Rh222  1  0.19213874  0.19021155  0.59489662  1
  Rh  Rh223  1  0.79123804  0.79515864  0.39395762  1
  Rh  Rh224  1  0.38714966  -0.00899415  0.39766866  1
  Rh  Rh225  1  0.00211177  0.21372521  0.78848501  1
  Rh  Rh226  1  0.39567135  0.81319893  0.80775250  1
  Rh  Rh227  1  -0.00090368  0.59421983  -0.00858775  1
  Rh  Rh228  1  0.80222350  0.20151901  0.39400851  1
  Rh  Rh229  1  -0.00830634  -0.00823062  0.80052438  1
  Rh  Rh230  1  0.20771966  0.40465182  0.59974743  1
  Rh  Rh231  1  0.40529028  0.60153467  0.40288665  1
  Rh  Rh232  1  0.79195031  -0.00422375  0.20022357  1
  Rh  Rh233  1  0.58756864  0.00674022  0.78778972  1
  Rh  Rh234  1  0.60895350  0.60024990  0.40453757  1
  Rh  Rh235  1  0.79863213  0.80397433  -0.00006044  1
  Rh  Rh236  1  0.60794975  0.20681312  0.40610875  1
  Rh  Rh237  1  -0.00097777  0.39403909  0.20964308  1
  Rh  Rh238  1  0.40148538  0.80045973  -0.00529840  1
  Rh  Rh239  1  0.40834925  0.79339624  0.58993429  1
  Rh  Rh240  1  0.80065034  0.00085416  0.39200605  1
  Rh  Rh241  1  0.40943982  0.40732066  0.20733429  1
  Rh  Rh242  1  0.19472284  0.80516877  0.61000962  1
  Rh  Rh243  1  0.39372735  0.18940754  0.20005765  1
  Rh  Rh244  1  -0.00650771  0.61013458  0.20877092  1
  Rh  Rh245  1  0.79845808  0.39794600  0.39571365  1
  Rh  Rh246  1  0.79736320  0.40077139  0.60429542  1
  Rh  Rh247  1  0.00210949  0.20603458  0.21318561  1
  Rh  Rh248  1  0.19117763  0.79936385  0.20640648  1
  Rh  Rh249  1  0.39894400  -0.00242890  0.60422132  1
