# generated using pymatgen
data_ZrScNbPdRh
_symmetry_space_group_name_H-M   'P 1'
_cell_length_a   16.55690249
_cell_length_b   16.56024450
_cell_length_c   16.55680664
_cell_angle_alpha   89.98946837
_cell_angle_beta   90.01270357
_cell_angle_gamma   90.01455849
_symmetry_Int_Tables_number   1
_chemical_formula_structural   ZrScNbPdRh
_chemical_formula_sum   'Zr50 Sc50 Nb50 Pd50 Rh50'
_cell_volume   4539.65010094
_cell_formula_units_Z   50
loop_
 _symmetry_equiv_pos_site_id
 _symmetry_equiv_pos_as_xyz
  1  'x, y, z'
loop_
 _atom_site_type_symbol
 _atom_site_label
 _atom_site_symmetry_multiplicity
 _atom_site_fract_x
 _atom_site_fract_y
 _atom_site_fract_z
 _atom_site_occupancy
  Zr  Zr0  1  0.29866967  0.10559826  0.29684346  1
  Zr  Zr1  1  0.91290432  0.10265261  0.10025942  1
  Zr  Zr2  1  0.89740534  0.50064099  0.89415197  1
  Zr  Zr3  1  0.50539002  0.69461058  0.10898166  1
  Zr  Zr4  1  0.10940126  0.30472091  0.69903445  1
  Zr  Zr5  1  0.49342806  0.10128411  0.09347119  1
  Zr  Zr6  1  0.10640548  0.09827700  0.10005225  1
  Zr  Zr7  1  0.10773337  0.50709668  0.70110803  1
  Zr  Zr8  1  0.90025168  0.10007311  0.50249058  1
  Zr  Zr9  1  0.70481804  0.70098584  0.10199366  1
  Zr  Zr10  1  0.29498439  0.69108400  0.69347775  1
  Zr  Zr11  1  0.30396878  0.88925002  0.30232849  1
  Zr  Zr12  1  0.49120552  0.49375937  0.89744222  1
  Zr  Zr13  1  0.11010270  0.50007902  0.91120924  1
  Zr  Zr14  1  0.29856614  0.28786010  0.10340208  1
  Zr  Zr15  1  0.30089364  0.30642535  0.89845202  1
  Zr  Zr16  1  0.90260547  0.89434475  0.10814700  1
  Zr  Zr17  1  0.49262076  0.69142069  0.91159369  1
  Zr  Zr18  1  0.90166602  0.29596567  0.09691288  1
  Zr  Zr19  1  0.50150016  0.50435844  0.50108294  1
  Zr  Zr20  1  0.69544865  0.09103572  0.29793131  1
  Zr  Zr21  1  0.10514240  0.10161743  0.70187944  1
  Zr  Zr22  1  0.49983150  0.90488323  0.89988915  1
  Zr  Zr23  1  0.30422890  0.10074861  0.49668969  1
  Zr  Zr24  1  0.71137856  0.70381337  0.69797312  1
  Zr  Zr25  1  0.89477543  0.69935600  0.30068739  1
  Zr  Zr26  1  0.09415437  0.09773813  0.90309116  1
  Zr  Zr27  1  0.90317975  0.69865680  0.70989123  1
  Zr  Zr28  1  0.49395693  0.69136205  0.69750882  1
  Zr  Zr29  1  0.89518410  0.30940836  0.69990933  1
  Zr  Zr30  1  0.90813350  0.09594446  0.29913325  1
  Zr  Zr31  1  0.30248644  0.50614722  0.49313572  1
  Zr  Zr32  1  0.50136087  0.30188270  0.70525663  1
  Zr  Zr33  1  0.89425238  0.50383664  0.69429391  1
  Zr  Zr34  1  0.91420390  0.90172747  0.49727600  1
  Zr  Zr35  1  0.90516220  0.70330355  0.09714063  1
  Zr  Zr36  1  0.48963176  0.89058192  0.09611860  1
  Zr  Zr37  1  0.10279749  0.50497329  0.10408638  1
  Zr  Zr38  1  0.30106266  0.09669025  0.70276777  1
  Zr  Zr39  1  0.89756254  0.69837779  0.50529606  1
  Zr  Zr40  1  0.10020426  0.70065444  0.50269585  1
  Zr  Zr41  1  0.50052227  0.29545861  0.89302527  1
  Zr  Zr42  1  0.08871318  0.69437554  0.90248012  1
  Zr  Zr43  1  0.49939585  0.50505131  0.10072652  1
  Zr  Zr44  1  0.50008282  0.30021364  0.50007496  1
  Zr  Zr45  1  0.10424914  0.89065130  0.50081312  1
  Zr  Zr46  1  0.29382874  0.29799843  0.70028259  1
  Zr  Zr47  1  0.09751858  0.90493286  0.89515017  1
  Zr  Zr48  1  0.30666571  0.90244142  0.90117674  1
  Zr  Zr49  1  0.70534158  0.30400290  0.09653197  1
  Sc  Sc50  1  0.30357068  0.10227105  0.90177065  1
  Sc  Sc51  1  0.29317958  0.49543102  0.10025016  1
  Sc  Sc52  1  0.90510260  0.49954045  0.10509800  1
  Sc  Sc53  1  0.08899116  0.89520565  0.30785449  1
  Sc  Sc54  1  0.49043703  0.30132507  0.29794656  1
  Sc  Sc55  1  0.90351624  0.89528339  0.89837852  1
  Sc  Sc56  1  0.69884624  0.49124323  0.90166079  1
  Sc  Sc57  1  0.70511950  0.50678153  0.49989916  1
  Sc  Sc58  1  0.49985520  0.09471145  0.49679898  1
  Sc  Sc59  1  0.70679239  0.90345806  0.90238286  1
  Sc  Sc60  1  0.69234390  0.69993084  0.29491179  1
  Sc  Sc61  1  0.50328002  0.10304003  0.70519689  1
  Sc  Sc62  1  0.10351557  0.30418460  0.29641481  1
  Sc  Sc63  1  0.68978440  0.30357004  0.69696486  1
  Sc  Sc64  1  0.49476739  0.90170863  0.49700679  1
  Sc  Sc65  1  0.89596008  0.09492356  0.69109593  1
  Sc  Sc66  1  0.49772311  0.69573899  0.50062405  1
  Sc  Sc67  1  0.70306863  0.89745231  0.10644810  1
  Sc  Sc68  1  0.70182718  0.90460070  0.69723572  1
  Sc  Sc69  1  0.69549599  0.49711519  0.10913170  1
  Sc  Sc70  1  0.10043260  0.30338310  0.09851682  1
  Sc  Sc71  1  0.89790755  0.32239832  0.49867674  1
  Sc  Sc72  1  0.29725009  0.90342241  0.69249985  1
  Sc  Sc73  1  0.49401714  0.30570305  0.09850176  1
  Sc  Sc74  1  0.10001839  0.10217534  0.29341155  1
  Sc  Sc75  1  0.49526827  0.51153543  0.29830699  1
  Sc  Sc76  1  0.69839883  0.69943334  0.50240890  1
  Sc  Sc77  1  0.31470611  0.69878155  0.09878188  1
  Sc  Sc78  1  0.70855374  0.31474120  0.29376878  1
  Sc  Sc79  1  0.09400044  0.50006750  0.49477391  1
  Sc  Sc80  1  0.90063093  0.89738139  0.69559412  1
  Sc  Sc81  1  0.09931089  0.69454446  0.30371446  1
  Sc  Sc82  1  0.69862077  0.09386976  0.89673206  1
  Sc  Sc83  1  0.70097116  0.49532910  0.70398544  1
  Sc  Sc84  1  0.29749459  0.70730908  0.49914432  1
  Sc  Sc85  1  0.89843660  0.49625700  0.30772507  1
  Sc  Sc86  1  0.49981153  0.09113879  0.30391983  1
  Sc  Sc87  1  0.29693034  0.50112026  0.29825510  1
  Sc  Sc88  1  0.49589305  0.90812905  0.69341307  1
  Sc  Sc89  1  0.49625258  0.09799655  0.89403927  1
  Sc  Sc90  1  0.29592651  0.29932015  0.30478914  1
  Sc  Sc91  1  0.09712266  0.90413808  0.70029340  1
  Sc  Sc92  1  0.09798901  0.09328038  0.50007986  1
  Sc  Sc93  1  0.89881075  0.09959056  0.91208424  1
  Sc  Sc94  1  0.29954450  0.50306729  0.70604125  1
  Sc  Sc95  1  0.30405940  0.69556543  0.30421162  1
  Sc  Sc96  1  0.68745321  0.89899014  0.50401548  1
  Sc  Sc97  1  0.50192896  0.49484025  0.70045951  1
  Sc  Sc98  1  0.29977803  0.68462642  0.90286321  1
  Sc  Sc99  1  0.70889712  0.09383211  0.09348985  1
  Nb  Nb100  1  0.70314911  0.10616993  0.50011453  1
  Nb  Nb101  1  0.29812761  0.49948547  0.90134870  1
  Nb  Nb102  1  0.50986647  0.89358781  0.29490648  1
  Nb  Nb103  1  0.89699805  0.51076511  0.49407932  1
  Nb  Nb104  1  0.29695862  0.09560659  0.10358478  1
  Nb  Nb105  1  0.70511188  0.50090270  0.30390796  1
  Nb  Nb106  1  0.09640849  0.30323801  0.89842486  1
  Nb  Nb107  1  0.10603951  0.70034013  0.70316630  1
  Nb  Nb108  1  0.89751859  0.29876345  0.90272746  1
  Nb  Nb109  1  0.09944520  0.69868507  0.09543009  1
  Nb  Nb110  1  0.69471975  0.90072197  0.30332435  1
  Nb  Nb111  1  0.70650952  0.29658611  0.90004796  1
  Nb  Nb112  1  0.89858272  0.29805578  0.29973372  1
  Nb  Nb113  1  0.89284468  0.69897156  0.89935650  1
  Nb  Nb114  1  0.49629629  0.70687859  0.29117137  1
  Nb  Nb115  1  0.29648010  0.89947507  0.49878506  1
  Nb  Nb116  1  0.10423524  0.89726880  0.09619545  1
  Nb  Nb117  1  0.69503473  0.30000935  0.49729697  1
  Nb  Nb118  1  0.70420676  0.10799288  0.69465977  1
  Nb  Nb119  1  0.29614608  0.90071493  0.09845650  1
  Nb  Nb120  1  0.10630725  0.29840318  0.50448827  1
  Nb  Nb121  1  0.89560616  0.89926302  0.30394540  1
  Nb  Nb122  1  0.10286776  0.50120408  0.29339153  1
  Nb  Nb123  1  0.29587230  0.29749996  0.49836090  1
  Nb  Nb124  1  0.70537389  0.70328513  0.89816762  1
  Nb  Nb125  1  0.39395973  0.39475529  0.59562867  1
  Nb  Nb126  1  0.19689789  0.79960709  0.19041040  1
  Nb  Nb127  1  0.59573495  0.79417958  0.80374892  1
  Nb  Nb128  1  0.20139433  0.79521232  0.80315104  1
  Nb  Nb129  1  0.00249513  0.39812558  0.80272011  1
  Nb  Nb130  1  0.60597598  0.20047743  0.19766598  1
  Nb  Nb131  1  0.00370073  0.20995867  0.59916627  1
  Nb  Nb132  1  -0.00250526  0.20926255  0.40568537  1
  Nb  Nb133  1  0.79964477  0.20140835  0.39955108  1
  Nb  Nb134  1  0.80083458  0.20259964  0.79985630  1
  Nb  Nb135  1  0.39896558  0.79500694  0.79906885  1
  Nb  Nb136  1  0.20581295  -0.00633864  0.40050754  1
  Nb  Nb137  1  0.60078919  0.79524103  -0.00447530  1
  Nb  Nb138  1  0.60429950  0.40151714  0.39924084  1
  Nb  Nb139  1  -0.00448139  0.20758443  0.79958009  1
  Nb  Nb140  1  0.79640351  -0.00212813  0.39983395  1
  Nb  Nb141  1  0.80177136  0.19921367  0.20456831  1
  Nb  Nb142  1  0.60893284  0.20448850  0.39578731  1
  Nb  Nb143  1  0.60260193  0.60730736  0.80563566  1
  Nb  Nb144  1  0.79813510  0.80853813  0.39705234  1
  Nb  Nb145  1  0.39448243  0.20516035  0.59797338  1
  Nb  Nb146  1  0.60307752  0.20285116  -0.00018056  1
  Nb  Nb147  1  0.39334287  -0.00597453  0.19652891  1
  Nb  Nb148  1  0.19847313  0.79916659  0.00131807  1
  Nb  Nb149  1  0.80162049  0.60573448  -0.00395995  1
  Pd  Pd150  1  0.00255177  0.79704564  0.60969153  1
  Pd  Pd151  1  0.79003269  0.40425235  0.59320695  1
  Pd  Pd152  1  -0.01167030  0.00894323  0.79620326  1
  Pd  Pd153  1  0.60226473  -0.00202217  0.00403190  1
  Pd  Pd154  1  0.80472398  0.21123073  0.59946268  1
  Pd  Pd155  1  0.19469722  0.40372271  0.39742195  1
  Pd  Pd156  1  0.40864135  0.79541865  0.40390552  1
  Pd  Pd157  1  0.18935017  0.19297492  0.40085006  1
  Pd  Pd158  1  0.79524018  -0.00890638  0.59139298  1
  Pd  Pd159  1  0.59952268  0.00853300  0.60058472  1
  Pd  Pd160  1  0.00415369  0.40473454  0.60264627  1
  Pd  Pd161  1  0.80301303  0.00070097  0.20188294  1
  Pd  Pd162  1  -0.00107326  0.39822314  0.20442075  1
  Pd  Pd163  1  0.60751939  0.59709682  0.60944093  1
  Pd  Pd164  1  0.39444592  0.39976877  0.00555056  1
  Pd  Pd165  1  0.80798351  -0.00708520  0.00244836  1
  Pd  Pd166  1  -0.00085052  0.40400035  -0.00146029  1
  Pd  Pd167  1  0.59373381  0.39978388  0.20957907  1
  Pd  Pd168  1  0.20331662  -0.00088488  -0.00597622  1
  Pd  Pd169  1  0.59200253  0.19425545  0.59589153  1
  Pd  Pd170  1  0.39353554  0.40383154  0.20170831  1
  Pd  Pd171  1  0.40772778  0.19333211  0.20433484  1
  Pd  Pd172  1  0.19684041  0.60042937  0.40053224  1
  Pd  Pd173  1  0.59743524  0.39319209  -0.00443858  1
  Pd  Pd174  1  0.40351073  0.40202250  0.39957116  1
  Pd  Pd175  1  0.19784806  0.00029594  0.59435009  1
  Pd  Pd176  1  0.59105184  -0.00006121  0.18861197  1
  Pd  Pd177  1  0.00889449  -0.00798731  0.19899730  1
  Pd  Pd178  1  0.00326989  0.59278027  0.80129676  1
  Pd  Pd179  1  0.79793376  0.81117744  0.79860555  1
  Pd  Pd180  1  0.00694706  0.79633598  0.20610889  1
  Pd  Pd181  1  0.19749185  0.19654474  0.81125615  1
  Pd  Pd182  1  0.60087189  0.60019332  0.39297987  1
  Pd  Pd183  1  0.00121513  0.80490855  -0.00405998  1
  Pd  Pd184  1  0.59921345  0.79535506  0.40179720  1
  Pd  Pd185  1  0.80501441  0.00603492  0.79882111  1
  Pd  Pd186  1  0.39848602  -0.00628363  0.39213570  1
  Pd  Pd187  1  0.19733786  0.20316397  -0.00396085  1
  Pd  Pd188  1  0.61133922  0.59998262  -0.00361427  1
  Pd  Pd189  1  0.00207728  0.59957060  0.60014791  1
  Pd  Pd190  1  0.00607172  0.40017623  0.39585559  1
  Pd  Pd191  1  0.20006740  -0.01065014  0.21182139  1
  Pd  Pd192  1  0.20707088  0.61054501  0.19534592  1
  Pd  Pd193  1  0.39929072  0.80234788  0.60250060  1
  Pd  Pd194  1  -0.00218481  0.60051760  0.20721539  1
  Pd  Pd195  1  0.20658172  0.41216318  0.59215110  1
  Pd  Pd196  1  0.80256990  0.41128467  0.00478756  1
  Pd  Pd197  1  0.60416949  -0.00282434  0.79303291  1
  Pd  Pd198  1  0.59408606  0.80014992  0.60765916  1
  Pd  Pd199  1  0.80080143  0.59358276  0.19677153  1
  Rh  Rh200  1  0.19856290  0.40666812  0.80589920  1
  Rh  Rh201  1  0.39632562  0.19889041  0.79406443  1
  Rh  Rh202  1  0.20425202  0.60535087  0.00658784  1
  Rh  Rh203  1  0.60217106  0.59610995  0.20753752  1
  Rh  Rh204  1  0.00845618  0.20278310  -0.00246980  1
  Rh  Rh205  1  0.40103208  0.00778201  0.59912496  1
  Rh  Rh206  1  0.79392140  0.19482201  -0.00193250  1
  Rh  Rh207  1  0.00443962  0.79748451  0.79717653  1
  Rh  Rh208  1  0.19829433  0.59860107  0.59114871  1
  Rh  Rh209  1  0.60321856  0.80270308  0.19431377  1
  Rh  Rh210  1  -0.00015374  0.59666718  0.39629883  1
  Rh  Rh211  1  0.20373982  0.39300137  0.00343226  1
  Rh  Rh212  1  0.20078965  0.19136349  0.59270102  1
  Rh  Rh213  1  0.80226054  0.80599769  0.59031550  1
  Rh  Rh214  1  0.79827491  0.59945737  0.60044721  1
  Rh  Rh215  1  0.79729514  0.60923264  0.40012336  1
  Rh  Rh216  1  0.80867531  0.40104043  0.19859472  1
  Rh  Rh217  1  0.79550608  0.80314756  0.20998850  1
  Rh  Rh218  1  0.60298221  0.40383279  0.80583813  1
  Rh  Rh219  1  0.79847610  0.39447341  0.80111283  1
  Rh  Rh220  1  0.40284593  0.19966820  -0.00472135  1
  Rh  Rh221  1  0.20143469  0.39830625  0.20207141  1
  Rh  Rh222  1  0.61261659  0.19680183  0.80670633  1
  Rh  Rh223  1  0.39549171  0.59672242  0.20152345  1
  Rh  Rh224  1  -0.00946871  0.59564810  0.00130050  1
  Rh  Rh225  1  0.20524620  -0.00512117  0.80374950  1
  Rh  Rh226  1  0.19961678  0.79960635  0.60836666  1
  Rh  Rh227  1  -0.00341840  -0.00778353  0.00683149  1
  Rh  Rh228  1  0.19756240  0.80134723  0.39292041  1
  Rh  Rh229  1  0.39538932  0.59090868  0.59757054  1
  Rh  Rh230  1  0.39706417  0.79762353  -0.00688859  1
  Rh  Rh231  1  0.39365318  0.40326668  0.79237067  1
  Rh  Rh232  1  0.00620018  0.00497587  0.60534660  1
  Rh  Rh233  1  0.79492659  0.40256460  0.40305748  1
  Rh  Rh234  1  0.00554093  0.00599307  0.39848342  1
  Rh  Rh235  1  0.39842041  -0.00435414  0.79478296  1
  Rh  Rh236  1  0.39283462  0.58613684  0.00779191  1
  Rh  Rh237  1  0.39400021  0.00651745  0.00503420  1
  Rh  Rh238  1  0.00037984  0.20742453  0.20345665  1
  Rh  Rh239  1  0.60266962  0.00145825  0.40693405  1
  Rh  Rh240  1  0.39582317  0.80118798  0.20087494  1
  Rh  Rh241  1  0.40224608  0.60822585  0.39786361  1
  Rh  Rh242  1  -0.00669263  0.78902296  0.39812687  1
  Rh  Rh243  1  0.40728301  0.20233628  0.40283271  1
  Rh  Rh244  1  0.59808986  0.40711986  0.59142403  1
  Rh  Rh245  1  0.79136753  0.59472960  0.80451769  1
  Rh  Rh246  1  0.40333444  0.59670074  0.79961277  1
  Rh  Rh247  1  0.79890494  0.79844648  0.00097670  1
  Rh  Rh248  1  0.19536627  0.20340674  0.19821767  1
  Rh  Rh249  1  0.19894922  0.60313946  0.80701204  1
