# generated using pymatgen
data_ZrScNbPdRh
_symmetry_space_group_name_H-M   'P 1'
_cell_length_a   16.55778168
_cell_length_b   16.56558738
_cell_length_c   16.56118019
_cell_angle_alpha   89.98980973
_cell_angle_beta   90.04023392
_cell_angle_gamma   89.98362287
_symmetry_Int_Tables_number   1
_chemical_formula_structural   ZrScNbPdRh
_chemical_formula_sum   'Zr50 Sc50 Nb50 Pd50 Rh50'
_cell_volume   4542.55445416
_cell_formula_units_Z   50
loop_
 _symmetry_equiv_pos_site_id
 _symmetry_equiv_pos_as_xyz
  1  'x, y, z'
loop_
 _atom_site_type_symbol
 _atom_site_label
 _atom_site_symmetry_multiplicity
 _atom_site_fract_x
 _atom_site_fract_y
 _atom_site_fract_z
 _atom_site_occupancy
  Zr  Zr0  1  0.71064630  0.69703843  0.10392747  1
  Zr  Zr1  1  0.50383913  0.30446231  0.70229692  1
  Zr  Zr2  1  0.29798527  0.89796650  0.30465243  1
  Zr  Zr3  1  0.30478870  0.30207331  0.70808503  1
  Zr  Zr4  1  0.69713915  0.09628443  0.30341228  1
  Zr  Zr5  1  0.70706519  0.09519430  0.89826187  1
  Zr  Zr6  1  0.10061070  0.69961623  0.09939001  1
  Zr  Zr7  1  0.89414057  0.69931434  0.90286476  1
  Zr  Zr8  1  0.30357475  0.09955771  0.10306076  1
  Zr  Zr9  1  0.30469104  0.69871388  0.88886983  1
  Zr  Zr10  1  0.09760329  0.09682533  0.90595339  1
  Zr  Zr11  1  0.30492927  0.50232733  0.29910877  1
  Zr  Zr12  1  0.09441085  0.29912920  0.09429328  1
  Zr  Zr13  1  0.50172780  0.70964003  0.89038728  1
  Zr  Zr14  1  0.29351391  0.90299695  0.10697897  1
  Zr  Zr15  1  0.29324994  0.49148332  0.90340153  1
  Zr  Zr16  1  0.90251645  0.29454590  0.89686391  1
  Zr  Zr17  1  0.50808353  0.30485385  0.30223675  1
  Zr  Zr18  1  0.90030995  0.50273707  0.49433698  1
  Zr  Zr19  1  0.49503910  0.29287612  0.89826014  1
  Zr  Zr20  1  0.10334538  0.49913691  0.09147820  1
  Zr  Zr21  1  0.49278281  0.10138321  0.50673740  1
  Zr  Zr22  1  0.30301485  0.09917829  0.30890786  1
  Zr  Zr23  1  0.70019809  0.30790914  0.50840474  1
  Zr  Zr24  1  0.70314999  0.48800176  0.70046909  1
  Zr  Zr25  1  0.09947588  0.89893453  0.69740436  1
  Zr  Zr26  1  0.10225572  0.09196750  0.09698349  1
  Zr  Zr27  1  0.71001515  0.30098327  0.10033420  1
  Zr  Zr28  1  0.30271868  0.29956332  0.50383296  1
  Zr  Zr29  1  0.50532885  0.90157468  0.89990557  1
  Zr  Zr30  1  0.88861187  0.89805420  0.30115274  1
  Zr  Zr31  1  0.09814983  0.30040528  0.70432785  1
  Zr  Zr32  1  0.09783719  0.49746654  0.50055565  1
  Zr  Zr33  1  0.31290499  0.10147918  0.89921519  1
  Zr  Zr34  1  0.51092374  0.70404723  0.09667817  1
  Zr  Zr35  1  0.89694557  0.09966197  0.49736410  1
  Zr  Zr36  1  0.50290435  0.49675605  0.10788845  1
  Zr  Zr37  1  0.90062812  0.29962533  0.49759007  1
  Zr  Zr38  1  0.30076471  0.10113161  0.69893788  1
  Zr  Zr39  1  0.69216357  0.70656556  0.69479220  1
  Zr  Zr40  1  0.09627076  0.91161503  0.50482751  1
  Zr  Zr41  1  0.10147464  0.90632824  0.09916697  1
  Zr  Zr42  1  0.90748893  0.89403950  0.69584123  1
  Zr  Zr43  1  0.29930766  0.29091761  0.30603073  1
  Zr  Zr44  1  0.30567842  0.69969370  0.51125808  1
  Zr  Zr45  1  0.30558606  0.49736848  0.09785008  1
  Zr  Zr46  1  0.10187690  0.70589517  0.70365890  1
  Zr  Zr47  1  0.90033165  0.70383845  0.69627902  1
  Zr  Zr48  1  0.89664125  0.30255075  0.29497984  1
  Zr  Zr49  1  0.29740840  0.10073558  0.49390965  1
  Sc  Sc50  1  0.88683816  0.30000897  0.69976787  1
  Sc  Sc51  1  0.10274727  0.10479445  0.30028637  1
  Sc  Sc52  1  0.69380605  0.30679558  0.89609066  1
  Sc  Sc53  1  0.09248059  0.29788417  0.30449230  1
  Sc  Sc54  1  0.10487677  0.90194481  0.29445193  1
  Sc  Sc55  1  0.50752693  0.89599172  0.10015259  1
  Sc  Sc56  1  0.69594450  0.89636914  0.50167637  1
  Sc  Sc57  1  0.50319402  0.29908024  0.50938522  1
  Sc  Sc58  1  0.50411467  0.10537784  0.70494137  1
  Sc  Sc59  1  0.10257445  0.30551572  0.89583490  1
  Sc  Sc60  1  0.69733382  0.29360220  0.70206341  1
  Sc  Sc61  1  0.10585017  0.50214003  0.70020999  1
  Sc  Sc62  1  0.50581462  0.48204624  0.90180249  1
  Sc  Sc63  1  0.89034797  0.10867439  0.69966877  1
  Sc  Sc64  1  0.69529527  0.90038589  0.09992348  1
  Sc  Sc65  1  0.31039124  0.90211412  0.89774111  1
  Sc  Sc66  1  0.09331625  0.49950349  0.31019071  1
  Sc  Sc67  1  0.89363357  0.90593138  0.50150904  1
  Sc  Sc68  1  0.29169804  0.50289241  0.50699206  1
  Sc  Sc69  1  0.69440418  0.49744489  0.29928811  1
  Sc  Sc70  1  0.90303395  0.10436132  0.30271921  1
  Sc  Sc71  1  0.90032889  0.10458999  0.08844796  1
  Sc  Sc72  1  0.49985153  0.09893379  0.31305683  1
  Sc  Sc73  1  0.09987987  0.49569900  0.90182264  1
  Sc  Sc74  1  0.89258845  0.90072529  0.90111510  1
  Sc  Sc75  1  0.69847341  0.90135323  0.89815611  1
  Sc  Sc76  1  0.50402499  0.89628802  0.50141802  1
  Sc  Sc77  1  0.30788731  0.29738862  0.09862823  1
  Sc  Sc78  1  0.30845376  0.70538508  0.10627221  1
  Sc  Sc79  1  0.09516018  0.09659248  0.68815159  1
  Sc  Sc80  1  0.49748807  0.30448883  0.09587905  1
  Sc  Sc81  1  0.70736350  0.70322153  0.29748326  1
  Sc  Sc82  1  0.09930151  0.69438068  0.89744253  1
  Sc  Sc83  1  0.90078823  0.90442019  0.10393902  1
  Sc  Sc84  1  0.69161346  0.89627939  0.30534134  1
  Sc  Sc85  1  0.50352597  0.89011899  0.70105271  1
  Sc  Sc86  1  0.51505823  0.69995184  0.29238136  1
  Sc  Sc87  1  0.89695568  0.50176558  0.30271611  1
  Sc  Sc88  1  0.09574781  0.89853157  0.90102784  1
  Sc  Sc89  1  0.10456793  0.70538917  0.30254705  1
  Sc  Sc90  1  0.30569700  0.50900125  0.70115183  1
  Sc  Sc91  1  0.29331356  0.90194018  0.49679904  1
  Sc  Sc92  1  0.70438287  0.70597477  0.90087381  1
  Sc  Sc93  1  0.89964991  0.29989991  0.09940045  1
  Sc  Sc94  1  0.09196714  0.10263244  0.49455856  1
  Sc  Sc95  1  0.69675074  0.10353596  0.70062735  1
  Sc  Sc96  1  0.89104548  0.49896001  0.09144670  1
  Sc  Sc97  1  0.09839044  0.68701594  0.50169138  1
  Sc  Sc98  1  0.69693623  0.90236791  0.69357256  1
  Sc  Sc99  1  0.69396019  0.09512265  0.50922639  1
  Nb  Nb100  1  0.70416083  0.49995850  0.90256106  1
  Nb  Nb101  1  0.88472405  0.50022423  0.89009264  1
  Nb  Nb102  1  0.50443146  0.09716271  0.10231646  1
  Nb  Nb103  1  0.09905440  0.30355194  0.50150584  1
  Nb  Nb104  1  0.51311236  0.51073742  0.50026878  1
  Nb  Nb105  1  0.50613334  0.69521856  0.50573826  1
  Nb  Nb106  1  0.50174753  0.09869811  0.90609417  1
  Nb  Nb107  1  0.50548148  0.50542661  0.69417846  1
  Nb  Nb108  1  0.48748907  0.69522658  0.69189464  1
  Nb  Nb109  1  0.69531163  0.50716900  0.50402067  1
  Nb  Nb110  1  0.89297039  0.49868922  0.69929568  1
  Nb  Nb111  1  0.89764172  0.70094679  0.10788456  1
  Nb  Nb112  1  0.50260593  0.90073289  0.30227338  1
  Nb  Nb113  1  0.68842820  0.69360836  0.49544709  1
  Nb  Nb114  1  0.90006291  0.09568674  0.89953610  1
  Nb  Nb115  1  0.30075288  0.29656074  0.90013474  1
  Nb  Nb116  1  0.89734345  0.69316618  0.49017327  1
  Nb  Nb117  1  0.70109138  0.49684747  0.08633446  1
  Nb  Nb118  1  0.70168310  0.09965178  0.10340143  1
  Nb  Nb119  1  0.29633697  0.89475357  0.69116637  1
  Nb  Nb120  1  0.70282403  0.29352198  0.29929416  1
  Nb  Nb121  1  0.31011356  0.70759646  0.70011186  1
  Nb  Nb122  1  0.49962708  0.50086126  0.30244798  1
  Nb  Nb123  1  0.30182268  0.70260211  0.30490026  1
  Nb  Nb124  1  0.89581533  0.70088268  0.29343708  1
  Nb  Nb125  1  0.19921943  0.40201887  0.19992436  1
  Nb  Nb126  1  0.79418069  0.20378399  0.39999217  1
  Nb  Nb127  1  -0.00336780  0.40182283  0.60080909  1
  Nb  Nb128  1  0.59929007  0.19132493  0.00423219  1
  Nb  Nb129  1  0.59906663  0.59604364  0.79948724  1
  Nb  Nb130  1  0.39520829  -0.00400095  0.60271612  1
  Nb  Nb131  1  -0.00185633  0.00149991  0.79993558  1
  Nb  Nb132  1  0.40952356  0.59958959  -0.00305933  1
  Nb  Nb133  1  0.40821932  0.41070912  0.40323316  1
  Nb  Nb134  1  0.19894327  -0.00200114  0.79505004  1
  Nb  Nb135  1  -0.00053639  0.79501619  0.00643409  1
  Nb  Nb136  1  0.20046969  0.59773422  0.20155365  1
  Nb  Nb137  1  0.40520653  0.79088221  0.39939183  1
  Nb  Nb138  1  0.40908078  0.60185707  0.40051845  1
  Nb  Nb139  1  -0.00200077  0.60496981  0.19662421  1
  Nb  Nb140  1  0.19933863  0.80110655  0.00036374  1
  Nb  Nb141  1  0.79741144  0.60136150  0.59323723  1
  Nb  Nb142  1  0.79380333  0.00623868  0.20022442  1
  Nb  Nb143  1  0.40678950  -0.00113628  0.20546599  1
  Nb  Nb144  1  0.20514847  0.19834502  -0.00406844  1
  Nb  Nb145  1  0.19928199  0.20577643  0.59775527  1
  Nb  Nb146  1  0.60261540  0.59576538  -0.00429657  1
  Nb  Nb147  1  0.60486584  0.19662769  0.19612810  1
  Nb  Nb148  1  -0.01199536  0.59534663  0.79838101  1
  Nb  Nb149  1  -0.00828171  0.79561181  0.39995493  1
  Pd  Pd150  1  0.41082794  0.58796959  0.80897735  1
  Pd  Pd151  1  0.40101852  -0.00622195  0.78890630  1
  Pd  Pd152  1  0.59907102  0.00199639  0.79526435  1
  Pd  Pd153  1  0.20434794  0.39837519  0.39424164  1
  Pd  Pd154  1  0.41275742  0.19479147  0.20564341  1
  Pd  Pd155  1  0.19604634  0.19195853  0.79953891  1
  Pd  Pd156  1  0.19660356  0.39763935  0.60805989  1
  Pd  Pd157  1  0.80529525  -0.00523220  0.79024058  1
  Pd  Pd158  1  0.00090984  -0.00693786  0.39071613  1
  Pd  Pd159  1  0.79875916  0.00152252  0.60521480  1
  Pd  Pd160  1  -0.01139094  0.59845738  -0.00284220  1
  Pd  Pd161  1  0.40024391  0.40783240  0.79995615  1
  Pd  Pd162  1  0.19541218  0.59789480  0.79760531  1
  Pd  Pd163  1  0.39538578  0.39148293  0.20812015  1
  Pd  Pd164  1  0.19372597  0.79451886  0.59225089  1
  Pd  Pd165  1  -0.00133413  0.19159225  0.79859671  1
  Pd  Pd166  1  0.00031041  0.20585547  0.60089547  1
  Pd  Pd167  1  0.60798614  0.39527596  0.19546306  1
  Pd  Pd168  1  0.00344438  0.41123411  0.19928158  1
  Pd  Pd169  1  0.19615429  0.20688529  0.19305365  1
  Pd  Pd170  1  0.79314102  0.60558533  0.79028612  1
  Pd  Pd171  1  0.40719075  0.80468012  0.20774820  1
  Pd  Pd172  1  0.59878307  -0.00167657  0.40956984  1
  Pd  Pd173  1  0.00175682  0.79511495  0.58359753  1
  Pd  Pd174  1  0.79281600  0.39934531  0.39888911  1
  Pd  Pd175  1  -0.01016618  0.40433146  -0.00761123  1
  Pd  Pd176  1  0.20408099  0.80800333  0.80736834  1
  Pd  Pd177  1  0.79822769  0.79864092  0.40691258  1
  Pd  Pd178  1  -0.00380032  0.40769104  0.79417815  1
  Pd  Pd179  1  0.40390155  -0.00657782  0.01105645  1
  Pd  Pd180  1  0.20492553  0.60209301  0.39809537  1
  Pd  Pd181  1  0.40175486  0.60828308  0.20127497  1
  Pd  Pd182  1  0.40627422  0.41178613  0.59422976  1
  Pd  Pd183  1  0.79560063  0.80748027  0.79747127  1
  Pd  Pd184  1  0.80291983  0.80890586  0.00765656  1
  Pd  Pd185  1  0.60124957  0.40204928  0.40539974  1
  Pd  Pd186  1  0.79086031  0.59887948  0.39664122  1
  Pd  Pd187  1  0.79698116  0.40923510  0.19996011  1
  Pd  Pd188  1  0.00211494  0.79931179  0.20342599  1
  Pd  Pd189  1  -0.00912742  0.00610485  0.20419625  1
  Pd  Pd190  1  -0.00488157  0.59411396  0.60790456  1
  Pd  Pd191  1  0.79710904  0.79361356  0.58777712  1
  Pd  Pd192  1  0.19426617  0.79764141  0.41083417  1
  Pd  Pd193  1  -0.00296669  0.19392071  0.19509101  1
  Pd  Pd194  1  0.21463505  0.61142944  0.00337029  1
  Pd  Pd195  1  0.39574365  0.79963424  -0.00003722  1
  Pd  Pd196  1  0.60323493  0.20038447  0.40471658  1
  Pd  Pd197  1  0.60496648  0.00081124  0.00036091  1
  Pd  Pd198  1  0.61072056  0.59631490  0.19605509  1
  Pd  Pd199  1  0.79504651  0.20236322  -0.00754144  1
  Rh  Rh200  1  0.60025216  0.19382396  0.81114192  1
  Rh  Rh201  1  0.79530821  0.20211538  0.80665712  1
  Rh  Rh202  1  0.80548326  0.40773117  0.59351805  1
  Rh  Rh203  1  0.59535479  0.79826436  0.59786307  1
  Rh  Rh204  1  0.40343980  -0.01634307  0.40340767  1
  Rh  Rh205  1  0.20373688  0.38436006  0.00503667  1
  Rh  Rh206  1  0.60697664  0.80289946  0.20095447  1
  Rh  Rh207  1  0.41055724  0.21456528  0.40249975  1
  Rh  Rh208  1  0.60668851  0.60048050  0.60984409  1
  Rh  Rh209  1  0.40605673  0.19970255  0.79761083  1
  Rh  Rh210  1  0.60109369  0.40367620  0.79602932  1
  Rh  Rh211  1  0.21138089  -0.00060568  -0.01343119  1
  Rh  Rh212  1  -0.00074012  0.61097455  0.38538667  1
  Rh  Rh213  1  0.59605065  0.79292727  0.40121416  1
  Rh  Rh214  1  0.60184674  0.79771415  0.79627303  1
  Rh  Rh215  1  0.79541633  0.00573294  0.39722694  1
  Rh  Rh216  1  0.79400827  0.81075216  0.19790328  1
  Rh  Rh217  1  0.60235873  0.39486896  0.00407046  1
  Rh  Rh218  1  0.80275675  0.59059246  0.19894613  1
  Rh  Rh219  1  0.20829147  0.00776231  0.21127253  1
  Rh  Rh220  1  0.80498025  0.39321302  -0.00853421  1
  Rh  Rh221  1  -0.00455939  0.20451031  0.39847445  1
  Rh  Rh222  1  -0.00182642  0.39595272  0.40432836  1
  Rh  Rh223  1  0.20284618  0.60783803  0.61102620  1
  Rh  Rh224  1  0.39946100  0.59361768  0.59472086  1
  Rh  Rh225  1  0.80018923  -0.00151812  0.00797771  1
  Rh  Rh226  1  0.19010211  0.00298208  0.39732196  1
  Rh  Rh227  1  0.20606739  0.00985286  0.60090859  1
  Rh  Rh228  1  0.19067747  0.20270370  0.40944146  1
  Rh  Rh229  1  0.40276774  0.19937020  0.00176057  1
  Rh  Rh230  1  0.39912988  0.40176173  -0.00384747  1
  Rh  Rh231  1  0.60842798  0.79581908  -0.00252824  1
  Rh  Rh232  1  0.79879288  0.19212282  0.20886705  1
  Rh  Rh233  1  0.59775061  0.00278066  0.20426162  1
  Rh  Rh234  1  -0.01281874  0.00714419  0.60626427  1
  Rh  Rh235  1  0.60010520  0.20116588  0.60399971  1
  Rh  Rh236  1  0.40347242  0.80703084  0.59437079  1
  Rh  Rh237  1  0.79788082  0.39102833  0.80351317  1
  Rh  Rh238  1  0.39590084  0.19462766  0.60421061  1
  Rh  Rh239  1  0.00497828  0.20058056  -0.00304681  1
  Rh  Rh240  1  0.40001719  0.80797604  0.79300550  1
  Rh  Rh241  1  -0.01150430  -0.00899810  -0.00713815  1
  Rh  Rh242  1  0.59720734  0.40108687  0.60165461  1
  Rh  Rh243  1  0.58966561  -0.00016573  0.60365562  1
  Rh  Rh244  1  0.79319746  0.19733620  0.59129868  1
  Rh  Rh245  1  -0.00499245  0.79751625  0.81311675  1
  Rh  Rh246  1  0.20123519  0.79252741  0.19570124  1
  Rh  Rh247  1  0.60057064  0.60328818  0.39102481  1
  Rh  Rh248  1  0.79784330  0.60039062  0.00169777  1
  Rh  Rh249  1  0.20436854  0.40304504  0.79768857  1
