# generated using pymatgen
data_ZrScNbPdRh
_symmetry_space_group_name_H-M   'P 1'
_cell_length_a   16.56166175
_cell_length_b   16.56671315
_cell_length_c   16.55982948
_cell_angle_alpha   89.99023078
_cell_angle_beta   89.99965161
_cell_angle_gamma   90.00374803
_symmetry_Int_Tables_number   1
_chemical_formula_structural   ZrScNbPdRh
_chemical_formula_sum   'Zr50 Sc50 Nb50 Pd50 Rh50'
_cell_volume   4543.55841807
_cell_formula_units_Z   50
loop_
 _symmetry_equiv_pos_site_id
 _symmetry_equiv_pos_as_xyz
  1  'x, y, z'
loop_
 _atom_site_type_symbol
 _atom_site_label
 _atom_site_symmetry_multiplicity
 _atom_site_fract_x
 _atom_site_fract_y
 _atom_site_fract_z
 _atom_site_occupancy
  Zr  Zr0  1  0.29637422  0.09207431  0.89879020  1
  Zr  Zr1  1  0.09741037  0.50180626  0.49827667  1
  Zr  Zr2  1  0.09822948  0.89635208  0.29482351  1
  Zr  Zr3  1  0.69123968  0.49358144  0.30293529  1
  Zr  Zr4  1  0.90536548  0.69757717  0.50038455  1
  Zr  Zr5  1  0.30138795  0.90117815  0.50283477  1
  Zr  Zr6  1  0.29623206  0.29132019  0.30987711  1
  Zr  Zr7  1  0.29996010  0.69788884  0.71719909  1
  Zr  Zr8  1  0.51152619  0.69592040  0.30013691  1
  Zr  Zr9  1  0.30806070  0.90080049  0.28326193  1
  Zr  Zr10  1  0.88630823  0.29796047  0.50126478  1
  Zr  Zr11  1  0.50161083  0.29655646  0.09412325  1
  Zr  Zr12  1  0.90055980  0.30534927  0.70430343  1
  Zr  Zr13  1  0.89192024  0.69601354  0.89839324  1
  Zr  Zr14  1  0.68958414  0.89872107  0.09994905  1
  Zr  Zr15  1  0.50960410  0.89631737  0.30162368  1
  Zr  Zr16  1  0.50104691  0.09711170  0.70263904  1
  Zr  Zr17  1  0.89738717  0.89310435  0.30661360  1
  Zr  Zr18  1  0.30294011  0.09206664  0.10448129  1
  Zr  Zr19  1  0.89204088  0.49423644  0.90067037  1
  Zr  Zr20  1  0.69460623  0.70301868  0.69314708  1
  Zr  Zr21  1  0.69828590  0.69448485  0.89378013  1
  Zr  Zr22  1  0.10837036  0.71116124  0.89215471  1
  Zr  Zr23  1  0.29606750  0.70220081  0.30058200  1
  Zr  Zr24  1  0.49763735  0.49954982  0.49093285  1
  Zr  Zr25  1  0.90183209  0.09224253  0.50412995  1
  Zr  Zr26  1  0.10008081  0.89471009  0.70742399  1
  Zr  Zr27  1  0.70122990  0.89294922  0.30074921  1
  Zr  Zr28  1  0.50299294  0.49798240  0.90234652  1
  Zr  Zr29  1  0.09994786  0.10362909  0.50526537  1
  Zr  Zr30  1  0.10069192  0.29849047  0.68899788  1
  Zr  Zr31  1  0.50161486  0.90465068  0.90293163  1
  Zr  Zr32  1  0.70395760  0.29616672  0.69712811  1
  Zr  Zr33  1  0.09202411  0.49275622  0.69726081  1
  Zr  Zr34  1  0.50223939  0.09443426  0.50267621  1
  Zr  Zr35  1  0.49130704  0.90428426  0.10558617  1
  Zr  Zr36  1  0.89030174  0.30157425  0.29833564  1
  Zr  Zr37  1  0.70208785  0.90866269  0.89630619  1
  Zr  Zr38  1  0.70054574  0.49975841  0.90083299  1
  Zr  Zr39  1  0.28804409  0.49229893  0.10234005  1
  Zr  Zr40  1  0.29764386  0.30007127  0.70155678  1
  Zr  Zr41  1  0.10052777  0.10395629  0.70305826  1
  Zr  Zr42  1  0.30571667  0.30067310  0.90548398  1
  Zr  Zr43  1  0.90240626  0.90154129  0.89436011  1
  Zr  Zr44  1  0.90278020  0.50485948  0.50702035  1
  Zr  Zr45  1  0.89248670  0.09730219  0.90015210  1
  Zr  Zr46  1  0.29679568  0.50040159  0.89729319  1
  Zr  Zr47  1  0.09501826  0.09113628  0.90208407  1
  Zr  Zr48  1  0.50168074  0.29531880  0.89803112  1
  Zr  Zr49  1  0.09514379  0.70729376  0.69702139  1
  Sc  Sc50  1  0.90257049  0.89943875  0.11001852  1
  Sc  Sc51  1  0.69507342  0.69631563  0.09529477  1
  Sc  Sc52  1  0.50693682  0.90859397  0.50149981  1
  Sc  Sc53  1  0.70038443  0.90180682  0.49836371  1
  Sc  Sc54  1  0.30078961  0.09781888  0.70320162  1
  Sc  Sc55  1  0.89837389  0.10073245  0.10306905  1
  Sc  Sc56  1  0.50273809  0.09209049  0.30364578  1
  Sc  Sc57  1  0.10313669  0.90565128  0.89975632  1
  Sc  Sc58  1  0.50473510  0.70563862  0.09852571  1
  Sc  Sc59  1  0.70094146  0.50003722  0.08509169  1
  Sc  Sc60  1  0.29940146  0.71775091  0.10318235  1
  Sc  Sc61  1  0.69963526  0.90154822  0.70090138  1
  Sc  Sc62  1  0.10482051  0.90128826  0.09621907  1
  Sc  Sc63  1  0.30262160  0.49884145  0.70548309  1
  Sc  Sc64  1  0.89585417  0.70295212  0.10958843  1
  Sc  Sc65  1  0.89519708  0.30224845  0.89842999  1
  Sc  Sc66  1  0.70279500  0.50299849  0.69569313  1
  Sc  Sc67  1  0.50045302  0.90731512  0.69831415  1
  Sc  Sc68  1  0.89883173  0.89689669  0.69860228  1
  Sc  Sc69  1  0.09837755  0.69468944  0.30499074  1
  Sc  Sc70  1  0.09326857  0.89150831  0.50217379  1
  Sc  Sc71  1  0.89889536  0.49544143  0.10149647  1
  Sc  Sc72  1  0.90069977  0.09952387  0.29562433  1
  Sc  Sc73  1  0.70596140  0.09688194  0.50562106  1
  Sc  Sc74  1  0.50019191  0.49660365  0.68949419  1
  Sc  Sc75  1  0.30579178  0.90671369  0.70671519  1
  Sc  Sc76  1  0.71014777  0.29517455  0.89498191  1
  Sc  Sc77  1  0.89745526  0.30165284  0.10371837  1
  Sc  Sc78  1  0.89458752  0.70378338  0.69506082  1
  Sc  Sc79  1  0.70367712  0.29948123  0.10850231  1
  Sc  Sc80  1  0.30491520  0.10783277  0.49279251  1
  Sc  Sc81  1  0.10500114  0.10612101  0.29336202  1
  Sc  Sc82  1  0.09553772  0.30837991  0.89047114  1
  Sc  Sc83  1  0.70044761  0.09809756  0.70772753  1
  Sc  Sc84  1  0.10351056  0.31578921  0.10413164  1
  Sc  Sc85  1  0.09950092  0.70420025  0.11356081  1
  Sc  Sc86  1  0.49790223  0.09973826  0.89502667  1
  Sc  Sc87  1  0.69936510  0.09667166  0.29347158  1
  Sc  Sc88  1  0.49739160  0.69966230  0.88782636  1
  Sc  Sc89  1  0.90200164  0.50167503  0.30531851  1
  Sc  Sc90  1  0.89959815  0.70488070  0.30473786  1
  Sc  Sc91  1  0.09887931  0.09027146  0.10320642  1
  Sc  Sc92  1  0.30006475  0.30027707  0.09758555  1
  Sc  Sc93  1  0.51538363  0.69965064  0.49690875  1
  Sc  Sc94  1  0.51292596  0.49782218  0.09363259  1
  Sc  Sc95  1  0.70248851  0.09468143  0.10183676  1
  Sc  Sc96  1  0.49577855  0.31473022  0.49729913  1
  Sc  Sc97  1  0.70132310  0.49586497  0.50255256  1
  Sc  Sc98  1  0.29232355  0.50436461  0.30970561  1
  Sc  Sc99  1  0.10462301  0.30123544  0.29461464  1
  Nb  Nb100  1  0.29999196  0.69692109  0.90291130  1
  Nb  Nb101  1  0.50300445  0.10253788  0.09976181  1
  Nb  Nb102  1  0.29889562  0.10035929  0.30031096  1
  Nb  Nb103  1  0.29935475  0.50609294  0.49807766  1
  Nb  Nb104  1  0.50333980  0.29763031  0.69820595  1
  Nb  Nb105  1  0.89824260  0.10597290  0.69607409  1
  Nb  Nb106  1  0.29619239  0.89224755  0.91351313  1
  Nb  Nb107  1  0.69808589  0.09828357  0.90014159  1
  Nb  Nb108  1  0.09910210  0.50050772  0.10262944  1
  Nb  Nb109  1  0.10394384  0.69722145  0.50370779  1
  Nb  Nb110  1  0.70032263  0.30074879  0.30866528  1
  Nb  Nb111  1  0.29233828  0.69954430  0.49603906  1
  Nb  Nb112  1  0.49827872  0.49729912  0.30020966  1
  Nb  Nb113  1  0.90150024  0.90232878  0.49455900  1
  Nb  Nb114  1  0.09608343  0.50156956  0.90598516  1
  Nb  Nb115  1  0.29971100  0.90183568  0.09708042  1
  Nb  Nb116  1  0.70867157  0.70056086  0.49780338  1
  Nb  Nb117  1  0.09658746  0.49829996  0.28909971  1
  Nb  Nb118  1  0.10812940  0.29873245  0.49990092  1
  Nb  Nb119  1  0.50822380  0.30603499  0.29840261  1
  Nb  Nb120  1  0.70322619  0.70504524  0.30313099  1
  Nb  Nb121  1  0.90513853  0.50094625  0.69684605  1
  Nb  Nb122  1  0.49448497  0.69885090  0.69453632  1
  Nb  Nb123  1  0.28899924  0.30104028  0.50130197  1
  Nb  Nb124  1  0.70045784  0.30008885  0.49635880  1
  Nb  Nb125  1  0.19487959  0.19808325  -0.00226119  1
  Nb  Nb126  1  0.19651959  0.60215799  0.00016084  1
  Nb  Nb127  1  0.79013806  0.60186566  0.20795452  1
  Nb  Nb128  1  0.00268307  0.39358647  0.40367656  1
  Nb  Nb129  1  0.00430401  0.19963714  -0.00010150  1
  Nb  Nb130  1  -0.00365082  0.79576695  -0.00336985  1
  Nb  Nb131  1  0.19777225  0.00064516  0.59663931  1
  Nb  Nb132  1  0.60311063  0.20819255  0.40148471  1
  Nb  Nb133  1  0.40525360  0.40011945  0.20827064  1
  Nb  Nb134  1  0.00098239  0.20681359  0.40425410  1
  Nb  Nb135  1  0.40258201  0.20830555  0.59886878  1
  Nb  Nb136  1  0.79975513  0.80159493  -0.00333167  1
  Nb  Nb137  1  0.39400589  0.60639760  0.59192293  1
  Nb  Nb138  1  0.39987501  0.79007076  0.59719043  1
  Nb  Nb139  1  0.39111966  0.60156732  0.00221678  1
  Nb  Nb140  1  0.40292747  0.59338573  0.19862898  1
  Nb  Nb141  1  0.60334829  0.19392790  -0.00206137  1
  Nb  Nb142  1  0.20332980  0.60398483  0.59693523  1
  Nb  Nb143  1  -0.00139821  0.59586707  0.80335273  1
  Nb  Nb144  1  0.39995137  0.79707420  0.40445218  1
  Nb  Nb145  1  0.59734488  0.20617764  0.59606983  1
  Nb  Nb146  1  0.00605531  0.60072149  -0.00109399  1
  Nb  Nb147  1  0.20207516  -0.00009636  0.39821385  1
  Nb  Nb148  1  0.60040947  0.39438091  0.79580614  1
  Nb  Nb149  1  0.40475057  0.20118551  0.20628902  1
  Pd  Pd150  1  -0.00651717  0.20646877  0.59537143  1
  Pd  Pd151  1  0.80424578  -0.00719405  0.00781638  1
  Pd  Pd152  1  0.80018633  -0.00404140  0.20073757  1
  Pd  Pd153  1  0.40213117  0.60903599  0.39797207  1
  Pd  Pd154  1  0.20547396  0.60443184  0.19646791  1
  Pd  Pd155  1  0.39698154  0.19728167  0.79531040  1
  Pd  Pd156  1  0.40096084  0.80782626  0.79932151  1
  Pd  Pd157  1  0.00097096  0.20690139  0.19695594  1
  Pd  Pd158  1  0.40868859  0.40229177  0.79592514  1
  Pd  Pd159  1  0.20673939  0.41042321  0.59947663  1
  Pd  Pd160  1  0.19841191  0.20261544  0.80739851  1
  Pd  Pd161  1  0.40308446  0.00430735  -0.00275435  1
  Pd  Pd162  1  0.60231434  0.40053032  0.19394325  1
  Pd  Pd163  1  0.79691759  0.00349878  0.39551932  1
  Pd  Pd164  1  0.59549741  0.80556686  0.59716887  1
  Pd  Pd165  1  0.00438829  -0.00780949  0.60673057  1
  Pd  Pd166  1  0.20878407  0.80170313  0.60813313  1
  Pd  Pd167  1  0.59434790  0.59054963  0.79122974  1
  Pd  Pd168  1  -0.00134912  -0.00149813  0.20346798  1
  Pd  Pd169  1  0.19320566  0.40551554  0.39627465  1
  Pd  Pd170  1  0.39615703  -0.00758467  0.39549870  1
  Pd  Pd171  1  -0.00631385  0.00270669  0.79039410  1
  Pd  Pd172  1  0.40372769  0.79306398  -0.00210770  1
  Pd  Pd173  1  0.79665758  0.59629298  0.39724844  1
  Pd  Pd174  1  0.18844745  0.59419276  0.79747266  1
  Pd  Pd175  1  0.39103604  0.40110393  0.59752340  1
  Pd  Pd176  1  0.80366334  0.59724306  0.78727011  1
  Pd  Pd177  1  0.39215128  0.39748514  0.39563795  1
  Pd  Pd178  1  0.61026884  0.59771382  0.40571516  1
  Pd  Pd179  1  0.79914479  0.40467875  0.60314169  1
  Pd  Pd180  1  0.19702341  0.39842415  0.80104801  1
  Pd  Pd181  1  0.00875312  0.00912763  0.39286661  1
  Pd  Pd182  1  0.79577345  0.40981036  0.19991949  1
  Pd  Pd183  1  0.80237996  0.80607303  0.59389659  1
  Pd  Pd184  1  0.60261329  0.59668687  0.19536542  1
  Pd  Pd185  1  0.40117016  0.40869066  0.00892245  1
  Pd  Pd186  1  0.59755422  0.80486210  0.79491302  1
  Pd  Pd187  1  0.79835508  0.18745193  0.39569414  1
  Pd  Pd188  1  0.20161874  0.80788141  0.39560008  1
  Pd  Pd189  1  0.00302174  0.79431996  0.40215367  1
  Pd  Pd190  1  0.79940662  -0.00444291  0.60663634  1
  Pd  Pd191  1  -0.01136374  0.59871160  0.19838180  1
  Pd  Pd192  1  -0.00257730  0.39643192  0.00312814  1
  Pd  Pd193  1  -0.00558705  0.20183415  0.80684560  1
  Pd  Pd194  1  0.41252442  0.20591435  0.40148665  1
  Pd  Pd195  1  0.20471473  0.20252742  0.18810365  1
  Pd  Pd196  1  0.60008993  0.19674058  0.20208777  1
  Pd  Pd197  1  0.79976750  0.20176217  0.00614843  1
  Pd  Pd198  1  0.60237067  0.79592169  -0.00800376  1
  Pd  Pd199  1  0.59774525  0.59726438  0.59542304  1
  Rh  Rh200  1  0.21203217  0.81093374  0.80231503  1
  Rh  Rh201  1  0.60283925  0.80107484  0.40655722  1
  Rh  Rh202  1  -0.00787111  0.79393922  0.80445184  1
  Rh  Rh203  1  0.00480283  0.60632072  0.60729914  1
  Rh  Rh204  1  0.78881618  0.79289467  0.19248828  1
  Rh  Rh205  1  0.80891066  0.60612910  0.01549057  1
  Rh  Rh206  1  -0.00327645  0.40029638  0.20733121  1
  Rh  Rh207  1  0.00179965  0.80085504  0.19919832  1
  Rh  Rh208  1  0.79745102  0.39335820  0.00196181  1
  Rh  Rh209  1  0.20305534  0.00122515  0.00282743  1
  Rh  Rh210  1  0.80351174  0.40724413  0.40100506  1
  Rh  Rh211  1  0.59617274  0.00916421  0.00036333  1
  Rh  Rh212  1  -0.00538267  0.38980698  0.59074363  1
  Rh  Rh213  1  0.79481010  0.40576711  0.79406824  1
  Rh  Rh214  1  0.58842431  0.60850634  -0.00681177  1
  Rh  Rh215  1  0.79800702  0.60327805  0.60011570  1
  Rh  Rh216  1  0.59930002  -0.00072193  0.80147199  1
  Rh  Rh217  1  0.19425650  0.79780817  0.00389115  1
  Rh  Rh218  1  0.79274482  0.80053515  0.80156527  1
  Rh  Rh219  1  0.40778276  0.59361574  0.80045080  1
  Rh  Rh220  1  0.20799457  0.39843802  0.21178137  1
  Rh  Rh221  1  -0.00598765  -0.00227708  0.00421542  1
  Rh  Rh222  1  0.60473099  0.20307953  0.80140550  1
  Rh  Rh223  1  0.19224541  0.19235852  0.40188217  1
  Rh  Rh224  1  0.59682954  -0.00162854  0.19921895  1
  Rh  Rh225  1  0.00560663  0.59617124  0.39748609  1
  Rh  Rh226  1  0.20234821  -0.00644904  0.79793505  1
  Rh  Rh227  1  0.18941472  0.59755826  0.40072955  1
  Rh  Rh228  1  0.40706865  0.00872977  0.20345262  1
  Rh  Rh229  1  0.60208314  0.39743611  0.40493246  1
  Rh  Rh230  1  0.79558888  0.19521434  0.60298785  1
  Rh  Rh231  1  0.79721204  0.19889625  0.20324321  1
  Rh  Rh232  1  0.39833651  0.19111555  0.00785370  1
  Rh  Rh233  1  0.80414620  0.00474084  0.79279106  1
  Rh  Rh234  1  0.41049036  0.78918196  0.20690848  1
  Rh  Rh235  1  -0.00745530  0.80245929  0.59408176  1
  Rh  Rh236  1  0.60564649  0.39521068  0.60279627  1
  Rh  Rh237  1  0.80028089  0.80134610  0.40997946  1
  Rh  Rh238  1  0.19921517  -0.00389586  0.20408949  1
  Rh  Rh239  1  0.61033236  0.00802982  0.40011734  1
  Rh  Rh240  1  0.19469485  0.39764090  -0.00690414  1
  Rh  Rh241  1  0.60702406  0.00650182  0.60330652  1
  Rh  Rh242  1  0.39684744  -0.00676458  0.81030794  1
  Rh  Rh243  1  0.39283166  0.00666217  0.59912761  1
  Rh  Rh244  1  0.80422615  0.19295999  0.79732234  1
  Rh  Rh245  1  0.61150560  0.38315339  -0.01125433  1
  Rh  Rh246  1  0.21320644  0.19230577  0.59877019  1
  Rh  Rh247  1  0.19629579  0.80492257  0.19825191  1
  Rh  Rh248  1  -0.00476650  0.40545587  0.80098111  1
  Rh  Rh249  1  0.60147065  0.79914554  0.19854013  1
