# generated using pymatgen
data_ZrScNbPdRh
_symmetry_space_group_name_H-M   'P 1'
_cell_length_a   16.56229618
_cell_length_b   16.56104768
_cell_length_c   16.56095665
_cell_angle_alpha   89.97971125
_cell_angle_beta   90.01925658
_cell_angle_gamma   90.01640287
_symmetry_Int_Tables_number   1
_chemical_formula_structural   ZrScNbPdRh
_chemical_formula_sum   'Zr50 Sc50 Nb50 Pd50 Rh50'
_cell_volume   4542.48712623
_cell_formula_units_Z   50
loop_
 _symmetry_equiv_pos_site_id
 _symmetry_equiv_pos_as_xyz
  1  'x, y, z'
loop_
 _atom_site_type_symbol
 _atom_site_label
 _atom_site_symmetry_multiplicity
 _atom_site_fract_x
 _atom_site_fract_y
 _atom_site_fract_z
 _atom_site_occupancy
  Zr  Zr0  1  0.10179627  0.10322968  0.90151624  1
  Zr  Zr1  1  0.91193588  0.50191124  0.29844913  1
  Zr  Zr2  1  0.70153010  0.71704302  0.29522584  1
  Zr  Zr3  1  0.69957823  0.50064582  0.50569802  1
  Zr  Zr4  1  0.48221372  0.50361654  0.29116416  1
  Zr  Zr5  1  0.49448571  0.30323544  0.09754597  1
  Zr  Zr6  1  0.89951142  0.29388346  0.50706279  1
  Zr  Zr7  1  0.90316124  0.89867274  0.89879021  1
  Zr  Zr8  1  0.70318918  0.49612695  0.30446332  1
  Zr  Zr9  1  0.49944993  0.09697766  0.29274333  1
  Zr  Zr10  1  0.09837922  0.50205204  0.90350700  1
  Zr  Zr11  1  0.31320990  0.49764771  0.10226209  1
  Zr  Zr12  1  0.10487922  0.09886602  0.70487876  1
  Zr  Zr13  1  0.89752724  0.69982085  0.09822544  1
  Zr  Zr14  1  0.90737265  0.10579199  0.50059856  1
  Zr  Zr15  1  0.29384327  0.50617025  0.69966155  1
  Zr  Zr16  1  0.10871229  0.89614292  0.49281320  1
  Zr  Zr17  1  0.50324118  0.30313276  0.70455005  1
  Zr  Zr18  1  0.09537605  0.29827784  0.50094153  1
  Zr  Zr19  1  0.10047232  0.29816402  0.89616920  1
  Zr  Zr20  1  0.10099229  0.30106940  0.29401351  1
  Zr  Zr21  1  0.29480916  0.90329352  0.30298555  1
  Zr  Zr22  1  0.29335513  0.50668875  0.49283057  1
  Zr  Zr23  1  0.69774210  0.30115094  0.50274753  1
  Zr  Zr24  1  0.90706524  0.29969714  0.09705850  1
  Zr  Zr25  1  0.10213662  0.71076576  0.10097215  1
  Zr  Zr26  1  0.68774470  0.69649810  0.69725962  1
  Zr  Zr27  1  0.70202748  0.10331293  0.90323275  1
  Zr  Zr28  1  0.90389907  0.70348939  0.30189623  1
  Zr  Zr29  1  0.89989387  0.49488098  0.89873904  1
  Zr  Zr30  1  0.90442263  0.69410469  0.90423763  1
  Zr  Zr31  1  0.29722022  0.30916504  0.71216917  1
  Zr  Zr32  1  0.90597033  0.30017793  0.30915106  1
  Zr  Zr33  1  0.69957705  0.49798182  0.90524134  1
  Zr  Zr34  1  0.49478908  0.09610623  0.70565413  1
  Zr  Zr35  1  0.91168357  0.69760756  0.70224232  1
  Zr  Zr36  1  0.29644385  0.30408665  0.50003144  1
  Zr  Zr37  1  0.70609328  0.30130502  0.89591870  1
  Zr  Zr38  1  0.90335427  0.50444024  0.49824918  1
  Zr  Zr39  1  0.89792864  0.10163547  0.90681300  1
  Zr  Zr40  1  0.30026865  0.09981401  0.71419483  1
  Zr  Zr41  1  0.50378570  0.29931664  0.50217801  1
  Zr  Zr42  1  0.70917183  0.10206237  0.50424049  1
  Zr  Zr43  1  0.49778272  0.70373658  0.70714244  1
  Zr  Zr44  1  0.69777126  0.29836391  0.08865599  1
  Zr  Zr45  1  0.10901814  0.09420149  0.29329923  1
  Zr  Zr46  1  0.49769073  0.29221102  0.30225219  1
  Zr  Zr47  1  0.09281973  0.10054528  0.10026380  1
  Zr  Zr48  1  0.89952859  0.50202866  0.09166798  1
  Zr  Zr49  1  0.69644556  0.29250623  0.30355567  1
  Sc  Sc50  1  0.29674899  0.89125818  0.10351785  1
  Sc  Sc51  1  0.50098247  0.71469303  0.49809768  1
  Sc  Sc52  1  0.30804886  0.70289717  0.89740283  1
  Sc  Sc53  1  0.10833906  0.89517955  0.70148853  1
  Sc  Sc54  1  0.89428183  0.90469627  0.49465425  1
  Sc  Sc55  1  0.09349360  0.70556839  0.30596655  1
  Sc  Sc56  1  0.30263236  0.49541493  0.89848339  1
  Sc  Sc57  1  0.49095624  0.89766435  0.88686991  1
  Sc  Sc58  1  0.29887983  0.10227487  0.29462505  1
  Sc  Sc59  1  0.10466173  0.69897481  0.49728066  1
  Sc  Sc60  1  0.29412358  0.09438019  0.49642313  1
  Sc  Sc61  1  0.50189304  0.49630778  0.49645474  1
  Sc  Sc62  1  0.10420412  0.29489637  0.09562594  1
  Sc  Sc63  1  0.29696560  0.70606051  0.70090999  1
  Sc  Sc64  1  0.48322841  0.90157053  0.10575382  1
  Sc  Sc65  1  0.09658106  0.70730523  0.89820702  1
  Sc  Sc66  1  0.29694828  0.29955104  0.90313513  1
  Sc  Sc67  1  0.29493386  0.30031226  0.30182392  1
  Sc  Sc68  1  0.70118274  0.30273165  0.70560939  1
  Sc  Sc69  1  0.69582179  0.69797333  0.90061137  1
  Sc  Sc70  1  0.70208959  0.70004806  0.09212159  1
  Sc  Sc71  1  0.48742045  0.69608039  0.09684938  1
  Sc  Sc72  1  0.89529314  0.10413455  0.69446940  1
  Sc  Sc73  1  0.50209435  0.89123207  0.29441567  1
  Sc  Sc74  1  0.49421146  0.30834051  0.90013403  1
  Sc  Sc75  1  0.50177347  0.89761496  0.69376927  1
  Sc  Sc76  1  0.10423588  0.50544313  0.50476155  1
  Sc  Sc77  1  0.30122165  0.89742623  0.90171033  1
  Sc  Sc78  1  0.50620681  0.10027176  0.50793085  1
  Sc  Sc79  1  0.48942178  0.09814387  0.10226335  1
  Sc  Sc80  1  0.69856064  0.70214645  0.49916246  1
  Sc  Sc81  1  0.10362729  0.50106604  0.70007220  1
  Sc  Sc82  1  0.90626260  0.69493284  0.49412214  1
  Sc  Sc83  1  0.09426904  0.48957155  0.10166036  1
  Sc  Sc84  1  0.51089660  0.50470843  0.70904948  1
  Sc  Sc85  1  0.69748462  0.09810800  0.09763385  1
  Sc  Sc86  1  0.90191206  0.09681691  0.29756844  1
  Sc  Sc87  1  0.10499211  0.69558483  0.70268098  1
  Sc  Sc88  1  0.70022553  0.90366032  0.89049739  1
  Sc  Sc89  1  0.09861715  0.09819317  0.50184863  1
  Sc  Sc90  1  0.91295397  0.50188103  0.70094937  1
  Sc  Sc91  1  0.90396821  0.90516399  0.09675828  1
  Sc  Sc92  1  0.70152263  0.09441879  0.70020738  1
  Sc  Sc93  1  0.30462819  0.69975250  0.30918397  1
  Sc  Sc94  1  0.70445753  0.89473089  0.11365510  1
  Sc  Sc95  1  0.30095258  0.89073994  0.50410480  1
  Sc  Sc96  1  0.49339693  0.70673528  0.29738282  1
  Sc  Sc97  1  0.30431727  0.89608878  0.69751573  1
  Sc  Sc98  1  0.29540947  0.29856639  0.09224972  1
  Sc  Sc99  1  0.48380354  0.09220736  0.90097985  1
  Nb  Nb100  1  0.89408463  0.89270928  0.30367453  1
  Nb  Nb101  1  0.50269271  0.50156580  0.09696269  1
  Nb  Nb102  1  0.10664380  0.50288742  0.29833864  1
  Nb  Nb103  1  0.50279532  0.90083993  0.49552640  1
  Nb  Nb104  1  0.90229124  0.89894568  0.70030522  1
  Nb  Nb105  1  0.09537492  0.90096572  0.90869018  1
  Nb  Nb106  1  0.29898257  0.70211477  0.50361839  1
  Nb  Nb107  1  0.29643751  0.09824183  0.90375349  1
  Nb  Nb108  1  0.29751954  0.09286759  0.09355593  1
  Nb  Nb109  1  0.89459200  0.29911059  0.88757141  1
  Nb  Nb110  1  0.50375687  0.51467512  0.90631237  1
  Nb  Nb111  1  0.69687721  0.89577475  0.49696720  1
  Nb  Nb112  1  0.89939117  0.10427689  0.09461237  1
  Nb  Nb113  1  0.89904240  0.30458200  0.70978738  1
  Nb  Nb114  1  0.50487089  0.69764130  0.89407590  1
  Nb  Nb115  1  0.09860137  0.90036227  0.29648805  1
  Nb  Nb116  1  0.69754159  0.09172538  0.29377015  1
  Nb  Nb117  1  0.69995530  0.49831910  0.09747547  1
  Nb  Nb118  1  0.10044321  0.30436481  0.70285192  1
  Nb  Nb119  1  0.10601224  0.90409164  0.10197482  1
  Nb  Nb120  1  0.70044258  0.49888435  0.70105514  1
  Nb  Nb121  1  0.70254138  0.89523634  0.69646185  1
  Nb  Nb122  1  0.29366467  0.50507367  0.29994488  1
  Nb  Nb123  1  0.29505074  0.70003669  0.09948384  1
  Nb  Nb124  1  0.71115465  0.90177518  0.30677113  1
  Nb  Nb125  1  0.59436948  -0.00867828  0.00056962  1
  Nb  Nb126  1  0.79649843  0.59489710  0.19915111  1
  Nb  Nb127  1  0.00090230  -0.00343663  0.80099524  1
  Nb  Nb128  1  0.40945282  -0.00404996  0.40145458  1
  Nb  Nb129  1  0.60687808  -0.00539673  0.39705843  1
  Nb  Nb130  1  0.20308959  0.59818641  0.20053833  1
  Nb  Nb131  1  0.79734176  0.39821093  0.19787312  1
  Nb  Nb132  1  0.80295973  0.40235072  0.60514780  1
  Nb  Nb133  1  0.79843402  0.60000705  0.79605002  1
  Nb  Nb134  1  0.59925674  0.40416713  0.19548745  1
  Nb  Nb135  1  0.00392313  -0.00768022  0.39177399  1
  Nb  Nb136  1  0.80236304  0.79660355  0.79201825  1
  Nb  Nb137  1  0.20243125  0.20565548  0.60880989  1
  Nb  Nb138  1  0.39765121  0.40321265  0.60199095  1
  Nb  Nb139  1  0.80013506  0.19999688  0.19837435  1
  Nb  Nb140  1  -0.00295080  0.80439581  0.60018122  1
  Nb  Nb141  1  0.20275872  0.60358678  0.00886460  1
  Nb  Nb142  1  0.59742868  0.19720492  0.80543867  1
  Nb  Nb143  1  0.39759267  0.60038200  0.59874753  1
  Nb  Nb144  1  0.80172340  0.80279301  0.60459638  1
  Nb  Nb145  1  0.59176520  0.80433677  -0.00409236  1
  Nb  Nb146  1  0.19649052  -0.00194720  0.00243988  1
  Nb  Nb147  1  0.39394598  0.20569455  0.60493564  1
  Nb  Nb148  1  0.60176051  0.59451032  0.19742210  1
  Nb  Nb149  1  0.59964920  0.60201716  0.38970639  1
  Pd  Pd150  1  -0.00010012  0.80132356  0.00510330  1
  Pd  Pd151  1  0.19834682  -0.01241495  0.80883167  1
  Pd  Pd152  1  0.79031399  0.80620509  -0.00816461  1
  Pd  Pd153  1  0.38809243  0.20179800  0.19439505  1
  Pd  Pd154  1  0.80624838  -0.00026726  0.79645997  1
  Pd  Pd155  1  0.00508979  0.60134448  0.19369736  1
  Pd  Pd156  1  0.80432376  0.39826678  0.40582880  1
  Pd  Pd157  1  0.39901856  0.20025302  -0.00424354  1
  Pd  Pd158  1  0.20456860  0.00193974  0.60048016  1
  Pd  Pd159  1  0.00392526  -0.00792446  0.59913582  1
  Pd  Pd160  1  0.60007660  0.18520747  0.40139649  1
  Pd  Pd161  1  0.40648246  0.41267804  0.80003307  1
  Pd  Pd162  1  0.40342573  0.80056104  -0.00359273  1
  Pd  Pd163  1  0.39965896  0.18841594  0.40907749  1
  Pd  Pd164  1  0.59764259  0.00214826  0.80537730  1
  Pd  Pd165  1  0.59336632  0.40105093  -0.00382643  1
  Pd  Pd166  1  0.60302261  -0.00474655  0.59655951  1
  Pd  Pd167  1  0.80720254  0.00508389  0.19521554  1
  Pd  Pd168  1  -0.00476135  0.19369748  0.79627384  1
  Pd  Pd169  1  0.40732848  0.60717751  0.40937016  1
  Pd  Pd170  1  0.00008709  0.39156737  -0.00675918  1
  Pd  Pd171  1  0.20074960  0.80163282  0.80652666  1
  Pd  Pd172  1  0.39863526  0.39948927  0.40121934  1
  Pd  Pd173  1  0.00619946  0.20195999  0.61320044  1
  Pd  Pd174  1  0.58438790  0.18793595  -0.00657428  1
  Pd  Pd175  1  0.60094077  0.19875360  0.61249240  1
  Pd  Pd176  1  0.01060950  0.40651356  0.40355468  1
  Pd  Pd177  1  0.39479900  0.60170513  -0.00514209  1
  Pd  Pd178  1  0.20306456  0.40286272  0.19279847  1
  Pd  Pd179  1  0.20247979  0.60364849  0.81254733  1
  Pd  Pd180  1  0.80317552  0.00663903  0.40068186  1
  Pd  Pd181  1  -0.00833129  -0.00533351  0.20277999  1
  Pd  Pd182  1  0.20372341  0.79185901  0.21154184  1
  Pd  Pd183  1  0.80013696  0.19051675  0.39174942  1
  Pd  Pd184  1  0.78966920  -0.00783978  0.00617610  1
  Pd  Pd185  1  0.19301361  0.40191865  0.40028672  1
  Pd  Pd186  1  0.59087991  0.40623503  0.39056284  1
  Pd  Pd187  1  -0.00453349  0.80907506  0.19689049  1
  Pd  Pd188  1  -0.00342012  0.19921715  0.20348242  1
  Pd  Pd189  1  0.59799481  -0.00893960  0.19721007  1
  Pd  Pd190  1  0.58666764  0.60219923  0.58887585  1
  Pd  Pd191  1  0.39611733  0.38899418  0.20315412  1
  Pd  Pd192  1  0.79324609  0.60861262  0.39385465  1
  Pd  Pd193  1  0.80156300  -0.00555902  0.59808585  1
  Pd  Pd194  1  0.39555857  0.00393890  0.59367248  1
  Pd  Pd195  1  -0.00256672  0.40132835  0.60233809  1
  Pd  Pd196  1  0.60328255  0.20109708  0.19199641  1
  Pd  Pd197  1  0.19573300  0.19623857  0.40447565  1
  Pd  Pd198  1  0.80441863  0.60130129  0.60664365  1
  Pd  Pd199  1  0.59211941  0.79466020  0.18574524  1
  Rh  Rh200  1  0.39367329  -0.00625816  0.00114469  1
  Rh  Rh201  1  0.20304901  0.19965074  0.19348061  1
  Rh  Rh202  1  0.39209881  -0.00209069  0.20748340  1
  Rh  Rh203  1  0.39497184  0.60708586  0.19794015  1
  Rh  Rh204  1  0.20556429  0.60719097  0.59958574  1
  Rh  Rh205  1  0.19980353  0.80222492  -0.00410377  1
  Rh  Rh206  1  0.79791930  0.59915354  -0.00294368  1
  Rh  Rh207  1  0.00869808  0.60760663  0.59719588  1
  Rh  Rh208  1  0.80737915  0.20540461  0.00415066  1
  Rh  Rh209  1  0.80535008  0.39316508  0.00160865  1
  Rh  Rh210  1  0.60200924  0.80491696  0.59956946  1
  Rh  Rh211  1  0.20168968  0.40802323  0.00072973  1
  Rh  Rh212  1  0.01372709  0.60484699  0.00581949  1
  Rh  Rh213  1  0.59777973  0.61009113  0.00507303  1
  Rh  Rh214  1  0.60215157  0.80182430  0.39690394  1
  Rh  Rh215  1  0.60734842  0.59567559  0.80674786  1
  Rh  Rh216  1  0.20154865  0.19127119  0.00203608  1
  Rh  Rh217  1  0.00186839  0.80808201  0.79456820  1
  Rh  Rh218  1  0.39609169  0.80845092  0.40201658  1
  Rh  Rh219  1  0.00971017  0.18745525  0.39195367  1
  Rh  Rh220  1  0.39883931  0.79931239  0.79615475  1
  Rh  Rh221  1  0.39206218  -0.00762462  0.79875967  1
  Rh  Rh222  1  0.19644344  0.60681301  0.39246007  1
  Rh  Rh223  1  -0.00328727  0.80918758  0.40715501  1
  Rh  Rh224  1  0.60328700  0.40306818  0.60399340  1
  Rh  Rh225  1  0.40328187  0.19886046  0.80380663  1
  Rh  Rh226  1  0.60381287  0.80312314  0.80474218  1
  Rh  Rh227  1  0.80375602  0.79526161  0.41057718  1
  Rh  Rh228  1  0.01011079  0.59560356  0.40072540  1
  Rh  Rh229  1  0.40276508  0.79419813  0.59922575  1
  Rh  Rh230  1  0.20465335  0.00025412  0.19031744  1
  Rh  Rh231  1  0.79774565  0.21003072  0.60877761  1
  Rh  Rh232  1  -0.00038275  0.39741178  0.20198401  1
  Rh  Rh233  1  0.40070391  0.59990791  0.79549230  1
  Rh  Rh234  1  0.00616807  0.40143371  0.80141144  1
  Rh  Rh235  1  0.79436405  0.19478943  0.79599517  1
  Rh  Rh236  1  0.20076132  -0.00102586  0.39922656  1
  Rh  Rh237  1  0.39181308  0.79587184  0.20270660  1
  Rh  Rh238  1  0.19323452  0.40418147  0.80619806  1
  Rh  Rh239  1  0.80921594  0.79749556  0.19743796  1
  Rh  Rh240  1  0.00201015  0.59597270  0.80400146  1
  Rh  Rh241  1  0.80244881  0.41135118  0.79240737  1
  Rh  Rh242  1  0.20095789  0.39526232  0.60244392  1
  Rh  Rh243  1  0.40164919  0.40466243  -0.00460730  1
  Rh  Rh244  1  0.59952365  0.40023185  0.80838261  1
  Rh  Rh245  1  0.00474060  0.00221786  -0.00165248  1
  Rh  Rh246  1  -0.00409623  0.20590418  -0.00764818  1
  Rh  Rh247  1  0.20238166  0.20546847  0.80081151  1
  Rh  Rh248  1  0.19330165  0.79621063  0.59997786  1
  Rh  Rh249  1  0.20258707  0.79550660  0.39692737  1
