# generated using pymatgen
data_ZrScNbPdRh
_symmetry_space_group_name_H-M   'P 1'
_cell_length_a   16.55585051
_cell_length_b   16.55443668
_cell_length_c   16.55355459
_cell_angle_alpha   90.00057893
_cell_angle_beta   89.99525903
_cell_angle_gamma   90.00875827
_symmetry_Int_Tables_number   1
_chemical_formula_structural   ZrScNbPdRh
_chemical_formula_sum   'Zr50 Sc50 Nb50 Pd50 Rh50'
_cell_volume   4536.87864024
_cell_formula_units_Z   50
loop_
 _symmetry_equiv_pos_site_id
 _symmetry_equiv_pos_as_xyz
  1  'x, y, z'
loop_
 _atom_site_type_symbol
 _atom_site_label
 _atom_site_symmetry_multiplicity
 _atom_site_fract_x
 _atom_site_fract_y
 _atom_site_fract_z
 _atom_site_occupancy
  Zr  Zr0  1  0.30173579  0.10044606  0.69730353  1
  Zr  Zr1  1  0.90029938  0.50732465  0.30158546  1
  Zr  Zr2  1  0.90111085  0.69495136  0.70176016  1
  Zr  Zr3  1  0.90171439  0.29305834  0.90307101  1
  Zr  Zr4  1  0.10844173  0.50005101  0.49098439  1
  Zr  Zr5  1  0.90942420  0.10627831  0.09880936  1
  Zr  Zr6  1  0.50675221  0.11094601  0.90060596  1
  Zr  Zr7  1  0.30669159  0.49957123  0.10569086  1
  Zr  Zr8  1  0.09800386  0.69997093  0.10324317  1
  Zr  Zr9  1  0.89608470  0.09976049  0.90720082  1
  Zr  Zr10  1  0.10350386  0.89520389  0.69770625  1
  Zr  Zr11  1  0.31599361  0.30479141  0.90562015  1
  Zr  Zr12  1  0.49485244  0.90097054  0.90651138  1
  Zr  Zr13  1  0.10284320  0.91664252  0.30137779  1
  Zr  Zr14  1  0.30482739  0.69619970  0.90356757  1
  Zr  Zr15  1  0.10090757  0.90107180  0.49931479  1
  Zr  Zr16  1  0.70251385  0.49754917  0.29287747  1
  Zr  Zr17  1  0.70389888  0.29796091  0.30021008  1
  Zr  Zr18  1  0.90104153  0.30138981  0.09811830  1
  Zr  Zr19  1  0.69236076  0.50364779  0.49818879  1
  Zr  Zr20  1  0.49325811  0.29709763  0.49435073  1
  Zr  Zr21  1  0.48882753  0.49403227  0.90134238  1
  Zr  Zr22  1  0.69087201  0.30609968  0.50015031  1
  Zr  Zr23  1  0.51112977  0.69520993  0.49822706  1
  Zr  Zr24  1  0.51007700  0.90075409  0.49716964  1
  Zr  Zr25  1  0.10978302  0.29746385  0.50063415  1
  Zr  Zr26  1  0.69678835  0.70155063  0.70095844  1
  Zr  Zr27  1  0.70027012  0.10376381  0.29571342  1
  Zr  Zr28  1  0.10643036  0.69596511  0.51417968  1
  Zr  Zr29  1  0.29459402  0.49615571  0.29949811  1
  Zr  Zr30  1  0.49447065  0.30153396  0.09990934  1
  Zr  Zr31  1  0.69591489  0.89702795  0.69714918  1
  Zr  Zr32  1  0.30416668  0.10504164  0.49308294  1
  Zr  Zr33  1  0.90146491  0.90494536  0.30364454  1
  Zr  Zr34  1  0.89247656  0.69700281  0.90154228  1
  Zr  Zr35  1  0.50348085  0.48950283  0.49378208  1
  Zr  Zr36  1  0.70074540  0.09807467  0.90011110  1
  Zr  Zr37  1  0.30245206  0.90579592  0.29122228  1
  Zr  Zr38  1  0.90370708  0.90336052  0.09384710  1
  Zr  Zr39  1  0.50144372  0.30299688  0.29906058  1
  Zr  Zr40  1  0.89306091  0.89539163  0.69652239  1
  Zr  Zr41  1  0.50379800  0.90690266  0.10839792  1
  Zr  Zr42  1  0.89576169  0.49122168  0.90583658  1
  Zr  Zr43  1  0.69787152  0.70030678  0.10106999  1
  Zr  Zr44  1  0.09954501  0.50027523  0.10422765  1
  Zr  Zr45  1  0.10209951  0.09964835  0.49075011  1
  Zr  Zr46  1  0.29927199  0.69335335  0.29103518  1
  Zr  Zr47  1  0.29821929  0.90157368  0.90074818  1
  Zr  Zr48  1  0.10622476  0.10503499  0.89977497  1
  Zr  Zr49  1  0.10767034  0.09988989  0.70327048  1
  Sc  Sc50  1  0.50177281  0.10316611  0.50964566  1
  Sc  Sc51  1  0.69527390  0.49452424  0.90367568  1
  Sc  Sc52  1  0.48955833  0.29114582  0.69901019  1
  Sc  Sc53  1  0.69709796  0.70466348  0.49077917  1
  Sc  Sc54  1  0.69116197  0.09420641  0.09607797  1
  Sc  Sc55  1  0.09071922  0.50285813  0.91344333  1
  Sc  Sc56  1  0.89724657  0.70676339  0.11033909  1
  Sc  Sc57  1  0.69294969  0.09770628  0.70174975  1
  Sc  Sc58  1  0.69069102  0.70391772  0.90071837  1
  Sc  Sc59  1  0.69173534  0.89786287  0.30230885  1
  Sc  Sc60  1  0.30757480  0.91669785  0.09693815  1
  Sc  Sc61  1  0.50315455  0.10578738  0.29097838  1
  Sc  Sc62  1  0.89754728  0.49279503  0.10390614  1
  Sc  Sc63  1  0.09337292  0.68805768  0.29940929  1
  Sc  Sc64  1  0.11031325  0.29192929  0.70077186  1
  Sc  Sc65  1  0.69805807  0.49232702  0.70049453  1
  Sc  Sc66  1  0.50059197  0.09927784  0.09886249  1
  Sc  Sc67  1  0.89172107  0.09630844  0.48930470  1
  Sc  Sc68  1  0.30163698  0.29889326  0.69040592  1
  Sc  Sc69  1  0.70612389  0.29531485  0.90459318  1
  Sc  Sc70  1  0.89262853  0.49899176  0.70912865  1
  Sc  Sc71  1  0.50556640  0.89915075  0.69702829  1
  Sc  Sc72  1  0.30285954  0.30604040  0.49656977  1
  Sc  Sc73  1  0.09544326  0.29647971  0.10523243  1
  Sc  Sc74  1  0.89655649  0.50518655  0.49358018  1
  Sc  Sc75  1  0.09814908  0.10674651  0.29841387  1
  Sc  Sc76  1  0.69874872  0.31319965  0.10712674  1
  Sc  Sc77  1  0.50277461  0.50026923  0.69590740  1
  Sc  Sc78  1  0.31065911  0.49158570  0.69948051  1
  Sc  Sc79  1  0.29850789  0.10230732  0.91241419  1
  Sc  Sc80  1  0.30172990  0.89983697  0.69895852  1
  Sc  Sc81  1  0.88307708  0.29484301  0.49879836  1
  Sc  Sc82  1  0.50349701  0.69603406  0.09874782  1
  Sc  Sc83  1  0.88778122  0.10442387  0.70863975  1
  Sc  Sc84  1  0.50808620  0.70247715  0.70406191  1
  Sc  Sc85  1  0.09337483  0.50801419  0.69514950  1
  Sc  Sc86  1  0.70593754  0.70260652  0.29946759  1
  Sc  Sc87  1  0.70065723  0.89977733  0.09603688  1
  Sc  Sc88  1  0.70385055  0.90023093  0.49758861  1
  Sc  Sc89  1  0.09881131  0.69482509  0.91564970  1
  Sc  Sc90  1  0.50699023  0.70877148  0.29034323  1
  Sc  Sc91  1  0.29801671  0.69375195  0.09570730  1
  Sc  Sc92  1  0.10158194  0.49912599  0.29639725  1
  Sc  Sc93  1  0.70442627  0.89957561  0.90538986  1
  Sc  Sc94  1  0.50012172  0.69766418  0.89906575  1
  Sc  Sc95  1  0.69516304  0.10225123  0.50139915  1
  Sc  Sc96  1  0.89653450  0.69711304  0.30200069  1
  Sc  Sc97  1  0.30804803  0.29658458  0.29616332  1
  Sc  Sc98  1  0.29654252  0.70138773  0.69564728  1
  Sc  Sc99  1  0.89824289  0.69864042  0.49370131  1
  Nb  Nb100  1  0.29939855  0.89773194  0.49585341  1
  Nb  Nb101  1  0.71641735  0.30195717  0.70038527  1
  Nb  Nb102  1  0.50013589  0.30163574  0.89997715  1
  Nb  Nb103  1  0.51162529  0.49752856  0.10609723  1
  Nb  Nb104  1  0.69799707  0.50352989  0.10113443  1
  Nb  Nb105  1  0.90303381  0.90095545  0.90367627  1
  Nb  Nb106  1  0.89965639  0.28808665  0.29440258  1
  Nb  Nb107  1  0.10047277  0.90092640  0.90086273  1
  Nb  Nb108  1  0.09850454  0.90150017  0.10011648  1
  Nb  Nb109  1  0.49136904  0.49674658  0.29250970  1
  Nb  Nb110  1  0.29704026  0.69680960  0.49508191  1
  Nb  Nb111  1  0.29958284  0.50071772  0.90217463  1
  Nb  Nb112  1  0.10020579  0.70085933  0.70490111  1
  Nb  Nb113  1  0.29785321  0.11308750  0.10669604  1
  Nb  Nb114  1  0.90317895  0.90106768  0.49728626  1
  Nb  Nb115  1  0.89559072  0.10927913  0.29683783  1
  Nb  Nb116  1  0.29905743  0.09505784  0.29123724  1
  Nb  Nb117  1  0.09182821  0.30301842  0.30631549  1
  Nb  Nb118  1  0.29986162  0.50171486  0.49428561  1
  Nb  Nb119  1  0.10340783  0.30011294  0.90135188  1
  Nb  Nb120  1  0.89739633  0.30181608  0.70179575  1
  Nb  Nb121  1  0.10986855  0.10230301  0.09953128  1
  Nb  Nb122  1  0.49666349  0.90292927  0.29629512  1
  Nb  Nb123  1  0.49690246  0.09572843  0.70037579  1
  Nb  Nb124  1  0.30112807  0.29234564  0.09561765  1
  Nb  Nb125  1  0.40013585  0.60047241  0.39901021  1
  Nb  Nb126  1  0.20028646  -0.00053102  0.59395422  1
  Nb  Nb127  1  0.39905121  0.79515571  0.58747644  1
  Nb  Nb128  1  0.00375940  0.39166346  0.79872985  1
  Nb  Nb129  1  0.19354455  0.79458257  0.80510249  1
  Nb  Nb130  1  -0.00336695  0.39112312  0.60003327  1
  Nb  Nb131  1  0.80629558  0.00539143  0.20122590  1
  Nb  Nb132  1  0.20090473  0.59851157  0.80519552  1
  Nb  Nb133  1  -0.00011577  -0.00663107  0.80304610  1
  Nb  Nb134  1  0.39962733  0.60190404  0.58779161  1
  Nb  Nb135  1  0.00237044  0.80122244  0.80555097  1
  Nb  Nb136  1  0.00612006  0.80453774  0.40312925  1
  Nb  Nb137  1  0.39764471  0.80003773  0.39922503  1
  Nb  Nb138  1  0.40131869  -0.00317473  0.39434252  1
  Nb  Nb139  1  0.19531117  0.80766882  0.19869440  1
  Nb  Nb140  1  0.79360093  0.60202988  0.60151846  1
  Nb  Nb141  1  -0.00134782  0.00396969  0.60274995  1
  Nb  Nb142  1  -0.00213693  0.39104846  0.40110573  1
  Nb  Nb143  1  0.59519877  0.38772685  0.80241382  1
  Nb  Nb144  1  0.20487209  0.39697611  0.00035048  1
  Nb  Nb145  1  0.20161297  0.79850044  0.39665319  1
  Nb  Nb146  1  -0.00390619  0.19974942  0.60142336  1
  Nb  Nb147  1  0.19840530  0.40498939  0.80927849  1
  Nb  Nb148  1  0.79175673  0.59895200  0.00661784  1
  Nb  Nb149  1  0.40359751  0.00586941  0.80000053  1
  Pd  Pd150  1  0.00929912  0.00716800  -0.00372550  1
  Pd  Pd151  1  0.59510839  0.80181108  0.00106171  1
  Pd  Pd152  1  0.59480918  -0.00607700  0.80449799  1
  Pd  Pd153  1  0.20222440  0.38813317  0.19713666  1
  Pd  Pd154  1  0.20306703  0.80454999  0.00543384  1
  Pd  Pd155  1  0.59978786  0.60251124  0.20602650  1
  Pd  Pd156  1  -0.00584993  0.39958228  0.20855166  1
  Pd  Pd157  1  0.19954934  0.00087925  0.00619669  1
  Pd  Pd158  1  0.40063276  0.79932846  0.01073481  1
  Pd  Pd159  1  0.00662337  0.80203452  0.21148664  1
  Pd  Pd160  1  0.39903359  -0.00737879  0.59888568  1
  Pd  Pd161  1  0.19583690  0.40784997  0.61050274  1
  Pd  Pd162  1  -0.00811128  0.20394433  0.40822723  1
  Pd  Pd163  1  0.20847248  0.20594842  0.38900133  1
  Pd  Pd164  1  0.80066774  0.00559137  0.59873631  1
  Pd  Pd165  1  0.59718234  0.19501194  0.39981558  1
  Pd  Pd166  1  0.59445155  0.00845673  0.39697825  1
  Pd  Pd167  1  0.78975894  0.20009328  0.01143336  1
  Pd  Pd168  1  0.00708246  0.59767609  0.80599902  1
  Pd  Pd169  1  0.79786443  0.79139810  0.59051295  1
  Pd  Pd170  1  -0.01033230  0.59124007  0.59634794  1
  Pd  Pd171  1  0.79197243  0.19589977  0.18689070  1
  Pd  Pd172  1  0.78715072  0.59401206  0.80390311  1
  Pd  Pd173  1  0.80026344  0.80302433  0.80646090  1
  Pd  Pd174  1  0.20981000  0.59003664  0.61174323  1
  Pd  Pd175  1  0.80605477  0.41140605  0.59635434  1
  Pd  Pd176  1  0.59590869  0.59819189  0.38363420  1
  Pd  Pd177  1  0.60103481  0.20571461  0.60884927  1
  Pd  Pd178  1  0.39447331  0.79653780  0.19263440  1
  Pd  Pd179  1  0.79628051  0.81093080  0.20280773  1
  Pd  Pd180  1  -0.00557901  0.79991835  0.59834370  1
  Pd  Pd181  1  0.60060436  0.58827156  0.80299893  1
  Pd  Pd182  1  0.39628026  0.60243758  0.78774508  1
  Pd  Pd183  1  0.39823175  0.80285431  0.79048673  1
  Pd  Pd184  1  0.59377880  0.38750947  0.61320719  1
  Pd  Pd185  1  0.79884452  0.19298169  0.59870818  1
  Pd  Pd186  1  -0.01633979  0.60238808  0.01247300  1
  Pd  Pd187  1  -0.00066032  0.01026470  0.20095147  1
  Pd  Pd188  1  -0.00243017  0.19839505  0.79497065  1
  Pd  Pd189  1  0.39386732  0.19547189  0.80161252  1
  Pd  Pd190  1  -0.00392958  0.79627165  -0.00217036  1
  Pd  Pd191  1  0.60109597  0.39673285  -0.00373222  1
  Pd  Pd192  1  0.19527409  0.20753903  0.20813166  1
  Pd  Pd193  1  0.80487656  0.39911357  0.39641267  1
  Pd  Pd194  1  0.80154418  -0.00361129  0.80227783  1
  Pd  Pd195  1  0.21540534  0.21074756  0.80701849  1
  Pd  Pd196  1  0.79377563  0.00074644  0.39397609  1
  Pd  Pd197  1  0.60461653  0.20865762  0.00830185  1
  Pd  Pd198  1  0.40901299  0.59632060  0.00790786  1
  Pd  Pd199  1  0.60735405  0.20807887  0.79001974  1
  Rh  Rh200  1  0.19571124  0.60416540  0.19571350  1
  Rh  Rh201  1  0.79478064  0.40462414  0.00379763  1
  Rh  Rh202  1  0.40208938  0.19159092  0.39320854  1
  Rh  Rh203  1  0.39524726  0.40430039  0.39619745  1
  Rh  Rh204  1  0.40022493  0.40503937  0.01064427  1
  Rh  Rh205  1  0.00599353  0.60022981  0.40534151  1
  Rh  Rh206  1  0.60286092  0.80353976  0.19748636  1
  Rh  Rh207  1  0.80219640  0.79370121  0.00017914  1
  Rh  Rh208  1  0.59961574  0.80108707  0.59774003  1
  Rh  Rh209  1  0.60721237  -0.00160418  0.20122287  1
  Rh  Rh210  1  0.20164997  0.19196826  0.59308238  1
  Rh  Rh211  1  0.80546473  0.40028357  0.20377831  1
  Rh  Rh212  1  0.39915352  0.39767031  0.19542993  1
  Rh  Rh213  1  0.80081812  0.59882818  0.19376767  1
  Rh  Rh214  1  0.00572908  0.19817936  0.19836835  1
  Rh  Rh215  1  0.00620116  0.39160200  -0.00323052  1
  Rh  Rh216  1  -0.00789365  0.00357264  0.40090867  1
  Rh  Rh217  1  0.79256763  0.20071768  0.40287647  1
  Rh  Rh218  1  0.01068195  0.19991918  0.00267678  1
  Rh  Rh219  1  0.20511176  -0.00922012  0.79547986  1
  Rh  Rh220  1  0.60175885  0.40160921  0.38873359  1
  Rh  Rh221  1  0.60444295  0.00095655  0.60090962  1
  Rh  Rh222  1  0.20802156  0.80288360  0.60211428  1
  Rh  Rh223  1  0.79420219  0.19992810  0.80184166  1
  Rh  Rh224  1  -0.00530154  0.59595257  0.19707508  1
  Rh  Rh225  1  0.40354243  0.01040038  -0.00395223  1
  Rh  Rh226  1  0.59733674  0.80212623  0.39403129  1
  Rh  Rh227  1  0.40311118  0.40354302  0.59425154  1
  Rh  Rh228  1  0.60072010  0.20621307  0.19434586  1
  Rh  Rh229  1  0.59864626  0.80616182  0.80500988  1
  Rh  Rh230  1  0.19658070  0.00112917  0.18889860  1
  Rh  Rh231  1  0.40612856  0.19535818  0.00398161  1
  Rh  Rh232  1  0.21234438  0.00149293  0.40151694  1
  Rh  Rh233  1  0.60344015  0.60150122  0.60604890  1
  Rh  Rh234  1  0.40167883  0.19913392  0.19860603  1
  Rh  Rh235  1  0.20025274  0.60323167  0.39370472  1
  Rh  Rh236  1  0.40161406  0.39805969  0.79551726  1
  Rh  Rh237  1  0.79991704  -0.00003175  0.00668578  1
  Rh  Rh238  1  0.19812143  0.20774330  0.00175229  1
  Rh  Rh239  1  0.59860945  0.40084710  0.20440286  1
  Rh  Rh240  1  0.20117568  0.58938057  0.00110885  1
  Rh  Rh241  1  0.79190710  0.60126228  0.40524266  1
  Rh  Rh242  1  0.80869253  0.80344320  0.39973042  1
  Rh  Rh243  1  0.39994127  0.20077811  0.59578823  1
  Rh  Rh244  1  0.79820110  0.39395167  0.80767048  1
  Rh  Rh245  1  0.40432216  0.01298622  0.20054925  1
  Rh  Rh246  1  0.19946328  0.39405924  0.39241984  1
  Rh  Rh247  1  0.40718176  0.59921526  0.20001437  1
  Rh  Rh248  1  0.60010973  0.59602683  -0.00268260  1
  Rh  Rh249  1  0.59842900  -0.00218158  -0.00432975  1
