# generated using pymatgen
data_ZrScNbPdRh
_symmetry_space_group_name_H-M   'P 1'
_cell_length_a   16.54925786
_cell_length_b   16.55124723
_cell_length_c   16.54765817
_cell_angle_alpha   89.99465358
_cell_angle_beta   89.99817887
_cell_angle_gamma   90.01148166
_symmetry_Int_Tables_number   1
_chemical_formula_structural   ZrScNbPdRh
_chemical_formula_sum   'Zr50 Sc50 Nb50 Pd50 Rh50'
_cell_volume   4532.58313926
_cell_formula_units_Z   50
loop_
 _symmetry_equiv_pos_site_id
 _symmetry_equiv_pos_as_xyz
  1  'x, y, z'
loop_
 _atom_site_type_symbol
 _atom_site_label
 _atom_site_symmetry_multiplicity
 _atom_site_fract_x
 _atom_site_fract_y
 _atom_site_fract_z
 _atom_site_occupancy
  Zr  Zr0  1  0.89888718  0.70140206  0.31000658  1
  Zr  Zr1  1  0.10345848  0.69769201  0.90438724  1
  Zr  Zr2  1  0.70700688  0.49750951  0.70768582  1
  Zr  Zr3  1  0.50523181  0.30398904  0.49427597  1
  Zr  Zr4  1  0.30096648  0.70410137  0.30420847  1
  Zr  Zr5  1  0.49932972  0.10149174  0.89707670  1
  Zr  Zr6  1  0.70744696  0.90139952  0.90475263  1
  Zr  Zr7  1  0.90689029  0.30188879  0.89330882  1
  Zr  Zr8  1  0.70354814  0.89851830  0.29884651  1
  Zr  Zr9  1  0.69604613  0.09897473  0.89747278  1
  Zr  Zr10  1  0.30125921  0.28739909  0.49476395  1
  Zr  Zr11  1  0.09929271  0.49784482  0.10042108  1
  Zr  Zr12  1  0.50480841  0.69738874  0.10353740  1
  Zr  Zr13  1  0.49893779  0.10390709  0.29804095  1
  Zr  Zr14  1  0.89775670  0.29467764  0.70169475  1
  Zr  Zr15  1  0.10280096  0.89421152  0.69215588  1
  Zr  Zr16  1  0.49798330  0.89129677  0.10364281  1
  Zr  Zr17  1  0.70508339  0.10021553  0.50076239  1
  Zr  Zr18  1  0.89861164  0.29868140  0.09813178  1
  Zr  Zr19  1  0.69445991  0.49247299  0.49162753  1
  Zr  Zr20  1  0.50309544  0.09579289  0.70370940  1
  Zr  Zr21  1  0.50588510  0.49392095  0.69778357  1
  Zr  Zr22  1  0.09590234  0.29467862  0.49637744  1
  Zr  Zr23  1  0.69378297  0.30345123  0.10128655  1
  Zr  Zr24  1  0.89742781  0.09246199  0.29328578  1
  Zr  Zr25  1  0.49882657  0.10629884  0.10265133  1
  Zr  Zr26  1  0.89777131  0.29980724  0.49807121  1
  Zr  Zr27  1  0.69735736  0.51169261  0.10114192  1
  Zr  Zr28  1  0.30114499  0.50117341  0.90126832  1
  Zr  Zr29  1  0.70320979  0.69808148  0.70259223  1
  Zr  Zr30  1  0.09898419  0.10018602  0.49807542  1
  Zr  Zr31  1  0.09653388  0.49947897  0.49532484  1
  Zr  Zr32  1  0.50391600  0.29738043  0.10352706  1
  Zr  Zr33  1  0.30172024  0.10528522  0.89665037  1
  Zr  Zr34  1  0.90107803  0.50446687  0.10326501  1
  Zr  Zr35  1  0.30904984  0.09645719  0.69364623  1
  Zr  Zr36  1  0.09353058  0.30070849  0.71041531  1
  Zr  Zr37  1  0.70331478  0.69392195  0.91059976  1
  Zr  Zr38  1  0.29737574  0.89888348  0.30103653  1
  Zr  Zr39  1  0.69575609  0.70419529  0.10199832  1
  Zr  Zr40  1  0.49328052  0.29691672  0.90778111  1
  Zr  Zr41  1  0.49805232  0.89579656  0.50276666  1
  Zr  Zr42  1  0.70382286  0.09736430  0.30431410  1
  Zr  Zr43  1  0.69142172  0.90513800  0.70327444  1
  Zr  Zr44  1  0.69661133  0.30525142  0.69836777  1
  Zr  Zr45  1  0.09307440  0.49810834  0.30113938  1
  Zr  Zr46  1  0.89648874  0.50531412  0.30081182  1
  Zr  Zr47  1  0.70040464  0.10356913  0.70632057  1
  Zr  Zr48  1  0.29499788  0.29269989  0.10016574  1
  Zr  Zr49  1  0.30698458  0.49966296  0.30137008  1
  Sc  Sc50  1  0.10134133  0.29821764  0.29032054  1
  Sc  Sc51  1  0.09748247  0.70526094  0.70083651  1
  Sc  Sc52  1  0.50438818  0.49582473  0.09391464  1
  Sc  Sc53  1  0.69734399  0.69982829  0.29768480  1
  Sc  Sc54  1  0.09598221  0.10232373  0.69315573  1
  Sc  Sc55  1  0.30337403  0.49943646  0.09460452  1
  Sc  Sc56  1  0.89604527  0.30300269  0.30072145  1
  Sc  Sc57  1  0.49984285  0.69948196  0.30188401  1
  Sc  Sc58  1  0.91098607  0.69973967  0.90596088  1
  Sc  Sc59  1  0.70071384  0.70435852  0.49046065  1
  Sc  Sc60  1  0.09861735  0.50546827  0.89817696  1
  Sc  Sc61  1  0.29869607  0.70068364  0.69995107  1
  Sc  Sc62  1  0.49240933  0.09169225  0.49987861  1
  Sc  Sc63  1  0.69401329  0.30313421  0.30111480  1
  Sc  Sc64  1  0.90289667  0.50772566  0.89540469  1
  Sc  Sc65  1  0.70021684  0.29548722  0.89625150  1
  Sc  Sc66  1  0.49299388  0.70429415  0.70467101  1
  Sc  Sc67  1  0.10118071  0.50845864  0.70688752  1
  Sc  Sc68  1  0.88558201  0.10548508  0.89863810  1
  Sc  Sc69  1  0.91283564  0.90412470  0.49510615  1
  Sc  Sc70  1  0.90216920  0.10646002  0.49594408  1
  Sc  Sc71  1  0.70564444  0.29847898  0.49064698  1
  Sc  Sc72  1  0.09066610  0.09953349  0.29217246  1
  Sc  Sc73  1  0.10858008  0.10622867  0.90242513  1
  Sc  Sc74  1  0.89369578  0.89880553  0.10383552  1
  Sc  Sc75  1  0.49675498  0.89529423  0.89301520  1
  Sc  Sc76  1  0.71015063  0.11075168  0.09507580  1
  Sc  Sc77  1  0.10250091  0.88601093  0.90481925  1
  Sc  Sc78  1  0.30767259  0.10142321  0.29744449  1
  Sc  Sc79  1  0.30461459  0.89436461  0.50244626  1
  Sc  Sc80  1  0.90241611  0.90187956  0.30014690  1
  Sc  Sc81  1  0.30315494  0.70295932  0.50687916  1
  Sc  Sc82  1  0.29914550  0.50978354  0.70223291  1
  Sc  Sc83  1  0.29663570  0.29202985  0.70638887  1
  Sc  Sc84  1  0.09686118  0.71027809  0.30296847  1
  Sc  Sc85  1  0.49842960  0.50148578  0.49364025  1
  Sc  Sc86  1  0.90161996  0.51090260  0.48734394  1
  Sc  Sc87  1  0.09629243  0.70266130  0.09645625  1
  Sc  Sc88  1  0.30208574  0.89245869  0.69503015  1
  Sc  Sc89  1  0.09915269  0.70888153  0.50090310  1
  Sc  Sc90  1  0.91171798  0.89737385  0.69778941  1
  Sc  Sc91  1  0.11026526  0.90159473  0.10010078  1
  Sc  Sc92  1  0.09339949  0.89552879  0.30345050  1
  Sc  Sc93  1  0.89962996  0.69701423  0.10485332  1
  Sc  Sc94  1  0.49904055  0.90159126  0.69584226  1
  Sc  Sc95  1  0.49231794  0.69659455  0.90121242  1
  Sc  Sc96  1  0.29734390  0.69959821  0.90334262  1
  Sc  Sc97  1  0.69176714  0.90243610  0.49611577  1
  Sc  Sc98  1  0.50739107  0.50037315  0.30092713  1
  Sc  Sc99  1  0.49480528  0.89942048  0.30786226  1
  Nb  Nb100  1  0.69273100  0.89425972  0.09994184  1
  Nb  Nb101  1  0.90005191  0.70101973  0.50420598  1
  Nb  Nb102  1  0.28954065  0.90046913  0.90840575  1
  Nb  Nb103  1  0.90852675  0.10577265  0.09903799  1
  Nb  Nb104  1  0.90241024  0.90488815  0.90026256  1
  Nb  Nb105  1  0.49509081  0.49937234  0.89917205  1
  Nb  Nb106  1  0.30881620  0.29762014  0.30023780  1
  Nb  Nb107  1  0.50150608  0.30218927  0.69757458  1
  Nb  Nb108  1  0.89900010  0.10675396  0.70011604  1
  Nb  Nb109  1  0.49596689  0.29168023  0.29356702  1
  Nb  Nb110  1  0.28622551  0.08841564  0.09591056  1
  Nb  Nb111  1  0.70249477  0.50041339  0.29732796  1
  Nb  Nb112  1  0.89788894  0.50809160  0.69432691  1
  Nb  Nb113  1  0.10415432  0.30171559  0.89599311  1
  Nb  Nb114  1  0.50282069  0.70459816  0.50144053  1
  Nb  Nb115  1  0.10030419  0.29583303  0.09689085  1
  Nb  Nb116  1  0.29727321  0.90131739  0.09836139  1
  Nb  Nb117  1  0.29705732  0.49597721  0.50175433  1
  Nb  Nb118  1  0.70186702  0.50085829  0.90279178  1
  Nb  Nb119  1  0.29961094  0.70226093  0.10450893  1
  Nb  Nb120  1  0.10329797  0.90149000  0.49888518  1
  Nb  Nb121  1  0.29477990  0.30034457  0.89754291  1
  Nb  Nb122  1  0.89877144  0.69574971  0.69270456  1
  Nb  Nb123  1  0.10143648  0.10555112  0.09819007  1
  Nb  Nb124  1  0.29756971  0.09778276  0.49777031  1
  Nb  Nb125  1  0.19929688  0.00100440  0.40551207  1
  Nb  Nb126  1  0.19590695  0.39162088  -0.00437400  1
  Nb  Nb127  1  0.20375260  0.60259947  0.20320169  1
  Nb  Nb128  1  0.59693185  -0.00355194  0.00653344  1
  Nb  Nb129  1  0.60131443  0.59303905  0.80362581  1
  Nb  Nb130  1  0.59843198  0.20216990  0.60142984  1
  Nb  Nb131  1  0.20264695  0.59606080  0.39820765  1
  Nb  Nb132  1  0.00492186  0.20122770  0.00124400  1
  Nb  Nb133  1  0.80779563  0.79985587  0.79897164  1
  Nb  Nb134  1  0.40055702  0.39764909  0.79997209  1
  Nb  Nb135  1  0.19974503  0.39917612  0.59704715  1
  Nb  Nb136  1  0.80699880  0.40691427  0.60144010  1
  Nb  Nb137  1  0.19814803  -0.00549944  0.80011315  1
  Nb  Nb138  1  0.60430628  -0.00225886  0.19450657  1
  Nb  Nb139  1  0.80503207  0.80143844  0.60344752  1
  Nb  Nb140  1  0.20649038  0.39762332  0.39984684  1
  Nb  Nb141  1  0.60125805  0.60061479  0.60241772  1
  Nb  Nb142  1  0.40151555  0.39137718  0.20236654  1
  Nb  Nb143  1  -0.00273631  0.40433331  0.60208276  1
  Nb  Nb144  1  0.79888608  0.40524313  -0.00200313  1
  Nb  Nb145  1  0.80298766  -0.00132924  0.60413618  1
  Nb  Nb146  1  -0.00184998  0.00660929  -0.00093037  1
  Nb  Nb147  1  0.39319492  -0.00350074  0.00423926  1
  Nb  Nb148  1  0.39478405  0.39719650  0.60069357  1
  Nb  Nb149  1  0.00103951  -0.00006481  0.80687546  1
  Pd  Pd150  1  0.39035788  0.80170892  0.80219757  1
  Pd  Pd151  1  0.00711023  0.60993729  0.20350241  1
  Pd  Pd152  1  -0.00303973  0.39360248  0.20291092  1
  Pd  Pd153  1  0.19922427  0.19482984  0.38584685  1
  Pd  Pd154  1  0.20791731  0.40453234  0.19901558  1
  Pd  Pd155  1  0.19535250  0.79609008  0.19730207  1
  Pd  Pd156  1  0.80362773  0.80924530  0.40961456  1
  Pd  Pd157  1  -0.00309272  0.80910752  0.00976640  1
  Pd  Pd158  1  0.60215726  0.60447872  0.40167577  1
  Pd  Pd159  1  0.19434779  0.60170729  0.59505094  1
  Pd  Pd160  1  0.20569225  -0.00327939  0.59971241  1
  Pd  Pd161  1  0.60526034  0.79267502  0.59991134  1
  Pd  Pd162  1  0.40797618  0.20236681  0.59842281  1
  Pd  Pd163  1  0.20272900  0.19240449  0.20632818  1
  Pd  Pd164  1  0.60446424  0.79186378  0.80817271  1
  Pd  Pd165  1  0.80040478  0.00163468  0.00973002  1
  Pd  Pd166  1  0.00747508  0.59951581  0.59885081  1
  Pd  Pd167  1  0.60632138  0.40124416  -0.00560828  1
  Pd  Pd168  1  0.19632851  0.20326122  0.60649387  1
  Pd  Pd169  1  -0.00291116  0.41314555  0.79416168  1
  Pd  Pd170  1  0.39743326  0.60668795  0.40884998  1
  Pd  Pd171  1  -0.00521009  0.19953528  0.38808393  1
  Pd  Pd172  1  0.40088321  0.79995235  0.20452833  1
  Pd  Pd173  1  0.79031112  0.59981938  0.58599217  1
  Pd  Pd174  1  -0.00653398  0.00539642  0.60306608  1
  Pd  Pd175  1  0.00462298  -0.00904764  0.19037889  1
  Pd  Pd176  1  -0.00205847  0.79874922  0.80018105  1
  Pd  Pd177  1  0.39335830  0.80122950  -0.00238024  1
  Pd  Pd178  1  0.19336777  0.00039365  0.21087614  1
  Pd  Pd179  1  0.39115544  -0.01160305  0.80505201  1
  Pd  Pd180  1  0.80468786  0.60765105  0.80800356  1
  Pd  Pd181  1  0.59503043  0.39810683  0.81313289  1
  Pd  Pd182  1  0.40211496  0.39811305  0.39905916  1
  Pd  Pd183  1  0.79761217  0.20363270  0.20498791  1
  Pd  Pd184  1  0.00070374  0.40020416  -0.00364380  1
  Pd  Pd185  1  0.20064323  0.60650856  0.79988742  1
  Pd  Pd186  1  0.80964384  0.79639705  -0.00124770  1
  Pd  Pd187  1  0.79398039  0.00038550  0.18886000  1
  Pd  Pd188  1  0.80346747  0.79551540  0.20090066  1
  Pd  Pd189  1  0.40799518  0.59744804  0.59860519  1
  Pd  Pd190  1  0.19773374  0.19009999  0.79142685  1
  Pd  Pd191  1  0.79681446  0.40163759  0.19635394  1
  Pd  Pd192  1  0.81029598  -0.00641817  0.79034279  1
  Pd  Pd193  1  0.40189165  0.59205035  0.19442507  1
  Pd  Pd194  1  0.59798833  0.19735499  0.40475277  1
  Pd  Pd195  1  0.59423604  0.80153759  -0.00913616  1
  Pd  Pd196  1  0.40098361  0.60303109  0.00634287  1
  Pd  Pd197  1  0.59701154  -0.00103254  0.39555642  1
  Pd  Pd198  1  0.39187217  0.19396320  0.00605493  1
  Pd  Pd199  1  0.40287659  -0.00066236  0.19646312  1
  Rh  Rh200  1  0.59390841  0.40290296  0.20443073  1
  Rh  Rh201  1  0.00207787  0.59756584  0.00169786  1
  Rh  Rh202  1  0.20797834  0.40444538  0.80077354  1
  Rh  Rh203  1  0.20146665  0.80439665  0.40600845  1
  Rh  Rh204  1  0.60951576  0.19209173  0.20273184  1
  Rh  Rh205  1  0.00030874  0.20361051  0.60109609  1
  Rh  Rh206  1  0.20380283  0.79141256  0.00720289  1
  Rh  Rh207  1  0.40484911  0.59385180  0.79890041  1
  Rh  Rh208  1  0.80782697  0.40207213  0.80225318  1
  Rh  Rh209  1  0.60309737  0.39818368  0.59120473  1
  Rh  Rh210  1  0.79625414  0.20433743  0.80085508  1
  Rh  Rh211  1  0.59884693  0.59846437  0.20236139  1
  Rh  Rh212  1  0.59762250  0.39770076  0.38919716  1
  Rh  Rh213  1  0.79251803  0.20005595  0.60279310  1
  Rh  Rh214  1  0.60428864  0.00929576  0.59801630  1
  Rh  Rh215  1  -0.00320086  0.79783065  0.59425135  1
  Rh  Rh216  1  0.19547566  0.00067745  -0.00699877  1
  Rh  Rh217  1  0.39057046  -0.00025183  0.40322663  1
  Rh  Rh218  1  0.79461313  0.60106249  0.39878620  1
  Rh  Rh219  1  0.00068522  0.18614764  0.80941019  1
  Rh  Rh220  1  0.59560125  -0.00575670  0.81035506  1
  Rh  Rh221  1  0.80752001  0.59595435  0.00206617  1
  Rh  Rh222  1  0.20338582  0.80272395  0.79969248  1
  Rh  Rh223  1  0.39068602  0.39577218  -0.00090157  1
  Rh  Rh224  1  -0.00214799  0.80023994  0.40445887  1
  Rh  Rh225  1  0.59705326  0.80495759  0.21116555  1
  Rh  Rh226  1  0.40489737  0.19337507  0.40260674  1
  Rh  Rh227  1  -0.00284863  0.80373307  0.19816550  1
  Rh  Rh228  1  0.40488685  0.20863094  0.79627065  1
  Rh  Rh229  1  0.20075161  0.79720416  0.59732805  1
  Rh  Rh230  1  0.00635347  0.61279987  0.39998418  1
  Rh  Rh231  1  0.00142370  0.39264242  0.39929971  1
  Rh  Rh232  1  0.00714430  0.00283005  0.39790788  1
  Rh  Rh233  1  -0.00096929  0.60650414  0.79697084  1
  Rh  Rh234  1  0.40466853  0.79632896  0.60197676  1
  Rh  Rh235  1  -0.00269162  0.20548288  0.19597795  1
  Rh  Rh236  1  0.80470037  0.19740428  0.39083979  1
  Rh  Rh237  1  0.59112172  0.59886941  -0.00691518  1
  Rh  Rh238  1  0.80453041  0.21057806  -0.00471421  1
  Rh  Rh239  1  0.59625292  0.79955596  0.39628168  1
  Rh  Rh240  1  0.79638717  0.60630654  0.20465223  1
  Rh  Rh241  1  0.38958248  0.19836011  0.19272318  1
  Rh  Rh242  1  0.40209079  0.79563378  0.40430889  1
  Rh  Rh243  1  0.19958914  0.59640944  0.00984408  1
  Rh  Rh244  1  0.59404045  0.20623710  0.79641200  1
  Rh  Rh245  1  0.80227796  0.40562658  0.40104025  1
  Rh  Rh246  1  0.39813989  -0.00391847  0.59674865  1
  Rh  Rh247  1  0.80637996  -0.00127648  0.41049275  1
  Rh  Rh248  1  0.60317934  0.19605216  -0.00096907  1
  Rh  Rh249  1  0.19686959  0.20476985  -0.00136172  1
