# generated using pymatgen
data_ZrScNbPdRh
_symmetry_space_group_name_H-M   'P 1'
_cell_length_a   16.56181848
_cell_length_b   16.56215632
_cell_length_c   16.56574477
_cell_angle_alpha   89.98708040
_cell_angle_beta   89.99022540
_cell_angle_gamma   90.00584185
_symmetry_Int_Tables_number   1
_chemical_formula_structural   ZrScNbPdRh
_chemical_formula_sum   'Zr50 Sc50 Nb50 Pd50 Rh50'
_cell_volume   4543.97408572
_cell_formula_units_Z   50
loop_
 _symmetry_equiv_pos_site_id
 _symmetry_equiv_pos_as_xyz
  1  'x, y, z'
loop_
 _atom_site_type_symbol
 _atom_site_label
 _atom_site_symmetry_multiplicity
 _atom_site_fract_x
 _atom_site_fract_y
 _atom_site_fract_z
 _atom_site_occupancy
  Zr  Zr0  1  0.29589556  0.50020508  0.30381072  1
  Zr  Zr1  1  0.49913303  0.90295653  0.69875368  1
  Zr  Zr2  1  0.89146938  0.49938766  0.69974213  1
  Zr  Zr3  1  0.70313349  0.09358372  0.29140787  1
  Zr  Zr4  1  0.09385270  0.70542567  0.69899370  1
  Zr  Zr5  1  0.70120514  0.50300539  0.09464644  1
  Zr  Zr6  1  0.09747994  0.50204612  0.89901935  1
  Zr  Zr7  1  0.69870526  0.29936811  0.70783969  1
  Zr  Zr8  1  0.50270214  0.70464505  0.09255926  1
  Zr  Zr9  1  0.70016336  0.49195614  0.29926014  1
  Zr  Zr10  1  0.89849810  0.10564167  0.09173581  1
  Zr  Zr11  1  0.89248541  0.09275425  0.29681278  1
  Zr  Zr12  1  0.10279173  0.89739359  0.30547711  1
  Zr  Zr13  1  0.10520618  0.28877480  0.08539951  1
  Zr  Zr14  1  0.89757031  0.70179384  0.09595991  1
  Zr  Zr15  1  0.50329586  0.48895856  0.30634585  1
  Zr  Zr16  1  0.09981068  0.29898421  0.50379996  1
  Zr  Zr17  1  0.30084181  0.90039294  0.49513094  1
  Zr  Zr18  1  0.10848960  0.09656782  0.69869901  1
  Zr  Zr19  1  0.89810842  0.09403593  0.69510587  1
  Zr  Zr20  1  0.09735473  0.89354822  0.10142668  1
  Zr  Zr21  1  0.48578879  0.49883232  0.70341216  1
  Zr  Zr22  1  0.70092644  0.10294359  0.90522543  1
  Zr  Zr23  1  0.50316364  0.69788365  0.70306478  1
  Zr  Zr24  1  0.50445839  0.10006086  0.90134996  1
  Zr  Zr25  1  0.70106556  0.71010616  0.09848995  1
  Zr  Zr26  1  0.29551627  0.69901369  0.70136438  1
  Zr  Zr27  1  0.29857745  0.90628640  0.70638389  1
  Zr  Zr28  1  0.50100029  0.50710325  0.09953437  1
  Zr  Zr29  1  0.69238600  0.69603933  0.69542509  1
  Zr  Zr30  1  0.30548224  0.30403780  0.70551744  1
  Zr  Zr31  1  0.49782472  0.69992571  0.89759460  1
  Zr  Zr32  1  0.30052509  0.29683106  0.90504353  1
  Zr  Zr33  1  0.49591672  0.89622231  0.90326706  1
  Zr  Zr34  1  0.30383701  0.49989066  0.89069244  1
  Zr  Zr35  1  0.50253671  0.09918220  0.51032779  1
  Zr  Zr36  1  0.70560537  0.30448555  0.10228204  1
  Zr  Zr37  1  0.89580426  0.90362969  0.88565938  1
  Zr  Zr38  1  0.90059085  0.70446117  0.50205378  1
  Zr  Zr39  1  0.29873549  0.50441422  0.09715036  1
  Zr  Zr40  1  0.89715021  0.71120334  0.30620949  1
  Zr  Zr41  1  0.89919029  0.50185399  0.50063514  1
  Zr  Zr42  1  0.49455376  0.70765857  0.30200123  1
  Zr  Zr43  1  0.89619283  0.29628755  0.69485016  1
  Zr  Zr44  1  0.10054767  0.09951095  0.50259826  1
  Zr  Zr45  1  0.70741711  0.71260969  0.30525115  1
  Zr  Zr46  1  0.30618422  0.89513027  0.30585736  1
  Zr  Zr47  1  0.50698919  0.70288881  0.50728115  1
  Zr  Zr48  1  0.09839520  0.51143479  0.70297494  1
  Zr  Zr49  1  0.50842406  0.10269289  0.30399413  1
  Sc  Sc50  1  0.69807379  0.69317773  0.89718212  1
  Sc  Sc51  1  0.70555890  0.89589330  0.69651275  1
  Sc  Sc52  1  0.50637275  0.08852959  0.09843441  1
  Sc  Sc53  1  0.89350504  0.09409142  0.50629930  1
  Sc  Sc54  1  0.10540584  0.09686451  0.31069592  1
  Sc  Sc55  1  0.89544434  0.70132644  0.89589175  1
  Sc  Sc56  1  0.09651046  0.70375359  0.50664471  1
  Sc  Sc57  1  0.70128186  0.10132375  0.69328424  1
  Sc  Sc58  1  0.11036226  0.29214138  0.89740656  1
  Sc  Sc59  1  0.89821834  0.90134433  0.50201526  1
  Sc  Sc60  1  0.30098296  0.69097088  0.10283426  1
  Sc  Sc61  1  0.10238945  0.30605924  0.31038791  1
  Sc  Sc62  1  0.09875590  0.49704389  0.30323013  1
  Sc  Sc63  1  0.90374651  0.30026124  0.50928833  1
  Sc  Sc64  1  0.69803060  0.29830949  0.90074947  1
  Sc  Sc65  1  0.49330619  0.49850787  0.50298987  1
  Sc  Sc66  1  0.89619281  0.09100789  0.89980484  1
  Sc  Sc67  1  0.30474388  0.89946889  0.89094298  1
  Sc  Sc68  1  0.30093125  0.09799565  0.31150990  1
  Sc  Sc69  1  0.70011500  0.50319360  0.89568504  1
  Sc  Sc70  1  0.69177320  0.29228723  0.50070115  1
  Sc  Sc71  1  0.51056559  0.29761801  0.89757608  1
  Sc  Sc72  1  0.09576161  0.09829970  0.90230983  1
  Sc  Sc73  1  0.89393064  0.89670805  0.08816944  1
  Sc  Sc74  1  0.31029898  0.10076885  0.08972198  1
  Sc  Sc75  1  0.29886270  0.29850472  0.31781466  1
  Sc  Sc76  1  0.90252850  0.31277699  0.29106660  1
  Sc  Sc77  1  0.70580304  0.70560037  0.50748095  1
  Sc  Sc78  1  0.69795165  0.09570095  0.50093364  1
  Sc  Sc79  1  0.29491171  0.69968862  0.30188310  1
  Sc  Sc80  1  0.30129169  0.49815800  0.49813989  1
  Sc  Sc81  1  0.29836883  0.70217086  0.49222547  1
  Sc  Sc82  1  0.31471455  0.90240131  0.10298554  1
  Sc  Sc83  1  0.09531768  0.50088493  0.49760530  1
  Sc  Sc84  1  0.50220141  0.50766752  0.89873812  1
  Sc  Sc85  1  0.10002838  0.89759044  0.69900345  1
  Sc  Sc86  1  0.68389479  0.29750073  0.29690181  1
  Sc  Sc87  1  0.09831454  0.69743337  0.10277817  1
  Sc  Sc88  1  0.30326158  0.09278818  0.89680778  1
  Sc  Sc89  1  0.10000358  0.50720446  0.10204084  1
  Sc  Sc90  1  0.09153361  0.69804921  0.89322798  1
  Sc  Sc91  1  0.29886469  0.10231296  0.50536194  1
  Sc  Sc92  1  0.90589085  0.50037804  0.30185757  1
  Sc  Sc93  1  0.30425569  0.29921127  0.50292261  1
  Sc  Sc94  1  0.89972385  0.70438076  0.69763942  1
  Sc  Sc95  1  0.89678915  0.49305247  0.10646171  1
  Sc  Sc96  1  0.10097827  0.70291616  0.29670652  1
  Sc  Sc97  1  0.89349620  0.51192301  0.89766857  1
  Sc  Sc98  1  0.89135956  0.28573859  0.90556642  1
  Sc  Sc99  1  0.09660455  0.90015841  0.88458364  1
  Nb  Nb100  1  0.49970967  0.30042772  0.49615303  1
  Nb  Nb101  1  0.70709666  0.09148428  0.10412180  1
  Nb  Nb102  1  0.69672254  0.50104632  0.50306074  1
  Nb  Nb103  1  0.50290011  0.30092979  0.30350655  1
  Nb  Nb104  1  0.30298649  0.70572134  0.89964697  1
  Nb  Nb105  1  0.70556374  0.91014158  0.89797426  1
  Nb  Nb106  1  0.50146287  0.30329595  0.10531998  1
  Nb  Nb107  1  0.09907398  0.09644252  0.09971838  1
  Nb  Nb108  1  0.30122709  0.49631147  0.69995779  1
  Nb  Nb109  1  0.10429915  0.90229643  0.49686989  1
  Nb  Nb110  1  0.09694519  0.29596537  0.69854028  1
  Nb  Nb111  1  0.90531046  0.29924540  0.09704608  1
  Nb  Nb112  1  0.49998399  0.90404200  0.29859656  1
  Nb  Nb113  1  0.69577640  0.90285204  0.50297129  1
  Nb  Nb114  1  0.90004578  0.90080362  0.70014636  1
  Nb  Nb115  1  0.50263414  0.90303896  0.49851760  1
  Nb  Nb116  1  0.89034890  0.90207070  0.30215182  1
  Nb  Nb117  1  0.49756609  0.29863762  0.69466850  1
  Nb  Nb118  1  0.71046378  0.90363853  0.29879306  1
  Nb  Nb119  1  0.69536289  0.49954316  0.69586123  1
  Nb  Nb120  1  0.50550948  0.89853888  0.10515217  1
  Nb  Nb121  1  0.31236644  0.09733934  0.69950350  1
  Nb  Nb122  1  0.30154553  0.29647364  0.09683575  1
  Nb  Nb123  1  0.49751607  0.09785171  0.69903448  1
  Nb  Nb124  1  0.69523844  0.90624727  0.10522369  1
  Nb  Nb125  1  0.20046475  0.40223533  0.61116307  1
  Nb  Nb126  1  0.19825968  0.00316973  0.19570889  1
  Nb  Nb127  1  0.80210258  0.20305947  0.39534166  1
  Nb  Nb128  1  0.40136109  0.39673055  0.00614003  1
  Nb  Nb129  1  0.39793598  0.39210129  0.19948604  1
  Nb  Nb130  1  0.60405061  0.60635643  0.20679354  1
  Nb  Nb131  1  0.20339185  0.19848096  0.19762215  1
  Nb  Nb132  1  -0.00820559  0.19755139  0.39692325  1
  Nb  Nb133  1  0.40195888  0.80467382  0.59968795  1
  Nb  Nb134  1  0.60008471  0.81040303  0.39773072  1
  Nb  Nb135  1  -0.00139578  0.39253068  0.80127645  1
  Nb  Nb136  1  0.40162759  0.20835258  0.20155442  1
  Nb  Nb137  1  0.79494826  0.39678713  0.40407522  1
  Nb  Nb138  1  0.79569079  0.60606541  0.20302241  1
  Nb  Nb139  1  -0.00101629  0.39522047  -0.00508326  1
  Nb  Nb140  1  0.59586346  0.39962044  0.60445265  1
  Nb  Nb141  1  0.60401305  0.60411340  0.39985436  1
  Nb  Nb142  1  0.00527791  0.19570965  0.20036462  1
  Nb  Nb143  1  0.20154351  0.80206613  -0.00371133  1
  Nb  Nb144  1  0.59994133  0.00168940  0.80045169  1
  Nb  Nb145  1  0.00077771  0.20142901  0.79162812  1
  Nb  Nb146  1  0.20787239  0.39108426  0.19372883  1
  Nb  Nb147  1  0.40513954  0.19840339  0.79318357  1
  Nb  Nb148  1  0.00051472  0.00027039  0.20003496  1
  Nb  Nb149  1  0.19766095  -0.00784015  0.00445266  1
  Pd  Pd150  1  0.79457092  0.79378326  0.79709552  1
  Pd  Pd151  1  0.78767780  0.39256353  0.59214299  1
  Pd  Pd152  1  0.80387077  0.19141528  0.80030134  1
  Pd  Pd153  1  0.00519806  0.80272370  -0.01142549  1
  Pd  Pd154  1  0.59631846  0.19464640  0.19143227  1
  Pd  Pd155  1  0.80116090  0.60493229  0.60258475  1
  Pd  Pd156  1  0.79241798  0.80398850  -0.00966234  1
  Pd  Pd157  1  0.60792854  0.80797163  0.80443731  1
  Pd  Pd158  1  0.39729560  0.01126699  0.20233882  1
  Pd  Pd159  1  0.19829405  0.40638171  0.00241402  1
  Pd  Pd160  1  0.59584826  0.40171717  -0.00246535  1
  Pd  Pd161  1  -0.00652358  0.59352247  0.00264037  1
  Pd  Pd162  1  0.40248954  0.00730314  0.40510428  1
  Pd  Pd163  1  0.19863869  0.61093862  -0.00733879  1
  Pd  Pd164  1  0.39287539  0.80036083  0.00528160  1
  Pd  Pd165  1  0.20417431  0.19102795  0.80060353  1
  Pd  Pd166  1  0.00698613  0.40833825  0.60637496  1
  Pd  Pd167  1  -0.00443897  0.00256283  0.39889356  1
  Pd  Pd168  1  0.60879978  0.80538629  -0.00917452  1
  Pd  Pd169  1  0.59515962  0.40521299  0.79614980  1
  Pd  Pd170  1  0.20405470  0.80382056  0.59694665  1
  Pd  Pd171  1  0.79558562  0.59270919  0.39793777  1
  Pd  Pd172  1  0.00306707  -0.00693256  0.60048102  1
  Pd  Pd173  1  0.20269082  0.59406449  0.59290500  1
  Pd  Pd174  1  0.00449392  0.60490176  0.39730317  1
  Pd  Pd175  1  -0.00722412  0.60359356  0.20389394  1
  Pd  Pd176  1  0.40486705  0.59681295  0.20846104  1
  Pd  Pd177  1  0.60357543  0.20072718  0.01311606  1
  Pd  Pd178  1  0.60079116  0.80446013  0.20667604  1
  Pd  Pd179  1  0.40923955  0.20236821  -0.00195459  1
  Pd  Pd180  1  0.60561222  -0.00183009  0.39745652  1
  Pd  Pd181  1  0.19148312  0.39958399  0.79617396  1
  Pd  Pd182  1  0.20425428  -0.00229306  0.59883244  1
  Pd  Pd183  1  0.60212715  -0.00665123  -0.00239023  1
  Pd  Pd184  1  0.19080948  0.60342732  0.40327202  1
  Pd  Pd185  1  0.01667974  0.39077223  0.18912652  1
  Pd  Pd186  1  0.80525638  0.40001410  0.81029021  1
  Pd  Pd187  1  0.80789017  0.40155628  -0.00749791  1
  Pd  Pd188  1  0.20878679  0.20563569  0.60295667  1
  Pd  Pd189  1  0.40577987  0.60126362  0.40192940  1
  Pd  Pd190  1  0.80505682  0.21058449  0.20370660  1
  Pd  Pd191  1  0.39238550  0.60721987  0.59657840  1
  Pd  Pd192  1  0.20185813  0.60666768  0.80457400  1
  Pd  Pd193  1  0.40498162  0.19650289  0.40139734  1
  Pd  Pd194  1  -0.00969419  0.80682208  0.20234215  1
  Pd  Pd195  1  0.21049797  0.80317786  0.19236308  1
  Pd  Pd196  1  0.60085569  0.20357005  0.60330949  1
  Pd  Pd197  1  0.39573117  0.79613329  0.19622986  1
  Pd  Pd198  1  0.00292543  0.80376650  0.40522002  1
  Pd  Pd199  1  0.00277262  -0.00736421  -0.00173193  1
  Rh  Rh200  1  0.39523888  0.60672694  0.80180504  1
  Rh  Rh201  1  0.19329935  0.79565176  0.40300098  1
  Rh  Rh202  1  0.39881902  0.39677032  0.39991187  1
  Rh  Rh203  1  0.59648742  0.81028260  0.59620570  1
  Rh  Rh204  1  0.80063177  0.60106760  0.00652625  1
  Rh  Rh205  1  0.39854068  0.79442706  0.78977273  1
  Rh  Rh206  1  0.40067923  0.20218897  0.60293946  1
  Rh  Rh207  1  0.80539216  0.80553108  0.19457393  1
  Rh  Rh208  1  0.00094437  0.00722481  0.79186660  1
  Rh  Rh209  1  0.59504801  0.19243222  0.79235008  1
  Rh  Rh210  1  0.19994373  0.40182902  0.41033252  1
  Rh  Rh211  1  0.19248090  0.20153772  0.40272746  1
  Rh  Rh212  1  0.79666177  0.20050706  0.59239630  1
  Rh  Rh213  1  0.40888395  0.00694201  0.80531338  1
  Rh  Rh214  1  0.40028825  -0.00836533  -0.00142964  1
  Rh  Rh215  1  0.59597962  0.40612844  0.19240265  1
  Rh  Rh216  1  0.79481187  0.00164763  0.40615995  1
  Rh  Rh217  1  0.79577542  -0.00666320  0.60055156  1
  Rh  Rh218  1  -0.00120377  0.20142554  -0.00712704  1
  Rh  Rh219  1  -0.01083815  0.39429820  0.40636158  1
  Rh  Rh220  1  0.40824135  0.80173744  0.40731205  1
  Rh  Rh221  1  0.79084544  0.00358016  0.79256166  1
  Rh  Rh222  1  0.79418006  0.60392374  0.79072791  1
  Rh  Rh223  1  0.39759302  -0.00593189  0.59413180  1
  Rh  Rh224  1  -0.00591648  0.60180430  0.60042650  1
  Rh  Rh225  1  0.59579009  0.58684956  0.59754564  1
  Rh  Rh226  1  -0.00622970  0.80057115  0.79560194  1
  Rh  Rh227  1  0.19953630  0.00347708  0.80368295  1
  Rh  Rh228  1  0.59866948  -0.00484884  0.20250094  1
  Rh  Rh229  1  0.20527183  0.18095498  -0.00182365  1
  Rh  Rh230  1  0.60302538  0.40194390  0.41557383  1
  Rh  Rh231  1  0.39905053  0.39686336  0.59457735  1
  Rh  Rh232  1  0.60057291  0.59316054  0.79649869  1
  Rh  Rh233  1  0.60401001  0.19456845  0.40096405  1
  Rh  Rh234  1  0.80868147  -0.01046438  0.18818103  1
  Rh  Rh235  1  -0.00123109  0.19021712  0.59950194  1
  Rh  Rh236  1  0.80286853  0.80380770  0.59975928  1
  Rh  Rh237  1  0.19668278  0.59254587  0.20680403  1
  Rh  Rh238  1  0.40812218  0.38976329  0.81330081  1
  Rh  Rh239  1  0.19843855  0.79584385  0.80620654  1
  Rh  Rh240  1  0.60277164  0.60419215  0.00142665  1
  Rh  Rh241  1  0.60301222  -0.00250045  0.60885932  1
  Rh  Rh242  1  -0.00038670  0.80934962  0.59937333  1
  Rh  Rh243  1  -0.00976206  0.59839425  0.79506665  1
  Rh  Rh244  1  0.79791180  -0.00220915  0.00273805  1
  Rh  Rh245  1  0.79788726  0.40045725  0.20359975  1
  Rh  Rh246  1  0.39748933  0.59725915  -0.00852962  1
  Rh  Rh247  1  0.79133747  0.19939803  0.00617918  1
  Rh  Rh248  1  0.79448062  0.81463230  0.41190171  1
  Rh  Rh249  1  0.20355045  -0.00189413  0.39973274  1
