# generated using pymatgen
data_ZrScNbPdRh
_symmetry_space_group_name_H-M   'P 1'
_cell_length_a   16.55553580
_cell_length_b   16.55584752
_cell_length_c   16.55257273
_cell_angle_alpha   90.03161811
_cell_angle_beta   89.99552183
_cell_angle_gamma   89.97666114
_symmetry_Int_Tables_number   1
_chemical_formula_structural   ZrScNbPdRh
_chemical_formula_sum   'Zr50 Sc50 Nb50 Pd50 Rh50'
_cell_volume   4536.90891142
_cell_formula_units_Z   50
loop_
 _symmetry_equiv_pos_site_id
 _symmetry_equiv_pos_as_xyz
  1  'x, y, z'
loop_
 _atom_site_type_symbol
 _atom_site_label
 _atom_site_symmetry_multiplicity
 _atom_site_fract_x
 _atom_site_fract_y
 _atom_site_fract_z
 _atom_site_occupancy
  Zr  Zr0  1  0.69945847  0.29295293  0.09845118  1
  Zr  Zr1  1  0.90582437  0.49497027  0.89896939  1
  Zr  Zr2  1  0.70381318  0.49989784  0.69217443  1
  Zr  Zr3  1  0.68524050  0.69731861  0.09466448  1
  Zr  Zr4  1  0.29926142  0.70082082  0.30492198  1
  Zr  Zr5  1  0.10030953  0.50412551  0.50735885  1
  Zr  Zr6  1  0.08460685  0.49917171  0.29676750  1
  Zr  Zr7  1  0.89720647  0.89189998  0.50536318  1
  Zr  Zr8  1  0.30061599  0.89073185  0.50478558  1
  Zr  Zr9  1  0.10243732  0.69848990  0.29494853  1
  Zr  Zr10  1  0.70093921  0.09784981  0.70182523  1
  Zr  Zr11  1  0.09501867  0.29868183  0.09982167  1
  Zr  Zr12  1  0.10246011  0.69715572  0.90211230  1
  Zr  Zr13  1  0.09950590  0.69921809  0.70129762  1
  Zr  Zr14  1  0.50652548  0.89935013  0.09750242  1
  Zr  Zr15  1  0.29482425  0.90337705  0.90099282  1
  Zr  Zr16  1  0.50460730  0.49629850  0.70904165  1
  Zr  Zr17  1  0.30633416  0.30230580  0.70248932  1
  Zr  Zr18  1  0.50483239  0.90871569  0.90031320  1
  Zr  Zr19  1  0.50084317  0.49668811  0.89822779  1
  Zr  Zr20  1  0.30354992  0.30449074  0.29668575  1
  Zr  Zr21  1  0.69796923  0.90284045  0.89989492  1
  Zr  Zr22  1  0.09749687  0.09896298  0.50155511  1
  Zr  Zr23  1  0.90224283  0.70313139  0.89282537  1
  Zr  Zr24  1  0.30261693  0.50453516  0.29576037  1
  Zr  Zr25  1  0.90196447  0.10189437  0.30151802  1
  Zr  Zr26  1  0.89326106  0.90647629  0.09684183  1
  Zr  Zr27  1  0.11197434  0.09777580  0.89503785  1
  Zr  Zr28  1  0.50135303  0.10504905  0.70413273  1
  Zr  Zr29  1  0.49279104  0.70090620  0.49935412  1
  Zr  Zr30  1  0.10600272  0.09413552  0.10145368  1
  Zr  Zr31  1  0.70116010  0.90108908  0.69728844  1
  Zr  Zr32  1  0.89557009  0.30040886  0.90111798  1
  Zr  Zr33  1  0.49460600  0.30428244  0.09343927  1
  Zr  Zr34  1  0.10879972  0.69814203  0.09641874  1
  Zr  Zr35  1  0.29881886  0.10741347  0.71681920  1
  Zr  Zr36  1  0.10353892  0.89362931  0.09586746  1
  Zr  Zr37  1  0.69666240  0.89674605  0.30183414  1
  Zr  Zr38  1  0.28705130  0.70136949  0.89872253  1
  Zr  Zr39  1  0.91080935  0.69886258  0.50280297  1
  Zr  Zr40  1  0.71170122  0.50643190  0.10505734  1
  Zr  Zr41  1  0.50367777  0.09690358  0.50435742  1
  Zr  Zr42  1  0.29987095  0.51263602  0.49816081  1
  Zr  Zr43  1  0.29690561  0.69783754  0.10816707  1
  Zr  Zr44  1  0.10429948  0.09841394  0.30259155  1
  Zr  Zr45  1  0.90212823  0.70304243  0.69504707  1
  Zr  Zr46  1  0.89538938  0.29636954  0.70776462  1
  Zr  Zr47  1  0.49840080  0.70175799  0.29493287  1
  Zr  Zr48  1  0.49701827  0.09958762  0.09459143  1
  Zr  Zr49  1  0.89478114  0.29388911  0.50217313  1
  Sc  Sc50  1  0.69965134  0.69629345  0.49589851  1
  Sc  Sc51  1  0.29350313  0.89080840  0.69836181  1
  Sc  Sc52  1  0.50559847  0.89247994  0.70114314  1
  Sc  Sc53  1  0.30437350  0.31386495  0.51236381  1
  Sc  Sc54  1  0.49899827  0.50254517  0.30548279  1
  Sc  Sc55  1  0.08320773  0.29190957  0.90057564  1
  Sc  Sc56  1  0.70247930  0.09506652  0.51194755  1
  Sc  Sc57  1  0.69547497  0.70568303  0.69891696  1
  Sc  Sc58  1  0.69232065  0.89930035  0.50388318  1
  Sc  Sc59  1  0.50661475  0.50064944  0.09414944  1
  Sc  Sc60  1  0.50278281  0.70094142  0.69685483  1
  Sc  Sc61  1  0.30266605  0.70365894  0.69877256  1
  Sc  Sc62  1  0.08730685  0.30165131  0.30544336  1
  Sc  Sc63  1  0.89694067  0.30365400  0.30774365  1
  Sc  Sc64  1  0.31520743  0.29705700  0.89879390  1
  Sc  Sc65  1  0.09811453  0.89506243  0.29045413  1
  Sc  Sc66  1  0.69442802  0.49798616  0.90242982  1
  Sc  Sc67  1  0.50185952  0.50534346  0.49385750  1
  Sc  Sc68  1  0.50314102  0.89743820  0.50026360  1
  Sc  Sc69  1  0.10113469  0.50634844  0.70402714  1
  Sc  Sc70  1  0.90482494  0.69964604  0.30750048  1
  Sc  Sc71  1  0.30209171  0.49806183  0.69863973  1
  Sc  Sc72  1  0.89358356  0.10188347  0.09497055  1
  Sc  Sc73  1  0.30035645  0.89787560  0.30649529  1
  Sc  Sc74  1  0.70187941  0.29503362  0.70551842  1
  Sc  Sc75  1  0.89881595  0.10522266  0.50992724  1
  Sc  Sc76  1  0.50546621  0.30476855  0.89811429  1
  Sc  Sc77  1  0.29958995  0.08864344  0.29673747  1
  Sc  Sc78  1  0.69318944  0.10085629  0.90070769  1
  Sc  Sc79  1  0.90113011  0.49201533  0.10018177  1
  Sc  Sc80  1  0.30382763  0.50349139  0.89517484  1
  Sc  Sc81  1  0.89505715  0.51030021  0.50577077  1
  Sc  Sc82  1  0.30127928  0.90837297  0.10176521  1
  Sc  Sc83  1  0.51361069  0.70260050  0.89212979  1
  Sc  Sc84  1  0.70385953  0.10106450  0.09269274  1
  Sc  Sc85  1  0.09307138  0.50377561  0.09894424  1
  Sc  Sc86  1  0.89969018  0.10704063  0.90193038  1
  Sc  Sc87  1  0.30661883  0.49827530  0.09883289  1
  Sc  Sc88  1  0.11160115  0.90318178  0.51299420  1
  Sc  Sc89  1  0.49923400  0.30977830  0.30004658  1
  Sc  Sc90  1  0.28905226  0.08404789  0.49922328  1
  Sc  Sc91  1  0.70391385  0.11235153  0.29043759  1
  Sc  Sc92  1  0.69908809  0.50375930  0.49081776  1
  Sc  Sc93  1  0.89410512  0.68966630  0.09585546  1
  Sc  Sc94  1  0.90198961  0.30199973  0.08650389  1
  Sc  Sc95  1  0.09491766  0.09368003  0.70129130  1
  Sc  Sc96  1  0.70014212  0.29705111  0.90083965  1
  Sc  Sc97  1  0.49456971  0.90298687  0.30671782  1
  Sc  Sc98  1  0.09070665  0.30253268  0.50233498  1
  Sc  Sc99  1  0.90335496  0.89128347  0.29603417  1
  Nb  Nb100  1  0.09922955  0.89655854  0.90099143  1
  Nb  Nb101  1  0.49166489  0.09773307  0.90117961  1
  Nb  Nb102  1  0.69890999  0.68943293  0.29299950  1
  Nb  Nb103  1  0.69972482  0.30880915  0.30802930  1
  Nb  Nb104  1  0.70364646  0.49875921  0.29948646  1
  Nb  Nb105  1  0.88867762  0.09724085  0.69572172  1
  Nb  Nb106  1  0.69912367  0.90331363  0.09624847  1
  Nb  Nb107  1  0.10592275  0.29919370  0.70319647  1
  Nb  Nb108  1  0.49524377  0.29940516  0.69259628  1
  Nb  Nb109  1  0.31004226  0.09904699  0.90616997  1
  Nb  Nb110  1  0.50081677  0.29574380  0.50212145  1
  Nb  Nb111  1  0.90067314  0.89654194  0.89679393  1
  Nb  Nb112  1  0.09573363  0.89996002  0.70173953  1
  Nb  Nb113  1  0.10137889  0.69562127  0.50095759  1
  Nb  Nb114  1  0.49829101  0.10238270  0.29968911  1
  Nb  Nb115  1  0.30177045  0.30203196  0.09972469  1
  Nb  Nb116  1  0.30348224  0.10291485  0.09579594  1
  Nb  Nb117  1  0.89504508  0.50183769  0.29282214  1
  Nb  Nb118  1  0.29424086  0.70524452  0.49994737  1
  Nb  Nb119  1  0.10724805  0.50600642  0.89979551  1
  Nb  Nb120  1  0.90207195  0.89673434  0.70333220  1
  Nb  Nb121  1  0.89782100  0.50212262  0.70082553  1
  Nb  Nb122  1  0.49862067  0.70414963  0.09502108  1
  Nb  Nb123  1  0.69661842  0.30565044  0.49126569  1
  Nb  Nb124  1  0.70575789  0.70279102  0.89927219  1
  Nb  Nb125  1  0.78908048  0.79559234  0.19411544  1
  Nb  Nb126  1  0.19869994  0.20242352  0.60176656  1
  Nb  Nb127  1  0.20993305  0.20023768  0.00118277  1
  Nb  Nb128  1  0.19588178  0.39542602  0.80640357  1
  Nb  Nb129  1  0.39803491  0.19801334  0.19933737  1
  Nb  Nb130  1  0.39884790  0.00052287  0.60567361  1
  Nb  Nb131  1  0.80830174  -0.00530092  0.79702579  1
  Nb  Nb132  1  0.80306648  0.60085126  0.79778342  1
  Nb  Nb133  1  0.40452842  0.61091672  -0.00183660  1
  Nb  Nb134  1  0.59747226  0.20564478  0.40097382  1
  Nb  Nb135  1  0.59884002  0.00275541  0.19921113  1
  Nb  Nb136  1  0.19738043  0.39830634  0.19919828  1
  Nb  Nb137  1  0.19914088  0.40211404  0.39789308  1
  Nb  Nb138  1  0.20618177  0.20824404  0.40443438  1
  Nb  Nb139  1  0.59707991  0.39105131  0.59508684  1
  Nb  Nb140  1  0.19923625  0.39484415  -0.00245928  1
  Nb  Nb141  1  0.80463181  -0.00239793  0.40031087  1
  Nb  Nb142  1  0.00091673  0.19742379  0.19896669  1
  Nb  Nb143  1  0.40225711  0.79604353  -0.00013206  1
  Nb  Nb144  1  0.00335330  -0.00735221  -0.00861560  1
  Nb  Nb145  1  0.61127726  0.40086031  0.20540238  1
  Nb  Nb146  1  -0.00361993  -0.00295006  0.40353020  1
  Nb  Nb147  1  -0.00627834  0.40032337  0.61140799  1
  Nb  Nb148  1  0.40057062  0.19915442  0.40090468  1
  Nb  Nb149  1  0.79487597  0.80290034  -0.00027335  1
  Pd  Pd150  1  0.40241939  0.59963100  0.60470334  1
  Pd  Pd151  1  -0.00647795  0.00549770  0.80516892  1
  Pd  Pd152  1  0.39894165  0.60821144  0.80312535  1
  Pd  Pd153  1  0.39952739  -0.00903749  0.79172809  1
  Pd  Pd154  1  0.19128834  0.80442923  0.40002235  1
  Pd  Pd155  1  0.79119586  0.40610040  0.80499887  1
  Pd  Pd156  1  -0.00324891  0.19097601  0.79440917  1
  Pd  Pd157  1  -0.00134769  0.59748142  -0.00031323  1
  Pd  Pd158  1  0.39686853  0.80952839  0.19707494  1
  Pd  Pd159  1  0.80426296  0.60143708  0.39599335  1
  Pd  Pd160  1  0.59299116  0.59067409  0.20203327  1
  Pd  Pd161  1  -0.00657409  -0.00542062  0.59728555  1
  Pd  Pd162  1  0.40236948  0.79981189  0.80622291  1
  Pd  Pd163  1  0.60857009  0.40187588  0.00725425  1
  Pd  Pd164  1  0.79748262  0.39632175  0.59566711  1
  Pd  Pd165  1  0.00845171  0.40387908  0.79747501  1
  Pd  Pd166  1  -0.00689831  0.60648004  0.19612318  1
  Pd  Pd167  1  0.39897614  0.00173847  0.40827635  1
  Pd  Pd168  1  0.01459251  0.80767852  0.40920386  1
  Pd  Pd169  1  0.80252434  0.38997554  0.19792647  1
  Pd  Pd170  1  0.40975678  0.59355097  0.19252673  1
  Pd  Pd171  1  0.80111991  0.59929416  -0.00981886  1
  Pd  Pd172  1  0.20523665  -0.00776278  0.20321638  1
  Pd  Pd173  1  0.20531425  0.60497912  0.60839211  1
  Pd  Pd174  1  0.61078954  0.60124606  0.80035871  1
  Pd  Pd175  1  0.41035568  0.41306862  0.59672118  1
  Pd  Pd176  1  -0.00799130  0.80056138  0.00533606  1
  Pd  Pd177  1  0.19291794  0.59546364  0.39440372  1
  Pd  Pd178  1  0.59896455  0.79129881  0.39994116  1
  Pd  Pd179  1  0.60029237  0.80582591  0.20344443  1
  Pd  Pd180  1  0.81089980  0.21143183  0.19766806  1
  Pd  Pd181  1  0.61312766  0.01360460  0.39156227  1
  Pd  Pd182  1  0.00775009  0.79909778  0.79874136  1
  Pd  Pd183  1  -0.00724658  0.41013418  0.41265006  1
  Pd  Pd184  1  0.38572271  0.18814271  0.58981178  1
  Pd  Pd185  1  0.00369470  0.20469755  0.61118260  1
  Pd  Pd186  1  -0.01035727  0.78977934  0.18890470  1
  Pd  Pd187  1  0.79226388  -0.00387872  0.20752673  1
  Pd  Pd188  1  0.59261646  0.20528190  0.20503961  1
  Pd  Pd189  1  0.39773501  0.39996262  0.40624592  1
  Pd  Pd190  1  -0.00388594  0.00374233  0.19705162  1
  Pd  Pd191  1  0.79315921  0.79432396  0.59628324  1
  Pd  Pd192  1  0.79486701  0.79901840  0.39503115  1
  Pd  Pd193  1  0.80911090  0.41023777  0.40449853  1
  Pd  Pd194  1  0.59519856  0.20322357  0.80456652  1
  Pd  Pd195  1  0.79021346  0.19002747  0.40671647  1
  Pd  Pd196  1  0.59948309  0.59525825  0.59538605  1
  Pd  Pd197  1  0.20112385  -0.00723254  0.79578091  1
  Pd  Pd198  1  0.20125149  0.20580252  0.20347473  1
  Pd  Pd199  1  0.60959458  0.20534918  0.59709861  1
  Rh  Rh200  1  0.20994729  0.58931425  0.00474446  1
  Rh  Rh201  1  0.60317337  0.00268268  0.79709039  1
  Rh  Rh202  1  0.19194671  0.80335683  0.79572982  1
  Rh  Rh203  1  0.20634159  0.80351173  0.20098701  1
  Rh  Rh204  1  0.00496937  0.19105669  0.39522672  1
  Rh  Rh205  1  0.18997089  -0.00664543  0.39521633  1
  Rh  Rh206  1  0.41150294  0.20426106  0.80704957  1
  Rh  Rh207  1  0.59986959  0.60317235  0.39298192  1
  Rh  Rh208  1  0.59653436  0.40070802  0.39977852  1
  Rh  Rh209  1  0.79550180  0.20073087  -0.00414423  1
  Rh  Rh210  1  0.40208419  0.20176221  0.00033940  1
  Rh  Rh211  1  0.59475875  0.60025756  -0.00693741  1
  Rh  Rh212  1  0.00813959  0.18321599  0.00668391  1
  Rh  Rh213  1  0.19943799  0.00301742  -0.00183458  1
  Rh  Rh214  1  0.80539410  -0.00808863  0.60053755  1
  Rh  Rh215  1  0.58932186  -0.00309235  0.60756828  1
  Rh  Rh216  1  0.60290880  0.39225415  0.78967566  1
  Rh  Rh217  1  0.19367910  0.79186315  0.60301198  1
  Rh  Rh218  1  0.60124986  0.00930600  0.00478409  1
  Rh  Rh219  1  0.79528517  0.80163003  0.80326264  1
  Rh  Rh220  1  0.19500149  0.58927864  0.19903724  1
  Rh  Rh221  1  0.39511440  0.41068819  -0.00518599  1
  Rh  Rh222  1  0.20244313  0.20972585  0.80621101  1
  Rh  Rh223  1  0.20474068  0.59426205  0.79436389  1
  Rh  Rh224  1  0.40681815  0.40058046  0.19522757  1
  Rh  Rh225  1  0.00813842  0.40732183  -0.00667500  1
  Rh  Rh226  1  0.60376211  0.80148654  0.79932450  1
  Rh  Rh227  1  0.79253278  0.20774432  0.59975288  1
  Rh  Rh228  1  -0.00517218  0.39171007  0.19888872  1
  Rh  Rh229  1  0.80519699  -0.00267714  -0.01327481  1
  Rh  Rh230  1  0.79748032  0.60826395  0.60487135  1
  Rh  Rh231  1  0.60117076  0.79995059  -0.00815947  1
  Rh  Rh232  1  0.40589375  0.00469512  0.19905919  1
  Rh  Rh233  1  0.59903356  0.79630412  0.59553707  1
  Rh  Rh234  1  0.59363720  0.19646576  -0.00723592  1
  Rh  Rh235  1  0.39860052  -0.00808545  0.00034492  1
  Rh  Rh236  1  0.39916970  0.39780779  0.80062216  1
  Rh  Rh237  1  -0.00440805  0.59763477  0.79934903  1
  Rh  Rh238  1  0.80560232  0.60608968  0.20570533  1
  Rh  Rh239  1  0.00090611  0.59606760  0.60418290  1
  Rh  Rh240  1  0.40017653  0.79717251  0.40156152  1
  Rh  Rh241  1  0.20910904  0.80442026  0.00396184  1
  Rh  Rh242  1  0.79535100  0.40011171  -0.00147471  1
  Rh  Rh243  1  -0.00266177  0.59688406  0.40011803  1
  Rh  Rh244  1  0.40186269  0.80326986  0.59911216  1
  Rh  Rh245  1  0.18723595  0.39472621  0.60183116  1
  Rh  Rh246  1  0.20837192  0.00728720  0.61702748  1
  Rh  Rh247  1  0.39949275  0.60753330  0.40038589  1
  Rh  Rh248  1  0.80067033  0.18983927  0.80343758  1
  Rh  Rh249  1  0.00877326  0.80347082  0.59846698  1
