# generated using pymatgen
data_ZrScNbPdRh
_symmetry_space_group_name_H-M   'P 1'
_cell_length_a   16.56020679
_cell_length_b   16.56047664
_cell_length_c   16.56234807
_cell_angle_alpha   90.01496448
_cell_angle_beta   89.98217470
_cell_angle_gamma   89.99387436
_symmetry_Int_Tables_number   1
_chemical_formula_structural   ZrScNbPdRh
_chemical_formula_sum   'Zr50 Sc50 Nb50 Pd50 Rh50'
_cell_volume   4542.13938254
_cell_formula_units_Z   50
loop_
 _symmetry_equiv_pos_site_id
 _symmetry_equiv_pos_as_xyz
  1  'x, y, z'
loop_
 _atom_site_type_symbol
 _atom_site_label
 _atom_site_symmetry_multiplicity
 _atom_site_fract_x
 _atom_site_fract_y
 _atom_site_fract_z
 _atom_site_occupancy
  Zr  Zr0  1  0.90069616  0.70303179  0.29516354  1
  Zr  Zr1  1  0.29747253  0.90276030  0.10832492  1
  Zr  Zr2  1  0.50318621  0.70981351  0.90057688  1
  Zr  Zr3  1  0.90756925  0.89821369  0.89452685  1
  Zr  Zr4  1  0.69633941  0.70742065  0.09229429  1
  Zr  Zr5  1  0.50198271  0.49960350  0.09483922  1
  Zr  Zr6  1  0.89807233  0.89601407  0.69885686  1
  Zr  Zr7  1  0.49848794  0.69624895  0.30211094  1
  Zr  Zr8  1  0.49376702  0.28963408  0.89851975  1
  Zr  Zr9  1  0.70032837  0.50849040  0.90644829  1
  Zr  Zr10  1  0.50315466  0.89992433  0.50525723  1
  Zr  Zr11  1  0.70097140  0.29590429  0.89918884  1
  Zr  Zr12  1  0.10439121  0.09442975  0.49771144  1
  Zr  Zr13  1  0.70009897  0.29289337  0.10826165  1
  Zr  Zr14  1  0.29989847  0.09877582  0.50606990  1
  Zr  Zr15  1  0.31164939  0.89802396  0.70046676  1
  Zr  Zr16  1  0.30071114  0.70000043  0.50462454  1
  Zr  Zr17  1  0.09461112  0.69437223  0.69910009  1
  Zr  Zr18  1  0.88932288  0.90101945  0.50757558  1
  Zr  Zr19  1  0.69456585  0.09590331  0.90217976  1
  Zr  Zr20  1  0.70263416  0.09890723  0.69925265  1
  Zr  Zr21  1  0.29960170  0.49704378  0.30993693  1
  Zr  Zr22  1  0.30710989  0.89707532  0.90433544  1
  Zr  Zr23  1  0.08695898  0.09520494  0.30445337  1
  Zr  Zr24  1  0.29581799  0.50023530  0.08430117  1
  Zr  Zr25  1  0.48872523  0.30092220  0.70304087  1
  Zr  Zr26  1  0.90377633  0.10490691  0.48553765  1
  Zr  Zr27  1  0.10297473  0.49708730  0.31018907  1
  Zr  Zr28  1  0.29374786  0.50359279  0.50346089  1
  Zr  Zr29  1  0.10980934  0.69567814  0.50109221  1
  Zr  Zr30  1  0.68219258  0.49230637  0.30452499  1
  Zr  Zr31  1  0.29438815  0.90165131  0.50066424  1
  Zr  Zr32  1  0.30189147  0.29863653  0.50443806  1
  Zr  Zr33  1  0.70360539  0.70144302  0.90103831  1
  Zr  Zr34  1  0.09710312  0.70436885  0.30374445  1
  Zr  Zr35  1  0.89839631  0.49387668  0.29919885  1
  Zr  Zr36  1  0.50048308  0.69570104  0.50445760  1
  Zr  Zr37  1  0.49549857  0.70390401  0.09748543  1
  Zr  Zr38  1  0.30359650  0.69315572  0.69302688  1
  Zr  Zr39  1  0.69418316  0.89815860  0.90158717  1
  Zr  Zr40  1  0.69909370  0.69689585  0.29016020  1
  Zr  Zr41  1  0.10191093  0.89930153  0.49109064  1
  Zr  Zr42  1  0.11111378  0.90043010  0.29467504  1
  Zr  Zr43  1  0.09822424  0.30674620  0.50105245  1
  Zr  Zr44  1  0.31021978  0.49592456  0.70398732  1
  Zr  Zr45  1  0.10397907  0.89434618  0.09963135  1
  Zr  Zr46  1  0.09687038  0.29744582  0.89487092  1
  Zr  Zr47  1  0.69555606  0.10146393  0.09923811  1
  Zr  Zr48  1  0.30766936  0.10800886  0.10628341  1
  Zr  Zr49  1  0.91221295  0.90029265  0.29311245  1
  Sc  Sc50  1  0.10634914  0.09880249  0.10445552  1
  Sc  Sc51  1  0.89575891  0.09556661  0.89977251  1
  Sc  Sc52  1  0.49724363  0.10280639  0.70572264  1
  Sc  Sc53  1  0.70285113  0.30218366  0.49962906  1
  Sc  Sc54  1  0.89744254  0.30228334  0.49149354  1
  Sc  Sc55  1  0.09813497  0.09488538  0.89884747  1
  Sc  Sc56  1  0.09275064  0.90062933  0.71157061  1
  Sc  Sc57  1  0.70872074  0.51193567  0.69256667  1
  Sc  Sc58  1  0.10187252  0.70098350  0.08816291  1
  Sc  Sc59  1  0.90125085  0.49287225  0.50537443  1
  Sc  Sc60  1  0.89613548  0.69716321  0.70452717  1
  Sc  Sc61  1  0.50340666  0.30582981  0.29996138  1
  Sc  Sc62  1  0.89420512  0.09459878  0.70218367  1
  Sc  Sc63  1  0.90687288  0.51038151  0.90264069  1
  Sc  Sc64  1  0.69435318  0.69748184  0.51324434  1
  Sc  Sc65  1  0.10070906  0.30404140  0.70438663  1
  Sc  Sc66  1  0.49318431  0.90612069  0.11032243  1
  Sc  Sc67  1  0.50222403  0.50526335  0.48565703  1
  Sc  Sc68  1  0.29999640  0.09719730  0.90093085  1
  Sc  Sc69  1  0.29744859  0.71165514  0.09460950  1
  Sc  Sc70  1  0.49639271  0.70421704  0.69470101  1
  Sc  Sc71  1  0.09511897  0.90142124  0.90638944  1
  Sc  Sc72  1  0.10135407  0.49696854  0.50093800  1
  Sc  Sc73  1  0.70053940  0.50747890  0.10665621  1
  Sc  Sc74  1  0.89928504  0.29205342  0.29740712  1
  Sc  Sc75  1  0.31013268  0.70088103  0.90867696  1
  Sc  Sc76  1  0.70549724  0.10278942  0.50147175  1
  Sc  Sc77  1  0.90396077  0.29977852  0.89364100  1
  Sc  Sc78  1  0.30035174  0.30004389  0.70295778  1
  Sc  Sc79  1  0.90843669  0.70324820  0.50490752  1
  Sc  Sc80  1  0.30181183  0.29527934  0.29814727  1
  Sc  Sc81  1  0.10688803  0.09955657  0.70709576  1
  Sc  Sc82  1  0.49593870  0.29559525  0.50072657  1
  Sc  Sc83  1  0.10930579  0.30137063  0.10306671  1
  Sc  Sc84  1  0.09572244  0.50202761  0.90331630  1
  Sc  Sc85  1  0.09981540  0.30319612  0.30176749  1
  Sc  Sc86  1  0.09910074  0.49430714  0.08980515  1
  Sc  Sc87  1  0.09629960  0.49232270  0.69757345  1
  Sc  Sc88  1  0.30143070  0.30036282  0.89938126  1
  Sc  Sc89  1  0.69571514  0.50187201  0.49944025  1
  Sc  Sc90  1  0.89773745  0.70361258  0.09861498  1
  Sc  Sc91  1  0.68440403  0.91080220  0.29094005  1
  Sc  Sc92  1  0.48618048  0.50825830  0.90026026  1
  Sc  Sc93  1  0.90607030  0.89601199  0.09376255  1
  Sc  Sc94  1  0.70818614  0.88827387  0.69743227  1
  Sc  Sc95  1  0.29560493  0.70522768  0.30103427  1
  Sc  Sc96  1  0.50745555  0.09275626  0.28674455  1
  Sc  Sc97  1  0.70049839  0.29234703  0.69859061  1
  Sc  Sc98  1  0.49998349  0.10158880  0.50116822  1
  Sc  Sc99  1  0.90600902  0.30659971  0.69887602  1
  Nb  Nb100  1  0.91212657  0.69512563  0.89826062  1
  Nb  Nb101  1  0.89952406  0.10083425  0.29753503  1
  Nb  Nb102  1  0.49699180  0.90208769  0.88457001  1
  Nb  Nb103  1  0.69900678  0.10149084  0.29609884  1
  Nb  Nb104  1  0.49866489  0.11147959  0.09762483  1
  Nb  Nb105  1  0.69679995  0.29602806  0.30312984  1
  Nb  Nb106  1  0.69597469  0.69646720  0.70264810  1
  Nb  Nb107  1  0.49853819  0.50177715  0.70402771  1
  Nb  Nb108  1  0.50071728  0.09371850  0.90304676  1
  Nb  Nb109  1  0.90528655  0.49298689  0.10176315  1
  Nb  Nb110  1  0.29902587  0.10141753  0.69745542  1
  Nb  Nb111  1  0.50430828  0.89459244  0.70529899  1
  Nb  Nb112  1  0.30957130  0.29653584  0.09976098  1
  Nb  Nb113  1  0.89993986  0.29999312  0.10394004  1
  Nb  Nb114  1  0.29927262  0.09768463  0.29904010  1
  Nb  Nb115  1  0.70385958  0.90500668  0.09587451  1
  Nb  Nb116  1  0.69893426  0.90297741  0.49864862  1
  Nb  Nb117  1  0.49519238  0.50301303  0.29735946  1
  Nb  Nb118  1  0.90017481  0.49924716  0.70737525  1
  Nb  Nb119  1  0.09738350  0.69792825  0.89902439  1
  Nb  Nb120  1  0.49093130  0.29188416  0.09763237  1
  Nb  Nb121  1  0.89817194  0.11530279  0.11121878  1
  Nb  Nb122  1  0.29873701  0.50869964  0.89720536  1
  Nb  Nb123  1  0.30433493  0.90167995  0.29449093  1
  Nb  Nb124  1  0.49609527  0.90165586  0.30211336  1
  Nb  Nb125  1  0.39888948  0.40131776  0.19225479  1
  Nb  Nb126  1  0.20040244  0.79202171  0.80429849  1
  Nb  Nb127  1  0.80134758  0.00630328  0.19808728  1
  Nb  Nb128  1  0.39922311  -0.00260902  0.39369459  1
  Nb  Nb129  1  0.60568258  0.19698920  0.39315334  1
  Nb  Nb130  1  0.40299168  0.80690747  0.39865887  1
  Nb  Nb131  1  0.60315262  -0.00469084  0.60350371  1
  Nb  Nb132  1  0.20196638  0.60275063  0.80395189  1
  Nb  Nb133  1  -0.00420194  0.20182838  0.00828897  1
  Nb  Nb134  1  0.00305041  0.19531187  0.59651395  1
  Nb  Nb135  1  0.59973779  0.60091869  0.79673265  1
  Nb  Nb136  1  0.00323422  0.59398249  0.19792691  1
  Nb  Nb137  1  0.19817079  0.59624865  0.19887040  1
  Nb  Nb138  1  -0.00060740  0.00360634  0.59618766  1
  Nb  Nb139  1  0.20173513  0.19349560  0.40221551  1
  Nb  Nb140  1  0.80193267  0.39895744  0.00393314  1
  Nb  Nb141  1  0.39398974  0.59301821  0.19995891  1
  Nb  Nb142  1  0.79096280  0.80292544  0.39717191  1
  Nb  Nb143  1  0.79878270  0.60488539  0.39591011  1
  Nb  Nb144  1  0.79717350  -0.00064714  0.38978455  1
  Nb  Nb145  1  0.59985004  0.40620107  0.80009270  1
  Nb  Nb146  1  0.79568884  0.40813107  0.80425358  1
  Nb  Nb147  1  0.60097910  0.39499165  -0.00240525  1
  Nb  Nb148  1  0.59469802  0.40422012  0.60929172  1
  Nb  Nb149  1  0.60073573  0.80408002  0.40026307  1
  Pd  Pd150  1  0.00562213  0.39869805  0.20251876  1
  Pd  Pd151  1  0.19543157  0.19843543  0.20938572  1
  Pd  Pd152  1  -0.00783438  0.59520004  0.40049965  1
  Pd  Pd153  1  0.59696502  0.20067878  0.79767584  1
  Pd  Pd154  1  0.19423540  0.20698398  0.60106233  1
  Pd  Pd155  1  0.20357695  -0.00981651  0.80122346  1
  Pd  Pd156  1  0.19210553  -0.00858573  0.61407814  1
  Pd  Pd157  1  0.59845034  0.20105465  0.59357326  1
  Pd  Pd158  1  0.80749912  0.20511037  0.79678109  1
  Pd  Pd159  1  0.20529618  0.19795822  0.80287335  1
  Pd  Pd160  1  0.40930771  0.00311495  0.60106119  1
  Pd  Pd161  1  0.79515072  0.39898529  0.19977110  1
  Pd  Pd162  1  0.40263244  0.39790053  -0.00447271  1
  Pd  Pd163  1  0.59818606  0.20249675  -0.00062229  1
  Pd  Pd164  1  0.40762968  0.40689734  0.59088126  1
  Pd  Pd165  1  0.80301966  0.79495846  0.80452443  1
  Pd  Pd166  1  -0.00554654  0.80412766  0.40463842  1
  Pd  Pd167  1  -0.00356656  0.59184242  0.60067912  1
  Pd  Pd168  1  0.58797409  -0.00546014  0.00488616  1
  Pd  Pd169  1  -0.00342538  0.00213261  0.18697616  1
  Pd  Pd170  1  0.80858160  0.60392242  0.59294271  1
  Pd  Pd171  1  0.79422308  0.39699257  0.60753324  1
  Pd  Pd172  1  0.60517944  -0.00328880  0.79147959  1
  Pd  Pd173  1  0.20292140  0.00181888  0.00177979  1
  Pd  Pd174  1  0.58992786  0.81699642  0.00454094  1
  Pd  Pd175  1  0.80766532  0.20375433  -0.00382727  1
  Pd  Pd176  1  0.59227773  0.39336696  0.19174107  1
  Pd  Pd177  1  0.19550845  0.20077426  -0.00318226  1
  Pd  Pd178  1  0.79420854  -0.00702901  0.80207541  1
  Pd  Pd179  1  0.40495393  0.00051777  0.00389959  1
  Pd  Pd180  1  0.20128037  0.39248611  -0.00914276  1
  Pd  Pd181  1  0.79553847  0.40571594  0.39887257  1
  Pd  Pd182  1  0.20805813  0.40380686  0.19821622  1
  Pd  Pd183  1  0.39783671  0.00718769  0.79784525  1
  Pd  Pd184  1  0.81174830  0.20452730  0.60012858  1
  Pd  Pd185  1  0.80878718  0.00140797  0.00688268  1
  Pd  Pd186  1  0.20035000  0.40805299  0.80476383  1
  Pd  Pd187  1  0.59384012  0.60215032  0.19419409  1
  Pd  Pd188  1  0.59749661  0.80534169  0.19974200  1
  Pd  Pd189  1  0.79344672  0.81466804  0.20199027  1
  Pd  Pd190  1  0.40552628  0.18987371  0.39045033  1
  Pd  Pd191  1  -0.00345677  0.19139294  0.79624320  1
  Pd  Pd192  1  0.40381630  0.39651916  0.39849251  1
  Pd  Pd193  1  0.80645880  0.59507104  0.19882902  1
  Pd  Pd194  1  0.00671258  0.80609563  0.60071113  1
  Pd  Pd195  1  -0.00384792  0.01172577  0.00767657  1
  Pd  Pd196  1  0.80989823  0.59774322  0.00780726  1
  Pd  Pd197  1  -0.00475823  0.39091976  -0.00398164  1
  Pd  Pd198  1  0.80802646  0.80153540  -0.00659627  1
  Pd  Pd199  1  0.19316459  0.80783201  0.61213609  1
  Rh  Rh200  1  0.00659313  0.59586011  0.79785334  1
  Rh  Rh201  1  -0.00322102  0.39537993  0.60015003  1
  Rh  Rh202  1  0.39672781  0.19077692  -0.00790548  1
  Rh  Rh203  1  0.59324456  0.59215583  0.60836154  1
  Rh  Rh204  1  0.39979909  0.00865546  0.20123562  1
  Rh  Rh205  1  0.40639013  0.20355360  0.20754336  1
  Rh  Rh206  1  0.20332493  0.40099526  0.60490533  1
  Rh  Rh207  1  0.40146612  0.80197004  0.59703470  1
  Rh  Rh208  1  0.60420611  0.80584530  0.60245053  1
  Rh  Rh209  1  -0.00217254  0.60412409  0.00926358  1
  Rh  Rh210  1  0.79757883  0.19973387  0.20826757  1
  Rh  Rh211  1  0.79880121  0.00690292  0.59524965  1
  Rh  Rh212  1  -0.00157106  0.79546169  -0.00313379  1
  Rh  Rh213  1  -0.00568893  0.40731941  0.80392796  1
  Rh  Rh214  1  0.40194753  0.39950673  0.80957663  1
  Rh  Rh215  1  0.40734322  0.81301006  0.00261147  1
  Rh  Rh216  1  -0.00323445  0.00370272  0.79442430  1
  Rh  Rh217  1  0.61101777  0.60942197  0.39952157  1
  Rh  Rh218  1  -0.00966168  -0.01102474  0.40494279  1
  Rh  Rh219  1  0.39889727  0.60626322  0.00530883  1
  Rh  Rh220  1  0.20594973  0.38665910  0.40412240  1
  Rh  Rh221  1  0.19681237  0.58911429  0.60993905  1
  Rh  Rh222  1  0.79209589  0.19624606  0.39369282  1
  Rh  Rh223  1  0.39790701  0.19523365  0.60801150  1
  Rh  Rh224  1  0.00808066  0.20612944  0.19640419  1
  Rh  Rh225  1  0.39186732  0.60754120  0.39645737  1
  Rh  Rh226  1  0.39279085  0.19078250  0.80174738  1
  Rh  Rh227  1  0.79499950  0.78890160  0.59657950  1
  Rh  Rh228  1  0.59903066  0.00445839  0.40939387  1
  Rh  Rh229  1  0.00962159  0.78983039  0.19098982  1
  Rh  Rh230  1  0.39865959  0.79135825  0.20582865  1
  Rh  Rh231  1  0.59319952  0.20410390  0.20487114  1
  Rh  Rh232  1  0.19941856  0.60371903  -0.00405681  1
  Rh  Rh233  1  0.59536072  0.38857906  0.41161396  1
  Rh  Rh234  1  0.60174271  0.79460152  0.79479336  1
  Rh  Rh235  1  0.60152108  0.00045206  0.18645322  1
  Rh  Rh236  1  0.40054246  0.60924542  0.80173715  1
  Rh  Rh237  1  0.20120371  0.00535222  0.20128651  1
  Rh  Rh238  1  0.19936609  0.80376911  -0.00989734  1
  Rh  Rh239  1  0.00859201  0.20867388  0.40158463  1
  Rh  Rh240  1  0.20869010  0.00387773  0.39043877  1
  Rh  Rh241  1  0.20192481  0.60465001  0.39755540  1
  Rh  Rh242  1  0.40577517  0.59102076  0.59428031  1
  Rh  Rh243  1  0.79862050  0.60093913  0.79975535  1
  Rh  Rh244  1  0.19823829  0.79236825  0.19873422  1
  Rh  Rh245  1  0.20771370  0.79969952  0.39766203  1
  Rh  Rh246  1  0.59373251  0.59891413  -0.00459664  1
  Rh  Rh247  1  -0.00471408  0.39844506  0.39869572  1
  Rh  Rh248  1  0.00298966  0.79539286  0.80255309  1
  Rh  Rh249  1  0.39650748  0.79485478  0.79828938  1
