# generated using pymatgen
data_ZrScNbPdRh
_symmetry_space_group_name_H-M   'P 1'
_cell_length_a   16.55586643
_cell_length_b   16.55143305
_cell_length_c   16.55529949
_cell_angle_alpha   90.04845919
_cell_angle_beta   90.03228765
_cell_angle_gamma   90.01327227
_symmetry_Int_Tables_number   1
_chemical_formula_structural   ZrScNbPdRh
_chemical_formula_sum   'Zr50 Sc50 Nb50 Pd50 Rh50'
_cell_volume   4536.53558152
_cell_formula_units_Z   50
loop_
 _symmetry_equiv_pos_site_id
 _symmetry_equiv_pos_as_xyz
  1  'x, y, z'
loop_
 _atom_site_type_symbol
 _atom_site_label
 _atom_site_symmetry_multiplicity
 _atom_site_fract_x
 _atom_site_fract_y
 _atom_site_fract_z
 _atom_site_occupancy
  Zr  Zr0  1  0.50311958  0.50182298  0.50792586  1
  Zr  Zr1  1  0.09404805  0.10274026  0.50493942  1
  Zr  Zr2  1  0.30203470  0.69685711  0.50612012  1
  Zr  Zr3  1  0.49777966  0.69654050  0.69308942  1
  Zr  Zr4  1  0.29732872  0.90945532  0.29302450  1
  Zr  Zr5  1  0.49438355  0.30664323  0.70666957  1
  Zr  Zr6  1  0.89181866  0.70376634  0.29536697  1
  Zr  Zr7  1  0.30763674  0.30856238  0.30177505  1
  Zr  Zr8  1  0.70164747  0.29365830  0.09128439  1
  Zr  Zr9  1  0.69040068  0.69993400  0.49179757  1
  Zr  Zr10  1  0.69921331  0.30680948  0.50118111  1
  Zr  Zr11  1  0.89499466  0.09442227  0.69391855  1
  Zr  Zr12  1  0.10250148  0.50421027  0.29723308  1
  Zr  Zr13  1  0.88906264  0.89756545  0.88580752  1
  Zr  Zr14  1  0.89169611  0.10167615  0.89872679  1
  Zr  Zr15  1  0.10181208  0.50452036  0.89865953  1
  Zr  Zr16  1  0.90287497  0.49862396  0.89725126  1
  Zr  Zr17  1  0.29679515  0.09591634  0.10650333  1
  Zr  Zr18  1  0.10624009  0.69972005  0.89950471  1
  Zr  Zr19  1  0.69195234  0.90209025  0.90281979  1
  Zr  Zr20  1  0.70312988  0.30276969  0.90019363  1
  Zr  Zr21  1  0.90364318  0.70584717  0.70815443  1
  Zr  Zr22  1  0.70564143  0.50261818  0.30940336  1
  Zr  Zr23  1  0.29759248  0.09802283  0.71205937  1
  Zr  Zr24  1  0.29123092  0.69468600  0.29974308  1
  Zr  Zr25  1  0.89708563  0.29853930  0.89491323  1
  Zr  Zr26  1  0.89692894  0.49929005  0.49084487  1
  Zr  Zr27  1  0.69487589  0.30491420  0.30007707  1
  Zr  Zr28  1  0.89108913  0.09643170  0.50413851  1
  Zr  Zr29  1  0.29073090  0.30373556  0.09783160  1
  Zr  Zr30  1  0.51352198  0.09658685  0.50449608  1
  Zr  Zr31  1  0.30355887  0.89659647  0.10022342  1
  Zr  Zr32  1  0.50145026  0.69949554  0.50570625  1
  Zr  Zr33  1  0.10389493  0.30522237  0.29126678  1
  Zr  Zr34  1  0.49491227  0.09809913  0.89820680  1
  Zr  Zr35  1  0.30343248  0.49549765  0.70148196  1
  Zr  Zr36  1  0.49817334  0.90148761  0.29048503  1
  Zr  Zr37  1  0.09776228  0.69693394  0.70427859  1
  Zr  Zr38  1  0.10243341  0.09511908  0.90146141  1
  Zr  Zr39  1  0.29842229  0.50817326  0.89834303  1
  Zr  Zr40  1  0.10046638  0.70105271  0.09305293  1
  Zr  Zr41  1  0.70518352  0.88626300  0.29710082  1
  Zr  Zr42  1  0.50217535  0.10089587  0.30377726  1
  Zr  Zr43  1  0.50281896  0.49295881  0.90575508  1
  Zr  Zr44  1  0.70162744  0.10568193  0.91513301  1
  Zr  Zr45  1  0.30051524  0.30630440  0.69720628  1
  Zr  Zr46  1  0.09496093  0.49950428  0.49504563  1
  Zr  Zr47  1  0.09836537  0.49326313  0.09977626  1
  Zr  Zr48  1  0.09999056  0.09565757  0.70117307  1
  Zr  Zr49  1  0.50852943  0.70635838  0.29950085  1
  Sc  Sc50  1  0.10619692  0.29811290  0.69627953  1
  Sc  Sc51  1  0.68617360  0.70143194  0.70276481  1
  Sc  Sc52  1  0.89250601  0.29831133  0.70225969  1
  Sc  Sc53  1  0.90338564  0.29569915  0.29232057  1
  Sc  Sc54  1  0.10149698  0.70924641  0.49171527  1
  Sc  Sc55  1  0.10173905  0.49533645  0.70930463  1
  Sc  Sc56  1  0.10645288  0.89376943  0.90262354  1
  Sc  Sc57  1  0.69002006  0.49311978  0.69927554  1
  Sc  Sc58  1  0.90975301  0.70049249  0.49677668  1
  Sc  Sc59  1  0.70148110  0.70198617  0.09832159  1
  Sc  Sc60  1  0.50242584  0.88541454  0.10010716  1
  Sc  Sc61  1  0.89562299  0.69353876  0.10076857  1
  Sc  Sc62  1  0.28826059  0.89075652  0.49739131  1
  Sc  Sc63  1  0.89834645  0.89512595  0.29778672  1
  Sc  Sc64  1  0.69411915  0.70138686  0.90045581  1
  Sc  Sc65  1  0.10096612  0.30268159  0.91184719  1
  Sc  Sc66  1  0.49731145  0.48287141  0.29477285  1
  Sc  Sc67  1  0.29533168  0.30356774  0.49842985  1
  Sc  Sc68  1  0.89967017  0.90376683  0.10853030  1
  Sc  Sc69  1  0.29926981  0.10396717  0.29564771  1
  Sc  Sc70  1  0.50123666  0.31682724  0.09210094  1
  Sc  Sc71  1  0.49952528  0.30140963  0.48975863  1
  Sc  Sc72  1  0.50431636  0.90188497  0.70530787  1
  Sc  Sc73  1  0.49818076  0.70247262  0.90160070  1
  Sc  Sc74  1  0.50199775  0.09322349  0.70313663  1
  Sc  Sc75  1  0.69824982  0.10001350  0.69065854  1
  Sc  Sc76  1  0.90446598  0.70131134  0.90212692  1
  Sc  Sc77  1  0.29070541  0.11041077  0.48885047  1
  Sc  Sc78  1  0.89801274  0.10157048  0.10692806  1
  Sc  Sc79  1  0.11265164  0.09979933  0.29430224  1
  Sc  Sc80  1  0.70120030  0.50915321  0.09389414  1
  Sc  Sc81  1  0.90961897  0.49682523  0.70586445  1
  Sc  Sc82  1  0.30462877  0.50091425  0.10017379  1
  Sc  Sc83  1  0.90126834  0.89908297  0.50230031  1
  Sc  Sc84  1  0.29421209  0.09979648  0.90079993  1
  Sc  Sc85  1  0.29824232  0.89570302  0.71138316  1
  Sc  Sc86  1  0.30595037  0.30205729  0.90441146  1
  Sc  Sc87  1  0.70511964  0.30021301  0.70080175  1
  Sc  Sc88  1  0.50221949  0.10250202  0.09366471  1
  Sc  Sc89  1  0.30683311  0.69633502  0.09211520  1
  Sc  Sc90  1  0.30571357  0.69752654  0.70717144  1
  Sc  Sc91  1  0.69850377  0.89971197  0.49790271  1
  Sc  Sc92  1  0.09670863  0.89345951  0.69993421  1
  Sc  Sc93  1  0.49215083  0.50310643  0.70457915  1
  Sc  Sc94  1  0.69838841  0.89762725  0.71058410  1
  Sc  Sc95  1  0.10293803  0.10605730  0.09747942  1
  Sc  Sc96  1  0.89325074  0.29639855  0.50230208  1
  Sc  Sc97  1  0.09630657  0.90744169  0.09864887  1
  Sc  Sc98  1  0.50993502  0.89526868  0.50684515  1
  Sc  Sc99  1  0.30168859  0.49052913  0.50082870  1
  Nb  Nb100  1  0.91085093  0.30568890  0.10095430  1
  Nb  Nb101  1  0.70238206  0.90375671  0.09969882  1
  Nb  Nb102  1  0.70256671  0.09830792  0.10270931  1
  Nb  Nb103  1  0.89733274  0.50351579  0.10156001  1
  Nb  Nb104  1  0.09814877  0.70729595  0.29930150  1
  Nb  Nb105  1  0.09786817  0.90185921  0.49289481  1
  Nb  Nb106  1  0.70912695  0.09771696  0.30077316  1
  Nb  Nb107  1  0.90031309  0.50519583  0.29094844  1
  Nb  Nb108  1  0.49833434  0.90023755  0.90054806  1
  Nb  Nb109  1  0.89622719  0.89788524  0.70254708  1
  Nb  Nb110  1  0.09885704  0.30287685  0.10458091  1
  Nb  Nb111  1  0.09986021  0.89443679  0.30576683  1
  Nb  Nb112  1  0.69902087  0.10071353  0.49553087  1
  Nb  Nb113  1  0.30207465  0.49951439  0.29911399  1
  Nb  Nb114  1  0.89598642  0.09772885  0.30590384  1
  Nb  Nb115  1  0.69971481  0.70119096  0.29735305  1
  Nb  Nb116  1  0.50215185  0.30051911  0.29391258  1
  Nb  Nb117  1  0.30463856  0.89091544  0.90160105  1
  Nb  Nb118  1  0.50428023  0.69629780  0.10140903  1
  Nb  Nb119  1  0.50424374  0.29854812  0.90735960  1
  Nb  Nb120  1  0.09817375  0.29871254  0.49592611  1
  Nb  Nb121  1  0.70687379  0.50088093  0.90114614  1
  Nb  Nb122  1  0.49979088  0.50670522  0.09920309  1
  Nb  Nb123  1  0.29414086  0.70764300  0.90120009  1
  Nb  Nb124  1  0.70151239  0.50077273  0.50120675  1
  Nb  Nb125  1  0.40813076  0.20881128  0.20020472  1
  Nb  Nb126  1  0.39071035  0.00435004  0.59452858  1
  Nb  Nb127  1  -0.00486825  -0.00044839  0.79699394  1
  Nb  Nb128  1  0.40072988  -0.00387898  0.40620409  1
  Nb  Nb129  1  0.39969941  -0.00872148  -0.00470748  1
  Nb  Nb130  1  0.19737007  0.59741160  0.60127837  1
  Nb  Nb131  1  0.79673464  0.59851566  0.79699224  1
  Nb  Nb132  1  0.79691148  0.60126645  0.60065610  1
  Nb  Nb133  1  0.39972919  0.79901203  0.39777312  1
  Nb  Nb134  1  0.59772577  0.20346236  0.80827185  1
  Nb  Nb135  1  -0.00016095  0.19304915  0.80056799  1
  Nb  Nb136  1  0.19390655  0.79913873  0.20287339  1
  Nb  Nb137  1  0.00010925  0.19441077  0.39828027  1
  Nb  Nb138  1  0.39972892  0.59930041  0.39576748  1
  Nb  Nb139  1  0.00304980  0.39766854  0.59280893  1
  Nb  Nb140  1  0.40022601  0.19470156  0.60059201  1
  Nb  Nb141  1  0.79614878  0.80667231  -0.00062741  1
  Nb  Nb142  1  0.00193566  0.00307470  0.39725450  1
  Nb  Nb143  1  0.80772435  0.40263171  0.00363607  1
  Nb  Nb144  1  0.59748238  0.60108824  0.20063359  1
  Nb  Nb145  1  0.61151556  0.00483545  0.19837291  1
  Nb  Nb146  1  0.19871920  -0.00067807  0.59874344  1
  Nb  Nb147  1  0.80062942  0.79354279  0.60533016  1
  Nb  Nb148  1  0.60304068  0.19837501  0.20122034  1
  Nb  Nb149  1  0.80655148  0.40441189  0.19313143  1
  Pd  Pd150  1  0.59503481  0.39599085  0.60128044  1
  Pd  Pd151  1  0.19455581  0.21002143  0.80835153  1
  Pd  Pd152  1  0.40180643  0.19664662  0.40168608  1
  Pd  Pd153  1  -0.00827864  0.39121213  0.39644333  1
  Pd  Pd154  1  0.60013448  0.59709001  0.80182803  1
  Pd  Pd155  1  0.60098473  0.60305862  0.00150807  1
  Pd  Pd156  1  0.19965186  0.39268722  0.80908937  1
  Pd  Pd157  1  0.40157079  0.60275282  -0.00655029  1
  Pd  Pd158  1  0.80361031  -0.01060733  0.39901135  1
  Pd  Pd159  1  -0.00546993  0.21006267  0.60300665  1
  Pd  Pd160  1  0.80342898  0.60963034  0.40473397  1
  Pd  Pd161  1  0.39712713  0.81393142  0.59899988  1
  Pd  Pd162  1  0.60629072  0.20255069  0.39717750  1
  Pd  Pd163  1  0.00063593  0.59240742  0.60242690  1
  Pd  Pd164  1  -0.00131954  0.19847138  -0.00113488  1
  Pd  Pd165  1  -0.00289475  0.80319670  0.59769935  1
  Pd  Pd166  1  0.60118260  -0.00830082  0.39327642  1
  Pd  Pd167  1  0.80951325  0.39237771  0.39049490  1
  Pd  Pd168  1  0.40692966  0.79698664  0.79900020  1
  Pd  Pd169  1  0.40734651  0.59898593  0.20643303  1
  Pd  Pd170  1  0.00230198  0.79902042  0.19484856  1
  Pd  Pd171  1  0.39706600  0.19619820  0.00779548  1
  Pd  Pd172  1  0.59076739  -0.00467394  0.00892887  1
  Pd  Pd173  1  0.78851585  -0.01215178  0.60136449  1
  Pd  Pd174  1  0.20800198  0.19732165  0.60048222  1
  Pd  Pd175  1  -0.00815118  -0.00530157  -0.00763366  1
  Pd  Pd176  1  0.80865628  -0.00462720  0.00522737  1
  Pd  Pd177  1  0.60090439  0.39718824  0.80326786  1
  Pd  Pd178  1  0.20103996  0.39981037  0.39934213  1
  Pd  Pd179  1  -0.01019375  0.80836572  0.00102650  1
  Pd  Pd180  1  0.39137297  0.78889426  0.20250040  1
  Pd  Pd181  1  0.19745795  0.79797673  0.60628342  1
  Pd  Pd182  1  0.20698909  -0.00509133  -0.00127229  1
  Pd  Pd183  1  -0.00117250  0.60686593  0.39068959  1
  Pd  Pd184  1  -0.00107948  0.60024244  -0.00030201  1
  Pd  Pd185  1  0.80097304  0.20587942  0.40026672  1
  Pd  Pd186  1  0.60748570  0.01016311  0.80115091  1
  Pd  Pd187  1  0.80797882  0.40945429  0.60728002  1
  Pd  Pd188  1  0.20366762  0.59699350  0.40846501  1
  Pd  Pd189  1  0.59639791  0.20842536  0.60855333  1
  Pd  Pd190  1  0.19849427  0.60219013  0.19050487  1
  Pd  Pd191  1  0.20004670  0.00188334  0.40379172  1
  Pd  Pd192  1  -0.00198109  0.40204603  -0.00202665  1
  Pd  Pd193  1  0.00251703  0.60442610  0.20072260  1
  Pd  Pd194  1  0.00384547  0.00688737  0.20921527  1
  Pd  Pd195  1  0.58893500  0.58933573  0.39143944  1
  Pd  Pd196  1  0.79873449  0.20542685  0.19859710  1
  Pd  Pd197  1  0.40322053  0.20262394  0.79859441  1
  Pd  Pd198  1  0.61026747  0.40516794  0.18988598  1
  Pd  Pd199  1  0.00362744  0.19096718  0.20497979  1
  Rh  Rh200  1  0.60340025  -0.00477158  0.60148579  1
  Rh  Rh201  1  0.60277070  0.79982716  0.00130577  1
  Rh  Rh202  1  0.18976298  -0.00733640  0.19605620  1
  Rh  Rh203  1  0.41277276  0.01407174  0.19426491  1
  Rh  Rh204  1  0.40480296  0.39112976  0.59484901  1
  Rh  Rh205  1  0.79280700  0.19155305  0.79256377  1
  Rh  Rh206  1  0.19484792  -0.01223266  0.79928218  1
  Rh  Rh207  1  0.60872081  0.40741165  0.00075561  1
  Rh  Rh208  1  0.39780380  0.40621332  -0.00007077  1
  Rh  Rh209  1  0.39494033  -0.00717916  0.80496799  1
  Rh  Rh210  1  0.40391106  0.79872877  -0.00240916  1
  Rh  Rh211  1  0.80301348  0.79599954  0.40978734  1
  Rh  Rh212  1  -0.00287776  0.60309074  0.80493016  1
  Rh  Rh213  1  0.79787656  0.40966432  0.80072866  1
  Rh  Rh214  1  0.18837890  0.40652686  0.59426261  1
  Rh  Rh215  1  0.20452889  0.79923000  0.39247520  1
  Rh  Rh216  1  0.59154416  0.79930928  0.80262859  1
  Rh  Rh217  1  0.19983390  0.40435411  0.00035736  1
  Rh  Rh218  1  0.00617273  0.80649006  0.80567108  1
  Rh  Rh219  1  0.20352937  0.59897491  0.00197412  1
  Rh  Rh220  1  0.00537694  0.38185044  0.79074647  1
  Rh  Rh221  1  0.60734979  0.59590821  0.60323422  1
  Rh  Rh222  1  0.40142090  0.60273251  0.80726474  1
  Rh  Rh223  1  0.39916463  0.40122025  0.81163669  1
  Rh  Rh224  1  0.59668116  0.40434353  0.40447716  1
  Rh  Rh225  1  0.59626421  0.80572329  0.39885834  1
  Rh  Rh226  1  0.79758422  -0.00113619  0.20506500  1
  Rh  Rh227  1  0.19952497  0.79754255  0.79960949  1
  Rh  Rh228  1  0.20717465  0.20659522  0.19985827  1
  Rh  Rh229  1  0.79884559  0.79729511  0.18851001  1
  Rh  Rh230  1  0.40412065  0.40591357  0.40246504  1
  Rh  Rh231  1  0.19169978  0.20988198  0.39162424  1
  Rh  Rh232  1  0.79106433  0.78871799  0.80095214  1
  Rh  Rh233  1  0.39043964  0.59167526  0.59708471  1
  Rh  Rh234  1  0.00700150  -0.01301505  0.59988535  1
  Rh  Rh235  1  0.20523483  0.40631948  0.19886293  1
  Rh  Rh236  1  0.20202091  0.80068756  0.00853679  1
  Rh  Rh237  1  0.60914585  0.79818300  0.19219679  1
  Rh  Rh238  1  -0.00396899  0.40653920  0.20324470  1
  Rh  Rh239  1  0.81355355  0.20537763  0.01152904  1
  Rh  Rh240  1  0.20480430  0.60392776  0.79405079  1
  Rh  Rh241  1  -0.00546277  0.80603475  0.39617997  1
  Rh  Rh242  1  0.39692270  0.39792265  0.19219152  1
  Rh  Rh243  1  0.19934539  0.20194070  0.00207069  1
  Rh  Rh244  1  0.79031601  0.59612264  0.20255184  1
  Rh  Rh245  1  0.60924893  0.80477076  0.60593130  1
  Rh  Rh246  1  0.59515023  0.20021783  0.00088510  1
  Rh  Rh247  1  0.79551133  0.00776983  0.79546128  1
  Rh  Rh248  1  0.80302155  0.60339428  -0.01187636  1
  Rh  Rh249  1  0.79018883  0.19974886  0.59412069  1
