# generated using pymatgen
data_ZrScNbPdRh
_symmetry_space_group_name_H-M   'P 1'
_cell_length_a   16.55631291
_cell_length_b   16.55354120
_cell_length_c   16.55033026
_cell_angle_alpha   90.02654045
_cell_angle_beta   90.01377906
_cell_angle_gamma   89.99080040
_symmetry_Int_Tables_number   1
_chemical_formula_structural   ZrScNbPdRh
_chemical_formula_sum   'Zr50 Sc50 Nb50 Pd50 Rh50'
_cell_volume   4535.87564575
_cell_formula_units_Z   50
loop_
 _symmetry_equiv_pos_site_id
 _symmetry_equiv_pos_as_xyz
  1  'x, y, z'
loop_
 _atom_site_type_symbol
 _atom_site_label
 _atom_site_symmetry_multiplicity
 _atom_site_fract_x
 _atom_site_fract_y
 _atom_site_fract_z
 _atom_site_occupancy
  Zr  Zr0  1  0.69621698  0.90164315  0.29629431  1
  Zr  Zr1  1  0.89842645  0.89943276  0.49330498  1
  Zr  Zr2  1  0.89474540  0.29977750  0.49185102  1
  Zr  Zr3  1  0.10240944  0.10325865  0.30373339  1
  Zr  Zr4  1  0.29421955  0.69950150  0.10546289  1
  Zr  Zr5  1  0.29438081  0.30798322  0.29539772  1
  Zr  Zr6  1  0.30242637  0.10417895  0.69315461  1
  Zr  Zr7  1  0.10560803  0.50313811  0.69476874  1
  Zr  Zr8  1  0.49697759  0.30051258  0.50251449  1
  Zr  Zr9  1  0.70633220  0.69491731  0.10953469  1
  Zr  Zr10  1  0.09868480  0.90676707  0.50467551  1
  Zr  Zr11  1  0.30373115  0.90677313  0.30703640  1
  Zr  Zr12  1  0.09940227  0.29885568  0.30253879  1
  Zr  Zr13  1  0.89875590  0.29663539  0.09674882  1
  Zr  Zr14  1  0.89882936  0.10874416  0.70778664  1
  Zr  Zr15  1  0.50786547  0.69911578  0.49703885  1
  Zr  Zr16  1  0.10257165  0.10239866  0.69408403  1
  Zr  Zr17  1  0.49884320  0.70161246  0.09788874  1
  Zr  Zr18  1  0.68678442  0.69956721  0.69742834  1
  Zr  Zr19  1  0.29990795  0.69517252  0.30822446  1
  Zr  Zr20  1  0.88993106  0.49918008  0.09291578  1
  Zr  Zr21  1  0.70492940  0.49722439  0.70659417  1
  Zr  Zr22  1  0.09732933  0.29612877  0.90499373  1
  Zr  Zr23  1  0.90728355  0.90366879  0.09932467  1
  Zr  Zr24  1  0.49751725  0.49496197  0.10509345  1
  Zr  Zr25  1  0.48823475  0.50152190  0.70698304  1
  Zr  Zr26  1  0.50048250  0.09631979  0.29163134  1
  Zr  Zr27  1  0.69209441  0.49640252  0.28446279  1
  Zr  Zr28  1  0.90103451  0.28692573  0.89694580  1
  Zr  Zr29  1  0.89375282  0.70009924  0.48484403  1
  Zr  Zr30  1  0.10804000  0.69097820  0.28938227  1
  Zr  Zr31  1  0.49522157  0.29927156  0.70019095  1
  Zr  Zr32  1  0.09449311  0.70607114  0.70871271  1
  Zr  Zr33  1  0.90121893  0.10218112  0.30234081  1
  Zr  Zr34  1  0.29621060  0.90170536  0.90247056  1
  Zr  Zr35  1  0.49593593  0.49647310  0.30190858  1
  Zr  Zr36  1  0.70807416  0.09078858  0.90156590  1
  Zr  Zr37  1  0.90409077  0.90093570  0.30617003  1
  Zr  Zr38  1  0.88959169  0.30402012  0.69844342  1
  Zr  Zr39  1  0.89446668  0.49393378  0.89746560  1
  Zr  Zr40  1  0.10090336  0.09595732  0.10132545  1
  Zr  Zr41  1  0.69572658  0.90355758  0.89569403  1
  Zr  Zr42  1  0.51019995  0.10399901  0.90216522  1
  Zr  Zr43  1  0.70219991  0.30104919  0.69620243  1
  Zr  Zr44  1  0.10628694  0.89167094  0.89690423  1
  Zr  Zr45  1  0.29216915  0.69666438  0.69262486  1
  Zr  Zr46  1  0.49464606  0.10361388  0.70060238  1
  Zr  Zr47  1  0.69887314  0.29828286  0.49746958  1
  Zr  Zr48  1  0.89861086  0.49684261  0.49296648  1
  Zr  Zr49  1  0.69026573  0.09471065  0.49488974  1
  Sc  Sc50  1  0.49001911  0.29368031  0.90218916  1
  Sc  Sc51  1  0.49820936  0.69895064  0.89520195  1
  Sc  Sc52  1  0.29382229  0.50224448  0.50491522  1
  Sc  Sc53  1  0.91237663  0.90347586  0.68672305  1
  Sc  Sc54  1  0.69184748  0.69666619  0.89377240  1
  Sc  Sc55  1  0.30915133  0.30717513  0.69099806  1
  Sc  Sc56  1  0.89334380  0.09499678  0.49799012  1
  Sc  Sc57  1  0.69156977  0.10321913  0.10076167  1
  Sc  Sc58  1  0.48969937  0.50407788  0.90179000  1
  Sc  Sc59  1  0.10948667  0.30139280  0.09905197  1
  Sc  Sc60  1  0.11083827  0.29936253  0.68940913  1
  Sc  Sc61  1  0.49757066  0.28951483  0.10043362  1
  Sc  Sc62  1  0.10401039  0.49590212  0.30355562  1
  Sc  Sc63  1  0.49974754  0.69543637  0.70122697  1
  Sc  Sc64  1  0.51349530  0.90247936  0.10627701  1
  Sc  Sc65  1  0.89698337  0.29836272  0.30261744  1
  Sc  Sc66  1  0.50379473  0.89493049  0.89839924  1
  Sc  Sc67  1  0.30369966  0.30177615  0.49846860  1
  Sc  Sc68  1  0.69945861  0.10425022  0.29918210  1
  Sc  Sc69  1  0.29638931  0.90467123  0.70340555  1
  Sc  Sc70  1  0.70941034  0.50191484  0.90168008  1
  Sc  Sc71  1  0.10982459  0.30254769  0.49405028  1
  Sc  Sc72  1  0.68798609  0.90512915  0.69521912  1
  Sc  Sc73  1  0.30034191  0.10561293  0.10756847  1
  Sc  Sc74  1  0.10556156  0.89730433  0.69734015  1
  Sc  Sc75  1  0.49177116  0.29987907  0.30358034  1
  Sc  Sc76  1  0.31126137  0.49901810  0.90767369  1
  Sc  Sc77  1  0.69770903  0.90215716  0.09780422  1
  Sc  Sc78  1  0.70356350  0.29765329  0.10803310  1
  Sc  Sc79  1  0.11052605  0.10464766  0.50069588  1
  Sc  Sc80  1  0.10408989  0.89491055  0.09067779  1
  Sc  Sc81  1  0.90953794  0.69223844  0.89286377  1
  Sc  Sc82  1  0.30376895  0.10612625  0.30554604  1
  Sc  Sc83  1  0.89657001  0.91013084  0.90439353  1
  Sc  Sc84  1  0.10237992  0.10346718  0.90581883  1
  Sc  Sc85  1  0.69599044  0.09752577  0.70256524  1
  Sc  Sc86  1  0.30953446  0.70499064  0.90574349  1
  Sc  Sc87  1  0.89892881  0.69388466  0.10142336  1
  Sc  Sc88  1  0.50288924  0.89797720  0.70015202  1
  Sc  Sc89  1  0.49901510  0.49466953  0.49695899  1
  Sc  Sc90  1  0.69500903  0.49469347  0.49573291  1
  Sc  Sc91  1  0.70418203  0.29176334  0.90557470  1
  Sc  Sc92  1  0.90974639  0.49888655  0.30235479  1
  Sc  Sc93  1  0.30320659  0.49218741  0.10009179  1
  Sc  Sc94  1  0.10854010  0.69860835  0.50995178  1
  Sc  Sc95  1  0.69499151  0.90606256  0.50023334  1
  Sc  Sc96  1  0.08730219  0.50305285  0.90520915  1
  Sc  Sc97  1  0.29515678  0.89824017  0.09683376  1
  Sc  Sc98  1  0.30459432  0.09982875  0.89630652  1
  Sc  Sc99  1  0.50527337  0.90792910  0.49444945  1
  Nb  Nb100  1  0.89759304  0.50128007  0.70296813  1
  Nb  Nb101  1  0.89216147  0.71002763  0.30282160  1
  Nb  Nb102  1  0.90329566  0.09466223  0.09629311  1
  Nb  Nb103  1  0.89907881  0.69829065  0.69774214  1
  Nb  Nb104  1  0.09738475  0.90384890  0.30274450  1
  Nb  Nb105  1  0.70183399  0.69934320  0.50114937  1
  Nb  Nb106  1  0.29998477  0.70700825  0.50035744  1
  Nb  Nb107  1  0.09528154  0.49570692  0.50243202  1
  Nb  Nb108  1  0.09157703  0.51229836  0.10727612  1
  Nb  Nb109  1  0.30021435  0.50135209  0.70518419  1
  Nb  Nb110  1  0.29784932  0.90492868  0.49968552  1
  Nb  Nb111  1  0.70583663  0.70415547  0.30642007  1
  Nb  Nb112  1  0.49458475  0.10599432  0.49793409  1
  Nb  Nb113  1  0.30154518  0.49927654  0.30065756  1
  Nb  Nb114  1  0.70367564  0.28928382  0.29536192  1
  Nb  Nb115  1  0.50364246  0.70284749  0.30371109  1
  Nb  Nb116  1  0.29974382  0.30416402  0.09401802  1
  Nb  Nb117  1  0.50433872  0.89655737  0.29475688  1
  Nb  Nb118  1  0.30468943  0.09138784  0.50219338  1
  Nb  Nb119  1  0.50217417  0.09882197  0.09862485  1
  Nb  Nb120  1  0.70124541  0.49947059  0.09646626  1
  Nb  Nb121  1  0.29642120  0.30664216  0.90512543  1
  Nb  Nb122  1  0.10218582  0.69832904  0.10039325  1
  Nb  Nb123  1  0.90290913  0.10314592  0.90147716  1
  Nb  Nb124  1  0.10214941  0.70083850  0.89884707  1
  Nb  Nb125  1  0.40514003  0.79840592  0.20994401  1
  Nb  Nb126  1  0.00351890  0.79631723  0.20504250  1
  Nb  Nb127  1  0.60176987  0.40266403  0.00081375  1
  Nb  Nb128  1  0.79678696  0.79266488  0.59943333  1
  Nb  Nb129  1  0.59810607  0.39943811  0.80584835  1
  Nb  Nb130  1  0.39995215  0.60349459  0.20945291  1
  Nb  Nb131  1  0.79961279  0.79804826  -0.00641602  1
  Nb  Nb132  1  -0.00352683  0.40160725  0.59949117  1
  Nb  Nb133  1  -0.00093506  0.19447502  0.19672153  1
  Nb  Nb134  1  0.80792202  0.00292219  0.19790773  1
  Nb  Nb135  1  0.20228281  0.80493955  0.40180218  1
  Nb  Nb136  1  -0.00420793  0.20710187  0.59758389  1
  Nb  Nb137  1  0.00196584  0.39720939  0.79182694  1
  Nb  Nb138  1  0.19547346  -0.00184802  0.20715351  1
  Nb  Nb139  1  0.20185207  0.40297453  0.80348853  1
  Nb  Nb140  1  0.00105928  0.00705115  0.80188394  1
  Nb  Nb141  1  -0.00773523  0.59723322  0.60075079  1
  Nb  Nb142  1  0.80112022  0.60211724  0.59998464  1
  Nb  Nb143  1  0.60188106  0.59277194  0.00747899  1
  Nb  Nb144  1  0.40783231  0.00425723  0.00474430  1
  Nb  Nb145  1  0.20053761  0.59789351  0.80764727  1
  Nb  Nb146  1  0.20578021  0.20997857  0.80128629  1
  Nb  Nb147  1  0.80126996  0.80050035  0.79288459  1
  Nb  Nb148  1  0.39534330  0.80021504  0.58999168  1
  Nb  Nb149  1  0.19265517  0.60267024  0.00265927  1
  Pd  Pd150  1  0.19511696  0.59824009  0.40787130  1
  Pd  Pd151  1  0.59540720  0.40580780  0.60837360  1
  Pd  Pd152  1  -0.01069389  0.81264973  0.80366260  1
  Pd  Pd153  1  0.80541837  0.80846653  0.19344935  1
  Pd  Pd154  1  0.60634685  0.80284526  0.40278856  1
  Pd  Pd155  1  0.79816793  -0.00503291  0.60436682  1
  Pd  Pd156  1  0.60281303  0.39045448  0.39073414  1
  Pd  Pd157  1  -0.00192411  0.60483155  0.00118742  1
  Pd  Pd158  1  0.60764770  0.79152672  0.00008601  1
  Pd  Pd159  1  0.78999999  0.58945099  0.39268770  1
  Pd  Pd160  1  0.59364932  0.20210556  0.39319998  1
  Pd  Pd161  1  0.00058526  0.39344591  0.19640517  1
  Pd  Pd162  1  0.79536820  0.19339178  0.00724307  1
  Pd  Pd163  1  0.00453978  0.01087942  0.41056538  1
  Pd  Pd164  1  0.79792035  0.60994449  0.79972585  1
  Pd  Pd165  1  0.59612395  0.38581886  0.19626531  1
  Pd  Pd166  1  0.39713767  0.20620207  0.20078452  1
  Pd  Pd167  1  0.20021258  0.81069974  0.20762303  1
  Pd  Pd168  1  0.00955233  0.60676683  0.40206655  1
  Pd  Pd169  1  0.80909819  -0.00942445  0.78844529  1
  Pd  Pd170  1  0.19570810  0.40612185  0.19544008  1
  Pd  Pd171  1  0.40051993  0.80518434  0.40288574  1
  Pd  Pd172  1  0.79060158  0.40303097  0.38735449  1
  Pd  Pd173  1  0.20878827  0.19379403  -0.00140611  1
  Pd  Pd174  1  0.40903890  0.00382184  0.40041279  1
  Pd  Pd175  1  -0.00532425  0.79145891  0.59151694  1
  Pd  Pd176  1  0.39951437  0.59400025  0.40476817  1
  Pd  Pd177  1  0.39395631  -0.00776079  0.19172813  1
  Pd  Pd178  1  0.00050357  0.39871434  0.00162898  1
  Pd  Pd179  1  0.40563615  0.81266776  0.00967319  1
  Pd  Pd180  1  0.79866370  0.19106836  0.59411670  1
  Pd  Pd181  1  0.21129062  0.20035576  0.40610972  1
  Pd  Pd182  1  0.01632943  0.78806244  0.39675342  1
  Pd  Pd183  1  0.60527454  0.20638251  0.80205759  1
  Pd  Pd184  1  0.19364371  0.01010991  0.80095179  1
  Pd  Pd185  1  0.39310862  0.19458580  0.00042858  1
  Pd  Pd186  1  0.80820315  0.59439659  0.21161690  1
  Pd  Pd187  1  0.59971134  0.19530373  0.60129191  1
  Pd  Pd188  1  0.40581370  -0.00887375  0.60086116  1
  Pd  Pd189  1  -0.00640611  0.79287259  0.00168603  1
  Pd  Pd190  1  0.80522470  0.39962113  0.20370090  1
  Pd  Pd191  1  0.60682439  0.59768511  0.39558803  1
  Pd  Pd192  1  -0.01079470  0.60488753  0.20458123  1
  Pd  Pd193  1  0.39741802  0.79846851  0.78807628  1
  Pd  Pd194  1  0.40601432  -0.00216128  0.80810396  1
  Pd  Pd195  1  0.40097287  0.60242469  0.59246154  1
  Pd  Pd196  1  0.19390732  0.41531094  -0.00193342  1
  Pd  Pd197  1  0.60151321  0.58883060  0.59929587  1
  Pd  Pd198  1  0.00766872  -0.00067616  -0.01046363  1
  Pd  Pd199  1  0.59511061  0.60691412  0.20099871  1
  Rh  Rh200  1  0.20988102  0.79087427  0.80416529  1
  Rh  Rh201  1  0.39631475  0.19891430  0.59117303  1
  Rh  Rh202  1  0.39659671  0.39741608  0.19903513  1
  Rh  Rh203  1  0.21132685  0.00495726  0.00675992  1
  Rh  Rh204  1  0.78774184  0.80863858  0.40554100  1
  Rh  Rh205  1  0.38940251  0.20692335  0.80142885  1
  Rh  Rh206  1  0.79031959  0.19715647  0.80240395  1
  Rh  Rh207  1  0.39858227  0.40805288  0.59619138  1
  Rh  Rh208  1  0.59355125  0.58768240  0.81046765  1
  Rh  Rh209  1  0.79315420  0.61079501  -0.00716761  1
  Rh  Rh210  1  0.39881963  0.39481837  0.80350022  1
  Rh  Rh211  1  0.59059436  0.00854152  0.60072048  1
  Rh  Rh212  1  0.19991948  0.79059958  -0.00554634  1
  Rh  Rh213  1  0.59397019  0.00441723  0.39320713  1
  Rh  Rh214  1  0.60273979  0.20531424  0.00368948  1
  Rh  Rh215  1  0.59596665  0.20145489  0.20266574  1
  Rh  Rh216  1  0.60178594  0.80191016  0.79785278  1
  Rh  Rh217  1  0.00087696  0.01340853  0.60157814  1
  Rh  Rh218  1  0.20860842  0.58587862  0.19200608  1
  Rh  Rh219  1  0.00654206  0.59272091  0.79443970  1
  Rh  Rh220  1  0.00586557  0.39422549  0.40370164  1
  Rh  Rh221  1  -0.00071888  0.20106476  0.40201892  1
  Rh  Rh222  1  0.60754486  0.00526047  0.20230763  1
  Rh  Rh223  1  0.39866497  0.19877500  0.40193249  1
  Rh  Rh224  1  0.00129064  0.19813789  0.01004888  1
  Rh  Rh225  1  0.79984600  0.40960609  0.59334041  1
  Rh  Rh226  1  0.39992520  0.60245641  0.01057585  1
  Rh  Rh227  1  0.20646673  0.81028750  0.59541987  1
  Rh  Rh228  1  0.20625829  0.20082835  0.59846395  1
  Rh  Rh229  1  0.59992536  0.79265659  0.20382436  1
  Rh  Rh230  1  0.80819151  0.19133618  0.19614174  1
  Rh  Rh231  1  0.19774924  0.59881464  0.60075370  1
  Rh  Rh232  1  0.00427968  -0.00314948  0.19807793  1
  Rh  Rh233  1  0.79718133  -0.00149431  0.00875029  1
  Rh  Rh234  1  0.39003382  0.60857605  0.80079949  1
  Rh  Rh235  1  0.79455419  -0.00179429  0.39172766  1
  Rh  Rh236  1  0.40843182  0.39139021  0.00484097  1
  Rh  Rh237  1  0.20264535  -0.00187220  0.60028712  1
  Rh  Rh238  1  0.79815222  0.39086670  0.80938369  1
  Rh  Rh239  1  0.19883911  -0.00126672  0.39842841  1
  Rh  Rh240  1  0.01246706  0.20093349  0.79152478  1
  Rh  Rh241  1  0.20216657  0.40226944  0.59996211  1
  Rh  Rh242  1  0.59532382  0.00099723  0.00009014  1
  Rh  Rh243  1  0.19746099  0.19829654  0.19849793  1
  Rh  Rh244  1  0.79362227  0.19654316  0.40271463  1
  Rh  Rh245  1  0.59511024  0.80146693  0.59338015  1
  Rh  Rh246  1  0.79442896  0.39270055  -0.00081104  1
  Rh  Rh247  1  0.39280547  0.40272811  0.40256378  1
  Rh  Rh248  1  0.20363087  0.40610605  0.40138235  1
  Rh  Rh249  1  0.59227601  0.00161095  0.79824679  1
