# generated using pymatgen
data_ZrScNbPdRh
_symmetry_space_group_name_H-M   'P 1'
_cell_length_a   16.55353568
_cell_length_b   16.55182128
_cell_length_c   16.55407058
_cell_angle_alpha   89.95771148
_cell_angle_beta   89.99479901
_cell_angle_gamma   90.04210351
_symmetry_Int_Tables_number   1
_chemical_formula_structural   ZrScNbPdRh
_chemical_formula_sum   'Zr50 Sc50 Nb50 Pd50 Rh50'
_cell_volume   4535.66659010
_cell_formula_units_Z   50
loop_
 _symmetry_equiv_pos_site_id
 _symmetry_equiv_pos_as_xyz
  1  'x, y, z'
loop_
 _atom_site_type_symbol
 _atom_site_label
 _atom_site_symmetry_multiplicity
 _atom_site_fract_x
 _atom_site_fract_y
 _atom_site_fract_z
 _atom_site_occupancy
  Zr  Zr0  1  0.69149798  0.50596114  0.90753509  1
  Zr  Zr1  1  0.10008149  0.50777432  0.90098276  1
  Zr  Zr2  1  0.69300255  0.10292485  0.89607026  1
  Zr  Zr3  1  0.90910067  0.29491323  0.08920183  1
  Zr  Zr4  1  0.91222694  0.09535920  0.29998867  1
  Zr  Zr5  1  0.69817203  0.89335784  0.30829673  1
  Zr  Zr6  1  0.90464216  0.70541161  0.09998523  1
  Zr  Zr7  1  0.70359577  0.08937568  0.50563908  1
  Zr  Zr8  1  0.70389731  0.31142100  0.89529813  1
  Zr  Zr9  1  0.89157861  0.69291046  0.70392068  1
  Zr  Zr10  1  0.10888451  0.70612050  0.49378621  1
  Zr  Zr11  1  0.70541765  0.70337415  0.89424393  1
  Zr  Zr12  1  0.29969187  0.70075106  0.50589118  1
  Zr  Zr13  1  0.09716235  0.10017243  0.11026268  1
  Zr  Zr14  1  0.49605025  0.89605794  0.69926273  1
  Zr  Zr15  1  0.29712872  0.69264671  0.29959547  1
  Zr  Zr16  1  0.50904510  0.90472671  0.49552603  1
  Zr  Zr17  1  0.70523868  0.50243930  0.71156975  1
  Zr  Zr18  1  0.69943546  0.29870689  0.29653992  1
  Zr  Zr19  1  0.29684578  0.90445245  0.29711253  1
  Zr  Zr20  1  0.28954225  0.89322179  0.50661443  1
  Zr  Zr21  1  0.49901478  0.30153038  0.09721136  1
  Zr  Zr22  1  0.69780276  0.70589036  0.49433090  1
  Zr  Zr23  1  0.50907706  0.69715027  0.90246300  1
  Zr  Zr24  1  0.89740239  0.09661722  0.68751317  1
  Zr  Zr25  1  0.29847290  0.09430331  0.10369747  1
  Zr  Zr26  1  0.70284615  0.89757368  0.09846974  1
  Zr  Zr27  1  0.10482010  0.50652625  0.50592259  1
  Zr  Zr28  1  0.29815501  0.09751941  0.89610971  1
  Zr  Zr29  1  0.90430194  0.08974819  0.10378298  1
  Zr  Zr30  1  0.70872453  0.30208333  0.49375565  1
  Zr  Zr31  1  0.70155321  0.70199281  0.70189652  1
  Zr  Zr32  1  0.69906386  0.09886468  0.09984305  1
  Zr  Zr33  1  0.30812150  0.50366358  0.49776949  1
  Zr  Zr34  1  0.90395309  0.30017874  0.69388488  1
  Zr  Zr35  1  0.49362306  0.70357989  0.10218212  1
  Zr  Zr36  1  0.50287515  0.89099486  0.09948830  1
  Zr  Zr37  1  0.89377296  0.30086056  0.30378002  1
  Zr  Zr38  1  0.49951291  0.68849173  0.49653224  1
  Zr  Zr39  1  0.10694443  0.10209431  0.90029092  1
  Zr  Zr40  1  0.10143606  0.68977936  0.70532678  1
  Zr  Zr41  1  0.49511235  0.29866684  0.30086044  1
  Zr  Zr42  1  0.10120192  0.29818771  0.29247796  1
  Zr  Zr43  1  0.09493712  0.50105892  0.69584002  1
  Zr  Zr44  1  0.49504612  0.09264062  0.30797338  1
  Zr  Zr45  1  0.28973847  0.50183173  0.28884218  1
  Zr  Zr46  1  0.69874162  0.10207759  0.29368920  1
  Zr  Zr47  1  0.50740865  0.09879865  0.10126070  1
  Zr  Zr48  1  0.09790794  0.70084501  0.90364647  1
  Zr  Zr49  1  0.29921404  0.90151639  0.70266667  1
  Sc  Sc50  1  0.49556094  0.89605737  0.89817300  1
  Sc  Sc51  1  0.30064273  0.30275392  0.30250659  1
  Sc  Sc52  1  0.50022502  0.70387522  0.70265091  1
  Sc  Sc53  1  0.69664142  0.29419161  0.09848813  1
  Sc  Sc54  1  0.50146631  0.30806697  0.90116314  1
  Sc  Sc55  1  0.90532423  0.50585227  0.29273496  1
  Sc  Sc56  1  0.29719303  0.29255113  0.90281212  1
  Sc  Sc57  1  0.51137175  0.09550218  0.70693087  1
  Sc  Sc58  1  0.50156255  0.09680547  0.90342273  1
  Sc  Sc59  1  0.90585927  0.50480996  0.50521288  1
  Sc  Sc60  1  0.48155431  0.50606323  0.30738266  1
  Sc  Sc61  1  0.90888096  0.90057035  0.30319081  1
  Sc  Sc62  1  0.49824592  0.50118557  0.89774341  1
  Sc  Sc63  1  0.48730416  0.30326500  0.50306382  1
  Sc  Sc64  1  0.30043864  0.29241310  0.50276658  1
  Sc  Sc65  1  0.10855740  0.09807206  0.69727498  1
  Sc  Sc66  1  0.69411447  0.90089382  0.69243370  1
  Sc  Sc67  1  0.69387553  0.30338099  0.70545206  1
  Sc  Sc68  1  0.90350273  0.10019229  0.91516187  1
  Sc  Sc69  1  0.30134453  0.70517861  0.69966208  1
  Sc  Sc70  1  0.30336364  0.30955700  0.10028165  1
  Sc  Sc71  1  0.70444339  0.89619874  0.49817039  1
  Sc  Sc72  1  0.30680629  0.88930038  0.10026812  1
  Sc  Sc73  1  0.09345286  0.89555882  0.10248365  1
  Sc  Sc74  1  0.69778025  0.69854146  0.09140515  1
  Sc  Sc75  1  0.69649416  0.70258460  0.29750061  1
  Sc  Sc76  1  0.90049378  0.71617869  0.50203498  1
  Sc  Sc77  1  0.88819291  0.49446301  0.90285595  1
  Sc  Sc78  1  0.50175568  0.30582667  0.70442134  1
  Sc  Sc79  1  0.29046247  0.10025860  0.69798438  1
  Sc  Sc80  1  0.89405613  0.50163296  0.10233325  1
  Sc  Sc81  1  0.50330896  0.89420928  0.29550836  1
  Sc  Sc82  1  0.71718649  0.49822483  0.29412376  1
  Sc  Sc83  1  0.49821532  0.70146080  0.29634415  1
  Sc  Sc84  1  0.09926862  0.90356521  0.30553432  1
  Sc  Sc85  1  0.30767197  0.51112172  0.90197312  1
  Sc  Sc86  1  0.69364960  0.50887319  0.50482672  1
  Sc  Sc87  1  0.10630763  0.90426019  0.69165654  1
  Sc  Sc88  1  0.49857315  0.49855291  0.70099335  1
  Sc  Sc89  1  0.09573270  0.29981392  0.09797762  1
  Sc  Sc90  1  0.48727704  0.49903930  0.08408445  1
  Sc  Sc91  1  0.28876843  0.70257946  0.90490601  1
  Sc  Sc92  1  0.09741194  0.49800513  0.10749229  1
  Sc  Sc93  1  0.89738291  0.89550384  0.68469406  1
  Sc  Sc94  1  0.09817184  0.69963636  0.09175259  1
  Sc  Sc95  1  0.90258844  0.90908892  0.49613542  1
  Sc  Sc96  1  0.10156638  0.89597749  0.90704241  1
  Sc  Sc97  1  0.30037438  0.29657611  0.69661352  1
  Sc  Sc98  1  0.89820716  0.89975390  0.91781661  1
  Sc  Sc99  1  0.10757163  0.29693315  0.68938377  1
  Nb  Nb100  1  0.29505179  0.50708083  0.09801516  1
  Nb  Nb101  1  0.09896417  0.69414987  0.30021095  1
  Nb  Nb102  1  0.70229776  0.89338423  0.90047751  1
  Nb  Nb103  1  0.90411256  0.29712282  0.50008314  1
  Nb  Nb104  1  0.29823642  0.69114763  0.10359785  1
  Nb  Nb105  1  0.50036917  0.49807443  0.49474559  1
  Nb  Nb106  1  0.49938801  0.10166340  0.49871159  1
  Nb  Nb107  1  0.10942139  0.09972435  0.29776471  1
  Nb  Nb108  1  0.90393269  0.10566813  0.50049763  1
  Nb  Nb109  1  0.90628407  0.29944717  0.89950925  1
  Nb  Nb110  1  0.70071112  0.10060475  0.70342201  1
  Nb  Nb111  1  0.69594584  0.50309220  0.10071017  1
  Nb  Nb112  1  0.90000990  0.49819757  0.69972551  1
  Nb  Nb113  1  0.10648552  0.09954391  0.49683348  1
  Nb  Nb114  1  0.90149933  0.70054906  0.29614968  1
  Nb  Nb115  1  0.90044846  0.70698407  0.90086899  1
  Nb  Nb116  1  0.90454166  0.89896782  0.10543104  1
  Nb  Nb117  1  0.29327174  0.50250802  0.70258609  1
  Nb  Nb118  1  0.10296822  0.90002563  0.50045373  1
  Nb  Nb119  1  0.10173321  0.50228233  0.30489186  1
  Nb  Nb120  1  0.30743596  0.10189439  0.49325040  1
  Nb  Nb121  1  0.29355872  0.09963299  0.30019824  1
  Nb  Nb122  1  0.09707991  0.30149810  0.90044243  1
  Nb  Nb123  1  0.29373458  0.90425217  0.90020071  1
  Nb  Nb124  1  0.09764442  0.30348898  0.50056174  1
  Nb  Nb125  1  0.80726815  0.80049532  0.19911141  1
  Nb  Nb126  1  0.19727983  0.79114990  0.20348177  1
  Nb  Nb127  1  0.00381963  0.39719599  0.40394620  1
  Nb  Nb128  1  0.40076397  0.00481525  0.59321208  1
  Nb  Nb129  1  0.40041878  0.19619013  0.80146166  1
  Nb  Nb130  1  -0.00559390  -0.00143996  0.80018474  1
  Nb  Nb131  1  0.39482263  0.79970044  0.40344608  1
  Nb  Nb132  1  0.80568819  0.19690504  0.80063330  1
  Nb  Nb133  1  0.20433385  -0.00216968  0.00294701  1
  Nb  Nb134  1  0.59699538  0.40727946  0.20154830  1
  Nb  Nb135  1  -0.00479064  0.80097537  0.80123175  1
  Nb  Nb136  1  0.59831140  0.58959080  0.19508519  1
  Nb  Nb137  1  0.80539230  0.60900146  0.39696336  1
  Nb  Nb138  1  -0.00102467  0.19982675  0.80116177  1
  Nb  Nb139  1  0.19679016  0.40317873  0.80304324  1
  Nb  Nb140  1  0.59691789  0.40154316  0.39715297  1
  Nb  Nb141  1  0.80051920  0.00264217  0.80072046  1
  Nb  Nb142  1  0.19698158  0.40527851  -0.00467667  1
  Nb  Nb143  1  0.19224793  0.40248733  0.40164537  1
  Nb  Nb144  1  0.00154725  0.39732140  0.80032891  1
  Nb  Nb145  1  0.80415448  0.40105414  0.60099941  1
  Nb  Nb146  1  0.60103238  0.19686710  0.59494477  1
  Nb  Nb147  1  0.39805260  0.19127535  0.20260161  1
  Nb  Nb148  1  0.59852067  0.20009313  0.40587241  1
  Nb  Nb149  1  0.00456899  0.19979775  0.40621274  1
  Pd  Pd150  1  0.19169740  0.80390942  0.79757447  1
  Pd  Pd151  1  0.80157859  -0.00969781  0.20693788  1
  Pd  Pd152  1  0.80233729  0.18868350  0.39913407  1
  Pd  Pd153  1  0.80939713  0.20049276  0.19321533  1
  Pd  Pd154  1  0.19778009  0.20652764  0.40323363  1
  Pd  Pd155  1  0.38987838  0.39370357  0.80405969  1
  Pd  Pd156  1  0.39658094  0.40372162  0.60284850  1
  Pd  Pd157  1  0.59957022  0.20674215  -0.00822512  1
  Pd  Pd158  1  0.60399556  0.39569034  0.59367665  1
  Pd  Pd159  1  -0.00381820  0.61247435  0.59295446  1
  Pd  Pd160  1  0.80094231  0.59907884  0.59121986  1
  Pd  Pd161  1  0.19921641  -0.00058275  0.40401523  1
  Pd  Pd162  1  0.80264440  0.00234055  0.39698697  1
  Pd  Pd163  1  0.39592890  0.79362711  0.80873210  1
  Pd  Pd164  1  0.80498417  0.41728195  0.40997039  1
  Pd  Pd165  1  0.39358735  0.79431165  -0.00765996  1
  Pd  Pd166  1  0.00520668  0.60169248  0.19527032  1
  Pd  Pd167  1  0.59599041  0.59904407  0.60852560  1
  Pd  Pd168  1  0.79761352  0.19989950  -0.00405305  1
  Pd  Pd169  1  0.39784017  -0.00537522  0.00154354  1
  Pd  Pd170  1  0.19881206  0.20293183  0.00896603  1
  Pd  Pd171  1  0.79731349  0.39690913  0.00839227  1
  Pd  Pd172  1  0.00692073  0.79573460  0.60711422  1
  Pd  Pd173  1  0.00712758  0.00067822  0.59835735  1
  Pd  Pd174  1  -0.01212131  0.59737211  0.80815521  1
  Pd  Pd175  1  0.79083587  0.20735377  0.60571699  1
  Pd  Pd176  1  0.39460790  -0.00943919  0.40493520  1
  Pd  Pd177  1  0.59663302  0.79505889  0.59737151  1
  Pd  Pd178  1  -0.00317890  0.39952475  0.20326593  1
  Pd  Pd179  1  0.59976465  -0.00877442  -0.00589304  1
  Pd  Pd180  1  0.60526930  -0.01162749  0.80470833  1
  Pd  Pd181  1  0.40372797  -0.00035856  0.19773345  1
  Pd  Pd182  1  -0.00560934  0.60027231  0.40453637  1
  Pd  Pd183  1  0.40128747  0.19987233  -0.00000099  1
  Pd  Pd184  1  0.80768248  0.81487792  0.79734400  1
  Pd  Pd185  1  0.39760251  0.60906705  0.79841482  1
  Pd  Pd186  1  0.40218454  0.59566273  0.60935909  1
  Pd  Pd187  1  -0.00877698  0.59314799  0.00180565  1
  Pd  Pd188  1  0.01131861  0.19407086  0.59994319  1
  Pd  Pd189  1  0.40896153  0.19145320  0.61309004  1
  Pd  Pd190  1  0.20925333  0.39982432  0.59880508  1
  Pd  Pd191  1  0.00288587  0.80297938  0.39856231  1
  Pd  Pd192  1  0.59973733  -0.00660560  0.20352114  1
  Pd  Pd193  1  0.79546781  0.00070997  -0.00408668  1
  Pd  Pd194  1  0.21010119  0.20892754  0.19457314  1
  Pd  Pd195  1  0.60875321  0.58956665  0.38404035  1
  Pd  Pd196  1  0.39950960  0.00662179  0.79232740  1
  Pd  Pd197  1  0.80388940  0.60499777  -0.00112723  1
  Pd  Pd198  1  0.40282895  0.40363199  0.19737969  1
  Pd  Pd199  1  0.79911397  0.39345800  0.18767056  1
  Rh  Rh200  1  0.19094145  -0.00844625  0.80753709  1
  Rh  Rh201  1  0.59539604  0.00456573  0.60067371  1
  Rh  Rh202  1  0.00576090  0.19269519  -0.00131838  1
  Rh  Rh203  1  -0.00456705  0.20098405  0.20574962  1
  Rh  Rh204  1  0.20133192  0.21097002  0.79495848  1
  Rh  Rh205  1  0.60227616  0.40223070  0.00530980  1
  Rh  Rh206  1  -0.00572651  0.40200567  0.59939699  1
  Rh  Rh207  1  0.00353011  0.40763058  -0.00415595  1
  Rh  Rh208  1  0.60176028  0.80334004  0.80093947  1
  Rh  Rh209  1  0.60735198  0.00474237  0.39693900  1
  Rh  Rh210  1  0.20135689  0.19527787  0.59127424  1
  Rh  Rh211  1  0.20564241  0.60383723  0.60456828  1
  Rh  Rh212  1  0.79796982  -0.00579367  0.60131257  1
  Rh  Rh213  1  0.38914295  0.79581382  0.20962349  1
  Rh  Rh214  1  0.19145808  0.79413944  0.60864627  1
  Rh  Rh215  1  0.59665000  0.20633490  0.79773635  1
  Rh  Rh216  1  0.39821252  0.60830756  -0.00228442  1
  Rh  Rh217  1  0.58924653  0.20347388  0.20495892  1
  Rh  Rh218  1  0.39304407  0.39852635  0.40380295  1
  Rh  Rh219  1  0.79506236  0.80144971  0.59795006  1
  Rh  Rh220  1  0.19802662  0.59556569  0.00491915  1
  Rh  Rh221  1  0.80112102  0.79776702  0.00735986  1
  Rh  Rh222  1  0.59689700  0.40728171  0.80443087  1
  Rh  Rh223  1  0.39916647  0.19891921  0.39248145  1
  Rh  Rh224  1  0.00799304  -0.00533877  0.20409306  1
  Rh  Rh225  1  0.00352070  0.79795302  0.20600573  1
  Rh  Rh226  1  0.20150697  0.80065591  0.39051863  1
  Rh  Rh227  1  0.18814628  0.60530498  0.19321074  1
  Rh  Rh228  1  0.60986642  0.79282813  0.19514566  1
  Rh  Rh229  1  0.80335194  0.59701171  0.80909524  1
  Rh  Rh230  1  0.20398354  0.80516989  0.01104597  1
  Rh  Rh231  1  0.80764899  0.79681021  0.39225343  1
  Rh  Rh232  1  0.80794674  0.39451571  0.79205943  1
  Rh  Rh233  1  0.20684723  0.59746718  0.79910193  1
  Rh  Rh234  1  0.01018196  -0.00014104  0.00025464  1
  Rh  Rh235  1  0.59728769  0.59966514  0.79602355  1
  Rh  Rh236  1  0.58806228  0.79565180  0.40041762  1
  Rh  Rh237  1  0.19718759  0.40051521  0.19658321  1
  Rh  Rh238  1  0.60165482  0.80163735  -0.00402248  1
  Rh  Rh239  1  0.39423778  0.60557101  0.39990599  1
  Rh  Rh240  1  0.79317357  0.61173129  0.20279179  1
  Rh  Rh241  1  0.40618094  0.59584570  0.19308311  1
  Rh  Rh242  1  0.19579145  -0.01130367  0.19428302  1
  Rh  Rh243  1  0.40816368  0.80806379  0.59121237  1
  Rh  Rh244  1  0.00875107  0.00737897  0.40575523  1
  Rh  Rh245  1  0.20721356  0.00792081  0.58967684  1
  Rh  Rh246  1  0.20178957  0.59417764  0.40218924  1
  Rh  Rh247  1  0.59347972  0.59983379  0.00598153  1
  Rh  Rh248  1  0.38717308  0.40195768  -0.00764566  1
  Rh  Rh249  1  -0.00041505  0.80188903  -0.00502791  1
