# generated using pymatgen
data_ZrScNbPdRh
_symmetry_space_group_name_H-M   'P 1'
_cell_length_a   16.55207556
_cell_length_b   16.55350747
_cell_length_c   16.55270075
_cell_angle_alpha   90.00782344
_cell_angle_beta   90.00757785
_cell_angle_gamma   90.00926720
_symmetry_Int_Tables_number   1
_chemical_formula_structural   ZrScNbPdRh
_chemical_formula_sum   'Zr50 Sc50 Nb50 Pd50 Rh50'
_cell_volume   4535.35555492
_cell_formula_units_Z   50
loop_
 _symmetry_equiv_pos_site_id
 _symmetry_equiv_pos_as_xyz
  1  'x, y, z'
loop_
 _atom_site_type_symbol
 _atom_site_label
 _atom_site_symmetry_multiplicity
 _atom_site_fract_x
 _atom_site_fract_y
 _atom_site_fract_z
 _atom_site_occupancy
  Zr  Zr0  1  0.50201251  0.70181352  0.51036488  1
  Zr  Zr1  1  0.09541326  0.49772393  0.49509323  1
  Zr  Zr2  1  0.10692464  0.09324440  0.90198029  1
  Zr  Zr3  1  0.09605929  0.30302728  0.69997759  1
  Zr  Zr4  1  0.50829543  0.29418470  0.29452144  1
  Zr  Zr5  1  0.89971613  0.50240124  0.49488004  1
  Zr  Zr6  1  0.70303711  0.90298165  0.29202874  1
  Zr  Zr7  1  0.70727408  0.50927259  0.49443033  1
  Zr  Zr8  1  0.29477783  0.90048448  0.30043028  1
  Zr  Zr9  1  0.70888844  0.10619022  0.49910608  1
  Zr  Zr10  1  0.29076192  0.10254407  0.90340289  1
  Zr  Zr11  1  0.70234750  0.09924648  0.90605083  1
  Zr  Zr12  1  0.49402305  0.89831442  0.10572771  1
  Zr  Zr13  1  0.90124431  0.30221590  0.49492036  1
  Zr  Zr14  1  0.50146615  0.69609686  0.70315851  1
  Zr  Zr15  1  0.09639006  0.89869856  0.89772558  1
  Zr  Zr16  1  0.49824479  0.09117365  0.70049696  1
  Zr  Zr17  1  0.09852754  0.10358710  0.70143423  1
  Zr  Zr18  1  0.29510916  0.69625742  0.89542338  1
  Zr  Zr19  1  0.09807436  0.89778459  0.69734464  1
  Zr  Zr20  1  0.69798199  0.69510979  0.29936475  1
  Zr  Zr21  1  0.70172607  0.90230270  0.10291808  1
  Zr  Zr22  1  0.50925223  0.09893998  0.30148192  1
  Zr  Zr23  1  0.70414190  0.30640107  0.10160367  1
  Zr  Zr24  1  0.89867763  0.89623569  0.10614885  1
  Zr  Zr25  1  0.29992344  0.89452540  0.50401774  1
  Zr  Zr26  1  0.90324343  0.10159567  0.50241933  1
  Zr  Zr27  1  0.90527165  0.09862696  0.69989957  1
  Zr  Zr28  1  0.30471477  0.90070193  0.69152970  1
  Zr  Zr29  1  0.50749030  0.31556438  0.69803353  1
  Zr  Zr30  1  0.89946101  0.10571395  0.10227408  1
  Zr  Zr31  1  0.29087903  0.90149429  0.90209964  1
  Zr  Zr32  1  0.70440982  0.09660660  0.69358140  1
  Zr  Zr33  1  0.29202286  0.49809001  0.10331261  1
  Zr  Zr34  1  0.30222801  0.70626918  0.09884415  1
  Zr  Zr35  1  0.10352048  0.49971260  0.29171065  1
  Zr  Zr36  1  0.10222150  0.69408822  0.70089371  1
  Zr  Zr37  1  0.50683754  0.89276991  0.69256177  1
  Zr  Zr38  1  0.50124664  0.70225451  0.10419327  1
  Zr  Zr39  1  0.50614373  0.50562182  0.89088602  1
  Zr  Zr40  1  0.29504745  0.30159488  0.50500785  1
  Zr  Zr41  1  0.08962188  0.09791595  0.50059440  1
  Zr  Zr42  1  0.28695911  0.29945674  0.69926205  1
  Zr  Zr43  1  0.89193417  0.69515154  0.50249623  1
  Zr  Zr44  1  0.50411132  0.30361037  0.50203310  1
  Zr  Zr45  1  0.09715029  0.29871492  0.50803674  1
  Zr  Zr46  1  0.70370092  0.30331654  0.49989987  1
  Zr  Zr47  1  0.70425771  0.30622548  0.69991096  1
  Zr  Zr48  1  0.49785126  0.50159650  0.50606626  1
  Zr  Zr49  1  0.50001615  0.50708351  0.69980580  1
  Sc  Sc50  1  0.51406728  0.49274021  0.09010345  1
  Sc  Sc51  1  0.70577143  0.90125523  0.51760268  1
  Sc  Sc52  1  0.90403743  0.50487609  0.90087008  1
  Sc  Sc53  1  0.69814073  0.10280913  0.29995159  1
  Sc  Sc54  1  0.50399905  0.90044479  0.29536834  1
  Sc  Sc55  1  0.09588037  0.69754264  0.90035185  1
  Sc  Sc56  1  0.69646372  0.49939858  0.71194306  1
  Sc  Sc57  1  0.29480938  0.29261175  0.28827040  1
  Sc  Sc58  1  0.29524074  0.69218519  0.30736574  1
  Sc  Sc59  1  0.28956047  0.89805443  0.10946370  1
  Sc  Sc60  1  0.09482804  0.69963117  0.09867335  1
  Sc  Sc61  1  0.90412411  0.49172747  0.08677854  1
  Sc  Sc62  1  0.09002600  0.29913786  0.29354291  1
  Sc  Sc63  1  0.90231595  0.29485585  0.29604950  1
  Sc  Sc64  1  0.29824355  0.69580510  0.50125549  1
  Sc  Sc65  1  0.29534877  0.29519001  0.90637699  1
  Sc  Sc66  1  0.49973031  0.09424319  0.90089864  1
  Sc  Sc67  1  0.90504815  0.70276389  0.09300431  1
  Sc  Sc68  1  0.49689228  0.30845987  0.90749964  1
  Sc  Sc69  1  0.50261126  0.90456145  0.89525682  1
  Sc  Sc70  1  0.09268501  0.69223333  0.29676462  1
  Sc  Sc71  1  0.90100858  0.50288395  0.70691831  1
  Sc  Sc72  1  0.29266410  0.50681400  0.69598130  1
  Sc  Sc73  1  0.69308428  0.49674952  0.30026855  1
  Sc  Sc74  1  0.70075431  0.89765758  0.89989929  1
  Sc  Sc75  1  0.90061074  0.30070106  0.09717713  1
  Sc  Sc76  1  0.70605534  0.70103645  0.89351989  1
  Sc  Sc77  1  0.70065681  0.69839902  0.09710143  1
  Sc  Sc78  1  0.50350820  0.69788989  0.30038704  1
  Sc  Sc79  1  0.29452340  0.09472331  0.70319114  1
  Sc  Sc80  1  0.49910247  0.10318453  0.10802724  1
  Sc  Sc81  1  0.09207353  0.29738046  0.10185858  1
  Sc  Sc82  1  0.28990225  0.09679159  0.28670074  1
  Sc  Sc83  1  0.70480161  0.09676789  0.10296003  1
  Sc  Sc84  1  0.70139207  0.29783249  0.30206688  1
  Sc  Sc85  1  0.09850689  0.49727637  0.70355567  1
  Sc  Sc86  1  0.50224864  0.70029724  0.89445388  1
  Sc  Sc87  1  0.71164235  0.30609872  0.89657920  1
  Sc  Sc88  1  0.90274839  0.89305894  0.69539505  1
  Sc  Sc89  1  0.09924201  0.69316945  0.50293837  1
  Sc  Sc90  1  0.91137348  0.49713361  0.30393826  1
  Sc  Sc91  1  0.90121244  0.69864907  0.89997210  1
  Sc  Sc92  1  0.90362252  0.69537291  0.29491775  1
  Sc  Sc93  1  0.09713459  0.29994601  0.89492601  1
  Sc  Sc94  1  0.51371246  0.09914680  0.49982750  1
  Sc  Sc95  1  0.29453908  0.69531798  0.69365363  1
  Sc  Sc96  1  0.70220309  0.70984065  0.70115352  1
  Sc  Sc97  1  0.29521966  0.09338227  0.50871874  1
  Sc  Sc98  1  0.89630183  0.69735619  0.70489862  1
  Sc  Sc99  1  0.90156692  0.10785718  0.90286865  1
  Nb  Nb100  1  0.49862906  0.29667745  0.09897413  1
  Nb  Nb101  1  0.70589185  0.89686730  0.70576315  1
  Nb  Nb102  1  0.90441098  0.90172989  0.50010706  1
  Nb  Nb103  1  0.09575621  0.90171727  0.49705669  1
  Nb  Nb104  1  0.70496183  0.70071226  0.49441627  1
  Nb  Nb105  1  0.28758400  0.10840385  0.09291795  1
  Nb  Nb106  1  0.70477953  0.50767678  0.90992664  1
  Nb  Nb107  1  0.09493672  0.90870461  0.29737586  1
  Nb  Nb108  1  0.90168761  0.90137537  0.29758927  1
  Nb  Nb109  1  0.90663599  0.09973452  0.30598971  1
  Nb  Nb110  1  0.09872167  0.50227136  0.90447743  1
  Nb  Nb111  1  0.90231246  0.30245200  0.71442130  1
  Nb  Nb112  1  0.09304295  0.89828395  0.10474675  1
  Nb  Nb113  1  0.71037793  0.50089082  0.09010789  1
  Nb  Nb114  1  0.29975247  0.50317263  0.90029754  1
  Nb  Nb115  1  0.10798705  0.09797883  0.10235054  1
  Nb  Nb116  1  0.49426986  0.89463292  0.50115289  1
  Nb  Nb117  1  0.30347957  0.29151629  0.09558598  1
  Nb  Nb118  1  0.29875312  0.49751952  0.29994122  1
  Nb  Nb119  1  0.90214202  0.30423594  0.90043673  1
  Nb  Nb120  1  0.29532074  0.50349925  0.49157269  1
  Nb  Nb121  1  0.09441830  0.10044403  0.29887698  1
  Nb  Nb122  1  0.49337900  0.49539400  0.29854756  1
  Nb  Nb123  1  0.09617725  0.49545584  0.09424200  1
  Nb  Nb124  1  0.90399312  0.90061777  0.89971265  1
  Nb  Nb125  1  0.40151769  0.39754201  0.19627667  1
  Nb  Nb126  1  0.80918308  -0.00461751  0.39965055  1
  Nb  Nb127  1  0.39813390  0.59751061  0.00196168  1
  Nb  Nb128  1  0.39385634  0.40256973  0.80091740  1
  Nb  Nb129  1  0.38917406  0.00266586  0.00610725  1
  Nb  Nb130  1  0.40202806  0.00134187  0.40089296  1
  Nb  Nb131  1  0.60069215  0.20422385  0.00063893  1
  Nb  Nb132  1  0.40290804  0.20205720  0.60247191  1
  Nb  Nb133  1  0.40442281  0.20633730  0.79481857  1
  Nb  Nb134  1  -0.00238386  0.80894911  0.39874247  1
  Nb  Nb135  1  0.59864326  0.20199540  0.80199579  1
  Nb  Nb136  1  0.19656390  0.19874997  0.39963598  1
  Nb  Nb137  1  0.00377793  -0.00299576  0.00628655  1
  Nb  Nb138  1  0.20339543  0.39835202  0.39581573  1
  Nb  Nb139  1  0.80231511  0.80473286  0.40012662  1
  Nb  Nb140  1  0.40086347  0.58913902  0.19820063  1
  Nb  Nb141  1  0.19736102  0.40433895  0.00234673  1
  Nb  Nb142  1  0.79856988  0.59120343  0.19262009  1
  Nb  Nb143  1  0.60670987  0.80023674  0.40840941  1
  Nb  Nb144  1  0.39525932  0.39962584  0.39305900  1
  Nb  Nb145  1  0.39712090  0.80099890  0.79592094  1
  Nb  Nb146  1  0.39578652  0.19862105  0.40266378  1
  Nb  Nb147  1  0.80327887  -0.00427367  0.79835856  1
  Nb  Nb148  1  0.59827514  0.80329040  0.00385050  1
  Nb  Nb149  1  0.18726236  0.80832092  0.39980590  1
  Pd  Pd150  1  0.80230410  0.78697408  0.20217745  1
  Pd  Pd151  1  0.61063936  0.00151011  0.79919514  1
  Pd  Pd152  1  0.38913894  0.40372277  0.60352738  1
  Pd  Pd153  1  0.79403098  0.59802318  0.61259005  1
  Pd  Pd154  1  0.00283879  0.19894590  0.80585986  1
  Pd  Pd155  1  0.59008637  0.00107232  0.00844688  1
  Pd  Pd156  1  0.59200547  0.60212466  0.40110775  1
  Pd  Pd157  1  0.59823815  0.61003403  -0.00331188  1
  Pd  Pd158  1  0.59788463  0.40273576  0.40240473  1
  Pd  Pd159  1  0.20436742  0.79899901  0.79328099  1
  Pd  Pd160  1  0.19222659  -0.00064115  0.60053908  1
  Pd  Pd161  1  0.20198143  0.60828991  0.19821581  1
  Pd  Pd162  1  0.40152598  0.80275371  0.39482376  1
  Pd  Pd163  1  0.40504513  0.59903421  0.39824975  1
  Pd  Pd164  1  0.19060347  0.79262050  0.20942840  1
  Pd  Pd165  1  0.39534280  0.00755397  0.19893189  1
  Pd  Pd166  1  -0.00146006  0.59701995  0.60365159  1
  Pd  Pd167  1  0.81069605  -0.00213566  -0.00526288  1
  Pd  Pd168  1  0.20159483  0.40429443  0.80886163  1
  Pd  Pd169  1  0.80842510  0.40705232  0.20507737  1
  Pd  Pd170  1  0.60115364  -0.00436218  0.59652102  1
  Pd  Pd171  1  0.80953501  0.20974616  0.60496720  1
  Pd  Pd172  1  0.40597317  0.80249901  -0.01192048  1
  Pd  Pd173  1  0.20376597  0.00347531  0.39977323  1
  Pd  Pd174  1  -0.00244957  0.00604200  0.19435768  1
  Pd  Pd175  1  0.79595311  0.19421423  0.80122816  1
  Pd  Pd176  1  0.00567201  0.19651181  -0.00076941  1
  Pd  Pd177  1  0.19058930  0.79955366  0.00345445  1
  Pd  Pd178  1  0.80238024  0.40136683  0.38790458  1
  Pd  Pd179  1  0.20009510  0.38866076  0.19554193  1
  Pd  Pd180  1  0.79514339  0.79831429  -0.00392270  1
  Pd  Pd181  1  0.40819699  0.19193251  -0.00612648  1
  Pd  Pd182  1  0.39837411  0.19677663  0.20381446  1
  Pd  Pd183  1  0.39257056  0.40540911  0.00053306  1
  Pd  Pd184  1  -0.00382956  0.79294429  0.79886085  1
  Pd  Pd185  1  0.39752764  0.79030724  0.21474685  1
  Pd  Pd186  1  0.80345768  0.40708190  0.60462872  1
  Pd  Pd187  1  0.61338468  0.60069871  0.60532705  1
  Pd  Pd188  1  -0.00978163  0.59213986  0.18822363  1
  Pd  Pd189  1  0.60106788  0.58912417  0.19503673  1
  Pd  Pd190  1  0.60860882  0.39376404  -0.00724501  1
  Pd  Pd191  1  0.59726109  0.20090500  0.60714944  1
  Pd  Pd192  1  0.59976468  0.40266996  0.19723111  1
  Pd  Pd193  1  0.60534334  -0.01198734  0.40822271  1
  Pd  Pd194  1  0.80487755  0.41034760  0.80724925  1
  Pd  Pd195  1  -0.01001107  0.40226717  0.60638881  1
  Pd  Pd196  1  0.79873855  0.19839217  0.20443616  1
  Pd  Pd197  1  0.39284428  -0.00091063  0.80788811  1
  Pd  Pd198  1  0.19885516  0.60044755  0.00186786  1
  Pd  Pd199  1  -0.00032582  0.79264895  0.59535842  1
  Rh  Rh200  1  0.19744467  -0.00423076  0.79190873  1
  Rh  Rh201  1  0.20062005  0.19076802  0.59849780  1
  Rh  Rh202  1  -0.00422316  -0.00239248  0.39708542  1
  Rh  Rh203  1  -0.00035720  -0.00344408  0.60506279  1
  Rh  Rh204  1  0.40907286  0.00729990  0.58768943  1
  Rh  Rh205  1  0.80280994  0.79887127  0.59852998  1
  Rh  Rh206  1  0.18994852  0.21349864  0.00396139  1
  Rh  Rh207  1  0.80835067  -0.00450994  0.60402477  1
  Rh  Rh208  1  0.59465193  0.80164290  0.80499807  1
  Rh  Rh209  1  0.80571808  0.60368917  0.00264778  1
  Rh  Rh210  1  0.00140682  0.59983521  -0.00014049  1
  Rh  Rh211  1  0.00115474  0.80667141  -0.00112430  1
  Rh  Rh212  1  0.19636199  0.59515715  0.59600365  1
  Rh  Rh213  1  0.79605687  0.20903222  0.00245928  1
  Rh  Rh214  1  0.19116138  0.20121003  0.19917188  1
  Rh  Rh215  1  0.00021705  0.19391193  0.19867477  1
  Rh  Rh216  1  -0.00613746  0.00003620  0.80623016  1
  Rh  Rh217  1  0.19250162  0.59857561  0.39946791  1
  Rh  Rh218  1  -0.00430228  0.40195108  0.19452209  1
  Rh  Rh219  1  0.00577857  0.39578768  -0.00636782  1
  Rh  Rh220  1  0.80514415  0.60221278  0.38479414  1
  Rh  Rh221  1  0.80743932  0.80769941  0.80183005  1
  Rh  Rh222  1  -0.00130397  0.60784768  0.40237501  1
  Rh  Rh223  1  0.19990636  0.20010981  0.79999641  1
  Rh  Rh224  1  -0.00907667  0.20956400  0.60650706  1
  Rh  Rh225  1  0.80553963  0.01108606  0.20946101  1
  Rh  Rh226  1  0.39739217  0.79066549  0.60698719  1
  Rh  Rh227  1  0.00608628  0.39443590  0.39617331  1
  Rh  Rh228  1  0.39331911  0.60046160  0.80228177  1
  Rh  Rh229  1  0.60711878  0.79952630  0.59673005  1
  Rh  Rh230  1  0.19394163  0.59626826  0.79960189  1
  Rh  Rh231  1  0.19511811  0.00060662  0.19625026  1
  Rh  Rh232  1  0.61180177  0.60480731  0.80094979  1
  Rh  Rh233  1  0.79881216  0.59913533  0.80279166  1
  Rh  Rh234  1  0.19717158  -0.00930030  0.01245656  1
  Rh  Rh235  1  0.39370553  0.59969924  0.59695903  1
  Rh  Rh236  1  0.60189048  0.00324071  0.19516053  1
  Rh  Rh237  1  0.19523200  0.79698116  0.59282475  1
  Rh  Rh238  1  0.80282742  0.19426581  0.39489084  1
  Rh  Rh239  1  0.60201350  0.20457542  0.40233949  1
  Rh  Rh240  1  0.19757336  0.41159326  0.59272614  1
  Rh  Rh241  1  -0.00222137  0.40334464  0.80552509  1
  Rh  Rh242  1  0.60181641  0.80248940  0.19956893  1
  Rh  Rh243  1  0.59993483  0.39814140  0.80958056  1
  Rh  Rh244  1  0.00470485  0.20367845  0.39769228  1
  Rh  Rh245  1  0.00402002  0.59946622  0.80243684  1
  Rh  Rh246  1  0.00352073  0.79920030  0.20633564  1
  Rh  Rh247  1  0.61588231  0.41337862  0.59195649  1
  Rh  Rh248  1  0.80543045  0.39840362  -0.00697159  1
  Rh  Rh249  1  0.60878714  0.20143255  0.18917003  1
