# generated using pymatgen
data_ZrScNbPdRh
_symmetry_space_group_name_H-M   'P 1'
_cell_length_a   16.55772771
_cell_length_b   16.55728257
_cell_length_c   16.55398034
_cell_angle_alpha   89.98495899
_cell_angle_beta   89.99130262
_cell_angle_gamma   89.98741731
_symmetry_Int_Tables_number   1
_chemical_formula_structural   ZrScNbPdRh
_chemical_formula_sum   'Zr50 Sc50 Nb50 Pd50 Rh50'
_cell_volume   4538.28955416
_cell_formula_units_Z   50
loop_
 _symmetry_equiv_pos_site_id
 _symmetry_equiv_pos_as_xyz
  1  'x, y, z'
loop_
 _atom_site_type_symbol
 _atom_site_label
 _atom_site_symmetry_multiplicity
 _atom_site_fract_x
 _atom_site_fract_y
 _atom_site_fract_z
 _atom_site_occupancy
  Zr  Zr0  1  0.09277147  0.50290369  0.29432596  1
  Zr  Zr1  1  0.49652753  0.29858813  0.49973715  1
  Zr  Zr2  1  0.90208426  0.49402770  0.89749119  1
  Zr  Zr3  1  0.30519038  0.70064621  0.11192977  1
  Zr  Zr4  1  0.89305608  0.90287602  0.10094054  1
  Zr  Zr5  1  0.09928574  0.70263497  0.50308117  1
  Zr  Zr6  1  0.30610322  0.90174919  0.69856754  1
  Zr  Zr7  1  0.49491000  0.09755442  0.69853758  1
  Zr  Zr8  1  0.89341630  0.90969856  0.69714266  1
  Zr  Zr9  1  0.30905408  0.50106410  0.09050313  1
  Zr  Zr10  1  0.09675140  0.29069873  0.09862279  1
  Zr  Zr11  1  0.89558724  0.89442629  0.29923242  1
  Zr  Zr12  1  0.10247742  0.09796031  0.50471104  1
  Zr  Zr13  1  0.50743713  0.69922844  0.90571341  1
  Zr  Zr14  1  0.49624581  0.90458312  0.29364627  1
  Zr  Zr15  1  0.70250018  0.89900215  0.50106196  1
  Zr  Zr16  1  0.09493321  0.90000003  0.49884721  1
  Zr  Zr17  1  0.09768633  0.10653314  0.90988553  1
  Zr  Zr18  1  0.09952634  0.69450976  0.70220723  1
  Zr  Zr19  1  0.90911109  0.10592269  0.70375348  1
  Zr  Zr20  1  0.29974251  0.89378334  0.29965850  1
  Zr  Zr21  1  0.50662364  0.70040773  0.50790970  1
  Zr  Zr22  1  0.29425525  0.90815117  0.49575344  1
  Zr  Zr23  1  0.70210675  0.50533288  0.30381361  1
  Zr  Zr24  1  0.70710633  0.70244972  0.29917647  1
  Zr  Zr25  1  0.70354502  0.69961197  0.89271694  1
  Zr  Zr26  1  0.50295660  0.29729632  0.70249469  1
  Zr  Zr27  1  0.29716280  0.09857499  0.30158767  1
  Zr  Zr28  1  0.90309943  0.08779934  0.50701082  1
  Zr  Zr29  1  0.89783219  0.70110208  0.09571563  1
  Zr  Zr30  1  0.70449836  0.09628356  0.10312672  1
  Zr  Zr31  1  0.69877941  0.09592667  0.49144133  1
  Zr  Zr32  1  0.70375973  0.30579300  0.49741181  1
  Zr  Zr33  1  0.29689596  0.48582407  0.49635759  1
  Zr  Zr34  1  0.90056509  0.50915500  0.29809567  1
  Zr  Zr35  1  0.10298780  0.30775894  0.49320818  1
  Zr  Zr36  1  0.30526327  0.89879849  0.10918862  1
  Zr  Zr37  1  0.10447340  0.50541398  0.90445076  1
  Zr  Zr38  1  0.70260089  0.89708411  0.90104655  1
  Zr  Zr39  1  0.69902474  0.29270085  0.10181427  1
  Zr  Zr40  1  0.70089323  0.30215362  0.90497495  1
  Zr  Zr41  1  0.30126579  0.30220180  0.10122678  1
  Zr  Zr42  1  0.70663798  0.50388543  0.70029294  1
  Zr  Zr43  1  0.50150303  0.29923280  0.29117478  1
  Zr  Zr44  1  0.70376170  0.89144914  0.70488672  1
  Zr  Zr45  1  0.69125350  0.10387346  0.29182875  1
  Zr  Zr46  1  0.10026970  0.70414758  0.89562260  1
  Zr  Zr47  1  0.70260032  0.49997122  0.89952223  1
  Zr  Zr48  1  0.90304744  0.88988011  0.90268456  1
  Zr  Zr49  1  0.29380608  0.69548474  0.90050634  1
  Sc  Sc50  1  0.10146101  0.69350972  0.09852628  1
  Sc  Sc51  1  0.69264958  0.69933725  0.49907951  1
  Sc  Sc52  1  0.90582329  0.08875006  0.28964283  1
  Sc  Sc53  1  0.09936329  0.89523365  0.90032482  1
  Sc  Sc54  1  0.29495462  0.29798580  0.30484064  1
  Sc  Sc55  1  0.89866030  0.69244384  0.90452769  1
  Sc  Sc56  1  0.70588801  0.69741141  0.08722204  1
  Sc  Sc57  1  0.09819518  0.89438999  0.70457235  1
  Sc  Sc58  1  0.49973828  0.10001339  0.90557420  1
  Sc  Sc59  1  0.50031696  0.30926590  0.09268113  1
  Sc  Sc60  1  0.71194139  0.09606911  0.71125484  1
  Sc  Sc61  1  0.69988411  0.90295710  0.30325038  1
  Sc  Sc62  1  0.30250218  0.71592226  0.50240858  1
  Sc  Sc63  1  0.49370477  0.89868308  0.09937551  1
  Sc  Sc64  1  0.29905211  0.90193819  0.90874904  1
  Sc  Sc65  1  0.90662213  0.50840516  0.09719695  1
  Sc  Sc66  1  0.50455415  0.70336021  0.30969769  1
  Sc  Sc67  1  0.30621280  0.49758520  0.28777387  1
  Sc  Sc68  1  0.89982622  0.50187975  0.69909949  1
  Sc  Sc69  1  0.50269561  0.90330211  0.89954820  1
  Sc  Sc70  1  0.50372524  0.89681944  0.69930739  1
  Sc  Sc71  1  0.90707641  0.30994549  0.29944083  1
  Sc  Sc72  1  0.30240864  0.30097804  0.92043161  1
  Sc  Sc73  1  0.90234280  0.10064919  0.10127862  1
  Sc  Sc74  1  0.90576722  0.69755025  0.50106629  1
  Sc  Sc75  1  0.08988748  0.30445693  0.90529172  1
  Sc  Sc76  1  0.50370171  0.50091023  0.91622410  1
  Sc  Sc77  1  0.09290307  0.29935051  0.69578151  1
  Sc  Sc78  1  0.50300902  0.09185710  0.29840166  1
  Sc  Sc79  1  0.10338475  0.70026435  0.29482783  1
  Sc  Sc80  1  0.09367596  0.90188290  0.30478870  1
  Sc  Sc81  1  0.90125024  0.10884044  0.89563557  1
  Sc  Sc82  1  0.09449254  0.49709468  0.70286899  1
  Sc  Sc83  1  0.50392149  0.09400207  0.10398958  1
  Sc  Sc84  1  0.90528625  0.31014859  0.49969948  1
  Sc  Sc85  1  0.09274821  0.90187749  0.09019257  1
  Sc  Sc86  1  0.90233438  0.30389625  0.71146830  1
  Sc  Sc87  1  0.69991733  0.10463475  0.90567214  1
  Sc  Sc88  1  0.90187618  0.50260779  0.49697525  1
  Sc  Sc89  1  0.90293872  0.89995284  0.49903399  1
  Sc  Sc90  1  0.89182037  0.69679294  0.69850805  1
  Sc  Sc91  1  0.10031038  0.29395370  0.29372280  1
  Sc  Sc92  1  0.29108716  0.70325502  0.70269159  1
  Sc  Sc93  1  0.51563125  0.49909629  0.69884454  1
  Sc  Sc94  1  0.29606715  0.28696001  0.49968720  1
  Sc  Sc95  1  0.29698601  0.10668870  0.08670671  1
  Sc  Sc96  1  0.50051129  0.89173680  0.49616327  1
  Sc  Sc97  1  0.30254486  0.10127482  0.68120370  1
  Sc  Sc98  1  0.49334585  0.09779383  0.49122479  1
  Sc  Sc99  1  0.70139284  0.30747198  0.71208143  1
  Nb  Nb100  1  0.68906452  0.70103370  0.70253301  1
  Nb  Nb101  1  0.29443039  0.70055996  0.30178154  1
  Nb  Nb102  1  0.30420299  0.30111641  0.70055778  1
  Nb  Nb103  1  0.10545174  0.50085394  0.10119666  1
  Nb  Nb104  1  0.89674711  0.29929270  0.90557892  1
  Nb  Nb105  1  0.50163655  0.29986190  0.89546215  1
  Nb  Nb106  1  0.50006817  0.49751567  0.30073883  1
  Nb  Nb107  1  0.50370182  0.50366015  0.49861686  1
  Nb  Nb108  1  0.09690665  0.10476846  0.11102140  1
  Nb  Nb109  1  0.29795291  0.09774674  0.49569204  1
  Nb  Nb110  1  0.29966328  0.49960955  0.89749480  1
  Nb  Nb111  1  0.70418907  0.89955310  0.10189106  1
  Nb  Nb112  1  0.89570639  0.69676015  0.28848318  1
  Nb  Nb113  1  0.29827547  0.10622297  0.89775325  1
  Nb  Nb114  1  0.49985777  0.70211103  0.70117458  1
  Nb  Nb115  1  0.09588542  0.10545422  0.29106252  1
  Nb  Nb116  1  0.09992038  0.50375074  0.49777605  1
  Nb  Nb117  1  0.30090254  0.49796213  0.70170212  1
  Nb  Nb118  1  0.68933651  0.49337746  0.09406164  1
  Nb  Nb119  1  0.50007018  0.69478712  0.09880674  1
  Nb  Nb120  1  0.09676360  0.10370102  0.70736116  1
  Nb  Nb121  1  0.69040993  0.50203319  0.50175928  1
  Nb  Nb122  1  0.70023077  0.29909896  0.29816522  1
  Nb  Nb123  1  0.49852032  0.50391698  0.10675444  1
  Nb  Nb124  1  0.89603026  0.29686036  0.09415345  1
  Nb  Nb125  1  0.40178408  0.79180969  0.80160551  1
  Nb  Nb126  1  0.20604529  0.59978529  0.40192508  1
  Nb  Nb127  1  0.40032985  0.40194851  0.60411101  1
  Nb  Nb128  1  0.60055489  0.40455413  0.39861110  1
  Nb  Nb129  1  0.39823139  0.59684808  0.40513924  1
  Nb  Nb130  1  0.39825777  0.59520096  0.60081156  1
  Nb  Nb131  1  -0.00917009  0.79749391  0.19829192  1
  Nb  Nb132  1  0.80454711  0.19998917  0.39838822  1
  Nb  Nb133  1  0.39928999  0.20045325  0.19736636  1
  Nb  Nb134  1  0.60544043  0.00337087  0.60019364  1
  Nb  Nb135  1  0.39847975  0.40083416  0.80187585  1
  Nb  Nb136  1  0.19451693  0.00602452  0.19691900  1
  Nb  Nb137  1  0.59667809  0.59873458  0.19582426  1
  Nb  Nb138  1  0.79571267  0.39972802  0.19564617  1
  Nb  Nb139  1  0.20151908  0.01255400  0.80042679  1
  Nb  Nb140  1  0.60196153  0.79472156  0.19320297  1
  Nb  Nb141  1  0.20300331  0.59241065  0.59432680  1
  Nb  Nb142  1  0.79845308  0.20056581  0.59578909  1
  Nb  Nb143  1  0.20862703  0.39602889  0.80217293  1
  Nb  Nb144  1  0.60652145  0.19483352  0.60016744  1
  Nb  Nb145  1  0.20512768  0.20229382  0.79930897  1
  Nb  Nb146  1  0.19582142  0.40299388  0.19008684  1
  Nb  Nb147  1  0.39960646  0.59678874  0.79697024  1
  Nb  Nb148  1  -0.00094845  0.19380429  0.40005749  1
  Nb  Nb149  1  0.39414357  0.20420024  0.80289779  1
  Pd  Pd150  1  0.80323428  0.79287687  0.40833534  1
  Pd  Pd151  1  0.19372408  0.40557356  0.38261243  1
  Pd  Pd152  1  -0.00297214  0.40624785  0.60054754  1
  Pd  Pd153  1  -0.00486992  0.00575442  -0.00088671  1
  Pd  Pd154  1  0.80179551  0.40474644  0.00874897  1
  Pd  Pd155  1  0.80537436  0.39777725  0.60447114  1
  Pd  Pd156  1  0.60305591  0.80491353  0.00640878  1
  Pd  Pd157  1  0.59431531  0.19950674  0.00607946  1
  Pd  Pd158  1  0.18507457  0.81002622  0.19704452  1
  Pd  Pd159  1  0.59863174  0.39428964  0.59686478  1
  Pd  Pd160  1  -0.00293151  0.39758011  0.19092056  1
  Pd  Pd161  1  0.60170049  0.20601783  0.40223204  1
  Pd  Pd162  1  0.19890940  0.79953416  0.60232822  1
  Pd  Pd163  1  0.19174162  0.00294098  0.39134499  1
  Pd  Pd164  1  0.39378829  0.00108577  0.80534340  1
  Pd  Pd165  1  0.20286961  0.60383009  0.00595408  1
  Pd  Pd166  1  0.19784579  0.00203169  0.00152137  1
  Pd  Pd167  1  0.19708398  0.20333899  0.60272856  1
  Pd  Pd168  1  0.81095881  0.20540046  0.20872234  1
  Pd  Pd169  1  0.00602163  -0.00217709  0.80518326  1
  Pd  Pd170  1  0.59524763  0.59457295  0.80229519  1
  Pd  Pd171  1  -0.00605249  0.59995889  0.80010749  1
  Pd  Pd172  1  0.00449032  0.60734336  0.39647690  1
  Pd  Pd173  1  0.60178119  0.00185008  0.79786779  1
  Pd  Pd174  1  0.19298034  -0.00140347  0.60956221  1
  Pd  Pd175  1  0.80299541  0.00568768  0.39108257  1
  Pd  Pd176  1  0.40964197  -0.00524554  0.58853178  1
  Pd  Pd177  1  0.60478970  0.40379763  0.20348662  1
  Pd  Pd178  1  0.80386685  0.00142079  0.81112217  1
  Pd  Pd179  1  -0.00275399  0.79076617  0.39044106  1
  Pd  Pd180  1  0.79438759  0.60328814  0.59405772  1
  Pd  Pd181  1  0.80037985  0.79191267  0.59577693  1
  Pd  Pd182  1  0.39962207  0.79687830  -0.00479583  1
  Pd  Pd183  1  -0.00516032  0.20591816  0.59358935  1
  Pd  Pd184  1  -0.00656685  0.80250019  0.60855470  1
  Pd  Pd185  1  0.60002753  -0.00494108  0.00415421  1
  Pd  Pd186  1  0.59887758  0.19159992  0.79751933  1
  Pd  Pd187  1  0.40741387  0.60746485  0.21244592  1
  Pd  Pd188  1  0.80633394  0.00626401  -0.00733446  1
  Pd  Pd189  1  0.00046356  0.40367593  0.00623093  1
  Pd  Pd190  1  0.19952555  0.39822472  0.60697650  1
  Pd  Pd191  1  -0.00960533  0.79500035  0.79397758  1
  Pd  Pd192  1  0.19955379  0.79807095  0.00860023  1
  Pd  Pd193  1  0.39976927  0.00396113  0.00084824  1
  Pd  Pd194  1  0.40081714  0.79679038  0.39803502  1
  Pd  Pd195  1  0.79963603  0.40032855  0.39362834  1
  Pd  Pd196  1  0.80078816  0.60551840  0.41147252  1
  Pd  Pd197  1  0.79099331  0.59098699  0.18595581  1
  Pd  Pd198  1  0.40051458  0.19640865  0.39152455  1
  Pd  Pd199  1  0.40414481  0.39940278  0.40037222  1
  Rh  Rh200  1  0.80134337  0.60114301  0.79778820  1
  Rh  Rh201  1  0.80444296  0.79395639  0.79990349  1
  Rh  Rh202  1  0.00446344  0.39896461  0.39859337  1
  Rh  Rh203  1  0.40458094  0.20209188  0.59935012  1
  Rh  Rh204  1  0.40962901  0.19814967  0.00079321  1
  Rh  Rh205  1  0.00605033  0.59577964  0.60159436  1
  Rh  Rh206  1  0.20278805  0.59185341  0.20333777  1
  Rh  Rh207  1  0.00521976  0.60026788  -0.00248275  1
  Rh  Rh208  1  0.79377559  0.00002050  0.20432513  1
  Rh  Rh209  1  0.60393860  -0.01260309  0.19439053  1
  Rh  Rh210  1  0.80233013  0.19662664  -0.00193016  1
  Rh  Rh211  1  0.00725793  -0.00666617  0.60853474  1
  Rh  Rh212  1  0.60259398  0.80503189  0.39192099  1
  Rh  Rh213  1  0.39913888  0.60278446  -0.00488770  1
  Rh  Rh214  1  0.59064340  0.19992398  0.19364943  1
  Rh  Rh215  1  0.79342997  0.00529189  0.60396941  1
  Rh  Rh216  1  0.80160901  0.20695921  0.80028966  1
  Rh  Rh217  1  0.00425421  0.39947139  0.80368176  1
  Rh  Rh218  1  0.60314939  0.80478327  0.60395270  1
  Rh  Rh219  1  0.79819301  0.59166535  -0.00156659  1
  Rh  Rh220  1  0.19901004  0.59043419  0.79146273  1
  Rh  Rh221  1  0.21019304  0.81744253  0.80265641  1
  Rh  Rh222  1  0.00725944  -0.01177191  0.19616950  1
  Rh  Rh223  1  0.19409964  0.20283564  -0.00148521  1
  Rh  Rh224  1  0.59739714  0.40650367  0.80983905  1
  Rh  Rh225  1  0.39509641  0.39371111  0.19949178  1
  Rh  Rh226  1  0.40053104  0.79778271  0.60842058  1
  Rh  Rh227  1  0.00582824  0.20915083  0.80534025  1
  Rh  Rh228  1  -0.01027250  0.20594728  0.20398718  1
  Rh  Rh229  1  0.40743523  0.40282395  -0.00340914  1
  Rh  Rh230  1  0.80297175  0.39988885  0.80241000  1
  Rh  Rh231  1  0.39938284  -0.00321411  0.40195338  1
  Rh  Rh232  1  0.19475117  0.39951159  0.00044646  1
  Rh  Rh233  1  0.79836440  0.80013789  -0.00411271  1
  Rh  Rh234  1  0.60165002  0.60314230  0.60506271  1
  Rh  Rh235  1  -0.00789949  0.19751328  0.00340249  1
  Rh  Rh236  1  0.21040138  0.19941508  0.19738796  1
  Rh  Rh237  1  0.60326655  0.59905287  0.00595195  1
  Rh  Rh238  1  0.41142541  0.78965765  0.20571960  1
  Rh  Rh239  1  0.19725527  0.79619970  0.39972489  1
  Rh  Rh240  1  0.00065580  0.79327677  0.00425507  1
  Rh  Rh241  1  0.38619009  0.01214235  0.19465677  1
  Rh  Rh242  1  0.79671277  0.80147421  0.19579538  1
  Rh  Rh243  1  0.00259581  0.00674970  0.39782671  1
  Rh  Rh244  1  0.59394210  0.80202321  0.80146013  1
  Rh  Rh245  1  0.59681331  0.39712760  -0.00322993  1
  Rh  Rh246  1  0.19060296  0.19390975  0.40439765  1
  Rh  Rh247  1  0.59435027  -0.00904414  0.40418981  1
  Rh  Rh248  1  0.00203312  0.60863442  0.19558669  1
  Rh  Rh249  1  0.59504699  0.59584564  0.39347668  1
