# generated using pymatgen
data_ZrScNbPdRh
_symmetry_space_group_name_H-M   'P 1'
_cell_length_a   16.55412950
_cell_length_b   16.55468074
_cell_length_c   16.55352398
_cell_angle_alpha   89.98461040
_cell_angle_beta   90.01962552
_cell_angle_gamma   90.00581535
_symmetry_Int_Tables_number   1
_chemical_formula_structural   ZrScNbPdRh
_chemical_formula_sum   'Zr50 Sc50 Nb50 Pd50 Rh50'
_cell_volume   4536.46512822
_cell_formula_units_Z   50
loop_
 _symmetry_equiv_pos_site_id
 _symmetry_equiv_pos_as_xyz
  1  'x, y, z'
loop_
 _atom_site_type_symbol
 _atom_site_label
 _atom_site_symmetry_multiplicity
 _atom_site_fract_x
 _atom_site_fract_y
 _atom_site_fract_z
 _atom_site_occupancy
  Zr  Zr0  1  0.10200004  0.50285266  0.90416403  1
  Zr  Zr1  1  0.30608766  0.10809010  0.30124568  1
  Zr  Zr2  1  0.30295052  0.71521943  0.49345092  1
  Zr  Zr3  1  0.49339334  0.49442707  0.70052735  1
  Zr  Zr4  1  0.29439741  0.49740934  0.09950123  1
  Zr  Zr5  1  0.09930130  0.09741988  0.09699427  1
  Zr  Zr6  1  0.09699737  0.90156722  0.10128608  1
  Zr  Zr7  1  0.89733850  0.29767460  0.10048585  1
  Zr  Zr8  1  0.70837068  0.90062616  0.50198797  1
  Zr  Zr9  1  0.50161761  0.10056202  0.70040839  1
  Zr  Zr10  1  0.49961538  0.70386426  0.90535566  1
  Zr  Zr11  1  0.70407179  0.28998993  0.69825145  1
  Zr  Zr12  1  0.49462843  0.30012439  0.70009015  1
  Zr  Zr13  1  0.50007308  0.69553117  0.49567896  1
  Zr  Zr14  1  0.90244238  0.30133490  0.30143174  1
  Zr  Zr15  1  0.69931199  0.49989623  0.70810033  1
  Zr  Zr16  1  0.29787044  0.50030348  0.50099291  1
  Zr  Zr17  1  0.11506308  0.89793260  0.49483823  1
  Zr  Zr18  1  0.09957886  0.29977366  0.71072141  1
  Zr  Zr19  1  0.89662971  0.49876263  0.90197469  1
  Zr  Zr20  1  0.29869766  0.09241801  0.50856547  1
  Zr  Zr21  1  0.69201386  0.69448726  0.30255853  1
  Zr  Zr22  1  0.70202732  0.50200398  0.90513668  1
  Zr  Zr23  1  0.50346506  0.10024288  0.90352619  1
  Zr  Zr24  1  0.69794806  0.69695621  0.89567948  1
  Zr  Zr25  1  0.70051707  0.09659460  0.89429753  1
  Zr  Zr26  1  0.10555735  0.49631180  0.29678478  1
  Zr  Zr27  1  0.49707526  0.09759207  0.10467110  1
  Zr  Zr28  1  0.49703389  0.49842090  0.89625402  1
  Zr  Zr29  1  0.09215933  0.09487019  0.49917267  1
  Zr  Zr30  1  0.69778323  0.29850379  0.10174145  1
  Zr  Zr31  1  0.10387920  0.69875341  0.89624746  1
  Zr  Zr32  1  0.29143533  0.88666572  0.31165054  1
  Zr  Zr33  1  0.09034623  0.10598820  0.90184172  1
  Zr  Zr34  1  0.90013860  0.70801747  0.69864979  1
  Zr  Zr35  1  0.49545256  0.10793214  0.29879101  1
  Zr  Zr36  1  0.30387508  0.89952353  0.67847596  1
  Zr  Zr37  1  0.10179309  0.49905712  0.49730738  1
  Zr  Zr38  1  0.30042914  0.29575646  0.29640655  1
  Zr  Zr39  1  0.89969394  0.49800333  0.70443635  1
  Zr  Zr40  1  0.90424565  0.70120976  0.29855688  1
  Zr  Zr41  1  0.90489839  0.91134318  0.50588192  1
  Zr  Zr42  1  0.69462563  0.09935246  0.70696718  1
  Zr  Zr43  1  0.89877571  0.90045703  0.29262170  1
  Zr  Zr44  1  0.29875838  0.69680839  0.70133882  1
  Zr  Zr45  1  0.89900186  0.90592757  0.89533229  1
  Zr  Zr46  1  0.10485699  0.50196381  0.10182034  1
  Zr  Zr47  1  0.90173801  0.10196046  0.09581746  1
  Zr  Zr48  1  0.89414716  0.29931754  0.70235509  1
  Zr  Zr49  1  0.49715640  0.69115635  0.29969876  1
  Sc  Sc50  1  0.70201661  0.09435976  0.29842484  1
  Sc  Sc51  1  0.08870723  0.89890353  0.69089933  1
  Sc  Sc52  1  0.69637310  0.89676855  0.89661050  1
  Sc  Sc53  1  0.10188584  0.69290145  0.50385260  1
  Sc  Sc54  1  0.10681600  0.50602046  0.70162000  1
  Sc  Sc55  1  0.30074107  0.09875035  0.91229439  1
  Sc  Sc56  1  0.89151895  0.09796766  0.70523499  1
  Sc  Sc57  1  0.49679630  0.89081924  0.90290608  1
  Sc  Sc58  1  0.29963875  0.30077166  0.50243176  1
  Sc  Sc59  1  0.70094753  0.90710030  0.29892581  1
  Sc  Sc60  1  0.49645283  0.10476475  0.50508606  1
  Sc  Sc61  1  0.89588581  0.69662317  0.89788075  1
  Sc  Sc62  1  0.70030386  0.69947728  0.08659723  1
  Sc  Sc63  1  0.50289020  0.29818954  0.90981632  1
  Sc  Sc64  1  0.30573524  0.10050112  0.10414972  1
  Sc  Sc65  1  0.69861002  0.69481830  0.49452766  1
  Sc  Sc66  1  0.91288597  0.50363407  0.30263266  1
  Sc  Sc67  1  0.50110294  0.49790815  0.49736252  1
  Sc  Sc68  1  0.49512388  0.30150136  0.50047092  1
  Sc  Sc69  1  0.89595380  0.09540045  0.29626015  1
  Sc  Sc70  1  0.90380676  0.50550427  0.49786191  1
  Sc  Sc71  1  0.69899170  0.49872013  0.48690875  1
  Sc  Sc72  1  0.10416897  0.69683261  0.29126793  1
  Sc  Sc73  1  0.50534184  0.89721521  0.70418049  1
  Sc  Sc74  1  0.90359373  0.49729784  0.09402400  1
  Sc  Sc75  1  0.30421026  0.30714796  0.09894241  1
  Sc  Sc76  1  0.10179292  0.91090495  0.90848062  1
  Sc  Sc77  1  0.70206772  0.09463224  0.50907789  1
  Sc  Sc78  1  0.49501809  0.89610784  0.50691929  1
  Sc  Sc79  1  0.10606773  0.10206998  0.29966191  1
  Sc  Sc80  1  0.89624243  0.90238447  0.10575066  1
  Sc  Sc81  1  0.49866822  0.49189364  0.09577814  1
  Sc  Sc82  1  0.29658928  0.90571801  0.08998751  1
  Sc  Sc83  1  0.50958499  0.49948676  0.29427875  1
  Sc  Sc84  1  0.11027520  0.69607911  0.09869765  1
  Sc  Sc85  1  0.10528980  0.31506980  0.10368933  1
  Sc  Sc86  1  0.90211548  0.29846977  0.90131577  1
  Sc  Sc87  1  0.09378930  0.30277096  0.89549352  1
  Sc  Sc88  1  0.50942593  0.91325684  0.29679732  1
  Sc  Sc89  1  0.69466158  0.29597726  0.90400585  1
  Sc  Sc90  1  0.50113550  0.69704078  0.70803582  1
  Sc  Sc91  1  0.09030535  0.10354116  0.70877018  1
  Sc  Sc92  1  0.70729895  0.10310193  0.10378296  1
  Sc  Sc93  1  0.69644636  0.49708300  0.09228032  1
  Sc  Sc94  1  0.09720001  0.69766025  0.69857569  1
  Sc  Sc95  1  0.90436529  0.69526477  0.50348371  1
  Sc  Sc96  1  0.09935810  0.90131410  0.29115994  1
  Sc  Sc97  1  0.30881313  0.69873108  0.90312345  1
  Sc  Sc98  1  0.70548866  0.90311839  0.70441829  1
  Sc  Sc99  1  0.89625604  0.70681363  0.10191390  1
  Nb  Nb100  1  0.30731835  0.69211838  0.29884855  1
  Nb  Nb101  1  0.50755438  0.29557997  0.10453025  1
  Nb  Nb102  1  0.28873036  0.30248331  0.89202793  1
  Nb  Nb103  1  0.90284154  0.10070083  0.90337900  1
  Nb  Nb104  1  0.69691088  0.30975073  0.30492962  1
  Nb  Nb105  1  0.29871996  0.10367270  0.70168126  1
  Nb  Nb106  1  0.09491327  0.29669128  0.49693812  1
  Nb  Nb107  1  0.30572447  0.49032728  0.70526701  1
  Nb  Nb108  1  0.49862818  0.89981758  0.09868092  1
  Nb  Nb109  1  0.30147640  0.89799650  0.50068038  1
  Nb  Nb110  1  0.29859444  0.90398664  0.89715638  1
  Nb  Nb111  1  0.30756136  0.69939318  0.10469029  1
  Nb  Nb112  1  0.69757807  0.49619928  0.29599780  1
  Nb  Nb113  1  0.70591661  0.30488514  0.49902910  1
  Nb  Nb114  1  0.50382311  0.30096949  0.29829695  1
  Nb  Nb115  1  0.89620865  0.29750829  0.50382302  1
  Nb  Nb116  1  0.30547663  0.50571865  0.30088800  1
  Nb  Nb117  1  0.89700755  0.10022800  0.49855680  1
  Nb  Nb118  1  0.89427142  0.89714018  0.69319413  1
  Nb  Nb119  1  0.49361086  0.70842531  0.09206666  1
  Nb  Nb120  1  0.29510539  0.30498886  0.70872382  1
  Nb  Nb121  1  0.70163145  0.70039917  0.69909042  1
  Nb  Nb122  1  0.69475805  0.89876651  0.10147378  1
  Nb  Nb123  1  0.30101868  0.49411634  0.88810337  1
  Nb  Nb124  1  0.09855536  0.30071359  0.30333677  1
  Nb  Nb125  1  0.80668485  0.80215926  0.40006318  1
  Nb  Nb126  1  0.59869284  -0.00396909  0.00742116  1
  Nb  Nb127  1  0.39832826  0.39975193  0.39043682  1
  Nb  Nb128  1  0.79756914  0.20536742  0.40505523  1
  Nb  Nb129  1  0.79539767  0.60182645  0.60687637  1
  Nb  Nb130  1  0.39353200  -0.00155101  0.40395098  1
  Nb  Nb131  1  0.79486205  0.59378136  0.20351515  1
  Nb  Nb132  1  0.19403138  0.20278711  0.60547919  1
  Nb  Nb133  1  0.60657311  0.39651513  0.60016137  1
  Nb  Nb134  1  0.39074114  0.20004579  0.80115732  1
  Nb  Nb135  1  -0.00172330  0.80233084  0.39782190  1
  Nb  Nb136  1  0.79636616  0.40320238  0.20547553  1
  Nb  Nb137  1  0.39357603  0.00278787  0.79779058  1
  Nb  Nb138  1  0.00238907  0.80205849  -0.00116239  1
  Nb  Nb139  1  0.20621050  -0.00082568  0.79741023  1
  Nb  Nb140  1  -0.00402275  0.20319370  0.59400797  1
  Nb  Nb141  1  0.00448515  0.20558136  0.20172594  1
  Nb  Nb142  1  0.59305581  0.79857956  0.19112393  1
  Nb  Nb143  1  0.19851073  0.20535331  -0.00264734  1
  Nb  Nb144  1  0.40139955  0.79748192  0.19770861  1
  Nb  Nb145  1  0.60771653  0.79280355  0.60167503  1
  Nb  Nb146  1  0.60705715  0.20885431  0.39924646  1
  Nb  Nb147  1  0.39500716  0.59749719  0.60185068  1
  Nb  Nb148  1  0.20383918  0.81003210  0.79935905  1
  Nb  Nb149  1  0.00194136  0.39220009  0.59694297  1
  Pd  Pd150  1  0.79650305  0.20042626  -0.00722814  1
  Pd  Pd151  1  0.59288845  0.59831989  0.00397583  1
  Pd  Pd152  1  0.39393515  0.20815483  -0.00083236  1
  Pd  Pd153  1  0.40518822  0.59682670  0.19160389  1
  Pd  Pd154  1  0.78525586  0.79327221  0.20476614  1
  Pd  Pd155  1  -0.00214067  0.40208599  0.40497537  1
  Pd  Pd156  1  0.20012126  0.60683715  0.39603495  1
  Pd  Pd157  1  0.60065034  0.59600582  0.59760369  1
  Pd  Pd158  1  0.18781943  0.00783924  0.61045097  1
  Pd  Pd159  1  0.19388975  0.39404403  0.60337375  1
  Pd  Pd160  1  0.60260441  0.80665550  0.39877711  1
  Pd  Pd161  1  0.59494999  0.60062316  0.80189266  1
  Pd  Pd162  1  0.20665960  0.39519197  0.39596609  1
  Pd  Pd163  1  0.79366695  -0.00423940  0.00174332  1
  Pd  Pd164  1  0.40345475  0.39970092  0.20382713  1
  Pd  Pd165  1  0.38874226  -0.01290282  0.21008793  1
  Pd  Pd166  1  0.79491632  0.39166558  0.81115084  1
  Pd  Pd167  1  0.60280854  0.20660998  0.59061741  1
  Pd  Pd168  1  0.79715289  0.80157144  0.80121978  1
  Pd  Pd169  1  0.80920256  0.40375812  0.39623189  1
  Pd  Pd170  1  0.00125794  -0.00394601  0.39018121  1
  Pd  Pd171  1  0.20657587  0.79689068  0.19653688  1
  Pd  Pd172  1  0.00328515  0.39708578  0.00009215  1
  Pd  Pd173  1  0.20669021  0.60133911  0.60083623  1
  Pd  Pd174  1  0.80470198  0.80513706  -0.00365349  1
  Pd  Pd175  1  -0.00692338  0.19412901  0.39568422  1
  Pd  Pd176  1  -0.00163753  0.59960017  0.79804047  1
  Pd  Pd177  1  0.39454431  0.80717577  0.79482325  1
  Pd  Pd178  1  0.60095356  0.39195875  0.79881776  1
  Pd  Pd179  1  0.00041234  -0.00475375  0.79454194  1
  Pd  Pd180  1  0.20093858  0.79693108  -0.00483806  1
  Pd  Pd181  1  -0.00544720  0.60162655  0.19048283  1
  Pd  Pd182  1  0.20496408  0.00559709  0.39429564  1
  Pd  Pd183  1  0.39641738  0.59265032  -0.00095993  1
  Pd  Pd184  1  0.39037352  0.20581307  0.60497411  1
  Pd  Pd185  1  0.21253647  0.60113307  -0.00490649  1
  Pd  Pd186  1  0.20852185  -0.00060929  0.20237201  1
  Pd  Pd187  1  0.80226081  0.60267394  0.39835014  1
  Pd  Pd188  1  -0.00533349  0.61028839  0.00509565  1
  Pd  Pd189  1  0.20160285  0.19971179  0.40919718  1
  Pd  Pd190  1  0.60303194  0.60374550  0.18565782  1
  Pd  Pd191  1  0.41520124  0.81015518  0.38960830  1
  Pd  Pd192  1  0.19423623  0.20536127  0.18997715  1
  Pd  Pd193  1  0.79928680  0.41232236  0.59485055  1
  Pd  Pd194  1  0.00440980  0.79939268  0.58860060  1
  Pd  Pd195  1  0.39687631  0.39537383  -0.00509582  1
  Pd  Pd196  1  0.59775173  -0.01032695  0.59946911  1
  Pd  Pd197  1  0.60637187  0.19667858  0.20649560  1
  Pd  Pd198  1  0.59332405  0.01047298  0.40886701  1
  Pd  Pd199  1  0.00826932  0.80822413  0.80723202  1
  Rh  Rh200  1  0.80483072  0.59821422  0.00578008  1
  Rh  Rh201  1  -0.00655899  0.59096859  0.60488198  1
  Rh  Rh202  1  0.60261815  0.19038686  0.00828035  1
  Rh  Rh203  1  0.19922416  0.01057254  -0.00299383  1
  Rh  Rh204  1  0.40347919  0.38836849  0.81058207  1
  Rh  Rh205  1  0.80260497  0.19740982  0.80911150  1
  Rh  Rh206  1  0.79798702  0.39682215  0.00346127  1
  Rh  Rh207  1  0.40233123  0.40519756  0.59073268  1
  Rh  Rh208  1  0.80143833  0.00495882  0.60823977  1
  Rh  Rh209  1  -0.00859134  -0.00762444  0.00344938  1
  Rh  Rh210  1  0.01076059  0.60673746  0.39863164  1
  Rh  Rh211  1  0.19140912  0.41034800  0.80161700  1
  Rh  Rh212  1  0.20472354  0.18961235  0.80596796  1
  Rh  Rh213  1  0.79493066  0.79267876  0.59285480  1
  Rh  Rh214  1  0.41340649  0.78722755  0.60325427  1
  Rh  Rh215  1  0.59675975  0.59057409  0.39838258  1
  Rh  Rh216  1  -0.01365655  0.19869461  0.79803667  1
  Rh  Rh217  1  0.60364508  0.79806848  0.79497465  1
  Rh  Rh218  1  0.80372303  0.20789080  0.21173378  1
  Rh  Rh219  1  0.80324793  -0.00056981  0.79950941  1
  Rh  Rh220  1  0.00312741  0.40724390  0.79733025  1
  Rh  Rh221  1  0.60455830  -0.00021317  0.19221826  1
  Rh  Rh222  1  0.60258818  0.39843074  0.19337065  1
  Rh  Rh223  1  0.00845771  0.20872333  0.00904403  1
  Rh  Rh224  1  -0.00615637  0.00969149  0.60697029  1
  Rh  Rh225  1  0.38967077  0.80417514  0.00534671  1
  Rh  Rh226  1  -0.00086489  0.01161412  0.20000018  1
  Rh  Rh227  1  0.00804810  0.79671737  0.19345377  1
  Rh  Rh228  1  0.39691585  0.59751072  0.79737591  1
  Rh  Rh229  1  0.40774759  0.00169108  0.59989734  1
  Rh  Rh230  1  0.59905397  0.39922875  0.00002330  1
  Rh  Rh231  1  0.40067711  0.58995256  0.40557794  1
  Rh  Rh232  1  0.40706120  0.20250882  0.40218740  1
  Rh  Rh233  1  -0.00281402  0.39584204  0.20095885  1
  Rh  Rh234  1  0.19418388  0.79640390  0.60403786  1
  Rh  Rh235  1  0.20458119  0.40108168  0.20859028  1
  Rh  Rh236  1  0.20138476  0.39803892  -0.00867814  1
  Rh  Rh237  1  0.79770688  0.00105366  0.19610366  1
  Rh  Rh238  1  0.18897996  0.78856632  0.39571533  1
  Rh  Rh239  1  0.59055249  -0.00765342  0.81096095  1
  Rh  Rh240  1  0.59201763  0.20573499  0.80212406  1
  Rh  Rh241  1  0.40854841  -0.00431698  -0.00654931  1
  Rh  Rh242  1  0.60388959  0.80495906  0.00105536  1
  Rh  Rh243  1  0.80090415  0.00151113  0.40132067  1
  Rh  Rh244  1  0.80388182  0.60448662  0.79617603  1
  Rh  Rh245  1  0.80112111  0.19111499  0.59557485  1
  Rh  Rh246  1  0.20765017  0.59803296  0.20214365  1
  Rh  Rh247  1  0.58988697  0.39614405  0.40483020  1
  Rh  Rh248  1  0.40212511  0.20901862  0.19102407  1
  Rh  Rh249  1  0.20630170  0.60212125  0.80290635  1
