# generated using pymatgen
data_ZrScNbPdRh
_symmetry_space_group_name_H-M   'P 1'
_cell_length_a   16.55641065
_cell_length_b   16.55568504
_cell_length_c   16.55977252
_cell_angle_alpha   89.98282359
_cell_angle_beta   89.98182521
_cell_angle_gamma   90.03718006
_symmetry_Int_Tables_number   1
_chemical_formula_structural   ZrScNbPdRh
_chemical_formula_sum   'Zr50 Sc50 Nb50 Pd50 Rh50'
_cell_volume   4539.07730213
_cell_formula_units_Z   50
loop_
 _symmetry_equiv_pos_site_id
 _symmetry_equiv_pos_as_xyz
  1  'x, y, z'
loop_
 _atom_site_type_symbol
 _atom_site_label
 _atom_site_symmetry_multiplicity
 _atom_site_fract_x
 _atom_site_fract_y
 _atom_site_fract_z
 _atom_site_occupancy
  Zr  Zr0  1  0.10360886  0.10234421  0.89731188  1
  Zr  Zr1  1  0.29576206  0.90259531  0.89808710  1
  Zr  Zr2  1  0.89780341  0.29580569  0.49888392  1
  Zr  Zr3  1  0.70529948  0.90329056  0.70260025  1
  Zr  Zr4  1  0.70432693  0.89894331  0.50275940  1
  Zr  Zr5  1  0.50148473  0.29885486  0.10163155  1
  Zr  Zr6  1  0.31085459  0.70134153  0.89722095  1
  Zr  Zr7  1  0.90333359  0.70204301  0.70104258  1
  Zr  Zr8  1  0.69895827  0.29029587  0.08849544  1
  Zr  Zr9  1  0.09769466  0.49540839  0.90422776  1
  Zr  Zr10  1  0.50244994  0.49998112  0.10426649  1
  Zr  Zr11  1  0.89954637  0.69891231  0.90237022  1
  Zr  Zr12  1  0.49764007  0.71069049  0.09690545  1
  Zr  Zr13  1  0.89234897  0.49503568  0.29757779  1
  Zr  Zr14  1  0.88979755  0.50009634  0.50557790  1
  Zr  Zr15  1  0.30314827  0.49449144  0.49959432  1
  Zr  Zr16  1  0.89351030  0.69721524  0.09027216  1
  Zr  Zr17  1  0.90546726  0.10412743  0.69653069  1
  Zr  Zr18  1  0.29923375  0.49713680  0.90313316  1
  Zr  Zr19  1  0.70073676  0.89734922  0.89742624  1
  Zr  Zr20  1  0.50574437  0.90238597  0.70233215  1
  Zr  Zr21  1  0.30687213  0.29544651  0.89888781  1
  Zr  Zr22  1  0.29202973  0.50079909  0.29878243  1
  Zr  Zr23  1  0.51198291  0.09362663  0.10218193  1
  Zr  Zr24  1  0.89630763  0.30100429  0.30162169  1
  Zr  Zr25  1  0.70341671  0.69572866  0.10005357  1
  Zr  Zr26  1  0.68705072  0.69781660  0.30137891  1
  Zr  Zr27  1  0.70177763  0.09701823  0.69678156  1
  Zr  Zr28  1  0.10096177  0.50606067  0.50538197  1
  Zr  Zr29  1  0.30004871  0.70919722  0.69856738  1
  Zr  Zr30  1  0.09842781  0.69825655  0.50120970  1
  Zr  Zr31  1  0.69521252  0.09896390  0.28978724  1
  Zr  Zr32  1  0.49591509  0.69884210  0.71014917  1
  Zr  Zr33  1  0.70160605  0.50340171  0.29957598  1
  Zr  Zr34  1  0.30347356  0.90199533  0.29931046  1
  Zr  Zr35  1  0.10281374  0.90568092  0.89678175  1
  Zr  Zr36  1  0.50009314  0.89050830  0.29893557  1
  Zr  Zr37  1  0.29591662  0.09958289  0.49368810  1
  Zr  Zr38  1  0.91007545  0.10475124  0.90815091  1
  Zr  Zr39  1  0.09082984  0.49474309  0.70216312  1
  Zr  Zr40  1  0.50455813  0.70385642  0.49247115  1
  Zr  Zr41  1  0.29677087  0.10825197  0.70255134  1
  Zr  Zr42  1  0.29649104  0.09980075  0.89675675  1
  Zr  Zr43  1  0.09511924  0.09920818  0.09117674  1
  Zr  Zr44  1  0.50417803  0.10398081  0.69654585  1
  Zr  Zr45  1  0.09808976  0.70560941  0.89680572  1
  Zr  Zr46  1  0.70491910  0.29358641  0.30068462  1
  Zr  Zr47  1  0.50463531  0.89122875  0.90680769  1
  Zr  Zr48  1  0.30620010  0.10740340  0.09200083  1
  Zr  Zr49  1  0.10308757  0.29598483  0.69281939  1
  Sc  Sc50  1  0.49035894  0.09834443  0.90335057  1
  Sc  Sc51  1  0.10091914  0.50731266  0.29826957  1
  Sc  Sc52  1  0.70227801  0.89537718  0.30122483  1
  Sc  Sc53  1  0.29679509  0.70080529  0.50541795  1
  Sc  Sc54  1  0.49906427  0.29880655  0.50996990  1
  Sc  Sc55  1  0.09762428  0.90532589  0.50500714  1
  Sc  Sc56  1  0.10608640  0.10624992  0.50492991  1
  Sc  Sc57  1  0.10056579  0.70228051  0.09006307  1
  Sc  Sc58  1  0.89810861  0.89385581  0.89711377  1
  Sc  Sc59  1  0.50560816  0.49380951  0.70500375  1
  Sc  Sc60  1  0.70095646  0.70129481  0.70156698  1
  Sc  Sc61  1  0.29932309  0.89646259  0.70165640  1
  Sc  Sc62  1  0.90174271  0.29921403  0.10108671  1
  Sc  Sc63  1  0.29305035  0.30335509  0.29893709  1
  Sc  Sc64  1  0.90972505  0.49873241  0.90502156  1
  Sc  Sc65  1  0.09448877  0.30167904  0.89986385  1
  Sc  Sc66  1  0.70404088  0.09719942  0.91483342  1
  Sc  Sc67  1  0.10595969  0.49681432  0.09764094  1
  Sc  Sc68  1  0.89005203  0.89883581  0.30687285  1
  Sc  Sc69  1  0.50426344  0.49539109  0.29703279  1
  Sc  Sc70  1  0.89630801  0.90013933  0.69680946  1
  Sc  Sc71  1  0.10186109  0.89763568  0.29745052  1
  Sc  Sc72  1  0.09714698  0.28840466  0.29633992  1
  Sc  Sc73  1  0.09770805  0.70256373  0.69549898  1
  Sc  Sc74  1  0.50478698  0.09367398  0.29497396  1
  Sc  Sc75  1  0.70218930  0.50178754  0.10216530  1
  Sc  Sc76  1  0.30310529  0.89610996  0.50311050  1
  Sc  Sc77  1  0.10076803  0.69554109  0.30271621  1
  Sc  Sc78  1  0.69970920  0.10253433  0.51013325  1
  Sc  Sc79  1  0.69665969  0.90456137  0.09532636  1
  Sc  Sc80  1  0.89145185  0.10981134  0.29412157  1
  Sc  Sc81  1  0.69334356  0.49928667  0.89925036  1
  Sc  Sc82  1  0.10909683  0.89856031  0.08937313  1
  Sc  Sc83  1  0.90041566  0.09900881  0.50710592  1
  Sc  Sc84  1  0.50076613  0.30780121  0.89872253  1
  Sc  Sc85  1  0.89757946  0.89957476  0.50198610  1
  Sc  Sc86  1  0.89940858  0.70335890  0.50330866  1
  Sc  Sc87  1  0.88899059  0.70338108  0.30541768  1
  Sc  Sc88  1  0.10427232  0.89689332  0.69916038  1
  Sc  Sc89  1  0.30105236  0.30230438  0.50979241  1
  Sc  Sc90  1  0.69241342  0.49888066  0.68967387  1
  Sc  Sc91  1  0.29461445  0.70762210  0.09486381  1
  Sc  Sc92  1  0.10292445  0.30460294  0.10111541  1
  Sc  Sc93  1  0.90578597  0.30189779  0.90793548  1
  Sc  Sc94  1  0.90926396  0.29991478  0.69516469  1
  Sc  Sc95  1  0.70188324  0.29743989  0.50772770  1
  Sc  Sc96  1  0.89665237  0.49944561  0.09520610  1
  Sc  Sc97  1  0.69979206  0.69264874  0.49609159  1
  Sc  Sc98  1  0.70317184  0.70413125  0.90190068  1
  Sc  Sc99  1  0.29745592  0.48386192  0.69711313  1
  Nb  Nb100  1  0.29728307  0.69753826  0.30204825  1
  Nb  Nb101  1  0.29635964  0.49146952  0.10436771  1
  Nb  Nb102  1  0.31377336  0.30058155  0.70177686  1
  Nb  Nb103  1  0.49680167  0.90248320  0.10048214  1
  Nb  Nb104  1  0.10155158  0.30000423  0.49759426  1
  Nb  Nb105  1  0.69038020  0.49552741  0.49718703  1
  Nb  Nb106  1  0.89892856  0.49893919  0.70308989  1
  Nb  Nb107  1  0.50324635  0.29345415  0.30139015  1
  Nb  Nb108  1  0.70375541  0.09931670  0.10262602  1
  Nb  Nb109  1  0.30305975  0.90235895  0.10073804  1
  Nb  Nb110  1  0.70364751  0.29854991  0.89864428  1
  Nb  Nb111  1  0.30183766  0.30897366  0.10070179  1
  Nb  Nb112  1  0.69252872  0.29890374  0.70277795  1
  Nb  Nb113  1  0.29497630  0.10355193  0.30193478  1
  Nb  Nb114  1  0.89563180  0.09510390  0.09595126  1
  Nb  Nb115  1  0.90415335  0.90224760  0.10094696  1
  Nb  Nb116  1  0.49837990  0.69658749  0.29739423  1
  Nb  Nb117  1  0.49752178  0.69506672  0.90045150  1
  Nb  Nb118  1  0.10697039  0.09921090  0.29871467  1
  Nb  Nb119  1  0.50354905  0.09683933  0.50141650  1
  Nb  Nb120  1  0.09778366  0.10106760  0.69805276  1
  Nb  Nb121  1  0.49448726  0.51332786  0.89862763  1
  Nb  Nb122  1  0.50310692  0.49931120  0.50062650  1
  Nb  Nb123  1  0.49835539  0.89871550  0.49978929  1
  Nb  Nb124  1  0.49624573  0.29888092  0.70332392  1
  Nb  Nb125  1  0.79567737  0.20655372  0.80220480  1
  Nb  Nb126  1  0.59101772  0.60421238  -0.00344180  1
  Nb  Nb127  1  0.00094684  0.39890480  0.40309031  1
  Nb  Nb128  1  0.60106452  0.39781381  0.40215702  1
  Nb  Nb129  1  0.59684510  -0.00258727  0.40580153  1
  Nb  Nb130  1  0.40582564  0.00319249  0.59680227  1
  Nb  Nb131  1  0.20209935  0.00606755  0.19937629  1
  Nb  Nb132  1  0.40241988  0.19736493  0.39477138  1
  Nb  Nb133  1  0.79842239  0.39722277  0.79666222  1
  Nb  Nb134  1  0.80458724  0.59100708  0.79697279  1
  Nb  Nb135  1  0.39973035  0.20131514  0.20402208  1
  Nb  Nb136  1  0.20147347  0.79721946  0.39796649  1
  Nb  Nb137  1  0.60467504  0.20397709  0.80027450  1
  Nb  Nb138  1  0.39836587  0.40607238  0.00425969  1
  Nb  Nb139  1  0.00343632  0.00790313  0.38984989  1
  Nb  Nb140  1  0.59637066  0.80272613  0.59839809  1
  Nb  Nb141  1  0.19978288  0.59805190  0.80124416  1
  Nb  Nb142  1  -0.00480194  0.80190280  0.19626291  1
  Nb  Nb143  1  0.19050498  0.39924269  0.40509925  1
  Nb  Nb144  1  0.40248759  0.60085021  0.39739092  1
  Nb  Nb145  1  0.00455506  0.00646847  0.79708035  1
  Nb  Nb146  1  -0.00005866  -0.00023360  0.19917828  1
  Nb  Nb147  1  0.39496102  0.60311466  0.20336704  1
  Nb  Nb148  1  0.40554783  0.59637987  0.59548616  1
  Nb  Nb149  1  -0.00585135  0.60654627  0.19671113  1
  Pd  Pd150  1  0.00138694  0.19597689  0.40231777  1
  Pd  Pd151  1  0.20787692  0.59698127  0.61214104  1
  Pd  Pd152  1  0.20794095  -0.00223619  0.60465020  1
  Pd  Pd153  1  0.39958929  -0.00221917  0.79358372  1
  Pd  Pd154  1  0.39413267  0.79449797  0.19827315  1
  Pd  Pd155  1  -0.00017935  0.80636280  0.00151021  1
  Pd  Pd156  1  0.19842634  0.39605801  0.80026838  1
  Pd  Pd157  1  0.19327396  -0.00902949  0.39799268  1
  Pd  Pd158  1  -0.00386883  0.19344771  0.19444482  1
  Pd  Pd159  1  0.19659144  0.60599610  0.18953998  1
  Pd  Pd160  1  -0.00905260  0.59453605  0.39441593  1
  Pd  Pd161  1  0.40346276  0.39493107  0.39655450  1
  Pd  Pd162  1  0.39813572  0.59694286  0.01343970  1
  Pd  Pd163  1  0.38907753  0.58873334  0.78532769  1
  Pd  Pd164  1  0.60106860  0.39977398  0.80411262  1
  Pd  Pd165  1  0.79593939  0.39538799  0.60608882  1
  Pd  Pd166  1  0.19795290  0.20872787  0.79832705  1
  Pd  Pd167  1  0.80288964  -0.00349232  0.20001152  1
  Pd  Pd168  1  0.00105241  0.60078433  0.80036382  1
  Pd  Pd169  1  0.79607414  0.60305000  0.60479007  1
  Pd  Pd170  1  0.40046238  -0.00461788  -0.00074718  1
  Pd  Pd171  1  0.81081524  0.01051338  0.80573885  1
  Pd  Pd172  1  0.80292223  -0.00554608  -0.00231674  1
  Pd  Pd173  1  0.79290535  0.39377006  0.19069259  1
  Pd  Pd174  1  0.59744197  0.19890404  0.40581223  1
  Pd  Pd175  1  0.20073303  0.60140354  -0.00318124  1
  Pd  Pd176  1  0.40619675  0.00496966  0.40162735  1
  Pd  Pd177  1  0.39748801  0.19481656  0.59243606  1
  Pd  Pd178  1  0.79957374  0.00839929  0.40294189  1
  Pd  Pd179  1  0.60980474  0.39258400  0.20527079  1
  Pd  Pd180  1  0.79934952  0.60181867  0.40234895  1
  Pd  Pd181  1  0.79541842  0.18955874  0.40589396  1
  Pd  Pd182  1  0.60381148  0.80469592  0.19367539  1
  Pd  Pd183  1  0.80139635  0.40421552  -0.00631569  1
  Pd  Pd184  1  0.59324633  0.19479058  -0.00967750  1
  Pd  Pd185  1  0.60321281  0.79388557  0.79868960  1
  Pd  Pd186  1  0.19667356  0.20932391  -0.00051479  1
  Pd  Pd187  1  0.59501715  0.60738568  0.60342760  1
  Pd  Pd188  1  0.60084581  0.01179015  0.81328206  1
  Pd  Pd189  1  0.00557947  0.40781806  0.20414321  1
  Pd  Pd190  1  0.39609996  0.00797948  0.19994139  1
  Pd  Pd191  1  -0.00026880  0.80592718  0.60110289  1
  Pd  Pd192  1  -0.00163790  0.39965990  0.59335695  1
  Pd  Pd193  1  0.59461091  0.40811816  -0.00509113  1
  Pd  Pd194  1  0.80083357  0.80121862  0.19749869  1
  Pd  Pd195  1  0.20590524  0.19990653  0.19312251  1
  Pd  Pd196  1  0.39189894  0.79357470  0.40147440  1
  Pd  Pd197  1  0.00399356  0.80931872  0.39483236  1
  Pd  Pd198  1  0.40003196  0.39929222  0.20345030  1
  Pd  Pd199  1  0.19388943  0.80195552  0.20245233  1
  Rh  Rh200  1  0.80638485  0.60190270  0.20254526  1
  Rh  Rh201  1  0.59383228  0.58900589  0.39562975  1
  Rh  Rh202  1  0.80551989  0.19860321  0.00041985  1
  Rh  Rh203  1  -0.00703631  0.39299735  0.79947842  1
  Rh  Rh204  1  0.60271627  0.79618532  0.00210411  1
  Rh  Rh205  1  0.80038952  0.20166903  0.18903077  1
  Rh  Rh206  1  0.20675179  0.80241136  -0.00710367  1
  Rh  Rh207  1  0.40882990  0.80014096  0.60395830  1
  Rh  Rh208  1  0.00075112  0.20680077  0.00821154  1
  Rh  Rh209  1  0.20885586  0.00169514  0.00700251  1
  Rh  Rh210  1  0.79287341  0.79616878  0.59960016  1
  Rh  Rh211  1  0.20627891  0.60181748  0.40683392  1
  Rh  Rh212  1  0.19466125  0.80305715  0.59020021  1
  Rh  Rh213  1  0.60933968  0.60275700  0.80709968  1
  Rh  Rh214  1  0.19903217  0.79301647  0.80173997  1
  Rh  Rh215  1  0.19838393  0.39360196  0.59830299  1
  Rh  Rh216  1  0.19149436  0.39616259  0.20881545  1
  Rh  Rh217  1  0.59864907  0.20530442  0.60510755  1
  Rh  Rh218  1  0.79701513  0.80810035  0.00192802  1
  Rh  Rh219  1  -0.00018224  0.81065015  0.79639662  1
  Rh  Rh220  1  -0.00223686  0.19850749  0.79911362  1
  Rh  Rh221  1  0.79451108  0.79307213  0.40511344  1
  Rh  Rh222  1  -0.00232544  -0.00593750  -0.00327205  1
  Rh  Rh223  1  0.40961406  0.40432784  0.60755331  1
  Rh  Rh224  1  0.40212908  0.80835979  0.80512411  1
  Rh  Rh225  1  0.20675667  0.21040224  0.40351189  1
  Rh  Rh226  1  0.00438281  0.19913582  0.59174358  1
  Rh  Rh227  1  0.78899093  0.59231082  -0.01166385  1
  Rh  Rh228  1  0.40361837  0.40276668  0.80543509  1
  Rh  Rh229  1  0.80498696  -0.00042036  0.59966594  1
  Rh  Rh230  1  0.59595650  0.39394680  0.59468862  1
  Rh  Rh231  1  0.00532355  0.59595319  0.00849938  1
  Rh  Rh232  1  0.60398350  -0.01084391  0.20469606  1
  Rh  Rh233  1  0.39596821  0.80820117  -0.00132668  1
  Rh  Rh234  1  0.19433500  0.00240352  0.79003901  1
  Rh  Rh235  1  0.00206793  0.40003629  0.00651924  1
  Rh  Rh236  1  0.20536420  0.39369273  -0.00247576  1
  Rh  Rh237  1  0.59701450  -0.00881145  0.59174281  1
  Rh  Rh238  1  0.80091789  0.20421318  0.60920330  1
  Rh  Rh239  1  0.40883914  0.20005617  0.80190763  1
  Rh  Rh240  1  0.60008177  0.20167089  0.19628494  1
  Rh  Rh241  1  0.00185693  0.00191014  0.60121058  1
  Rh  Rh242  1  0.59313173  0.60603369  0.19215096  1
  Rh  Rh243  1  0.40520805  0.20879025  0.00507091  1
  Rh  Rh244  1  0.59969601  -0.00119613  -0.00035293  1
  Rh  Rh245  1  0.20485646  0.20498672  0.60202442  1
  Rh  Rh246  1  -0.00629455  0.59962323  0.60075037  1
  Rh  Rh247  1  0.79485527  0.39936876  0.40588831  1
  Rh  Rh248  1  0.60515685  0.80749909  0.40478125  1
  Rh  Rh249  1  0.80309037  0.79074675  0.79923184  1
