# generated using pymatgen
data_ZrScNbPdRh
_symmetry_space_group_name_H-M   'P 1'
_cell_length_a   16.55398895
_cell_length_b   16.55442678
_cell_length_c   16.55514197
_cell_angle_alpha   90.00345843
_cell_angle_beta   90.00928253
_cell_angle_gamma   89.98887871
_symmetry_Int_Tables_number   1
_chemical_formula_structural   ZrScNbPdRh
_chemical_formula_sum   'Zr50 Sc50 Nb50 Pd50 Rh50'
_cell_volume   4536.80071895
_cell_formula_units_Z   50
loop_
 _symmetry_equiv_pos_site_id
 _symmetry_equiv_pos_as_xyz
  1  'x, y, z'
loop_
 _atom_site_type_symbol
 _atom_site_label
 _atom_site_symmetry_multiplicity
 _atom_site_fract_x
 _atom_site_fract_y
 _atom_site_fract_z
 _atom_site_occupancy
  Zr  Zr0  1  0.09355528  0.09867270  0.49771180  1
  Zr  Zr1  1  0.89935177  0.90300015  0.30591572  1
  Zr  Zr2  1  0.09189088  0.49481856  0.29766717  1
  Zr  Zr3  1  0.30895148  0.10326470  0.89883493  1
  Zr  Zr4  1  0.90895448  0.30893778  0.29476969  1
  Zr  Zr5  1  0.49901972  0.49956837  0.70484928  1
  Zr  Zr6  1  0.69343753  0.49204359  0.69865988  1
  Zr  Zr7  1  0.70873007  0.49402059  0.50182811  1
  Zr  Zr8  1  0.50221821  0.89618159  0.50503753  1
  Zr  Zr9  1  0.49389827  0.49759383  0.30726970  1
  Zr  Zr10  1  0.69497650  0.29868297  0.90972135  1
  Zr  Zr11  1  0.29982137  0.70704586  0.50537737  1
  Zr  Zr12  1  0.10598408  0.10741907  0.29993379  1
  Zr  Zr13  1  0.90307661  0.90127083  0.10886545  1
  Zr  Zr14  1  0.10017349  0.09717114  0.09959622  1
  Zr  Zr15  1  0.90420471  0.69923488  0.29408997  1
  Zr  Zr16  1  0.90743500  0.30023652  0.08857620  1
  Zr  Zr17  1  0.29697126  0.89814888  0.09738717  1
  Zr  Zr18  1  0.90108345  0.49719877  0.90743239  1
  Zr  Zr19  1  0.30004798  0.90266185  0.50685573  1
  Zr  Zr20  1  0.69485144  0.29816462  0.30649036  1
  Zr  Zr21  1  0.89817785  0.49226958  0.49563249  1
  Zr  Zr22  1  0.50656325  0.29873231  0.09807181  1
  Zr  Zr23  1  0.49349828  0.29291141  0.90148233  1
  Zr  Zr24  1  0.49874769  0.70367046  0.29943088  1
  Zr  Zr25  1  0.90030975  0.50150284  0.30501059  1
  Zr  Zr26  1  0.50453687  0.90355082  0.70581328  1
  Zr  Zr27  1  0.70576475  0.09889246  0.08713612  1
  Zr  Zr28  1  0.09431872  0.31275069  0.89777479  1
  Zr  Zr29  1  0.49181560  0.10243589  0.69855103  1
  Zr  Zr30  1  0.29602799  0.69836424  0.70658341  1
  Zr  Zr31  1  0.10193300  0.50361857  0.89850633  1
  Zr  Zr32  1  0.09888769  0.50570254  0.50585629  1
  Zr  Zr33  1  0.50589606  0.90034334  0.29274570  1
  Zr  Zr34  1  0.10096049  0.68725600  0.69785074  1
  Zr  Zr35  1  0.89273758  0.70511070  0.70105471  1
  Zr  Zr36  1  0.28658314  0.89968045  0.89819656  1
  Zr  Zr37  1  0.70193539  0.70521540  0.30771694  1
  Zr  Zr38  1  0.10195041  0.90019154  0.90254661  1
  Zr  Zr39  1  0.70208939  0.29734108  0.09916564  1
  Zr  Zr40  1  0.69337261  0.90592767  0.89526134  1
  Zr  Zr41  1  0.49510494  0.49776462  0.90171731  1
  Zr  Zr42  1  0.30197304  0.70131230  0.29331009  1
  Zr  Zr43  1  0.70002572  0.49126575  0.09473150  1
  Zr  Zr44  1  0.49768386  0.10194885  0.10033491  1
  Zr  Zr45  1  0.50589421  0.09882532  0.88957638  1
  Zr  Zr46  1  0.29535090  0.29798594  0.29818155  1
  Zr  Zr47  1  0.90337733  0.10232715  0.10006389  1
  Zr  Zr48  1  0.29673857  0.50446430  0.09801804  1
  Zr  Zr49  1  0.49736064  0.69914962  0.90385206  1
  Sc  Sc50  1  0.70148595  0.09783316  0.30540371  1
  Sc  Sc51  1  0.10233610  0.49862084  0.09722524  1
  Sc  Sc52  1  0.69788011  0.30062198  0.68880616  1
  Sc  Sc53  1  0.70226480  0.90024517  0.30190110  1
  Sc  Sc54  1  0.70711154  0.10895328  0.49705072  1
  Sc  Sc55  1  0.29963341  0.50235222  0.29660558  1
  Sc  Sc56  1  0.90559101  0.50228022  0.09744496  1
  Sc  Sc57  1  0.10131013  0.08794810  0.89585775  1
  Sc  Sc58  1  0.49079285  0.49983234  0.50594928  1
  Sc  Sc59  1  0.90083967  0.90958703  0.50285537  1
  Sc  Sc60  1  0.90302426  0.09622739  0.90007181  1
  Sc  Sc61  1  0.48750213  0.71158402  0.10213158  1
  Sc  Sc62  1  0.09945227  0.30547618  0.70236665  1
  Sc  Sc63  1  0.70246870  0.89669649  0.49679326  1
  Sc  Sc64  1  0.90181558  0.89860201  0.88698663  1
  Sc  Sc65  1  0.29633870  0.10898814  0.51586620  1
  Sc  Sc66  1  0.69706655  0.49922577  0.89927972  1
  Sc  Sc67  1  0.29442952  0.69237170  0.90905840  1
  Sc  Sc68  1  0.90175076  0.09977413  0.50468639  1
  Sc  Sc69  1  0.70220218  0.70452308  0.89726344  1
  Sc  Sc70  1  0.50624543  0.30431690  0.49984558  1
  Sc  Sc71  1  0.70663816  0.89379267  0.70073752  1
  Sc  Sc72  1  0.90220199  0.09643868  0.69593279  1
  Sc  Sc73  1  0.50569993  0.10207455  0.29504699  1
  Sc  Sc74  1  0.10719803  0.90172639  0.50755019  1
  Sc  Sc75  1  0.90611719  0.29214522  0.69530496  1
  Sc  Sc76  1  0.10063475  0.29789474  0.29221719  1
  Sc  Sc77  1  0.90378679  0.69623327  0.89975522  1
  Sc  Sc78  1  0.70654427  0.49138495  0.30537768  1
  Sc  Sc79  1  0.50847001  0.30113174  0.70083406  1
  Sc  Sc80  1  0.89792060  0.90449029  0.69861415  1
  Sc  Sc81  1  0.69665520  0.70531854  0.09803250  1
  Sc  Sc82  1  0.10040565  0.69838721  0.89757172  1
  Sc  Sc83  1  0.09931752  0.29136888  0.49564689  1
  Sc  Sc84  1  0.29493679  0.90463296  0.69973203  1
  Sc  Sc85  1  0.89559956  0.29502213  0.50245495  1
  Sc  Sc86  1  0.30068094  0.10529144  0.28791067  1
  Sc  Sc87  1  0.50297461  0.69486419  0.69275009  1
  Sc  Sc88  1  0.29792606  0.90247013  0.29277921  1
  Sc  Sc89  1  0.10272574  0.90215202  0.70802403  1
  Sc  Sc90  1  0.09404169  0.09979566  0.69651181  1
  Sc  Sc91  1  0.90499230  0.09450870  0.30557922  1
  Sc  Sc92  1  0.30087696  0.29914731  0.09870036  1
  Sc  Sc93  1  0.70116258  0.09858397  0.70128309  1
  Sc  Sc94  1  0.29929602  0.09921736  0.10212387  1
  Sc  Sc95  1  0.89525638  0.51058061  0.69360931  1
  Sc  Sc96  1  0.89369186  0.68427950  0.50228638  1
  Sc  Sc97  1  0.29153715  0.50210738  0.90782365  1
  Sc  Sc98  1  0.70280153  0.69991411  0.69650526  1
  Sc  Sc99  1  0.69992320  0.70615990  0.50668145  1
  Nb  Nb100  1  0.09993123  0.69926302  0.30228216  1
  Nb  Nb101  1  0.29784263  0.30566126  0.50059871  1
  Nb  Nb102  1  0.49662757  0.29827936  0.30046647  1
  Nb  Nb103  1  0.10431342  0.70336231  0.50183322  1
  Nb  Nb104  1  0.49378201  0.09642726  0.50231908  1
  Nb  Nb105  1  0.29388351  0.30400673  0.69742963  1
  Nb  Nb106  1  0.50648342  0.89860631  0.09238993  1
  Nb  Nb107  1  0.50092049  0.49776409  0.09881458  1
  Nb  Nb108  1  0.10757733  0.49719718  0.69873886  1
  Nb  Nb109  1  0.70655484  0.30363041  0.50448651  1
  Nb  Nb110  1  0.69887496  0.90110521  0.09098377  1
  Nb  Nb111  1  0.29141622  0.69941164  0.10418865  1
  Nb  Nb112  1  0.29038189  0.48964038  0.69252106  1
  Nb  Nb113  1  0.29830967  0.29980575  0.89977189  1
  Nb  Nb114  1  0.90109614  0.30216729  0.89693341  1
  Nb  Nb115  1  0.29950289  0.48989954  0.49912048  1
  Nb  Nb116  1  0.90259124  0.70062645  0.10023650  1
  Nb  Nb117  1  0.10056920  0.30000253  0.10133414  1
  Nb  Nb118  1  0.50267694  0.89494933  0.90251522  1
  Nb  Nb119  1  0.08485957  0.69846531  0.10409811  1
  Nb  Nb120  1  0.30293031  0.10777958  0.70435230  1
  Nb  Nb121  1  0.50144963  0.70421607  0.49861364  1
  Nb  Nb122  1  0.10298111  0.90177975  0.10061654  1
  Nb  Nb123  1  0.70634538  0.10143169  0.89767305  1
  Nb  Nb124  1  0.10140327  0.90322591  0.30409377  1
  Nb  Nb125  1  0.20589987  0.20396944  0.80078927  1
  Nb  Nb126  1  0.60075576  0.59613645  0.20061629  1
  Nb  Nb127  1  0.40790433  -0.00935749  -0.00354079  1
  Nb  Nb128  1  0.20481434  0.00489080  0.39973280  1
  Nb  Nb129  1  0.80106793  0.20445860  0.80653758  1
  Nb  Nb130  1  0.40125905  0.80501220  0.40121990  1
  Nb  Nb131  1  0.59502809  0.00252743  0.59810798  1
  Nb  Nb132  1  0.38852551  0.39751504  0.79747733  1
  Nb  Nb133  1  0.19715700  0.20461588  -0.00751761  1
  Nb  Nb134  1  0.59629200  0.60230258  0.40062603  1
  Nb  Nb135  1  0.80275148  0.20248305  0.19772834  1
  Nb  Nb136  1  0.40595487  0.39870056  0.19942109  1
  Nb  Nb137  1  0.18849344  0.79673864  0.19609725  1
  Nb  Nb138  1  0.00337932  0.40623626  0.59895332  1
  Nb  Nb139  1  0.00404337  0.79252809  0.59556590  1
  Nb  Nb140  1  0.19872402  0.60169940  0.40225165  1
  Nb  Nb141  1  0.80256453  0.80617111  0.00499922  1
  Nb  Nb142  1  0.59336939  0.59887491  0.00727990  1
  Nb  Nb143  1  0.79774378  0.60267973  0.19750012  1
  Nb  Nb144  1  0.20159780  0.40390176  0.40377173  1
  Nb  Nb145  1  0.40084366  0.19959581  0.40381460  1
  Nb  Nb146  1  0.39849672  0.00341071  0.40344263  1
  Nb  Nb147  1  0.80245630  0.39261580  0.80160100  1
  Nb  Nb148  1  0.00839860  0.79635914  0.40310142  1
  Nb  Nb149  1  0.40135462  0.80060077  0.80620006  1
  Pd  Pd150  1  0.60545437  0.79927238  0.19444190  1
  Pd  Pd151  1  0.81027401  -0.00925350  -0.00790862  1
  Pd  Pd152  1  0.59875243  0.40503880  0.40673065  1
  Pd  Pd153  1  0.60377153  0.60374801  0.80595596  1
  Pd  Pd154  1  0.79527508  0.59355349  0.80114400  1
  Pd  Pd155  1  -0.00717423  0.20376013  0.39798680  1
  Pd  Pd156  1  0.38991937  0.59582958  0.79978453  1
  Pd  Pd157  1  0.39501638  -0.01009886  0.80339990  1
  Pd  Pd158  1  0.19142466  0.20422656  0.60653108  1
  Pd  Pd159  1  0.61013695  0.20294679  0.79603952  1
  Pd  Pd160  1  0.79414432  0.60888296  0.00559171  1
  Pd  Pd161  1  0.39227701  0.80184204  -0.00402731  1
  Pd  Pd162  1  -0.01067746  0.41104193  0.78687118  1
  Pd  Pd163  1  0.19041656  0.78992917  0.00547496  1
  Pd  Pd164  1  0.40130423  0.79937615  0.60932162  1
  Pd  Pd165  1  0.60315243  0.59661720  0.59117824  1
  Pd  Pd166  1  0.60245322  0.19314313  0.59356499  1
  Pd  Pd167  1  0.59584424  0.00649617  -0.00336663  1
  Pd  Pd168  1  0.19766544  0.00666026  0.60381275  1
  Pd  Pd169  1  0.59397989  0.19780346  0.40729955  1
  Pd  Pd170  1  -0.00528527  -0.00705696  -0.00270183  1
  Pd  Pd171  1  0.40660731  0.59567908  0.19247900  1
  Pd  Pd172  1  0.59892183  0.00232684  0.40664736  1
  Pd  Pd173  1  0.00499805  0.80590184  0.20754197  1
  Pd  Pd174  1  0.78969563  0.00246738  0.59764990  1
  Pd  Pd175  1  0.00518486  0.00313893  0.20594537  1
  Pd  Pd176  1  0.39402039  0.59875283  0.60016781  1
  Pd  Pd177  1  0.59747004  0.79145853  0.79425069  1
  Pd  Pd178  1  0.81384590  0.79898110  0.41026457  1
  Pd  Pd179  1  0.80552419  0.39942586  0.19546709  1
  Pd  Pd180  1  0.21075737  0.59876466  0.59530223  1
  Pd  Pd181  1  -0.00326986  0.59475804  0.79827692  1
  Pd  Pd182  1  0.18990266  0.60182981  0.20139232  1
  Pd  Pd183  1  0.60974659  0.00166219  0.19597301  1
  Pd  Pd184  1  0.40603024  0.39329248  0.60723369  1
  Pd  Pd185  1  0.39449567  0.39924320  0.00121791  1
  Pd  Pd186  1  0.40261573  -0.00446865  0.19706880  1
  Pd  Pd187  1  0.39606891  0.60684605  0.40841516  1
  Pd  Pd188  1  0.00364579  0.79844177  0.79188010  1
  Pd  Pd189  1  0.20292398  0.80371947  0.39340758  1
  Pd  Pd190  1  0.00380338  0.60528141  0.40399445  1
  Pd  Pd191  1  0.79439565  0.79785337  0.19452981  1
  Pd  Pd192  1  0.60890152  0.19392375  0.20010307  1
  Pd  Pd193  1  0.80861086  0.20223602  0.39262719  1
  Pd  Pd194  1  0.40231424  0.21283139  0.59812682  1
  Pd  Pd195  1  0.00189346  0.19348178  0.80236655  1
  Pd  Pd196  1  0.79383162  0.00593229  0.20300219  1
  Pd  Pd197  1  0.59556130  0.40340957  0.20659871  1
  Pd  Pd198  1  0.00975352  0.19652417  -0.01060206  1
  Pd  Pd199  1  -0.00597848  0.80264577  -0.00266702  1
  Rh  Rh200  1  0.18909686  0.39261852  0.59104158  1
  Rh  Rh201  1  0.19792026  0.20215108  0.18528218  1
  Rh  Rh202  1  0.60564328  0.00273479  0.79363449  1
  Rh  Rh203  1  0.20677509  0.00938596  0.00271748  1
  Rh  Rh204  1  0.79167972  0.59845829  0.60044392  1
  Rh  Rh205  1  0.79976891  0.00794684  0.79939154  1
  Rh  Rh206  1  0.79922373  0.80117055  0.80628107  1
  Rh  Rh207  1  0.21246270  0.19828439  0.40346507  1
  Rh  Rh208  1  0.79902114  0.00125115  0.40261263  1
  Rh  Rh209  1  0.80197984  0.38765816  0.39947294  1
  Rh  Rh210  1  0.20165810  0.79375646  0.80014587  1
  Rh  Rh211  1  0.59604157  0.19150662  -0.00214735  1
  Rh  Rh212  1  0.00182077  0.20428984  0.59845407  1
  Rh  Rh213  1  0.81039065  0.80071323  0.59685065  1
  Rh  Rh214  1  0.19094388  0.80003617  0.61374650  1
  Rh  Rh215  1  0.20360688  0.59244747  0.80049537  1
  Rh  Rh216  1  0.60687644  0.79421436  0.00048996  1
  Rh  Rh217  1  0.59674825  0.40414681  0.59337140  1
  Rh  Rh218  1  0.19750731  0.39357419  0.00456779  1
  Rh  Rh219  1  0.00779495  0.39285380  0.40886361  1
  Rh  Rh220  1  0.00890160  -0.00539731  0.40328541  1
  Rh  Rh221  1  0.00427004  0.40467664  0.00248290  1
  Rh  Rh222  1  0.00351720  -0.00972655  0.60149190  1
  Rh  Rh223  1  0.39638905  0.19344833  0.00565738  1
  Rh  Rh224  1  0.79907978  0.19981361  0.60769667  1
  Rh  Rh225  1  0.00136050  0.40304173  0.19046929  1
  Rh  Rh226  1  0.19032538  0.60687636  0.00733143  1
  Rh  Rh227  1  0.80730347  0.20039008  -0.00284040  1
  Rh  Rh228  1  -0.00423463  0.59423950  0.19771478  1
  Rh  Rh229  1  0.39264584  0.80878269  0.20010199  1
  Rh  Rh230  1  0.20120640  0.01257763  0.79225316  1
  Rh  Rh231  1  -0.00191138  0.59988024  0.60163673  1
  Rh  Rh232  1  0.40101572  0.00114121  0.60220306  1
  Rh  Rh233  1  0.79035538  0.60140886  0.39533234  1
  Rh  Rh234  1  0.40134067  0.20834370  0.20246433  1
  Rh  Rh235  1  0.40182422  0.60344555  0.00861321  1
  Rh  Rh236  1  0.59850934  0.39462496  0.80521639  1
  Rh  Rh237  1  0.81010771  0.39552932  0.60981567  1
  Rh  Rh238  1  0.59591690  0.40432239  -0.00743213  1
  Rh  Rh239  1  0.80223179  0.39705887  -0.00498931  1
  Rh  Rh240  1  0.59587278  0.79732105  0.40187086  1
  Rh  Rh241  1  0.19396823  -0.00493982  0.20337089  1
  Rh  Rh242  1  0.20539273  0.40132384  0.80223042  1
  Rh  Rh243  1  0.60363637  0.80519878  0.60360485  1
  Rh  Rh244  1  0.39557387  0.21348434  0.78796278  1
  Rh  Rh245  1  0.00328912  0.60090999  -0.00099475  1
  Rh  Rh246  1  -0.00363438  0.19806344  0.20129686  1
  Rh  Rh247  1  0.39222088  0.38866580  0.39421471  1
  Rh  Rh248  1  -0.00068447  0.00014710  0.79632277  1
  Rh  Rh249  1  0.20486705  0.39965438  0.20259034  1
