# generated using pymatgen
data_ZrScNbPdRh
_symmetry_space_group_name_H-M   'P 1'
_cell_length_a   16.55733810
_cell_length_b   16.55582270
_cell_length_c   16.55745488
_cell_angle_alpha   89.99981390
_cell_angle_beta   90.01790240
_cell_angle_gamma   90.00652842
_symmetry_Int_Tables_number   1
_chemical_formula_structural   ZrScNbPdRh
_chemical_formula_sum   'Zr50 Sc50 Nb50 Pd50 Rh50'
_cell_volume   4538.73513889
_cell_formula_units_Z   50
loop_
 _symmetry_equiv_pos_site_id
 _symmetry_equiv_pos_as_xyz
  1  'x, y, z'
loop_
 _atom_site_type_symbol
 _atom_site_label
 _atom_site_symmetry_multiplicity
 _atom_site_fract_x
 _atom_site_fract_y
 _atom_site_fract_z
 _atom_site_occupancy
  Zr  Zr0  1  0.69309228  0.50593652  0.30435172  1
  Zr  Zr1  1  0.50855215  0.10894802  0.88893354  1
  Zr  Zr2  1  0.29234693  0.89911264  0.69661884  1
  Zr  Zr3  1  0.70741395  0.30490021  0.70070746  1
  Zr  Zr4  1  0.89520757  0.51532392  0.30204318  1
  Zr  Zr5  1  0.09779837  0.10257424  0.50127525  1
  Zr  Zr6  1  0.89966960  0.89249065  0.30529356  1
  Zr  Zr7  1  0.09883836  0.70354346  0.10402219  1
  Zr  Zr8  1  0.50513948  0.90231166  0.30249381  1
  Zr  Zr9  1  0.90227587  0.09443131  0.90559646  1
  Zr  Zr10  1  0.09950414  0.49210609  0.50601170  1
  Zr  Zr11  1  0.08852482  0.10145422  0.30651677  1
  Zr  Zr12  1  0.69679730  0.29030234  0.90809612  1
  Zr  Zr13  1  0.70755835  0.90229227  0.69587900  1
  Zr  Zr14  1  0.30179129  0.30348062  0.29712086  1
  Zr  Zr15  1  0.70334463  0.90404858  0.89180839  1
  Zr  Zr16  1  0.70122702  0.10271005  0.29715058  1
  Zr  Zr17  1  0.70356317  0.69720015  0.29835869  1
  Zr  Zr18  1  0.30097079  0.69656270  0.90077086  1
  Zr  Zr19  1  0.89414831  0.90291095  0.70405608  1
  Zr  Zr20  1  0.08810017  0.30548819  0.10265511  1
  Zr  Zr21  1  0.30398050  0.69642684  0.50531993  1
  Zr  Zr22  1  0.29595632  0.30013240  0.10701259  1
  Zr  Zr23  1  0.69403225  0.29896268  0.29985444  1
  Zr  Zr24  1  0.71278933  0.10546213  0.09937312  1
  Zr  Zr25  1  0.50277690  0.10047099  0.69682755  1
  Zr  Zr26  1  0.09356389  0.09811335  0.09083551  1
  Zr  Zr27  1  0.90296786  0.29665390  0.69966306  1
  Zr  Zr28  1  0.30369326  0.69826419  0.10313596  1
  Zr  Zr29  1  0.50001169  0.89943339  0.90270283  1
  Zr  Zr30  1  0.29899913  0.10013713  0.49274087  1
  Zr  Zr31  1  0.49847164  0.10205526  0.30590836  1
  Zr  Zr32  1  0.69809315  0.50328834  0.70312095  1
  Zr  Zr33  1  0.29440682  0.09851452  0.89499604  1
  Zr  Zr34  1  0.29540188  0.08608912  0.09251503  1
  Zr  Zr35  1  0.30041552  0.50038857  0.69840870  1
  Zr  Zr36  1  0.88793301  0.09847704  0.30479430  1
  Zr  Zr37  1  0.10006627  0.30391363  0.29222593  1
  Zr  Zr38  1  0.50053422  0.69426342  0.89893795  1
  Zr  Zr39  1  0.29878532  0.90112112  0.50006276  1
  Zr  Zr40  1  0.50025274  0.31324934  0.09934295  1
  Zr  Zr41  1  0.30590119  0.50437574  0.89895896  1
  Zr  Zr42  1  0.10268307  0.29573467  0.69713965  1
  Zr  Zr43  1  0.70126864  0.89464180  0.30414412  1
  Zr  Zr44  1  0.70683138  0.09738097  0.49054905  1
  Zr  Zr45  1  0.49984294  0.10083098  0.49243680  1
  Zr  Zr46  1  0.90446205  0.70548202  0.70010434  1
  Zr  Zr47  1  0.09518401  0.30066675  0.50425733  1
  Zr  Zr48  1  0.90168476  0.89470836  0.09427120  1
  Zr  Zr49  1  0.49814914  0.69415250  0.69536671  1
  Sc  Sc50  1  0.70320916  0.50496704  0.09836235  1
  Sc  Sc51  1  0.50250470  0.30398619  0.29782058  1
  Sc  Sc52  1  0.10563830  0.71315493  0.70111548  1
  Sc  Sc53  1  0.30562916  0.70188834  0.70247050  1
  Sc  Sc54  1  0.90336921  0.70052311  0.49548072  1
  Sc  Sc55  1  0.29848848  0.68540786  0.29769436  1
  Sc  Sc56  1  0.90308715  0.89595584  0.89770122  1
  Sc  Sc57  1  0.09303006  0.89647019  0.30076451  1
  Sc  Sc58  1  0.50103708  0.89595027  0.70025528  1
  Sc  Sc59  1  0.50489182  0.28563760  0.69763691  1
  Sc  Sc60  1  0.70102955  0.70009288  0.09916352  1
  Sc  Sc61  1  0.50981605  0.70328172  0.09390907  1
  Sc  Sc62  1  0.69776691  0.69260132  0.91041817  1
  Sc  Sc63  1  0.09847087  0.90241970  0.49884538  1
  Sc  Sc64  1  0.70174667  0.88752675  0.09994097  1
  Sc  Sc65  1  0.09189371  0.70095796  0.29619834  1
  Sc  Sc66  1  0.09479990  0.70303974  0.50100269  1
  Sc  Sc67  1  0.10096858  0.50122310  0.29080921  1
  Sc  Sc68  1  0.30221998  0.90505913  0.90759808  1
  Sc  Sc69  1  0.89382796  0.90197992  0.50015736  1
  Sc  Sc70  1  0.90316872  0.29100589  0.29965495  1
  Sc  Sc71  1  0.89983140  0.10227854  0.49478663  1
  Sc  Sc72  1  0.70247669  0.50494737  0.90426737  1
  Sc  Sc73  1  0.30163082  0.10466700  0.29654527  1
  Sc  Sc74  1  0.69571921  0.30263289  0.50164196  1
  Sc  Sc75  1  0.10179426  0.90051222  0.10391297  1
  Sc  Sc76  1  0.49660456  0.89472980  0.09243896  1
  Sc  Sc77  1  0.89556206  0.70165581  0.10382278  1
  Sc  Sc78  1  0.69252855  0.50345946  0.50207032  1
  Sc  Sc79  1  0.90126901  0.51113321  0.50576624  1
  Sc  Sc80  1  0.30006367  0.91081470  0.29569498  1
  Sc  Sc81  1  0.70511326  0.09530098  0.70999168  1
  Sc  Sc82  1  0.69897894  0.69490708  0.69681859  1
  Sc  Sc83  1  0.90026367  0.49630133  0.09764140  1
  Sc  Sc84  1  0.50305274  0.50907229  0.70066104  1
  Sc  Sc85  1  0.50528346  0.29599755  0.49486588  1
  Sc  Sc86  1  0.09926413  0.90125996  0.71030431  1
  Sc  Sc87  1  0.89883499  0.29276711  0.50645946  1
  Sc  Sc88  1  0.30740324  0.49744172  0.29751255  1
  Sc  Sc89  1  0.30781196  0.49997829  0.10458471  1
  Sc  Sc90  1  0.89437606  0.30094732  0.90798692  1
  Sc  Sc91  1  0.48999227  0.09824166  0.09933349  1
  Sc  Sc92  1  0.30200127  0.49731665  0.49083428  1
  Sc  Sc93  1  0.29382926  0.29903086  0.49666017  1
  Sc  Sc94  1  0.11242707  0.50285134  0.89765960  1
  Sc  Sc95  1  0.89043296  0.50075933  0.90605032  1
  Sc  Sc96  1  0.69916341  0.29991575  0.10143195  1
  Sc  Sc97  1  0.10029540  0.49157595  0.69532470  1
  Sc  Sc98  1  0.89835859  0.70856585  0.90829763  1
  Sc  Sc99  1  0.89423399  0.50014625  0.69825361  1
  Nb  Nb100  1  0.50039533  0.69745682  0.50241528  1
  Nb  Nb101  1  0.50206765  0.90157704  0.49403982  1
  Nb  Nb102  1  0.30214022  0.89867861  0.09556986  1
  Nb  Nb103  1  0.50194285  0.49852817  0.10387109  1
  Nb  Nb104  1  0.49983690  0.50353896  0.49986214  1
  Nb  Nb105  1  0.09762994  0.49358356  0.09890954  1
  Nb  Nb106  1  0.29763651  0.29869824  0.89554414  1
  Nb  Nb107  1  0.50299912  0.69624936  0.29562963  1
  Nb  Nb108  1  0.10034594  0.70366335  0.90098493  1
  Nb  Nb109  1  0.50022544  0.29994366  0.89970124  1
  Nb  Nb110  1  0.89850085  0.30245083  0.10049452  1
  Nb  Nb111  1  0.89758542  0.70116333  0.30104118  1
  Nb  Nb112  1  0.50499061  0.50253610  0.29948767  1
  Nb  Nb113  1  0.10052196  0.09066234  0.89365486  1
  Nb  Nb114  1  0.09920997  0.09943938  0.71179559  1
  Nb  Nb115  1  0.89930203  0.10098800  0.10042083  1
  Nb  Nb116  1  0.10339042  0.29862021  0.89762743  1
  Nb  Nb117  1  0.69009591  0.70125299  0.49851801  1
  Nb  Nb118  1  0.30161723  0.29643433  0.70439505  1
  Nb  Nb119  1  0.69429078  0.89824542  0.50040354  1
  Nb  Nb120  1  0.09449831  0.90056476  0.90300135  1
  Nb  Nb121  1  0.50260254  0.49636459  0.90374617  1
  Nb  Nb122  1  0.69823265  0.09878396  0.90275642  1
  Nb  Nb123  1  0.90553353  0.09967861  0.70042651  1
  Nb  Nb124  1  0.29835682  0.10206362  0.70076863  1
  Nb  Nb125  1  0.80143295  0.40032061  0.20684290  1
  Nb  Nb126  1  0.19964393  0.39493951  -0.00050345  1
  Nb  Nb127  1  0.59495565  0.39802210  0.80642741  1
  Nb  Nb128  1  0.40457902  0.39195750  0.80134751  1
  Nb  Nb129  1  0.60361168  -0.00013565  0.19592354  1
  Nb  Nb130  1  0.40205355  0.00236355  0.59870786  1
  Nb  Nb131  1  0.40202771  0.79700899  0.20530127  1
  Nb  Nb132  1  0.20819660  0.79726838  0.39901155  1
  Nb  Nb133  1  0.00230853  0.39975541  0.80426594  1
  Nb  Nb134  1  0.19970369  0.79947440  0.00112844  1
  Nb  Nb135  1  -0.01079031  0.00361110  0.19786095  1
  Nb  Nb136  1  0.00887481  0.60110179  -0.00241231  1
  Nb  Nb137  1  0.20087350  0.59851525  0.59762693  1
  Nb  Nb138  1  -0.00099890  0.00769836  0.60914875  1
  Nb  Nb139  1  0.60071188  0.79660567  0.80003019  1
  Nb  Nb140  1  0.39392484  0.20785963  -0.00690544  1
  Nb  Nb141  1  0.60021499  -0.00454359  0.59154879  1
  Nb  Nb142  1  0.39759202  0.00518469  0.79239130  1
  Nb  Nb143  1  0.19588129  0.20351721  -0.00697010  1
  Nb  Nb144  1  -0.00548706  0.40269534  0.39842570  1
  Nb  Nb145  1  0.60625198  0.00524444  -0.00018616  1
  Nb  Nb146  1  0.00310174  0.60127874  0.80642290  1
  Nb  Nb147  1  0.80314013  0.40418940  0.39706997  1
  Nb  Nb148  1  0.40171040  0.39689464  0.60466681  1
  Nb  Nb149  1  0.40383231  0.79555826  0.39794465  1
  Pd  Pd150  1  0.00885118  0.59695160  0.39962449  1
  Pd  Pd151  1  -0.00272443  0.20581683  0.80847776  1
  Pd  Pd152  1  0.00153921  0.81392611  0.59944214  1
  Pd  Pd153  1  0.40858929  0.39639053  0.40406222  1
  Pd  Pd154  1  0.40685848  0.60192307  0.39745118  1
  Pd  Pd155  1  0.19729980  0.20424327  0.39526221  1
  Pd  Pd156  1  0.00040740  0.20174207  -0.00713693  1
  Pd  Pd157  1  0.59031425  0.19404042  0.01185928  1
  Pd  Pd158  1  0.40256955  0.20071284  0.19410198  1
  Pd  Pd159  1  0.20223335  0.19697310  0.60322558  1
  Pd  Pd160  1  0.59969511  0.60030184  0.19185840  1
  Pd  Pd161  1  0.58961323  0.40179767  0.60763959  1
  Pd  Pd162  1  0.00428033  0.40910073  -0.01177584  1
  Pd  Pd163  1  0.40751427  -0.00754773  0.19808652  1
  Pd  Pd164  1  0.40169556  0.80554332  0.80094971  1
  Pd  Pd165  1  0.18855569  0.00266591  0.20527885  1
  Pd  Pd166  1  0.61409428  0.19057137  0.60004204  1
  Pd  Pd167  1  0.19578470  0.19008104  0.19423568  1
  Pd  Pd168  1  0.19124421  0.60351022  0.40339386  1
  Pd  Pd169  1  0.19307601  0.40202885  0.39428122  1
  Pd  Pd170  1  0.39256465  0.39727536  -0.00329790  1
  Pd  Pd171  1  0.39373871  0.20266506  0.59285916  1
  Pd  Pd172  1  0.59494494  0.79119190  0.39836359  1
  Pd  Pd173  1  0.19587173  -0.00458325  0.39212489  1
  Pd  Pd174  1  0.59889354  0.80230629  0.60555102  1
  Pd  Pd175  1  0.80822656  0.60737794  0.80414075  1
  Pd  Pd176  1  0.60924526  0.40532168  -0.00164668  1
  Pd  Pd177  1  0.80183863  0.19471195  0.80475129  1
  Pd  Pd178  1  0.79531277  0.19293071  0.60045159  1
  Pd  Pd179  1  0.40412536  0.80645805  0.59538541  1
  Pd  Pd180  1  0.79742266  -0.00601710  -0.00092025  1
  Pd  Pd181  1  0.80295933  0.40479854  0.58881420  1
  Pd  Pd182  1  0.79156152  0.78812500  0.80462822  1
  Pd  Pd183  1  0.79927543  -0.01069327  0.19756536  1
  Pd  Pd184  1  0.19392440  0.60342012  0.78785054  1
  Pd  Pd185  1  0.00942696  0.60316722  0.61286961  1
  Pd  Pd186  1  0.19656001  0.59784138  0.00945794  1
  Pd  Pd187  1  -0.00440491  0.59845691  0.19046104  1
  Pd  Pd188  1  0.79573157  0.60662324  0.59468105  1
  Pd  Pd189  1  0.40832784  0.60073824  0.00734758  1
  Pd  Pd190  1  0.59204983  0.19375933  0.19262729  1
  Pd  Pd191  1  0.19955942  0.59279965  0.19702660  1
  Pd  Pd192  1  -0.00688027  0.19326098  0.20063271  1
  Pd  Pd193  1  0.20064521  0.40051227  0.80017910  1
  Pd  Pd194  1  0.79936004  0.79350123  0.40904685  1
  Pd  Pd195  1  0.20459002  0.80687785  0.81176504  1
  Pd  Pd196  1  0.80053223  0.79161234  0.59206406  1
  Pd  Pd197  1  0.19342706  0.00537556  0.60481362  1
  Pd  Pd198  1  0.79892340  0.40078546  0.80714206  1
  Pd  Pd199  1  0.21031720  0.80285835  0.20414062  1
  Rh  Rh200  1  0.59445604  0.80411256  0.20072440  1
  Rh  Rh201  1  -0.00552797  -0.00111193  0.40352498  1
  Rh  Rh202  1  0.61406232  0.20899524  0.79377899  1
  Rh  Rh203  1  0.80003467  0.59983056  0.19654167  1
  Rh  Rh204  1  0.59509050  -0.00911321  0.79875399  1
  Rh  Rh205  1  -0.00326430  -0.00301844  0.79815088  1
  Rh  Rh206  1  0.19587015  0.19815165  0.79984168  1
  Rh  Rh207  1  0.79224490  0.60503716  0.40871837  1
  Rh  Rh208  1  0.00835791  0.79706051  0.00127794  1
  Rh  Rh209  1  0.80058503  0.00532487  0.59713606  1
  Rh  Rh210  1  0.59475281  0.60365992  0.40570546  1
  Rh  Rh211  1  0.80555378  0.21056045  0.19587985  1
  Rh  Rh212  1  0.79509485  0.39634829  0.01094934  1
  Rh  Rh213  1  0.00016683  0.20926713  0.40259600  1
  Rh  Rh214  1  0.00009795  -0.00529153  0.00376228  1
  Rh  Rh215  1  0.60465611  0.40758539  0.19907465  1
  Rh  Rh216  1  0.39504575  -0.00256833  0.40267151  1
  Rh  Rh217  1  0.79796324  -0.00746680  0.40161307  1
  Rh  Rh218  1  -0.01380657  0.40662654  0.20995061  1
  Rh  Rh219  1  0.80944523  0.60260022  0.00548998  1
  Rh  Rh220  1  0.40670791  0.40522081  0.20645135  1
  Rh  Rh221  1  0.60075316  0.60010935  0.59529693  1
  Rh  Rh222  1  0.80845222  0.00759121  0.80371777  1
  Rh  Rh223  1  0.59653088  0.59262450  0.00393855  1
  Rh  Rh224  1  -0.00117062  0.79674865  0.80193942  1
  Rh  Rh225  1  -0.00750907  0.80488870  0.20178566  1
  Rh  Rh226  1  0.79644795  0.79946100  -0.00189002  1
  Rh  Rh227  1  0.40521473  0.59418873  0.80089557  1
  Rh  Rh228  1  0.00243463  0.19104377  0.60267750  1
  Rh  Rh229  1  0.39565467  0.58934951  0.59605934  1
  Rh  Rh230  1  0.39550989  0.19921959  0.80241581  1
  Rh  Rh231  1  0.79655143  0.21300680  0.40247899  1
  Rh  Rh232  1  0.80177057  0.79500081  0.20216804  1
  Rh  Rh233  1  0.60781834  0.80733555  -0.01050745  1
  Rh  Rh234  1  0.60806117  0.00238542  0.39674671  1
  Rh  Rh235  1  0.00440877  0.79862764  0.40016366  1
  Rh  Rh236  1  0.20333611  0.40764437  0.19460253  1
  Rh  Rh237  1  0.60033848  0.40463113  0.40028379  1
  Rh  Rh238  1  0.19074433  -0.00737113  -0.00322623  1
  Rh  Rh239  1  0.39760992  0.20844903  0.39597400  1
  Rh  Rh240  1  -0.01093413  0.39922862  0.60301566  1
  Rh  Rh241  1  0.80632315  0.20185710  0.00162922  1
  Rh  Rh242  1  0.59946931  0.59946346  0.80436023  1
  Rh  Rh243  1  0.20354509  -0.00592331  0.80138215  1
  Rh  Rh244  1  0.41266485  0.01295718  -0.01350044  1
  Rh  Rh245  1  0.41112119  0.60111555  0.19690497  1
  Rh  Rh246  1  0.39231414  0.79304785  0.00536507  1
  Rh  Rh247  1  0.21421579  0.40221026  0.59776025  1
  Rh  Rh248  1  0.60157699  0.20183550  0.39925006  1
  Rh  Rh249  1  0.19810600  0.79182039  0.59091497  1
