# generated using pymatgen
data_ZrScNbPdRh
_symmetry_space_group_name_H-M   'P 1'
_cell_length_a   16.55174355
_cell_length_b   16.55394658
_cell_length_c   16.55456414
_cell_angle_alpha   89.98007555
_cell_angle_beta   90.01294710
_cell_angle_gamma   89.95798158
_symmetry_Int_Tables_number   1
_chemical_formula_structural   ZrScNbPdRh
_chemical_formula_sum   'Zr50 Sc50 Nb50 Pd50 Rh50'
_cell_volume   4535.89397944
_cell_formula_units_Z   50
loop_
 _symmetry_equiv_pos_site_id
 _symmetry_equiv_pos_as_xyz
  1  'x, y, z'
loop_
 _atom_site_type_symbol
 _atom_site_label
 _atom_site_symmetry_multiplicity
 _atom_site_fract_x
 _atom_site_fract_y
 _atom_site_fract_z
 _atom_site_occupancy
  Zr  Zr0  1  0.30206728  0.89819501  0.89657602  1
  Zr  Zr1  1  0.50637633  0.90466444  0.90025122  1
  Zr  Zr2  1  0.89811216  0.08724450  0.90074250  1
  Zr  Zr3  1  0.30602595  0.89714622  0.09174410  1
  Zr  Zr4  1  0.89919359  0.09900954  0.50605833  1
  Zr  Zr5  1  0.69329991  0.69901970  0.09672050  1
  Zr  Zr6  1  0.69700639  0.29984752  0.30448855  1
  Zr  Zr7  1  0.09238760  0.70875023  0.29905427  1
  Zr  Zr8  1  0.69995669  0.49086369  0.29523576  1
  Zr  Zr9  1  0.10183846  0.09992425  0.50651485  1
  Zr  Zr10  1  0.50199787  0.50031669  0.90099866  1
  Zr  Zr11  1  0.90548641  0.69613575  0.30621819  1
  Zr  Zr12  1  0.30420357  0.30270167  0.89793950  1
  Zr  Zr13  1  0.49951455  0.49327421  0.29989230  1
  Zr  Zr14  1  0.70496723  0.50089298  0.09569832  1
  Zr  Zr15  1  0.90248642  0.49618888  0.49376864  1
  Zr  Zr16  1  0.29750908  0.50560775  0.50389500  1
  Zr  Zr17  1  0.69897999  0.09386700  0.89611143  1
  Zr  Zr18  1  0.29626837  0.70406513  0.69820668  1
  Zr  Zr19  1  0.50088259  0.09823415  0.09445193  1
  Zr  Zr20  1  0.49161937  0.49817895  0.69981831  1
  Zr  Zr21  1  0.89603932  0.09807410  0.70255704  1
  Zr  Zr22  1  0.30387796  0.49872286  0.89193639  1
  Zr  Zr23  1  0.30111037  0.69834244  0.09616443  1
  Zr  Zr24  1  0.70736035  0.30933076  0.70303808  1
  Zr  Zr25  1  0.50227647  0.69602762  0.09042445  1
  Zr  Zr26  1  0.30224188  0.09393361  0.11385155  1
  Zr  Zr27  1  0.51183263  0.70785804  0.69104803  1
  Zr  Zr28  1  0.90516683  0.49846661  0.10186365  1
  Zr  Zr29  1  0.49600184  0.70056046  0.49464872  1
  Zr  Zr30  1  0.90157706  0.30342236  0.69246784  1
  Zr  Zr31  1  0.70321743  0.49847511  0.70425423  1
  Zr  Zr32  1  0.50347214  0.29617773  0.90280824  1
  Zr  Zr33  1  0.69252327  0.69559833  0.50737990  1
  Zr  Zr34  1  0.89798417  0.70493938  0.88655737  1
  Zr  Zr35  1  0.08757213  0.50466158  0.30405604  1
  Zr  Zr36  1  0.10493645  0.29175380  0.29755724  1
  Zr  Zr37  1  0.69942733  0.09904245  0.09752267  1
  Zr  Zr38  1  0.90078472  0.30273474  0.49932246  1
  Zr  Zr39  1  0.90350619  0.09803492  0.09359227  1
  Zr  Zr40  1  0.29758749  0.91039532  0.70432297  1
  Zr  Zr41  1  0.09640057  0.70898001  0.70619775  1
  Zr  Zr42  1  0.30143984  0.69578317  0.30227618  1
  Zr  Zr43  1  0.90280031  0.29146818  0.89639201  1
  Zr  Zr44  1  0.10687555  0.30260443  0.90488811  1
  Zr  Zr45  1  0.49625923  0.29920100  0.09752425  1
  Zr  Zr46  1  0.09541248  0.49948953  0.49898270  1
  Zr  Zr47  1  0.89759657  0.10092524  0.29192549  1
  Zr  Zr48  1  0.90853634  0.89032214  0.29700420  1
  Zr  Zr49  1  0.70466281  0.29972650  0.49457988  1
  Sc  Sc50  1  0.90358855  0.90313644  0.50716724  1
  Sc  Sc51  1  0.50061996  0.09447886  0.50256705  1
  Sc  Sc52  1  0.09745485  0.69720267  0.09100308  1
  Sc  Sc53  1  0.10183514  0.69583379  0.90172808  1
  Sc  Sc54  1  0.49076596  0.09172957  0.70334526  1
  Sc  Sc55  1  0.69505097  0.91009989  0.50414396  1
  Sc  Sc56  1  0.69954108  0.30820777  0.90206810  1
  Sc  Sc57  1  0.50056054  0.30314295  0.49277274  1
  Sc  Sc58  1  0.50529440  0.50034271  0.10004495  1
  Sc  Sc59  1  0.29525172  0.90602313  0.27877890  1
  Sc  Sc60  1  0.49734650  0.09942393  0.29823884  1
  Sc  Sc61  1  0.30980841  0.50344374  0.09582594  1
  Sc  Sc62  1  0.70070611  0.09618952  0.30939467  1
  Sc  Sc63  1  0.90178327  0.30309247  0.10293553  1
  Sc  Sc64  1  0.30513932  0.50153328  0.30090996  1
  Sc  Sc65  1  0.70235747  0.31027709  0.09677440  1
  Sc  Sc66  1  0.09958765  0.11257642  0.10236721  1
  Sc  Sc67  1  0.10081389  0.50276962  0.91190064  1
  Sc  Sc68  1  0.50157826  0.10106202  0.90305343  1
  Sc  Sc69  1  0.30813597  0.29006831  0.30042779  1
  Sc  Sc70  1  0.10074696  0.69927848  0.49726629  1
  Sc  Sc71  1  0.68300214  0.90190172  0.70220115  1
  Sc  Sc72  1  0.10072325  0.09865806  0.69207222  1
  Sc  Sc73  1  0.09911727  0.90225171  0.89018630  1
  Sc  Sc74  1  0.70194934  0.49396739  0.90058536  1
  Sc  Sc75  1  0.09867335  0.89599104  0.10742656  1
  Sc  Sc76  1  0.29946034  0.89783994  0.51147498  1
  Sc  Sc77  1  0.49895785  0.90147546  0.50662262  1
  Sc  Sc78  1  0.89202812  0.69936664  0.09878677  1
  Sc  Sc79  1  0.50333946  0.90375388  0.29897855  1
  Sc  Sc80  1  0.10860748  0.89864510  0.69914028  1
  Sc  Sc81  1  0.09904433  0.50079403  0.70165161  1
  Sc  Sc82  1  0.89606336  0.90651329  0.10185415  1
  Sc  Sc83  1  0.69721744  0.49726252  0.49690062  1
  Sc  Sc84  1  0.49361855  0.30919000  0.69688816  1
  Sc  Sc85  1  0.70313591  0.70757917  0.90209818  1
  Sc  Sc86  1  0.09102556  0.29923762  0.50841623  1
  Sc  Sc87  1  0.31192517  0.09683019  0.89181482  1
  Sc  Sc88  1  0.89888797  0.50506556  0.90370041  1
  Sc  Sc89  1  0.30386954  0.69966679  0.90985429  1
  Sc  Sc90  1  0.89092610  0.30353005  0.30105048  1
  Sc  Sc91  1  0.69646087  0.89624521  0.10513527  1
  Sc  Sc92  1  0.30013089  0.10512738  0.51131598  1
  Sc  Sc93  1  0.08630973  0.10583692  0.90780265  1
  Sc  Sc94  1  0.09686586  0.90024464  0.51224030  1
  Sc  Sc95  1  0.30493725  0.29332431  0.50486329  1
  Sc  Sc96  1  0.50403064  0.90384330  0.09705748  1
  Sc  Sc97  1  0.70212386  0.09321826  0.49910238  1
  Sc  Sc98  1  0.69925999  0.69172237  0.29330477  1
  Sc  Sc99  1  0.29749720  0.69815975  0.49786706  1
  Nb  Nb100  1  0.89289895  0.69558264  0.70465749  1
  Nb  Nb101  1  0.90960959  0.89078392  0.71054559  1
  Nb  Nb102  1  0.10642399  0.09853743  0.29810216  1
  Nb  Nb103  1  0.30058361  0.10849570  0.70118002  1
  Nb  Nb104  1  0.89512943  0.70139385  0.50142266  1
  Nb  Nb105  1  0.09831129  0.49851114  0.10132377  1
  Nb  Nb106  1  0.89950979  0.90442728  0.90048240  1
  Nb  Nb107  1  0.09725230  0.89841194  0.29960603  1
  Nb  Nb108  1  0.70302920  0.90647007  0.90392678  1
  Nb  Nb109  1  0.70338492  0.69688308  0.70054115  1
  Nb  Nb110  1  0.29410539  0.09665967  0.30069312  1
  Nb  Nb111  1  0.10109702  0.30271791  0.69930395  1
  Nb  Nb112  1  0.50359994  0.69975836  0.90101951  1
  Nb  Nb113  1  0.69585418  0.10089111  0.69796030  1
  Nb  Nb114  1  0.29187435  0.29502706  0.09893113  1
  Nb  Nb115  1  0.49725132  0.90089293  0.69879353  1
  Nb  Nb116  1  0.49649231  0.49701397  0.50189197  1
  Nb  Nb117  1  0.30248242  0.49374767  0.70262406  1
  Nb  Nb118  1  0.50782382  0.30316549  0.29667433  1
  Nb  Nb119  1  0.69973705  0.89605322  0.30962552  1
  Nb  Nb120  1  0.49411231  0.69904711  0.29810914  1
  Nb  Nb121  1  0.10899732  0.30433368  0.09565380  1
  Nb  Nb122  1  0.90255558  0.49929139  0.30330221  1
  Nb  Nb123  1  0.29941830  0.30559598  0.70356392  1
  Nb  Nb124  1  0.89584258  0.50102290  0.70382705  1
  Nb  Nb125  1  0.19853867  -0.00082034  0.39599766  1
  Nb  Nb126  1  0.19396766  0.59350958  0.19748987  1
  Nb  Nb127  1  0.20321242  0.20497250  0.79456014  1
  Nb  Nb128  1  0.38693927  0.00107613  0.39593019  1
  Nb  Nb129  1  0.79600564  0.79763827  0.40670679  1
  Nb  Nb130  1  0.60196739  0.79784849  0.39739276  1
  Nb  Nb131  1  0.59857057  0.20525669  0.20030519  1
  Nb  Nb132  1  0.40495490  0.79305148  0.19903111  1
  Nb  Nb133  1  0.80209485  0.19464021  -0.00284246  1
  Nb  Nb134  1  0.20322653  0.40033593  0.60410523  1
  Nb  Nb135  1  0.19800708  0.39913332  0.40073077  1
  Nb  Nb136  1  0.00767597  0.00240591  0.39309454  1
  Nb  Nb137  1  0.60020598  0.60551560  0.79712357  1
  Nb  Nb138  1  0.60238095  0.20034312  0.79201612  1
  Nb  Nb139  1  0.19752423  0.40110710  0.19741662  1
  Nb  Nb140  1  0.40916099  0.80114100  0.79890586  1
  Nb  Nb141  1  0.00029228  0.39803030  0.79843957  1
  Nb  Nb142  1  0.80186116  0.79401947  0.60718274  1
  Nb  Nb143  1  0.19788436  0.81085319  0.39364881  1
  Nb  Nb144  1  0.60436920  0.20009320  0.60645139  1
  Nb  Nb145  1  0.00094808  0.19105753  0.39612099  1
  Nb  Nb146  1  0.20132691  0.00078463  0.00127520  1
  Nb  Nb147  1  0.20720448  0.59558878  0.79731185  1
  Nb  Nb148  1  -0.01221808  0.60564745  0.60580015  1
  Nb  Nb149  1  -0.00924656  0.80556646  -0.00847817  1
  Pd  Pd150  1  0.59649754  0.59890528  0.39404906  1
  Pd  Pd151  1  0.20373817  0.79091773  0.20002323  1
  Pd  Pd152  1  0.39915578  0.40118987  0.00264501  1
  Pd  Pd153  1  0.60153607  0.79802315  0.80605360  1
  Pd  Pd154  1  0.18687107  0.80741268  -0.00623044  1
  Pd  Pd155  1  0.00278252  0.39187793  0.20474682  1
  Pd  Pd156  1  0.40202436  0.61289276  0.79734185  1
  Pd  Pd157  1  0.38978814  0.19406725  0.00185572  1
  Pd  Pd158  1  0.00703155  0.59285642  0.80034289  1
  Pd  Pd159  1  0.79926598  0.79820544  0.20608361  1
  Pd  Pd160  1  0.00818973  0.20124869  0.79218287  1
  Pd  Pd161  1  0.40133027  0.60368904  0.60042663  1
  Pd  Pd162  1  0.60033948  0.39556621  0.59534852  1
  Pd  Pd163  1  -0.00427137  0.79513970  0.60055605  1
  Pd  Pd164  1  0.60317302  0.00663154  0.20590897  1
  Pd  Pd165  1  0.79266132  0.20079100  0.80506194  1
  Pd  Pd166  1  0.00054442  0.60691670  0.19218528  1
  Pd  Pd167  1  0.40260865  0.59346697  0.40219675  1
  Pd  Pd168  1  0.00859739  0.00052375  0.79290803  1
  Pd  Pd169  1  0.81157705  -0.00909062  0.39774101  1
  Pd  Pd170  1  0.80408116  0.59617755  0.20229655  1
  Pd  Pd171  1  0.79514588  -0.01093984  0.78927590  1
  Pd  Pd172  1  -0.00052494  0.20640485  0.19917902  1
  Pd  Pd173  1  0.39680326  0.80131768  0.60430752  1
  Pd  Pd174  1  0.79374694  0.19884362  0.59705718  1
  Pd  Pd175  1  0.80220774  0.59496703  0.59715799  1
  Pd  Pd176  1  0.79914186  0.60292866  -0.00707063  1
  Pd  Pd177  1  0.41125894  0.20124048  0.60538333  1
  Pd  Pd178  1  0.00698245  0.00284531  0.19644673  1
  Pd  Pd179  1  -0.00367207  0.39752504  -0.00549173  1
  Pd  Pd180  1  0.59545808  0.19256465  0.40245792  1
  Pd  Pd181  1  0.80097219  -0.01354050  0.61246053  1
  Pd  Pd182  1  0.59720846  0.58891276  0.60393931  1
  Pd  Pd183  1  0.20872830  0.40896341  0.00577639  1
  Pd  Pd184  1  0.79008896  0.20440161  0.19360940  1
  Pd  Pd185  1  0.20862168  0.18628503  -0.00958318  1
  Pd  Pd186  1  0.40478075  0.20015296  0.20301092  1
  Pd  Pd187  1  0.79368328  -0.00536397  0.20472875  1
  Pd  Pd188  1  0.80189789  0.80774751  0.00193821  1
  Pd  Pd189  1  0.79584779  0.60009075  0.39845001  1
  Pd  Pd190  1  0.39553636  0.81439065  0.39073458  1
  Pd  Pd191  1  0.19202663  0.59830362  0.60838145  1
  Pd  Pd192  1  0.40580794  0.19214627  0.39927131  1
  Pd  Pd193  1  0.59511346  0.59597247  0.20205707  1
  Pd  Pd194  1  0.39268247  0.39689143  0.40281085  1
  Pd  Pd195  1  0.19757736  0.20132394  0.40827291  1
  Pd  Pd196  1  0.19160631  0.01760835  0.80730631  1
  Pd  Pd197  1  0.78996969  0.81182099  0.79320439  1
  Pd  Pd198  1  0.59406908  0.79838059  0.20575317  1
  Pd  Pd199  1  0.39157339  0.39613461  0.19705931  1
  Rh  Rh200  1  0.80498182  0.40588170  0.20102624  1
  Rh  Rh201  1  0.40327119  0.20678291  0.79532213  1
  Rh  Rh202  1  -0.00378530  -0.00269040  0.60849861  1
  Rh  Rh203  1  0.59542999  0.00648210  0.79903975  1
  Rh  Rh204  1  0.40768565  0.39437807  0.80434751  1
  Rh  Rh205  1  0.80922568  0.39354069  -0.00261493  1
  Rh  Rh206  1  -0.00292806  0.60667332  0.41029359  1
  Rh  Rh207  1  0.60378789  0.80456250  -0.00374570  1
  Rh  Rh208  1  0.00017833  0.80769684  0.41148452  1
  Rh  Rh209  1  0.39587173  0.00348063  -0.00131497  1
  Rh  Rh210  1  0.00412592  0.38460264  0.39062268  1
  Rh  Rh211  1  0.39320200  0.40032396  0.59075982  1
  Rh  Rh212  1  0.80011292  0.40690017  0.59419060  1
  Rh  Rh213  1  0.00178952  0.41165826  0.61076813  1
  Rh  Rh214  1  0.59420606  0.40107230  0.80082616  1
  Rh  Rh215  1  0.40501204  -0.00581302  0.79949706  1
  Rh  Rh216  1  0.19880922  0.79751151  0.59030030  1
  Rh  Rh217  1  0.80031570  0.40430926  0.39761821  1
  Rh  Rh218  1  0.40761630  -0.00568792  0.20415885  1
  Rh  Rh219  1  0.19441630  0.60262655  0.38855055  1
  Rh  Rh220  1  0.20990323  0.78925436  0.80815183  1
  Rh  Rh221  1  -0.00684288  0.79426167  0.18382167  1
  Rh  Rh222  1  0.81262499  0.40307964  0.80707255  1
  Rh  Rh223  1  -0.00271347  0.19687886  0.60114224  1
  Rh  Rh224  1  0.60721858  0.59815738  -0.01061864  1
  Rh  Rh225  1  -0.00831493  0.61105676  0.00023213  1
  Rh  Rh226  1  0.60469574  -0.00457491  0.00060093  1
  Rh  Rh227  1  0.20401410  0.20414166  0.19787206  1
  Rh  Rh228  1  0.20503390  0.59325150  0.00048462  1
  Rh  Rh229  1  0.19100102  0.00148400  0.19341175  1
  Rh  Rh230  1  0.60619290  0.80637455  0.59082706  1
  Rh  Rh231  1  0.58908368  -0.00569829  0.40227650  1
  Rh  Rh232  1  0.80787937  0.19484055  0.40366872  1
  Rh  Rh233  1  0.59648875  0.40502173  0.40459032  1
  Rh  Rh234  1  0.79444141  -0.00241757  0.00396051  1
  Rh  Rh235  1  0.59427443  0.00800364  0.60382588  1
  Rh  Rh236  1  0.20101007  0.20859102  0.60831096  1
  Rh  Rh237  1  0.01125243  -0.01127864  0.00553926  1
  Rh  Rh238  1  0.00277442  0.80263737  0.80550758  1
  Rh  Rh239  1  0.39983402  0.60480405  0.19673896  1
  Rh  Rh240  1  0.60023205  0.39539754  0.19425061  1
  Rh  Rh241  1  0.20598965  0.00263137  0.59888046  1
  Rh  Rh242  1  -0.00568416  0.20832098  0.00824243  1
  Rh  Rh243  1  0.78966408  0.59730896  0.80659196  1
  Rh  Rh244  1  0.59880294  0.40275431  0.00315221  1
  Rh  Rh245  1  0.39549648  0.00284816  0.59851938  1
  Rh  Rh246  1  0.41317220  0.80216450  -0.00142994  1
  Rh  Rh247  1  0.61303538  0.20256937  -0.00123867  1
  Rh  Rh248  1  0.19075492  0.40203790  0.79480454  1
  Rh  Rh249  1  0.40345022  0.59622942  -0.00254219  1
