# generated using pymatgen
data_ZrScNbPdRh
_symmetry_space_group_name_H-M   'P 1'
_cell_length_a   16.55402252
_cell_length_b   16.55588777
_cell_length_c   16.55671135
_cell_angle_alpha   90.02129387
_cell_angle_beta   90.00225750
_cell_angle_gamma   89.98124644
_symmetry_Int_Tables_number   1
_chemical_formula_structural   ZrScNbPdRh
_chemical_formula_sum   'Zr50 Sc50 Nb50 Pd50 Rh50'
_cell_volume   4537.64001689
_cell_formula_units_Z   50
loop_
 _symmetry_equiv_pos_site_id
 _symmetry_equiv_pos_as_xyz
  1  'x, y, z'
loop_
 _atom_site_type_symbol
 _atom_site_label
 _atom_site_symmetry_multiplicity
 _atom_site_fract_x
 _atom_site_fract_y
 _atom_site_fract_z
 _atom_site_occupancy
  Zr  Zr0  1  0.90801843  0.90242546  0.09565257  1
  Zr  Zr1  1  0.90868230  0.69629388  0.09987386  1
  Zr  Zr2  1  0.90713648  0.29314963  0.90041922  1
  Zr  Zr3  1  0.69496777  0.70595815  0.31068372  1
  Zr  Zr4  1  0.09651765  0.50408665  0.49727086  1
  Zr  Zr5  1  0.09056717  0.50086583  0.09872669  1
  Zr  Zr6  1  0.49824196  0.69457832  0.49170859  1
  Zr  Zr7  1  0.29804484  0.70722103  0.89837262  1
  Zr  Zr8  1  0.70825801  0.09463393  0.50189224  1
  Zr  Zr9  1  0.90308334  0.69813972  0.49586881  1
  Zr  Zr10  1  0.90259214  0.29287373  0.30690528  1
  Zr  Zr11  1  0.29284654  0.70224219  0.69804450  1
  Zr  Zr12  1  0.50425116  0.09678528  0.10269595  1
  Zr  Zr13  1  0.29253951  0.28889134  0.10666237  1
  Zr  Zr14  1  0.89784924  0.49720384  0.68942098  1
  Zr  Zr15  1  0.49826165  0.09237699  0.70192990  1
  Zr  Zr16  1  0.30033940  0.90465805  0.70550560  1
  Zr  Zr17  1  0.09852789  0.90571245  0.90986526  1
  Zr  Zr18  1  0.09902317  0.70295235  0.10055155  1
  Zr  Zr19  1  0.69354114  0.10175219  0.70701165  1
  Zr  Zr20  1  0.69929689  0.69694008  0.49822722  1
  Zr  Zr21  1  0.49782510  0.29624218  0.69137101  1
  Zr  Zr22  1  0.89831254  0.90975369  0.48928122  1
  Zr  Zr23  1  0.10321298  0.49834977  0.30362836  1
  Zr  Zr24  1  0.49557883  0.10636500  0.50674694  1
  Zr  Zr25  1  0.89900604  0.50175918  0.49989565  1
  Zr  Zr26  1  0.10107800  0.68942532  0.89775773  1
  Zr  Zr27  1  0.29432150  0.29997155  0.30322528  1
  Zr  Zr28  1  0.49639625  0.10035571  0.30424234  1
  Zr  Zr29  1  0.50464910  0.30622655  0.50294161  1
  Zr  Zr30  1  0.49663335  0.89889838  0.09326837  1
  Zr  Zr31  1  0.70113055  0.70164939  0.89354789  1
  Zr  Zr32  1  0.29162354  0.29651139  0.89236001  1
  Zr  Zr33  1  0.29992015  0.51797575  0.49462671  1
  Zr  Zr34  1  0.90082421  0.69977644  0.89905179  1
  Zr  Zr35  1  0.30653451  0.29342133  0.50241514  1
  Zr  Zr36  1  0.29435893  0.89814830  0.09973818  1
  Zr  Zr37  1  0.09842311  0.11182263  0.90466431  1
  Zr  Zr38  1  0.90487859  0.89768190  0.70068690  1
  Zr  Zr39  1  0.90235264  0.50177995  0.30128633  1
  Zr  Zr40  1  0.30160452  0.70242565  0.10093175  1
  Zr  Zr41  1  0.70124448  0.50487004  0.69243881  1
  Zr  Zr42  1  0.88822655  0.10456013  0.90596285  1
  Zr  Zr43  1  0.69990872  0.89768024  0.49487765  1
  Zr  Zr44  1  0.09547668  0.30152283  0.49044546  1
  Zr  Zr45  1  0.91162463  0.50011341  0.90079980  1
  Zr  Zr46  1  0.49605079  0.49567309  0.89616972  1
  Zr  Zr47  1  0.69446498  0.90576945  0.70135787  1
  Zr  Zr48  1  0.89662304  0.30660350  0.49865357  1
  Zr  Zr49  1  0.90058153  0.69878967  0.70182791  1
  Sc  Sc50  1  0.30669748  0.09864627  0.49596606  1
  Sc  Sc51  1  0.70293499  0.91451004  0.10313811  1
  Sc  Sc52  1  0.49787283  0.70300685  0.11401246  1
  Sc  Sc53  1  0.49856061  0.49233119  0.69418764  1
  Sc  Sc54  1  0.29295337  0.50205132  0.88924337  1
  Sc  Sc55  1  0.09932124  0.09512897  0.50034000  1
  Sc  Sc56  1  0.10035903  0.90150867  0.10924425  1
  Sc  Sc57  1  0.70801069  0.49716399  0.10913723  1
  Sc  Sc58  1  0.10913297  0.10008061  0.10058533  1
  Sc  Sc59  1  0.09790743  0.90145533  0.69643087  1
  Sc  Sc60  1  0.90533211  0.90704768  0.90071306  1
  Sc  Sc61  1  0.90265909  0.69791666  0.30563386  1
  Sc  Sc62  1  0.10647114  0.29599747  0.71162334  1
  Sc  Sc63  1  0.09829087  0.49853921  0.70513607  1
  Sc  Sc64  1  0.49934483  0.69077775  0.69697084  1
  Sc  Sc65  1  0.70404469  0.28451288  0.89206715  1
  Sc  Sc66  1  0.09628387  0.89172830  0.50000511  1
  Sc  Sc67  1  0.49727002  0.29896568  0.88404043  1
  Sc  Sc68  1  0.88963037  0.09711802  0.09905537  1
  Sc  Sc69  1  0.09174467  0.70673032  0.30537341  1
  Sc  Sc70  1  0.30977676  0.70025568  0.31083129  1
  Sc  Sc71  1  0.49017194  0.90603471  0.89735924  1
  Sc  Sc72  1  0.29807513  0.10939243  0.30071042  1
  Sc  Sc73  1  0.50940504  0.30318803  0.30014075  1
  Sc  Sc74  1  0.50576353  0.50915427  0.30303306  1
  Sc  Sc75  1  0.30727012  0.49727902  0.69788389  1
  Sc  Sc76  1  0.89607032  0.09466394  0.70798801  1
  Sc  Sc77  1  0.70253915  0.09660860  0.10297618  1
  Sc  Sc78  1  0.70464826  0.50550338  0.89139409  1
  Sc  Sc79  1  0.70435051  0.29830660  0.10861130  1
  Sc  Sc80  1  0.90133681  0.09651665  0.30449679  1
  Sc  Sc81  1  0.49113029  0.91402590  0.49669027  1
  Sc  Sc82  1  0.70630068  0.30837231  0.29970077  1
  Sc  Sc83  1  0.90127897  0.29769971  0.10624886  1
  Sc  Sc84  1  0.70034908  0.69834910  0.70562143  1
  Sc  Sc85  1  0.49622808  0.70711720  0.89511144  1
  Sc  Sc86  1  0.70349773  0.69524476  0.10608576  1
  Sc  Sc87  1  0.50155337  0.89119438  0.29999492  1
  Sc  Sc88  1  0.70029744  0.49731501  0.49962059  1
  Sc  Sc89  1  0.69043342  0.29831583  0.69649096  1
  Sc  Sc90  1  0.29814175  0.09087849  0.89570514  1
  Sc  Sc91  1  0.29881244  0.50337079  0.10417744  1
  Sc  Sc92  1  0.50007523  0.50373032  0.10857455  1
  Sc  Sc93  1  0.29712851  0.10015560  0.69744802  1
  Sc  Sc94  1  0.70782819  0.89969667  0.30392670  1
  Sc  Sc95  1  0.90054443  0.50273460  0.10375632  1
  Sc  Sc96  1  0.50494012  0.50310936  0.50479170  1
  Sc  Sc97  1  0.09880286  0.29472945  0.29208751  1
  Sc  Sc98  1  0.30325318  0.29991219  0.70144425  1
  Sc  Sc99  1  0.10444268  0.09605012  0.69884600  1
  Nb  Nb100  1  0.50740158  0.69773304  0.30121682  1
  Nb  Nb101  1  0.91048417  0.89798945  0.29832069  1
  Nb  Nb102  1  0.69620771  0.09554978  0.90516901  1
  Nb  Nb103  1  0.49884819  0.30155563  0.09679017  1
  Nb  Nb104  1  0.30135292  0.10049892  0.10625274  1
  Nb  Nb105  1  0.50271303  0.10066505  0.90446237  1
  Nb  Nb106  1  0.29915674  0.89450874  0.49368169  1
  Nb  Nb107  1  0.30340743  0.89239697  0.90268816  1
  Nb  Nb108  1  0.69852014  0.29835819  0.49834949  1
  Nb  Nb109  1  0.70228239  0.50112508  0.30092810  1
  Nb  Nb110  1  0.89311005  0.29654436  0.69735024  1
  Nb  Nb111  1  0.11411364  0.69961305  0.50491163  1
  Nb  Nb112  1  0.09828745  0.09080112  0.29989673  1
  Nb  Nb113  1  0.09825481  0.30307985  0.90580715  1
  Nb  Nb114  1  0.69540980  0.89940500  0.90445857  1
  Nb  Nb115  1  0.29382067  0.70520379  0.50383012  1
  Nb  Nb116  1  0.09805323  0.48620722  0.90143783  1
  Nb  Nb117  1  0.29786374  0.90482232  0.30088223  1
  Nb  Nb118  1  0.89999989  0.10786942  0.49391810  1
  Nb  Nb119  1  0.70040467  0.09791834  0.30036836  1
  Nb  Nb120  1  0.09409448  0.90661990  0.29910025  1
  Nb  Nb121  1  0.10253251  0.29743399  0.09169540  1
  Nb  Nb122  1  0.49620426  0.90462317  0.68962735  1
  Nb  Nb123  1  0.30026777  0.50344430  0.29905903  1
  Nb  Nb124  1  0.10016936  0.70889398  0.69083804  1
  Nb  Nb125  1  0.20035290  0.60151116  0.20513382  1
  Nb  Nb126  1  0.59610380  0.59993479  -0.00090921  1
  Nb  Nb127  1  0.60229609  0.00707376  0.39950719  1
  Nb  Nb128  1  0.19578726  0.39652160  -0.00081929  1
  Nb  Nb129  1  0.40215421  0.19852040  0.00155959  1
  Nb  Nb130  1  0.40186120  0.59866060  -0.00083618  1
  Nb  Nb131  1  0.80167416  0.20090903  0.59566034  1
  Nb  Nb132  1  0.79776189  0.80301716  0.59832204  1
  Nb  Nb133  1  0.79718729  0.80221207  0.00079737  1
  Nb  Nb134  1  0.60530662  0.80013436  -0.00099123  1
  Nb  Nb135  1  0.39758839  0.39908482  0.20222078  1
  Nb  Nb136  1  0.39276576  -0.00051509  0.19861056  1
  Nb  Nb137  1  0.60880023  0.19719809  0.40222678  1
  Nb  Nb138  1  0.39607673  0.80091425  0.59487771  1
  Nb  Nb139  1  0.59432975  0.80509826  0.59859405  1
  Nb  Nb140  1  0.39752726  0.39590965  0.00377234  1
  Nb  Nb141  1  -0.00837355  0.20161712  0.59865861  1
  Nb  Nb142  1  0.60026204  0.39797422  -0.00095632  1
  Nb  Nb143  1  0.20020516  -0.00829166  0.39424506  1
  Nb  Nb144  1  0.80659610  0.39561754  0.79793949  1
  Nb  Nb145  1  0.20115635  0.40011187  0.59318949  1
  Nb  Nb146  1  0.59449011  0.20027576  -0.00029615  1
  Nb  Nb147  1  0.39712480  0.40509918  0.39501302  1
  Nb  Nb148  1  0.80015876  0.39615683  -0.00747416  1
  Nb  Nb149  1  0.80904744  0.80375765  0.19841433  1
  Pd  Pd150  1  0.00378861  0.59908447  0.79384374  1
  Pd  Pd151  1  0.40011874  0.60035766  0.80046561  1
  Pd  Pd152  1  0.20383247  0.59100218  0.00340816  1
  Pd  Pd153  1  -0.00398013  0.00841834  0.59756552  1
  Pd  Pd154  1  0.79358022  0.59616083  -0.00041579  1
  Pd  Pd155  1  0.59540261  -0.00748860  0.20866680  1
  Pd  Pd156  1  0.19544891  0.59733537  0.79199348  1
  Pd  Pd157  1  -0.00212741  0.39559203  0.20146077  1
  Pd  Pd158  1  0.19629356  -0.00209922  0.80457553  1
  Pd  Pd159  1  -0.00310302  0.00972338  0.19262958  1
  Pd  Pd160  1  0.00651906  0.60459805  0.60028779  1
  Pd  Pd161  1  0.19505738  0.80182716  0.39117858  1
  Pd  Pd162  1  0.60926575  0.39856302  0.80176675  1
  Pd  Pd163  1  0.20278284  0.00246119  0.00060466  1
  Pd  Pd164  1  0.20739242  0.40181138  0.40751042  1
  Pd  Pd165  1  0.40468094  0.20218337  0.20170207  1
  Pd  Pd166  1  0.18914987  0.80677340  0.80019645  1
  Pd  Pd167  1  0.19945163  0.79298302  0.21186235  1
  Pd  Pd168  1  0.39866192  0.19215699  0.80082228  1
  Pd  Pd169  1  0.80688855  0.00079220  0.60358564  1
  Pd  Pd170  1  0.59291523  -0.00457492  0.80722620  1
  Pd  Pd171  1  -0.00349053  0.39309136  0.79094480  1
  Pd  Pd172  1  0.00908741  0.80103925  0.80607925  1
  Pd  Pd173  1  0.19185224  0.18904313  0.39883253  1
  Pd  Pd174  1  0.00139097  0.19445014  0.79201879  1
  Pd  Pd175  1  0.39737696  0.80319604  0.20640695  1
  Pd  Pd176  1  0.00339192  0.19028182  0.19572959  1
  Pd  Pd177  1  0.40525108  0.80185825  0.40197086  1
  Pd  Pd178  1  0.61246866  0.80699214  0.19379773  1
  Pd  Pd179  1  0.59333406  0.59665664  0.80071510  1
  Pd  Pd180  1  0.39122651  0.00499311  0.00202595  1
  Pd  Pd181  1  0.80174722  0.80922841  0.80071977  1
  Pd  Pd182  1  0.58920548  0.80587704  0.79664522  1
  Pd  Pd183  1  0.79790372  0.40456294  0.39767342  1
  Pd  Pd184  1  -0.00458709  0.19433873  0.01250409  1
  Pd  Pd185  1  -0.00533390  0.79932047  0.59271921  1
  Pd  Pd186  1  0.19337639  0.80161289  -0.00048863  1
  Pd  Pd187  1  0.01181220  0.38971795  0.60795574  1
  Pd  Pd188  1  0.60544590  0.59894469  0.19929026  1
  Pd  Pd189  1  0.00428440  0.00768654  0.80359542  1
  Pd  Pd190  1  0.60536810  0.20323448  0.20231403  1
  Pd  Pd191  1  0.79790663  -0.00554435  0.80692131  1
  Pd  Pd192  1  0.40650261  0.80173791  0.78955472  1
  Pd  Pd193  1  0.80022381  0.60830062  0.20997352  1
  Pd  Pd194  1  0.19245594  0.20580843  0.59884531  1
  Pd  Pd195  1  0.79974292  0.19660617  0.20441672  1
  Pd  Pd196  1  0.20085851  0.40469016  0.19288278  1
  Pd  Pd197  1  0.19677790  0.59184657  0.61001134  1
  Pd  Pd198  1  0.20322661  -0.00509577  0.58885495  1
  Pd  Pd199  1  0.59695504  0.40297035  0.19736384  1
  Rh  Rh200  1  0.59552071  0.19535436  0.80501107  1
  Rh  Rh201  1  0.80076261  0.00194886  0.39050660  1
  Rh  Rh202  1  0.78909443  0.20509053  0.00601145  1
  Rh  Rh203  1  0.60726630  0.19593144  0.59395482  1
  Rh  Rh204  1  0.00680751  0.60457540  0.40428447  1
  Rh  Rh205  1  0.00034348  0.79728674  -0.00491569  1
  Rh  Rh206  1  0.60423599  0.40333218  0.59983359  1
  Rh  Rh207  1  0.79657446  0.20029966  0.79188259  1
  Rh  Rh208  1  0.40574503  0.59787001  0.39580925  1
  Rh  Rh209  1  0.39817816  0.60722719  0.60005431  1
  Rh  Rh210  1  0.59976214  0.60392253  0.59988435  1
  Rh  Rh211  1  0.00269059  0.79949832  0.40595681  1
  Rh  Rh212  1  0.39680985  0.19552819  0.60746270  1
  Rh  Rh213  1  0.39927190  0.00074540  0.80177658  1
  Rh  Rh214  1  0.19757934  0.19414056  0.80040029  1
  Rh  Rh215  1  0.40617082  0.79223320  0.00088207  1
  Rh  Rh216  1  0.00541955  0.19488638  0.40226518  1
  Rh  Rh217  1  0.58953657  0.80838968  0.40729949  1
  Rh  Rh218  1  0.20042168  0.40119216  0.79824220  1
  Rh  Rh219  1  0.38822135  -0.00254156  0.59998754  1
  Rh  Rh220  1  0.39656337  0.39863832  0.79998522  1
  Rh  Rh221  1  0.00327408  0.00946025  0.00429403  1
  Rh  Rh222  1  -0.00318617  0.79970452  0.20147656  1
  Rh  Rh223  1  0.19607045  0.61139071  0.39203327  1
  Rh  Rh224  1  0.00663013  0.00189692  0.40253791  1
  Rh  Rh225  1  0.39160371  0.40533926  0.58888934  1
  Rh  Rh226  1  0.39683057  -0.00070484  0.39018826  1
  Rh  Rh227  1  -0.00311578  0.39456335  0.00780437  1
  Rh  Rh228  1  0.60533989  0.59271141  0.39841247  1
  Rh  Rh229  1  0.18996546  0.19317329  0.20507323  1
  Rh  Rh230  1  0.59894168  0.39916259  0.39951127  1
  Rh  Rh231  1  0.39534483  0.59977203  0.20213173  1
  Rh  Rh232  1  0.80818583  -0.00524699  0.20870769  1
  Rh  Rh233  1  0.79607278  0.59456105  0.39776589  1
  Rh  Rh234  1  0.79771749  -0.00602714  -0.00528477  1
  Rh  Rh235  1  0.41196388  0.21373516  0.39720314  1
  Rh  Rh236  1  0.00766679  0.60171178  0.20655087  1
  Rh  Rh237  1  0.20507632  0.00451303  0.20798329  1
  Rh  Rh238  1  0.78995185  0.39113774  0.60463189  1
  Rh  Rh239  1  0.80994853  0.59027176  0.79579127  1
  Rh  Rh240  1  -0.00204568  0.39976993  0.39179869  1
  Rh  Rh241  1  0.81259445  0.80097872  0.39603839  1
  Rh  Rh242  1  0.00368702  0.59976257  -0.00307299  1
  Rh  Rh243  1  0.60089149  -0.00038687  -0.00263586  1
  Rh  Rh244  1  0.79403949  0.20015382  0.39967819  1
  Rh  Rh245  1  0.20748306  0.20003922  -0.00382398  1
  Rh  Rh246  1  0.80802023  0.40165543  0.20039463  1
  Rh  Rh247  1  0.20452783  0.80830990  0.60313248  1
  Rh  Rh248  1  0.59797282  -0.00166091  0.59231100  1
  Rh  Rh249  1  0.79786713  0.61024547  0.59904920  1
