# generated using pymatgen
data_ZrScNbPdRh
_symmetry_space_group_name_H-M   'P 1'
_cell_length_a   16.56127779
_cell_length_b   16.56271017
_cell_length_c   16.56000934
_cell_angle_alpha   89.99646429
_cell_angle_beta   90.00793156
_cell_angle_gamma   90.02147748
_symmetry_Int_Tables_number   1
_chemical_formula_structural   ZrScNbPdRh
_chemical_formula_sum   'Zr50 Sc50 Nb50 Pd50 Rh50'
_cell_volume   4542.40429700
_cell_formula_units_Z   50
loop_
 _symmetry_equiv_pos_site_id
 _symmetry_equiv_pos_as_xyz
  1  'x, y, z'
loop_
 _atom_site_type_symbol
 _atom_site_label
 _atom_site_symmetry_multiplicity
 _atom_site_fract_x
 _atom_site_fract_y
 _atom_site_fract_z
 _atom_site_occupancy
  Zr  Zr0  1  0.89717746  0.50244119  0.70152772  1
  Zr  Zr1  1  0.29910249  0.11068165  0.50033782  1
  Zr  Zr2  1  0.30313591  0.29528441  0.10256476  1
  Zr  Zr3  1  0.29177392  0.89321178  0.10054957  1
  Zr  Zr4  1  0.70057733  0.29699627  0.70292152  1
  Zr  Zr5  1  0.50238516  0.69704560  0.89100697  1
  Zr  Zr6  1  0.69766204  0.70421020  0.90318743  1
  Zr  Zr7  1  0.49811347  0.09495621  0.70240042  1
  Zr  Zr8  1  0.10786863  0.49504772  0.89768162  1
  Zr  Zr9  1  0.50347282  0.90084558  0.10484294  1
  Zr  Zr10  1  0.10503125  0.09926053  0.30512430  1
  Zr  Zr11  1  0.30152307  0.49645005  0.29878060  1
  Zr  Zr12  1  0.69893539  0.49973745  0.31422888  1
  Zr  Zr13  1  0.28839666  0.49762064  0.09952540  1
  Zr  Zr14  1  0.08975695  0.70314000  0.30616625  1
  Zr  Zr15  1  0.70149341  0.89649475  0.49660578  1
  Zr  Zr16  1  0.09909529  0.69137827  0.50559624  1
  Zr  Zr17  1  0.30678602  0.29599480  0.31345232  1
  Zr  Zr18  1  0.30095038  0.49899921  0.89521786  1
  Zr  Zr19  1  0.50355171  0.10006300  0.29458319  1
  Zr  Zr20  1  0.90069115  0.90809603  0.70039068  1
  Zr  Zr21  1  0.51344857  0.50577681  0.50504444  1
  Zr  Zr22  1  0.90680140  0.90427791  0.30100457  1
  Zr  Zr23  1  0.10034610  0.49561920  0.69788794  1
  Zr  Zr24  1  0.30227446  0.90315566  0.70114590  1
  Zr  Zr25  1  0.50097745  0.29951839  0.29189219  1
  Zr  Zr26  1  0.29745148  0.09776591  0.90241005  1
  Zr  Zr27  1  0.49977489  0.49609996  0.90000680  1
  Zr  Zr28  1  0.09992527  0.50652641  0.30357662  1
  Zr  Zr29  1  0.49642131  0.10878895  0.10338155  1
  Zr  Zr30  1  0.29563375  0.89595001  0.29992461  1
  Zr  Zr31  1  0.70140136  0.29573112  0.90092601  1
  Zr  Zr32  1  0.29659159  0.49646145  0.70776152  1
  Zr  Zr33  1  0.09769012  0.90813677  0.68949890  1
  Zr  Zr34  1  0.69813846  0.49919243  0.68848778  1
  Zr  Zr35  1  0.10705465  0.09246374  0.49859859  1
  Zr  Zr36  1  0.70238127  0.91280936  0.89959416  1
  Zr  Zr37  1  0.30486445  0.70047592  0.69559084  1
  Zr  Zr38  1  0.29320558  0.10307387  0.10136429  1
  Zr  Zr39  1  0.29165264  0.70171420  0.89411618  1
  Zr  Zr40  1  0.90137651  0.90946728  0.90578891  1
  Zr  Zr41  1  0.90704169  0.49412744  0.89415264  1
  Zr  Zr42  1  0.28219913  0.49316522  0.49820612  1
  Zr  Zr43  1  0.10342313  0.11321798  0.10264260  1
  Zr  Zr44  1  0.90286155  0.69904616  0.30301642  1
  Zr  Zr45  1  0.49623287  0.70859236  0.51002226  1
  Zr  Zr46  1  0.50647337  0.09548779  0.89684847  1
  Zr  Zr47  1  0.49913072  0.49458318  0.09795557  1
  Zr  Zr48  1  0.90186154  0.28955588  0.69909370  1
  Zr  Zr49  1  0.49556518  0.50578253  0.70432590  1
  Sc  Sc50  1  0.50217873  0.89105044  0.30387120  1
  Sc  Sc51  1  0.69948728  0.10539447  0.70858815  1
  Sc  Sc52  1  0.91115975  0.70687827  0.09778718  1
  Sc  Sc53  1  0.49519854  0.29435019  0.49575832  1
  Sc  Sc54  1  0.10703490  0.70506955  0.10323151  1
  Sc  Sc55  1  0.49481434  0.70235481  0.29592775  1
  Sc  Sc56  1  0.29274145  0.29854969  0.70144284  1
  Sc  Sc57  1  0.50439317  0.49609240  0.30094790  1
  Sc  Sc58  1  0.10018052  0.29203707  0.70515251  1
  Sc  Sc59  1  0.89895341  0.09991743  0.89893336  1
  Sc  Sc60  1  0.51338437  0.69711082  0.10169505  1
  Sc  Sc61  1  0.10645315  0.90355561  0.90214215  1
  Sc  Sc62  1  0.49102001  0.10562012  0.50806421  1
  Sc  Sc63  1  0.29277788  0.90101710  0.89450305  1
  Sc  Sc64  1  0.90424164  0.49227154  0.09076685  1
  Sc  Sc65  1  0.70360704  0.69857573  0.69864465  1
  Sc  Sc66  1  0.90277376  0.29924001  0.90000187  1
  Sc  Sc67  1  0.69767179  0.69591532  0.30260720  1
  Sc  Sc68  1  0.69015039  0.30864541  0.30136293  1
  Sc  Sc69  1  0.09938102  0.89942282  0.09591178  1
  Sc  Sc70  1  0.69834638  0.49996514  0.89153107  1
  Sc  Sc71  1  0.09887894  0.10395119  0.90027883  1
  Sc  Sc72  1  0.11414871  0.29323465  0.50449135  1
  Sc  Sc73  1  0.68608390  0.49614853  0.09131152  1
  Sc  Sc74  1  0.90084577  0.69441178  0.50325710  1
  Sc  Sc75  1  0.50767372  0.90378089  0.88709694  1
  Sc  Sc76  1  0.50510153  0.29655927  0.69762629  1
  Sc  Sc77  1  0.90691910  0.28860913  0.30432959  1
  Sc  Sc78  1  0.89746573  0.50755230  0.30904578  1
  Sc  Sc79  1  0.90812232  0.10050573  0.29890998  1
  Sc  Sc80  1  0.29605140  0.90479904  0.51235551  1
  Sc  Sc81  1  0.29832199  0.70350203  0.10797241  1
  Sc  Sc82  1  0.70671727  0.30468865  0.50292946  1
  Sc  Sc83  1  0.30002732  0.70438392  0.29610836  1
  Sc  Sc84  1  0.29957026  0.09646477  0.69464081  1
  Sc  Sc85  1  0.90709337  0.09821862  0.09877424  1
  Sc  Sc86  1  0.70471367  0.89937364  0.69813022  1
  Sc  Sc87  1  0.29426963  0.30576949  0.90110657  1
  Sc  Sc88  1  0.89452556  0.69312921  0.69557305  1
  Sc  Sc89  1  0.10428768  0.29960850  0.09554376  1
  Sc  Sc90  1  0.70120827  0.69621886  0.50569902  1
  Sc  Sc91  1  0.90368258  0.29606089  0.08643357  1
  Sc  Sc92  1  0.90112291  0.69561988  0.89512701  1
  Sc  Sc93  1  0.09961480  0.28737585  0.29490947  1
  Sc  Sc94  1  0.69749521  0.91497348  0.29919066  1
  Sc  Sc95  1  0.68963890  0.09212736  0.10505526  1
  Sc  Sc96  1  0.90251358  0.11467045  0.49061540  1
  Sc  Sc97  1  0.09681829  0.90634497  0.30823606  1
  Sc  Sc98  1  0.69961083  0.90052915  0.09324424  1
  Sc  Sc99  1  0.10328431  0.69423439  0.69468846  1
  Nb  Nb100  1  0.69638308  0.30131324  0.10287001  1
  Nb  Nb101  1  0.49579118  0.30132241  0.90219816  1
  Nb  Nb102  1  0.09266899  0.30156336  0.89945514  1
  Nb  Nb103  1  0.10075163  0.70115641  0.89856284  1
  Nb  Nb104  1  0.50050366  0.90110117  0.50228456  1
  Nb  Nb105  1  0.49555063  0.90065601  0.69093081  1
  Nb  Nb106  1  0.70576806  0.69796041  0.09769356  1
  Nb  Nb107  1  0.89189297  0.49729660  0.50032176  1
  Nb  Nb108  1  0.89782820  0.89962201  0.10027953  1
  Nb  Nb109  1  0.08729809  0.10013216  0.69973579  1
  Nb  Nb110  1  0.50832818  0.30094760  0.09920048  1
  Nb  Nb111  1  0.69248012  0.09744540  0.89903254  1
  Nb  Nb112  1  0.30421855  0.29720283  0.50620337  1
  Nb  Nb113  1  0.70200654  0.10203726  0.30110485  1
  Nb  Nb114  1  0.29810729  0.09636666  0.30420639  1
  Nb  Nb115  1  0.70215829  0.09501243  0.49277386  1
  Nb  Nb116  1  0.90843936  0.09630404  0.70269761  1
  Nb  Nb117  1  0.90291044  0.89528066  0.50115260  1
  Nb  Nb118  1  0.49593847  0.70274657  0.69704540  1
  Nb  Nb119  1  0.09614991  0.89628179  0.50136491  1
  Nb  Nb120  1  0.29659065  0.69945450  0.50392014  1
  Nb  Nb121  1  0.10005086  0.49786114  0.10028927  1
  Nb  Nb122  1  0.70477391  0.50019392  0.49546435  1
  Nb  Nb123  1  0.90539249  0.30318547  0.49971651  1
  Nb  Nb124  1  0.09585423  0.49910364  0.50318543  1
  Nb  Nb125  1  0.39705612  -0.00029032  0.39881237  1
  Nb  Nb126  1  0.00125604  0.40041979  0.40611394  1
  Nb  Nb127  1  0.40298560  0.19961114  0.80483148  1
  Nb  Nb128  1  0.39802841  0.60284022  -0.00131461  1
  Nb  Nb129  1  0.59925697  0.20524461  0.00089300  1
  Nb  Nb130  1  0.80181218  0.39936751  0.19790410  1
  Nb  Nb131  1  0.60310274  -0.00097621  0.59360779  1
  Nb  Nb132  1  0.80606631  0.80576790  0.80451516  1
  Nb  Nb133  1  0.39494997  0.60140111  0.40788547  1
  Nb  Nb134  1  -0.00146187  0.40256341  0.20309654  1
  Nb  Nb135  1  0.00761913  0.59713845  -0.00318930  1
  Nb  Nb136  1  0.39469276  0.40012247  0.59720777  1
  Nb  Nb137  1  0.60556072  0.19225289  0.39913923  1
  Nb  Nb138  1  0.79872074  0.59931018  0.19087835  1
  Nb  Nb139  1  0.80502442  0.80425144  0.39693246  1
  Nb  Nb140  1  0.80315502  0.80074381  0.19872642  1
  Nb  Nb141  1  0.80244448  0.60129205  0.00252978  1
  Nb  Nb142  1  0.39520869  -0.00021416  0.20201089  1
  Nb  Nb143  1  0.79243718  0.20374644  0.19904685  1
  Nb  Nb144  1  0.19531487  0.79940561  0.41128978  1
  Nb  Nb145  1  0.39943067  -0.00419402  0.00437197  1
  Nb  Nb146  1  0.80207434  0.00742540  0.59466514  1
  Nb  Nb147  1  -0.00073717  0.80273245  0.79957744  1
  Nb  Nb148  1  -0.00303717  0.39927825  0.59346327  1
  Nb  Nb149  1  0.40181411  0.79948399  -0.00275423  1
  Pd  Pd150  1  0.39247453  0.58969259  0.59326047  1
  Pd  Pd151  1  0.00141571  0.80856765  0.19785460  1
  Pd  Pd152  1  0.39902469  0.39853035  0.19673200  1
  Pd  Pd153  1  0.59536186  0.39329884  0.59535326  1
  Pd  Pd154  1  0.40337884  0.19749771  -0.00716953  1
  Pd  Pd155  1  0.39442586  0.40321585  0.00385332  1
  Pd  Pd156  1  0.18836439  0.80169231  0.78918820  1
  Pd  Pd157  1  0.00813405  0.00543219  0.00132285  1
  Pd  Pd158  1  0.00239123  0.79704731  -0.00719442  1
  Pd  Pd159  1  0.60655062  0.79539772  0.39679792  1
  Pd  Pd160  1  0.19341054  0.39170987  0.20684783  1
  Pd  Pd161  1  0.20495815  0.60951549  0.39511470  1
  Pd  Pd162  1  0.18873840  0.38964263  0.39416992  1
  Pd  Pd163  1  0.80119874  0.39609672  0.79806943  1
  Pd  Pd164  1  0.58870876  0.00554594  0.40497074  1
  Pd  Pd165  1  -0.00956698  0.00879853  0.58642949  1
  Pd  Pd166  1  0.59376458  0.80429438  -0.00198843  1
  Pd  Pd167  1  0.79040154  0.18890014  0.00785191  1
  Pd  Pd168  1  0.00661973  0.60573201  0.80081246  1
  Pd  Pd169  1  0.60654432  0.19417291  0.59184999  1
  Pd  Pd170  1  0.80533904  0.19278198  0.80266176  1
  Pd  Pd171  1  -0.00681083  0.59242884  0.18829748  1
  Pd  Pd172  1  0.38998324  0.80120656  0.40849548  1
  Pd  Pd173  1  0.19982171  0.60654862  0.00208103  1
  Pd  Pd174  1  0.60366783  0.80249225  0.60790859  1
  Pd  Pd175  1  0.79805862  0.01112308  0.00854194  1
  Pd  Pd176  1  -0.00374016  0.79266658  0.60755759  1
  Pd  Pd177  1  0.60672216  0.80545234  0.79100914  1
  Pd  Pd178  1  0.81140364  -0.00166410  0.40318374  1
  Pd  Pd179  1  0.60578732  0.59413538  0.20245808  1
  Pd  Pd180  1  0.00684383  0.20253969  0.59368155  1
  Pd  Pd181  1  0.20277228  0.19621949  0.80046007  1
  Pd  Pd182  1  0.40901906  0.40997760  0.41040866  1
  Pd  Pd183  1  0.19575338  -0.00196879  0.19811608  1
  Pd  Pd184  1  0.80451186  0.39710917  0.60323967  1
  Pd  Pd185  1  0.80655909  0.79598772  -0.00048567  1
  Pd  Pd186  1  0.80778463  0.39071869  0.39027127  1
  Pd  Pd187  1  0.79236804  0.20936816  0.39218445  1
  Pd  Pd188  1  0.00788002  0.00050384  0.19469656  1
  Pd  Pd189  1  0.79431431  0.40666147  0.00215392  1
  Pd  Pd190  1  0.59694507  0.39760650  0.79900698  1
  Pd  Pd191  1  0.61277973  0.80313741  0.20517144  1
  Pd  Pd192  1  0.40180123  0.80539205  0.80308298  1
  Pd  Pd193  1  0.40149281  0.60109257  0.19769648  1
  Pd  Pd194  1  0.79795430  0.19171320  0.59879905  1
  Pd  Pd195  1  0.80215881  0.00235996  0.19454652  1
  Pd  Pd196  1  0.19295367  0.00797480  0.79327060  1
  Pd  Pd197  1  0.19823777  0.60542319  0.20518658  1
  Pd  Pd198  1  0.60531978  0.60100233  0.79284888  1
  Pd  Pd199  1  0.59075780  0.61223295  0.40114418  1
  Rh  Rh200  1  0.20102997  0.00225515  0.00265116  1
  Rh  Rh201  1  0.00353826  0.19941436  -0.00397085  1
  Rh  Rh202  1  0.20464840  0.59628669  0.60545472  1
  Rh  Rh203  1  0.19760934  0.00514389  0.60238755  1
  Rh  Rh204  1  0.79288453  0.60679174  0.80791298  1
  Rh  Rh205  1  0.59875169  0.60007738  -0.00342652  1
  Rh  Rh206  1  0.20593757  -0.00969478  0.40694868  1
  Rh  Rh207  1  0.19496450  0.20777551  -0.00833335  1
  Rh  Rh208  1  0.01008514  0.40190099  0.00291923  1
  Rh  Rh209  1  0.00660849  -0.00205546  0.80678990  1
  Rh  Rh210  1  0.20363684  0.79735602  -0.00231901  1
  Rh  Rh211  1  0.39267223  0.19929340  0.20671936  1
  Rh  Rh212  1  0.59622137  -0.00366973  0.20211568  1
  Rh  Rh213  1  0.39478804  0.80551092  0.59971864  1
  Rh  Rh214  1  0.79750908  0.00400738  0.79404796  1
  Rh  Rh215  1  -0.00557043  0.59070142  0.59819116  1
  Rh  Rh216  1  -0.01059297  0.20729812  0.19141324  1
  Rh  Rh217  1  0.60351766  0.60644725  0.60447424  1
  Rh  Rh218  1  0.79656171  0.59596809  0.59416423  1
  Rh  Rh219  1  0.40477173  0.80151542  0.19045490  1
  Rh  Rh220  1  0.39560683  0.21012282  0.61362214  1
  Rh  Rh221  1  0.00022207  0.79973668  0.40951200  1
  Rh  Rh222  1  0.59603288  0.39021983  0.40932575  1
  Rh  Rh223  1  0.19754248  0.39603647  0.60399170  1
  Rh  Rh224  1  0.60517412  -0.00562432  0.78397535  1
  Rh  Rh225  1  0.20794452  0.20421837  0.20767788  1
  Rh  Rh226  1  0.19753227  0.60251735  0.79424625  1
  Rh  Rh227  1  0.60884236  0.20227618  0.20083113  1
  Rh  Rh228  1  0.01210753  0.20346245  0.40635857  1
  Rh  Rh229  1  0.80617253  0.80624475  0.59804082  1
  Rh  Rh230  1  0.18649668  0.80008845  0.21493715  1
  Rh  Rh231  1  0.39747054  0.00312844  0.80522867  1
  Rh  Rh232  1  0.60213293  0.39335619  -0.00772597  1
  Rh  Rh233  1  -0.00040596  0.39199182  0.78925245  1
  Rh  Rh234  1  0.40527873  0.38725097  0.78981492  1
  Rh  Rh235  1  -0.00292907  0.19734496  0.80582325  1
  Rh  Rh236  1  0.20039503  0.79961158  0.59919017  1
  Rh  Rh237  1  0.19318500  0.39116030  0.80032461  1
  Rh  Rh238  1  -0.00478454  0.59173375  0.41147881  1
  Rh  Rh239  1  0.19879953  0.39420628  -0.00045073  1
  Rh  Rh240  1  0.20050402  0.20289240  0.39912442  1
  Rh  Rh241  1  0.59496284  0.00472089  0.00267503  1
  Rh  Rh242  1  0.40780740  0.19141909  0.39492495  1
  Rh  Rh243  1  0.60401646  0.40727770  0.20151399  1
  Rh  Rh244  1  0.39875590  0.60456637  0.80355684  1
  Rh  Rh245  1  0.40467696  -0.00308553  0.59298364  1
  Rh  Rh246  1  0.59473798  0.20571873  0.80929332  1
  Rh  Rh247  1  -0.00215860  0.00515703  0.40531120  1
  Rh  Rh248  1  0.19842411  0.19329398  0.60776352  1
  Rh  Rh249  1  0.79909462  0.60895569  0.40284128  1
