# generated using pymatgen
data_ZrScNbPdRh
_symmetry_space_group_name_H-M   'P 1'
_cell_length_a   16.56038722
_cell_length_b   16.56039816
_cell_length_c   16.56225816
_cell_angle_alpha   89.98319219
_cell_angle_beta   89.98040839
_cell_angle_gamma   90.03199575
_symmetry_Int_Tables_number   1
_chemical_formula_structural   ZrScNbPdRh
_chemical_formula_sum   'Zr50 Sc50 Nb50 Pd50 Rh50'
_cell_volume   4542.14191693
_cell_formula_units_Z   50
loop_
 _symmetry_equiv_pos_site_id
 _symmetry_equiv_pos_as_xyz
  1  'x, y, z'
loop_
 _atom_site_type_symbol
 _atom_site_label
 _atom_site_symmetry_multiplicity
 _atom_site_fract_x
 _atom_site_fract_y
 _atom_site_fract_z
 _atom_site_occupancy
  Zr  Zr0  1  0.29914797  0.70652132  0.89734167  1
  Zr  Zr1  1  0.29845919  0.09267775  0.49416340  1
  Zr  Zr2  1  0.70150378  0.89772562  0.29467763  1
  Zr  Zr3  1  0.89018512  0.29563639  0.10721513  1
  Zr  Zr4  1  0.10039580  0.49943122  0.50138762  1
  Zr  Zr5  1  0.49158594  0.89829441  0.50177929  1
  Zr  Zr6  1  0.69859885  0.69636081  0.49445720  1
  Zr  Zr7  1  0.89517168  0.11276463  0.30144430  1
  Zr  Zr8  1  0.69987224  0.29739689  0.89103569  1
  Zr  Zr9  1  0.29774586  0.50852882  0.69212041  1
  Zr  Zr10  1  0.10241911  0.69669953  0.29261757  1
  Zr  Zr11  1  0.30326737  0.90422748  0.09453234  1
  Zr  Zr12  1  0.09667686  0.10045344  0.89371639  1
  Zr  Zr13  1  0.90019806  0.90237977  0.89758040  1
  Zr  Zr14  1  0.09768973  0.90135380  0.30677137  1
  Zr  Zr15  1  0.29693743  0.49811319  0.90770315  1
  Zr  Zr16  1  0.10026347  0.69310636  0.70233420  1
  Zr  Zr17  1  0.29914749  0.10258976  0.30253444  1
  Zr  Zr18  1  0.30953375  0.69142466  0.29080402  1
  Zr  Zr19  1  0.10102125  0.11194230  0.69610775  1
  Zr  Zr20  1  0.09785549  0.49571245  0.69911650  1
  Zr  Zr21  1  0.69957373  0.50203101  0.30501498  1
  Zr  Zr22  1  0.30894998  0.90158101  0.70071415  1
  Zr  Zr23  1  0.10215184  0.10470270  0.31152705  1
  Zr  Zr24  1  0.90083605  0.10256064  0.09748826  1
  Zr  Zr25  1  0.09950465  0.30616625  0.89175668  1
  Zr  Zr26  1  0.90672688  0.89599507  0.49872337  1
  Zr  Zr27  1  0.50186445  0.30133129  0.69959154  1
  Zr  Zr28  1  0.29274124  0.69581196  0.10898957  1
  Zr  Zr29  1  0.09307730  0.69657611  0.10401966  1
  Zr  Zr30  1  0.69918240  0.30432615  0.69882767  1
  Zr  Zr31  1  0.89464363  0.70433152  0.70140733  1
  Zr  Zr32  1  0.50371917  0.70747207  0.49796129  1
  Zr  Zr33  1  0.90477133  0.90177432  0.30128375  1
  Zr  Zr34  1  0.50336996  0.49023102  0.08741717  1
  Zr  Zr35  1  0.10484870  0.70251733  0.90555710  1
  Zr  Zr36  1  0.10086495  0.09881639  0.08925830  1
  Zr  Zr37  1  0.10830844  0.90401228  0.90308327  1
  Zr  Zr38  1  0.69149065  0.30128221  0.10173278  1
  Zr  Zr39  1  0.90706535  0.50100249  0.49820752  1
  Zr  Zr40  1  0.69649914  0.10979684  0.49343410  1
  Zr  Zr41  1  0.10337816  0.90072940  0.70188926  1
  Zr  Zr42  1  0.50129385  0.09811241  0.30682654  1
  Zr  Zr43  1  0.90202275  0.50254316  0.70640369  1
  Zr  Zr44  1  0.69608809  0.49467627  0.71024929  1
  Zr  Zr45  1  0.69663732  0.30407941  0.50147161  1
  Zr  Zr46  1  0.49899138  0.69492114  0.90277943  1
  Zr  Zr47  1  0.70467088  0.88410847  0.69917563  1
  Zr  Zr48  1  0.70624876  0.69690918  0.29743552  1
  Zr  Zr49  1  0.29684294  0.08896606  0.90500565  1
  Sc  Sc50  1  0.69320913  0.10218369  0.29416420  1
  Sc  Sc51  1  0.69477991  0.89917223  0.10650028  1
  Sc  Sc52  1  0.89966217  0.29935833  0.50233836  1
  Sc  Sc53  1  0.30913183  0.90459665  0.29749889  1
  Sc  Sc54  1  0.50410527  0.49280188  0.49086479  1
  Sc  Sc55  1  0.10193249  0.90548347  0.49247147  1
  Sc  Sc56  1  0.50773886  0.50347334  0.89852098  1
  Sc  Sc57  1  0.29303456  0.30326619  0.90091576  1
  Sc  Sc58  1  0.70100390  0.11249330  0.70761142  1
  Sc  Sc59  1  0.90023488  0.11233410  0.50016546  1
  Sc  Sc60  1  0.09148604  0.69933616  0.50075084  1
  Sc  Sc61  1  0.90095808  0.49378026  0.89752173  1
  Sc  Sc62  1  0.70155588  0.29527025  0.29375069  1
  Sc  Sc63  1  0.50092041  0.69862572  0.29803470  1
  Sc  Sc64  1  0.49397757  0.70232676  0.10408760  1
  Sc  Sc65  1  0.50640358  0.30234527  0.30282692  1
  Sc  Sc66  1  0.90474770  0.69755926  0.49810072  1
  Sc  Sc67  1  0.49757150  0.50125844  0.30254799  1
  Sc  Sc68  1  0.90745718  0.69509059  0.29353054  1
  Sc  Sc69  1  0.69539902  0.89315422  0.89821846  1
  Sc  Sc70  1  0.90004726  0.30302297  0.70610632  1
  Sc  Sc71  1  0.50388722  0.90205568  0.29540057  1
  Sc  Sc72  1  0.50360722  0.90089765  0.10111162  1
  Sc  Sc73  1  0.50275646  0.09956787  0.90166775  1
  Sc  Sc74  1  0.28367446  0.30222361  0.30202028  1
  Sc  Sc75  1  0.90239784  0.68765990  0.90167537  1
  Sc  Sc76  1  0.29761695  0.10992658  0.69909038  1
  Sc  Sc77  1  0.49488547  0.69567608  0.70831052  1
  Sc  Sc78  1  0.69590267  0.10192115  0.90027001  1
  Sc  Sc79  1  0.90223170  0.89701178  0.10765313  1
  Sc  Sc80  1  0.10076893  0.49958601  0.30395266  1
  Sc  Sc81  1  0.51335297  0.09557077  0.10121046  1
  Sc  Sc82  1  0.49912784  0.30346519  0.90501971  1
  Sc  Sc83  1  0.89344572  0.89594051  0.70150365  1
  Sc  Sc84  1  0.11112691  0.29604475  0.09876061  1
  Sc  Sc85  1  0.90416523  0.10396862  0.89811543  1
  Sc  Sc86  1  0.90016791  0.10775807  0.70585359  1
  Sc  Sc87  1  0.90050543  0.30226591  0.89899343  1
  Sc  Sc88  1  0.69648761  0.49776317  0.49595169  1
  Sc  Sc89  1  0.49425392  0.89835142  0.90855412  1
  Sc  Sc90  1  0.30498943  0.69694182  0.70502402  1
  Sc  Sc91  1  0.69440760  0.69474676  0.89506027  1
  Sc  Sc92  1  0.48730550  0.10870399  0.70115990  1
  Sc  Sc93  1  0.68746521  0.88468811  0.50393649  1
  Sc  Sc94  1  0.09630248  0.89268243  0.09576535  1
  Sc  Sc95  1  0.50401866  0.29816417  0.49727902  1
  Sc  Sc96  1  0.09637223  0.30301310  0.50287195  1
  Sc  Sc97  1  0.30096039  0.30553652  0.49255272  1
  Sc  Sc98  1  0.90813650  0.50692552  0.30193449  1
  Sc  Sc99  1  0.89529328  0.50179556  0.09175365  1
  Nb  Nb100  1  0.90040984  0.30080022  0.29916982  1
  Nb  Nb101  1  0.50085246  0.09987975  0.49497373  1
  Nb  Nb102  1  0.30149438  0.49881865  0.49287187  1
  Nb  Nb103  1  0.09137328  0.30418603  0.30112247  1
  Nb  Nb104  1  0.09964929  0.09423338  0.50328587  1
  Nb  Nb105  1  0.29854460  0.30355063  0.09921541  1
  Nb  Nb106  1  0.10496583  0.49922927  0.09770555  1
  Nb  Nb107  1  0.49503951  0.30102848  0.10187661  1
  Nb  Nb108  1  0.30340455  0.89378841  0.50333845  1
  Nb  Nb109  1  0.30874202  0.70240942  0.49988308  1
  Nb  Nb110  1  0.50244317  0.90287253  0.69294660  1
  Nb  Nb111  1  0.09423120  0.50028996  0.90302906  1
  Nb  Nb112  1  0.69704758  0.50346315  0.91316543  1
  Nb  Nb113  1  0.70075890  0.70099915  0.69532539  1
  Nb  Nb114  1  0.29318239  0.89536203  0.89914629  1
  Nb  Nb115  1  0.89770687  0.69968018  0.10377677  1
  Nb  Nb116  1  0.29265956  0.10846515  0.10397798  1
  Nb  Nb117  1  0.69696766  0.50145025  0.09151881  1
  Nb  Nb118  1  0.30322086  0.49923399  0.30110055  1
  Nb  Nb119  1  0.49683388  0.50197892  0.70044732  1
  Nb  Nb120  1  0.70036429  0.09782281  0.09740030  1
  Nb  Nb121  1  0.29793273  0.49628577  0.10489447  1
  Nb  Nb122  1  0.71073189  0.69077154  0.09803578  1
  Nb  Nb123  1  0.29966333  0.30367532  0.70154108  1
  Nb  Nb124  1  0.10890410  0.29545539  0.70353161  1
  Nb  Nb125  1  0.59570970  -0.00566354  0.78898463  1
  Nb  Nb126  1  0.39715316  0.20568386  0.19487764  1
  Nb  Nb127  1  0.79788437  -0.00308892  0.00267882  1
  Nb  Nb128  1  0.39727467  0.40389649  0.60336877  1
  Nb  Nb129  1  0.79796019  -0.00309756  0.40585803  1
  Nb  Nb130  1  0.39654006  0.40361944  0.79197976  1
  Nb  Nb131  1  0.19656513  0.00609728  0.19862888  1
  Nb  Nb132  1  0.79600547  0.00009833  0.59536513  1
  Nb  Nb133  1  -0.00181985  0.00546309  0.59772443  1
  Nb  Nb134  1  0.80125915  0.79498515  0.00629841  1
  Nb  Nb135  1  0.21162592  0.60189982  0.40187123  1
  Nb  Nb136  1  0.60695336  0.59475240  0.19020764  1
  Nb  Nb137  1  0.00155830  0.39544789  0.19943691  1
  Nb  Nb138  1  0.21053889  0.79326548  0.40354650  1
  Nb  Nb139  1  0.79416381  0.60001593  0.60409695  1
  Nb  Nb140  1  0.00435200  0.79863235  0.80311908  1
  Nb  Nb141  1  0.59970823  0.00341332  0.60273117  1
  Nb  Nb142  1  0.00508840  0.00826249  0.20387571  1
  Nb  Nb143  1  0.39355534  0.39784575  0.19660160  1
  Nb  Nb144  1  0.20778512  0.79945113  0.59426823  1
  Nb  Nb145  1  0.39368772  0.59613972  0.00559957  1
  Nb  Nb146  1  0.80479741  0.39779674  0.39508595  1
  Nb  Nb147  1  0.80248477  0.80192158  0.39559415  1
  Nb  Nb148  1  0.60159386  0.59880969  0.60638302  1
  Nb  Nb149  1  0.39497149  0.20213010  0.01156694  1
  Pd  Pd150  1  0.40477016  0.59792909  0.40454694  1
  Pd  Pd151  1  0.19585340  0.40365253  0.20411206  1
  Pd  Pd152  1  0.40450139  0.00937179  0.00659252  1
  Pd  Pd153  1  -0.00800390  0.79910084  -0.00504939  1
  Pd  Pd154  1  0.19403685  0.20773831  0.40915639  1
  Pd  Pd155  1  0.20460099  0.39415024  0.59592005  1
  Pd  Pd156  1  0.00313746  0.20505287  0.40794880  1
  Pd  Pd157  1  0.00296043  0.39377869  0.01004201  1
  Pd  Pd158  1  0.60776458  0.79492701  0.00674468  1
  Pd  Pd159  1  -0.00247968  0.59535265  0.00191223  1
  Pd  Pd160  1  0.79604504  0.39686716  -0.00407541  1
  Pd  Pd161  1  0.79703684  0.19489495  -0.00493861  1
  Pd  Pd162  1  0.39543579  0.20778442  0.81460474  1
  Pd  Pd163  1  0.00104310  0.21132156  -0.00325061  1
  Pd  Pd164  1  0.19775324  0.59464698  0.80439519  1
  Pd  Pd165  1  0.20082711  0.60984852  0.58921940  1
  Pd  Pd166  1  -0.00301099  -0.00281590  0.78993160  1
  Pd  Pd167  1  0.60520280  -0.00666661  0.40697370  1
  Pd  Pd168  1  0.59413174  0.40664839  0.20472509  1
  Pd  Pd169  1  0.80191384  0.19874862  0.60421976  1
  Pd  Pd170  1  0.20422369  0.00598538  0.79154171  1
  Pd  Pd171  1  0.80319001  0.00666307  0.19885787  1
  Pd  Pd172  1  0.00741921  0.80484918  0.60482352  1
  Pd  Pd173  1  0.20216105  0.20243683  -0.01033467  1
  Pd  Pd174  1  0.59407899  0.20256489  -0.00001213  1
  Pd  Pd175  1  0.20603138  0.20700645  0.58978510  1
  Pd  Pd176  1  0.40526162  -0.00203336  0.80436343  1
  Pd  Pd177  1  0.41143438  0.59699433  0.58933426  1
  Pd  Pd178  1  0.59061197  0.80150665  0.79823373  1
  Pd  Pd179  1  0.20322683  0.40781102  0.79907630  1
  Pd  Pd180  1  0.80319503  0.40776518  0.59437723  1
  Pd  Pd181  1  0.40276606  0.00984007  0.59754174  1
  Pd  Pd182  1  0.00980196  0.20183839  0.19648781  1
  Pd  Pd183  1  0.19801729  -0.00447086  0.60128682  1
  Pd  Pd184  1  -0.00158206  0.39195455  0.60712447  1
  Pd  Pd185  1  0.39478227  0.79387761  0.00613990  1
  Pd  Pd186  1  0.78899073  0.00318361  0.80061101  1
  Pd  Pd187  1  0.20296307  0.81280733  0.20514831  1
  Pd  Pd188  1  0.80660295  0.40923374  0.20555795  1
  Pd  Pd189  1  0.80198014  0.58808561  0.19886537  1
  Pd  Pd190  1  0.79418180  0.59898373  0.80298787  1
  Pd  Pd191  1  0.59981620  0.78973845  0.19721928  1
  Pd  Pd192  1  0.40719947  0.80659041  0.79939119  1
  Pd  Pd193  1  0.59548147  0.19336516  0.60406235  1
  Pd  Pd194  1  0.39968563  0.00956797  0.19386878  1
  Pd  Pd195  1  0.39484223  0.20706496  0.58919796  1
  Pd  Pd196  1  0.40099369  0.80358400  0.38788326  1
  Pd  Pd197  1  0.59384190  0.40081823  0.80718237  1
  Pd  Pd198  1  0.40064088  0.20876009  0.39379996  1
  Pd  Pd199  1  0.20149098  0.60021300  0.00340534  1
  Rh  Rh200  1  0.60856382  -0.00484929  -0.00799640  1
  Rh  Rh201  1  0.20448085  0.19706813  0.80436345  1
  Rh  Rh202  1  0.60857783  0.39491218  0.39394544  1
  Rh  Rh203  1  0.60044638  0.00155226  0.19982791  1
  Rh  Rh204  1  -0.00806471  0.59873007  0.60442251  1
  Rh  Rh205  1  -0.00012403  0.80396033  0.20141993  1
  Rh  Rh206  1  0.80813457  0.78943059  0.81678071  1
  Rh  Rh207  1  0.19422082  0.58950177  0.20545564  1
  Rh  Rh208  1  0.39792014  0.39632756  0.39529056  1
  Rh  Rh209  1  0.41334780  0.58368916  0.18905330  1
  Rh  Rh210  1  0.79688738  0.40222895  0.80859719  1
  Rh  Rh211  1  0.60296623  0.59949738  0.79629787  1
  Rh  Rh212  1  -0.01182370  0.01472370  0.40339834  1
  Rh  Rh213  1  0.59568630  0.19789498  0.19733376  1
  Rh  Rh214  1  0.39925505  0.79370461  0.60925936  1
  Rh  Rh215  1  0.00337955  0.39898701  0.79582316  1
  Rh  Rh216  1  0.59363400  0.60913531  0.00741734  1
  Rh  Rh217  1  0.40120169  -0.00378057  0.40256583  1
  Rh  Rh218  1  0.20086039  -0.00399297  0.00547190  1
  Rh  Rh219  1  0.20472476  0.79994183  0.00744538  1
  Rh  Rh220  1  0.60358412  0.79995189  0.38758266  1
  Rh  Rh221  1  0.79040148  0.19637652  0.19834685  1
  Rh  Rh222  1  0.60691507  0.38992135  -0.00692430  1
  Rh  Rh223  1  0.19814313  0.79983025  0.79091821  1
  Rh  Rh224  1  0.00127311  0.20780734  0.79892440  1
  Rh  Rh225  1  0.00166479  0.58708551  0.18902587  1
  Rh  Rh226  1  -0.00562076  0.39700842  0.39471049  1
  Rh  Rh227  1  0.80247289  0.79549189  0.58566286  1
  Rh  Rh228  1  0.80424394  0.20261672  0.80358879  1
  Rh  Rh229  1  0.59913723  0.20441846  0.39575193  1
  Rh  Rh230  1  0.19792678  0.19847500  0.20619742  1
  Rh  Rh231  1  0.39504475  0.39976811  -0.00200767  1
  Rh  Rh232  1  0.40239443  0.80535725  0.19927732  1
  Rh  Rh233  1  0.58847046  0.79140308  0.60984687  1
  Rh  Rh234  1  0.80883770  0.59890716  0.40850916  1
  Rh  Rh235  1  0.21067973  -0.01036285  0.39703814  1
  Rh  Rh236  1  0.19556642  0.40580195  0.40041298  1
  Rh  Rh237  1  0.58948914  0.40822466  0.60015138  1
  Rh  Rh238  1  0.59272077  0.19377189  0.79895547  1
  Rh  Rh239  1  0.79396432  0.20667267  0.39706076  1
  Rh  Rh240  1  0.00223126  0.20141593  0.60235031  1
  Rh  Rh241  1  0.00643617  0.60063746  0.80369225  1
  Rh  Rh242  1  0.80233837  0.60113088  -0.00541650  1
  Rh  Rh243  1  0.00341551  0.78861009  0.39292482  1
  Rh  Rh244  1  0.80381658  0.79556167  0.19981392  1
  Rh  Rh245  1  0.19188716  0.40093650  -0.00030953  1
  Rh  Rh246  1  0.39801053  0.59118854  0.81417785  1
  Rh  Rh247  1  0.59313515  0.60278233  0.39774082  1
  Rh  Rh248  1  -0.00991583  -0.00322497  0.00694936  1
  Rh  Rh249  1  0.01067726  0.60285464  0.39865174  1
