# generated using pymatgen
data_ZrScNbPdRh
_symmetry_space_group_name_H-M   'P 1'
_cell_length_a   16.55276585
_cell_length_b   16.55034821
_cell_length_c   16.55195453
_cell_angle_alpha   89.98642475
_cell_angle_beta   90.01197500
_cell_angle_gamma   89.96967805
_symmetry_Int_Tables_number   1
_chemical_formula_structural   ZrScNbPdRh
_chemical_formula_sum   'Zr50 Sc50 Nb50 Pd50 Rh50'
_cell_volume   4534.47392785
_cell_formula_units_Z   50
loop_
 _symmetry_equiv_pos_site_id
 _symmetry_equiv_pos_as_xyz
  1  'x, y, z'
loop_
 _atom_site_type_symbol
 _atom_site_label
 _atom_site_symmetry_multiplicity
 _atom_site_fract_x
 _atom_site_fract_y
 _atom_site_fract_z
 _atom_site_occupancy
  Zr  Zr0  1  0.29384859  0.28874893  0.49624784  1
  Zr  Zr1  1  0.29341475  0.09753636  0.89692998  1
  Zr  Zr2  1  0.90033719  0.69739342  0.49896810  1
  Zr  Zr3  1  0.30042740  0.29986203  0.90373111  1
  Zr  Zr4  1  0.69499191  0.09826991  0.30624923  1
  Zr  Zr5  1  0.49788922  0.70357943  0.89598674  1
  Zr  Zr6  1  0.09631492  0.30995793  0.09848787  1
  Zr  Zr7  1  0.10650112  0.70463185  0.70974680  1
  Zr  Zr8  1  0.09717142  0.69755996  0.49826064  1
  Zr  Zr9  1  0.89964439  0.10552441  0.09909827  1
  Zr  Zr10  1  0.30229815  0.69489990  0.69502883  1
  Zr  Zr11  1  0.08934780  0.29579754  0.69723404  1
  Zr  Zr12  1  0.89046961  0.70250876  0.90253145  1
  Zr  Zr13  1  0.70073759  0.50766821  0.89938890  1
  Zr  Zr14  1  0.10815921  0.31296748  0.30520695  1
  Zr  Zr15  1  0.90450668  0.09269078  0.90528877  1
  Zr  Zr16  1  0.89671359  0.90507213  0.31002943  1
  Zr  Zr17  1  0.70474183  0.27922664  0.70085339  1
  Zr  Zr18  1  0.69718674  0.90560767  0.30778510  1
  Zr  Zr19  1  0.30830207  0.10018094  0.30617957  1
  Zr  Zr20  1  0.49766662  0.90123869  0.28774604  1
  Zr  Zr21  1  0.10484318  0.29547399  0.89434887  1
  Zr  Zr22  1  0.70274727  0.29949984  0.10301388  1
  Zr  Zr23  1  0.31273465  0.70183026  0.30155877  1
  Zr  Zr24  1  0.49932077  0.29324207  0.10369847  1
  Zr  Zr25  1  0.51421972  0.09740172  0.69781055  1
  Zr  Zr26  1  0.48991208  0.90066230  0.89049324  1
  Zr  Zr27  1  0.89479159  0.50342547  0.90367140  1
  Zr  Zr28  1  0.89592672  0.89053896  0.50223675  1
  Zr  Zr29  1  0.69337347  0.09864220  0.50274281  1
  Zr  Zr30  1  0.29698071  0.30115141  0.70399721  1
  Zr  Zr31  1  0.69378953  0.69034217  0.29139453  1
  Zr  Zr32  1  0.30180172  0.90696581  0.70877371  1
  Zr  Zr33  1  0.10090222  0.89064852  0.09286974  1
  Zr  Zr34  1  0.70079100  0.29781742  0.90140704  1
  Zr  Zr35  1  0.89589811  0.70580756  0.69661015  1
  Zr  Zr36  1  0.90051786  0.10393307  0.29899982  1
  Zr  Zr37  1  0.49468280  0.30476204  0.90141326  1
  Zr  Zr38  1  0.10622770  0.70765604  0.90224982  1
  Zr  Zr39  1  0.69979054  0.69035881  0.90297694  1
  Zr  Zr40  1  0.29870815  0.70003709  0.89082614  1
  Zr  Zr41  1  0.49320027  0.90448505  0.08898137  1
  Zr  Zr42  1  0.90344288  0.69478915  0.30208927  1
  Zr  Zr43  1  0.69645195  0.49470794  0.49502567  1
  Zr  Zr44  1  0.50193534  0.50249821  0.89239401  1
  Zr  Zr45  1  0.89845896  0.10928022  0.69711220  1
  Zr  Zr46  1  0.69930263  0.30736510  0.30033181  1
  Zr  Zr47  1  0.70639699  0.50699918  0.10741823  1
  Zr  Zr48  1  0.50092944  0.69345506  0.30078294  1
  Zr  Zr49  1  0.68479564  0.90500443  0.69363873  1
  Sc  Sc50  1  0.69779498  0.49797636  0.30276921  1
  Sc  Sc51  1  0.49827174  0.50435153  0.69699093  1
  Sc  Sc52  1  0.69431243  0.50341078  0.70178352  1
  Sc  Sc53  1  0.31162083  0.89886069  0.50629781  1
  Sc  Sc54  1  0.29717884  0.70850037  0.09553798  1
  Sc  Sc55  1  0.89923986  0.49328669  0.70561510  1
  Sc  Sc56  1  0.69717856  0.90030792  0.90577380  1
  Sc  Sc57  1  0.10543495  0.49718440  0.70265180  1
  Sc  Sc58  1  0.70391834  0.69231499  0.50424204  1
  Sc  Sc59  1  0.30116703  0.49332631  0.89431153  1
  Sc  Sc60  1  0.70642234  0.10260725  0.89678636  1
  Sc  Sc61  1  0.69624883  0.10959348  0.09289636  1
  Sc  Sc62  1  0.90624368  0.29692463  0.49656382  1
  Sc  Sc63  1  0.09626579  0.09726421  0.30042199  1
  Sc  Sc64  1  0.08957252  0.70034921  0.29562123  1
  Sc  Sc65  1  0.30531551  0.50507705  0.50863422  1
  Sc  Sc66  1  0.69769398  0.30216759  0.49333548  1
  Sc  Sc67  1  0.90269637  0.90331129  0.90184438  1
  Sc  Sc68  1  0.31091713  0.30299233  0.09774094  1
  Sc  Sc69  1  0.69991761  0.69860563  0.09628310  1
  Sc  Sc70  1  0.09885609  0.90209189  0.29171385  1
  Sc  Sc71  1  0.50378221  0.30475299  0.69834245  1
  Sc  Sc72  1  0.50119434  0.70813560  0.10861815  1
  Sc  Sc73  1  0.49314799  0.49434733  0.10787054  1
  Sc  Sc74  1  0.10874213  0.49112125  0.90580858  1
  Sc  Sc75  1  0.09502912  0.49223171  0.49398113  1
  Sc  Sc76  1  0.10375709  0.10186730  0.70633958  1
  Sc  Sc77  1  0.30396072  0.50352310  0.70555112  1
  Sc  Sc78  1  0.89896426  0.69998873  0.10352221  1
  Sc  Sc79  1  0.10270040  0.09077154  0.10173986  1
  Sc  Sc80  1  0.90637098  0.30333764  0.89002344  1
  Sc  Sc81  1  0.50674593  0.89637140  0.51022683  1
  Sc  Sc82  1  0.49367785  0.09180953  0.91133722  1
  Sc  Sc83  1  0.90820362  0.49592237  0.10913777  1
  Sc  Sc84  1  0.50786869  0.49956186  0.50368282  1
  Sc  Sc85  1  0.69590983  0.69439124  0.69685944  1
  Sc  Sc86  1  0.89955221  0.49609697  0.49580633  1
  Sc  Sc87  1  0.69051826  0.89401170  0.10021616  1
  Sc  Sc88  1  0.29197216  0.10242589  0.69743033  1
  Sc  Sc89  1  0.90435167  0.10444640  0.49440039  1
  Sc  Sc90  1  0.29959755  0.49212371  0.09694125  1
  Sc  Sc91  1  0.90228581  0.89736499  0.70492081  1
  Sc  Sc92  1  0.89903233  0.90008751  0.09022758  1
  Sc  Sc93  1  0.10831746  0.10805960  0.50328906  1
  Sc  Sc94  1  0.09706175  0.29892721  0.49762440  1
  Sc  Sc95  1  0.29741986  0.89901137  0.10370770  1
  Sc  Sc96  1  0.49269586  0.69664123  0.50446959  1
  Sc  Sc97  1  0.90166013  0.50070628  0.29836675  1
  Sc  Sc98  1  0.09931128  0.49338301  0.10234309  1
  Sc  Sc99  1  0.30299209  0.10228315  0.09420549  1
  Nb  Nb100  1  0.09993881  0.90329633  0.88929266  1
  Nb  Nb101  1  0.49704598  0.89860689  0.69972382  1
  Nb  Nb102  1  0.49733875  0.70719980  0.69875227  1
  Nb  Nb103  1  0.48885886  0.10701929  0.49534045  1
  Nb  Nb104  1  0.49548383  0.30359822  0.49496628  1
  Nb  Nb105  1  0.49617703  0.50082743  0.30270185  1
  Nb  Nb106  1  0.30393763  0.10075457  0.50043983  1
  Nb  Nb107  1  0.29746850  0.70255439  0.50162869  1
  Nb  Nb108  1  0.10658563  0.50075657  0.29883558  1
  Nb  Nb109  1  0.29383213  0.30668886  0.30055850  1
  Nb  Nb110  1  0.90384634  0.29858937  0.69140387  1
  Nb  Nb111  1  0.49703914  0.30248656  0.29185922  1
  Nb  Nb112  1  0.29960964  0.89779697  0.30426404  1
  Nb  Nb113  1  0.30885477  0.90371149  0.89972556  1
  Nb  Nb114  1  0.90072231  0.30084665  0.10042418  1
  Nb  Nb115  1  0.70436310  0.09946103  0.69355751  1
  Nb  Nb116  1  0.09849551  0.10062031  0.90276834  1
  Nb  Nb117  1  0.29768045  0.49538456  0.29902520  1
  Nb  Nb118  1  0.70445134  0.90293718  0.49613110  1
  Nb  Nb119  1  0.10187464  0.89754125  0.70218137  1
  Nb  Nb120  1  0.89611403  0.29976958  0.29039014  1
  Nb  Nb121  1  0.10321749  0.89930270  0.50231460  1
  Nb  Nb122  1  0.49454440  0.10577737  0.11194186  1
  Nb  Nb123  1  0.49869745  0.10346233  0.29264692  1
  Nb  Nb124  1  0.10079611  0.69718445  0.09933648  1
  Nb  Nb125  1  0.00093985  0.60496327  0.80416806  1
  Nb  Nb126  1  0.00655317  0.60423669  -0.00101568  1
  Nb  Nb127  1  0.00007266  0.60162941  0.60605487  1
  Nb  Nb128  1  0.79925371  0.00067187  0.59906683  1
  Nb  Nb129  1  0.80150342  0.39021527  0.60437040  1
  Nb  Nb130  1  0.40045668  0.19785416  0.80062958  1
  Nb  Nb131  1  0.79839697  0.80554088  0.20732555  1
  Nb  Nb132  1  0.60304444  0.80072624  0.39951072  1
  Nb  Nb133  1  0.60530869  0.40142740  0.00126394  1
  Nb  Nb134  1  0.20484658  0.80054205  0.40335790  1
  Nb  Nb135  1  0.20374129  0.20677487  0.20533743  1
  Nb  Nb136  1  0.20419957  0.60211072  0.39488223  1
  Nb  Nb137  1  0.40505538  0.00788752  0.60073168  1
  Nb  Nb138  1  0.20830919  -0.00592150  0.40497096  1
  Nb  Nb139  1  0.79918079  0.39724631  0.00327639  1
  Nb  Nb140  1  0.79802658  -0.00023707  0.20218739  1
  Nb  Nb141  1  0.58408001  0.20117874  0.39520881  1
  Nb  Nb142  1  0.20096453  0.39473691  0.59944531  1
  Nb  Nb143  1  0.39956865  0.60308098  -0.00406524  1
  Nb  Nb144  1  0.19974953  0.80321266  0.59861009  1
  Nb  Nb145  1  0.20027084  0.59851852  0.20468921  1
  Nb  Nb146  1  0.00469124  -0.00625335  0.59965652  1
  Nb  Nb147  1  0.00231393  0.20084158  -0.00000679  1
  Nb  Nb148  1  0.79372563  0.80027782  0.79948680  1
  Nb  Nb149  1  0.40025021  0.39809630  0.39452532  1
  Pd  Pd150  1  0.79286220  0.19459309  0.20235879  1
  Pd  Pd151  1  0.59965170  0.40605998  0.19752027  1
  Pd  Pd152  1  0.39943419  0.59061110  0.40766712  1
  Pd  Pd153  1  0.80602133  0.58461596  0.60387287  1
  Pd  Pd154  1  0.60225377  0.00498141  0.80929216  1
  Pd  Pd155  1  0.40837117  0.80674193  0.40387168  1
  Pd  Pd156  1  0.40459089  -0.00894016  0.40597271  1
  Pd  Pd157  1  0.00790223  0.80508193  0.39508532  1
  Pd  Pd158  1  0.39494606  0.39904522  0.59536055  1
  Pd  Pd159  1  0.40118374  0.20987094  0.39092226  1
  Pd  Pd160  1  0.60512093  0.39937798  0.79743877  1
  Pd  Pd161  1  0.00849263  0.00045982  0.40942195  1
  Pd  Pd162  1  0.20279061  0.59458857  0.00608652  1
  Pd  Pd163  1  -0.00671897  -0.00770437  0.19240910  1
  Pd  Pd164  1  0.20067277  0.79165468  0.20858552  1
  Pd  Pd165  1  0.20044607  -0.00831215  -0.00435154  1
  Pd  Pd166  1  0.40301499  0.19814460  0.61067807  1
  Pd  Pd167  1  0.60512504  0.00538526  0.18909255  1
  Pd  Pd168  1  -0.00771914  0.39892380  0.39376524  1
  Pd  Pd169  1  0.59507604  0.20774513  0.58881126  1
  Pd  Pd170  1  -0.00157717  0.79707289  -0.00433983  1
  Pd  Pd171  1  0.00486682  0.40890008  0.80217572  1
  Pd  Pd172  1  0.60920498  0.39314212  0.60474098  1
  Pd  Pd173  1  0.79509810  0.20348094  0.40238723  1
  Pd  Pd174  1  0.00630760  0.20402322  0.39398921  1
  Pd  Pd175  1  0.79431792  0.39649332  0.79566392  1
  Pd  Pd176  1  0.00258417  0.00318710  0.79206939  1
  Pd  Pd177  1  0.60133697  0.00549794  0.00162995  1
  Pd  Pd178  1  0.19467012  0.20326963  0.01213637  1
  Pd  Pd179  1  -0.00964753  0.80523042  0.19743104  1
  Pd  Pd180  1  0.60631531  0.79762044  0.80298331  1
  Pd  Pd181  1  0.80952212  0.19917169  0.80720773  1
  Pd  Pd182  1  0.60397547  0.79062873  0.59045682  1
  Pd  Pd183  1  0.58270924  -0.00053842  0.40640068  1
  Pd  Pd184  1  0.58588095  0.59458249  0.01206980  1
  Pd  Pd185  1  0.79711082  0.59623113  0.39705117  1
  Pd  Pd186  1  0.00723534  0.79954253  0.60362456  1
  Pd  Pd187  1  0.20710011  0.80922927  -0.00786786  1
  Pd  Pd188  1  0.39114833  -0.00010250  0.19366745  1
  Pd  Pd189  1  0.79070462  -0.00240939  0.00879395  1
  Pd  Pd190  1  0.19195862  0.59391868  0.59456881  1
  Pd  Pd191  1  0.20257664  -0.00259061  0.59531000  1
  Pd  Pd192  1  0.59273163  0.19187110  0.81130345  1
  Pd  Pd193  1  0.78977140  0.78662581  0.39557535  1
  Pd  Pd194  1  0.01123006  0.20550796  0.19770080  1
  Pd  Pd195  1  0.79429888  -0.00724436  0.79239320  1
  Pd  Pd196  1  0.59649851  0.79919603  -0.00410988  1
  Pd  Pd197  1  0.39175453  0.59916896  0.18842204  1
  Pd  Pd198  1  0.59196939  0.20023510  -0.00414924  1
  Pd  Pd199  1  0.20677613  0.00748986  0.20745433  1
  Rh  Rh200  1  0.59805033  0.60354088  0.40323015  1
  Rh  Rh201  1  0.81428196  0.20819912  -0.00732758  1
  Rh  Rh202  1  0.40199658  0.19482401  -0.00435735  1
  Rh  Rh203  1  0.00958845  0.59669476  0.19278710  1
  Rh  Rh204  1  0.40113245  0.39423113  0.79606979  1
  Rh  Rh205  1  -0.00927180  0.79860328  0.80736807  1
  Rh  Rh206  1  0.01077123  0.00131991  0.00195225  1
  Rh  Rh207  1  0.79433929  0.80091139  0.00086563  1
  Rh  Rh208  1  0.80338442  0.20026610  0.58966664  1
  Rh  Rh209  1  0.19680010  -0.00120154  0.80518092  1
  Rh  Rh210  1  0.80551969  0.60586454  0.20172618  1
  Rh  Rh211  1  0.60357926  0.19773086  0.20746970  1
  Rh  Rh212  1  0.59244148  0.59349323  0.19822986  1
  Rh  Rh213  1  0.40353782  0.60225485  0.80090219  1
  Rh  Rh214  1  0.58814152  0.39599399  0.39350534  1
  Rh  Rh215  1  -0.00091800  0.40541887  0.60084787  1
  Rh  Rh216  1  0.00433035  0.59421132  0.40379621  1
  Rh  Rh217  1  0.39554011  0.79771476  0.79289644  1
  Rh  Rh218  1  0.78769770  0.81134562  0.60826075  1
  Rh  Rh219  1  0.20851081  0.81019886  0.80085653  1
  Rh  Rh220  1  0.21196558  0.41283041  0.41478105  1
  Rh  Rh221  1  0.19475702  0.59293446  0.80589847  1
  Rh  Rh222  1  0.39962945  0.80412143  0.19640380  1
  Rh  Rh223  1  0.19830365  0.39814467  0.79331855  1
  Rh  Rh224  1  0.19699936  0.18811591  0.39061122  1
  Rh  Rh225  1  0.39491954  0.00251213  0.00545203  1
  Rh  Rh226  1  -0.00175908  0.39771119  0.21000838  1
  Rh  Rh227  1  0.80686342  0.00942716  0.40593557  1
  Rh  Rh228  1  0.80528671  0.40060822  0.19922833  1
  Rh  Rh229  1  0.80678649  0.39637230  0.40224629  1
  Rh  Rh230  1  0.59466983  0.60261441  0.60000611  1
  Rh  Rh231  1  0.39684278  0.79688346  -0.00063945  1
  Rh  Rh232  1  0.20347772  0.40016688  0.19243210  1
  Rh  Rh233  1  -0.00840603  0.40025358  -0.00494048  1
  Rh  Rh234  1  0.40527699  0.60186615  0.60196599  1
  Rh  Rh235  1  0.00323086  0.19080458  0.59793435  1
  Rh  Rh236  1  0.59632390  0.00268208  0.59161527  1
  Rh  Rh237  1  0.38939028  0.20274892  0.20269113  1
  Rh  Rh238  1  0.40888573  0.41101948  -0.00389326  1
  Rh  Rh239  1  0.39653133  0.39858567  0.20595981  1
  Rh  Rh240  1  0.19555010  0.20567537  0.60242940  1
  Rh  Rh241  1  0.39405815  0.80490271  0.60809699  1
  Rh  Rh242  1  0.40312393  0.01218873  0.79009311  1
  Rh  Rh243  1  0.60370154  0.80010492  0.20584653  1
  Rh  Rh244  1  0.80330259  0.60801330  0.79028180  1
  Rh  Rh245  1  0.81317524  0.59245826  0.01519606  1
  Rh  Rh246  1  0.20584587  0.39535702  0.00166543  1
  Rh  Rh247  1  -0.00396393  0.19255880  0.80705185  1
  Rh  Rh248  1  0.20299968  0.19857844  0.79904911  1
  Rh  Rh249  1  0.59271616  0.60734276  0.79021568  1
