# generated using pymatgen
data_ZrScNbPdRh
_symmetry_space_group_name_H-M   'P 1'
_cell_length_a   16.55708229
_cell_length_b   16.56165321
_cell_length_c   16.55946984
_cell_angle_alpha   89.99322776
_cell_angle_beta   89.98180262
_cell_angle_gamma   90.01538837
_symmetry_Int_Tables_number   1
_chemical_formula_structural   ZrScNbPdRh
_chemical_formula_sum   'Zr50 Sc50 Nb50 Pd50 Rh50'
_cell_volume   4540.81576705
_cell_formula_units_Z   50
loop_
 _symmetry_equiv_pos_site_id
 _symmetry_equiv_pos_as_xyz
  1  'x, y, z'
loop_
 _atom_site_type_symbol
 _atom_site_label
 _atom_site_symmetry_multiplicity
 _atom_site_fract_x
 _atom_site_fract_y
 _atom_site_fract_z
 _atom_site_occupancy
  Zr  Zr0  1  0.09432881  0.09357996  0.70845432  1
  Zr  Zr1  1  0.50316225  0.29293851  0.50096453  1
  Zr  Zr2  1  0.49800359  0.89465775  0.91055008  1
  Zr  Zr3  1  0.69781162  0.50226709  0.90905896  1
  Zr  Zr4  1  0.69684386  0.70367783  0.69395295  1
  Zr  Zr5  1  0.90447732  0.09821535  0.89699730  1
  Zr  Zr6  1  0.90050476  0.30828727  0.70408496  1
  Zr  Zr7  1  0.10266094  0.29300229  0.89942541  1
  Zr  Zr8  1  0.29444569  0.49664906  0.50293772  1
  Zr  Zr9  1  0.10104379  0.10539497  0.09684687  1
  Zr  Zr10  1  0.10406698  0.90004059  0.89003003  1
  Zr  Zr11  1  0.69905097  0.90208297  0.90749515  1
  Zr  Zr12  1  0.89443902  0.69669826  0.29755359  1
  Zr  Zr13  1  0.69956644  0.89584743  0.09669747  1
  Zr  Zr14  1  0.90400063  0.89464056  0.29176426  1
  Zr  Zr15  1  0.09926757  0.30061904  0.50058148  1
  Zr  Zr16  1  0.88940399  0.49316464  0.10280446  1
  Zr  Zr17  1  0.29636316  0.70155355  0.50675302  1
  Zr  Zr18  1  0.29724666  0.89535710  0.09852042  1
  Zr  Zr19  1  0.89650262  0.50123808  0.30392767  1
  Zr  Zr20  1  0.70091580  0.69115430  0.10275156  1
  Zr  Zr21  1  0.30461836  0.49184328  0.09620892  1
  Zr  Zr22  1  0.69815749  0.48865658  0.70233454  1
  Zr  Zr23  1  0.49842461  0.70959674  0.50001775  1
  Zr  Zr24  1  0.88659682  0.10445452  0.30044387  1
  Zr  Zr25  1  0.10234828  0.10183922  0.89397511  1
  Zr  Zr26  1  0.09589394  0.89417497  0.50344108  1
  Zr  Zr27  1  0.89484024  0.49372671  0.49647390  1
  Zr  Zr28  1  0.50265880  0.70578004  0.10197903  1
  Zr  Zr29  1  0.29367498  0.50068776  0.70828939  1
  Zr  Zr30  1  0.09761040  0.09980379  0.29565953  1
  Zr  Zr31  1  0.30204508  0.10740582  0.90371951  1
  Zr  Zr32  1  0.49083426  0.09067530  0.50685945  1
  Zr  Zr33  1  0.69668620  0.91233670  0.30014967  1
  Zr  Zr34  1  0.70835595  0.30196521  0.09502808  1
  Zr  Zr35  1  0.50027116  0.49103449  0.29292408  1
  Zr  Zr36  1  0.10135003  0.49608528  0.09031789  1
  Zr  Zr37  1  0.29470657  0.28752725  0.50405044  1
  Zr  Zr38  1  0.10535855  0.69813693  0.50892790  1
  Zr  Zr39  1  0.51363693  0.29172344  0.70114281  1
  Zr  Zr40  1  0.69909717  0.90310978  0.68820797  1
  Zr  Zr41  1  0.69742790  0.27816315  0.30226964  1
  Zr  Zr42  1  0.69360061  0.30184623  0.89574455  1
  Zr  Zr43  1  0.50836794  0.10288877  0.30110553  1
  Zr  Zr44  1  0.70231687  0.50828310  0.30053337  1
  Zr  Zr45  1  0.90575142  0.70119092  0.50124017  1
  Zr  Zr46  1  0.50041186  0.90023311  0.30218747  1
  Zr  Zr47  1  0.30659593  0.10676149  0.30264395  1
  Zr  Zr48  1  0.09219552  0.29883841  0.09266505  1
  Zr  Zr49  1  0.31542737  0.89826409  0.50383275  1
  Sc  Sc50  1  0.09169551  0.29460299  0.30493670  1
  Sc  Sc51  1  0.69959211  0.09718390  0.49245248  1
  Sc  Sc52  1  0.89561880  0.09067500  0.50331703  1
  Sc  Sc53  1  0.51013645  0.49370065  0.90546690  1
  Sc  Sc54  1  0.90456226  0.29666923  0.90146165  1
  Sc  Sc55  1  0.29968586  0.89711479  0.70065425  1
  Sc  Sc56  1  0.90915086  0.70019464  0.69673120  1
  Sc  Sc57  1  0.50416687  0.70835985  0.70155186  1
  Sc  Sc58  1  0.90538014  0.08837537  0.69733342  1
  Sc  Sc59  1  0.50766932  0.49578808  0.70315227  1
  Sc  Sc60  1  0.49676846  0.29971334  0.90275472  1
  Sc  Sc61  1  0.69712943  0.09929980  0.91230881  1
  Sc  Sc62  1  0.90698348  0.50274841  0.89548836  1
  Sc  Sc63  1  0.89423598  0.10682824  0.09472810  1
  Sc  Sc64  1  0.10250430  0.70230014  0.70254455  1
  Sc  Sc65  1  0.90462440  0.90160006  0.68465316  1
  Sc  Sc66  1  0.68741134  0.70268322  0.90697292  1
  Sc  Sc67  1  0.31279848  0.30030176  0.30387053  1
  Sc  Sc68  1  0.09760417  0.70601603  0.30990185  1
  Sc  Sc69  1  0.89565088  0.89670658  0.90785685  1
  Sc  Sc70  1  0.70299105  0.10325780  0.10338368  1
  Sc  Sc71  1  0.29514841  0.48894316  0.90118749  1
  Sc  Sc72  1  0.10491644  0.30299570  0.70718251  1
  Sc  Sc73  1  0.50655158  0.70470509  0.29925418  1
  Sc  Sc74  1  0.10437991  0.11099067  0.49389835  1
  Sc  Sc75  1  0.69522207  0.30196176  0.50127251  1
  Sc  Sc76  1  0.70057046  0.69942471  0.29910785  1
  Sc  Sc77  1  0.49429655  0.10974663  0.09812315  1
  Sc  Sc78  1  0.30364443  0.10759820  0.70077510  1
  Sc  Sc79  1  0.89523562  0.30074554  0.30273801  1
  Sc  Sc80  1  0.90612836  0.49652560  0.70353537  1
  Sc  Sc81  1  0.90847298  0.70456710  0.90242091  1
  Sc  Sc82  1  0.10069557  0.50728318  0.70950582  1
  Sc  Sc83  1  0.89415013  0.70451560  0.10035955  1
  Sc  Sc84  1  0.30861639  0.29914615  0.08637042  1
  Sc  Sc85  1  0.49804171  0.30818514  0.10497130  1
  Sc  Sc86  1  0.29836377  0.70945742  0.29968774  1
  Sc  Sc87  1  0.29121221  0.71557731  0.89852449  1
  Sc  Sc88  1  0.89507178  0.89337094  0.09946395  1
  Sc  Sc89  1  0.29486973  0.70267610  0.69708936  1
  Sc  Sc90  1  0.50332804  0.10029242  0.90563044  1
  Sc  Sc91  1  0.29950498  0.49195803  0.30535638  1
  Sc  Sc92  1  0.51261576  0.49203200  0.49900515  1
  Sc  Sc93  1  0.69275086  0.70284190  0.49696695  1
  Sc  Sc94  1  0.50158200  0.29424755  0.29943459  1
  Sc  Sc95  1  0.10320862  0.50432016  0.89838547  1
  Sc  Sc96  1  0.29683556  0.70655556  0.09923259  1
  Sc  Sc97  1  0.10284718  0.50076807  0.49491028  1
  Sc  Sc98  1  0.10249860  0.70261476  0.08341167  1
  Sc  Sc99  1  0.50162796  0.90435839  0.68727133  1
  Nb  Nb100  1  0.30483796  0.30464989  0.70901139  1
  Nb  Nb101  1  0.69154875  0.50162435  0.10026131  1
  Nb  Nb102  1  0.50109141  0.50031366  0.10148357  1
  Nb  Nb103  1  0.89930238  0.29918957  0.50472608  1
  Nb  Nb104  1  0.49775821  0.69792074  0.90086548  1
  Nb  Nb105  1  0.30414780  0.10191701  0.09729493  1
  Nb  Nb106  1  0.09849715  0.91196900  0.69703055  1
  Nb  Nb107  1  0.50840467  0.90084925  0.49653153  1
  Nb  Nb108  1  0.89756795  0.29894549  0.09916262  1
  Nb  Nb109  1  0.29948565  0.29857231  0.89043049  1
  Nb  Nb110  1  0.68896131  0.10124697  0.70217440  1
  Nb  Nb111  1  0.70570057  0.89952181  0.50183693  1
  Nb  Nb112  1  0.49229827  0.89924153  0.10467157  1
  Nb  Nb113  1  0.69838724  0.29293046  0.70145457  1
  Nb  Nb114  1  0.30087265  0.91004126  0.90000735  1
  Nb  Nb115  1  0.50935542  0.09516896  0.69971359  1
  Nb  Nb116  1  0.29692181  0.09821705  0.49938221  1
  Nb  Nb117  1  0.89796690  0.90047277  0.50476703  1
  Nb  Nb118  1  0.09864934  0.69892925  0.89415759  1
  Nb  Nb119  1  0.29462087  0.90105948  0.29370816  1
  Nb  Nb120  1  0.10078630  0.49950379  0.29320294  1
  Nb  Nb121  1  0.69872128  0.10078910  0.29891216  1
  Nb  Nb122  1  0.70258616  0.50438753  0.49931567  1
  Nb  Nb123  1  0.10215239  0.90573950  0.29333203  1
  Nb  Nb124  1  0.10130132  0.90790844  0.10652766  1
  Nb  Nb125  1  0.40282559  0.60370454  0.80591448  1
  Nb  Nb126  1  0.19643768  0.39543321  0.19771929  1
  Nb  Nb127  1  0.79897954  0.20176642  0.60660557  1
  Nb  Nb128  1  0.40105769  0.59409997  0.60084601  1
  Nb  Nb129  1  0.40391533  0.60162706  -0.00209887  1
  Nb  Nb130  1  0.20174399  -0.00481395  0.39774027  1
  Nb  Nb131  1  0.20106652  -0.00056976  0.00266945  1
  Nb  Nb132  1  0.40101934  0.59870798  0.40229825  1
  Nb  Nb133  1  0.80265226  0.80828758  0.40515125  1
  Nb  Nb134  1  0.20241933  0.00244509  0.59449609  1
  Nb  Nb135  1  0.39768919  -0.00354055  0.19795079  1
  Nb  Nb136  1  0.79631295  0.59465390  0.59966103  1
  Nb  Nb137  1  0.39811286  0.59747039  0.19917854  1
  Nb  Nb138  1  0.20417550  0.20394757  0.19550057  1
  Nb  Nb139  1  0.00235400  -0.00654936  0.39422393  1
  Nb  Nb140  1  0.79563358  0.80099216  0.79542837  1
  Nb  Nb141  1  0.39625841  0.39499406  0.60629469  1
  Nb  Nb142  1  0.19758100  0.59283581  0.19943818  1
  Nb  Nb143  1  -0.00607580  0.20532372  0.59999654  1
  Nb  Nb144  1  0.40297748  -0.00123050  0.80295768  1
  Nb  Nb145  1  0.79554954  0.60575663  0.79630293  1
  Nb  Nb146  1  0.00497741  0.59427611  0.19784042  1
  Nb  Nb147  1  0.00933549  -0.00214313  0.00293577  1
  Nb  Nb148  1  0.79405058  0.19439312  0.79316503  1
  Nb  Nb149  1  0.79315662  -0.00159327  0.79721850  1
  Pd  Pd150  1  0.41052910  0.19228884  0.79965724  1
  Pd  Pd151  1  0.80045802  0.40149685  0.80814675  1
  Pd  Pd152  1  -0.00743509  0.59977148  0.00442026  1
  Pd  Pd153  1  0.40191990  0.20092181  0.60604821  1
  Pd  Pd154  1  0.60043549  0.80923964  0.79964365  1
  Pd  Pd155  1  0.59302174  0.00243165  0.01228914  1
  Pd  Pd156  1  0.39717174  -0.00147601  0.39321421  1
  Pd  Pd157  1  -0.00527039  0.40091020  -0.00842863  1
  Pd  Pd158  1  0.59751090  0.59676879  0.59953085  1
  Pd  Pd159  1  0.19825047  0.80346493  0.79354517  1
  Pd  Pd160  1  0.79070989  0.39559557  0.20939200  1
  Pd  Pd161  1  0.20968126  0.01044380  0.19849519  1
  Pd  Pd162  1  0.20280193  0.80765867  0.40187990  1
  Pd  Pd163  1  0.80659302  0.60506626  -0.00862610  1
  Pd  Pd164  1  0.00114211  0.40159937  0.39846349  1
  Pd  Pd165  1  0.59188906  0.00697942  0.18901216  1
  Pd  Pd166  1  0.59995875  0.59953259  0.80009368  1
  Pd  Pd167  1  0.59294121  0.60006664  0.39760734  1
  Pd  Pd168  1  0.59648295  -0.00452745  0.80508956  1
  Pd  Pd169  1  0.59670709  0.20707351  0.00632056  1
  Pd  Pd170  1  0.40218810  0.80296398  0.79603221  1
  Pd  Pd171  1  -0.00108420  0.59065311  0.60155046  1
  Pd  Pd172  1  0.00976370  0.78827105  0.19213661  1
  Pd  Pd173  1  0.60984533  0.39318099  0.20155100  1
  Pd  Pd174  1  0.78979999  0.39056949  0.39699181  1
  Pd  Pd175  1  0.80424843  0.39899448  -0.00964186  1
  Pd  Pd176  1  0.79324555  0.39857425  0.59839642  1
  Pd  Pd177  1  0.00402455  0.59676038  0.39647956  1
  Pd  Pd178  1  0.00066316  0.39995780  0.20220399  1
  Pd  Pd179  1  0.39602135  0.79441291  -0.00120547  1
  Pd  Pd180  1  0.19175388  0.19501540  0.61174653  1
  Pd  Pd181  1  -0.01181731  0.00601829  0.19487780  1
  Pd  Pd182  1  0.21166166  0.60374685  -0.00432024  1
  Pd  Pd183  1  0.00929703  0.40179418  0.60220991  1
  Pd  Pd184  1  -0.01226896  0.19203111  0.40729502  1
  Pd  Pd185  1  0.19705552  0.39007825  0.39134422  1
  Pd  Pd186  1  0.60816004  0.39685124  0.39351794  1
  Pd  Pd187  1  0.39902087  0.79665873  0.39398246  1
  Pd  Pd188  1  0.80546979  -0.00474233  0.39975090  1
  Pd  Pd189  1  -0.00381656  0.80455942  0.39970877  1
  Pd  Pd190  1  0.18948355  0.78928532  0.19788320  1
  Pd  Pd191  1  0.80377815  0.00021688  0.19096147  1
  Pd  Pd192  1  0.40296646  0.40031713  0.41144752  1
  Pd  Pd193  1  -0.00639322  0.80565684  0.79329516  1
  Pd  Pd194  1  0.40878592  0.40666691  0.80014540  1
  Pd  Pd195  1  0.60643595  0.80160841  0.20178533  1
  Pd  Pd196  1  -0.00561496  0.20217576  0.19912718  1
  Pd  Pd197  1  0.20601496  0.60248865  0.39171790  1
  Pd  Pd198  1  0.00675995  0.80853261  0.00316788  1
  Pd  Pd199  1  0.19872945  0.40154552  0.60736906  1
  Rh  Rh200  1  0.00595985  0.79935843  0.60549252  1
  Rh  Rh201  1  -0.00728777  0.20368330  0.78918408  1
  Rh  Rh202  1  0.19248139  0.81043340  -0.00407780  1
  Rh  Rh203  1  0.40607341  0.19896295  0.40586477  1
  Rh  Rh204  1  0.60009258  0.19485370  0.80906132  1
  Rh  Rh205  1  0.59799979  0.39702089  0.80240270  1
  Rh  Rh206  1  0.01482365  0.01220130  0.58337497  1
  Rh  Rh207  1  0.20326137  0.20025864  0.79490013  1
  Rh  Rh208  1  -0.00720360  0.19626527  -0.00045646  1
  Rh  Rh209  1  0.19466484  0.81108954  0.60728880  1
  Rh  Rh210  1  0.39932710  0.80175918  0.20540190  1
  Rh  Rh211  1  0.59977698  0.39732794  0.00736670  1
  Rh  Rh212  1  0.20104571  0.59611873  0.60447005  1
  Rh  Rh213  1  0.80228035  0.78950696  0.59617235  1
  Rh  Rh214  1  0.00797516  0.40023082  0.80554477  1
  Rh  Rh215  1  0.20630774  0.60741589  0.80837453  1
  Rh  Rh216  1  0.80038151  0.20357154  -0.00792427  1
  Rh  Rh217  1  0.60032561  0.00095004  0.40536777  1
  Rh  Rh218  1  0.80804537  0.00348743  -0.00193367  1
  Rh  Rh219  1  0.39303013  0.00389537  0.61127333  1
  Rh  Rh220  1  0.40572570  0.79607491  0.60482903  1
  Rh  Rh221  1  0.59405166  0.59835061  0.20177421  1
  Rh  Rh222  1  0.39454045  0.40101045  0.19986834  1
  Rh  Rh223  1  0.20390115  0.20095129  0.38962748  1
  Rh  Rh224  1  0.60124936  0.39821942  0.59998776  1
  Rh  Rh225  1  0.19962889  0.38788595  -0.00308433  1
  Rh  Rh226  1  0.59619961  0.19125094  0.40779983  1
  Rh  Rh227  1  0.61014868  0.80869496  0.40019625  1
  Rh  Rh228  1  0.79129648  0.80283329  0.20731274  1
  Rh  Rh229  1  0.59677652  0.80510551  0.59357719  1
  Rh  Rh230  1  0.40298175  0.20619498  -0.00428862  1
  Rh  Rh231  1  0.39767992  0.19808640  0.19749086  1
  Rh  Rh232  1  0.20708957  0.20137784  0.00260576  1
  Rh  Rh233  1  0.80176034  0.20174319  0.41182023  1
  Rh  Rh234  1  0.19486762  0.39761692  0.80555726  1
  Rh  Rh235  1  0.40447229  0.40261542  -0.00845513  1
  Rh  Rh236  1  0.59823304  0.79909589  0.00634960  1
  Rh  Rh237  1  0.79089300  0.01098778  0.60605092  1
  Rh  Rh238  1  0.79767246  0.61119445  0.41133739  1
  Rh  Rh239  1  0.80092851  0.20324841  0.19568646  1
  Rh  Rh240  1  -0.01497751  -0.01454667  0.80894237  1
  Rh  Rh241  1  0.80338699  0.59743972  0.19582320  1
  Rh  Rh242  1  0.60534943  0.00275107  0.58925849  1
  Rh  Rh243  1  0.21427192  0.00289727  0.79403179  1
  Rh  Rh244  1  0.60492478  0.19101542  0.59238140  1
  Rh  Rh245  1  0.39665910  -0.00018114  0.00220390  1
  Rh  Rh246  1  0.60054337  0.19910543  0.19267680  1
  Rh  Rh247  1  0.79331808  0.79216541  -0.00498106  1
  Rh  Rh248  1  -0.00268629  0.60635410  0.80254525  1
  Rh  Rh249  1  0.59182929  0.59991091  0.00610692  1
