# generated using pymatgen
data_ZrScNbPdRh
_symmetry_space_group_name_H-M   'P 1'
_cell_length_a   16.57069311
_cell_length_b   16.56617715
_cell_length_c   16.56114385
_cell_angle_alpha   90.01018147
_cell_angle_beta   90.03295905
_cell_angle_gamma   89.99413091
_symmetry_Int_Tables_number   1
_chemical_formula_structural   ZrScNbPdRh
_chemical_formula_sum   'Zr50 Sc50 Nb50 Pd50 Rh50'
_cell_volume   4546.24905484
_cell_formula_units_Z   50
loop_
 _symmetry_equiv_pos_site_id
 _symmetry_equiv_pos_as_xyz
  1  'x, y, z'
loop_
 _atom_site_type_symbol
 _atom_site_label
 _atom_site_symmetry_multiplicity
 _atom_site_fract_x
 _atom_site_fract_y
 _atom_site_fract_z
 _atom_site_occupancy
  Zr  Zr0  1  0.69855916  0.90416852  0.30867543  1
  Zr  Zr1  1  0.90658083  0.30214981  0.30082870  1
  Zr  Zr2  1  0.29802515  0.29208809  0.90684574  1
  Zr  Zr3  1  0.71077832  0.70077002  0.69811359  1
  Zr  Zr4  1  0.50315077  0.69721682  0.49881119  1
  Zr  Zr5  1  0.50185912  0.89634268  0.09938666  1
  Zr  Zr6  1  0.10639682  0.29509339  0.29691893  1
  Zr  Zr7  1  0.50116791  0.30493343  0.09758549  1
  Zr  Zr8  1  0.09645556  0.70038724  0.70429138  1
  Zr  Zr9  1  0.10987402  0.49932688  0.10394532  1
  Zr  Zr10  1  0.29878413  0.30462395  0.10908602  1
  Zr  Zr11  1  0.50134234  0.69442372  0.89565266  1
  Zr  Zr12  1  0.50208928  0.89639459  0.30103974  1
  Zr  Zr13  1  0.89560510  0.29305405  0.10536704  1
  Zr  Zr14  1  0.89650677  0.69936772  0.29920519  1
  Zr  Zr15  1  0.50427829  0.10869430  0.50240646  1
  Zr  Zr16  1  0.30413100  0.10618614  0.09062676  1
  Zr  Zr17  1  0.10393691  0.30014118  0.09528010  1
  Zr  Zr18  1  0.49167298  0.69249711  0.11332360  1
  Zr  Zr19  1  0.09688456  0.91237689  0.30055615  1
  Zr  Zr20  1  0.70169697  0.09715754  0.69628617  1
  Zr  Zr21  1  0.70311807  0.29999948  0.09612351  1
  Zr  Zr22  1  0.69879559  0.30046565  0.69290779  1
  Zr  Zr23  1  0.68976457  0.29945213  0.89989555  1
  Zr  Zr24  1  0.49917208  0.10149183  0.29982684  1
  Zr  Zr25  1  0.29946519  0.89330299  0.30398581  1
  Zr  Zr26  1  0.88605559  0.90295047  0.69957576  1
  Zr  Zr27  1  0.29473332  0.89545270  0.89239301  1
  Zr  Zr28  1  0.08818822  0.89334220  0.09855672  1
  Zr  Zr29  1  0.30013113  0.49224730  0.30057556  1
  Zr  Zr30  1  0.70941638  0.89658705  0.09665189  1
  Zr  Zr31  1  0.09986341  0.69888269  0.29928614  1
  Zr  Zr32  1  0.29387648  0.69359394  0.10431135  1
  Zr  Zr33  1  0.89926163  0.50395912  0.08977397  1
  Zr  Zr34  1  0.30604266  0.49881460  0.70050852  1
  Zr  Zr35  1  0.30572593  0.50035916  0.10285413  1
  Zr  Zr36  1  0.50216051  0.49426203  0.89744521  1
  Zr  Zr37  1  0.70644259  0.90383577  0.50282422  1
  Zr  Zr38  1  0.50131361  0.30611706  0.70333448  1
  Zr  Zr39  1  0.09399417  0.09738596  0.11124650  1
  Zr  Zr40  1  0.09855130  0.30123307  0.70285309  1
  Zr  Zr41  1  0.90538160  0.90392435  0.90417823  1
  Zr  Zr42  1  0.29664094  0.49380782  0.50100331  1
  Zr  Zr43  1  0.89405262  0.50983659  0.69841817  1
  Zr  Zr44  1  0.89442699  0.49642878  0.30627650  1
  Zr  Zr45  1  0.70532822  0.10159344  0.50153978  1
  Zr  Zr46  1  0.29785599  0.89706704  0.10033756  1
  Zr  Zr47  1  0.09835019  0.69970127  0.10475060  1
  Zr  Zr48  1  0.29602295  0.90081816  0.69579256  1
  Zr  Zr49  1  0.29675332  0.11379021  0.30366616  1
  Sc  Sc50  1  0.30118956  0.69733808  0.30245517  1
  Sc  Sc51  1  0.10798873  0.90227211  0.70926392  1
  Sc  Sc52  1  0.50558760  0.11701568  0.69637008  1
  Sc  Sc53  1  0.50892743  0.89616477  0.49338147  1
  Sc  Sc54  1  0.50115701  0.10190399  0.09478322  1
  Sc  Sc55  1  0.72444411  0.31149474  0.29633916  1
  Sc  Sc56  1  0.29325910  0.10442705  0.69894795  1
  Sc  Sc57  1  0.08990462  0.09512716  0.88140440  1
  Sc  Sc58  1  0.10870629  0.08929354  0.48969141  1
  Sc  Sc59  1  0.30497490  0.49751402  0.90208356  1
  Sc  Sc60  1  0.11149079  0.90234103  0.49520959  1
  Sc  Sc61  1  0.49931088  0.69161910  0.70199934  1
  Sc  Sc62  1  0.70425754  0.49776177  0.89899029  1
  Sc  Sc63  1  0.70323354  0.50653607  0.50331297  1
  Sc  Sc64  1  0.50246178  0.29927129  0.89774763  1
  Sc  Sc65  1  0.69947009  0.49891164  0.70024501  1
  Sc  Sc66  1  0.49645921  0.69702230  0.30807310  1
  Sc  Sc67  1  0.89973800  0.69691116  0.70463808  1
  Sc  Sc68  1  0.70512736  0.89372038  0.89990713  1
  Sc  Sc69  1  0.48066250  0.29807598  0.30004495  1
  Sc  Sc70  1  0.90108485  0.09482867  0.70862907  1
  Sc  Sc71  1  0.09382649  0.70966457  0.90064835  1
  Sc  Sc72  1  0.88848290  0.69720512  0.50280281  1
  Sc  Sc73  1  0.09417942  0.50813422  0.30913424  1
  Sc  Sc74  1  0.09600808  0.49952320  0.90588481  1
  Sc  Sc75  1  0.30332037  0.69887034  0.49383616  1
  Sc  Sc76  1  0.71364485  0.70210368  0.10150513  1
  Sc  Sc77  1  0.50244018  0.11015931  0.90487112  1
  Sc  Sc78  1  0.10345943  0.69325064  0.49248386  1
  Sc  Sc79  1  0.29980191  0.30703393  0.70200266  1
  Sc  Sc80  1  0.89714580  0.90096555  0.29414295  1
  Sc  Sc81  1  0.88956162  0.30892189  0.49449424  1
  Sc  Sc82  1  0.29529486  0.89537842  0.49952582  1
  Sc  Sc83  1  0.50115522  0.88688094  0.70059439  1
  Sc  Sc84  1  0.10427851  0.30189757  0.89966917  1
  Sc  Sc85  1  0.89340507  0.09161216  0.09741360  1
  Sc  Sc86  1  0.49643099  0.50392550  0.50756389  1
  Sc  Sc87  1  0.70201017  0.09704068  0.09621165  1
  Sc  Sc88  1  0.50919444  0.89106511  0.90121310  1
  Sc  Sc89  1  0.89295069  0.90671711  0.49332449  1
  Sc  Sc90  1  0.69955509  0.70186608  0.89956139  1
  Sc  Sc91  1  0.69935005  0.10190958  0.90585158  1
  Sc  Sc92  1  0.90855405  0.09799098  0.29409149  1
  Sc  Sc93  1  0.49127126  0.30373341  0.50613214  1
  Sc  Sc94  1  0.09245304  0.49559851  0.69617809  1
  Sc  Sc95  1  0.49521148  0.49831728  0.70048837  1
  Sc  Sc96  1  0.90293220  0.70747101  0.09992952  1
  Sc  Sc97  1  0.88815343  0.30595032  0.91097106  1
  Sc  Sc98  1  0.29623051  0.10251872  0.49925445  1
  Sc  Sc99  1  0.30717334  0.70702336  0.69793166  1
  Nb  Nb100  1  0.89590347  0.09762414  0.89723878  1
  Nb  Nb101  1  0.29940196  0.29981859  0.30789153  1
  Nb  Nb102  1  0.09500944  0.10273808  0.69164651  1
  Nb  Nb103  1  0.69053513  0.09827120  0.30351579  1
  Nb  Nb104  1  0.90100920  0.68690827  0.89937602  1
  Nb  Nb105  1  0.90143810  0.50746230  0.89524859  1
  Nb  Nb106  1  0.69862383  0.50129455  0.29491601  1
  Nb  Nb107  1  0.89685671  0.89419788  0.09877993  1
  Nb  Nb108  1  0.09649514  0.09901818  0.30225712  1
  Nb  Nb109  1  0.30029707  0.69541854  0.89815855  1
  Nb  Nb110  1  0.70248269  0.90229517  0.69944949  1
  Nb  Nb111  1  0.70093020  0.30040434  0.49437451  1
  Nb  Nb112  1  0.89629358  0.30034501  0.70274192  1
  Nb  Nb113  1  0.10075543  0.89999863  0.90075461  1
  Nb  Nb114  1  0.50401416  0.49715985  0.10903438  1
  Nb  Nb115  1  0.30633113  0.09552905  0.90317266  1
  Nb  Nb116  1  0.90764674  0.10214333  0.49943034  1
  Nb  Nb117  1  0.09412045  0.49746911  0.50345255  1
  Nb  Nb118  1  0.70398503  0.70203117  0.30919070  1
  Nb  Nb119  1  0.09712902  0.31101318  0.50268587  1
  Nb  Nb120  1  0.69978217  0.70556727  0.49564411  1
  Nb  Nb121  1  0.50903538  0.50028732  0.28716954  1
  Nb  Nb122  1  0.68809855  0.49411024  0.11236595  1
  Nb  Nb123  1  0.29203855  0.30158004  0.48663316  1
  Nb  Nb124  1  0.91507982  0.50124136  0.49570434  1
  Nb  Nb125  1  0.39463618  0.79041015  -0.00114202  1
  Nb  Nb126  1  0.60702875  0.79795929  0.20657825  1
  Nb  Nb127  1  0.00620957  0.20057171  0.40611580  1
  Nb  Nb128  1  0.00270968  0.00147304  0.59949003  1
  Nb  Nb129  1  0.19869197  0.59399075  0.60198789  1
  Nb  Nb130  1  0.20092248  0.60280054  0.79790485  1
  Nb  Nb131  1  0.40135306  0.00256227  0.39988997  1
  Nb  Nb132  1  0.80056521  0.20279648  0.80082621  1
  Nb  Nb133  1  0.60784550  0.21098974  0.39535914  1
  Nb  Nb134  1  0.60409671  0.40060903  0.39488955  1
  Nb  Nb135  1  0.19410900  -0.00253662  -0.00678611  1
  Nb  Nb136  1  0.40135772  0.00026591  0.60164918  1
  Nb  Nb137  1  -0.00153168  0.80103814  0.40216583  1
  Nb  Nb138  1  0.60563198  0.20145470  0.20808543  1
  Nb  Nb139  1  0.00016326  0.40076293  0.19728404  1
  Nb  Nb140  1  0.00014671  0.20023389  0.59619564  1
  Nb  Nb141  1  0.61168930  0.79631464  0.59946716  1
  Nb  Nb142  1  0.18886893  0.20912274  0.59345128  1
  Nb  Nb143  1  -0.00429636  0.19530452  -0.00289700  1
  Nb  Nb144  1  0.59937172  -0.00111046  0.79464272  1
  Nb  Nb145  1  -0.01287901  0.40145580  0.80156190  1
  Nb  Nb146  1  0.39767604  0.00060024  0.20262531  1
  Nb  Nb147  1  -0.00119860  0.80707153  0.59603003  1
  Nb  Nb148  1  0.59836653  0.59154445  0.01228316  1
  Nb  Nb149  1  0.40442056  0.00239796  0.79756080  1
  Pd  Pd150  1  0.59510615  0.78281644  0.01201205  1
  Pd  Pd151  1  0.80978122  0.19655698  0.60441413  1
  Pd  Pd152  1  0.60722154  0.59535662  0.80159208  1
  Pd  Pd153  1  0.19415837  0.41022565  0.80507564  1
  Pd  Pd154  1  0.18508362  0.18341445  -0.01112668  1
  Pd  Pd155  1  0.18903971  0.40591812  0.39574907  1
  Pd  Pd156  1  0.80015691  0.59782755  0.19769461  1
  Pd  Pd157  1  0.80565509  0.79619733  0.80792635  1
  Pd  Pd158  1  0.60276096  -0.00198885  -0.00854541  1
  Pd  Pd159  1  0.20211838  0.19574794  0.79871912  1
  Pd  Pd160  1  0.20201990  0.19769967  0.19783097  1
  Pd  Pd161  1  0.39981547  -0.01063492  -0.00579889  1
  Pd  Pd162  1  0.19600277  0.80069677  0.20625035  1
  Pd  Pd163  1  0.60362433  0.60518285  0.60465176  1
  Pd  Pd164  1  0.40305134  0.59074501  0.39659913  1
  Pd  Pd165  1  0.60032666  0.59110624  0.39851169  1
  Pd  Pd166  1  0.39759089  0.19599062  0.79943356  1
  Pd  Pd167  1  0.79895449  0.59589640  0.40449308  1
  Pd  Pd168  1  0.19213237  0.78991033  0.59616025  1
  Pd  Pd169  1  0.80394792  0.40782829  0.59428018  1
  Pd  Pd170  1  -0.00138030  0.39328384  -0.00134906  1
  Pd  Pd171  1  -0.01083171  0.20976458  0.80513391  1
  Pd  Pd172  1  0.00278787  0.00682547  0.00008133  1
  Pd  Pd173  1  -0.00505901  0.59265974  0.19875192  1
  Pd  Pd174  1  0.40305313  0.80282515  0.80434010  1
  Pd  Pd175  1  0.79514609  0.18764410  0.20683902  1
  Pd  Pd176  1  0.59779014  0.00028883  0.19235417  1
  Pd  Pd177  1  0.39950007  0.39723105  -0.00159668  1
  Pd  Pd178  1  0.00736075  0.60603825  0.00013973  1
  Pd  Pd179  1  0.80703921  0.01062442  0.39346178  1
  Pd  Pd180  1  0.40736852  0.59936203  -0.00062875  1
  Pd  Pd181  1  0.00185861  0.61073087  0.59423432  1
  Pd  Pd182  1  0.20063246  0.79993392  -0.00303899  1
  Pd  Pd183  1  0.79948037  0.00222696  0.20267899  1
  Pd  Pd184  1  0.19474178  0.59970759  -0.00946101  1
  Pd  Pd185  1  0.80500597  0.19362462  0.39234818  1
  Pd  Pd186  1  0.59024576  -0.00935565  0.60500542  1
  Pd  Pd187  1  0.80075422  0.39741790  0.80043946  1
  Pd  Pd188  1  -0.01273966  0.39582388  0.60523113  1
  Pd  Pd189  1  -0.00729567  0.80681727  0.79445143  1
  Pd  Pd190  1  0.20728193  0.00385945  0.19657054  1
  Pd  Pd191  1  0.38505425  0.20273028  0.59824195  1
  Pd  Pd192  1  0.40936292  0.80388936  0.59092412  1
  Pd  Pd193  1  0.78996081  0.59839620  -0.00032730  1
  Pd  Pd194  1  0.61021738  0.61402233  0.20196391  1
  Pd  Pd195  1  0.59978349  0.40069891  0.59166753  1
  Pd  Pd196  1  0.20348996  0.00898106  0.80110710  1
  Pd  Pd197  1  0.79357147  0.40771040  0.00268650  1
  Pd  Pd198  1  0.41173572  0.40770964  0.40084039  1
  Pd  Pd199  1  0.59970328  0.38278590  0.21265497  1
  Rh  Rh200  1  0.81266711  0.79477118  -0.00911047  1
  Rh  Rh201  1  0.39153094  0.60151393  0.59984641  1
  Rh  Rh202  1  -0.00039991  -0.00899799  0.79115845  1
  Rh  Rh203  1  0.20842394  0.40447399  -0.00338210  1
  Rh  Rh204  1  0.80093150  0.79951194  0.59660382  1
  Rh  Rh205  1  0.40511007  0.80413877  0.19697145  1
  Rh  Rh206  1  0.19285179  0.79656324  0.39630856  1
  Rh  Rh207  1  0.40259390  0.19793602  0.19135588  1
  Rh  Rh208  1  0.19052075  0.20216800  0.40630494  1
  Rh  Rh209  1  -0.00795816  -0.00573457  0.19577956  1
  Rh  Rh210  1  0.40426345  0.20853916  0.00022944  1
  Rh  Rh211  1  0.00831581  0.59105442  0.80282239  1
  Rh  Rh212  1  -0.00460114  0.60874408  0.40455879  1
  Rh  Rh213  1  0.79372677  0.80364398  0.20701961  1
  Rh  Rh214  1  -0.00221444  -0.00075330  0.40442423  1
  Rh  Rh215  1  0.20197087  0.59432595  0.40645496  1
  Rh  Rh216  1  0.60338945  0.21251706  0.59151378  1
  Rh  Rh217  1  0.79958228  -0.00474670  -0.00314930  1
  Rh  Rh218  1  0.20407951  0.40028817  0.59847358  1
  Rh  Rh219  1  0.78791806  0.00654400  0.80889042  1
  Rh  Rh220  1  0.60939400  0.19470043  0.79773962  1
  Rh  Rh221  1  0.60180108  0.40759642  -0.00095118  1
  Rh  Rh222  1  0.39874402  0.40063560  0.20365205  1
  Rh  Rh223  1  0.80587293  0.80154878  0.39872329  1
  Rh  Rh224  1  0.81026888  0.00817550  0.59742347  1
  Rh  Rh225  1  0.39351627  0.39396997  0.59830042  1
  Rh  Rh226  1  0.79412676  0.41381284  0.40937171  1
  Rh  Rh227  1  0.60736789  0.80266550  0.78833653  1
  Rh  Rh228  1  0.00116466  0.20423706  0.19897125  1
  Rh  Rh229  1  0.40033981  0.39367219  0.80531523  1
  Rh  Rh230  1  0.80957586  0.41155267  0.19045174  1
  Rh  Rh231  1  0.40257737  0.19910668  0.40917596  1
  Rh  Rh232  1  0.79519209  0.60151793  0.80512021  1
  Rh  Rh233  1  -0.00183519  0.80264490  0.20803123  1
  Rh  Rh234  1  0.39926846  0.80370253  0.40519605  1
  Rh  Rh235  1  0.20165822  0.00724418  0.60199529  1
  Rh  Rh236  1  0.59521279  0.00921686  0.41038650  1
  Rh  Rh237  1  -0.00539570  0.79634984  -0.00385729  1
  Rh  Rh238  1  0.21236778  0.00152733  0.39207063  1
  Rh  Rh239  1  0.39512777  0.59255487  0.21035662  1
  Rh  Rh240  1  0.20032640  0.78940644  0.80221723  1
  Rh  Rh241  1  0.80512682  0.19373083  -0.00682000  1
  Rh  Rh242  1  0.80077813  0.59712619  0.59435874  1
  Rh  Rh243  1  0.59987491  0.20147140  0.01104407  1
  Rh  Rh244  1  0.39381014  0.59928476  0.79889805  1
  Rh  Rh245  1  0.20360078  0.59610730  0.20832058  1
  Rh  Rh246  1  0.60108090  0.40265356  0.79613968  1
  Rh  Rh247  1  0.19587245  0.40309387  0.20819545  1
  Rh  Rh248  1  0.60386774  0.79556542  0.40086124  1
  Rh  Rh249  1  0.00562479  0.39548815  0.39382515  1
