# generated using pymatgen
data_ZrScNbPdRh
_symmetry_space_group_name_H-M   'P 1'
_cell_length_a   16.56068194
_cell_length_b   16.55845411
_cell_length_c   16.56095462
_cell_angle_alpha   89.97907084
_cell_angle_beta   90.01786145
_cell_angle_gamma   90.01377960
_symmetry_Int_Tables_number   1
_chemical_formula_structural   ZrScNbPdRh
_chemical_formula_sum   'Zr50 Sc50 Nb50 Pd50 Rh50'
_cell_volume   4541.33259669
_cell_formula_units_Z   50
loop_
 _symmetry_equiv_pos_site_id
 _symmetry_equiv_pos_as_xyz
  1  'x, y, z'
loop_
 _atom_site_type_symbol
 _atom_site_label
 _atom_site_symmetry_multiplicity
 _atom_site_fract_x
 _atom_site_fract_y
 _atom_site_fract_z
 _atom_site_occupancy
  Zr  Zr0  1  0.70527984  0.70562429  0.09358727  1
  Zr  Zr1  1  0.90407450  0.71160698  0.30006776  1
  Zr  Zr2  1  0.29869546  0.09411229  0.08908059  1
  Zr  Zr3  1  0.50808014  0.50274433  0.09933681  1
  Zr  Zr4  1  0.50397206  0.30477592  0.29925212  1
  Zr  Zr5  1  0.49684724  0.89609213  0.09709913  1
  Zr  Zr6  1  0.09731211  0.70493965  0.49525496  1
  Zr  Zr7  1  0.89878591  0.69736031  0.89989574  1
  Zr  Zr8  1  0.70204306  0.29409704  0.31105220  1
  Zr  Zr9  1  0.49726520  0.69167260  0.10183984  1
  Zr  Zr10  1  0.49324550  0.89219377  0.49758703  1
  Zr  Zr11  1  0.30623275  0.28584390  0.90323698  1
  Zr  Zr12  1  0.89465779  0.69306917  0.09818600  1
  Zr  Zr13  1  0.30007342  0.69651270  0.10880454  1
  Zr  Zr14  1  0.89610415  0.90378733  0.89848888  1
  Zr  Zr15  1  0.29989914  0.71340920  0.49812253  1
  Zr  Zr16  1  0.90435116  0.90387489  0.30243102  1
  Zr  Zr17  1  0.09117168  0.90591299  0.89849678  1
  Zr  Zr18  1  0.50184744  0.10126607  0.70356049  1
  Zr  Zr19  1  0.10298368  0.50503649  0.88584737  1
  Zr  Zr20  1  0.09921860  0.30180960  0.70552203  1
  Zr  Zr21  1  0.49548470  0.30191373  0.08735373  1
  Zr  Zr22  1  0.09103788  0.29924937  0.09802090  1
  Zr  Zr23  1  0.70029993  0.09875463  0.70069481  1
  Zr  Zr24  1  0.29942655  0.89016718  0.30559335  1
  Zr  Zr25  1  0.09379312  0.30805459  0.28899842  1
  Zr  Zr26  1  0.89646867  0.29566674  0.49405139  1
  Zr  Zr27  1  0.29910493  0.90138638  0.50405300  1
  Zr  Zr28  1  0.70260293  0.70827363  0.90032287  1
  Zr  Zr29  1  0.29128846  0.30094465  0.29988513  1
  Zr  Zr30  1  0.29505807  0.29497915  0.50454445  1
  Zr  Zr31  1  0.69984614  0.49512882  0.30176616  1
  Zr  Zr32  1  0.70087881  0.10562090  0.49593909  1
  Zr  Zr33  1  0.09115150  0.10700653  0.89615316  1
  Zr  Zr34  1  0.09756864  0.69604031  0.90034758  1
  Zr  Zr35  1  0.30077572  0.49005009  0.50282675  1
  Zr  Zr36  1  0.09878041  0.90391657  0.69648747  1
  Zr  Zr37  1  0.10799991  0.69645956  0.30154591  1
  Zr  Zr38  1  0.69775045  0.89808075  0.49846705  1
  Zr  Zr39  1  0.29207691  0.09821041  0.29530644  1
  Zr  Zr40  1  0.48894268  0.10045196  0.89461997  1
  Zr  Zr41  1  0.29917922  0.89861595  0.70049656  1
  Zr  Zr42  1  0.69976002  0.49513879  0.69907075  1
  Zr  Zr43  1  0.30216794  0.29460320  0.69196028  1
  Zr  Zr44  1  0.50677835  0.09776533  0.10634042  1
  Zr  Zr45  1  0.29728889  0.30005240  0.09626231  1
  Zr  Zr46  1  0.50250280  0.50433354  0.29510884  1
  Zr  Zr47  1  0.28906914  0.68752972  0.91331363  1
  Zr  Zr48  1  0.10405167  0.69789066  0.10040503  1
  Zr  Zr49  1  0.89986866  0.70036278  0.69317264  1
  Sc  Sc50  1  0.90766888  0.10119941  0.09803563  1
  Sc  Sc51  1  0.90230464  0.10395958  0.70726171  1
  Sc  Sc52  1  0.09642088  0.49574576  0.10023931  1
  Sc  Sc53  1  0.50387533  0.69928739  0.29762829  1
  Sc  Sc54  1  0.91063376  0.10924457  0.50349239  1
  Sc  Sc55  1  0.09916489  0.10310570  0.51130520  1
  Sc  Sc56  1  0.90334048  0.49089422  0.69918596  1
  Sc  Sc57  1  0.10008641  0.70712886  0.70870269  1
  Sc  Sc58  1  0.51083137  0.49150678  0.70677949  1
  Sc  Sc59  1  0.09748351  0.29796696  0.50882885  1
  Sc  Sc60  1  0.70106754  0.70494152  0.70047280  1
  Sc  Sc61  1  0.50613032  0.49243331  0.49645210  1
  Sc  Sc62  1  0.90431117  0.89989456  0.69683780  1
  Sc  Sc63  1  0.29045203  0.48840552  0.70038436  1
  Sc  Sc64  1  0.49878860  0.90689032  0.70308914  1
  Sc  Sc65  1  0.09869991  0.09339784  0.09844006  1
  Sc  Sc66  1  0.30315043  0.10526933  0.69354202  1
  Sc  Sc67  1  0.71247652  0.10595539  0.88700508  1
  Sc  Sc68  1  0.50066098  0.08729263  0.50273328  1
  Sc  Sc69  1  0.70348876  0.89709870  0.29326901  1
  Sc  Sc70  1  0.09266489  0.90330652  0.50695360  1
  Sc  Sc71  1  0.70140274  0.49720490  0.49635168  1
  Sc  Sc72  1  0.09293839  0.10044661  0.29153244  1
  Sc  Sc73  1  0.69496225  0.09826851  0.29377139  1
  Sc  Sc74  1  0.69681058  0.49814959  0.90069083  1
  Sc  Sc75  1  0.50490051  0.49866863  0.91069581  1
  Sc  Sc76  1  0.49887112  0.71093218  0.71185947  1
  Sc  Sc77  1  0.89651254  0.71255570  0.49841416  1
  Sc  Sc78  1  0.50614255  0.89477660  0.30392382  1
  Sc  Sc79  1  0.90243756  0.89739793  0.11195641  1
  Sc  Sc80  1  0.09514044  0.89950878  0.29714217  1
  Sc  Sc81  1  0.69907367  0.30554051  0.50191943  1
  Sc  Sc82  1  0.28631541  0.50262862  0.29620190  1
  Sc  Sc83  1  0.29573108  0.71071955  0.70046358  1
  Sc  Sc84  1  0.90080462  0.29516613  0.90487623  1
  Sc  Sc85  1  0.70987049  0.70014788  0.49627579  1
  Sc  Sc86  1  0.49735896  0.89849279  0.89433486  1
  Sc  Sc87  1  0.49305314  0.30670712  0.50728965  1
  Sc  Sc88  1  0.90406777  0.50239074  0.90542380  1
  Sc  Sc89  1  0.09947786  0.90468800  0.10474519  1
  Sc  Sc90  1  0.70835306  0.30832268  0.09248808  1
  Sc  Sc91  1  0.70239127  0.30401953  0.70675004  1
  Sc  Sc92  1  0.89702521  0.49472664  0.49648944  1
  Sc  Sc93  1  0.50764075  0.69895768  0.90255026  1
  Sc  Sc94  1  0.70631618  0.30053216  0.89463854  1
  Sc  Sc95  1  0.69820940  0.90306272  0.70806183  1
  Sc  Sc96  1  0.30694447  0.90469435  0.91007820  1
  Sc  Sc97  1  0.50990504  0.09879108  0.30072587  1
  Sc  Sc98  1  0.09449265  0.49442224  0.49128538  1
  Sc  Sc99  1  0.70374112  0.70421110  0.30476000  1
  Nb  Nb100  1  0.90139298  0.09525175  0.89730841  1
  Nb  Nb101  1  0.70590279  0.89910513  0.90642834  1
  Nb  Nb102  1  0.88677227  0.49450570  0.10299093  1
  Nb  Nb103  1  0.29645099  0.69583235  0.30307836  1
  Nb  Nb104  1  0.49608094  0.70062140  0.50351051  1
  Nb  Nb105  1  0.30178662  0.49796701  0.90202217  1
  Nb  Nb106  1  0.30239678  0.90226132  0.10368606  1
  Nb  Nb107  1  0.70187798  0.90507754  0.09852256  1
  Nb  Nb108  1  0.09140013  0.50402552  0.29685432  1
  Nb  Nb109  1  0.70968519  0.50548742  0.09767106  1
  Nb  Nb110  1  0.90250469  0.48974711  0.29768727  1
  Nb  Nb111  1  0.09641630  0.49828009  0.69406516  1
  Nb  Nb112  1  0.09640372  0.10423644  0.70425445  1
  Nb  Nb113  1  0.90026046  0.30899268  0.10261523  1
  Nb  Nb114  1  0.90163019  0.29494515  0.29418862  1
  Nb  Nb115  1  0.69901359  0.09743442  0.10248921  1
  Nb  Nb116  1  0.50239500  0.29425333  0.70695777  1
  Nb  Nb117  1  0.90047800  0.10641113  0.30204996  1
  Nb  Nb118  1  0.50136511  0.29303723  0.89555953  1
  Nb  Nb119  1  0.29676200  0.09779954  0.89651905  1
  Nb  Nb120  1  0.89976431  0.90242660  0.50292385  1
  Nb  Nb121  1  0.10386636  0.30078560  0.89935635  1
  Nb  Nb122  1  0.90374760  0.29995329  0.69456325  1
  Nb  Nb123  1  0.29990349  0.10492461  0.49781461  1
  Nb  Nb124  1  0.31018796  0.50626239  0.08902457  1
  Nb  Nb125  1  -0.00143201  0.79680542  -0.00011818  1
  Nb  Nb126  1  0.39782096  0.40177313  0.19372730  1
  Nb  Nb127  1  0.20143291  0.40014046  -0.00869909  1
  Nb  Nb128  1  0.59693845  0.79830775  0.59652985  1
  Nb  Nb129  1  0.79674759  0.00208512  0.00193227  1
  Nb  Nb130  1  0.39522798  0.59166701  0.80059551  1
  Nb  Nb131  1  0.39853806  0.20080912  0.20172622  1
  Nb  Nb132  1  0.59749855  0.20044360  0.60677870  1
  Nb  Nb133  1  0.39670768  -0.00258179  0.19848199  1
  Nb  Nb134  1  0.19857808  0.00800874  0.80044862  1
  Nb  Nb135  1  0.80180458  0.00085142  0.59349729  1
  Nb  Nb136  1  0.80771023  0.00368714  0.40193930  1
  Nb  Nb137  1  0.19676130  0.59849303  0.59845796  1
  Nb  Nb138  1  0.40202849  0.39495648  0.80709886  1
  Nb  Nb139  1  0.00489993  0.59821188  0.60003680  1
  Nb  Nb140  1  0.60900251  0.00262453  -0.00154777  1
  Nb  Nb141  1  0.59454723  0.60693010  0.59923518  1
  Nb  Nb142  1  0.20239260  0.00349959  0.40466099  1
  Nb  Nb143  1  0.80558779  0.20270287  0.19774330  1
  Nb  Nb144  1  0.39446736  0.19832269  0.39792944  1
  Nb  Nb145  1  -0.00631877  0.59268545  0.20517767  1
  Nb  Nb146  1  0.40096864  0.60084117  0.60275313  1
  Nb  Nb147  1  0.60357898  0.19361422  -0.00406756  1
  Nb  Nb148  1  0.39612182  0.60305794  0.40406310  1
  Nb  Nb149  1  0.80060453  0.60030995  0.79825504  1
  Pd  Pd150  1  0.59657342  0.80539962  -0.00167151  1
  Pd  Pd151  1  0.60426569  0.79812510  0.19765004  1
  Pd  Pd152  1  0.20528207  0.59462432  0.40892710  1
  Pd  Pd153  1  0.19134113  0.19983330  0.00111849  1
  Pd  Pd154  1  0.80178840  0.79975374  0.79244050  1
  Pd  Pd155  1  0.80711745  0.00885475  0.20150231  1
  Pd  Pd156  1  -0.01163427  0.60073810  0.40137252  1
  Pd  Pd157  1  0.59660366  0.60453203  0.40724081  1
  Pd  Pd158  1  0.01192533  0.20327524  0.39813701  1
  Pd  Pd159  1  0.39790687  0.79116238  -0.00393404  1
  Pd  Pd160  1  0.40832041  0.40749856  0.61295217  1
  Pd  Pd161  1  0.20507752  0.81062536  0.81324354  1
  Pd  Pd162  1  0.39160447  0.79118383  0.81217549  1
  Pd  Pd163  1  0.20820103  0.39164726  0.80459030  1
  Pd  Pd164  1  0.40228153  0.79999877  0.20599585  1
  Pd  Pd165  1  0.00326420  0.40544302  -0.00538949  1
  Pd  Pd166  1  0.79915675  0.19410869  0.00490352  1
  Pd  Pd167  1  0.19017099  0.39781462  0.40060231  1
  Pd  Pd168  1  0.19729361  0.80505999  0.20015152  1
  Pd  Pd169  1  0.00443779  0.00383775  0.40412843  1
  Pd  Pd170  1  0.80765330  0.59828720  0.39595726  1
  Pd  Pd171  1  0.60355045  -0.00205118  0.81119430  1
  Pd  Pd172  1  0.60837974  0.39366379  -0.00543071  1
  Pd  Pd173  1  0.19981934  0.00826823  0.60251258  1
  Pd  Pd174  1  0.79638068  0.19884551  0.60515521  1
  Pd  Pd175  1  -0.00662504  0.39567498  0.80483094  1
  Pd  Pd176  1  0.19171397  0.19505572  0.40054223  1
  Pd  Pd177  1  0.58513950  0.20454254  0.41503087  1
  Pd  Pd178  1  0.60084023  0.60137073  0.79529999  1
  Pd  Pd179  1  -0.00411229  0.80098191  0.80185510  1
  Pd  Pd180  1  0.61530309  0.60628352  0.19812543  1
  Pd  Pd181  1  0.60743233  0.21357995  0.18978393  1
  Pd  Pd182  1  0.19532117  -0.00411135  -0.00692241  1
  Pd  Pd183  1  0.60771653  -0.00433778  0.39387256  1
  Pd  Pd184  1  -0.00393161  0.19996975  0.00076362  1
  Pd  Pd185  1  0.79329026  0.39252087  0.20597134  1
  Pd  Pd186  1  0.00119947  0.59592801  0.00872667  1
  Pd  Pd187  1  0.80019834  0.59563683  0.60305039  1
  Pd  Pd188  1  0.39622603  0.00640256  0.39126328  1
  Pd  Pd189  1  0.20730389  0.60098618  0.78680751  1
  Pd  Pd190  1  0.19449654  0.81058112  0.00097262  1
  Pd  Pd191  1  -0.00051027  0.39136687  0.40040612  1
  Pd  Pd192  1  0.20358095  0.41017937  0.18780218  1
  Pd  Pd193  1  0.60429742  0.39541187  0.19298738  1
  Pd  Pd194  1  0.19619547  0.19611157  0.19129671  1
  Pd  Pd195  1  0.80150463  0.60213753  0.21212068  1
  Pd  Pd196  1  0.80941558  0.40375370  0.80663251  1
  Pd  Pd197  1  0.80120892  0.39742577  0.59745354  1
  Pd  Pd198  1  0.39979670  0.00215729  0.60393951  1
  Pd  Pd199  1  0.39785861  0.40268243  0.38942679  1
  Rh  Rh200  1  0.40777586  0.60491068  -0.00784383  1
  Rh  Rh201  1  -0.00859940  0.00697653  0.60582774  1
  Rh  Rh202  1  0.39668493  0.40161136  -0.00376317  1
  Rh  Rh203  1  0.59508067  0.39504984  0.80662825  1
  Rh  Rh204  1  0.79707201  0.79947564  0.19832783  1
  Rh  Rh205  1  0.39232743  0.59293593  0.21030080  1
  Rh  Rh206  1  0.59297696  -0.01311808  0.19775731  1
  Rh  Rh207  1  -0.00527320  0.19899240  0.19448449  1
  Rh  Rh208  1  0.60153065  0.39825057  0.40258706  1
  Rh  Rh209  1  -0.00896352  0.59682035  0.78665296  1
  Rh  Rh210  1  0.19809836  0.59370365  0.19422048  1
  Rh  Rh211  1  0.80199216  0.81137068  0.39754925  1
  Rh  Rh212  1  0.40845560  0.80111894  0.61025574  1
  Rh  Rh213  1  0.60622765  0.20078055  0.80050495  1
  Rh  Rh214  1  -0.00529885  0.40629792  0.19570772  1
  Rh  Rh215  1  0.19462562  0.19745711  0.60628662  1
  Rh  Rh216  1  0.81147816  0.81182649  0.00865750  1
  Rh  Rh217  1  0.60800437  -0.00145533  0.59941650  1
  Rh  Rh218  1  0.20357190  -0.00758538  0.20613087  1
  Rh  Rh219  1  0.39375471  0.20090131  0.79442018  1
  Rh  Rh220  1  0.80238961  0.19388403  0.39364059  1
  Rh  Rh221  1  0.19013268  0.81309978  0.40315908  1
  Rh  Rh222  1  0.60159189  0.80769023  0.79935891  1
  Rh  Rh223  1  0.00314606  0.80763843  0.40109912  1
  Rh  Rh224  1  0.38746316  0.00146601  0.79602774  1
  Rh  Rh225  1  -0.01014642  -0.00766298  0.00469487  1
  Rh  Rh226  1  0.00466251  0.78860391  0.19395636  1
  Rh  Rh227  1  0.40799702  0.00255020  0.00403600  1
  Rh  Rh228  1  0.80391524  -0.00038398  0.79845234  1
  Rh  Rh229  1  0.79161930  0.81176410  0.60271506  1
  Rh  Rh230  1  0.00226310  0.00224148  0.79287408  1
  Rh  Rh231  1  0.80312920  0.39801364  0.39699474  1
  Rh  Rh232  1  0.60133686  0.79526269  0.40592054  1
  Rh  Rh233  1  0.00185721  0.79408290  0.59934918  1
  Rh  Rh234  1  0.19160228  0.79603186  0.59754252  1
  Rh  Rh235  1  0.60756306  0.60242456  0.00445749  1
  Rh  Rh236  1  0.19074271  0.40193962  0.59656673  1
  Rh  Rh237  1  0.80261305  0.40389514  -0.00558662  1
  Rh  Rh238  1  0.20139905  0.19554100  0.79590681  1
  Rh  Rh239  1  -0.00198978  0.40114696  0.59592483  1
  Rh  Rh240  1  -0.00287989  0.00467235  0.20026054  1
  Rh  Rh241  1  0.40710829  0.18829049  0.00422525  1
  Rh  Rh242  1  -0.00596815  0.20853673  0.80129923  1
  Rh  Rh243  1  0.81075487  0.20663463  0.79476761  1
  Rh  Rh244  1  0.41221306  0.19475322  0.59043934  1
  Rh  Rh245  1  0.79329891  0.59284654  -0.01143011  1
  Rh  Rh246  1  0.60183535  0.39689184  0.60239196  1
  Rh  Rh247  1  0.19340552  0.58558400  0.00656976  1
  Rh  Rh248  1  0.00056956  0.20299675  0.60857470  1
  Rh  Rh249  1  0.40483366  0.78910315  0.38916639  1
