# generated using pymatgen
data_ZrScNbPdRh
_symmetry_space_group_name_H-M   'P 1'
_cell_length_a   16.56305838
_cell_length_b   16.55811425
_cell_length_c   16.56042923
_cell_angle_alpha   90.02681206
_cell_angle_beta   89.99803652
_cell_angle_gamma   90.01020145
_symmetry_Int_Tables_number   1
_chemical_formula_structural   ZrScNbPdRh
_chemical_formula_sum   'Zr50 Sc50 Nb50 Pd50 Rh50'
_cell_volume   4541.74703999
_cell_formula_units_Z   50
loop_
 _symmetry_equiv_pos_site_id
 _symmetry_equiv_pos_as_xyz
  1  'x, y, z'
loop_
 _atom_site_type_symbol
 _atom_site_label
 _atom_site_symmetry_multiplicity
 _atom_site_fract_x
 _atom_site_fract_y
 _atom_site_fract_z
 _atom_site_occupancy
  Zr  Zr0  1  0.69409920  0.89017783  0.10624858  1
  Zr  Zr1  1  0.49785660  0.89933266  0.90020171  1
  Zr  Zr2  1  0.48891932  0.89185271  0.09743093  1
  Zr  Zr3  1  0.90926366  0.09758868  0.89653018  1
  Zr  Zr4  1  0.10237195  0.89526029  0.70355393  1
  Zr  Zr5  1  0.70142198  0.90036733  0.30217739  1
  Zr  Zr6  1  0.28984419  0.50297254  0.69968869  1
  Zr  Zr7  1  0.69864540  0.10719553  0.10319526  1
  Zr  Zr8  1  0.89930159  0.69211597  0.28858446  1
  Zr  Zr9  1  0.70232971  0.69709805  0.90295774  1
  Zr  Zr10  1  0.09622169  0.30362745  0.30487123  1
  Zr  Zr11  1  0.10237661  0.49451058  0.09029658  1
  Zr  Zr12  1  0.69423210  0.89642347  0.50162647  1
  Zr  Zr13  1  0.29578809  0.69540117  0.49901893  1
  Zr  Zr14  1  0.90457825  0.50458566  0.69804758  1
  Zr  Zr15  1  0.50194510  0.69937392  0.90872974  1
  Zr  Zr16  1  0.30256071  0.10446596  0.49282142  1
  Zr  Zr17  1  0.70831897  0.69532895  0.69915719  1
  Zr  Zr18  1  0.09617724  0.89725250  0.29543620  1
  Zr  Zr19  1  0.09397589  0.29676599  0.49484091  1
  Zr  Zr20  1  0.30084659  0.50193275  0.09951457  1
  Zr  Zr21  1  0.50466523  0.31821947  0.50416611  1
  Zr  Zr22  1  0.70672659  0.30705515  0.90281447  1
  Zr  Zr23  1  0.49442420  0.09761528  0.89843221  1
  Zr  Zr24  1  0.50112270  0.89259925  0.50533465  1
  Zr  Zr25  1  0.09228603  0.09524046  0.09697133  1
  Zr  Zr26  1  0.48538573  0.10292831  0.29830516  1
  Zr  Zr27  1  0.08973343  0.69931245  0.10091249  1
  Zr  Zr28  1  0.49888199  0.30511430  0.29952221  1
  Zr  Zr29  1  0.30948378  0.49971702  0.29898823  1
  Zr  Zr30  1  0.90754401  0.69318905  0.70119303  1
  Zr  Zr31  1  0.70315830  0.29741231  0.69161783  1
  Zr  Zr32  1  0.89949930  0.90075220  0.49315808  1
  Zr  Zr33  1  0.29604327  0.69259642  0.30276879  1
  Zr  Zr34  1  0.09739828  0.10227881  0.70319364  1
  Zr  Zr35  1  0.09946933  0.09826593  0.89796531  1
  Zr  Zr36  1  0.30336372  0.90336608  0.91149010  1
  Zr  Zr37  1  0.10761077  0.31162027  0.70042666  1
  Zr  Zr38  1  0.89998925  0.29702594  0.08718100  1
  Zr  Zr39  1  0.89844895  0.89814946  0.70587655  1
  Zr  Zr40  1  0.89556631  0.09479866  0.10647182  1
  Zr  Zr41  1  0.29859874  0.69690263  0.10242785  1
  Zr  Zr42  1  0.10275930  0.89664477  0.09461578  1
  Zr  Zr43  1  0.08576934  0.30392148  0.90635985  1
  Zr  Zr44  1  0.89866730  0.69359548  0.89758711  1
  Zr  Zr45  1  0.68801752  0.50885179  0.50659980  1
  Zr  Zr46  1  0.70400861  0.10703093  0.29480999  1
  Zr  Zr47  1  0.30830206  0.89887066  0.29675469  1
  Zr  Zr48  1  0.28825960  0.69324474  0.69844503  1
  Zr  Zr49  1  0.50643108  0.90666429  0.69814444  1
  Sc  Sc50  1  0.50713521  0.29926248  0.70118485  1
  Sc  Sc51  1  0.29414490  0.10815930  0.71126183  1
  Sc  Sc52  1  0.49634957  0.70682551  0.69835381  1
  Sc  Sc53  1  0.50742310  0.49422978  0.68777993  1
  Sc  Sc54  1  0.09389631  0.88972375  0.49303976  1
  Sc  Sc55  1  0.29326331  0.30627217  0.49774891  1
  Sc  Sc56  1  0.69194644  0.09887149  0.69568100  1
  Sc  Sc57  1  0.09803558  0.49649288  0.89637717  1
  Sc  Sc58  1  0.89696172  0.29992534  0.49953681  1
  Sc  Sc59  1  0.69530565  0.70656468  0.29588211  1
  Sc  Sc60  1  0.50241872  0.10356901  0.70706330  1
  Sc  Sc61  1  0.91240793  0.90198896  0.10513169  1
  Sc  Sc62  1  0.51418976  0.30114155  0.89787519  1
  Sc  Sc63  1  0.89741425  0.49464756  0.30104657  1
  Sc  Sc64  1  0.69581402  0.89933629  0.70156527  1
  Sc  Sc65  1  0.70754166  0.30196083  0.29748437  1
  Sc  Sc66  1  0.89432301  0.29966310  0.31149292  1
  Sc  Sc67  1  0.89863819  0.49342999  0.89604323  1
  Sc  Sc68  1  0.30110798  0.29689402  0.29923112  1
  Sc  Sc69  1  0.89262164  0.51181609  0.10327187  1
  Sc  Sc70  1  0.10339787  0.90322895  0.90423147  1
  Sc  Sc71  1  0.69957846  0.29686534  0.09544334  1
  Sc  Sc72  1  0.29934613  0.09724565  0.89641910  1
  Sc  Sc73  1  0.69552279  0.69285481  0.10509323  1
  Sc  Sc74  1  0.29860216  0.51086360  0.90167843  1
  Sc  Sc75  1  0.30659863  0.89259911  0.49439657  1
  Sc  Sc76  1  0.28807677  0.29845520  0.89831262  1
  Sc  Sc77  1  0.89394181  0.10022573  0.30440049  1
  Sc  Sc78  1  0.10570787  0.49781343  0.30533767  1
  Sc  Sc79  1  0.70983766  0.49777612  0.70130310  1
  Sc  Sc80  1  0.29310246  0.30187021  0.10434359  1
  Sc  Sc81  1  0.70694144  0.50557696  0.29822859  1
  Sc  Sc82  1  0.30431396  0.69682104  0.89362689  1
  Sc  Sc83  1  0.90036857  0.30938056  0.69504720  1
  Sc  Sc84  1  0.29740363  0.49851003  0.49085526  1
  Sc  Sc85  1  0.51007647  0.29716933  0.09896457  1
  Sc  Sc86  1  0.10606406  0.29923710  0.09098973  1
  Sc  Sc87  1  0.29586028  0.89121820  0.70745662  1
  Sc  Sc88  1  0.50168963  0.10063661  0.50572944  1
  Sc  Sc89  1  0.09519275  0.10561866  0.30375761  1
  Sc  Sc90  1  0.49897188  0.10835046  0.10345061  1
  Sc  Sc91  1  0.90592197  0.89742735  0.89544094  1
  Sc  Sc92  1  0.70313278  0.10699955  0.50850179  1
  Sc  Sc93  1  0.89581676  0.90714249  0.29769127  1
  Sc  Sc94  1  0.50436431  0.50399926  0.90618398  1
  Sc  Sc95  1  0.69626434  0.89186677  0.89190564  1
  Sc  Sc96  1  0.69559362  0.10187195  0.89832856  1
  Sc  Sc97  1  0.70435912  0.49757184  0.90467389  1
  Sc  Sc98  1  0.30763591  0.10289146  0.10533852  1
  Sc  Sc99  1  0.49352056  0.89172183  0.30001929  1
  Nb  Nb100  1  0.09906587  0.69626483  0.49864430  1
  Nb  Nb101  1  0.09239612  0.69855423  0.90024805  1
  Nb  Nb102  1  0.69215509  0.50295911  0.09946600  1
  Nb  Nb103  1  0.49969005  0.50309178  0.30493320  1
  Nb  Nb104  1  0.50069466  0.50736575  0.49025535  1
  Nb  Nb105  1  0.90505217  0.10562207  0.50437975  1
  Nb  Nb106  1  0.10297227  0.69026320  0.69677322  1
  Nb  Nb107  1  0.50132703  0.50832657  0.10316090  1
  Nb  Nb108  1  0.70010162  0.29486161  0.50099500  1
  Nb  Nb109  1  0.10038063  0.50999675  0.69818938  1
  Nb  Nb110  1  0.30541913  0.09411917  0.30011254  1
  Nb  Nb111  1  0.29929846  0.89940872  0.10312812  1
  Nb  Nb112  1  0.90370339  0.69823783  0.50543650  1
  Nb  Nb113  1  0.89842266  0.69929604  0.09317085  1
  Nb  Nb114  1  0.09659243  0.49604369  0.49759949  1
  Nb  Nb115  1  0.50036278  0.68243729  0.29958440  1
  Nb  Nb116  1  0.50808767  0.69187281  0.10353942  1
  Nb  Nb117  1  0.89908726  0.09679113  0.70091477  1
  Nb  Nb118  1  0.10147717  0.69871065  0.30722656  1
  Nb  Nb119  1  0.69738746  0.70087823  0.50216641  1
  Nb  Nb120  1  0.51267193  0.69014976  0.49917876  1
  Nb  Nb121  1  0.90018616  0.30160150  0.89633157  1
  Nb  Nb122  1  0.09999712  0.10241297  0.50219762  1
  Nb  Nb123  1  0.30493207  0.30436573  0.70169812  1
  Nb  Nb124  1  0.90274330  0.50744241  0.50155636  1
  Nb  Nb125  1  0.39582667  0.20467418  0.60424081  1
  Nb  Nb126  1  -0.00191089  0.20698531  0.19857361  1
  Nb  Nb127  1  0.80332454  0.79711456  0.59452172  1
  Nb  Nb128  1  0.20240198  0.00220724  0.39835869  1
  Nb  Nb129  1  0.40200521  0.39892601  -0.00164973  1
  Nb  Nb130  1  0.60153272  0.60123205  0.79963661  1
  Nb  Nb131  1  0.60038641  0.20308241  0.40133578  1
  Nb  Nb132  1  0.40341480  0.59835316  0.59216594  1
  Nb  Nb133  1  0.39797360  0.39933201  0.80080219  1
  Nb  Nb134  1  0.59766501  0.41032525  0.19927397  1
  Nb  Nb135  1  0.19756156  0.00295688  0.59258944  1
  Nb  Nb136  1  0.80901561  -0.00070912  0.60002531  1
  Nb  Nb137  1  0.80658475  0.20174965  0.79793672  1
  Nb  Nb138  1  0.00057212  0.00511827  0.59789074  1
  Nb  Nb139  1  0.80413935  0.79859767  0.00320111  1
  Nb  Nb140  1  0.59791718  0.00502394  0.39570263  1
  Nb  Nb141  1  0.59665290  -0.00126077  0.20228061  1
  Nb  Nb142  1  0.79498579  -0.00730312  0.00149266  1
  Nb  Nb143  1  0.00014581  0.60288200  0.40547255  1
  Nb  Nb144  1  0.20545901  -0.00208468  0.20390723  1
  Nb  Nb145  1  0.40100833  0.20789532  -0.00562294  1
  Nb  Nb146  1  0.59991666  -0.00362079  0.00566428  1
  Nb  Nb147  1  0.80403270  0.60686169  0.41103156  1
  Nb  Nb148  1  0.39213744  0.00453130  0.60235760  1
  Nb  Nb149  1  -0.00109190  0.39518857  0.19667411  1
  Pd  Pd150  1  0.00610788  0.79712802  0.80292675  1
  Pd  Pd151  1  0.61146557  0.39988191  0.39207095  1
  Pd  Pd152  1  0.40397434  0.78477928  0.20175576  1
  Pd  Pd153  1  0.79970856  0.39630785  0.19128906  1
  Pd  Pd154  1  0.19791319  0.40460693  0.59331711  1
  Pd  Pd155  1  -0.00336284  0.79815589  0.20233213  1
  Pd  Pd156  1  -0.00009602  0.80224709  0.60220727  1
  Pd  Pd157  1  0.19624947  0.60683115  -0.00572667  1
  Pd  Pd158  1  0.20098929  0.79064574  -0.00508858  1
  Pd  Pd159  1  0.00720258  0.58797998  0.20638629  1
  Pd  Pd160  1  0.19342717  0.20600122  0.80362876  1
  Pd  Pd161  1  0.00149336  0.40117554  0.59782430  1
  Pd  Pd162  1  0.59247877  0.79817544  0.39394448  1
  Pd  Pd163  1  0.20646744  0.19341648  0.00021286  1
  Pd  Pd164  1  0.79117290  0.00608682  0.80106683  1
  Pd  Pd165  1  0.19878641  0.80049370  0.20072481  1
  Pd  Pd166  1  0.41184498  0.58937413  0.78733995  1
  Pd  Pd167  1  0.20102088  0.19770632  0.39286430  1
  Pd  Pd168  1  0.20604284  0.19972268  0.60241409  1
  Pd  Pd169  1  0.19072628  0.59609071  0.20124624  1
  Pd  Pd170  1  0.19518830  0.40199018  0.20302373  1
  Pd  Pd171  1  -0.00235918  0.20343649  0.60643820  1
  Pd  Pd172  1  -0.00382035  0.21126841  0.79104980  1
  Pd  Pd173  1  0.80504796  0.79095078  0.40115172  1
  Pd  Pd174  1  -0.00336502  0.59121208  -0.00536934  1
  Pd  Pd175  1  0.40712827  0.21291223  0.41078782  1
  Pd  Pd176  1  0.59961096  0.40944848  0.79781687  1
  Pd  Pd177  1  -0.00921250  0.79220446  0.39033515  1
  Pd  Pd178  1  0.39308443  -0.00271222  0.79063955  1
  Pd  Pd179  1  0.00523114  0.00586868  0.40037533  1
  Pd  Pd180  1  0.79430987  0.40994420  0.41078586  1
  Pd  Pd181  1  0.40826646  0.78517319  0.39856317  1
  Pd  Pd182  1  0.19758302  0.80550080  0.59329088  1
  Pd  Pd183  1  0.20797906  0.00815782  0.00862200  1
  Pd  Pd184  1  0.39456646  0.78833184  0.00230400  1
  Pd  Pd185  1  0.80233413  0.18985521  -0.01084365  1
  Pd  Pd186  1  0.79818905  0.40461377  0.59071818  1
  Pd  Pd187  1  0.60941247  0.20135895  0.80088019  1
  Pd  Pd188  1  0.39627244  0.79599919  0.60221061  1
  Pd  Pd189  1  0.79165613  0.00971700  0.40917292  1
  Pd  Pd190  1  0.20243645  0.40551874  0.80779338  1
  Pd  Pd191  1  0.20085762  0.80498743  0.39928133  1
  Pd  Pd192  1  0.39644689  0.40518434  0.60244989  1
  Pd  Pd193  1  0.19546237  0.19193371  0.20385013  1
  Pd  Pd194  1  0.40020044  0.80074140  0.79944337  1
  Pd  Pd195  1  0.80330050  0.40884571  0.00668195  1
  Pd  Pd196  1  0.80780035  0.80017676  0.19326672  1
  Pd  Pd197  1  0.19560486  0.79366542  0.81208394  1
  Pd  Pd198  1  0.59790055  0.79276979  0.79607101  1
  Pd  Pd199  1  0.40720475  0.39652912  0.19065054  1
  Rh  Rh200  1  0.19192674  0.59661440  0.40265211  1
  Rh  Rh201  1  0.60366583  0.59742942  -0.00505437  1
  Rh  Rh202  1  0.20227633  0.39881724  0.39748101  1
  Rh  Rh203  1  0.80276844  0.39420176  0.79750906  1
  Rh  Rh204  1  0.59307036  0.19140056  -0.00643515  1
  Rh  Rh205  1  0.60150988  0.00014005  0.80861611  1
  Rh  Rh206  1  -0.00498944  0.79956576  -0.00309429  1
  Rh  Rh207  1  0.40355208  -0.00402108  0.41038888  1
  Rh  Rh208  1  0.60423591  0.79963116  0.00368814  1
  Rh  Rh209  1  0.60881588  0.40123977  0.60129499  1
  Rh  Rh210  1  0.59851119  0.00196556  0.59499381  1
  Rh  Rh211  1  0.58766870  0.79814237  0.20281008  1
  Rh  Rh212  1  0.79700341  0.60255252  0.00382617  1
  Rh  Rh213  1  0.79537206  0.19768073  0.40786609  1
  Rh  Rh214  1  0.81063845  0.21052983  0.19998029  1
  Rh  Rh215  1  0.19817167  0.59309751  0.58957034  1
  Rh  Rh216  1  -0.00815008  0.40706701  0.00481820  1
  Rh  Rh217  1  0.79475806  0.60250142  0.20019384  1
  Rh  Rh218  1  0.80604690  0.19517966  0.60602938  1
  Rh  Rh219  1  0.61111431  0.60136777  0.39055779  1
  Rh  Rh220  1  -0.00240328  0.19536874  0.00224020  1
  Rh  Rh221  1  0.00546066  0.59565864  0.80374510  1
  Rh  Rh222  1  -0.00664050  -0.00534452  -0.00391783  1
  Rh  Rh223  1  0.60318917  0.59393491  0.20738177  1
  Rh  Rh224  1  0.80424926  0.79486617  0.79928560  1
  Rh  Rh225  1  0.20910310  0.40436746  -0.00548601  1
  Rh  Rh226  1  0.40109573  0.59949090  0.00675375  1
  Rh  Rh227  1  0.59532027  0.40616181  0.01060070  1
  Rh  Rh228  1  -0.00335849  0.40681078  0.39731325  1
  Rh  Rh229  1  0.40084873  -0.00221709  0.19240815  1
  Rh  Rh230  1  0.40071002  0.21361253  0.80181015  1
  Rh  Rh231  1  0.40058433  0.60361222  0.40557495  1
  Rh  Rh232  1  0.20062360  -0.00446242  0.79682859  1
  Rh  Rh233  1  0.18941571  0.60443024  0.80805824  1
  Rh  Rh234  1  0.60717866  0.79417034  0.60659529  1
  Rh  Rh235  1  0.59409809  0.60444189  0.61109463  1
  Rh  Rh236  1  0.79722683  0.59251406  0.80321584  1
  Rh  Rh237  1  0.39636505  0.40035833  0.39974188  1
  Rh  Rh238  1  0.01161734  0.59817220  0.59451129  1
  Rh  Rh239  1  0.00677549  0.00824066  0.20833130  1
  Rh  Rh240  1  0.39651123  0.20941933  0.19229644  1
  Rh  Rh241  1  0.80085277  0.60338736  0.59570384  1
  Rh  Rh242  1  0.00806706  -0.00469325  0.79657240  1
  Rh  Rh243  1  0.58954890  0.20508063  0.59275160  1
  Rh  Rh244  1  0.59874087  0.20660619  0.21261989  1
  Rh  Rh245  1  0.00083471  0.40260064  0.79353194  1
  Rh  Rh246  1  0.79297380  -0.00502495  0.19417897  1
  Rh  Rh247  1  0.40069525  0.60263003  0.19766425  1
  Rh  Rh248  1  -0.00546277  0.19822009  0.39694180  1
  Rh  Rh249  1  0.40318578  0.00976103  0.00728207  1
