# generated using pymatgen
data_ZrScNbPdRh
_symmetry_space_group_name_H-M   'P 1'
_cell_length_a   16.55597794
_cell_length_b   16.55494988
_cell_length_c   16.55375394
_cell_angle_alpha   89.99254600
_cell_angle_beta   89.97332278
_cell_angle_gamma   90.00032585
_symmetry_Int_Tables_number   1
_chemical_formula_structural   ZrScNbPdRh
_chemical_formula_sum   'Zr50 Sc50 Nb50 Pd50 Rh50'
_cell_volume   4537.10838221
_cell_formula_units_Z   50
loop_
 _symmetry_equiv_pos_site_id
 _symmetry_equiv_pos_as_xyz
  1  'x, y, z'
loop_
 _atom_site_type_symbol
 _atom_site_label
 _atom_site_symmetry_multiplicity
 _atom_site_fract_x
 _atom_site_fract_y
 _atom_site_fract_z
 _atom_site_occupancy
  Zr  Zr0  1  0.90999432  0.89789242  0.49853627  1
  Zr  Zr1  1  0.90370487  0.29987051  0.49081526  1
  Zr  Zr2  1  0.29540710  0.50059400  0.09165185  1
  Zr  Zr3  1  0.68848548  0.89660794  0.30511584  1
  Zr  Zr4  1  0.30059600  0.69388772  0.90171496  1
  Zr  Zr5  1  0.69834818  0.90549845  0.10505847  1
  Zr  Zr6  1  0.90365247  0.10294113  0.10063478  1
  Zr  Zr7  1  0.10213254  0.49322864  0.70193744  1
  Zr  Zr8  1  0.89608480  0.31187152  0.89528783  1
  Zr  Zr9  1  0.49969026  0.50429844  0.09697493  1
  Zr  Zr10  1  0.70677054  0.29695687  0.70581616  1
  Zr  Zr11  1  0.50020545  0.89569632  0.69763298  1
  Zr  Zr12  1  0.49865203  0.30042141  0.89922627  1
  Zr  Zr13  1  0.10626130  0.30411429  0.50001867  1
  Zr  Zr14  1  0.69603147  0.29546501  0.89296784  1
  Zr  Zr15  1  0.09507787  0.10182508  0.09812185  1
  Zr  Zr16  1  0.29991084  0.30300286  0.10045578  1
  Zr  Zr17  1  0.91308112  0.69581900  0.29985494  1
  Zr  Zr18  1  0.31444453  0.10825593  0.49968192  1
  Zr  Zr19  1  0.10153517  0.90031202  0.69637416  1
  Zr  Zr20  1  0.29750557  0.89449821  0.89576890  1
  Zr  Zr21  1  0.29526852  0.69614646  0.50063384  1
  Zr  Zr22  1  0.29546554  0.50351732  0.50049994  1
  Zr  Zr23  1  0.10106511  0.69833906  0.69042849  1
  Zr  Zr24  1  0.30318837  0.10332173  0.69903961  1
  Zr  Zr25  1  0.49383563  0.89944041  0.30001229  1
  Zr  Zr26  1  0.50250246  0.90813080  0.50171722  1
  Zr  Zr27  1  0.09193232  0.50749916  0.29824308  1
  Zr  Zr28  1  0.70542962  0.70345405  0.69894643  1
  Zr  Zr29  1  0.09876540  0.49321087  0.90622466  1
  Zr  Zr30  1  0.49936588  0.89764992  0.10097099  1
  Zr  Zr31  1  0.49492954  0.29909996  0.29803594  1
  Zr  Zr32  1  0.50377130  0.69277908  0.71097648  1
  Zr  Zr33  1  0.50446599  0.50249252  0.31101521  1
  Zr  Zr34  1  0.70298479  0.29945993  0.49758264  1
  Zr  Zr35  1  0.10317518  0.09452721  0.71144836  1
  Zr  Zr36  1  0.09877841  0.90655757  0.89387891  1
  Zr  Zr37  1  0.30122119  0.90108214  0.50612005  1
  Zr  Zr38  1  0.89718232  0.91166356  0.09250968  1
  Zr  Zr39  1  0.70014821  0.09470167  0.30124156  1
  Zr  Zr40  1  0.49322576  0.09421338  0.30985910  1
  Zr  Zr41  1  0.50380462  0.89050862  0.89206172  1
  Zr  Zr42  1  0.69723436  0.89863580  0.50661398  1
  Zr  Zr43  1  0.29285332  0.50393173  0.29978751  1
  Zr  Zr44  1  0.09983022  0.70544496  0.91585323  1
  Zr  Zr45  1  0.50283621  0.68646379  0.50599582  1
  Zr  Zr46  1  0.09799423  0.90024954  0.29614245  1
  Zr  Zr47  1  0.71006329  0.30204038  0.30136635  1
  Zr  Zr48  1  0.49874928  0.29534272  0.50331040  1
  Zr  Zr49  1  0.49982641  0.10572167  0.89920441  1
  Sc  Sc50  1  0.89621791  0.09855742  0.70900425  1
  Sc  Sc51  1  0.69095265  0.68976275  0.09347494  1
  Sc  Sc52  1  0.50475929  0.50203914  0.88970757  1
  Sc  Sc53  1  0.09730228  0.49536465  0.09866961  1
  Sc  Sc54  1  0.91008675  0.69719923  0.09193500  1
  Sc  Sc55  1  0.70086737  0.49614163  0.90339894  1
  Sc  Sc56  1  0.09021815  0.30286529  0.29933488  1
  Sc  Sc57  1  0.30525090  0.89934387  0.11020387  1
  Sc  Sc58  1  0.89452205  0.89607946  0.70102958  1
  Sc  Sc59  1  0.71518953  0.09932485  0.09853177  1
  Sc  Sc60  1  0.30552547  0.10728068  0.90400014  1
  Sc  Sc61  1  0.10442158  0.10584811  0.48920442  1
  Sc  Sc62  1  0.70096574  0.10200406  0.51521938  1
  Sc  Sc63  1  0.89921108  0.30110311  0.29783713  1
  Sc  Sc64  1  0.50226531  0.69304319  0.09481871  1
  Sc  Sc65  1  0.89979013  0.49739243  0.69901106  1
  Sc  Sc66  1  0.69979013  0.70326514  0.50333553  1
  Sc  Sc67  1  0.69421099  0.50055111  0.70302319  1
  Sc  Sc68  1  0.50083742  0.09865510  0.68889351  1
  Sc  Sc69  1  0.29904078  0.10837641  0.10512710  1
  Sc  Sc70  1  0.48971300  0.10367724  0.09368138  1
  Sc  Sc71  1  0.68404782  0.50215137  0.49619890  1
  Sc  Sc72  1  0.69838000  0.90249735  0.70135188  1
  Sc  Sc73  1  0.90159210  0.30445783  0.70731733  1
  Sc  Sc74  1  0.10158770  0.50055172  0.49848343  1
  Sc  Sc75  1  0.50250617  0.70445901  0.30223704  1
  Sc  Sc76  1  0.49875462  0.30393992  0.70935153  1
  Sc  Sc77  1  0.70030953  0.49669554  0.30249233  1
  Sc  Sc78  1  0.30001749  0.29290735  0.29598997  1
  Sc  Sc79  1  0.89904936  0.30494290  0.10622461  1
  Sc  Sc80  1  0.69994738  0.50038508  0.09545322  1
  Sc  Sc81  1  0.70725862  0.29824193  0.09672166  1
  Sc  Sc82  1  0.30202585  0.30233293  0.88858839  1
  Sc  Sc83  1  0.90717120  0.89742158  0.30173770  1
  Sc  Sc84  1  0.09188631  0.89907389  0.09906056  1
  Sc  Sc85  1  0.90592681  0.49177451  0.29478509  1
  Sc  Sc86  1  0.09068439  0.10360590  0.89923768  1
  Sc  Sc87  1  0.90601733  0.69920252  0.51086046  1
  Sc  Sc88  1  0.28903306  0.90064227  0.70035039  1
  Sc  Sc89  1  0.91109188  0.50587959  0.49972777  1
  Sc  Sc90  1  0.49312425  0.29424347  0.09819613  1
  Sc  Sc91  1  0.09842105  0.30350837  0.89656004  1
  Sc  Sc92  1  0.29081725  0.50055431  0.89607841  1
  Sc  Sc93  1  0.89730858  0.70176081  0.91043489  1
  Sc  Sc94  1  0.90277996  0.10874197  0.29949027  1
  Sc  Sc95  1  0.09787843  0.30176330  0.09622393  1
  Sc  Sc96  1  0.09588031  0.69707561  0.50409817  1
  Sc  Sc97  1  0.09612181  0.10381012  0.29178370  1
  Sc  Sc98  1  0.90062198  0.90247663  0.89850191  1
  Sc  Sc99  1  0.89910729  0.10639304  0.49530031  1
  Nb  Nb100  1  0.50311331  0.70001403  0.89904025  1
  Nb  Nb101  1  0.30524842  0.89476438  0.30149284  1
  Nb  Nb102  1  0.10045186  0.70005350  0.28648245  1
  Nb  Nb103  1  0.10079434  0.69820247  0.10295301  1
  Nb  Nb104  1  0.30282703  0.30014201  0.50441751  1
  Nb  Nb105  1  0.70597753  0.70093615  0.30118266  1
  Nb  Nb106  1  0.90058834  0.50448611  0.90401386  1
  Nb  Nb107  1  0.29999146  0.69695166  0.70090779  1
  Nb  Nb108  1  0.90201257  0.69542475  0.70314192  1
  Nb  Nb109  1  0.10498556  0.89844621  0.50075063  1
  Nb  Nb110  1  0.69429984  0.70228739  0.89678656  1
  Nb  Nb111  1  0.29901693  0.30169973  0.69758472  1
  Nb  Nb112  1  0.50042897  0.49928256  0.69535216  1
  Nb  Nb113  1  0.49836764  0.49698427  0.50375854  1
  Nb  Nb114  1  0.89733287  0.50330235  0.09142196  1
  Nb  Nb115  1  0.69876652  0.89593704  0.89769822  1
  Nb  Nb116  1  0.89601661  0.09455789  0.90638744  1
  Nb  Nb117  1  0.10241116  0.29629101  0.70107423  1
  Nb  Nb118  1  0.30001894  0.09266376  0.30313111  1
  Nb  Nb119  1  0.70513947  0.10282231  0.70757377  1
  Nb  Nb120  1  0.30145115  0.69659247  0.09691643  1
  Nb  Nb121  1  0.30069272  0.49918871  0.70540524  1
  Nb  Nb122  1  0.49815807  0.09839065  0.50042962  1
  Nb  Nb123  1  0.70360090  0.09852873  0.89362712  1
  Nb  Nb124  1  0.29891200  0.70870444  0.29139637  1
  Nb  Nb125  1  0.80490092  0.60411550  0.80555431  1
  Nb  Nb126  1  0.39617559  0.40131460  0.40964609  1
  Nb  Nb127  1  0.00770752  0.20070171  0.60631610  1
  Nb  Nb128  1  0.39229401  0.60419435  0.20101533  1
  Nb  Nb129  1  0.00522152  0.00327970  0.59785469  1
  Nb  Nb130  1  0.79785968  0.79373706  0.19808340  1
  Nb  Nb131  1  -0.00147763  0.79144396  0.79816631  1
  Nb  Nb132  1  0.39928011  0.40426630  -0.00346607  1
  Nb  Nb133  1  0.39658060  0.40436832  0.60232360  1
  Nb  Nb134  1  0.20674501  -0.00534260  0.39392168  1
  Nb  Nb135  1  0.60091782  0.20027191  0.20530878  1
  Nb  Nb136  1  0.78998738  0.80381314  0.00136425  1
  Nb  Nb137  1  0.39803961  0.79142649  0.60563330  1
  Nb  Nb138  1  0.59853245  0.39495945  0.20052572  1
  Nb  Nb139  1  0.20057755  0.00104158  0.00136199  1
  Nb  Nb140  1  0.79744783  0.39824118  0.59569299  1
  Nb  Nb141  1  0.40145208  -0.00243477  0.80010579  1
  Nb  Nb142  1  0.19987403  0.80144980  0.39107327  1
  Nb  Nb143  1  -0.00264498  0.60208262  0.80485985  1
  Nb  Nb144  1  0.60570750  -0.00050674  -0.00929010  1
  Nb  Nb145  1  0.80251736  0.60594412  0.39448819  1
  Nb  Nb146  1  0.79779008  -0.00564581  0.40319921  1
  Nb  Nb147  1  0.80337257  0.60375168  0.20110370  1
  Nb  Nb148  1  0.40043882  0.79209174  -0.00372193  1
  Nb  Nb149  1  0.59796098  0.19626025  0.40099755  1
  Pd  Pd150  1  0.80586791  0.20398562  -0.00584609  1
  Pd  Pd151  1  0.19020859  0.61244836  0.39565299  1
  Pd  Pd152  1  0.79811424  0.39866476  0.00107888  1
  Pd  Pd153  1  0.19594524  0.01243310  0.58970131  1
  Pd  Pd154  1  0.39750019  0.60093191  0.39259372  1
  Pd  Pd155  1  0.20081943  0.59911538  0.19266019  1
  Pd  Pd156  1  0.59112065  0.01378609  0.18715734  1
  Pd  Pd157  1  0.20650003  0.80931058  0.01252069  1
  Pd  Pd158  1  0.59419686  0.79437759  0.40669451  1
  Pd  Pd159  1  -0.00722120  0.20053235  0.79967811  1
  Pd  Pd160  1  0.19516229  0.20382286  0.20353113  1
  Pd  Pd161  1  0.60234342  0.59510030  0.20741962  1
  Pd  Pd162  1  0.39989744  0.59322522  0.80409242  1
  Pd  Pd163  1  0.81381973  0.20573651  0.60500624  1
  Pd  Pd164  1  0.39705162  0.59765971  0.60736696  1
  Pd  Pd165  1  0.80826982  0.00143033  0.59727609  1
  Pd  Pd166  1  0.01104373  0.79159596  0.40221024  1
  Pd  Pd167  1  0.20117213  0.20104932  0.80590195  1
  Pd  Pd168  1  0.80642629  0.79957933  0.39863447  1
  Pd  Pd169  1  0.20192855  0.19833968  0.39215428  1
  Pd  Pd170  1  0.40038302  0.00523889  0.19825481  1
  Pd  Pd171  1  0.19902138  0.80378708  0.19410962  1
  Pd  Pd172  1  0.19606748  0.19478574  0.59976463  1
  Pd  Pd173  1  -0.00793187  0.20988746  -0.00294164  1
  Pd  Pd174  1  0.60075257  0.79050211  0.19658308  1
  Pd  Pd175  1  0.59446796  0.19468655  0.79061533  1
  Pd  Pd176  1  0.60091730  0.39644067  0.60648055  1
  Pd  Pd177  1  0.80569990  0.41778216  0.40819286  1
  Pd  Pd178  1  0.19312290  0.79076705  0.79745547  1
  Pd  Pd179  1  0.40321526  0.41107810  0.20115810  1
  Pd  Pd180  1  0.59384911  0.39841626  0.00432548  1
  Pd  Pd181  1  -0.00530264  0.39456664  0.60063336  1
  Pd  Pd182  1  0.20271968  0.39422297  0.39257066  1
  Pd  Pd183  1  0.80532015  0.80039733  0.59942559  1
  Pd  Pd184  1  0.79657826  0.59018911  0.59660341  1
  Pd  Pd185  1  0.39774049  -0.00954368  -0.00653441  1
  Pd  Pd186  1  0.20144454  -0.00046983  0.19741215  1
  Pd  Pd187  1  -0.00849672  0.80303174  0.18959832  1
  Pd  Pd188  1  0.59832475  0.20075133  0.60318956  1
  Pd  Pd189  1  0.20474562  0.40303512  0.60431783  1
  Pd  Pd190  1  0.39971884  0.79540522  0.41023585  1
  Pd  Pd191  1  0.60661402  0.19086214  0.01006497  1
  Pd  Pd192  1  0.19194050  0.39647343  0.20381639  1
  Pd  Pd193  1  0.19037853  0.60343557  0.80168291  1
  Pd  Pd194  1  0.20130391  0.19938593  -0.00517070  1
  Pd  Pd195  1  0.59633649  0.00622608  0.79804454  1
  Pd  Pd196  1  0.00203477  0.00767483  0.40203067  1
  Pd  Pd197  1  0.80844991  -0.00608651  0.21419720  1
  Pd  Pd198  1  0.80178881  -0.00398179  0.80241106  1
  Pd  Pd199  1  0.59979114  0.80118577  0.00412656  1
  Rh  Rh200  1  0.20623727  0.79409434  0.59578168  1
  Rh  Rh201  1  0.79748819  0.41266094  0.79468345  1
  Rh  Rh202  1  -0.00223088  0.40295568  0.19404106  1
  Rh  Rh203  1  0.00293998  0.40127590  0.39977838  1
  Rh  Rh204  1  -0.00633188  0.80712715  -0.00235554  1
  Rh  Rh205  1  0.40045478  0.20527229  0.39653994  1
  Rh  Rh206  1  0.79881738  0.20118437  0.20078589  1
  Rh  Rh207  1  0.39187539  0.21441796  -0.00313298  1
  Rh  Rh208  1  0.19199904  0.59914700  0.00488672  1
  Rh  Rh209  1  0.60472298  0.59912608  0.60386662  1
  Rh  Rh210  1  0.19808729  0.59440486  0.60427565  1
  Rh  Rh211  1  -0.00306344  0.59553442  0.18885275  1
  Rh  Rh212  1  0.60230305  0.40087469  0.79929083  1
  Rh  Rh213  1  0.80670283  0.19650811  0.80734596  1
  Rh  Rh214  1  0.60688950  0.79564062  0.79280714  1
  Rh  Rh215  1  0.00780641  0.00092416  -0.00306967  1
  Rh  Rh216  1  -0.00553997  0.39875815  0.00219637  1
  Rh  Rh217  1  0.59951849  0.59542904  -0.01272710  1
  Rh  Rh218  1  0.60819143  0.59831560  0.80164142  1
  Rh  Rh219  1  0.79489666  0.60668597  -0.00013694  1
  Rh  Rh220  1  0.59120359  0.38986916  0.39691148  1
  Rh  Rh221  1  0.19850211  0.39475566  0.79773161  1
  Rh  Rh222  1  0.00669365  0.59505695  0.00005196  1
  Rh  Rh223  1  0.39884828  -0.00785707  0.60805234  1
  Rh  Rh224  1  0.39306222  -0.00562675  0.40240389  1
  Rh  Rh225  1  0.20625954  0.39195961  -0.00504229  1
  Rh  Rh226  1  -0.00412297  0.00353983  0.20134562  1
  Rh  Rh227  1  0.00414052  0.20399711  0.40255532  1
  Rh  Rh228  1  0.00177740  0.60289726  0.40081021  1
  Rh  Rh229  1  -0.00899013  -0.00668588  0.79413287  1
  Rh  Rh230  1  0.00157856  0.40579677  0.80087253  1
  Rh  Rh231  1  -0.00029241  0.20453936  0.19593001  1
  Rh  Rh232  1  -0.00208478  0.80810142  0.60677512  1
  Rh  Rh233  1  0.60458163  0.00532421  0.60428602  1
  Rh  Rh234  1  0.79178440  -0.00333912  -0.01144821  1
  Rh  Rh235  1  0.79534835  0.41121994  0.19331332  1
  Rh  Rh236  1  0.39324610  0.79876122  0.79772237  1
  Rh  Rh237  1  0.59290220  0.79523309  0.60323720  1
  Rh  Rh238  1  0.60810721  0.60822338  0.39952895  1
  Rh  Rh239  1  0.21212256  0.01169773  0.81371503  1
  Rh  Rh240  1  0.00350019  0.59111891  0.60795818  1
  Rh  Rh241  1  0.40395536  0.21005900  0.60827854  1
  Rh  Rh242  1  0.80358122  0.79312817  0.80901955  1
  Rh  Rh243  1  0.40149425  0.19016617  0.20483850  1
  Rh  Rh244  1  0.60951556  0.00809672  0.41477038  1
  Rh  Rh245  1  0.40704776  0.78910862  0.18979065  1
  Rh  Rh246  1  0.39798925  0.40695327  0.79803363  1
  Rh  Rh247  1  0.79268963  0.18793145  0.39885733  1
  Rh  Rh248  1  0.40301858  0.19459407  0.79342970  1
  Rh  Rh249  1  0.40379753  0.59825439  -0.00204422  1
