# generated using pymatgen
data_ZrScNbPdRh
_symmetry_space_group_name_H-M   'P 1'
_cell_length_a   16.54976864
_cell_length_b   16.55761136
_cell_length_c   16.55331081
_cell_angle_alpha   90.00295638
_cell_angle_beta   89.99256562
_cell_angle_gamma   90.01975422
_symmetry_Int_Tables_number   1
_chemical_formula_structural   ZrScNbPdRh
_chemical_formula_sum   'Zr50 Sc50 Nb50 Pd50 Rh50'
_cell_volume   4536.01467476
_cell_formula_units_Z   50
loop_
 _symmetry_equiv_pos_site_id
 _symmetry_equiv_pos_as_xyz
  1  'x, y, z'
loop_
 _atom_site_type_symbol
 _atom_site_label
 _atom_site_symmetry_multiplicity
 _atom_site_fract_x
 _atom_site_fract_y
 _atom_site_fract_z
 _atom_site_occupancy
  Zr  Zr0  1  0.49627739  0.71224752  0.70315780  1
  Zr  Zr1  1  0.09219759  0.49693533  0.49633235  1
  Zr  Zr2  1  0.70079971  0.50325739  0.09930363  1
  Zr  Zr3  1  0.30766451  0.88276269  0.69944198  1
  Zr  Zr4  1  0.09527216  0.90191384  0.90298743  1
  Zr  Zr5  1  0.70032727  0.69706141  0.89822528  1
  Zr  Zr6  1  0.29034751  0.49813500  0.89549002  1
  Zr  Zr7  1  0.50039010  0.30299131  0.48923797  1
  Zr  Zr8  1  0.89302908  0.50337548  0.50264377  1
  Zr  Zr9  1  0.90403317  0.50167614  0.70386675  1
  Zr  Zr10  1  0.29669459  0.30325115  0.70411904  1
  Zr  Zr11  1  0.90550655  0.49812489  0.08602293  1
  Zr  Zr12  1  0.09302107  0.69900963  0.10457229  1
  Zr  Zr13  1  0.89526452  0.30517218  0.50103571  1
  Zr  Zr14  1  0.30056920  0.50083120  0.29636305  1
  Zr  Zr15  1  0.69845636  0.49483511  0.91087848  1
  Zr  Zr16  1  0.29935721  0.49081216  0.09791195  1
  Zr  Zr17  1  0.30565244  0.89942847  0.30023951  1
  Zr  Zr18  1  0.51029419  0.49792196  0.50154404  1
  Zr  Zr19  1  0.28948373  0.70206775  0.09982412  1
  Zr  Zr20  1  0.90373626  0.09933474  0.90512343  1
  Zr  Zr21  1  0.49558838  0.09889415  0.89981728  1
  Zr  Zr22  1  0.69194807  0.09509246  0.89928505  1
  Zr  Zr23  1  0.30141280  0.30160295  0.50570286  1
  Zr  Zr24  1  0.90106771  0.29212743  0.10071796  1
  Zr  Zr25  1  0.89848578  0.89850702  0.90113009  1
  Zr  Zr26  1  0.30291686  0.10583727  0.49923601  1
  Zr  Zr27  1  0.69997095  0.29587168  0.89365525  1
  Zr  Zr28  1  0.51044357  0.89999527  0.50302535  1
  Zr  Zr29  1  0.10471124  0.89684186  0.09434722  1
  Zr  Zr30  1  0.89404644  0.89954154  0.50072665  1
  Zr  Zr31  1  0.70058458  0.89580493  0.30384812  1
  Zr  Zr32  1  0.50107213  0.90054893  0.30047532  1
  Zr  Zr33  1  0.49950614  0.90313485  0.10322554  1
  Zr  Zr34  1  0.49782806  0.10429046  0.30980157  1
  Zr  Zr35  1  0.10282899  0.29943712  0.49935549  1
  Zr  Zr36  1  0.09531358  0.90243809  0.70407760  1
  Zr  Zr37  1  0.30084322  0.11056115  0.70259501  1
  Zr  Zr38  1  0.30094139  0.10670476  0.29966176  1
  Zr  Zr39  1  0.30217695  0.10701439  0.08912754  1
  Zr  Zr40  1  0.89803557  0.29395261  0.70607905  1
  Zr  Zr41  1  0.51284595  0.49783624  0.09997263  1
  Zr  Zr42  1  0.50797714  0.70019752  0.89558449  1
  Zr  Zr43  1  0.70334181  0.29828216  0.69638311  1
  Zr  Zr44  1  0.50935827  0.09882721  0.70104921  1
  Zr  Zr45  1  0.10436250  0.90252954  0.29295801  1
  Zr  Zr46  1  0.29781132  0.69878829  0.30323949  1
  Zr  Zr47  1  0.89284203  0.10656541  0.29057133  1
  Zr  Zr48  1  0.29662240  0.49936987  0.69984733  1
  Zr  Zr49  1  0.10597388  0.69415548  0.69844200  1
  Sc  Sc50  1  0.90135142  0.90510561  0.10247916  1
  Sc  Sc51  1  0.49936843  0.71021380  0.30315256  1
  Sc  Sc52  1  0.49988695  0.30395016  0.89311237  1
  Sc  Sc53  1  0.91062170  0.50697471  0.31080217  1
  Sc  Sc54  1  0.10114314  0.50610324  0.09148728  1
  Sc  Sc55  1  0.10570249  0.50141674  0.70627905  1
  Sc  Sc56  1  0.09892905  0.51382129  0.29849158  1
  Sc  Sc57  1  0.89213248  0.90101962  0.29566243  1
  Sc  Sc58  1  0.10644761  0.29847032  0.29435895  1
  Sc  Sc59  1  0.69574066  0.49855765  0.68783189  1
  Sc  Sc60  1  0.09631002  0.29693189  0.89921994  1
  Sc  Sc61  1  0.10142864  0.09958336  0.90247718  1
  Sc  Sc62  1  0.69907331  0.09488847  0.49387998  1
  Sc  Sc63  1  0.29741106  0.90383746  0.10039997  1
  Sc  Sc64  1  0.09715853  0.90818885  0.49755575  1
  Sc  Sc65  1  0.88970373  0.70042021  0.70403879  1
  Sc  Sc66  1  0.10696119  0.29794728  0.70647487  1
  Sc  Sc67  1  0.90171889  0.09421070  0.10360476  1
  Sc  Sc68  1  0.49604923  0.50177510  0.69884770  1
  Sc  Sc69  1  0.89360001  0.89677281  0.70229003  1
  Sc  Sc70  1  0.29661504  0.90369850  0.90932875  1
  Sc  Sc71  1  0.69302239  0.90022519  0.69065063  1
  Sc  Sc72  1  0.48710871  0.30921271  0.10395307  1
  Sc  Sc73  1  0.09981050  0.10053526  0.71146860  1
  Sc  Sc74  1  0.31308701  0.50642374  0.50242183  1
  Sc  Sc75  1  0.91001414  0.30037521  0.90437905  1
  Sc  Sc76  1  0.69709292  0.69149687  0.49785788  1
  Sc  Sc77  1  0.29799156  0.10281824  0.90268037  1
  Sc  Sc78  1  0.49900001  0.48905416  0.30193856  1
  Sc  Sc79  1  0.88779989  0.69560428  0.49410978  1
  Sc  Sc80  1  0.09842742  0.10059688  0.09937010  1
  Sc  Sc81  1  0.10143109  0.09569857  0.29743672  1
  Sc  Sc82  1  0.10904986  0.69114157  0.50437750  1
  Sc  Sc83  1  0.70478830  0.09676272  0.29911516  1
  Sc  Sc84  1  0.70003329  0.10557760  0.70526368  1
  Sc  Sc85  1  0.69732627  0.90068437  0.90905439  1
  Sc  Sc86  1  0.70176333  0.28591281  0.30324422  1
  Sc  Sc87  1  0.69810274  0.31312120  0.09518417  1
  Sc  Sc88  1  0.30206646  0.69846604  0.88982841  1
  Sc  Sc89  1  0.30161933  0.69251912  0.69028970  1
  Sc  Sc90  1  0.89667739  0.08963547  0.49739181  1
  Sc  Sc91  1  0.89994199  0.69468936  0.89499407  1
  Sc  Sc92  1  0.90049115  0.09834391  0.70390656  1
  Sc  Sc93  1  0.10428809  0.09811720  0.49627256  1
  Sc  Sc94  1  0.50452376  0.90044172  0.89963879  1
  Sc  Sc95  1  0.29653612  0.29745609  0.90366769  1
  Sc  Sc96  1  0.69246406  0.50832123  0.30241393  1
  Sc  Sc97  1  0.70774414  0.70675673  0.30335103  1
  Sc  Sc98  1  0.49588628  0.30454951  0.70099325  1
  Sc  Sc99  1  0.70079926  0.90654154  0.10690872  1
  Nb  Nb100  1  0.10277661  0.29732617  0.09816018  1
  Nb  Nb101  1  0.50023498  0.90363880  0.69867209  1
  Nb  Nb102  1  0.70694018  0.89843794  0.49589593  1
  Nb  Nb103  1  0.50014055  0.50259341  0.90301941  1
  Nb  Nb104  1  0.48791325  0.69441115  0.50279020  1
  Nb  Nb105  1  0.50052107  0.09650105  0.09600844  1
  Nb  Nb106  1  0.08587934  0.50220543  0.89951802  1
  Nb  Nb107  1  0.30113165  0.89496407  0.50306859  1
  Nb  Nb108  1  0.49296548  0.29451323  0.29930349  1
  Nb  Nb109  1  0.90324370  0.70148350  0.29391291  1
  Nb  Nb110  1  0.70121377  0.09919502  0.09855901  1
  Nb  Nb111  1  0.10322148  0.70216408  0.90530322  1
  Nb  Nb112  1  0.69993261  0.69385074  0.09879449  1
  Nb  Nb113  1  0.69870133  0.49358949  0.49842101  1
  Nb  Nb114  1  0.30720135  0.30487858  0.29010463  1
  Nb  Nb115  1  0.30823729  0.70547079  0.50053475  1
  Nb  Nb116  1  0.69865949  0.30824083  0.50646512  1
  Nb  Nb117  1  0.28748449  0.30164839  0.11103757  1
  Nb  Nb118  1  0.50404772  0.69623803  0.09682160  1
  Nb  Nb119  1  0.89865007  0.69978997  0.10782482  1
  Nb  Nb120  1  0.89934028  0.30197742  0.29981972  1
  Nb  Nb121  1  0.90760787  0.49242264  0.89940204  1
  Nb  Nb122  1  0.50039243  0.10413687  0.50008756  1
  Nb  Nb123  1  0.10023882  0.70175357  0.29643763  1
  Nb  Nb124  1  0.69918231  0.70352678  0.70971154  1
  Nb  Nb125  1  0.20070963  0.79838842  0.40157325  1
  Nb  Nb126  1  0.40420758  0.60172796  0.19094150  1
  Nb  Nb127  1  -0.00171665  0.39662522  0.60210363  1
  Nb  Nb128  1  0.19438093  0.79896673  0.80096201  1
  Nb  Nb129  1  0.80675805  0.40455850  0.20711904  1
  Nb  Nb130  1  0.80373169  0.40347850  0.80356612  1
  Nb  Nb131  1  0.40495353  0.59935872  0.00050233  1
  Nb  Nb132  1  0.40097321  -0.00317008  0.79212655  1
  Nb  Nb133  1  0.40504421  0.79111602  0.00367409  1
  Nb  Nb134  1  -0.00184356  0.79822567  0.59397017  1
  Nb  Nb135  1  -0.00496987  0.20400753  0.39894915  1
  Nb  Nb136  1  0.60008004  0.20363182  0.59061584  1
  Nb  Nb137  1  0.79326063  0.19539169  0.00142394  1
  Nb  Nb138  1  -0.00251650  0.39740113  0.19900626  1
  Nb  Nb139  1  0.59720857  0.19745630  0.00735503  1
  Nb  Nb140  1  0.79871165  0.79089131  0.00890618  1
  Nb  Nb141  1  -0.00066029  0.20291598  0.59535790  1
  Nb  Nb142  1  0.59442333  0.19641912  0.19301387  1
  Nb  Nb143  1  0.80585745  0.60019092  0.19744147  1
  Nb  Nb144  1  0.79693922  -0.00028102  0.80583597  1
  Nb  Nb145  1  0.79629851  0.40148047  0.40042591  1
  Nb  Nb146  1  0.40249201  -0.00127831  0.60018455  1
  Nb  Nb147  1  0.00363913  0.79618566  0.39672141  1
  Nb  Nb148  1  0.21101596  -0.00329555  0.60364822  1
  Nb  Nb149  1  0.20545893  0.40046526  0.39677253  1
  Pd  Pd150  1  0.60050718  0.79267724  0.40936236  1
  Pd  Pd151  1  0.60774827  0.38834622  0.21042197  1
  Pd  Pd152  1  0.60375352  0.00161761  0.39834614  1
  Pd  Pd153  1  0.40118812  0.40130162  -0.00509271  1
  Pd  Pd154  1  0.18638180  0.40894180  0.20423015  1
  Pd  Pd155  1  0.60121694  0.00704961  0.20533306  1
  Pd  Pd156  1  0.41023174  0.59735310  0.39121119  1
  Pd  Pd157  1  0.20235822  0.60160883  -0.00518830  1
  Pd  Pd158  1  0.60698310  0.81074347  0.79896230  1
  Pd  Pd159  1  0.80831848  0.60392893  -0.00036098  1
  Pd  Pd160  1  0.40110561  -0.00427445  0.40832086  1
  Pd  Pd161  1  0.20596601  0.00749107  0.19217570  1
  Pd  Pd162  1  0.00809838  0.20143653  0.20444874  1
  Pd  Pd163  1  0.18985289  0.80435969  0.59705512  1
  Pd  Pd164  1  -0.00321961  0.60351225  0.59983513  1
  Pd  Pd165  1  0.80123228  0.20187115  0.40804591  1
  Pd  Pd166  1  0.79150521  0.60404936  0.60561738  1
  Pd  Pd167  1  0.39597672  0.00797749  0.19806649  1
  Pd  Pd168  1  0.79890360  0.18801087  0.59247326  1
  Pd  Pd169  1  0.40075330  0.59720294  0.80105673  1
  Pd  Pd170  1  0.39865631  0.79387021  0.19258631  1
  Pd  Pd171  1  0.00278698  0.60702986  0.80131649  1
  Pd  Pd172  1  0.59454984  0.60643928  0.39472631  1
  Pd  Pd173  1  0.60568096  0.40627382  0.79503735  1
  Pd  Pd174  1  0.00568719  0.00464311  0.60377124  1
  Pd  Pd175  1  0.00186611  0.79151013  0.79261601  1
  Pd  Pd176  1  0.79259019  0.00439275  0.60939897  1
  Pd  Pd177  1  0.79226750  0.58839078  0.79948377  1
  Pd  Pd178  1  0.59801277  0.60931597  0.60629269  1
  Pd  Pd179  1  0.21065328  -0.00663018  0.79708727  1
  Pd  Pd180  1  0.20596152  -0.00525886  0.40449473  1
  Pd  Pd181  1  0.59904170  0.61018704  0.21153663  1
  Pd  Pd182  1  0.20298090  0.59861374  0.40653445  1
  Pd  Pd183  1  -0.00006957  0.61310564  0.40505058  1
  Pd  Pd184  1  -0.00230335  0.80891766  0.20323793  1
  Pd  Pd185  1  0.19027974  0.39548463  -0.00657068  1
  Pd  Pd186  1  0.60848913  0.39261872  0.38884930  1
  Pd  Pd187  1  0.40344367  0.19648929  0.19351413  1
  Pd  Pd188  1  0.41022560  0.20169309  0.60219432  1
  Pd  Pd189  1  0.40337850  0.21207633  0.00046833  1
  Pd  Pd190  1  -0.00806530  0.00186898  0.38896159  1
  Pd  Pd191  1  -0.01035282  0.79485327  0.00215844  1
  Pd  Pd192  1  0.60553826  0.79480917  0.19654969  1
  Pd  Pd193  1  0.79732645  0.79317151  0.59923733  1
  Pd  Pd194  1  0.19559535  0.40856157  0.59577288  1
  Pd  Pd195  1  0.60412326  0.59160244  0.79300366  1
  Pd  Pd196  1  0.19914007  0.20690665  0.39243837  1
  Pd  Pd197  1  0.39670796  0.40179808  0.80356634  1
  Pd  Pd198  1  0.60368661  0.80358713  0.00865344  1
  Pd  Pd199  1  0.60372330  0.79046603  0.59469791  1
  Rh  Rh200  1  -0.00109050  0.19683431  0.00355051  1
  Rh  Rh201  1  0.00916745  0.39435345  0.00655073  1
  Rh  Rh202  1  0.00415879  0.39175813  0.39748095  1
  Rh  Rh203  1  0.79966368  -0.00430387  0.39597844  1
  Rh  Rh204  1  0.19685407  0.20364580  0.00280985  1
  Rh  Rh205  1  0.60184798  0.00765666  0.59389656  1
  Rh  Rh206  1  0.20054908  0.80017317  0.20618382  1
  Rh  Rh207  1  0.40453225  -0.00939693  -0.00611596  1
  Rh  Rh208  1  0.40398149  0.59954106  0.60347165  1
  Rh  Rh209  1  0.20655627  0.79693006  -0.00897967  1
  Rh  Rh210  1  0.80467727  0.40716721  0.60335632  1
  Rh  Rh211  1  0.79088404  0.80865647  0.80803384  1
  Rh  Rh212  1  0.40371446  0.40293004  0.59901305  1
  Rh  Rh213  1  -0.00243772  0.60909675  -0.00506597  1
  Rh  Rh214  1  0.40153170  0.40589375  0.20019741  1
  Rh  Rh215  1  0.79685271  0.59223953  0.39042841  1
  Rh  Rh216  1  0.40051108  0.80370725  0.40612077  1
  Rh  Rh217  1  0.20117303  0.20395942  0.80631717  1
  Rh  Rh218  1  0.80151250  -0.00098197  -0.00152129  1
  Rh  Rh219  1  0.00033120  -0.00199862  0.20108456  1
  Rh  Rh220  1  0.00483846  -0.00030011  0.00432265  1
  Rh  Rh221  1  0.39301177  0.39587134  0.39913552  1
  Rh  Rh222  1  -0.00551682  0.59186682  0.19575260  1
  Rh  Rh223  1  0.19386072  0.60448196  0.80656391  1
  Rh  Rh224  1  0.40989174  0.80274196  0.59183377  1
  Rh  Rh225  1  0.18863828  0.18678686  0.60616957  1
  Rh  Rh226  1  0.39366647  0.20786373  0.39951646  1
  Rh  Rh227  1  0.59312761  0.39451356  0.60201965  1
  Rh  Rh228  1  0.39536515  0.80944211  0.81601797  1
  Rh  Rh229  1  0.40022667  0.19767136  0.80373300  1
  Rh  Rh230  1  0.00184595  0.19840042  0.79724387  1
  Rh  Rh231  1  0.80486686  0.80029066  0.40045971  1
  Rh  Rh232  1  0.19649971  0.00479986  0.00317885  1
  Rh  Rh233  1  -0.00052983  0.39817640  0.79434526  1
  Rh  Rh234  1  0.79636038  0.79564505  0.19308640  1
  Rh  Rh235  1  0.59581134  0.00086108  0.00409811  1
  Rh  Rh236  1  0.59094617  0.39097645  -0.00343706  1
  Rh  Rh237  1  0.80718588  0.19760384  0.81309361  1
  Rh  Rh238  1  0.60303993  -0.00665301  0.79738835  1
  Rh  Rh239  1  0.59273698  0.20583049  0.79588999  1
  Rh  Rh240  1  0.20224368  0.59900772  0.19588120  1
  Rh  Rh241  1  0.60212967  0.20104187  0.40058573  1
  Rh  Rh242  1  0.80509450  0.39025233  -0.00554155  1
  Rh  Rh243  1  0.78707431  0.20850472  0.18775262  1
  Rh  Rh244  1  0.19361328  0.40023879  0.80761255  1
  Rh  Rh245  1  0.20135570  0.19497953  0.19889292  1
  Rh  Rh246  1  0.20806662  0.59316336  0.59256200  1
  Rh  Rh247  1  -0.01099316  0.00140192  0.80345951  1
  Rh  Rh248  1  0.79773674  -0.00139223  0.20099127  1
  Rh  Rh249  1  0.59660171  0.59939729  -0.00445402  1
