# generated using pymatgen
data_ZrScNbPdRh
_symmetry_space_group_name_H-M   'P 1'
_cell_length_a   16.55930031
_cell_length_b   16.55414456
_cell_length_c   16.55569510
_cell_angle_alpha   89.98726495
_cell_angle_beta   89.95746106
_cell_angle_gamma   89.99558028
_symmetry_Int_Tables_number   1
_chemical_formula_structural   ZrScNbPdRh
_chemical_formula_sum   'Zr50 Sc50 Nb50 Pd50 Rh50'
_cell_volume   4538.32938920
_cell_formula_units_Z   50
loop_
 _symmetry_equiv_pos_site_id
 _symmetry_equiv_pos_as_xyz
  1  'x, y, z'
loop_
 _atom_site_type_symbol
 _atom_site_label
 _atom_site_symmetry_multiplicity
 _atom_site_fract_x
 _atom_site_fract_y
 _atom_site_fract_z
 _atom_site_occupancy
  Zr  Zr0  1  0.70218433  0.89708323  0.30613644  1
  Zr  Zr1  1  0.09343323  0.89807712  0.89643055  1
  Zr  Zr2  1  0.49541696  0.89325618  0.71044562  1
  Zr  Zr3  1  0.30389816  0.89545069  0.88697728  1
  Zr  Zr4  1  0.30312715  0.29776898  0.50504737  1
  Zr  Zr5  1  0.69623306  0.09535473  0.29432333  1
  Zr  Zr6  1  0.70924079  0.29233904  0.90177706  1
  Zr  Zr7  1  0.50192723  0.49816515  0.69341331  1
  Zr  Zr8  1  0.69654273  0.30090178  0.09964849  1
  Zr  Zr9  1  0.09647497  0.70404078  0.89849632  1
  Zr  Zr10  1  0.90616291  0.09586823  0.10879696  1
  Zr  Zr11  1  0.50528950  0.30057549  0.29769486  1
  Zr  Zr12  1  0.30241991  0.29670805  0.70110082  1
  Zr  Zr13  1  0.50009426  0.49880547  0.50214778  1
  Zr  Zr14  1  0.09778640  0.10008701  0.89156431  1
  Zr  Zr15  1  0.69665113  0.70309993  0.30261993  1
  Zr  Zr16  1  0.49518350  0.50720632  0.89656408  1
  Zr  Zr17  1  0.30926271  0.89514354  0.10129785  1
  Zr  Zr18  1  0.49968100  0.29924466  0.10185344  1
  Zr  Zr19  1  0.49713727  0.30172088  0.69640992  1
  Zr  Zr20  1  0.89636725  0.09494339  0.89592083  1
  Zr  Zr21  1  0.49922782  0.10249393  0.29547517  1
  Zr  Zr22  1  0.30605716  0.09199680  0.29814444  1
  Zr  Zr23  1  0.50085412  0.09699096  0.10271937  1
  Zr  Zr24  1  0.28901091  0.30219328  0.08874065  1
  Zr  Zr25  1  0.90292567  0.49283703  0.90298645  1
  Zr  Zr26  1  0.49810523  0.69958797  0.09831686  1
  Zr  Zr27  1  0.09928513  0.50740766  0.30967161  1
  Zr  Zr28  1  0.69594787  0.10253393  0.70346172  1
  Zr  Zr29  1  0.49654449  0.89884137  0.49997134  1
  Zr  Zr30  1  0.70614654  0.30109199  0.50221983  1
  Zr  Zr31  1  0.90233295  0.29694200  0.49957600  1
  Zr  Zr32  1  0.50261696  0.69846264  0.49331319  1
  Zr  Zr33  1  0.29694541  0.09293527  0.50478913  1
  Zr  Zr34  1  0.70202530  0.89990064  0.90634949  1
  Zr  Zr35  1  0.89865229  0.30057594  0.70595484  1
  Zr  Zr36  1  0.29703253  0.10040240  0.09873591  1
  Zr  Zr37  1  0.91013096  0.69993152  0.09744030  1
  Zr  Zr38  1  0.30098106  0.50240589  0.71559417  1
  Zr  Zr39  1  0.10512526  0.69531307  0.29692917  1
  Zr  Zr40  1  0.09637645  0.69373264  0.49771451  1
  Zr  Zr41  1  0.10338637  0.30237889  0.89430572  1
  Zr  Zr42  1  0.10974307  0.89678278  0.49530310  1
  Zr  Zr43  1  0.49335741  0.30455578  0.50172553  1
  Zr  Zr44  1  0.09850363  0.70032900  0.70032950  1
  Zr  Zr45  1  0.90397036  0.10092813  0.50319819  1
  Zr  Zr46  1  0.10148129  0.49662344  0.70162656  1
  Zr  Zr47  1  0.70303714  0.30614924  0.29720257  1
  Zr  Zr48  1  0.30623657  0.69441673  0.10924196  1
  Zr  Zr49  1  0.30211888  0.49810519  0.09251249  1
  Sc  Sc50  1  0.49310650  0.50422102  0.10188965  1
  Sc  Sc51  1  0.89241119  0.89985481  0.09726996  1
  Sc  Sc52  1  0.09594421  0.89805845  0.70302518  1
  Sc  Sc53  1  0.69992543  0.09894646  0.90565171  1
  Sc  Sc54  1  0.88785454  0.70078562  0.90552034  1
  Sc  Sc55  1  0.50298694  0.70190253  0.70515702  1
  Sc  Sc56  1  0.29098637  0.10508395  0.88640712  1
  Sc  Sc57  1  0.69953735  0.09272872  0.50130248  1
  Sc  Sc58  1  0.88750038  0.31505404  0.08710096  1
  Sc  Sc59  1  0.30380621  0.89836990  0.31409227  1
  Sc  Sc60  1  0.09099437  0.29268412  0.29747427  1
  Sc  Sc61  1  0.70220892  0.69275722  0.69869544  1
  Sc  Sc62  1  0.30193179  0.50472255  0.29994701  1
  Sc  Sc63  1  0.89694363  0.70379138  0.68991884  1
  Sc  Sc64  1  0.89586226  0.90299498  0.70499074  1
  Sc  Sc65  1  0.49859707  0.29292943  0.88883801  1
  Sc  Sc66  1  0.29918243  0.69436543  0.88696857  1
  Sc  Sc67  1  0.30724972  0.30449700  0.30265649  1
  Sc  Sc68  1  0.09143421  0.10293527  0.28697566  1
  Sc  Sc69  1  0.90265989  0.10334164  0.30028648  1
  Sc  Sc70  1  0.49779021  0.90473869  0.30472111  1
  Sc  Sc71  1  0.30139105  0.89285144  0.49921806  1
  Sc  Sc72  1  0.10570266  0.49330856  0.89432515  1
  Sc  Sc73  1  0.71473814  0.49526984  0.10081984  1
  Sc  Sc74  1  0.70097069  0.50283347  0.51102376  1
  Sc  Sc75  1  0.89134916  0.70281035  0.30316241  1
  Sc  Sc76  1  0.90997816  0.09933718  0.69878127  1
  Sc  Sc77  1  0.70544656  0.51662852  0.89892689  1
  Sc  Sc78  1  0.88746788  0.89743992  0.50639954  1
  Sc  Sc79  1  0.70773502  0.69397387  0.09643118  1
  Sc  Sc80  1  0.50906963  0.10491067  0.89980493  1
  Sc  Sc81  1  0.89648755  0.49628507  0.30567699  1
  Sc  Sc82  1  0.70633775  0.89968471  0.69822978  1
  Sc  Sc83  1  0.89730456  0.69821530  0.50276477  1
  Sc  Sc84  1  0.10131417  0.11010078  0.10021243  1
  Sc  Sc85  1  0.89167834  0.50409084  0.69745410  1
  Sc  Sc86  1  0.70542717  0.50212399  0.29460166  1
  Sc  Sc87  1  0.90011624  0.30024676  0.30699958  1
  Sc  Sc88  1  0.70505395  0.70303405  0.49741707  1
  Sc  Sc89  1  0.10306480  0.09733310  0.51834512  1
  Sc  Sc90  1  0.69133818  0.09396758  0.09330108  1
  Sc  Sc91  1  0.50320602  0.89989283  0.09772144  1
  Sc  Sc92  1  0.89720706  0.90392802  0.90192867  1
  Sc  Sc93  1  0.49734611  0.11255450  0.70570943  1
  Sc  Sc94  1  0.08128430  0.89468921  0.09937620  1
  Sc  Sc95  1  0.90505535  0.50696604  0.49628308  1
  Sc  Sc96  1  0.29550559  0.48454923  0.49532078  1
  Sc  Sc97  1  0.10821719  0.30246849  0.50528640  1
  Sc  Sc98  1  0.89237013  0.90321970  0.28686182  1
  Sc  Sc99  1  0.50134224  0.10335428  0.50225377  1
  Nb  Nb100  1  0.29440319  0.09825381  0.69827427  1
  Nb  Nb101  1  0.29947979  0.70579021  0.69682947  1
  Nb  Nb102  1  0.10263157  0.89780735  0.30034138  1
  Nb  Nb103  1  0.68811939  0.70356465  0.89984620  1
  Nb  Nb104  1  0.90283825  0.50246387  0.09588978  1
  Nb  Nb105  1  0.50266043  0.50579679  0.30410847  1
  Nb  Nb106  1  0.69968438  0.30695922  0.69925377  1
  Nb  Nb107  1  0.69635616  0.49539383  0.69516059  1
  Nb  Nb108  1  0.29668562  0.49332317  0.90049163  1
  Nb  Nb109  1  0.49895083  0.68919484  0.29924201  1
  Nb  Nb110  1  0.29612336  0.30940792  0.90152189  1
  Nb  Nb111  1  0.30611423  0.70091727  0.30491026  1
  Nb  Nb112  1  0.50444921  0.89109857  0.89908210  1
  Nb  Nb113  1  0.52055663  0.70990199  0.90134191  1
  Nb  Nb114  1  0.69333116  0.89533643  0.49836066  1
  Nb  Nb115  1  0.30250133  0.70882024  0.50171123  1
  Nb  Nb116  1  0.10243275  0.69561354  0.10130307  1
  Nb  Nb117  1  0.30902540  0.89034533  0.70272850  1
  Nb  Nb118  1  0.10599870  0.11109545  0.70313316  1
  Nb  Nb119  1  0.09991926  0.50164385  0.50568458  1
  Nb  Nb120  1  0.09892634  0.51067994  0.10556582  1
  Nb  Nb121  1  0.70119377  0.90616804  0.11155765  1
  Nb  Nb122  1  0.09658195  0.29667680  0.69977339  1
  Nb  Nb123  1  0.90444827  0.29954151  0.89774336  1
  Nb  Nb124  1  0.10058982  0.29921899  0.09820019  1
  Nb  Nb125  1  0.59868183  -0.00720098  0.80338521  1
  Nb  Nb126  1  0.39036402  0.60650078  0.59900935  1
  Nb  Nb127  1  0.60808953  0.40101364  0.79836951  1
  Nb  Nb128  1  0.59934218  0.79459599  0.20439305  1
  Nb  Nb129  1  -0.00298923  0.20824384  -0.00502880  1
  Nb  Nb130  1  0.00314505  0.40005140  0.60101801  1
  Nb  Nb131  1  0.19880151  0.60110752  0.00124900  1
  Nb  Nb132  1  0.59946493  0.40207231  0.39920821  1
  Nb  Nb133  1  0.19889740  0.79672027  0.00616850  1
  Nb  Nb134  1  0.20200786  -0.00846765  0.00091165  1
  Nb  Nb135  1  0.00252675  0.80627826  0.39711187  1
  Nb  Nb136  1  0.39870201  0.00086699  -0.00907100  1
  Nb  Nb137  1  0.19846921  -0.01154108  0.19595981  1
  Nb  Nb138  1  0.00275433  0.40663127  0.19011812  1
  Nb  Nb139  1  0.19042007  0.40368870  0.19527320  1
  Nb  Nb140  1  0.20343106  0.19560148  0.40094951  1
  Nb  Nb141  1  0.39548318  -0.00327717  0.61184068  1
  Nb  Nb142  1  -0.00165648  0.60009016  0.79940896  1
  Nb  Nb143  1  0.00287173  -0.00750279  0.40087097  1
  Nb  Nb144  1  0.20589395  0.60175783  0.59896659  1
  Nb  Nb145  1  0.79609944  0.20225687  0.19711922  1
  Nb  Nb146  1  0.60073989  0.40119360  -0.00794459  1
  Nb  Nb147  1  0.60026632  0.80374332  0.59629842  1
  Nb  Nb148  1  0.19974491  0.79814567  0.20050236  1
  Nb  Nb149  1  0.39292271  0.19897729  -0.00339353  1
  Pd  Pd150  1  0.60973521  0.80493789  0.01553971  1
  Pd  Pd151  1  0.00950396  0.39874840  0.00335609  1
  Pd  Pd152  1  0.60448251  0.20494750  0.40455197  1
  Pd  Pd153  1  0.59894864  0.41457908  0.19722706  1
  Pd  Pd154  1  0.80900482  0.19021964  0.00833935  1
  Pd  Pd155  1  -0.00084514  0.79899544  0.20638026  1
  Pd  Pd156  1  0.40590688  0.80262750  0.21212134  1
  Pd  Pd157  1  0.79557581  0.19223974  0.39417058  1
  Pd  Pd158  1  0.79692405  0.79618784  0.79874038  1
  Pd  Pd159  1  0.79582317  0.59639201  0.40438654  1
  Pd  Pd160  1  0.00097614  -0.00835639  0.59938573  1
  Pd  Pd161  1  -0.00300545  0.80608463  0.59188865  1
  Pd  Pd162  1  0.00561158  0.00788908  0.00243279  1
  Pd  Pd163  1  0.39656773  0.61077703  -0.01204748  1
  Pd  Pd164  1  0.61077042  0.59136566  0.40362042  1
  Pd  Pd165  1  0.21103344  0.60253787  0.40967250  1
  Pd  Pd166  1  -0.01689151  0.79404078  0.80246135  1
  Pd  Pd167  1  0.39420427  0.40436339  0.20358629  1
  Pd  Pd168  1  0.39164308  0.20592385  0.19379672  1
  Pd  Pd169  1  0.80419683  0.60532042  0.79801992  1
  Pd  Pd170  1  0.40696611  0.60815279  0.79896762  1
  Pd  Pd171  1  0.39597677  0.19505698  0.40228188  1
  Pd  Pd172  1  0.18903568  0.01207025  0.38946901  1
  Pd  Pd173  1  0.80770185  0.60252796  0.19856272  1
  Pd  Pd174  1  0.59104266  -0.00515602  0.61092340  1
  Pd  Pd175  1  0.40830982  0.01052413  0.80170151  1
  Pd  Pd176  1  0.60139049  0.20356402  0.59736628  1
  Pd  Pd177  1  0.80783899  -0.00053553  0.40051085  1
  Pd  Pd178  1  0.60366473  0.59119789  0.00884484  1
  Pd  Pd179  1  0.41176224  0.39251982  -0.00907080  1
  Pd  Pd180  1  0.80083460  0.19318295  0.60539872  1
  Pd  Pd181  1  0.20509306  -0.01338312  0.61394985  1
  Pd  Pd182  1  0.80114180  0.19456761  0.79508790  1
  Pd  Pd183  1  0.79404620  0.40504904  0.80448808  1
  Pd  Pd184  1  -0.01263099  0.59718853  0.21010279  1
  Pd  Pd185  1  0.60317431  0.59896571  0.19079377  1
  Pd  Pd186  1  0.39614873  0.79539877  -0.01061595  1
  Pd  Pd187  1  0.20583520  0.20554311  0.21112804  1
  Pd  Pd188  1  0.00543505  0.59784096  -0.01027750  1
  Pd  Pd189  1  0.81122847  0.40502548  0.59355709  1
  Pd  Pd190  1  0.39062424  0.59568899  0.40864919  1
  Pd  Pd191  1  0.00645622  0.39908728  0.40474269  1
  Pd  Pd192  1  0.79881808  0.00303825  0.60233309  1
  Pd  Pd193  1  0.60103107  0.59625184  0.79285906  1
  Pd  Pd194  1  0.01502017  0.18934488  0.41107953  1
  Pd  Pd195  1  0.19577371  -0.00710889  0.79469102  1
  Pd  Pd196  1  0.19759246  0.79985908  0.60345480  1
  Pd  Pd197  1  0.79530275  0.80055441  0.00543276  1
  Pd  Pd198  1  0.19196656  0.38953386  0.38874658  1
  Pd  Pd199  1  0.59518941  0.00260121  0.39954960  1
  Rh  Rh200  1  0.79192386  0.40614618  0.40482303  1
  Rh  Rh201  1  0.00122978  0.00204869  0.79197208  1
  Rh  Rh202  1  0.40576407  0.79554786  0.39460780  1
  Rh  Rh203  1  0.79802512  0.59943192  0.59920214  1
  Rh  Rh204  1  0.20991363  0.59802259  0.19868846  1
  Rh  Rh205  1  0.79096829  0.79617603  0.19460254  1
  Rh  Rh206  1  0.40425004  0.78527648  0.80665574  1
  Rh  Rh207  1  0.79071827  0.79993970  0.59912717  1
  Rh  Rh208  1  0.00447780  0.59238363  0.60758737  1
  Rh  Rh209  1  0.61240501  0.80480479  0.79243372  1
  Rh  Rh210  1  0.59613732  0.61031938  0.60162051  1
  Rh  Rh211  1  0.40498403  0.39813706  0.80391776  1
  Rh  Rh212  1  0.19017846  0.41240433  0.00516659  1
  Rh  Rh213  1  -0.00467808  0.40534117  0.79098336  1
  Rh  Rh214  1  0.39654199  0.18786833  0.60119668  1
  Rh  Rh215  1  -0.01971577  0.22148084  0.18382680  1
  Rh  Rh216  1  0.00445631  -0.00689421  0.20505122  1
  Rh  Rh217  1  -0.00117489  0.79852475  -0.00154452  1
  Rh  Rh218  1  0.19882347  0.78956186  0.39345753  1
  Rh  Rh219  1  -0.00565802  0.60862767  0.39703887  1
  Rh  Rh220  1  0.40451317  0.00456158  0.41260983  1
  Rh  Rh221  1  0.60964033  0.20385042  0.79882491  1
  Rh  Rh222  1  0.40801334  0.79874241  0.60043361  1
  Rh  Rh223  1  0.79150580  0.40701865  -0.01135314  1
  Rh  Rh224  1  0.38876349  0.41118852  0.60687119  1
  Rh  Rh225  1  0.59441769  -0.00891575  -0.00623354  1
  Rh  Rh226  1  0.59537669  -0.00940245  0.20317575  1
  Rh  Rh227  1  0.40081701  0.59438026  0.20568879  1
  Rh  Rh228  1  0.20233649  0.20828410  0.79702250  1
  Rh  Rh229  1  0.39064754  0.20056610  0.80472943  1
  Rh  Rh230  1  0.60764427  0.19535279  0.19552646  1
  Rh  Rh231  1  0.20399940  0.39195505  0.79425004  1
  Rh  Rh232  1  0.80714362  0.80475226  0.40120238  1
  Rh  Rh233  1  0.39889907  -0.00485008  0.19702403  1
  Rh  Rh234  1  0.19929836  0.80179330  0.79920175  1
  Rh  Rh235  1  0.81372151  0.39630378  0.20459272  1
  Rh  Rh236  1  -0.00223756  0.19909129  0.80358717  1
  Rh  Rh237  1  0.20153061  0.20375448  0.59920037  1
  Rh  Rh238  1  0.19914608  0.40297917  0.60814853  1
  Rh  Rh239  1  0.79181671  0.00387047  0.79998701  1
  Rh  Rh240  1  0.19304618  0.60305263  0.80039212  1
  Rh  Rh241  1  0.19603734  0.19363766  -0.01171288  1
  Rh  Rh242  1  0.41090214  0.40388817  0.39219322  1
  Rh  Rh243  1  0.60229602  0.39300059  0.59771737  1
  Rh  Rh244  1  0.00240552  0.20838575  0.60091725  1
  Rh  Rh245  1  0.79837838  0.00084140  0.00686118  1
  Rh  Rh246  1  0.59037914  0.20922881  0.00016769  1
  Rh  Rh247  1  0.79770268  0.00880489  0.19850008  1
  Rh  Rh248  1  0.59434767  0.79894567  0.39716507  1
  Rh  Rh249  1  0.80243532  0.60173605  0.00006337  1
