# generated using pymatgen
data_ZrScNbPdRh
_symmetry_space_group_name_H-M   'P 1'
_cell_length_a   16.55520100
_cell_length_b   16.55446248
_cell_length_c   16.55467187
_cell_angle_alpha   89.98709879
_cell_angle_beta   90.00263338
_cell_angle_gamma   90.00930171
_symmetry_Int_Tables_number   1
_chemical_formula_structural   ZrScNbPdRh
_chemical_formula_sum   'Zr50 Sc50 Nb50 Pd50 Rh50'
_cell_volume   4537.01381606
_cell_formula_units_Z   50
loop_
 _symmetry_equiv_pos_site_id
 _symmetry_equiv_pos_as_xyz
  1  'x, y, z'
loop_
 _atom_site_type_symbol
 _atom_site_label
 _atom_site_symmetry_multiplicity
 _atom_site_fract_x
 _atom_site_fract_y
 _atom_site_fract_z
 _atom_site_occupancy
  Zr  Zr0  1  0.30485797  0.49735506  0.89482567  1
  Zr  Zr1  1  0.50397630  0.91269945  0.69835791  1
  Zr  Zr2  1  0.50263773  0.29903867  0.09592441  1
  Zr  Zr3  1  0.30092432  0.10585855  0.69242456  1
  Zr  Zr4  1  0.29344560  0.90028416  0.10580748  1
  Zr  Zr5  1  0.90710707  0.10663336  0.89991651  1
  Zr  Zr6  1  0.90266046  0.49757185  0.50372453  1
  Zr  Zr7  1  0.10642766  0.09104464  0.09208173  1
  Zr  Zr8  1  0.49167584  0.08801379  0.50904428  1
  Zr  Zr9  1  0.10015282  0.89972860  0.09648918  1
  Zr  Zr10  1  0.89900860  0.70421381  0.29827095  1
  Zr  Zr11  1  0.10401442  0.89853447  0.51240469  1
  Zr  Zr12  1  0.49969613  0.69634218  0.89938282  1
  Zr  Zr13  1  0.68566203  0.50127277  0.30334980  1
  Zr  Zr14  1  0.89969259  0.30112044  0.09831747  1
  Zr  Zr15  1  0.29985581  0.49513416  0.70042789  1
  Zr  Zr16  1  0.89861388  0.29260731  0.49468740  1
  Zr  Zr17  1  0.49773087  0.90571426  0.89578070  1
  Zr  Zr18  1  0.69852308  0.51324596  0.10020956  1
  Zr  Zr19  1  0.09977464  0.70705369  0.10071003  1
  Zr  Zr20  1  0.09277939  0.29910944  0.10445418  1
  Zr  Zr21  1  0.69448474  0.49947861  0.70014021  1
  Zr  Zr22  1  0.30123710  0.70408605  0.30298871  1
  Zr  Zr23  1  0.09647020  0.50031206  0.69964038  1
  Zr  Zr24  1  0.50382275  0.49940749  0.49985003  1
  Zr  Zr25  1  0.29950700  0.30977652  0.89605048  1
  Zr  Zr26  1  0.70312277  0.89622740  0.69861523  1
  Zr  Zr27  1  0.91569341  0.29767016  0.29553250  1
  Zr  Zr28  1  0.69530306  0.30191657  0.69644616  1
  Zr  Zr29  1  0.09511977  0.90303842  0.90833199  1
  Zr  Zr30  1  0.69461610  0.30385190  0.90140995  1
  Zr  Zr31  1  0.29146805  0.29917618  0.30761371  1
  Zr  Zr32  1  0.69951939  0.30133371  0.50220464  1
  Zr  Zr33  1  0.69487584  0.51117743  0.89479726  1
  Zr  Zr34  1  0.10236904  0.89055704  0.29999879  1
  Zr  Zr35  1  0.30220179  0.10458155  0.90270466  1
  Zr  Zr36  1  0.90089196  0.50553461  0.69409133  1
  Zr  Zr37  1  0.90183586  0.89394544  0.09287305  1
  Zr  Zr38  1  0.69481110  0.10032511  0.10570034  1
  Zr  Zr39  1  0.89769796  0.89499980  0.90087331  1
  Zr  Zr40  1  0.70416601  0.89545851  0.09008303  1
  Zr  Zr41  1  0.50880535  0.09326219  0.30089624  1
  Zr  Zr42  1  0.09511461  0.70289492  0.89648968  1
  Zr  Zr43  1  0.70131361  0.50142817  0.50376128  1
  Zr  Zr44  1  0.09835777  0.49024184  0.30748972  1
  Zr  Zr45  1  0.10313789  0.69870783  0.30240048  1
  Zr  Zr46  1  0.89679999  0.89444049  0.50317536  1
  Zr  Zr47  1  0.70107202  0.28968019  0.09650227  1
  Zr  Zr48  1  0.30618919  0.69643704  0.09623467  1
  Zr  Zr49  1  0.30043740  0.49287118  0.30409499  1
  Sc  Sc50  1  0.10182421  0.09802142  0.69170472  1
  Sc  Sc51  1  0.10645119  0.50248548  0.89548106  1
  Sc  Sc52  1  0.29865475  0.50038380  0.51070185  1
  Sc  Sc53  1  0.50336487  0.70678405  0.29931095  1
  Sc  Sc54  1  0.10133284  0.70274683  0.69951504  1
  Sc  Sc55  1  0.08721322  0.50247895  0.09483271  1
  Sc  Sc56  1  0.69732726  0.89555601  0.49756520  1
  Sc  Sc57  1  0.89487256  0.10907474  0.09965594  1
  Sc  Sc58  1  0.30127771  0.70011810  0.50445575  1
  Sc  Sc59  1  0.89413382  0.89061737  0.30526885  1
  Sc  Sc60  1  0.10106847  0.30022538  0.69406864  1
  Sc  Sc61  1  0.70482736  0.69926705  0.49874930  1
  Sc  Sc62  1  0.29291213  0.10262719  0.29942537  1
  Sc  Sc63  1  0.69988298  0.70348005  0.29381631  1
  Sc  Sc64  1  0.29722166  0.69790740  0.89742370  1
  Sc  Sc65  1  0.50126667  0.89970964  0.30692669  1
  Sc  Sc66  1  0.50231716  0.49958236  0.09891764  1
  Sc  Sc67  1  0.91008397  0.10937265  0.69358532  1
  Sc  Sc68  1  0.51021843  0.69485463  0.09925148  1
  Sc  Sc69  1  0.09997722  0.30200443  0.49164955  1
  Sc  Sc70  1  0.89730877  0.70445738  0.89367836  1
  Sc  Sc71  1  0.30173176  0.09823316  0.09821405  1
  Sc  Sc72  1  0.10727537  0.89364557  0.70251311  1
  Sc  Sc73  1  0.30701659  0.89399236  0.30231877  1
  Sc  Sc74  1  0.69977207  0.09634702  0.30245415  1
  Sc  Sc75  1  0.70208034  0.10363415  0.49153284  1
  Sc  Sc76  1  0.69659729  0.89835575  0.30290326  1
  Sc  Sc77  1  0.30489384  0.29976513  0.08755097  1
  Sc  Sc78  1  0.70735064  0.69551551  0.70079611  1
  Sc  Sc79  1  0.50070505  0.70138157  0.50367682  1
  Sc  Sc80  1  0.49582753  0.29752041  0.89654451  1
  Sc  Sc81  1  0.89629571  0.11017689  0.30491567  1
  Sc  Sc82  1  0.29140964  0.29727077  0.50889194  1
  Sc  Sc83  1  0.10185185  0.11807834  0.29828676  1
  Sc  Sc84  1  0.30143024  0.30463741  0.70171794  1
  Sc  Sc85  1  0.50388013  0.49638200  0.89694971  1
  Sc  Sc86  1  0.89513258  0.69917863  0.50688599  1
  Sc  Sc87  1  0.69587108  0.10080091  0.90963676  1
  Sc  Sc88  1  0.10439524  0.70171695  0.50514858  1
  Sc  Sc89  1  0.90002904  0.30106966  0.68664428  1
  Sc  Sc90  1  0.30566242  0.49575376  0.08455528  1
  Sc  Sc91  1  0.90508345  0.50066099  0.29501201  1
  Sc  Sc92  1  0.68547967  0.10177048  0.69843264  1
  Sc  Sc93  1  0.50180672  0.90761031  0.10721409  1
  Sc  Sc94  1  0.49994160  0.09761070  0.09221900  1
  Sc  Sc95  1  0.90701327  0.51307996  0.90228080  1
  Sc  Sc96  1  0.90431501  0.88604204  0.70121846  1
  Sc  Sc97  1  0.29503791  0.89932088  0.88861917  1
  Sc  Sc98  1  0.10239329  0.49651723  0.50790086  1
  Sc  Sc99  1  0.69260293  0.28994966  0.30058115  1
  Nb  Nb100  1  0.10092127  0.09948796  0.89739158  1
  Nb  Nb101  1  0.50252217  0.30058000  0.49422174  1
  Nb  Nb102  1  0.90047992  0.29699578  0.89952608  1
  Nb  Nb103  1  0.88862901  0.69057228  0.10405140  1
  Nb  Nb104  1  0.10349756  0.09658151  0.50283450  1
  Nb  Nb105  1  0.70387322  0.69760855  0.09432319  1
  Nb  Nb106  1  0.70858585  0.89133705  0.89775470  1
  Nb  Nb107  1  0.50010397  0.29910493  0.70178376  1
  Nb  Nb108  1  0.49144456  0.90185087  0.50001221  1
  Nb  Nb109  1  0.30675631  0.70833577  0.70313042  1
  Nb  Nb110  1  0.10033650  0.30350597  0.29928363  1
  Nb  Nb111  1  0.31016757  0.90843894  0.50519433  1
  Nb  Nb112  1  0.90721112  0.69898253  0.69943545  1
  Nb  Nb113  1  0.49254536  0.10175752  0.89023667  1
  Nb  Nb114  1  0.09258256  0.29298248  0.89830651  1
  Nb  Nb115  1  0.49259701  0.30961615  0.30526255  1
  Nb  Nb116  1  0.49622251  0.49160821  0.30224093  1
  Nb  Nb117  1  0.49420968  0.10857708  0.71136893  1
  Nb  Nb118  1  0.90484330  0.09714069  0.49731087  1
  Nb  Nb119  1  0.49820884  0.50628329  0.69711472  1
  Nb  Nb120  1  0.49725967  0.70343387  0.70214894  1
  Nb  Nb121  1  0.69679439  0.70452179  0.90509082  1
  Nb  Nb122  1  0.29870271  0.89246424  0.69889444  1
  Nb  Nb123  1  0.89228129  0.50082162  0.10002675  1
  Nb  Nb124  1  0.29415720  0.09967555  0.50253633  1
  Nb  Nb125  1  0.39923102  0.59347867  0.20819619  1
  Nb  Nb126  1  -0.00303209  -0.00075478  0.20457683  1
  Nb  Nb127  1  0.40280122  0.59454755  0.39625393  1
  Nb  Nb128  1  0.40319058  0.20126745  0.40229724  1
  Nb  Nb129  1  0.00490984  0.00185785  0.40217448  1
  Nb  Nb130  1  0.60296740  0.79958682  0.80341329  1
  Nb  Nb131  1  0.40141697  0.80194827  -0.00150368  1
  Nb  Nb132  1  0.79947664  0.39875091  0.39415903  1
  Nb  Nb133  1  0.79829252  0.40090205  0.19744261  1
  Nb  Nb134  1  0.19467828  0.19986620  0.80539051  1
  Nb  Nb135  1  0.19820891  0.00060469  0.40874376  1
  Nb  Nb136  1  0.40196174  0.60033385  0.79039886  1
  Nb  Nb137  1  0.19731395  0.40090785  0.19867878  1
  Nb  Nb138  1  0.40289633  0.80801105  0.60440513  1
  Nb  Nb139  1  0.80120506  0.20300492  0.79997492  1
  Nb  Nb140  1  0.80447160  0.00181842  0.60187103  1
  Nb  Nb141  1  0.80253819  0.40493302  -0.00098844  1
  Nb  Nb142  1  0.80347107  -0.00334057  0.19716011  1
  Nb  Nb143  1  0.80527191  0.39797399  0.80430883  1
  Nb  Nb144  1  0.80388388  0.00417666  0.79674897  1
  Nb  Nb145  1  0.00152613  0.60116805  0.40144410  1
  Nb  Nb146  1  0.40516213  0.20632934  0.20938837  1
  Nb  Nb147  1  -0.00576131  0.39324701  0.80362382  1
  Nb  Nb148  1  0.20450861  0.59444303  0.19979453  1
  Nb  Nb149  1  -0.00081998  0.00134495  0.80305996  1
  Pd  Pd150  1  0.20837758  0.80192806  -0.00670873  1
  Pd  Pd151  1  -0.00320896  0.40431625  -0.00840825  1
  Pd  Pd152  1  0.39201489  0.39807109  0.19113731  1
  Pd  Pd153  1  0.80641792  0.59574504  0.39458640  1
  Pd  Pd154  1  0.39224345  0.00719139  0.39101681  1
  Pd  Pd155  1  0.59130866  0.19484807  0.59480143  1
  Pd  Pd156  1  0.20877056  0.80900511  0.41087830  1
  Pd  Pd157  1  0.59077169  0.20112614  0.20294980  1
  Pd  Pd158  1  0.80362411  0.00764203  -0.00055822  1
  Pd  Pd159  1  0.80330544  0.60034018  0.80046715  1
  Pd  Pd160  1  0.60971148  0.00220386  0.59124192  1
  Pd  Pd161  1  0.61119027  -0.00154680  0.80852290  1
  Pd  Pd162  1  0.59275331  0.60824923  0.39792134  1
  Pd  Pd163  1  0.79554809  0.59660703  0.21093175  1
  Pd  Pd164  1  0.60297261  0.40542607  0.00244400  1
  Pd  Pd165  1  0.19370179  0.00024892  0.21274582  1
  Pd  Pd166  1  0.39807568  0.00780648  0.20590710  1
  Pd  Pd167  1  0.59919602  -0.00056039  -0.00557507  1
  Pd  Pd168  1  0.20844265  0.20804174  0.18926168  1
  Pd  Pd169  1  0.60258767  0.60899545  0.60082621  1
  Pd  Pd170  1  0.40809094  0.79473271  0.19162968  1
  Pd  Pd171  1  0.00527062  0.59791133  0.20352059  1
  Pd  Pd172  1  0.20571735  0.60540973  0.79305723  1
  Pd  Pd173  1  0.39129549  0.39870274  0.41625745  1
  Pd  Pd174  1  0.40553037  0.20713439  0.59572057  1
  Pd  Pd175  1  0.20004943  0.20391134  -0.00249427  1
  Pd  Pd176  1  0.79496822  0.18863673  0.60409589  1
  Pd  Pd177  1  0.00856666  0.20529139  0.59190546  1
  Pd  Pd178  1  0.00286529  0.19512343  0.00786900  1
  Pd  Pd179  1  0.59214387  0.80412569  -0.00184784  1
  Pd  Pd180  1  0.18862934  0.40039202  0.00224608  1
  Pd  Pd181  1  0.60262712  0.20039420  0.80592320  1
  Pd  Pd182  1  -0.00558714  0.80280441  0.19686834  1
  Pd  Pd183  1  0.59727253  0.79656435  0.60344964  1
  Pd  Pd184  1  0.60399264  0.80412438  0.19553601  1
  Pd  Pd185  1  0.19752943  0.59612282  0.00363806  1
  Pd  Pd186  1  0.38993498  0.00239767  0.79401509  1
  Pd  Pd187  1  0.19598069  0.00573241  0.79481624  1
  Pd  Pd188  1  0.80561100  -0.00154569  0.39885151  1
  Pd  Pd189  1  0.60494945  0.39667821  0.19764011  1
  Pd  Pd190  1  -0.00607184  -0.00646237  0.60492620  1
  Pd  Pd191  1  0.59344456  0.19738708  0.40393258  1
  Pd  Pd192  1  0.59156373  0.39882584  0.60207804  1
  Pd  Pd193  1  -0.00414313  0.60824570  0.00115869  1
  Pd  Pd194  1  0.39377442  -0.00640893  -0.00069352  1
  Pd  Pd195  1  0.20101423  0.60484332  0.60745380  1
  Pd  Pd196  1  0.00013548  0.79619794  0.41100291  1
  Pd  Pd197  1  0.20073163  0.59499483  0.40279840  1
  Pd  Pd198  1  0.40462129  0.39301057  0.59901385  1
  Pd  Pd199  1  0.59909488  0.79825251  0.40347388  1
  Rh  Rh200  1  0.00262114  0.18914856  0.19447847  1
  Rh  Rh201  1  0.00184623  0.79450974  0.60193394  1
  Rh  Rh202  1  0.59125890  0.60027379  0.20436490  1
  Rh  Rh203  1  0.00523037  0.80428197  0.79916386  1
  Rh  Rh204  1  0.41006382  0.40053112  -0.00557396  1
  Rh  Rh205  1  0.80074708  0.60276805  -0.00676610  1
  Rh  Rh206  1  -0.00499214  0.00611783  0.00138564  1
  Rh  Rh207  1  0.00313038  0.20018612  0.79443021  1
  Rh  Rh208  1  0.59672967  0.39924259  0.79287018  1
  Rh  Rh209  1  0.79857877  0.19876842  0.20702217  1
  Rh  Rh210  1  0.59862507  0.59917117  0.00004998  1
  Rh  Rh211  1  0.19570379  0.20242721  0.60325397  1
  Rh  Rh212  1  0.80049947  0.79955556  0.60289556  1
  Rh  Rh213  1  0.20736931  -0.00324358  0.60080971  1
  Rh  Rh214  1  0.20180915  0.40001454  0.40493144  1
  Rh  Rh215  1  0.40016044  0.60951383  0.60099829  1
  Rh  Rh216  1  0.80481831  0.78709750  0.00209426  1
  Rh  Rh217  1  0.80004674  0.20636337  0.39617347  1
  Rh  Rh218  1  0.18568688  0.39045969  0.80109091  1
  Rh  Rh219  1  0.79452921  0.80360445  0.19476391  1
  Rh  Rh220  1  0.20868491  -0.00322996  -0.00544833  1
  Rh  Rh221  1  0.21055237  0.79849377  0.59913933  1
  Rh  Rh222  1  0.00154746  0.39581944  0.60160690  1
  Rh  Rh223  1  0.79655468  0.20366140  -0.00793875  1
  Rh  Rh224  1  0.20445710  0.79410929  0.19958193  1
  Rh  Rh225  1  0.79626948  0.79691351  0.79560715  1
  Rh  Rh226  1  -0.00009554  0.40499762  0.19645886  1
  Rh  Rh227  1  0.40744344  0.79677044  0.80117903  1
  Rh  Rh228  1  0.40475162  0.19915836  0.00064014  1
  Rh  Rh229  1  0.60986509  -0.00704773  0.20007773  1
  Rh  Rh230  1  0.60678582  0.39621279  0.40143691  1
  Rh  Rh231  1  0.39181315  0.20532848  0.79910185  1
  Rh  Rh232  1  0.58864467  0.19243068  -0.00790182  1
  Rh  Rh233  1  0.19432155  0.79790159  0.80335232  1
  Rh  Rh234  1  0.00117790  0.59755823  0.79669403  1
  Rh  Rh235  1  0.00827137  0.19268735  0.40520319  1
  Rh  Rh236  1  0.59826109  -0.00475158  0.40646910  1
  Rh  Rh237  1  0.79937391  0.40277726  0.59832936  1
  Rh  Rh238  1  -0.00640653  0.40384056  0.40486556  1
  Rh  Rh239  1  0.00265782  0.60737160  0.59408199  1
  Rh  Rh240  1  0.79477187  0.79507820  0.40061366  1
  Rh  Rh241  1  -0.00872832  0.78727016  0.00351424  1
  Rh  Rh242  1  0.79951861  0.60247661  0.60277406  1
  Rh  Rh243  1  0.59447776  0.60844873  0.79530405  1
  Rh  Rh244  1  0.39525866  -0.00124771  0.61209524  1
  Rh  Rh245  1  0.19950964  0.19578034  0.40760731  1
  Rh  Rh246  1  0.19805590  0.39885897  0.60202450  1
  Rh  Rh247  1  0.40553726  0.60201560  -0.00529102  1
  Rh  Rh248  1  0.41194851  0.40513661  0.79393476  1
  Rh  Rh249  1  0.40206508  0.79333169  0.41260647  1
