# generated using pymatgen
data_ZrScNbPdRh
_symmetry_space_group_name_H-M   'P 1'
_cell_length_a   16.56422961
_cell_length_b   16.55798989
_cell_length_c   16.56440938
_cell_angle_alpha   90.02064222
_cell_angle_beta   89.99293213
_cell_angle_gamma   89.99290221
_symmetry_Int_Tables_number   1
_chemical_formula_structural   ZrScNbPdRh
_chemical_formula_sum   'Zr50 Sc50 Nb50 Pd50 Rh50'
_cell_volume   4543.12593377
_cell_formula_units_Z   50
loop_
 _symmetry_equiv_pos_site_id
 _symmetry_equiv_pos_as_xyz
  1  'x, y, z'
loop_
 _atom_site_type_symbol
 _atom_site_label
 _atom_site_symmetry_multiplicity
 _atom_site_fract_x
 _atom_site_fract_y
 _atom_site_fract_z
 _atom_site_occupancy
  Zr  Zr0  1  0.30400698  0.49837018  0.10844468  1
  Zr  Zr1  1  0.10151372  0.30140822  0.29341271  1
  Zr  Zr2  1  0.09719219  0.50539562  0.50478658  1
  Zr  Zr3  1  0.08645808  0.89721010  0.50035305  1
  Zr  Zr4  1  0.09724609  0.10486491  0.50841539  1
  Zr  Zr5  1  0.89772985  0.10564643  0.89433821  1
  Zr  Zr6  1  0.69915105  0.49819820  0.89802327  1
  Zr  Zr7  1  0.89133242  0.30282906  0.29307393  1
  Zr  Zr8  1  0.09387991  0.70106282  0.29845225  1
  Zr  Zr9  1  0.69827704  0.50490069  0.09503528  1
  Zr  Zr10  1  0.50251923  0.70163227  0.90038130  1
  Zr  Zr11  1  0.68552640  0.09930312  0.10371562  1
  Zr  Zr12  1  0.50014258  0.10014328  0.29989833  1
  Zr  Zr13  1  0.89885708  0.09714505  0.50592774  1
  Zr  Zr14  1  0.09319511  0.49815513  0.90186837  1
  Zr  Zr15  1  0.89345484  0.70266339  0.10006087  1
  Zr  Zr16  1  0.30333237  0.49010141  0.91072798  1
  Zr  Zr17  1  0.10319318  0.70212070  0.69184957  1
  Zr  Zr18  1  0.90441717  0.50249129  0.09722592  1
  Zr  Zr19  1  0.50732852  0.49069147  0.69978861  1
  Zr  Zr20  1  0.10790428  0.10000310  0.70075765  1
  Zr  Zr21  1  0.49776220  0.49974501  0.29704658  1
  Zr  Zr22  1  0.10188774  0.10882546  0.29554966  1
  Zr  Zr23  1  0.70032684  0.89361695  0.10212592  1
  Zr  Zr24  1  0.09876315  0.09524254  0.89697501  1
  Zr  Zr25  1  0.50343091  0.28728186  0.10520281  1
  Zr  Zr26  1  0.50071229  0.91181442  0.70800730  1
  Zr  Zr27  1  0.70154890  0.90287949  0.50634410  1
  Zr  Zr28  1  0.29455109  0.10801574  0.89339656  1
  Zr  Zr29  1  0.10018574  0.69701658  0.50069002  1
  Zr  Zr30  1  0.28926619  0.29527602  0.30404033  1
  Zr  Zr31  1  0.89012933  0.29301650  0.49575486  1
  Zr  Zr32  1  0.10550084  0.89749231  0.70191063  1
  Zr  Zr33  1  0.90585788  0.49675511  0.70130112  1
  Zr  Zr34  1  0.29649896  0.70488271  0.69969951  1
  Zr  Zr35  1  0.50760221  0.29796483  0.51442415  1
  Zr  Zr36  1  0.70281675  0.49131186  0.30047066  1
  Zr  Zr37  1  0.69573482  0.09995131  0.30395605  1
  Zr  Zr38  1  0.30476867  0.69958739  0.30009634  1
  Zr  Zr39  1  0.29881807  0.10350546  0.50958845  1
  Zr  Zr40  1  0.70526706  0.70294366  0.70229409  1
  Zr  Zr41  1  0.30373613  0.89942386  0.30154907  1
  Zr  Zr42  1  0.89965644  0.50139093  0.89464437  1
  Zr  Zr43  1  0.29664831  0.49147585  0.49838044  1
  Zr  Zr44  1  0.09422209  0.90066164  0.90000176  1
  Zr  Zr45  1  0.49637593  0.30476434  0.89487890  1
  Zr  Zr46  1  0.09794789  0.49005506  0.69909596  1
  Zr  Zr47  1  0.09771582  0.50324647  0.29727112  1
  Zr  Zr48  1  0.69868917  0.90145929  0.89268188  1
  Zr  Zr49  1  0.29552938  0.30609518  0.09149859  1
  Sc  Sc50  1  0.70302187  0.69234909  0.90099814  1
  Sc  Sc51  1  0.50639723  0.71011212  0.49841030  1
  Sc  Sc52  1  0.10069100  0.29592098  0.69843964  1
  Sc  Sc53  1  0.29103609  0.89916078  0.08656084  1
  Sc  Sc54  1  0.69258174  0.89417981  0.29846177  1
  Sc  Sc55  1  0.90620475  0.69682621  0.50561959  1
  Sc  Sc56  1  0.50906059  0.90291095  0.08754773  1
  Sc  Sc57  1  0.70726832  0.69978762  0.51056915  1
  Sc  Sc58  1  0.70732542  0.10954415  0.90037001  1
  Sc  Sc59  1  0.70085149  0.50704155  0.70247341  1
  Sc  Sc60  1  0.48995022  0.10548155  0.69439123  1
  Sc  Sc61  1  0.70366329  0.09330165  0.69717837  1
  Sc  Sc62  1  0.50571389  0.70625938  0.29894902  1
  Sc  Sc63  1  0.89555572  0.69915515  0.70410173  1
  Sc  Sc64  1  0.09230713  0.70458979  0.09425081  1
  Sc  Sc65  1  0.70294973  0.90033017  0.69995476  1
  Sc  Sc66  1  0.50243271  0.48444144  0.50068617  1
  Sc  Sc67  1  0.49146469  0.09124907  0.90169114  1
  Sc  Sc68  1  0.50680399  0.49613949  0.10952817  1
  Sc  Sc69  1  0.50872172  0.50236529  0.89732095  1
  Sc  Sc70  1  0.09513999  0.30096566  0.10128250  1
  Sc  Sc71  1  0.69187285  0.30433926  0.69049344  1
  Sc  Sc72  1  0.89685681  0.50607724  0.29216054  1
  Sc  Sc73  1  0.50636212  0.69334457  0.70772045  1
  Sc  Sc74  1  0.89005332  0.90255920  0.70310567  1
  Sc  Sc75  1  0.09577674  0.29338159  0.90230813  1
  Sc  Sc76  1  0.30402100  0.49359389  0.69702405  1
  Sc  Sc77  1  0.29085171  0.69992874  0.49905072  1
  Sc  Sc78  1  0.30687388  0.70779853  0.89812920  1
  Sc  Sc79  1  0.69764380  0.11101289  0.50087650  1
  Sc  Sc80  1  0.09556962  0.10432920  0.09937373  1
  Sc  Sc81  1  0.90337292  0.29947574  0.70512496  1
  Sc  Sc82  1  0.90199665  0.10014815  0.70074686  1
  Sc  Sc83  1  0.50185880  0.89709049  0.31397045  1
  Sc  Sc84  1  0.08810135  0.70430084  0.89780203  1
  Sc  Sc85  1  0.50869932  0.69783445  0.10425189  1
  Sc  Sc86  1  0.29959513  0.10739348  0.09015256  1
  Sc  Sc87  1  0.30052831  0.49181004  0.30199271  1
  Sc  Sc88  1  0.69605853  0.29367661  0.10390411  1
  Sc  Sc89  1  0.91713105  0.90163854  0.29410651  1
  Sc  Sc90  1  0.70336883  0.70109281  0.10314708  1
  Sc  Sc91  1  0.09728388  0.89916695  0.09893940  1
  Sc  Sc92  1  0.50288406  0.90727396  0.50039431  1
  Sc  Sc93  1  0.09502928  0.49224615  0.09931383  1
  Sc  Sc94  1  0.30792268  0.90065036  0.49818699  1
  Sc  Sc95  1  0.50434826  0.30487261  0.30278600  1
  Sc  Sc96  1  0.90187878  0.11281861  0.09994698  1
  Sc  Sc97  1  0.90609077  0.10342593  0.29324185  1
  Sc  Sc98  1  0.11333872  0.30137053  0.50868762  1
  Sc  Sc99  1  0.30456596  0.90560760  0.89836470  1
  Nb  Nb100  1  0.30154471  0.69918670  0.10091780  1
  Nb  Nb101  1  0.50061715  0.29920171  0.70057618  1
  Nb  Nb102  1  0.69885875  0.29932044  0.90032961  1
  Nb  Nb103  1  0.89964685  0.30022118  0.09590814  1
  Nb  Nb104  1  0.70355393  0.49590599  0.49464541  1
  Nb  Nb105  1  0.50029662  0.10007582  0.10895391  1
  Nb  Nb106  1  0.89311798  0.69842524  0.29127412  1
  Nb  Nb107  1  0.30177610  0.90241685  0.69447648  1
  Nb  Nb108  1  0.70485650  0.29901498  0.31274487  1
  Nb  Nb109  1  0.70120523  0.30814112  0.48843436  1
  Nb  Nb110  1  0.89865765  0.70087543  0.90475859  1
  Nb  Nb111  1  0.88944037  0.29336408  0.90368871  1
  Nb  Nb112  1  0.71088779  0.70026999  0.29623469  1
  Nb  Nb113  1  0.89756231  0.90003952  0.89852547  1
  Nb  Nb114  1  0.29533272  0.10222449  0.30319258  1
  Nb  Nb115  1  0.29953311  0.29892577  0.89773422  1
  Nb  Nb116  1  0.31227813  0.28782013  0.70422302  1
  Nb  Nb117  1  0.49762093  0.10223836  0.49888862  1
  Nb  Nb118  1  0.30673406  0.30379677  0.50384289  1
  Nb  Nb119  1  0.30232429  0.09663948  0.70106522  1
  Nb  Nb120  1  0.89571350  0.90093229  0.49712622  1
  Nb  Nb121  1  0.10175762  0.90702545  0.29744372  1
  Nb  Nb122  1  0.50003412  0.89908428  0.89642865  1
  Nb  Nb123  1  0.90088483  0.49868399  0.50113626  1
  Nb  Nb124  1  0.89696747  0.90141462  0.09658924  1
  Nb  Nb125  1  0.39703872  0.20078396  0.40662371  1
  Nb  Nb126  1  0.79950683  0.40360260  0.59039742  1
  Nb  Nb127  1  0.80205614  -0.00115862  0.00372277  1
  Nb  Nb128  1  -0.00334849  0.39907308  0.40249858  1
  Nb  Nb129  1  0.60637506  0.59693426  0.40029060  1
  Nb  Nb130  1  0.20425980  0.60048387  0.00041911  1
  Nb  Nb131  1  0.39894422  0.80637024  0.19399063  1
  Nb  Nb132  1  0.39818985  0.60110924  0.00618664  1
  Nb  Nb133  1  0.59531529  0.20592870  0.79822025  1
  Nb  Nb134  1  0.19178206  0.80741116  0.39539048  1
  Nb  Nb135  1  0.80005278  0.39230209  -0.00429694  1
  Nb  Nb136  1  0.80335468  -0.00501769  0.39602650  1
  Nb  Nb137  1  0.19520502  0.00105711  0.39676305  1
  Nb  Nb138  1  0.20206501  0.60392042  0.19429119  1
  Nb  Nb139  1  0.40244777  0.60154244  0.59552732  1
  Nb  Nb140  1  0.39978982  0.79935422  0.60739658  1
  Nb  Nb141  1  0.40622213  0.59716879  0.40444494  1
  Nb  Nb142  1  0.20630970  0.39365001  0.80467711  1
  Nb  Nb143  1  0.80860781  0.80160664  0.39656875  1
  Nb  Nb144  1  0.20036335  0.59338434  0.80515419  1
  Nb  Nb145  1  0.00188843  0.20730887  0.40167876  1
  Nb  Nb146  1  0.39853942  0.00132835  0.19748922  1
  Nb  Nb147  1  0.80102133  -0.00282381  0.19696545  1
  Nb  Nb148  1  -0.01077840  -0.00221292  -0.00392231  1
  Nb  Nb149  1  0.20443484  0.00260340  0.20480189  1
  Pd  Pd150  1  0.40292342  0.80505758  0.79461015  1
  Pd  Pd151  1  0.39755523  0.40381168  0.79720415  1
  Pd  Pd152  1  0.61604035  0.79101031  0.40281973  1
  Pd  Pd153  1  -0.00693820  0.39099629  -0.00635363  1
  Pd  Pd154  1  0.79480766  0.40049212  0.18789194  1
  Pd  Pd155  1  0.59339933  -0.01130058  0.20595219  1
  Pd  Pd156  1  -0.00893626  0.59672081  0.39703873  1
  Pd  Pd157  1  0.40585576  0.79748053  0.00629468  1
  Pd  Pd158  1  0.40571093  0.19820825  -0.00364965  1
  Pd  Pd159  1  0.59159090  0.20323209  0.40069539  1
  Pd  Pd160  1  -0.00813361  0.80120925  0.79325817  1
  Pd  Pd161  1  0.60144756  0.01504063  0.80396658  1
  Pd  Pd162  1  0.20061507  0.79767455  0.80956421  1
  Pd  Pd163  1  0.80054947  0.60629998  0.40155547  1
  Pd  Pd164  1  -0.00091318  0.01149588  0.39768762  1
  Pd  Pd165  1  0.60609203  0.79438414  -0.00301448  1
  Pd  Pd166  1  0.60498660  0.00574945  -0.01055217  1
  Pd  Pd167  1  0.19154881  0.20169831  0.00149324  1
  Pd  Pd168  1  0.00498455  0.60679941  0.79396480  1
  Pd  Pd169  1  0.39673331  0.00863775  0.39988072  1
  Pd  Pd170  1  0.39870072  0.00025086  0.00601349  1
  Pd  Pd171  1  0.59721003  0.00864549  0.59858181  1
  Pd  Pd172  1  -0.00388487  0.79513115  0.39646510  1
  Pd  Pd173  1  0.79509050  0.39474822  0.79527620  1
  Pd  Pd174  1  0.19040924  0.40110726  0.40191694  1
  Pd  Pd175  1  0.59166390  0.19354694  -0.01113652  1
  Pd  Pd176  1  0.78876733  0.20554562  0.78625962  1
  Pd  Pd177  1  0.00256105  0.20280279  0.79784818  1
  Pd  Pd178  1  0.60061845  0.39631708  0.00456665  1
  Pd  Pd179  1  -0.00402629  -0.00534408  0.61289797  1
  Pd  Pd180  1  0.20303285  0.80173231  0.20038068  1
  Pd  Pd181  1  0.79348450  0.20620118  0.60585938  1
  Pd  Pd182  1  0.41624353  0.40424956  0.00707921  1
  Pd  Pd183  1  0.60775017  0.60352302  0.20814865  1
  Pd  Pd184  1  0.79357063  0.19481994  0.19775635  1
  Pd  Pd185  1  0.20636745  0.59257760  0.60784427  1
  Pd  Pd186  1  -0.01129093  0.80181229  0.60941082  1
  Pd  Pd187  1  0.20669194  -0.00420538  0.80070461  1
  Pd  Pd188  1  0.59290862  0.80364335  0.60939769  1
  Pd  Pd189  1  -0.00220734  0.80045739  0.19453024  1
  Pd  Pd190  1  0.39521505  0.59414848  0.80071757  1
  Pd  Pd191  1  0.39258403  0.19997629  0.20630101  1
  Pd  Pd192  1  0.80351910  0.59378845  0.60205847  1
  Pd  Pd193  1  0.79457079  0.80117238  -0.00763915  1
  Pd  Pd194  1  0.19706553  0.79312075  -0.00841200  1
  Pd  Pd195  1  0.59406737  0.59474236  0.59147062  1
  Pd  Pd196  1  0.39927111  0.38655266  0.20274795  1
  Pd  Pd197  1  0.60270992  0.79878488  0.79764208  1
  Pd  Pd198  1  0.19978041  -0.00750286  0.59220704  1
  Pd  Pd199  1  -0.00708423  0.38841885  0.59162414  1
  Rh  Rh200  1  -0.00439097  0.39798928  0.20530398  1
  Rh  Rh201  1  0.00422389  0.38941741  0.80662451  1
  Rh  Rh202  1  0.40580646  0.19474463  0.80375753  1
  Rh  Rh203  1  0.18742270  0.00188825  0.00389562  1
  Rh  Rh204  1  -0.00049579  0.60576611  0.00264928  1
  Rh  Rh205  1  0.40327184  0.39417639  0.40130114  1
  Rh  Rh206  1  0.79672151  0.59499649  0.19433265  1
  Rh  Rh207  1  0.80595852  0.18573266  0.39603016  1
  Rh  Rh208  1  0.79831340  0.00191298  0.80522272  1
  Rh  Rh209  1  0.59284478  0.60238944  0.00015063  1
  Rh  Rh210  1  0.00219701  0.00136732  0.18589471  1
  Rh  Rh211  1  0.20559180  0.19838865  0.18680675  1
  Rh  Rh212  1  0.40337957  -0.00482938  0.60159931  1
  Rh  Rh213  1  0.80094113  0.79575506  0.80516621  1
  Rh  Rh214  1  0.59317321  0.80197398  0.20061667  1
  Rh  Rh215  1  0.80983468  0.40776059  0.40186005  1
  Rh  Rh216  1  0.60441401  0.20668278  0.21224355  1
  Rh  Rh217  1  0.60509733  0.60044439  0.80124649  1
  Rh  Rh218  1  -0.00152732  0.60105510  0.60680115  1
  Rh  Rh219  1  0.60726681  0.39170526  0.20348934  1
  Rh  Rh220  1  0.60801269  0.00234686  0.40742781  1
  Rh  Rh221  1  0.80174830  0.60251985  0.80230446  1
  Rh  Rh222  1  0.39463785  0.00199457  0.80001851  1
  Rh  Rh223  1  0.20669268  0.60342746  0.38845420  1
  Rh  Rh224  1  0.20029399  0.19754556  0.41303261  1
  Rh  Rh225  1  0.80043499  0.00009758  0.59564155  1
  Rh  Rh226  1  0.59715193  0.40201414  0.39718291  1
  Rh  Rh227  1  -0.00074121  0.20272445  0.59831705  1
  Rh  Rh228  1  -0.00152121  0.19666982  -0.00246894  1
  Rh  Rh229  1  0.39889613  0.20107133  0.59679942  1
  Rh  Rh230  1  0.21286763  0.38958680  0.61453106  1
  Rh  Rh231  1  0.19790365  0.40479968  0.19658407  1
  Rh  Rh232  1  -0.00358924  -0.00157114  0.80002715  1
  Rh  Rh233  1  0.61173292  0.40601727  0.59932252  1
  Rh  Rh234  1  0.20888463  0.20444234  0.60845924  1
  Rh  Rh235  1  0.20110039  0.20540459  0.79422882  1
  Rh  Rh236  1  0.80417332  0.80135943  0.59580747  1
  Rh  Rh237  1  0.79745577  0.20159055  0.00845706  1
  Rh  Rh238  1  0.60531888  0.39388221  0.79747956  1
  Rh  Rh239  1  -0.00280079  0.21004082  0.20120040  1
  Rh  Rh240  1  0.39420655  0.78855687  0.40716569  1
  Rh  Rh241  1  -0.00687320  0.80494552  -0.00046967  1
  Rh  Rh242  1  0.39866752  0.60916387  0.20160397  1
  Rh  Rh243  1  0.80431962  0.59430913  -0.00188361  1
  Rh  Rh244  1  0.60177379  0.19472024  0.60622574  1
  Rh  Rh245  1  0.20560768  0.81124127  0.58728191  1
  Rh  Rh246  1  0.00419288  0.60489425  0.19317306  1
  Rh  Rh247  1  0.39802887  0.40011685  0.60411090  1
  Rh  Rh248  1  0.19233059  0.39941396  -0.00415151  1
  Rh  Rh249  1  0.80523593  0.81053259  0.21037009  1
