# generated using pymatgen
data_ZrScNbPdRh
_symmetry_space_group_name_H-M   'P 1'
_cell_length_a   16.55616469
_cell_length_b   16.55645508
_cell_length_c   16.55978133
_cell_angle_alpha   90.01506225
_cell_angle_beta   89.99759161
_cell_angle_gamma   90.02357455
_symmetry_Int_Tables_number   1
_chemical_formula_structural   ZrScNbPdRh
_chemical_formula_sum   'Zr50 Sc50 Nb50 Pd50 Rh50'
_cell_volume   4539.22424939
_cell_formula_units_Z   50
loop_
 _symmetry_equiv_pos_site_id
 _symmetry_equiv_pos_as_xyz
  1  'x, y, z'
loop_
 _atom_site_type_symbol
 _atom_site_label
 _atom_site_symmetry_multiplicity
 _atom_site_fract_x
 _atom_site_fract_y
 _atom_site_fract_z
 _atom_site_occupancy
  Zr  Zr0  1  0.49594283  0.89977764  0.90464517  1
  Zr  Zr1  1  0.30023675  0.49332668  0.90940068  1
  Zr  Zr2  1  0.30490794  0.50131010  0.49277224  1
  Zr  Zr3  1  0.89486752  0.30524189  0.49759051  1
  Zr  Zr4  1  0.90686596  0.30244154  0.69602233  1
  Zr  Zr5  1  0.68456352  0.69803394  0.49949657  1
  Zr  Zr6  1  0.10615535  0.08565950  0.89430068  1
  Zr  Zr7  1  0.30104366  0.70778509  0.10363973  1
  Zr  Zr8  1  0.89532701  0.69261984  0.10330481  1
  Zr  Zr9  1  0.11107739  0.09861868  0.50123581  1
  Zr  Zr10  1  0.10648868  0.69995921  0.49365651  1
  Zr  Zr11  1  0.50046014  0.49579936  0.91024134  1
  Zr  Zr12  1  0.30153154  0.90803160  0.90281911  1
  Zr  Zr13  1  0.89549345  0.30652277  0.29694725  1
  Zr  Zr14  1  0.11124141  0.90101907  0.50261399  1
  Zr  Zr15  1  0.09499006  0.70208835  0.70552047  1
  Zr  Zr16  1  0.89950619  0.51109734  0.69349264  1
  Zr  Zr17  1  0.11117754  0.29893492  0.70666321  1
  Zr  Zr18  1  0.49835339  0.49652801  0.29120260  1
  Zr  Zr19  1  0.10434261  0.30852307  0.29201217  1
  Zr  Zr20  1  0.29746383  0.89935005  0.69267518  1
  Zr  Zr21  1  0.30956710  0.30530683  0.50444788  1
  Zr  Zr22  1  0.29241331  0.30298299  0.89355904  1
  Zr  Zr23  1  0.49511558  0.69673056  0.10717818  1
  Zr  Zr24  1  0.69948951  0.29594321  0.30716103  1
  Zr  Zr25  1  0.69511007  0.09358832  0.69700030  1
  Zr  Zr26  1  0.49382599  0.10825552  0.69477767  1
  Zr  Zr27  1  0.69341497  0.89989546  0.29434862  1
  Zr  Zr28  1  0.10003592  0.68803471  0.29681820  1
  Zr  Zr29  1  0.30886603  0.71082852  0.50493477  1
  Zr  Zr30  1  0.69872922  0.11249596  0.49577341  1
  Zr  Zr31  1  0.09606455  0.50460515  0.49877246  1
  Zr  Zr32  1  0.90761647  0.29678008  0.89786253  1
  Zr  Zr33  1  0.90729531  0.50226910  0.29803960  1
  Zr  Zr34  1  0.68845564  0.49845917  0.89691435  1
  Zr  Zr35  1  0.69432287  0.90091675  0.89870839  1
  Zr  Zr36  1  0.69224618  0.90199832  0.09990512  1
  Zr  Zr37  1  0.09121996  0.71622837  0.89879604  1
  Zr  Zr38  1  0.69345787  0.10188490  0.29878744  1
  Zr  Zr39  1  0.10162434  0.90087612  0.71219691  1
  Zr  Zr40  1  0.70324499  0.70200425  0.69395698  1
  Zr  Zr41  1  0.50811881  0.49533162  0.50619716  1
  Zr  Zr42  1  0.90088067  0.50468075  0.90087731  1
  Zr  Zr43  1  0.49264429  0.89939893  0.09776575  1
  Zr  Zr44  1  0.89447924  0.90197731  0.29431365  1
  Zr  Zr45  1  0.69854050  0.29587411  0.89561704  1
  Zr  Zr46  1  0.50901138  0.49854128  0.70586125  1
  Zr  Zr47  1  0.10118612  0.50028860  0.30470348  1
  Zr  Zr48  1  0.89557209  0.10553846  0.70390339  1
  Zr  Zr49  1  0.89727266  0.90034025  0.49738113  1
  Sc  Sc50  1  0.90951972  0.90241949  0.89862752  1
  Sc  Sc51  1  0.10678338  0.88997458  0.08016436  1
  Sc  Sc52  1  0.69162026  0.89989294  0.50895811  1
  Sc  Sc53  1  0.50057796  0.90022672  0.29807934  1
  Sc  Sc54  1  0.29991098  0.10968688  0.69767029  1
  Sc  Sc55  1  0.49718218  0.09467113  0.50208708  1
  Sc  Sc56  1  0.10979140  0.10556804  0.09394276  1
  Sc  Sc57  1  0.30880171  0.89876317  0.30302407  1
  Sc  Sc58  1  0.09141580  0.30440741  0.50907011  1
  Sc  Sc59  1  0.90460785  0.09711444  0.89683599  1
  Sc  Sc60  1  0.11421453  0.10169998  0.29534644  1
  Sc  Sc61  1  0.31424195  0.69602313  0.90618500  1
  Sc  Sc62  1  0.88564923  0.09826682  0.30035761  1
  Sc  Sc63  1  0.50469820  0.29321890  0.90262244  1
  Sc  Sc64  1  0.29225796  0.30087545  0.09840961  1
  Sc  Sc65  1  0.29818904  0.70242110  0.29778535  1
  Sc  Sc66  1  0.10202977  0.49050612  0.11085687  1
  Sc  Sc67  1  0.30658452  0.10765468  0.09730067  1
  Sc  Sc68  1  0.89806910  0.49931222  0.10644144  1
  Sc  Sc69  1  0.89299699  0.90474006  0.09883505  1
  Sc  Sc70  1  0.69306777  0.29449213  0.69985285  1
  Sc  Sc71  1  0.49991778  0.30552194  0.50264851  1
  Sc  Sc72  1  0.88445415  0.90013498  0.70453345  1
  Sc  Sc73  1  0.69182447  0.29345517  0.11147846  1
  Sc  Sc74  1  0.50073608  0.30219417  0.29854372  1
  Sc  Sc75  1  0.10249211  0.30719061  0.90599792  1
  Sc  Sc76  1  0.31145226  0.49511163  0.09973463  1
  Sc  Sc77  1  0.89304299  0.68842067  0.51176902  1
  Sc  Sc78  1  0.69708714  0.49664999  0.69491045  1
  Sc  Sc79  1  0.49092965  0.10005511  0.90421609  1
  Sc  Sc80  1  0.50420846  0.91417018  0.68946414  1
  Sc  Sc81  1  0.89182496  0.10624510  0.50223135  1
  Sc  Sc82  1  0.69522839  0.10268984  0.89570364  1
  Sc  Sc83  1  0.30318783  0.09438309  0.50326907  1
  Sc  Sc84  1  0.89838463  0.49188937  0.50546080  1
  Sc  Sc85  1  0.30642557  0.10058172  0.30021439  1
  Sc  Sc86  1  0.31063053  0.50081421  0.70484248  1
  Sc  Sc87  1  0.69365384  0.09950890  0.10122239  1
  Sc  Sc88  1  0.29571203  0.49319037  0.30068158  1
  Sc  Sc89  1  0.69554016  0.69504984  0.10445169  1
  Sc  Sc90  1  0.11498845  0.89567384  0.31158886  1
  Sc  Sc91  1  0.69429579  0.48799233  0.29455358  1
  Sc  Sc92  1  0.50484647  0.68909923  0.90416600  1
  Sc  Sc93  1  0.89656458  0.69898544  0.89127639  1
  Sc  Sc94  1  0.49730122  0.09945777  0.30377602  1
  Sc  Sc95  1  0.09190769  0.50116758  0.70430484  1
  Sc  Sc96  1  0.69842111  0.68774246  0.90377761  1
  Sc  Sc97  1  0.49397626  0.89819277  0.49664637  1
  Sc  Sc98  1  0.10840703  0.10121454  0.69943604  1
  Sc  Sc99  1  0.89631739  0.09291369  0.09830726  1
  Nb  Nb100  1  0.51505691  0.70051975  0.30592004  1
  Nb  Nb101  1  0.30236918  0.10184250  0.89480760  1
  Nb  Nb102  1  0.30782721  0.89536594  0.10222161  1
  Nb  Nb103  1  0.30624405  0.69866431  0.70213790  1
  Nb  Nb104  1  0.70287379  0.31552186  0.49500471  1
  Nb  Nb105  1  0.70359072  0.49241937  0.50142605  1
  Nb  Nb106  1  0.29641364  0.29966006  0.30612900  1
  Nb  Nb107  1  0.89529574  0.69836121  0.29644441  1
  Nb  Nb108  1  0.10108121  0.69847059  0.09947068  1
  Nb  Nb109  1  0.29532906  0.90399990  0.49451898  1
  Nb  Nb110  1  0.30329327  0.29911838  0.70067809  1
  Nb  Nb111  1  0.49046996  0.30202911  0.69744764  1
  Nb  Nb112  1  0.90572278  0.29841623  0.09666434  1
  Nb  Nb113  1  0.50075976  0.69514740  0.69167944  1
  Nb  Nb114  1  0.69537289  0.70349830  0.30183684  1
  Nb  Nb115  1  0.50455910  0.69796710  0.49910488  1
  Nb  Nb116  1  0.49776302  0.29654874  0.09971713  1
  Nb  Nb117  1  0.49913664  0.11612114  0.09753482  1
  Nb  Nb118  1  0.10184271  0.90340816  0.89148429  1
  Nb  Nb119  1  0.90215685  0.69793754  0.69996917  1
  Nb  Nb120  1  0.69233363  0.89897494  0.70196534  1
  Nb  Nb121  1  0.50330994  0.48867851  0.09979513  1
  Nb  Nb122  1  0.10439567  0.50314455  0.90032457  1
  Nb  Nb123  1  0.69722353  0.49959486  0.08803004  1
  Nb  Nb124  1  0.09657406  0.29688582  0.10342311  1
  Nb  Nb125  1  0.00332666  0.19825669  0.39319615  1
  Nb  Nb126  1  0.80336124  0.20769560  0.00043514  1
  Nb  Nb127  1  0.20191512  0.60262731  0.80386712  1
  Nb  Nb128  1  0.20571619  -0.00766603  0.19181630  1
  Nb  Nb129  1  0.20560566  0.60180082  0.60654536  1
  Nb  Nb130  1  -0.00796483  0.79774472  0.39743227  1
  Nb  Nb131  1  0.40805972  0.79684080  0.79177926  1
  Nb  Nb132  1  0.01160511  -0.00382547  0.20300512  1
  Nb  Nb133  1  0.20184154  0.20827947  0.40109842  1
  Nb  Nb134  1  0.59650523  0.79953757  0.79235510  1
  Nb  Nb135  1  0.00219779  0.00168691  0.39908541  1
  Nb  Nb136  1  0.00223455  0.79877878  0.20298377  1
  Nb  Nb137  1  -0.00063833  -0.00333557  0.59827042  1
  Nb  Nb138  1  0.79892224  0.39559666  0.00006128  1
  Nb  Nb139  1  -0.00277710  0.80257429  0.59997894  1
  Nb  Nb140  1  0.19333341  0.60238798  -0.00027913  1
  Nb  Nb141  1  0.79180380  0.60156577  0.39469467  1
  Nb  Nb142  1  0.79710660  0.79188938  0.39527967  1
  Nb  Nb143  1  0.79557807  0.80007271  -0.00011950  1
  Nb  Nb144  1  0.20483623  0.40575601  0.60484633  1
  Nb  Nb145  1  0.00011636  0.19908406  0.19883282  1
  Nb  Nb146  1  0.41357787  0.60669443  0.40025191  1
  Nb  Nb147  1  0.40387757  0.39432792  0.80078859  1
  Nb  Nb148  1  0.80248594  0.39894376  0.80312196  1
  Nb  Nb149  1  0.00831147  0.60145793  0.00128784  1
  Pd  Pd150  1  0.39939053  0.19948275  0.40491219  1
  Pd  Pd151  1  0.00001189  0.40971816  0.00617711  1
  Pd  Pd152  1  0.79885424  0.00165875  0.80702487  1
  Pd  Pd153  1  0.19392570  0.39346786  0.41133742  1
  Pd  Pd154  1  0.79114112  0.59388113  0.79641320  1
  Pd  Pd155  1  0.40072146  0.59451363  0.59562604  1
  Pd  Pd156  1  0.21596747  0.79339816  0.81020979  1
  Pd  Pd157  1  0.40258241  0.59783159  0.80428412  1
  Pd  Pd158  1  0.58639079  0.00789540  0.19454915  1
  Pd  Pd159  1  0.58945617  0.20556491  0.40424889  1
  Pd  Pd160  1  0.00246384  0.19211798  0.59492191  1
  Pd  Pd161  1  0.39439652  0.38811846  0.20047742  1
  Pd  Pd162  1  0.79863645  0.00129499  0.59815930  1
  Pd  Pd163  1  0.79466854  0.79935215  0.80787700  1
  Pd  Pd164  1  0.19573186  0.79451021  0.60421542  1
  Pd  Pd165  1  0.01250048  0.19491719  0.80209382  1
  Pd  Pd166  1  -0.00203783  0.40413605  0.79704241  1
  Pd  Pd167  1  0.79259342  0.20900201  0.60203461  1
  Pd  Pd168  1  -0.00029676  0.18907500  0.00237668  1
  Pd  Pd169  1  0.60533318  0.59397347  0.19627922  1
  Pd  Pd170  1  0.39657753  0.60296929  0.20843029  1
  Pd  Pd171  1  0.39904827  0.00437574  0.19606785  1
  Pd  Pd172  1  0.00512112  0.00044767  0.00805309  1
  Pd  Pd173  1  0.19422985  0.80762546  0.20183829  1
  Pd  Pd174  1  0.60218825  0.58547277  0.39668873  1
  Pd  Pd175  1  0.59081120  0.19549916  0.79821928  1
  Pd  Pd176  1  0.20984014  0.79466758  -0.00986180  1
  Pd  Pd177  1  0.19922493  0.20023943  -0.00766724  1
  Pd  Pd178  1  0.40896953  0.80748390  0.60390414  1
  Pd  Pd179  1  0.79428980  0.40081924  0.19143006  1
  Pd  Pd180  1  -0.01357859  0.60458643  0.40718129  1
  Pd  Pd181  1  0.79330577  -0.00399011  0.40254858  1
  Pd  Pd182  1  0.59753728  0.20686020  0.59313994  1
  Pd  Pd183  1  0.60409603  0.38741086  0.00590647  1
  Pd  Pd184  1  0.59898663  -0.00392577  0.40572051  1
  Pd  Pd185  1  0.40446367  0.79721045  0.39375911  1
  Pd  Pd186  1  0.60296946  0.78912226  -0.00352803  1
  Pd  Pd187  1  0.20920126  0.00158106  0.00640584  1
  Pd  Pd188  1  0.20775331  0.59149619  0.19159267  1
  Pd  Pd189  1  0.79836934  0.80028587  0.19438054  1
  Pd  Pd190  1  0.78749094  0.59124511  0.20516322  1
  Pd  Pd191  1  0.39399866  0.20804452  -0.00616548  1
  Pd  Pd192  1  0.80092119  0.79897272  0.59407329  1
  Pd  Pd193  1  0.59074990  0.00106505  0.80156295  1
  Pd  Pd194  1  0.59279474  0.01008170  0.00078634  1
  Pd  Pd195  1  -0.01342613  0.79782922  0.00714957  1
  Pd  Pd196  1  0.39929818  -0.00160388  0.79179097  1
  Pd  Pd197  1  0.79647657  0.00266801  -0.00780127  1
  Pd  Pd198  1  0.39844615  0.20724051  0.20401016  1
  Pd  Pd199  1  0.80412424  0.19497449  0.19204023  1
  Rh  Rh200  1  0.60489664  0.19768860  0.00315082  1
  Rh  Rh201  1  0.40094133  0.79839251  -0.00585699  1
  Rh  Rh202  1  0.59452952  0.80056943  0.19713838  1
  Rh  Rh203  1  0.20508021  0.79324409  0.39630439  1
  Rh  Rh204  1  0.00630096  0.40300864  0.60619935  1
  Rh  Rh205  1  0.20153341  0.00072694  0.60676938  1
  Rh  Rh206  1  0.59631981  0.39932570  0.39964622  1
  Rh  Rh207  1  0.40517652  0.38980439  -0.00236712  1
  Rh  Rh208  1  0.60043032  0.39576946  0.19373098  1
  Rh  Rh209  1  -0.00173856  0.39553967  0.19800468  1
  Rh  Rh210  1  0.20705887  0.39951736  0.19552156  1
  Rh  Rh211  1  -0.01281227  0.80877244  0.79137847  1
  Rh  Rh212  1  -0.00438085  0.00039019  0.78970685  1
  Rh  Rh213  1  0.59099635  0.59967585  0.01204112  1
  Rh  Rh214  1  0.40821761  0.79672594  0.20815623  1
  Rh  Rh215  1  0.80223947  0.20272533  0.80300300  1
  Rh  Rh216  1  0.80556185  0.59745659  0.00176570  1
  Rh  Rh217  1  0.79697826  0.39574454  0.61060016  1
  Rh  Rh218  1  0.60112403  0.00540854  0.59392039  1
  Rh  Rh219  1  0.19955312  0.19448248  0.80645452  1
  Rh  Rh220  1  0.00449231  0.60198303  0.80844242  1
  Rh  Rh221  1  0.20138391  0.19997590  0.20334189  1
  Rh  Rh222  1  0.39769853  -0.00252614  0.40216074  1
  Rh  Rh223  1  0.80157278  0.41132006  0.39609773  1
  Rh  Rh224  1  0.21665867  0.60749303  0.40617598  1
  Rh  Rh225  1  0.39328652  -0.00179073  0.59784667  1
  Rh  Rh226  1  0.60513815  0.39224483  0.60300928  1
  Rh  Rh227  1  0.39816188  0.40550637  0.60913809  1
  Rh  Rh228  1  0.60196908  0.80926564  0.40161459  1
  Rh  Rh229  1  0.80274083  0.20441246  0.40113253  1
  Rh  Rh230  1  0.39703143  0.00657149  0.00736885  1
  Rh  Rh231  1  0.59696944  0.39333893  0.79684188  1
  Rh  Rh232  1  0.39906293  0.20532380  0.80410470  1
  Rh  Rh233  1  0.20622883  0.21334362  0.59178212  1
  Rh  Rh234  1  0.21195575  0.00451617  0.79516074  1
  Rh  Rh235  1  0.00367045  0.60295129  0.19349884  1
  Rh  Rh236  1  0.79256175  0.00565954  0.19782187  1
  Rh  Rh237  1  0.60377799  0.59570607  0.60186800  1
  Rh  Rh238  1  0.00739939  0.60696184  0.59687534  1
  Rh  Rh239  1  0.20819797  0.41134155  0.79192820  1
  Rh  Rh240  1  0.39967036  0.19838784  0.59433496  1
  Rh  Rh241  1  0.40031369  0.59773606  0.01153118  1
  Rh  Rh242  1  0.20749661  0.00815543  0.39104563  1
  Rh  Rh243  1  0.79099686  0.59733414  0.59497339  1
  Rh  Rh244  1  0.60337978  0.61039184  0.79105403  1
  Rh  Rh245  1  0.59153085  0.80261249  0.60507894  1
  Rh  Rh246  1  0.59144184  0.19773785  0.20594679  1
  Rh  Rh247  1  0.40696165  0.40663088  0.39272169  1
  Rh  Rh248  1  -0.00098614  0.39632723  0.39890659  1
  Rh  Rh249  1  0.19475747  0.40402887  0.00902516  1
