# generated using pymatgen
data_ZrScNbPdRh
_symmetry_space_group_name_H-M   'P 1'
_cell_length_a   16.55645824
_cell_length_b   16.55065004
_cell_length_c   16.55595951
_cell_angle_alpha   90.03535349
_cell_angle_beta   89.97992658
_cell_angle_gamma   90.02685463
_symmetry_Int_Tables_number   1
_chemical_formula_structural   ZrScNbPdRh
_chemical_formula_sum   'Zr50 Sc50 Nb50 Pd50 Rh50'
_cell_volume   4536.66480582
_cell_formula_units_Z   50
loop_
 _symmetry_equiv_pos_site_id
 _symmetry_equiv_pos_as_xyz
  1  'x, y, z'
loop_
 _atom_site_type_symbol
 _atom_site_label
 _atom_site_symmetry_multiplicity
 _atom_site_fract_x
 _atom_site_fract_y
 _atom_site_fract_z
 _atom_site_occupancy
  Zr  Zr0  1  0.50165225  0.89002564  0.09525619  1
  Zr  Zr1  1  0.50083692  0.90374901  0.49735098  1
  Zr  Zr2  1  0.10495119  0.29948122  0.30184323  1
  Zr  Zr3  1  0.50440835  0.70047420  0.90635748  1
  Zr  Zr4  1  0.30144243  0.90190864  0.49533855  1
  Zr  Zr5  1  0.49465259  0.29836268  0.89812091  1
  Zr  Zr6  1  0.29460720  0.11012827  0.70632482  1
  Zr  Zr7  1  0.89229013  0.30322562  0.69315850  1
  Zr  Zr8  1  0.89404849  0.09425628  0.29699709  1
  Zr  Zr9  1  0.90588130  0.29817090  0.30558451  1
  Zr  Zr10  1  0.30738814  0.69878446  0.09821273  1
  Zr  Zr11  1  0.09842279  0.49994093  0.30465169  1
  Zr  Zr12  1  0.50057559  0.69508392  0.69337848  1
  Zr  Zr13  1  0.70733169  0.30442831  0.51164194  1
  Zr  Zr14  1  0.09659909  0.70069247  0.09980586  1
  Zr  Zr15  1  0.30632680  0.29449797  0.90063694  1
  Zr  Zr16  1  0.29452791  0.90306667  0.29943475  1
  Zr  Zr17  1  0.10242380  0.90837184  0.90091364  1
  Zr  Zr18  1  0.09522293  0.29224894  0.90766804  1
  Zr  Zr19  1  0.09882107  0.10832602  0.50756869  1
  Zr  Zr20  1  0.50340072  0.70418220  0.09462758  1
  Zr  Zr21  1  0.90088033  0.89902555  0.29400781  1
  Zr  Zr22  1  0.09908761  0.50220037  0.70651725  1
  Zr  Zr23  1  0.50519676  0.49769017  0.30313159  1
  Zr  Zr24  1  0.50171358  0.51136885  0.09979808  1
  Zr  Zr25  1  0.89362256  0.89132515  0.09855630  1
  Zr  Zr26  1  0.89897070  0.09905768  0.90567694  1
  Zr  Zr27  1  0.69894827  0.69894857  0.50265892  1
  Zr  Zr28  1  0.09508739  0.49898821  0.90094408  1
  Zr  Zr29  1  0.09862510  0.70530695  0.31199032  1
  Zr  Zr30  1  0.70220824  0.89781034  0.69756063  1
  Zr  Zr31  1  0.10043192  0.89588505  0.48825729  1
  Zr  Zr32  1  0.29492415  0.30359442  0.50449737  1
  Zr  Zr33  1  0.90409073  0.69781002  0.50119534  1
  Zr  Zr34  1  0.10760616  0.29466124  0.69977931  1
  Zr  Zr35  1  0.69830017  0.49815280  0.69717268  1
  Zr  Zr36  1  0.70144080  0.10088554  0.69972770  1
  Zr  Zr37  1  0.49793253  0.49245256  0.90227351  1
  Zr  Zr38  1  0.49174177  0.90026588  0.90112195  1
  Zr  Zr39  1  0.90261620  0.29898718  0.90804498  1
  Zr  Zr40  1  0.09664194  0.89834410  0.29705486  1
  Zr  Zr41  1  0.49615099  0.30084306  0.09588925  1
  Zr  Zr42  1  0.09352693  0.09815813  0.30290032  1
  Zr  Zr43  1  0.50225963  0.89972877  0.29610887  1
  Zr  Zr44  1  0.30202648  0.70173162  0.70262424  1
  Zr  Zr45  1  0.29946148  0.69058390  0.50412436  1
  Zr  Zr46  1  0.29695956  0.30053794  0.29385772  1
  Zr  Zr47  1  0.49883037  0.30082078  0.29582256  1
  Zr  Zr48  1  0.29869867  0.70078076  0.29743012  1
  Zr  Zr49  1  0.70379244  0.89990097  0.29645457  1
  Sc  Sc50  1  0.69794813  0.50505202  0.89408857  1
  Sc  Sc51  1  0.30258265  0.10622678  0.48909450  1
  Sc  Sc52  1  0.89795723  0.50269778  0.11781186  1
  Sc  Sc53  1  0.49997445  0.50005057  0.50184233  1
  Sc  Sc54  1  0.10108799  0.51369947  0.50298023  1
  Sc  Sc55  1  0.29845289  0.69863316  0.89292815  1
  Sc  Sc56  1  0.90137791  0.69559057  0.29411934  1
  Sc  Sc57  1  0.09627745  0.90178048  0.10003507  1
  Sc  Sc58  1  0.89520093  0.90322789  0.70416854  1
  Sc  Sc59  1  0.29807699  0.30439521  0.70550789  1
  Sc  Sc60  1  0.09606848  0.29793647  0.49553793  1
  Sc  Sc61  1  0.10182508  0.91371152  0.70998277  1
  Sc  Sc62  1  0.69892084  0.88842554  0.49564642  1
  Sc  Sc63  1  0.90354764  0.10436599  0.50329975  1
  Sc  Sc64  1  0.10809364  0.68777090  0.89238670  1
  Sc  Sc65  1  0.89514643  0.89852425  0.49616778  1
  Sc  Sc66  1  0.30080265  0.49748287  0.30498063  1
  Sc  Sc67  1  0.50228732  0.31131403  0.49888391  1
  Sc  Sc68  1  0.10880811  0.09739641  0.08626151  1
  Sc  Sc69  1  0.69950456  0.10495098  0.09347319  1
  Sc  Sc70  1  0.29558140  0.50119968  0.90480875  1
  Sc  Sc71  1  0.70290227  0.70148085  0.89799839  1
  Sc  Sc72  1  0.29965269  0.10653421  0.30068048  1
  Sc  Sc73  1  0.70375607  0.29082167  0.89874587  1
  Sc  Sc74  1  0.29903643  0.09667403  0.90300457  1
  Sc  Sc75  1  0.89583004  0.70110823  0.70244942  1
  Sc  Sc76  1  0.90586383  0.09833828  0.70013926  1
  Sc  Sc77  1  0.69229745  0.30640640  0.29240567  1
  Sc  Sc78  1  0.49877283  0.69570052  0.29030652  1
  Sc  Sc79  1  0.70032736  0.50441135  0.29593401  1
  Sc  Sc80  1  0.09681318  0.10318069  0.70634387  1
  Sc  Sc81  1  0.91104427  0.49905994  0.50463534  1
  Sc  Sc82  1  0.69701214  0.10203711  0.28615725  1
  Sc  Sc83  1  0.49460439  0.10400886  0.29885818  1
  Sc  Sc84  1  0.29859469  0.90008897  0.09171342  1
  Sc  Sc85  1  0.29934550  0.49483237  0.68958772  1
  Sc  Sc86  1  0.90753289  0.29904643  0.50517442  1
  Sc  Sc87  1  0.89704439  0.90421555  0.90204410  1
  Sc  Sc88  1  0.70033878  0.09759241  0.90042458  1
  Sc  Sc89  1  0.50435449  0.69663776  0.49626289  1
  Sc  Sc90  1  0.89641561  0.70593340  0.89818003  1
  Sc  Sc91  1  0.71091057  0.90218338  0.89951600  1
  Sc  Sc92  1  0.51371967  0.09800799  0.70306315  1
  Sc  Sc93  1  0.50890066  0.10025902  0.09097600  1
  Sc  Sc94  1  0.90469161  0.49986812  0.70658679  1
  Sc  Sc95  1  0.69859417  0.69990930  0.30952502  1
  Sc  Sc96  1  0.70099136  0.29952392  0.70009187  1
  Sc  Sc97  1  0.49491002  0.89894719  0.70279735  1
  Sc  Sc98  1  0.10371877  0.68592400  0.70360128  1
  Sc  Sc99  1  0.30456231  0.49825742  0.10045261  1
  Nb  Nb100  1  0.90148713  0.50066655  0.90578499  1
  Nb  Nb101  1  0.69982916  0.29974746  0.09759432  1
  Nb  Nb102  1  0.69151368  0.10474016  0.51034578  1
  Nb  Nb103  1  0.89754774  0.70278827  0.09784604  1
  Nb  Nb104  1  0.29915500  0.89888513  0.70560100  1
  Nb  Nb105  1  0.49829707  0.49132328  0.70520029  1
  Nb  Nb106  1  0.29708990  0.89442709  0.88453980  1
  Nb  Nb107  1  0.30343308  0.50499684  0.50264729  1
  Nb  Nb108  1  0.69919766  0.49772754  0.49525322  1
  Nb  Nb109  1  0.48669547  0.30998811  0.70704351  1
  Nb  Nb110  1  0.50114301  0.09964235  0.50371318  1
  Nb  Nb111  1  0.09890615  0.70080059  0.50355328  1
  Nb  Nb112  1  0.69980061  0.88938065  0.09760016  1
  Nb  Nb113  1  0.90244600  0.49592296  0.30481596  1
  Nb  Nb114  1  0.50257310  0.10243072  0.89952432  1
  Nb  Nb115  1  0.09984080  0.09700618  0.89751836  1
  Nb  Nb116  1  0.10013795  0.29790902  0.10183082  1
  Nb  Nb117  1  0.70177620  0.49814835  0.09931115  1
  Nb  Nb118  1  0.10413324  0.49909706  0.10181907  1
  Nb  Nb119  1  0.69994487  0.70289799  0.09184216  1
  Nb  Nb120  1  0.70273166  0.70254321  0.69793838  1
  Nb  Nb121  1  0.90088070  0.29491190  0.09792388  1
  Nb  Nb122  1  0.29878873  0.10109674  0.09839280  1
  Nb  Nb123  1  0.29098724  0.29479128  0.10076554  1
  Nb  Nb124  1  0.89319249  0.10636721  0.09779642  1
  Nb  Nb125  1  0.19593915  0.39249380  0.00816370  1
  Nb  Nb126  1  0.19938899  0.80039604  -0.00818542  1
  Nb  Nb127  1  0.79295190  0.60020212  0.59968115  1
  Nb  Nb128  1  0.60315947  0.19817404  0.40647254  1
  Nb  Nb129  1  0.79076756  0.20189465  0.40335628  1
  Nb  Nb130  1  0.40694516  0.59388976  0.79560389  1
  Nb  Nb131  1  0.00414973  0.39445662  0.19806021  1
  Nb  Nb132  1  0.39806724  0.00120483  0.19219691  1
  Nb  Nb133  1  0.20674848  -0.00222429  0.60084140  1
  Nb  Nb134  1  0.39614069  0.00624900  0.60124429  1
  Nb  Nb135  1  -0.00160157  0.20005282  0.19137926  1
  Nb  Nb136  1  0.60284296  0.00872561  0.40407263  1
  Nb  Nb137  1  0.80189019  0.40064129  0.40100462  1
  Nb  Nb138  1  -0.00678536  0.59767402  0.00494356  1
  Nb  Nb139  1  0.40588601  0.20041801  0.60308793  1
  Nb  Nb140  1  0.19690898  0.80439277  0.60354701  1
  Nb  Nb141  1  0.79133713  0.00255317  0.59646811  1
  Nb  Nb142  1  0.00923778  0.79963811  0.60377043  1
  Nb  Nb143  1  0.60646578  0.39933055  0.00405238  1
  Nb  Nb144  1  0.80094325  0.40253947  0.00740936  1
  Nb  Nb145  1  0.80352274  0.59690309  0.00659654  1
  Nb  Nb146  1  0.00541115  0.80145641  0.79813956  1
  Nb  Nb147  1  0.60185211  0.79712422  0.79667605  1
  Nb  Nb148  1  0.39803515  0.80102071  0.39688867  1
  Nb  Nb149  1  0.19705765  0.59988055  0.20007482  1
  Pd  Pd150  1  0.00481461  0.59878921  0.20041389  1
  Pd  Pd151  1  0.19935030  0.79861140  0.18921818  1
  Pd  Pd152  1  0.40358965  0.19223497  0.19021593  1
  Pd  Pd153  1  0.78952356  0.01038253  0.40863496  1
  Pd  Pd154  1  0.19125787  0.40519503  0.59409541  1
  Pd  Pd155  1  0.00873193  0.40002295  0.60099814  1
  Pd  Pd156  1  -0.00087573  0.00729090  0.18684790  1
  Pd  Pd157  1  -0.00188784  0.39156982  0.79710409  1
  Pd  Pd158  1  0.59690321  0.60493458  0.79998787  1
  Pd  Pd159  1  0.39633614  0.60136818  -0.00842947  1
  Pd  Pd160  1  0.40161392  0.00938481  0.79449570  1
  Pd  Pd161  1  0.59583528  0.39787757  0.60346121  1
  Pd  Pd162  1  0.40607575  0.21019916  0.40744192  1
  Pd  Pd163  1  0.80661116  0.19600021  0.79926267  1
  Pd  Pd164  1  0.79940432  0.40063697  0.80876033  1
  Pd  Pd165  1  0.60115603  0.59335434  0.59766331  1
  Pd  Pd166  1  0.60732163  0.39138621  0.80679820  1
  Pd  Pd167  1  0.00762598  0.79244670  -0.01216823  1
  Pd  Pd168  1  0.58921528  0.21480794  0.60370549  1
  Pd  Pd169  1  0.80408214  0.59910967  0.79953755  1
  Pd  Pd170  1  0.60240527  -0.00899723  0.80753248  1
  Pd  Pd171  1  0.20283395  0.39970169  0.80990930  1
  Pd  Pd172  1  0.80633634  0.79512633  0.39466743  1
  Pd  Pd173  1  0.79337588  -0.00199142  0.18760532  1
  Pd  Pd174  1  0.59679583  0.40230754  0.19282525  1
  Pd  Pd175  1  -0.00507069  0.00149703  0.40727084  1
  Pd  Pd176  1  -0.00535987  0.20325337  0.79748272  1
  Pd  Pd177  1  -0.00535388  0.00210360  0.00622426  1
  Pd  Pd178  1  0.60764870  0.79116262  0.20302738  1
  Pd  Pd179  1  -0.00337902  0.40821730  0.01194938  1
  Pd  Pd180  1  0.39634756  0.39872773  0.40255926  1
  Pd  Pd181  1  0.59532602  0.00303555  0.19805064  1
  Pd  Pd182  1  0.39954987  0.19282124  0.00297963  1
  Pd  Pd183  1  0.19694485  0.01009188  0.40327813  1
  Pd  Pd184  1  0.79205922  0.60855241  0.19756734  1
  Pd  Pd185  1  0.39539704  0.00015131  0.00097940  1
  Pd  Pd186  1  0.39820595  0.40415861  0.19652518  1
  Pd  Pd187  1  0.80545420  0.39411316  0.20268049  1
  Pd  Pd188  1  0.80029868  0.20643331  0.20362704  1
  Pd  Pd189  1  -0.00063252  -0.00846897  0.59773484  1
  Pd  Pd190  1  0.60784224  0.60712157  0.19982408  1
  Pd  Pd191  1  0.60704715  -0.00647794  -0.00430797  1
  Pd  Pd192  1  0.39782910  0.80503096  0.59410424  1
  Pd  Pd193  1  0.19929088  0.40689144  0.40959230  1
  Pd  Pd194  1  0.20381646  0.00479401  0.19655542  1
  Pd  Pd195  1  0.59601815  0.80378933  0.60357585  1
  Pd  Pd196  1  0.80549625  0.59219426  0.40606179  1
  Pd  Pd197  1  0.19210116  0.18896521  0.19928122  1
  Pd  Pd198  1  0.40529664  0.60412818  0.39653480  1
  Pd  Pd199  1  0.59673691  0.20512563  0.79991767  1
  Rh  Rh200  1  0.39938089  0.39724980  0.59757440  1
  Rh  Rh201  1  0.20643846  0.19638044  0.59663834  1
  Rh  Rh202  1  -0.00128654  0.40497361  0.40013981  1
  Rh  Rh203  1  0.19499431  0.60128761  0.01059422  1
  Rh  Rh204  1  0.20191183  0.20124223  -0.00403593  1
  Rh  Rh205  1  0.41025375  0.78903794  0.80319944  1
  Rh  Rh206  1  0.20238857  0.00899786  0.79836124  1
  Rh  Rh207  1  0.00028197  0.20640154  0.60790168  1
  Rh  Rh208  1  0.79601868  0.20320258  -0.00048631  1
  Rh  Rh209  1  0.80901895  0.79971110  0.60089302  1
  Rh  Rh210  1  -0.00288556  0.80002676  0.20212960  1
  Rh  Rh211  1  -0.00204103  0.60116293  0.39978415  1
  Rh  Rh212  1  0.40930176  -0.00254508  0.39301393  1
  Rh  Rh213  1  0.21511315  0.58824498  0.79221359  1
  Rh  Rh214  1  0.00184788  0.18843616  0.00526305  1
  Rh  Rh215  1  0.39395188  0.59219953  0.20450293  1
  Rh  Rh216  1  0.20090336  0.59937652  0.39785557  1
  Rh  Rh217  1  -0.00688999  0.60723345  0.60827338  1
  Rh  Rh218  1  0.39721279  0.81110983  0.20441636  1
  Rh  Rh219  1  0.80658115  0.19127711  0.59960466  1
  Rh  Rh220  1  -0.00533165  -0.00186178  0.80754676  1
  Rh  Rh221  1  0.38700475  0.80037517  -0.01004395  1
  Rh  Rh222  1  0.41014383  0.19208687  0.79444577  1
  Rh  Rh223  1  0.59145460  0.80262704  0.39381017  1
  Rh  Rh224  1  -0.00825530  0.79930244  0.40156731  1
  Rh  Rh225  1  0.59680510  0.20155299  0.20003917  1
  Rh  Rh226  1  0.19885557  0.40657710  0.19489681  1
  Rh  Rh227  1  0.40631226  0.58980867  0.60476638  1
  Rh  Rh228  1  0.60092522  -0.00951811  0.59586485  1
  Rh  Rh229  1  0.38863846  0.41002331  0.80161882  1
  Rh  Rh230  1  0.59708507  0.59701049  0.39846847  1
  Rh  Rh231  1  0.61082116  0.59257993  0.00141291  1
  Rh  Rh232  1  0.39515920  0.39688089  0.00499993  1
  Rh  Rh233  1  0.18884689  0.80092542  0.79938274  1
  Rh  Rh234  1  0.79732523  0.79534352  -0.00206989  1
  Rh  Rh235  1  -0.00900557  0.60791605  0.80907695  1
  Rh  Rh236  1  0.80199564  0.00607834  0.79343099  1
  Rh  Rh237  1  0.20728945  -0.00579828  -0.00625965  1
  Rh  Rh238  1  0.79637600  0.79343858  0.20200820  1
  Rh  Rh239  1  0.80463215  0.41517584  0.59406187  1
  Rh  Rh240  1  0.20893428  0.78948039  0.40957242  1
  Rh  Rh241  1  0.60021372  0.20629350  -0.00550525  1
  Rh  Rh242  1  0.80019560  0.80143372  0.79942426  1
  Rh  Rh243  1  -0.00586708  0.19240442  0.39525663  1
  Rh  Rh244  1  0.60864838  0.80831031  -0.01211345  1
  Rh  Rh245  1  0.60936313  0.39808675  0.39942338  1
  Rh  Rh246  1  0.19572285  0.19929174  0.81082074  1
  Rh  Rh247  1  0.20019401  0.60125922  0.60237186  1
  Rh  Rh248  1  0.19916845  0.20070287  0.39904613  1
  Rh  Rh249  1  0.79807180  0.00004413  0.00771980  1
