# generated using pymatgen
data_ZrScNbPdRh
_symmetry_space_group_name_H-M   'P 1'
_cell_length_a   16.55548236
_cell_length_b   16.55444150
_cell_length_c   16.55758086
_cell_angle_alpha   90.01923041
_cell_angle_beta   89.96907146
_cell_angle_gamma   89.99810032
_symmetry_Int_Tables_number   1
_chemical_formula_structural   ZrScNbPdRh
_chemical_formula_sum   'Zr50 Sc50 Nb50 Pd50 Rh50'
_cell_volume   4537.88169076
_cell_formula_units_Z   50
loop_
 _symmetry_equiv_pos_site_id
 _symmetry_equiv_pos_as_xyz
  1  'x, y, z'
loop_
 _atom_site_type_symbol
 _atom_site_label
 _atom_site_symmetry_multiplicity
 _atom_site_fract_x
 _atom_site_fract_y
 _atom_site_fract_z
 _atom_site_occupancy
  Zr  Zr0  1  0.30062246  0.90426342  0.91052158  1
  Zr  Zr1  1  0.49848537  0.29561084  0.29537075  1
  Zr  Zr2  1  0.30679557  0.49825954  0.89824172  1
  Zr  Zr3  1  0.69502611  0.70922550  0.30063943  1
  Zr  Zr4  1  0.90798657  0.29897369  0.89749322  1
  Zr  Zr5  1  0.49828359  0.70623733  0.09853776  1
  Zr  Zr6  1  0.50258776  0.10037143  0.89781447  1
  Zr  Zr7  1  0.90459826  0.30398027  0.30013753  1
  Zr  Zr8  1  0.70480496  0.29923632  0.30356121  1
  Zr  Zr9  1  0.50155615  0.30550223  0.50924950  1
  Zr  Zr10  1  0.09434780  0.89713411  0.70271742  1
  Zr  Zr11  1  0.70710709  0.30081156  0.90074110  1
  Zr  Zr12  1  0.49385049  0.48628659  0.70153047  1
  Zr  Zr13  1  0.90439861  0.48952942  0.89972194  1
  Zr  Zr14  1  0.49873193  0.28976323  0.69851202  1
  Zr  Zr15  1  0.50082955  0.29641415  0.09967262  1
  Zr  Zr16  1  0.29151392  0.49917900  0.29650663  1
  Zr  Zr17  1  0.69852826  0.50511287  0.70418209  1
  Zr  Zr18  1  0.30509716  0.89174269  0.09871385  1
  Zr  Zr19  1  0.70328205  0.09968985  0.29764758  1
  Zr  Zr20  1  0.90929886  0.29711188  0.09785968  1
  Zr  Zr21  1  0.90409336  0.70549231  0.09748665  1
  Zr  Zr22  1  0.10238549  0.69952180  0.50078298  1
  Zr  Zr23  1  0.10232622  0.90435265  0.50878987  1
  Zr  Zr24  1  0.69918094  0.49433104  0.50354834  1
  Zr  Zr25  1  0.30619161  0.29934310  0.70529602  1
  Zr  Zr26  1  0.09820415  0.30520121  0.70333024  1
  Zr  Zr27  1  0.70072208  0.30497571  0.69779232  1
  Zr  Zr28  1  0.89460555  0.70465285  0.89908279  1
  Zr  Zr29  1  0.29451071  0.09851673  0.50324143  1
  Zr  Zr30  1  0.09347786  0.28174750  0.49651042  1
  Zr  Zr31  1  0.09658738  0.30326461  0.29783187  1
  Zr  Zr32  1  0.09929607  0.69600196  0.69866393  1
  Zr  Zr33  1  0.89647153  0.30588510  0.49751865  1
  Zr  Zr34  1  0.89879142  0.70588876  0.70332818  1
  Zr  Zr35  1  0.10096451  0.29026383  0.90318351  1
  Zr  Zr36  1  0.50215048  0.69913907  0.31215342  1
  Zr  Zr37  1  0.90796916  0.10527253  0.50393230  1
  Zr  Zr38  1  0.69821732  0.69601720  0.50237461  1
  Zr  Zr39  1  0.49755402  0.88937565  0.50037248  1
  Zr  Zr40  1  0.30326353  0.69872139  0.70351930  1
  Zr  Zr41  1  0.50603636  0.50275141  0.89824706  1
  Zr  Zr42  1  0.08610639  0.90154570  0.09706549  1
  Zr  Zr43  1  0.68967548  0.10060501  0.70153576  1
  Zr  Zr44  1  0.30873457  0.09102909  0.09544640  1
  Zr  Zr45  1  0.71248354  0.89672128  0.49640383  1
  Zr  Zr46  1  0.89568946  0.70587997  0.50329001  1
  Zr  Zr47  1  0.49587108  0.09976605  0.50934423  1
  Zr  Zr48  1  0.10180324  0.69766194  0.09784665  1
  Zr  Zr49  1  0.69385182  0.49961084  0.08763060  1
  Sc  Sc50  1  0.70587614  0.09015967  0.50482863  1
  Sc  Sc51  1  0.10357172  0.50872240  0.50003974  1
  Sc  Sc52  1  0.49486403  0.10420279  0.29647463  1
  Sc  Sc53  1  0.29755330  0.29770762  0.29307947  1
  Sc  Sc54  1  0.29895749  0.70335860  0.49415393  1
  Sc  Sc55  1  0.70200853  0.50448357  0.31208732  1
  Sc  Sc56  1  0.09990314  0.50254901  0.29986397  1
  Sc  Sc57  1  0.49603757  0.89529315  0.69638360  1
  Sc  Sc58  1  0.69838128  0.70323332  0.08088475  1
  Sc  Sc59  1  0.89666095  0.89192338  0.70017228  1
  Sc  Sc60  1  0.50132626  0.69895246  0.89754750  1
  Sc  Sc61  1  0.09319497  0.89267706  0.29433934  1
  Sc  Sc62  1  0.10067649  0.69447122  0.30140804  1
  Sc  Sc63  1  0.30563940  0.89683504  0.49833889  1
  Sc  Sc64  1  0.89635528  0.10263324  0.29470444  1
  Sc  Sc65  1  0.69994332  0.89855583  0.70235859  1
  Sc  Sc66  1  0.30192863  0.69541296  0.90762754  1
  Sc  Sc67  1  0.69929071  0.90301449  0.90130699  1
  Sc  Sc68  1  0.50211827  0.30638036  0.89232070  1
  Sc  Sc69  1  0.89673863  0.10580688  0.90385815  1
  Sc  Sc70  1  0.09979026  0.09996019  0.68142601  1
  Sc  Sc71  1  0.89826769  0.30293885  0.71237580  1
  Sc  Sc72  1  0.29279743  0.50025737  0.50434607  1
  Sc  Sc73  1  0.29399367  0.70180223  0.30783146  1
  Sc  Sc74  1  0.49643560  0.89989219  0.09366407  1
  Sc  Sc75  1  0.50848642  0.70710705  0.70233441  1
  Sc  Sc76  1  0.89607115  0.10485738  0.70753966  1
  Sc  Sc77  1  0.89414188  0.50617071  0.49536420  1
  Sc  Sc78  1  0.69875368  0.09761844  0.90099698  1
  Sc  Sc79  1  0.10103032  0.29768680  0.10427533  1
  Sc  Sc80  1  0.30748667  0.10547484  0.30149637  1
  Sc  Sc81  1  0.29422164  0.29803068  0.50065124  1
  Sc  Sc82  1  0.50251650  0.50456269  0.30893734  1
  Sc  Sc83  1  0.49466997  0.49814920  0.08702158  1
  Sc  Sc84  1  0.50571194  0.10191271  0.09865853  1
  Sc  Sc85  1  0.89737542  0.90961627  0.29121977  1
  Sc  Sc86  1  0.50173216  0.89935549  0.90173160  1
  Sc  Sc87  1  0.10768574  0.49549643  0.90192692  1
  Sc  Sc88  1  0.90998564  0.50232655  0.09354276  1
  Sc  Sc89  1  0.09344809  0.10202807  0.09834027  1
  Sc  Sc90  1  0.90251992  0.69627420  0.30225703  1
  Sc  Sc91  1  0.69512011  0.50140882  0.89802478  1
  Sc  Sc92  1  0.89611765  0.49499055  0.70117364  1
  Sc  Sc93  1  0.90551562  0.50037847  0.30512342  1
  Sc  Sc94  1  0.29684428  0.49832146  0.09464669  1
  Sc  Sc95  1  0.69455472  0.29095192  0.09581196  1
  Sc  Sc96  1  0.09853739  0.11307971  0.29596066  1
  Sc  Sc97  1  0.49729493  0.88699078  0.29788011  1
  Sc  Sc98  1  0.29199644  0.49777646  0.70158506  1
  Sc  Sc99  1  0.70010459  0.10102591  0.09222381  1
  Nb  Nb100  1  0.69694086  0.89991302  0.10128467  1
  Nb  Nb101  1  0.49856469  0.69653674  0.50022177  1
  Nb  Nb102  1  0.49268210  0.10564924  0.69867922  1
  Nb  Nb103  1  0.89954912  0.90268775  0.49909983  1
  Nb  Nb104  1  0.10204209  0.50635468  0.69776088  1
  Nb  Nb105  1  0.70173949  0.30091190  0.50003871  1
  Nb  Nb106  1  0.29644812  0.90068213  0.70211623  1
  Nb  Nb107  1  0.10254766  0.70396793  0.89559617  1
  Nb  Nb108  1  0.70593414  0.70327329  0.71109293  1
  Nb  Nb109  1  0.29319893  0.29371173  0.90000019  1
  Nb  Nb110  1  0.10361488  0.09514042  0.90331635  1
  Nb  Nb111  1  0.10033159  0.09868681  0.49622165  1
  Nb  Nb112  1  0.10248804  0.90059691  0.90250563  1
  Nb  Nb113  1  0.69735261  0.90071238  0.29990482  1
  Nb  Nb114  1  0.30012896  0.69715965  0.10029519  1
  Nb  Nb115  1  0.29218977  0.89752283  0.30187841  1
  Nb  Nb116  1  0.69653074  0.69889521  0.88364769  1
  Nb  Nb117  1  0.90875372  0.90135954  0.90288662  1
  Nb  Nb118  1  0.50078954  0.50534068  0.49982494  1
  Nb  Nb119  1  0.30473568  0.09988755  0.70091603  1
  Nb  Nb120  1  0.90118703  0.90353441  0.09865492  1
  Nb  Nb121  1  0.10314747  0.50604485  0.10968170  1
  Nb  Nb122  1  0.30748069  0.30026290  0.09677217  1
  Nb  Nb123  1  0.29440271  0.10473929  0.89684593  1
  Nb  Nb124  1  0.90720918  0.08772426  0.10349697  1
  Nb  Nb125  1  -0.00333754  0.80773146  0.40584598  1
  Nb  Nb126  1  0.60018894  -0.00214977  0.39701200  1
  Nb  Nb127  1  0.79768664  0.80351108  0.19204536  1
  Nb  Nb128  1  0.00281056  0.00061580  0.40392224  1
  Nb  Nb129  1  0.40770965  0.60021382  0.59548897  1
  Nb  Nb130  1  0.20141432  0.80066717  0.19349923  1
  Nb  Nb131  1  0.00457287  0.40125899  0.60102125  1
  Nb  Nb132  1  0.19511615  0.00048334  0.39601831  1
  Nb  Nb133  1  0.40096222  0.60320450  0.19963028  1
  Nb  Nb134  1  0.79518568  0.20578411  0.60000551  1
  Nb  Nb135  1  0.20261950  -0.00607454  0.20289585  1
  Nb  Nb136  1  0.60377902  0.40482990  0.20036149  1
  Nb  Nb137  1  0.00472407  0.60114532  0.80087987  1
  Nb  Nb138  1  0.19887126  0.80505569  0.80438398  1
  Nb  Nb139  1  0.39203878  0.20266568  -0.00815181  1
  Nb  Nb140  1  0.40167306  0.40261863  0.40376065  1
  Nb  Nb141  1  0.60457999  -0.00689196  0.20347382  1
  Nb  Nb142  1  0.79749197  0.40463116  0.19660800  1
  Nb  Nb143  1  0.39348502  0.00748952  0.79632989  1
  Nb  Nb144  1  0.00671016  -0.00226068  0.80798082  1
  Nb  Nb145  1  0.79315971  0.60142178  0.19457940  1
  Nb  Nb146  1  0.60251964  0.19746009  0.40753996  1
  Nb  Nb147  1  0.59931547  0.60028510  0.19644896  1
  Nb  Nb148  1  0.20214393  0.80203079  0.60850509  1
  Nb  Nb149  1  0.20005477  0.00184913  0.80034474  1
  Pd  Pd150  1  0.60767013  0.79979340  0.60073375  1
  Pd  Pd151  1  0.19843192  0.39749154  0.19171303  1
  Pd  Pd152  1  0.19648104  0.39906633  0.00583981  1
  Pd  Pd153  1  0.58999412  -0.00672670  0.79433517  1
  Pd  Pd154  1  0.79783735  0.19295067  0.40835419  1
  Pd  Pd155  1  0.19328136  0.39628461  0.59538350  1
  Pd  Pd156  1  0.19195119  0.19185780  0.78947876  1
  Pd  Pd157  1  0.59611417  -0.00637600  0.59858195  1
  Pd  Pd158  1  0.40575913  0.59890586  0.79277881  1
  Pd  Pd159  1  0.39702384  0.80691081  0.80757991  1
  Pd  Pd160  1  0.40735569  0.41050244  0.20582053  1
  Pd  Pd161  1  0.59450002  0.39466131  0.39575226  1
  Pd  Pd162  1  0.59519747  0.60138308  0.60881696  1
  Pd  Pd163  1  0.39852559  -0.00489551  0.60409556  1
  Pd  Pd164  1  0.80240579  0.60141350  0.60391634  1
  Pd  Pd165  1  0.01571117  0.40110470  0.00659701  1
  Pd  Pd166  1  0.40065341  0.39271110  -0.00871153  1
  Pd  Pd167  1  0.80649329  0.00384946  0.60950983  1
  Pd  Pd168  1  0.19950373  0.40072724  0.80267667  1
  Pd  Pd169  1  0.19992725  0.39645219  0.40329554  1
  Pd  Pd170  1  0.38983212  0.59363147  0.40178410  1
  Pd  Pd171  1  0.80718485  -0.00334340  0.80263262  1
  Pd  Pd172  1  0.40128518  -0.00542705  0.39413734  1
  Pd  Pd173  1  0.80835286  0.59309724  0.80580418  1
  Pd  Pd174  1  0.19898818  0.59689877  -0.00259710  1
  Pd  Pd175  1  0.60382570  0.20421234  0.80451876  1
  Pd  Pd176  1  0.20366928  0.20262964  0.60538932  1
  Pd  Pd177  1  0.80012088  0.59886386  -0.00373077  1
  Pd  Pd178  1  0.00891233  0.18734928  0.79593798  1
  Pd  Pd179  1  0.00206070  0.79756065  -0.00536985  1
  Pd  Pd180  1  0.39257562  0.79147293  0.20828681  1
  Pd  Pd181  1  0.80629217  0.19705591  0.00393960  1
  Pd  Pd182  1  0.40215944  0.20850901  0.40727758  1
  Pd  Pd183  1  0.80198212  0.39693038  0.00541215  1
  Pd  Pd184  1  0.79771726  0.80858743  -0.00258226  1
  Pd  Pd185  1  -0.01050276  -0.00017420  0.60670743  1
  Pd  Pd186  1  0.00694150  0.40755884  0.40944168  1
  Pd  Pd187  1  0.59991612  0.80055773  -0.00887289  1
  Pd  Pd188  1  0.00796165  0.59939560  -0.00976187  1
  Pd  Pd189  1  0.60037282  0.40260480  0.60354249  1
  Pd  Pd190  1  0.81008187  0.80273199  0.38676584  1
  Pd  Pd191  1  0.80380474  0.20498363  0.18926461  1
  Pd  Pd192  1  0.20312964  0.19777616  0.01251782  1
  Pd  Pd193  1  0.19588319  0.00027350  0.00736985  1
  Pd  Pd194  1  0.80093395  -0.00224415  -0.00181164  1
  Pd  Pd195  1  0.79456768  -0.00272627  0.19316020  1
  Pd  Pd196  1  -0.00598869  0.59876180  0.20277272  1
  Pd  Pd197  1  -0.00970774  0.59277754  0.60316698  1
  Pd  Pd198  1  0.40467077  -0.00439242  0.20695241  1
  Pd  Pd199  1  0.20752133  0.19267945  0.19441628  1
  Rh  Rh200  1  0.39918540  0.80013074  0.39924355  1
  Rh  Rh201  1  0.20706415  0.60690702  0.20070223  1
  Rh  Rh202  1  0.19562211  0.60276339  0.80592383  1
  Rh  Rh203  1  0.60727649  0.60258191  0.40193652  1
  Rh  Rh204  1  0.21303508  0.60847840  0.59966886  1
  Rh  Rh205  1  -0.00513487  0.79654633  0.20598321  1
  Rh  Rh206  1  0.20813977  -0.00336078  0.59839958  1
  Rh  Rh207  1  0.00721107  0.00580550  0.20801230  1
  Rh  Rh208  1  0.39410680  0.40674127  0.59278635  1
  Rh  Rh209  1  0.40139486  0.79294156  -0.00675375  1
  Rh  Rh210  1  0.59914859  -0.00102051  0.00897320  1
  Rh  Rh211  1  -0.00153386  0.40650146  0.19627288  1
  Rh  Rh212  1  0.79095468  0.19775947  0.79670802  1
  Rh  Rh213  1  0.18976221  0.80846372  0.40085636  1
  Rh  Rh214  1  0.60168435  0.80451124  0.41060395  1
  Rh  Rh215  1  0.79697379  0.60253555  0.39709117  1
  Rh  Rh216  1  -0.00600390  0.19719387  0.19890531  1
  Rh  Rh217  1  0.39333952  0.78990397  0.59833187  1
  Rh  Rh218  1  -0.00085776  0.19362862  0.00069411  1
  Rh  Rh219  1  0.39478348  0.39598491  0.80449851  1
  Rh  Rh220  1  0.80656130  0.39646572  0.60075285  1
  Rh  Rh221  1  0.20045689  0.59670581  0.39837975  1
  Rh  Rh222  1  0.79534083  0.40370927  0.80438855  1
  Rh  Rh223  1  0.59473267  0.60093162  0.79407797  1
  Rh  Rh224  1  0.60423736  0.39795749  0.79809490  1
  Rh  Rh225  1  -0.00438625  0.19399175  0.39154807  1
  Rh  Rh226  1  0.60243106  0.80428019  0.80105682  1
  Rh  Rh227  1  0.80093833  0.40540961  0.39475775  1
  Rh  Rh228  1  0.80406614  0.00025829  0.39882278  1
  Rh  Rh229  1  0.60775684  0.19679734  0.59426278  1
  Rh  Rh230  1  0.59713540  0.60828803  -0.00367605  1
  Rh  Rh231  1  0.60548405  0.79983352  0.19279941  1
  Rh  Rh232  1  0.59286301  0.20205941  -0.00912639  1
  Rh  Rh233  1  0.60145551  0.19600248  0.20865751  1
  Rh  Rh234  1  0.79428512  0.79983623  0.60548300  1
  Rh  Rh235  1  0.40025073  0.19769981  0.80656450  1
  Rh  Rh236  1  0.00127629  0.79907336  0.80815217  1
  Rh  Rh237  1  -0.01220365  0.21164956  0.60846576  1
  Rh  Rh238  1  0.19906699  0.79599288  0.00287341  1
  Rh  Rh239  1  0.40084119  0.60255024  0.00466787  1
  Rh  Rh240  1  0.00046491  0.60821389  0.40364405  1
  Rh  Rh241  1  0.20244739  0.19471058  0.39433811  1
  Rh  Rh242  1  0.59929940  0.39135261  0.00174667  1
  Rh  Rh243  1  -0.00542744  0.00656457  -0.00735900  1
  Rh  Rh244  1  0.00851320  0.41123781  0.79410126  1
  Rh  Rh245  1  0.39119321  0.20301822  0.59638720  1
  Rh  Rh246  1  0.39502060  0.19786134  0.18759288  1
  Rh  Rh247  1  0.00155620  0.79940048  0.59186164  1
  Rh  Rh248  1  0.40688826  0.00801202  -0.01027056  1
  Rh  Rh249  1  0.79729298  0.80881814  0.80685846  1
