# generated using pymatgen
data_ZrScNbPdRh
_symmetry_space_group_name_H-M   'P 1'
_cell_length_a   16.56206763
_cell_length_b   16.55933225
_cell_length_c   16.56466744
_cell_angle_alpha   90.02304216
_cell_angle_beta   89.98666057
_cell_angle_gamma   89.98083255
_symmetry_Int_Tables_number   1
_chemical_formula_structural   ZrScNbPdRh
_chemical_formula_sum   'Zr50 Sc50 Nb50 Pd50 Rh50'
_cell_volume   4542.97162162
_cell_formula_units_Z   50
loop_
 _symmetry_equiv_pos_site_id
 _symmetry_equiv_pos_as_xyz
  1  'x, y, z'
loop_
 _atom_site_type_symbol
 _atom_site_label
 _atom_site_symmetry_multiplicity
 _atom_site_fract_x
 _atom_site_fract_y
 _atom_site_fract_z
 _atom_site_occupancy
  Zr  Zr0  1  0.69993182  0.69649569  0.09823538  1
  Zr  Zr1  1  0.69602233  0.49116487  0.09624008  1
  Zr  Zr2  1  0.50324057  0.49827192  0.09701739  1
  Zr  Zr3  1  0.50101065  0.90545353  0.30286967  1
  Zr  Zr4  1  0.90236960  0.90104501  0.29828134  1
  Zr  Zr5  1  0.30333583  0.10610147  0.50303188  1
  Zr  Zr6  1  0.49902483  0.49390720  0.30468070  1
  Zr  Zr7  1  0.89549953  0.29493850  0.30390847  1
  Zr  Zr8  1  0.10827902  0.50347125  0.31257497  1
  Zr  Zr9  1  0.10034203  0.70006613  0.30193211  1
  Zr  Zr10  1  0.51186035  0.90245915  0.50168408  1
  Zr  Zr11  1  0.29563463  0.68532887  0.89978682  1
  Zr  Zr12  1  0.69990116  0.10493648  0.10073893  1
  Zr  Zr13  1  0.50180151  0.69600847  0.49931835  1
  Zr  Zr14  1  0.09799260  0.10278189  0.69771535  1
  Zr  Zr15  1  0.90135934  0.68928969  0.50934152  1
  Zr  Zr16  1  0.30608996  0.50151575  0.71164579  1
  Zr  Zr17  1  0.69787537  0.69505216  0.50210304  1
  Zr  Zr18  1  0.08996240  0.69300635  0.90016763  1
  Zr  Zr19  1  0.49844387  0.68633145  0.69925218  1
  Zr  Zr20  1  0.30588429  0.30760108  0.31125070  1
  Zr  Zr21  1  0.90945991  0.10221007  0.49958683  1
  Zr  Zr22  1  0.69758769  0.10277464  0.69846089  1
  Zr  Zr23  1  0.90485711  0.30446316  0.09674120  1
  Zr  Zr24  1  0.09342371  0.30477556  0.30253259  1
  Zr  Zr25  1  0.29736013  0.70552732  0.09950521  1
  Zr  Zr26  1  0.89535906  0.09790757  0.30213600  1
  Zr  Zr27  1  0.10653282  0.49743852  0.90417452  1
  Zr  Zr28  1  0.49256854  0.90090002  0.70003965  1
  Zr  Zr29  1  0.29978779  0.90537729  0.89168854  1
  Zr  Zr30  1  0.09518370  0.30163905  0.89669610  1
  Zr  Zr31  1  0.29647622  0.89723584  0.70067485  1
  Zr  Zr32  1  0.49823754  0.10464360  0.08716973  1
  Zr  Zr33  1  0.69962404  0.30664739  0.29893359  1
  Zr  Zr34  1  0.70497617  0.49787513  0.69988496  1
  Zr  Zr35  1  0.30179515  0.10219842  0.90338239  1
  Zr  Zr36  1  0.69546849  0.90009689  0.89522288  1
  Zr  Zr37  1  0.69685665  0.69014920  0.30615079  1
  Zr  Zr38  1  0.89587409  0.91072747  0.50477303  1
  Zr  Zr39  1  0.89632603  0.10162142  0.10297516  1
  Zr  Zr40  1  0.50551250  0.30416191  0.30301585  1
  Zr  Zr41  1  0.90007610  0.70248395  0.29178692  1
  Zr  Zr42  1  0.29297815  0.50024587  0.09334709  1
  Zr  Zr43  1  0.29991870  0.09298163  0.09556758  1
  Zr  Zr44  1  0.09171227  0.49570006  0.70934517  1
  Zr  Zr45  1  0.10185144  0.69539484  0.50054133  1
  Zr  Zr46  1  0.70472100  0.08587232  0.50703760  1
  Zr  Zr47  1  0.50169234  0.28898616  0.90097119  1
  Zr  Zr48  1  0.70067889  0.50360346  0.89923895  1
  Zr  Zr49  1  0.70077761  0.30334452  0.89449881  1
  Sc  Sc50  1  0.09601418  0.10414209  0.30989293  1
  Sc  Sc51  1  0.50081848  0.49907817  0.50386299  1
  Sc  Sc52  1  0.69661016  0.90606800  0.69608915  1
  Sc  Sc53  1  0.49786306  0.69188582  0.30198583  1
  Sc  Sc54  1  0.50908756  0.30032283  0.10136890  1
  Sc  Sc55  1  0.10472119  0.89661116  0.51065585  1
  Sc  Sc56  1  0.09517896  0.71010308  0.09680206  1
  Sc  Sc57  1  0.89925954  0.49894993  0.50731248  1
  Sc  Sc58  1  0.68524563  0.10313472  0.89334482  1
  Sc  Sc59  1  0.29288647  0.69923770  0.30281825  1
  Sc  Sc60  1  0.31381017  0.30036051  0.70275200  1
  Sc  Sc61  1  0.09801571  0.89793711  0.89214450  1
  Sc  Sc62  1  0.90019678  0.30156385  0.49976004  1
  Sc  Sc63  1  0.89267570  0.49115013  0.31273225  1
  Sc  Sc64  1  0.30423443  0.90086944  0.51213392  1
  Sc  Sc65  1  0.70263957  0.90738351  0.30892398  1
  Sc  Sc66  1  0.90505343  0.70138195  0.09138116  1
  Sc  Sc67  1  0.89852350  0.70475252  0.89373216  1
  Sc  Sc68  1  0.49702352  0.69555858  0.09686967  1
  Sc  Sc69  1  0.90240735  0.88579426  0.10057423  1
  Sc  Sc70  1  0.30097315  0.69986976  0.70194260  1
  Sc  Sc71  1  0.50470713  0.10491938  0.70123330  1
  Sc  Sc72  1  0.90328792  0.10282333  0.69179399  1
  Sc  Sc73  1  0.10093447  0.89891220  0.70393840  1
  Sc  Sc74  1  0.10469737  0.89690519  0.29788471  1
  Sc  Sc75  1  0.49251703  0.90483983  0.09617121  1
  Sc  Sc76  1  0.09024750  0.30091819  0.49328048  1
  Sc  Sc77  1  0.30096295  0.69910827  0.50242303  1
  Sc  Sc78  1  0.29473116  0.29727188  0.89363070  1
  Sc  Sc79  1  0.70587128  0.10815064  0.30048409  1
  Sc  Sc80  1  0.90151191  0.49510077  0.08960614  1
  Sc  Sc81  1  0.50117213  0.10338918  0.30649696  1
  Sc  Sc82  1  0.09472522  0.70013724  0.69822864  1
  Sc  Sc83  1  0.69291401  0.30269326  0.50392275  1
  Sc  Sc84  1  0.50318214  0.09628465  0.50357426  1
  Sc  Sc85  1  0.49952362  0.50913943  0.90039709  1
  Sc  Sc86  1  0.11077897  0.09949909  0.08676099  1
  Sc  Sc87  1  0.70285389  0.29652117  0.69715883  1
  Sc  Sc88  1  0.30642874  0.10539582  0.30184730  1
  Sc  Sc89  1  0.70100868  0.69908576  0.90064743  1
  Sc  Sc90  1  0.30704656  0.29461010  0.09630276  1
  Sc  Sc91  1  0.70192083  0.69237640  0.70785847  1
  Sc  Sc92  1  0.30134142  0.90344424  0.28795202  1
  Sc  Sc93  1  0.49927327  0.69415976  0.90441579  1
  Sc  Sc94  1  0.29892019  0.09839989  0.70319367  1
  Sc  Sc95  1  0.69888670  0.89602968  0.09075861  1
  Sc  Sc96  1  0.90702710  0.50168813  0.89245360  1
  Sc  Sc97  1  0.50059730  0.30234025  0.50896429  1
  Sc  Sc98  1  0.90002800  0.30919657  0.70134805  1
  Sc  Sc99  1  0.10430192  0.10436799  0.88898785  1
  Nb  Nb100  1  0.90009467  0.29633382  0.89783402  1
  Nb  Nb101  1  0.89711285  0.50882275  0.70076744  1
  Nb  Nb102  1  0.29749177  0.50002961  0.90429785  1
  Nb  Nb103  1  0.69710293  0.49840820  0.30636190  1
  Nb  Nb104  1  0.50325993  0.49568506  0.70176033  1
  Nb  Nb105  1  0.50159764  0.09169789  0.90306131  1
  Nb  Nb106  1  0.28981208  0.90512336  0.09247083  1
  Nb  Nb107  1  0.29680934  0.30330817  0.50294601  1
  Nb  Nb108  1  0.10381208  0.29970460  0.69897574  1
  Nb  Nb109  1  0.70048390  0.30074607  0.09303347  1
  Nb  Nb110  1  0.10177023  0.50138575  0.50192086  1
  Nb  Nb111  1  0.29635146  0.49301667  0.48295733  1
  Nb  Nb112  1  0.89636860  0.69867140  0.70202219  1
  Nb  Nb113  1  0.09881761  0.10261036  0.50417541  1
  Nb  Nb114  1  0.09485759  0.49005112  0.10000203  1
  Nb  Nb115  1  0.70124667  0.89777325  0.50374360  1
  Nb  Nb116  1  0.50801396  0.30919580  0.69669489  1
  Nb  Nb117  1  0.89988682  0.89049582  0.71134586  1
  Nb  Nb118  1  0.90556246  0.10011124  0.89823693  1
  Nb  Nb119  1  0.50152974  0.90982327  0.90005811  1
  Nb  Nb120  1  0.10282525  0.90584350  0.09583083  1
  Nb  Nb121  1  0.90222599  0.90040792  0.89065069  1
  Nb  Nb122  1  0.30187222  0.49895002  0.30413777  1
  Nb  Nb123  1  0.70557574  0.50247928  0.48916832  1
  Nb  Nb124  1  0.09863874  0.30946628  0.09845154  1
  Nb  Nb125  1  0.00493651  0.19975994  0.19489052  1
  Nb  Nb126  1  0.40485509  0.80320498  0.40030177  1
  Nb  Nb127  1  0.39728721  0.40329951  -0.00569095  1
  Nb  Nb128  1  0.19800835  0.20798005  0.59708349  1
  Nb  Nb129  1  0.19889133  0.58611442  0.59760368  1
  Nb  Nb130  1  0.59786333  0.80307424  0.20213559  1
  Nb  Nb131  1  -0.00637971  0.79892920  0.40477263  1
  Nb  Nb132  1  0.19494218  0.20830340  0.19998696  1
  Nb  Nb133  1  0.19952724  0.39995617  0.20076456  1
  Nb  Nb134  1  0.20098895  0.40012580  0.59664008  1
  Nb  Nb135  1  0.00449062  0.00216915  0.19232087  1
  Nb  Nb136  1  0.80223184  0.79892646  0.40926729  1
  Nb  Nb137  1  -0.00002351  0.59223140  0.19951701  1
  Nb  Nb138  1  0.20033760  0.00529519  0.40783794  1
  Nb  Nb139  1  0.80699481  0.00088687  0.80260263  1
  Nb  Nb140  1  0.59178071  0.80311272  0.80120260  1
  Nb  Nb141  1  0.80157706  0.80039274  0.60208325  1
  Nb  Nb142  1  0.80649265  0.00336310  -0.00963192  1
  Nb  Nb143  1  0.59971369  -0.00053317  0.19752668  1
  Nb  Nb144  1  0.80281400  0.20082428  -0.00632512  1
  Nb  Nb145  1  0.39136804  0.80693123  -0.00380943  1
  Nb  Nb146  1  0.39150942  0.59150649  0.20159816  1
  Nb  Nb147  1  0.59637203  0.40151569  0.79602743  1
  Nb  Nb148  1  -0.00458972  -0.00222024  -0.00264283  1
  Nb  Nb149  1  0.80003169  0.59382263  0.20027053  1
  Pd  Pd150  1  0.80681148  0.39769706  -0.00972430  1
  Pd  Pd151  1  0.59784549  0.59977264  0.19964107  1
  Pd  Pd152  1  0.40585419  0.00684512  0.19585000  1
  Pd  Pd153  1  0.19525686  0.79060743  0.79992372  1
  Pd  Pd154  1  0.58742453  0.79865671  -0.00029305  1
  Pd  Pd155  1  0.79266149  0.20185995  0.41255750  1
  Pd  Pd156  1  0.20700815  0.81166295  0.40424148  1
  Pd  Pd157  1  0.40539118  0.79128300  0.80913532  1
  Pd  Pd158  1  0.19317645  0.01284793  0.21014120  1
  Pd  Pd159  1  0.78639864  0.79713181  0.20646481  1
  Pd  Pd160  1  0.60335232  0.19610512  0.40949420  1
  Pd  Pd161  1  0.39412639  0.40819814  0.59543039  1
  Pd  Pd162  1  0.80552436  0.59993473  0.00146411  1
  Pd  Pd163  1  0.60102845  0.79981389  0.39372468  1
  Pd  Pd164  1  0.18758805  0.60297338  0.00920771  1
  Pd  Pd165  1  0.79719908  -0.01189856  0.19136844  1
  Pd  Pd166  1  0.40477504  0.79299641  0.19976442  1
  Pd  Pd167  1  0.79910207  0.40360841  0.19937514  1
  Pd  Pd168  1  0.59969917  0.19669784  0.20113189  1
  Pd  Pd169  1  0.20043265  0.00674408  0.59943281  1
  Pd  Pd170  1  0.40164283  0.00991421  0.79492537  1
  Pd  Pd171  1  -0.00387972  0.80365217  0.59978322  1
  Pd  Pd172  1  0.40944882  0.20665434  0.40810812  1
  Pd  Pd173  1  -0.00439116  0.20458653  0.79119879  1
  Pd  Pd174  1  -0.00803457  0.59917522  0.39570818  1
  Pd  Pd175  1  0.40105265  0.79620290  0.59554691  1
  Pd  Pd176  1  0.20035963  0.20860307  0.00181639  1
  Pd  Pd177  1  0.20377370  0.39538803  0.79547021  1
  Pd  Pd178  1  0.01176855  -0.00855472  0.39710680  1
  Pd  Pd179  1  -0.00110682  0.40510403  0.20889081  1
  Pd  Pd180  1  0.00024312  -0.00642819  0.60951145  1
  Pd  Pd181  1  0.19990570  0.80329816  -0.01065782  1
  Pd  Pd182  1  0.80283646  0.20370170  0.59653161  1
  Pd  Pd183  1  0.80346839  0.19383125  0.80079903  1
  Pd  Pd184  1  0.60543546  0.59078387  0.59848155  1
  Pd  Pd185  1  0.00113022  0.19533442  0.00288955  1
  Pd  Pd186  1  0.40565431  0.19533611  0.79797433  1
  Pd  Pd187  1  0.00170332  0.40100123  0.59889446  1
  Pd  Pd188  1  0.40891667  0.40123063  0.81115669  1
  Pd  Pd189  1  0.79728769  0.39990217  0.59678623  1
  Pd  Pd190  1  0.80467181  0.80271751  -0.00759902  1
  Pd  Pd191  1  0.19657415  0.80315483  0.19809346  1
  Pd  Pd192  1  0.60597958  0.79602953  0.61274884  1
  Pd  Pd193  1  0.19786947  0.19938431  0.40155764  1
  Pd  Pd194  1  0.19540963  0.59577466  0.19366092  1
  Pd  Pd195  1  0.40135195  0.20011028  0.60373934  1
  Pd  Pd196  1  0.38997646  0.58910837  0.59434426  1
  Pd  Pd197  1  0.39444562  0.40274454  0.19055352  1
  Pd  Pd198  1  0.39045657  -0.00646061  0.40372982  1
  Pd  Pd199  1  0.39836578  0.19995623  0.19946486  1
  Rh  Rh200  1  0.39580358  -0.00584681  -0.00134322  1
  Rh  Rh201  1  0.19775751  0.00246153  0.79884864  1
  Rh  Rh202  1  0.59856352  0.59993406  0.80213919  1
  Rh  Rh203  1  0.80202908  0.21587038  0.19209969  1
  Rh  Rh204  1  0.60015530  0.19920323  0.59958599  1
  Rh  Rh205  1  0.59412801  0.59046439  0.40480765  1
  Rh  Rh206  1  0.59097740  0.39738949  -0.01072853  1
  Rh  Rh207  1  0.60916427  0.00887972  0.39429536  1
  Rh  Rh208  1  0.59944785  -0.00417960  0.79508254  1
  Rh  Rh209  1  0.60505124  0.60111462  -0.00116698  1
  Rh  Rh210  1  0.40968637  0.39532879  0.40933743  1
  Rh  Rh211  1  0.78867128  0.80390886  0.79364258  1
  Rh  Rh212  1  0.00353434  0.79310643  0.79936321  1
  Rh  Rh213  1  0.00263858  0.59529393  0.00728660  1
  Rh  Rh214  1  -0.00496095  0.39661808  0.80150127  1
  Rh  Rh215  1  0.60722492  0.40651506  0.60357679  1
  Rh  Rh216  1  0.20225436  0.78885278  0.60590430  1
  Rh  Rh217  1  0.20285486  0.20315150  0.78979206  1
  Rh  Rh218  1  0.00091482  0.80900931  -0.00729488  1
  Rh  Rh219  1  -0.00480676  0.60372188  0.79598936  1
  Rh  Rh220  1  0.79758626  0.00001755  0.40177529  1
  Rh  Rh221  1  0.39491466  0.60561515  0.39520229  1
  Rh  Rh222  1  -0.00155203  0.40174285  -0.01329228  1
  Rh  Rh223  1  0.60655750  0.00306540  0.00663919  1
  Rh  Rh224  1  0.20774049  0.60528087  0.40801109  1
  Rh  Rh225  1  0.60712649  0.20002958  -0.00240504  1
  Rh  Rh226  1  0.80381129  0.60171519  0.39649656  1
  Rh  Rh227  1  0.00508082  0.59341893  0.60919287  1
  Rh  Rh228  1  0.59621365  0.00129129  0.60406695  1
  Rh  Rh229  1  0.39876101  0.20445520  -0.00400208  1
  Rh  Rh230  1  0.40307072  0.00357716  0.60400686  1
  Rh  Rh231  1  0.59456956  0.20700542  0.79449734  1
  Rh  Rh232  1  0.80524594  0.59981381  0.80328782  1
  Rh  Rh233  1  0.40233082  0.59919956  0.80288257  1
  Rh  Rh234  1  0.60513646  0.39897745  0.20065770  1
  Rh  Rh235  1  -0.00388408  0.19924140  0.39770229  1
  Rh  Rh236  1  0.00988380  0.80132216  0.20355580  1
  Rh  Rh237  1  0.80000177  0.40328365  0.80003730  1
  Rh  Rh238  1  0.19178949  -0.00307078  -0.01414796  1
  Rh  Rh239  1  0.39694728  0.59874126  0.00678325  1
  Rh  Rh240  1  0.19637496  0.60014073  0.79298466  1
  Rh  Rh241  1  -0.00479155  0.40539999  0.40518619  1
  Rh  Rh242  1  0.20496129  0.39278943  0.00258929  1
  Rh  Rh243  1  0.60023096  0.40276856  0.40710930  1
  Rh  Rh244  1  0.19474414  0.39328743  0.40107300  1
  Rh  Rh245  1  -0.00195177  0.00184407  0.79798583  1
  Rh  Rh246  1  0.80553043  -0.00551744  0.61329471  1
  Rh  Rh247  1  0.00422080  0.20918097  0.60111179  1
  Rh  Rh248  1  0.79627404  0.39432452  0.40761728  1
  Rh  Rh249  1  0.79569784  0.60029918  0.60394440  1
