# generated using pymatgen
data_Ca2Al2SiO7
_symmetry_space_group_name_H-M   'P 1'
_cell_length_a   15.46785554
_cell_length_b   15.46753752
_cell_length_c   15.29105649
_cell_angle_alpha   89.99204327
_cell_angle_beta   89.99609675
_cell_angle_gamma   90.01915943
_symmetry_Int_Tables_number   1
_chemical_formula_structural   Ca2Al2SiO7
_chemical_formula_sum   'Ca48 Al48 Si24 O168'
_cell_volume   3658.37945101
_cell_formula_units_Z   24
loop_
 _symmetry_equiv_pos_site_id
 _symmetry_equiv_pos_as_xyz
  1  'x, y, z'
loop_
 _atom_type_symbol
 _atom_type_oxidation_number
  Ca2+  2.0
  Al0+  0.0
  Si0+  0.0
  O2-  -2.0
loop_
 _atom_site_type_symbol
 _atom_site_label
 _atom_site_symmetry_multiplicity
 _atom_site_fract_x
 _atom_site_fract_y
 _atom_site_fract_z
 _atom_site_occupancy
  Ca2+  Ca0  1  0.17704983  0.08781249  0.16991223  1
  Ca2+  Ca1  1  0.17784690  0.07883205  0.50274846  1
  Ca2+  Ca2  1  0.17733010  0.08762136  0.84049208  1
  Ca2+  Ca3  1  0.16825822  0.58052572  0.15981086  1
  Ca2+  Ca4  1  0.17525371  0.58154151  0.50755992  1
  Ca2+  Ca5  1  0.17634720  0.58041524  0.84381562  1
  Ca2+  Ca6  1  0.66695617  0.08010715  0.16904189  1
  Ca2+  Ca7  1  0.66378044  0.07638732  0.49981614  1
  Ca2+  Ca8  1  0.66621999  0.07342011  0.84365503  1
  Ca2+  Ca9  1  0.66637163  0.57925230  0.16838477  1
  Ca2+  Ca10  1  0.66905379  0.57643892  0.51630032  1
  Ca2+  Ca11  1  0.66560493  0.58052824  0.83184863  1
  Ca2+  Ca12  1  0.07775012  0.32590495  0.15121121  1
  Ca2+  Ca13  1  0.07574117  0.33347040  0.50021285  1
  Ca2+  Ca14  1  0.07693420  0.33314004  0.83559247  1
  Ca2+  Ca15  1  0.08922530  0.83024817  0.15880641  1
  Ca2+  Ca16  1  0.08455825  0.83481595  0.49391004  1
  Ca2+  Ca17  1  0.08630699  0.82526256  0.83142917  1
  Ca2+  Ca18  1  0.57655368  0.31705028  0.15821541  1
  Ca2+  Ca19  1  0.58345244  0.32815717  0.49497698  1
  Ca2+  Ca20  1  0.58315529  0.32763636  0.83290724  1
  Ca2+  Ca21  1  0.57997570  0.83990797  0.15967616  1
  Ca2+  Ca22  1  0.58440025  0.83665499  0.50301053  1
  Ca2+  Ca23  1  0.57569420  0.83533367  0.82690011  1
  Ca2+  Ca24  1  0.33206285  0.41346197  0.16037135  1
  Ca2+  Ca25  1  0.33302264  0.42362748  0.51046959  1
  Ca2+  Ca26  1  0.33360208  0.42781890  0.84550368  1
  Ca2+  Ca27  1  0.33220254  0.92718529  0.16674578  1
  Ca2+  Ca28  1  0.33769821  0.92669201  0.50339798  1
  Ca2+  Ca29  1  0.34281056  0.92366970  0.83800833  1
  Ca2+  Ca30  1  0.83568656  0.41323024  0.16502980  1
  Ca2+  Ca31  1  0.82608547  0.42064435  0.51314855  1
  Ca2+  Ca32  1  0.83434944  0.41348353  0.83195233  1
  Ca2+  Ca33  1  0.82367964  0.93058589  0.17145040  1
  Ca2+  Ca34  1  0.82183691  0.92227357  0.50427683  1
  Ca2+  Ca35  1  0.81878899  0.91916794  0.84200963  1
  Ca2+  Ca36  1  0.42282964  0.16111456  0.15690369  1
  Ca2+  Ca37  1  0.42031607  0.16011060  0.49577930  1
  Ca2+  Ca38  1  0.41778319  0.16458313  0.83347465  1
  Ca2+  Ca39  1  0.41502850  0.67683343  0.15546109  1
  Ca2+  Ca40  1  0.42072569  0.66963780  0.50305165  1
  Ca2+  Ca41  1  0.41516736  0.67656714  0.82561822  1
  Ca2+  Ca42  1  0.91886837  0.16609850  0.15338269  1
  Ca2+  Ca43  1  0.90921114  0.17232425  0.49568145  1
  Ca2+  Ca44  1  0.91759406  0.17177280  0.83330718  1
  Ca2+  Ca45  1  0.92524306  0.67288897  0.15686096  1
  Ca2+  Ca46  1  0.91260325  0.66723919  0.49943660  1
  Ca2+  Ca47  1  0.92308625  0.65959450  0.82968373  1
  Al0+  Al48  1  -0.00149343  -0.00121472  -0.00360318  1
  Al0+  Al49  1  -0.00073838  0.00159472  0.33995452  1
  Al0+  Al50  1  0.00227620  -0.00106434  0.66429869  1
  Al0+  Al51  1  0.00126190  0.50086489  -0.00306921  1
  Al0+  Al52  1  0.00123811  0.50105382  0.33290897  1
  Al0+  Al53  1  -0.00043606  0.49814866  0.66241113  1
  Al0+  Al54  1  0.49900171  -0.00162895  0.00005221  1
  Al0+  Al55  1  0.50032654  -0.00112655  0.33567251  1
  Al0+  Al56  1  0.49972430  0.00011990  0.66924071  1
  Al0+  Al57  1  0.50171267  0.50071124  0.00444977  1
  Al0+  Al58  1  0.49957052  0.50126516  0.33203520  1
  Al0+  Al59  1  0.50009090  0.49948336  0.67127963  1
  Al0+  Al60  1  0.24922833  0.25211584  0.00060647  1
  Al0+  Al61  1  0.24748861  0.25348965  0.33910064  1
  Al0+  Al62  1  0.24973121  0.24842911  0.66766802  1
  Al0+  Al63  1  0.25145547  0.74985954  -0.00531383  1
  Al0+  Al64  1  0.25002886  0.74789041  0.33507935  1
  Al0+  Al65  1  0.25015631  0.75107060  0.66274369  1
  Al0+  Al66  1  0.74959920  0.25048153  -0.00430600  1
  Al0+  Al67  1  0.74721345  0.25196184  0.33108505  1
  Al0+  Al68  1  0.75083221  0.25006118  0.66470474  1
  Al0+  Al69  1  0.74942792  0.74885291  0.00566948  1
  Al0+  Al70  1  0.75156367  0.74958919  0.33376300  1
  Al0+  Al71  1  0.75147572  0.74902383  0.67121061  1
  Al0+  Al72  1  0.31909082  0.07187675  0.01214293  1
  Al0+  Al73  1  0.43068589  0.81958106  0.98734937  1
  Al0+  Al74  1  0.32045885  0.57145081  0.68013189  1
  Al0+  Al75  1  0.67897577  0.92711352  0.35013572  1
  Al0+  Al76  1  0.67790396  0.42617716  0.68311680  1
  Al0+  Al77  1  0.56784129  0.17904171  0.32017914  1
  Al0+  Al78  1  0.68062203  0.93030590  0.68152249  1
  Al0+  Al79  1  0.92789624  0.32173132  0.98423532  1
  Al0+  Al80  1  0.32089650  0.07245254  0.34809040  1
  Al0+  Al81  1  0.42837627  0.32233887  0.98528234  1
  Al0+  Al82  1  0.42916575  0.82263954  0.64824832  1
  Al0+  Al83  1  0.67757610  0.92814896  0.01610804  1
  Al0+  Al84  1  0.57175585  0.67838728  0.65294187  1
  Al0+  Al85  1  0.82134142  0.07251057  0.01269854  1
  Al0+  Al86  1  0.93023384  0.31861529  0.65020068  1
  Al0+  Al87  1  0.32318618  0.57326552  0.01628730  1
  Al0+  Al88  1  0.07010726  0.68140043  0.98554265  1
  Al0+  Al89  1  0.32010909  0.06988640  0.68242725  1
  Al0+  Al90  1  0.17845942  0.43023589  0.01490095  1
  Al0+  Al91  1  0.56938239  0.17783781  0.98358006  1
  Al0+  Al92  1  0.82232540  0.57064269  0.68243370  1
  Al0+  Al93  1  0.07232598  0.17557763  0.98553061  1
  Al0+  Al94  1  0.82045959  0.07475428  0.34868661  1
  Al0+  Al95  1  0.17909280  0.92684990  0.34661537  1
  Si0+  Si96  1  0.57271153  0.67725388  0.31827681  1
  Si0+  Si97  1  0.92560486  0.82120782  0.98317920  1
  Si0+  Si98  1  0.82447765  0.07232822  0.68294551  1
  Si0+  Si99  1  0.82241598  0.56961265  0.34684558  1
  Si0+  Si100  1  0.07062277  0.67902136  0.64926791  1
  Si0+  Si101  1  0.92872809  0.82198723  0.31878348  1
  Si0+  Si102  1  0.92953416  0.32186392  0.31863107  1
  Si0+  Si103  1  0.42944234  0.81852291  0.31828801  1
  Si0+  Si104  1  0.07402301  0.17653078  0.64651883  1
  Si0+  Si105  1  0.57049480  0.17925886  0.65144643  1
  Si0+  Si106  1  0.32115128  0.57056087  0.34897596  1
  Si0+  Si107  1  0.82212655  0.57022034  0.01641091  1
  Si0+  Si108  1  0.57519779  0.67640749  0.98504929  1
  Si0+  Si109  1  0.17806072  0.42790329  0.68272702  1
  Si0+  Si110  1  0.07119267  0.67929568  0.31762458  1
  Si0+  Si111  1  0.17738923  0.92708073  0.01212044  1
  Si0+  Si112  1  0.67883413  0.42817564  0.01734800  1
  Si0+  Si113  1  0.67851612  0.43162038  0.34682654  1
  Si0+  Si114  1  0.07095463  0.17996703  0.32009029  1
  Si0+  Si115  1  0.42549683  0.32554776  0.31816007  1
  Si0+  Si116  1  0.42793982  0.32083153  0.65284457  1
  Si0+  Si117  1  0.17647655  0.92728468  0.68398117  1
  Si0+  Si118  1  0.92909995  0.82134938  0.65104619  1
  Si0+  Si119  1  0.17680085  0.43065142  0.35038011  1
  O2-  O120  1  0.23927058  0.00121977  0.05708003  1
  O2-  O121  1  0.25002066  -0.00119141  0.39793055  1
  O2-  O122  1  0.24522022  -0.00504362  0.72769454  1
  O2-  O123  1  0.25321578  0.49914439  0.06665205  1
  O2-  O124  1  0.25274593  0.49689435  0.39136019  1
  O2-  O125  1  0.24717559  0.49570276  0.72590708  1
  O2-  O126  1  0.74871824  0.00213419  0.06391315  1
  O2-  O127  1  0.74962153  0.00159520  0.39871071  1
  O2-  O128  1  0.75635320  0.00409338  0.72708007  1
  O2-  O129  1  0.75126928  0.49919271  0.05918862  1
  O2-  O130  1  0.74939470  0.50198861  0.38978421  1
  O2-  O131  1  0.74932152  0.49979598  0.73193070  1
  O2-  O132  1  -0.00373100  0.24712316  0.27737614  1
  O2-  O133  1  0.00228566  0.24216579  0.60144826  1
  O2-  O134  1  -0.00154587  0.24683132  0.93682675  1
  O2-  O135  1  0.00402769  0.75458564  0.27658154  1
  O2-  O136  1  -0.00005134  0.75021835  0.60675017  1
  O2-  O137  1  -0.00441093  0.75492793  0.93709594  1
  O2-  O138  1  0.48808910  0.25059946  0.27629414  1
  O2-  O139  1  0.49963696  0.25127863  0.60922157  1
  O2-  O140  1  0.49742716  0.24958468  0.93262377  1
  O2-  O141  1  0.50400137  0.75026343  0.27646123  1
  O2-  O142  1  0.50159018  0.74996026  0.59877742  1
  O2-  O143  1  0.50569331  0.74415700  0.94290400  1
  O2-  O144  1  0.07146377  0.17744577  0.10012336  1
  O2-  O145  1  0.07229036  0.18457721  0.42512475  1
  O2-  O146  1  0.07505492  0.17709514  0.75138979  1
  O2-  O147  1  0.06826836  0.68275383  0.09946501  1
  O2-  O148  1  0.06943210  0.67569414  0.42276529  1
  O2-  O149  1  0.07074288  0.67920423  0.75394550  1
  O2-  O150  1  0.56883509  0.17905616  0.09754353  1
  O2-  O151  1  0.56878373  0.18363227  0.43384147  1
  O2-  O152  1  0.57012218  0.17943517  0.75593399  1
  O2-  O153  1  0.57601476  0.67688107  0.09157318  1
  O2-  O154  1  0.57142120  0.67157317  0.42262966  1
  O2-  O155  1  0.57039833  0.67900246  0.76602183  1
  O2-  O156  1  0.17184055  0.43160127  0.24629035  1
  O2-  O157  1  0.17936049  0.43012259  0.57586255  1
  O2-  O158  1  0.17630060  0.43480919  0.90161558  1
  O2-  O159  1  0.18122918  0.92391921  0.23328066  1
  O2-  O160  1  0.17439303  0.92860384  0.57822350  1
  O2-  O161  1  0.17981496  0.92449738  0.90674194  1
  O2-  O162  1  0.67928943  0.43368319  0.24183883  1
  O2-  O163  1  0.67942224  0.42655236  0.56823483  1
  O2-  O164  1  0.67731277  0.42955594  0.91289824  1
  O2-  O165  1  0.68131037  0.92460593  0.23727325  1
  O2-  O166  1  0.68228143  0.93261803  0.56823965  1
  O2-  O167  1  0.67966904  0.92626245  0.90260643  1
  O2-  O168  1  0.43248418  0.32136534  0.09958949  1
  O2-  O169  1  0.42923662  0.33238431  0.42390484  1
  O2-  O170  1  0.42602498  0.32000917  0.75699581  1
  O2-  O171  1  0.42965684  0.81892556  0.10138892  1
  O2-  O172  1  0.42799854  0.81573727  0.42304809  1
  O2-  O173  1  0.42941167  0.82206918  0.76131089  1
  O2-  O174  1  0.93013896  0.32300272  0.09890755  1
  O2-  O175  1  0.93185137  0.32478178  0.42362850  1
  O2-  O176  1  0.93230042  0.31919697  0.76224471  1
  O2-  O177  1  0.92690031  0.81769453  0.08920791  1
  O2-  O178  1  0.92732361  0.81670764  0.42397272  1
  O2-  O179  1  0.93232700  0.82200057  0.75566322  1
  O2-  O180  1  0.31914412  0.07260116  0.23484436  1
  O2-  O181  1  0.31894133  0.07058198  0.56897689  1
  O2-  O182  1  0.31987526  0.06865043  0.89932465  1
  O2-  O183  1  0.32046044  0.57285695  0.24462883  1
  O2-  O184  1  0.31808429  0.56852899  0.56577122  1
  O2-  O185  1  0.31979718  0.57413478  0.90301125  1
  O2-  O186  1  0.82199575  0.07435228  0.23576253  1
  O2-  O187  1  0.82319297  0.07137126  0.57700502  1
  O2-  O188  1  0.82059341  0.06914196  0.89904379  1
  O2-  O189  1  0.82416169  0.56814966  0.24172962  1
  O2-  O190  1  0.82269338  0.56822669  0.56772300  1
  O2-  O191  1  0.82199672  0.57186411  0.91205055  1
  O2-  O192  1  0.04891857  0.08552484  0.27621175  1
  O2-  O193  1  0.05201548  0.08130692  0.60137726  1
  O2-  O194  1  0.04752283  0.07687042  0.93083993  1
  O2-  O195  1  0.03806707  0.58930141  0.26920238  1
  O2-  O196  1  0.04308310  0.58751447  0.60030605  1
  O2-  O197  1  0.03801241  0.58644025  0.93101869  1
  O2-  O198  1  0.54191361  0.08048973  0.26794430  1
  O2-  O199  1  0.53960563  0.08875993  0.60361949  1
  O2-  O200  1  0.54034780  0.07991145  0.93186695  1
  O2-  O201  1  0.54307201  0.58652979  0.26830165  1
  O2-  O202  1  0.54229295  0.57867004  0.60018303  1
  O2-  O203  1  0.55256651  0.58187558  0.94145358  1
  O2-  O204  1  0.16192827  0.21243260  0.27325747  1
  O2-  O205  1  0.16606271  0.20726935  0.59866510  1
  O2-  O206  1  0.16907110  0.20753730  0.93257193  1
  O2-  O207  1  0.16434516  0.70264971  0.27093326  1
  O2-  O208  1  0.16143766  0.70708511  0.59943657  1
  O2-  O209  1  0.16506532  0.71215754  0.92970065  1
  O2-  O210  1  0.66253369  0.21560858  0.26512019  1
  O2-  O211  1  0.66237226  0.20591965  0.60330536  1
  O2-  O212  1  0.66698276  0.20763169  0.93097708  1
  O2-  O213  1  0.66647778  0.70082763  0.27198141  1
  O2-  O214  1  0.67258526  0.70419933  0.60169469  1
  O2-  O215  1  0.66945876  0.70038007  0.94021320  1
  O2-  O216  1  0.08153914  0.46450260  0.06948702  1
  O2-  O217  1  0.08745375  0.46503669  0.40019612  1
  O2-  O218  1  0.08452791  0.45493540  0.72547737  1
  O2-  O219  1  0.08076383  0.94304455  0.05548273  1
  O2-  O220  1  0.08071449  0.95285181  0.40127273  1
  O2-  O221  1  0.08232267  0.95081173  0.73009275  1
  O2-  O222  1  0.58963740  0.45776343  0.06910385  1
  O2-  O223  1  0.58640005  0.45909324  0.39423088  1
  O2-  O224  1  0.57997332  0.45221045  0.73623831  1
  O2-  O225  1  0.58003744  0.95740269  0.06897064  1
  O2-  O226  1  0.58039683  0.95388247  0.40236286  1
  O2-  O227  1  0.58464940  0.96207992  0.73401593  1
  O2-  O228  1  0.20410508  0.33219510  0.06985084  1
  O2-  O229  1  0.19907461  0.33907327  0.40076012  1
  O2-  O230  1  0.20084083  0.33348387  0.72583265  1
  O2-  O231  1  0.20922864  0.83612451  0.05994231  1
  O2-  O232  1  0.20499926  0.82728166  0.40020377  1
  O2-  O233  1  0.20019626  0.83227443  0.72669871  1
  O2-  O234  1  0.70804277  0.33709325  0.06499331  1
  O2-  O235  1  0.70578071  0.34032952  0.39430201  1
  O2-  O236  1  0.70950918  0.32851058  0.73459843  1
  O2-  O237  1  0.70617941  0.82964372  0.07036757  1
  O2-  O238  1  0.71058314  0.82839590  0.40241717  1
  O2-  O239  1  0.71107489  0.83395990  0.73439673  1
  O2-  O240  1  0.45629004  0.41668537  0.26923009  1
  O2-  O241  1  0.45489943  0.41287254  0.60485019  1
  O2-  O242  1  0.45931078  0.42186541  0.93602955  1
  O2-  O243  1  0.45410780  0.91160861  0.27275983  1
  O2-  O244  1  0.46108644  0.92095270  0.59623003  1
  O2-  O245  1  0.46202676  0.91436290  0.93213982  1
  O2-  O246  1  0.96140156  0.41300506  0.27143098  1
  O2-  O247  1  0.96285474  0.41465165  0.59338119  1
  O2-  O248  1  0.95895229  0.41909285  0.93153644  1
  O2-  O249  1  0.95217160  0.91614525  0.27494686  1
  O2-  O250  1  0.95685490  0.91275986  0.60141781  1
  O2-  O251  1  0.94662343  0.91463340  0.93634445  1
  O2-  O252  1  0.32805192  0.30716910  0.27767975  1
  O2-  O253  1  0.33607623  0.29318927  0.60353637  1
  O2-  O254  1  0.32824026  0.30130583  0.93487486  1
  O2-  O255  1  0.33875730  0.78539159  0.27157973  1
  O2-  O256  1  0.33008462  0.79426564  0.59502384  1
  O2-  O257  1  0.33581574  0.78948692  0.93058444  1
  O2-  O258  1  0.83550158  0.30101377  0.27318299  1
  O2-  O259  1  0.83262486  0.29025987  0.59496801  1
  O2-  O260  1  0.82941075  0.29809342  0.93093864  1
  O2-  O261  1  0.83973507  0.78852780  0.26903922  1
  O2-  O262  1  0.83828984  0.79180970  0.60303485  1
  O2-  O263  1  0.83274995  0.79085679  0.93892167  1
  O2-  O264  1  0.41298954  0.03506058  0.06691991  1
  O2-  O265  1  0.41825863  0.04223421  0.40134032  1
  O2-  O266  1  0.41644123  0.04007276  0.73531322  1
  O2-  O267  1  0.42232732  0.54856488  0.07037907  1
  O2-  O268  1  0.41412394  0.54454967  0.39557478  1
  O2-  O269  1  0.41626681  0.54297598  0.73377126  1
  O2-  O270  1  0.92028285  0.04275290  0.06549034  1
  O2-  O271  1  0.91873973  0.04892920  0.40344064  1
  O2-  O272  1  0.91967212  0.04756821  0.72536144  1
  O2-  O273  1  0.91350623  0.54236919  0.06459031  1
  O2-  O274  1  0.91355226  0.54052879  0.39532938  1
  O2-  O275  1  0.92131165  0.53960724  0.73225702  1
  O2-  O276  1  0.29349188  0.16910640  0.06668784  1
  O2-  O277  1  0.29305777  0.17171749  0.40154791  1
  O2-  O278  1  0.28927561  0.16716435  0.73450983  1
  O2-  O279  1  0.28782602  0.67028305  0.06879508  1
  O2-  O280  1  0.28937647  0.65967336  0.39872143  1
  O2-  O281  1  0.28776850  0.66858322  0.73013225  1
  O2-  O282  1  0.79616810  0.17261301  0.06373752  1
  O2-  O283  1  0.78999723  0.17379534  0.40059733  1
  O2-  O284  1  0.79967568  0.16645464  0.72595725  1
  O2-  O285  1  0.79459757  0.66079726  0.06738465  1
  O2-  O286  1  0.79822994  0.66234977  0.39327771  1
  O2-  O287  1  0.79999310  0.66922075  0.73591627  1
