# generated using pymatgen
data_Ca2Al2SiO7
_symmetry_space_group_name_H-M   'P 1'
_cell_length_a   15.45614054
_cell_length_b   15.45580399
_cell_length_c   15.28240540
_cell_angle_alpha   90.00025318
_cell_angle_beta   89.99685034
_cell_angle_gamma   90.01135778
_symmetry_Int_Tables_number   1
_chemical_formula_structural   Ca2Al2SiO7
_chemical_formula_sum   'Ca48 Al48 Si24 O168'
_cell_volume   3650.76910242
_cell_formula_units_Z   24
loop_
 _symmetry_equiv_pos_site_id
 _symmetry_equiv_pos_as_xyz
  1  'x, y, z'
loop_
 _atom_type_symbol
 _atom_type_oxidation_number
  Ca2+  2.0
  Al0+  0.0
  Si0+  0.0
  O2-  -2.0
loop_
 _atom_site_type_symbol
 _atom_site_label
 _atom_site_symmetry_multiplicity
 _atom_site_fract_x
 _atom_site_fract_y
 _atom_site_fract_z
 _atom_site_occupancy
  Ca2+  Ca0  1  0.16650833  0.08065645  0.16902309  1
  Ca2+  Ca1  1  0.17726489  0.08598350  0.50953775  1
  Ca2+  Ca2  1  0.15838817  0.07832902  0.83617342  1
  Ca2+  Ca3  1  0.16408048  0.58329639  0.16743929  1
  Ca2+  Ca4  1  0.17576588  0.57433630  0.51114293  1
  Ca2+  Ca5  1  0.16620936  0.57950094  0.83382686  1
  Ca2+  Ca6  1  0.67919274  0.07931851  0.17212655  1
  Ca2+  Ca7  1  0.66617793  0.07819267  0.50494484  1
  Ca2+  Ca8  1  0.67003800  0.08382295  0.83615234  1
  Ca2+  Ca9  1  0.67723846  0.58239199  0.17064157  1
  Ca2+  Ca10  1  0.66929213  0.57788410  0.50363231  1
  Ca2+  Ca11  1  0.67445543  0.56721463  0.84053211  1
  Ca2+  Ca12  1  0.06941415  0.32456684  0.15804313  1
  Ca2+  Ca13  1  0.07798293  0.33260563  0.49902609  1
  Ca2+  Ca14  1  0.07243665  0.32488656  0.82497945  1
  Ca2+  Ca15  1  0.08523861  0.82688574  0.15523898  1
  Ca2+  Ca16  1  0.08585361  0.83468810  0.50151446  1
  Ca2+  Ca17  1  0.08920892  0.83239305  0.83166395  1
  Ca2+  Ca18  1  0.57786222  0.33755220  0.16361274  1
  Ca2+  Ca19  1  0.57969743  0.32968516  0.49899993  1
  Ca2+  Ca20  1  0.59039137  0.32901973  0.82489978  1
  Ca2+  Ca21  1  0.58360342  0.83296542  0.16563107  1
  Ca2+  Ca22  1  0.58939144  0.83004523  0.49244527  1
  Ca2+  Ca23  1  0.57668618  0.83771755  0.82716408  1
  Ca2+  Ca24  1  0.33068300  0.41310631  0.17299948  1
  Ca2+  Ca25  1  0.33062674  0.41878474  0.50900086  1
  Ca2+  Ca26  1  0.32753429  0.41933380  0.83172120  1
  Ca2+  Ca27  1  0.33015711  0.91862731  0.16732808  1
  Ca2+  Ca28  1  0.32985261  0.92933149  0.50828165  1
  Ca2+  Ca29  1  0.32508871  0.92257536  0.83602837  1
  Ca2+  Ca30  1  0.83602402  0.42082933  0.16792036  1
  Ca2+  Ca31  1  0.83648488  0.41777611  0.50374172  1
  Ca2+  Ca32  1  0.82735380  0.40815504  0.83999604  1
  Ca2+  Ca33  1  0.83494768  0.93125301  0.17383832  1
  Ca2+  Ca34  1  0.82200872  0.92190815  0.50129902  1
  Ca2+  Ca35  1  0.82825865  0.92417565  0.83811155  1
  Ca2+  Ca36  1  0.41483627  0.16812306  0.16832697  1
  Ca2+  Ca37  1  0.41789132  0.16461338  0.49625433  1
  Ca2+  Ca38  1  0.42490586  0.16393635  0.82401549  1
  Ca2+  Ca39  1  0.42780818  0.67361798  0.15926999  1
  Ca2+  Ca40  1  0.42400373  0.66524020  0.49364521  1
  Ca2+  Ca41  1  0.41215198  0.67305263  0.82988075  1
  Ca2+  Ca42  1  0.91191363  0.17202073  0.15831731  1
  Ca2+  Ca43  1  0.91793333  0.17769873  0.49635374  1
  Ca2+  Ca44  1  0.92081178  0.17159200  0.82807874  1
  Ca2+  Ca45  1  0.91775280  0.66447852  0.15990381  1
  Ca2+  Ca46  1  0.91447044  0.66716683  0.49346740  1
  Ca2+  Ca47  1  0.92079840  0.66113463  0.83441556  1
  Al0+  Al48  1  0.00037678  -0.00196001  0.00626750  1
  Al0+  Al49  1  -0.00027661  -0.00078288  0.33898212  1
  Al0+  Al50  1  -0.00014262  -0.00030622  0.66324855  1
  Al0+  Al51  1  0.00009166  0.49963481  -0.00490948  1
  Al0+  Al52  1  -0.00027488  0.49872728  0.33342708  1
  Al0+  Al53  1  0.00196972  0.50232037  0.66513651  1
  Al0+  Al54  1  0.49783551  0.00034037  -0.00294723  1
  Al0+  Al55  1  0.49790185  -0.00084571  0.33776357  1
  Al0+  Al56  1  0.49945782  -0.00066451  0.66831139  1
  Al0+  Al57  1  0.49923367  0.50074464  0.00245872  1
  Al0+  Al58  1  0.50088130  0.50113668  0.32286169  1
  Al0+  Al59  1  0.50305952  0.50181640  0.67537496  1
  Al0+  Al60  1  0.25052704  0.24983970  -0.00352164  1
  Al0+  Al61  1  0.24904018  0.24896741  0.33239399  1
  Al0+  Al62  1  0.25046996  0.25209480  0.67268693  1
  Al0+  Al63  1  0.25078008  0.75110358  -0.00358790  1
  Al0+  Al64  1  0.25104782  0.74879390  0.33323480  1
  Al0+  Al65  1  0.25102140  0.75244454  0.66925864  1
  Al0+  Al66  1  0.74638762  0.24918991  0.00662833  1
  Al0+  Al67  1  0.74900035  0.25119068  0.33232446  1
  Al0+  Al68  1  0.74945223  0.25026463  0.65894215  1
  Al0+  Al69  1  0.74868505  0.74751290  0.00065621  1
  Al0+  Al70  1  0.75211833  0.74853133  0.33420319  1
  Al0+  Al71  1  0.74969598  0.75092686  0.67167247  1
  Al0+  Al72  1  0.82171462  0.56847402  0.34783610  1
  Al0+  Al73  1  0.92850463  0.32102286  0.31733174  1
  Al0+  Al74  1  0.17723231  0.93111852  0.68208378  1
  Al0+  Al75  1  0.68222470  0.42841214  0.67758216  1
  Al0+  Al76  1  0.56984384  0.17781484  0.65231317  1
  Al0+  Al77  1  0.07286208  0.17742738  0.65020717  1
  Al0+  Al78  1  0.92881201  0.32226745  0.64988719  1
  Al0+  Al79  1  0.68000582  0.92944210  0.34656471  1
  Al0+  Al80  1  0.92647522  0.31915727  0.98490978  1
  Al0+  Al81  1  0.67910325  0.92821073  0.68166671  1
  Al0+  Al82  1  0.43098842  0.82082254  0.98488454  1
  Al0+  Al83  1  0.82252135  0.07552357  0.35144426  1
  Al0+  Al84  1  0.07141747  0.17630032  0.98569710  1
  Al0+  Al85  1  0.82016856  0.06882676  0.01176980  1
  Al0+  Al86  1  0.17705933  0.42887797  0.68309465  1
  Al0+  Al87  1  0.18061344  0.92930036  0.01473774  1
  Al0+  Al88  1  0.32167451  0.07340429  0.68320393  1
  Al0+  Al89  1  0.07041596  0.67926033  0.98542895  1
  Al0+  Al90  1  0.67737592  0.42714927  0.01822429  1
  Al0+  Al91  1  0.82299904  0.56998881  0.01499124  1
  Al0+  Al92  1  0.32337791  0.57181909  0.68138676  1
  Al0+  Al93  1  0.57312995  0.67972702  0.31886562  1
  Al0+  Al94  1  0.31829182  0.07098118  0.34645323  1
  Al0+  Al95  1  0.42844913  0.31991415  0.32117839  1
  Si0+  Si96  1  0.07151282  0.17700096  0.31703098  1
  Si0+  Si97  1  0.32370238  0.07347090  0.01770322  1
  Si0+  Si98  1  0.67456798  0.42950670  0.34999551  1
  Si0+  Si99  1  0.57165886  0.67976057  0.65315198  1
  Si0+  Si100  1  0.92636970  0.82236683  0.98469755  1
  Si0+  Si101  1  0.57278395  0.67686700  0.98010802  1
  Si0+  Si102  1  0.56825018  0.18044237  0.98693910  1
  Si0+  Si103  1  0.42748924  0.32368473  0.98342570  1
  Si0+  Si104  1  0.32248032  0.57113705  0.34487883  1
  Si0+  Si105  1  0.17805925  0.92419949  0.35018251  1
  Si0+  Si106  1  0.82305367  0.57358123  0.68277310  1
  Si0+  Si107  1  0.42901712  0.82018722  0.64938101  1
  Si0+  Si108  1  0.57086184  0.17545000  0.31610986  1
  Si0+  Si109  1  0.07219733  0.67933326  0.32017921  1
  Si0+  Si110  1  0.92642155  0.82045895  0.65113498  1
  Si0+  Si111  1  0.42698457  0.82217429  0.31713103  1
  Si0+  Si112  1  0.18028830  0.42828439  0.01549720  1
  Si0+  Si113  1  0.93037442  0.82068148  0.31925057  1
  Si0+  Si114  1  0.31959209  0.57185412  0.01711638  1
  Si0+  Si115  1  0.82032303  0.07191675  0.68136656  1
  Si0+  Si116  1  0.17997149  0.43010939  0.34598747  1
  Si0+  Si117  1  0.07235177  0.68114386  0.64992440  1
  Si0+  Si118  1  0.67480494  0.92751410  0.01508023  1
  Si0+  Si119  1  0.42984727  0.32486262  0.65378638  1
  O2-  O120  1  0.25211689  0.00721580  0.06113003  1
  O2-  O121  1  0.24431380  -0.00459056  0.39252064  1
  O2-  O122  1  0.24437607  0.00700246  0.73281956  1
  O2-  O123  1  0.25090863  0.49907256  0.06058397  1
  O2-  O124  1  0.25344215  0.49931316  0.38790559  1
  O2-  O125  1  0.25037377  0.50111068  0.73177531  1
  O2-  O126  1  0.74820811  -0.00940199  0.05864942  1
  O2-  O127  1  0.74714317  0.00494900  0.39847346  1
  O2-  O128  1  0.75174952  0.00418975  0.72782615  1
  O2-  O129  1  0.75082642  0.49886768  0.06614156  1
  O2-  O130  1  0.74745542  0.49362162  0.39459341  1
  O2-  O131  1  0.76083148  0.49865750  0.72477246  1
  O2-  O132  1  -0.00268912  0.23947301  0.27264705  1
  O2-  O133  1  0.00263751  0.25134093  0.60013897  1
  O2-  O134  1  -0.00154655  0.24696156  0.93589991  1
  O2-  O135  1  0.00506469  0.75322088  0.27740484  1
  O2-  O136  1  -0.00086281  0.75027626  0.60824972  1
  O2-  O137  1  -0.00705341  0.75190880  0.93946336  1
  O2-  O138  1  0.50328254  0.24610526  0.27226672  1
  O2-  O139  1  0.49291353  0.25201599  0.60781228  1
  O2-  O140  1  0.49939734  0.25320481  0.94353757  1
  O2-  O141  1  0.49856297  0.75604219  0.27358285  1
  O2-  O142  1  0.50071595  0.74942108  0.60778957  1
  O2-  O143  1  0.50740735  0.74865692  0.93593151  1
  O2-  O144  1  0.07323419  0.17948144  0.09982544  1
  O2-  O145  1  0.07547561  0.18134063  0.42214177  1
  O2-  O146  1  0.06681808  0.17527990  0.76345729  1
  O2-  O147  1  0.07226729  0.68102131  0.09934248  1
  O2-  O148  1  0.07374523  0.67996586  0.42525658  1
  O2-  O149  1  0.07224044  0.68107537  0.75477332  1
  O2-  O150  1  0.56508687  0.17833939  0.09207827  1
  O2-  O151  1  0.56847597  0.17510225  0.42160145  1
  O2-  O152  1  0.57142522  0.17929527  0.76596804  1
  O2-  O153  1  0.57087688  0.67746708  0.08594651  1
  O2-  O154  1  0.56950350  0.67784462  0.43252171  1
  O2-  O155  1  0.57100293  0.68228444  0.75788250  1
  O2-  O156  1  0.18068778  0.43231742  0.24052181  1
  O2-  O157  1  0.17851821  0.43270228  0.56840449  1
  O2-  O158  1  0.18334103  0.43008240  0.91104468  1
  O2-  O159  1  0.17961423  0.91995316  0.24468440  1
  O2-  O160  1  0.18255049  0.92698343  0.56813807  1
  O2-  O161  1  0.18258463  0.92788326  0.90243280  1
  O2-  O162  1  0.67264431  0.43338787  0.24471601  1
  O2-  O163  1  0.67745499  0.43300974  0.56460834  1
  O2-  O164  1  0.67676877  0.42676412  0.90442609  1
  O2-  O165  1  0.68271507  0.93013371  0.23258635  1
  O2-  O166  1  0.68141474  0.92434428  0.56893947  1
  O2-  O167  1  0.67371217  0.93127498  0.90944676  1
  O2-  O168  1  0.42570882  0.32277624  0.08895300  1
  O2-  O169  1  0.42836083  0.32209109  0.43398872  1
  O2-  O170  1  0.43484551  0.32631882  0.75947160  1
  O2-  O171  1  0.43236147  0.81919116  0.09853217  1
  O2-  O172  1  0.42316562  0.81840521  0.42247084  1
  O2-  O173  1  0.42943352  0.81906335  0.75447895  1
  O2-  O174  1  0.92943271  0.31900717  0.09887603  1
  O2-  O175  1  0.93457144  0.32531706  0.42991791  1
  O2-  O176  1  0.92654256  0.31941736  0.76314610  1
  O2-  O177  1  0.92899518  0.82225568  0.09064256  1
  O2-  O178  1  0.93038771  0.81826791  0.42463623  1
  O2-  O179  1  0.92414465  0.81873218  0.75601534  1
  O2-  O180  1  0.31661182  0.07029876  0.23307607  1
  O2-  O181  1  0.32312818  0.06929853  0.56920930  1
  O2-  O182  1  0.32862802  0.07213743  0.91296944  1
  O2-  O183  1  0.31871168  0.57318845  0.23973463  1
  O2-  O184  1  0.32371591  0.57036245  0.56669340  1
  O2-  O185  1  0.31956401  0.57086195  0.91237890  1
  O2-  O186  1  0.82320565  0.07182409  0.23746865  1
  O2-  O187  1  0.81802964  0.06911122  0.57587899  1
  O2-  O188  1  0.81713499  0.06841025  0.89855291  1
  O2-  O189  1  0.82384292  0.56929209  0.23539423  1
  O2-  O190  1  0.81984655  0.57746098  0.57689277  1
  O2-  O191  1  0.82060928  0.57069694  0.90136295  1
  O2-  O192  1  0.05264938  0.07932530  0.27592109  1
  O2-  O193  1  0.04620288  0.07838711  0.59619873  1
  O2-  O194  1  0.04409160  0.07599333  0.93710074  1
  O2-  O195  1  0.04258636  0.58854432  0.27233178  1
  O2-  O196  1  0.04731154  0.58945494  0.60077814  1
  O2-  O197  1  0.04241258  0.58326881  0.92923657  1
  O2-  O198  1  0.54214853  0.08251005  0.26980076  1
  O2-  O199  1  0.53889407  0.08080209  0.59855627  1
  O2-  O200  1  0.53980538  0.08959937  0.93754322  1
  O2-  O201  1  0.53972728  0.58687158  0.25953977  1
  O2-  O202  1  0.54370885  0.58742378  0.60659114  1
  O2-  O203  1  0.54151915  0.58412853  0.93546921  1
  O2-  O204  1  0.16253496  0.20778081  0.26821117  1
  O2-  O205  1  0.17379708  0.20655300  0.60158299  1
  O2-  O206  1  0.17051863  0.20403203  0.93349654  1
  O2-  O207  1  0.16513738  0.70370425  0.27155489  1
  O2-  O208  1  0.16388911  0.71127819  0.60208482  1
  O2-  O209  1  0.16580874  0.71212614  0.93114112  1
  O2-  O210  1  0.66503661  0.19945799  0.27084800  1
  O2-  O211  1  0.66396991  0.20933578  0.59473576  1
  O2-  O212  1  0.66011506  0.20676305  0.93998604  1
  O2-  O213  1  0.66954139  0.71089131  0.26464653  1
  O2-  O214  1  0.66389499  0.70824038  0.60623090  1
  O2-  O215  1  0.66791268  0.69727619  0.93531134  1
  O2-  O216  1  0.08840321  0.45737148  0.06142042  1
  O2-  O217  1  0.09078817  0.46192009  0.39485040  1
  O2-  O218  1  0.08031516  0.46253376  0.73606967  1
  O2-  O219  1  0.08376158  0.95383221  0.07145457  1
  O2-  O220  1  0.08352521  0.94511390  0.39556817  1
  O2-  O221  1  0.07570474  0.95135419  0.73235267  1
  O2-  O222  1  0.57808440  0.45796180  0.06981205  1
  O2-  O223  1  0.58184895  0.46093793  0.39496123  1
  O2-  O224  1  0.58931218  0.46209861  0.73667152  1
  O2-  O225  1  0.58304782  0.95823749  0.06219310  1
  O2-  O226  1  0.57936378  0.95032565  0.39828759  1
  O2-  O227  1  0.58227953  0.95734881  0.73432833  1
  O2-  O228  1  0.20994784  0.33677958  0.06320591  1
  O2-  O229  1  0.20664964  0.33835509  0.39269771  1
  O2-  O230  1  0.20359792  0.33214147  0.73850715  1
  O2-  O231  1  0.21616122  0.83330997  0.06865832  1
  O2-  O232  1  0.20582774  0.83107247  0.39757276  1
  O2-  O233  1  0.20963988  0.83386739  0.73482798  1
  O2-  O234  1  0.70041846  0.32900616  0.07318052  1
  O2-  O235  1  0.69350693  0.33316789  0.39181468  1
  O2-  O236  1  0.70936339  0.33021216  0.73015248  1
  O2-  O237  1  0.69320790  0.83080154  0.05689145  1
  O2-  O238  1  0.71322169  0.83252123  0.39999493  1
  O2-  O239  1  0.71103426  0.83326623  0.73865274  1
  O2-  O240  1  0.45664310  0.41554124  0.26251153  1
  O2-  O241  1  0.46054517  0.41769043  0.60765389  1
  O2-  O242  1  0.45278724  0.41697749  0.93823949  1
  O2-  O243  1  0.44980802  0.91657949  0.27160687  1
  O2-  O244  1  0.45759957  0.91162582  0.60254292  1
  O2-  O245  1  0.45899327  0.91789797  0.92994719  1
  O2-  O246  1  0.96639019  0.41603365  0.26331098  1
  O2-  O247  1  0.95687880  0.42283393  0.59907207  1
  O2-  O248  1  0.95475134  0.41733320  0.93260263  1
  O2-  O249  1  0.95519020  0.91423711  0.27324967  1
  O2-  O250  1  0.95279546  0.91143559  0.60159849  1
  O2-  O251  1  0.95450588  0.91464489  0.93848122  1
  O2-  O252  1  0.33220089  0.28860412  0.26464905  1
  O2-  O253  1  0.33334796  0.30710324  0.61139742  1
  O2-  O254  1  0.33653722  0.29626185  0.93498978  1
  O2-  O255  1  0.33470553  0.79242964  0.26889670  1
  O2-  O256  1  0.33745389  0.79193606  0.60139564  1
  O2-  O257  1  0.33655969  0.78614510  0.93009549  1
  O2-  O258  1  0.82840699  0.29834042  0.26641472  1
  O2-  O259  1  0.83190120  0.29349651  0.59390626  1
  O2-  O260  1  0.82599126  0.29010230  0.93702480  1
  O2-  O261  1  0.84097007  0.78979681  0.27025285  1
  O2-  O262  1  0.83560474  0.78887376  0.60279070  1
  O2-  O263  1  0.83107332  0.80014056  0.93965640  1
  O2-  O264  1  0.41559410  0.04326016  0.06581994  1
  O2-  O265  1  0.41444555  0.04159214  0.40136375  1
  O2-  O266  1  0.41743695  0.03746951  0.73663659  1
  O2-  O267  1  0.41205531  0.54577007  0.06436501  1
  O2-  O268  1  0.41551888  0.54473834  0.38935277  1
  O2-  O269  1  0.41996611  0.54540921  0.73846963  1
  O2-  O270  1  0.91512898  0.03920417  0.06969575  1
  O2-  O271  1  0.92009791  0.04394836  0.40439296  1
  O2-  O272  1  0.91353221  0.04396767  0.72563799  1
  O2-  O273  1  0.92317601  0.54426434  0.06639435  1
  O2-  O274  1  0.91899601  0.53944872  0.40267868  1
  O2-  O275  1  0.91971095  0.55624219  0.72410142  1
  O2-  O276  1  0.30064123  0.16886912  0.06201438  1
  O2-  O277  1  0.28796913  0.16753472  0.40091106  1
  O2-  O278  1  0.30557622  0.17446795  0.73381166  1
  O2-  O279  1  0.28953924  0.66277296  0.06433872  1
  O2-  O280  1  0.29454356  0.66210530  0.39452471  1
  O2-  O281  1  0.29333999  0.66975365  0.73320369  1
  O2-  O282  1  0.78451748  0.16183400  0.06906792  1
  O2-  O283  1  0.79571823  0.17509863  0.40185126  1
  O2-  O284  1  0.79379062  0.16562370  0.72497128  1
  O2-  O285  1  0.79496747  0.66987351  0.06775314  1
  O2-  O286  1  0.79176921  0.66518213  0.40174986  1
  O2-  O287  1  0.79214733  0.66374425  0.73215083  1
