# generated using pymatgen
data_Ca2Al2SiO7
_symmetry_space_group_name_H-M   'P 1'
_cell_length_a   15.46443433
_cell_length_b   15.46589807
_cell_length_c   15.28928563
_cell_angle_alpha   89.99787137
_cell_angle_beta   90.00224604
_cell_angle_gamma   89.98180526
_symmetry_Int_Tables_number   1
_chemical_formula_structural   Ca2Al2SiO7
_chemical_formula_sum   'Ca48 Al48 Si24 O168'
_cell_volume   3656.75912647
_cell_formula_units_Z   24
loop_
 _symmetry_equiv_pos_site_id
 _symmetry_equiv_pos_as_xyz
  1  'x, y, z'
loop_
 _atom_type_symbol
 _atom_type_oxidation_number
  Ca2+  2.0
  Al0+  0.0
  Si0+  0.0
  O2-  -2.0
loop_
 _atom_site_type_symbol
 _atom_site_label
 _atom_site_symmetry_multiplicity
 _atom_site_fract_x
 _atom_site_fract_y
 _atom_site_fract_z
 _atom_site_occupancy
  Ca2+  Ca0  1  0.15881104  0.07992716  0.16675695  1
  Ca2+  Ca1  1  0.17100782  0.08524932  0.51160656  1
  Ca2+  Ca2  1  0.16493631  0.07833658  0.83432091  1
  Ca2+  Ca3  1  0.16792724  0.58109895  0.16370544  1
  Ca2+  Ca4  1  0.17132547  0.57107041  0.50825594  1
  Ca2+  Ca5  1  0.16916158  0.57168574  0.84515895  1
  Ca2+  Ca6  1  0.67898255  0.09164191  0.17329711  1
  Ca2+  Ca7  1  0.67018613  0.09514338  0.50149702  1
  Ca2+  Ca8  1  0.67397504  0.08864520  0.84137868  1
  Ca2+  Ca9  1  0.66155230  0.57845372  0.16385554  1
  Ca2+  Ca10  1  0.66680802  0.58373861  0.50700107  1
  Ca2+  Ca11  1  0.66337330  0.58124414  0.84173458  1
  Ca2+  Ca12  1  0.07331021  0.32301104  0.15686836  1
  Ca2+  Ca13  1  0.08615137  0.32114325  0.49441861  1
  Ca2+  Ca14  1  0.08904866  0.32615045  0.82987459  1
  Ca2+  Ca15  1  0.08670884  0.82801029  0.15434600  1
  Ca2+  Ca16  1  0.07932110  0.84197603  0.50278578  1
  Ca2+  Ca17  1  0.08484319  0.83496076  0.83206684  1
  Ca2+  Ca18  1  0.58271534  0.33270780  0.16496501  1
  Ca2+  Ca19  1  0.57066178  0.32255882  0.49744507  1
  Ca2+  Ca20  1  0.57731909  0.33171149  0.82709647  1
  Ca2+  Ca21  1  0.56919115  0.83000684  0.15780718  1
  Ca2+  Ca22  1  0.57693261  0.82905094  0.49547699  1
  Ca2+  Ca23  1  0.57876005  0.82233983  0.83075720  1
  Ca2+  Ca24  1  0.33098453  0.41924898  0.16623612  1
  Ca2+  Ca25  1  0.33194255  0.40919234  0.50786844  1
  Ca2+  Ca26  1  0.32367048  0.41619702  0.83881921  1
  Ca2+  Ca27  1  0.33002391  0.90950478  0.16758221  1
  Ca2+  Ca28  1  0.32886735  0.92500284  0.50809309  1
  Ca2+  Ca29  1  0.32693468  0.92130986  0.83932167  1
  Ca2+  Ca30  1  0.83098965  0.40615005  0.16796407  1
  Ca2+  Ca31  1  0.83482821  0.41369448  0.50079320  1
  Ca2+  Ca32  1  0.82394052  0.41154130  0.84428234  1
  Ca2+  Ca33  1  0.83472990  0.93231719  0.17053126  1
  Ca2+  Ca34  1  0.83375903  0.92318160  0.50610847  1
  Ca2+  Ca35  1  0.83491529  0.92145229  0.83863138  1
  Ca2+  Ca36  1  0.42158729  0.17094542  0.16654955  1
  Ca2+  Ca37  1  0.41670822  0.17338224  0.49624840  1
  Ca2+  Ca38  1  0.41925818  0.17189992  0.82116564  1
  Ca2+  Ca39  1  0.41462984  0.67562497  0.15428244  1
  Ca2+  Ca40  1  0.42055764  0.67183748  0.49640697  1
  Ca2+  Ca41  1  0.42067310  0.66360823  0.83602077  1
  Ca2+  Ca42  1  0.92182490  0.16777295  0.16082957  1
  Ca2+  Ca43  1  0.92996475  0.16774623  0.49243009  1
  Ca2+  Ca44  1  0.92641585  0.16671228  0.83630639  1
  Ca2+  Ca45  1  0.92439149  0.67012019  0.15902660  1
  Ca2+  Ca46  1  0.91778006  0.67500593  0.50080705  1
  Ca2+  Ca47  1  0.92563652  0.67068463  0.82954008  1
  Al0+  Al48  1  0.00066716  0.00165410  0.00523547  1
  Al0+  Al49  1  -0.00228092  -0.00134115  0.33550289  1
  Al0+  Al50  1  -0.00149875  0.00088615  0.66281089  1
  Al0+  Al51  1  -0.00313121  0.50021743  -0.00352298  1
  Al0+  Al52  1  -0.00003337  0.50050325  0.33352460  1
  Al0+  Al53  1  -0.00039244  0.50210687  0.67060870  1
  Al0+  Al54  1  0.49947687  -0.00009873  -0.00394677  1
  Al0+  Al55  1  0.49921831  -0.00218413  0.32570963  1
  Al0+  Al56  1  0.50370009  -0.00193141  0.66768976  1
  Al0+  Al57  1  0.50010351  0.49996326  0.00568540  1
  Al0+  Al58  1  0.50043063  0.50062497  0.33318292  1
  Al0+  Al59  1  0.50170785  0.49985007  0.65792412  1
  Al0+  Al60  1  0.25007574  0.24855943  0.00157468  1
  Al0+  Al61  1  0.24997488  0.24833004  0.32460575  1
  Al0+  Al62  1  0.24998210  0.24980635  0.66790570  1
  Al0+  Al63  1  0.24878158  0.75109204  -0.00310679  1
  Al0+  Al64  1  0.25029791  0.74842632  0.33443011  1
  Al0+  Al65  1  0.25007486  0.74854722  0.66890558  1
  Al0+  Al66  1  0.75074701  0.25066894  0.00556159  1
  Al0+  Al67  1  0.75014889  0.25132444  0.33721002  1
  Al0+  Al68  1  0.75049269  0.25186161  0.66540986  1
  Al0+  Al69  1  0.74748223  0.75073481  -0.00023234  1
  Al0+  Al70  1  0.75073904  0.74932130  0.33369940  1
  Al0+  Al71  1  0.75163884  0.75122209  0.65938377  1
  Al0+  Al72  1  0.57002807  0.67784294  0.98573384  1
  Al0+  Al73  1  0.57079094  0.17913337  0.31747122  1
  Al0+  Al74  1  0.07111824  0.17560080  0.31729422  1
  Al0+  Al75  1  0.81908774  0.06910859  0.01345589  1
  Al0+  Al76  1  0.42651678  0.82282620  0.98119528  1
  Al0+  Al77  1  0.57458657  0.17600646  0.65420502  1
  Al0+  Al78  1  0.93058851  0.32283371  0.31997741  1
  Al0+  Al79  1  0.93162890  0.82041347  0.65386050  1
  Al0+  Al80  1  0.07212471  0.17806454  0.98251162  1
  Al0+  Al81  1  0.57052343  0.67987372  0.65189072  1
  Al0+  Al82  1  0.17526769  0.42590203  0.01719804  1
  Al0+  Al83  1  0.17908540  0.42889002  0.67910939  1
  Al0+  Al84  1  0.07019649  0.67841718  0.98638196  1
  Al0+  Al85  1  0.31920664  0.56951744  0.01447950  1
  Al0+  Al86  1  0.17703140  0.92920248  0.68148231  1
  Al0+  Al87  1  0.67966511  0.43019637  0.01409718  1
  Al0+  Al88  1  0.92684110  0.32010820  0.98420168  1
  Al0+  Al89  1  0.81982376  0.07135442  0.35121693  1
  Al0+  Al90  1  0.42870749  0.31894891  0.65406385  1
  Al0+  Al91  1  0.06897124  0.18094155  0.65415630  1
  Al0+  Al92  1  0.42832067  0.81879023  0.32016779  1
  Al0+  Al93  1  0.32372755  0.07101460  0.68030029  1
  Al0+  Al94  1  0.42787061  0.32318842  0.31531097  1
  Al0+  Al95  1  0.18150839  0.93171126  0.01353976  1
  Si0+  Si96  1  0.42649588  0.82228172  0.64970367  1
  Si0+  Si97  1  0.92796454  0.82036043  0.31798388  1
  Si0+  Si98  1  0.32619582  0.07311264  0.01837327  1
  Si0+  Si99  1  0.07026940  0.67993473  0.32045630  1
  Si0+  Si100  1  0.32509171  0.57155936  0.68176521  1
  Si0+  Si101  1  0.81903350  0.07167351  0.68178482  1
  Si0+  Si102  1  0.67808813  0.43016332  0.35220380  1
  Si0+  Si103  1  0.67563487  0.92659654  0.01665849  1
  Si0+  Si104  1  0.67769852  0.92709994  0.35013470  1
  Si0+  Si105  1  0.57171747  0.18023831  0.98683515  1
  Si0+  Si106  1  0.82152515  0.57573379  0.01637996  1
  Si0+  Si107  1  0.92797791  0.82322609  0.98662938  1
  Si0+  Si108  1  0.68094935  0.43122557  0.68024016  1
  Si0+  Si109  1  0.68050055  0.92542517  0.68130366  1
  Si0+  Si110  1  0.07359149  0.67574894  0.64917482  1
  Si0+  Si111  1  0.18004935  0.42932261  0.34702507  1
  Si0+  Si112  1  0.32099493  0.57191592  0.34936923  1
  Si0+  Si113  1  0.32120204  0.07004984  0.34580594  1
  Si0+  Si114  1  0.57405556  0.67807473  0.31572910  1
  Si0+  Si115  1  0.82023499  0.57422185  0.68183256  1
  Si0+  Si116  1  0.92732383  0.32533105  0.65134394  1
  Si0+  Si117  1  0.42949035  0.32086005  0.98603736  1
  Si0+  Si118  1  0.17909506  0.92642997  0.34817717  1
  Si0+  Si119  1  0.82236741  0.57259903  0.35031996  1
  O2-  O120  1  0.25664847  0.00478935  0.06233398  1
  O2-  O121  1  0.24701297  0.00137946  0.38800869  1
  O2-  O122  1  0.25261538  -0.00211581  0.73030266  1
  O2-  O123  1  0.24683419  0.49896577  0.06716919  1
  O2-  O124  1  0.25518520  0.49590426  0.39114572  1
  O2-  O125  1  0.25375124  0.50494591  0.72378176  1
  O2-  O126  1  0.74376381  -0.00490280  0.06130815  1
  O2-  O127  1  0.74289449  -0.00238648  0.39744078  1
  O2-  O128  1  0.74431496  0.00353982  0.72289671  1
  O2-  O129  1  0.75492942  0.50511250  0.06079500  1
  O2-  O130  1  0.75041326  0.50206336  0.39248989  1
  O2-  O131  1  0.75238477  0.50082397  0.72400516  1
  O2-  O132  1  -0.00155870  0.24794952  0.26963688  1
  O2-  O133  1  -0.00201273  0.25927068  0.60748463  1
  O2-  O134  1  0.00449895  0.25521394  0.93350926  1
  O2-  O135  1  0.00131909  0.75214787  0.27674689  1
  O2-  O136  1  0.00925744  0.74884674  0.60498802  1
  O2-  O137  1  -0.00680558  0.75211178  0.94174857  1
  O2-  O138  1  0.50132919  0.25249310  0.26562710  1
  O2-  O139  1  0.49639929  0.24174867  0.60542125  1
  O2-  O140  1  0.49733713  0.24670863  0.94412207  1
  O2-  O141  1  0.50406231  0.74534551  0.27341730  1
  O2-  O142  1  0.49457640  0.75286379  0.60488142  1
  O2-  O143  1  0.49926198  0.74979753  0.93438046  1
  O2-  O144  1  0.06726698  0.17527089  0.09593894  1
  O2-  O145  1  0.07294993  0.17687920  0.43137828  1
  O2-  O146  1  0.06629532  0.17875828  0.76646247  1
  O2-  O147  1  0.06873052  0.68152634  0.10045455  1
  O2-  O148  1  0.06898165  0.67963031  0.42556254  1
  O2-  O149  1  0.06946668  0.67237021  0.75400274  1
  O2-  O150  1  0.57179661  0.18193135  0.09179259  1
  O2-  O151  1  0.56774245  0.18043873  0.43094200  1
  O2-  O152  1  0.57904385  0.18292313  0.76790305  1
  O2-  O153  1  0.56999006  0.68013154  0.09947808  1
  O2-  O154  1  0.57475035  0.67932182  0.42174100  1
  O2-  O155  1  0.57219834  0.67927241  0.76417825  1
  O2-  O156  1  0.17798227  0.43450943  0.24272995  1
  O2-  O157  1  0.17895211  0.43054415  0.56502168  1
  O2-  O158  1  0.17975952  0.42657342  0.90340846  1
  O2-  O159  1  0.18020384  0.92188416  0.24339825  1
  O2-  O160  1  0.17789420  0.93155463  0.56688297  1
  O2-  O161  1  0.17968067  0.93307596  0.90099163  1
  O2-  O162  1  0.67709545  0.43183018  0.24727337  1
  O2-  O163  1  0.68327795  0.43289066  0.57510669  1
  O2-  O164  1  0.67897639  0.42982742  0.90052852  1
  O2-  O165  1  0.68242680  0.92411450  0.24496629  1
  O2-  O166  1  0.68393516  0.92072275  0.57630457  1
  O2-  O167  1  0.67765990  0.92663571  0.91080080  1
  O2-  O168  1  0.43153996  0.32070332  0.09111761  1
  O2-  O169  1  0.42737480  0.32193449  0.42884072  1
  O2-  O170  1  0.43265953  0.32267474  0.76775067  1
  O2-  O171  1  0.42857992  0.82120115  0.09529251  1
  O2-  O172  1  0.42822705  0.81633640  0.43349426  1
  O2-  O173  1  0.42805036  0.82178141  0.75450204  1
  O2-  O174  1  0.92457391  0.31500510  0.09756606  1
  O2-  O175  1  0.93604258  0.32543199  0.43397049  1
  O2-  O176  1  0.92297634  0.32390490  0.75613416  1
  O2-  O177  1  0.92985608  0.82159437  0.09279068  1
  O2-  O178  1  0.92742511  0.81906932  0.42308556  1
  O2-  O179  1  0.92892507  0.81771480  0.76663962  1
  O2-  O180  1  0.32235972  0.06834080  0.24101618  1
  O2-  O181  1  0.32191018  0.07009775  0.56573878  1
  O2-  O182  1  0.32922684  0.07261665  0.91309581  1
  O2-  O183  1  0.31770152  0.57627860  0.24502674  1
  O2-  O184  1  0.32373151  0.57202040  0.57536037  1
  O2-  O185  1  0.32080692  0.56527465  0.90068506  1
  O2-  O186  1  0.82052151  0.06790990  0.23832682  1
  O2-  O187  1  0.81929433  0.07057471  0.57664979  1
  O2-  O188  1  0.81770147  0.06750662  0.89976115  1
  O2-  O189  1  0.82363227  0.57679671  0.24598509  1
  O2-  O190  1  0.81984008  0.57425352  0.57620613  1
  O2-  O191  1  0.81902244  0.57891458  0.91077101  1
  O2-  O192  1  0.04108317  0.07623586  0.26723189  1
  O2-  O193  1  0.03500663  0.08668781  0.59768566  1
  O2-  O194  1  0.03589584  0.08085531  0.93163050  1
  O2-  O195  1  0.04006053  0.58973682  0.27245822  1
  O2-  O196  1  0.04117447  0.58477420  0.60023940  1
  O2-  O197  1  0.03997774  0.58306707  0.93041401  1
  O2-  O198  1  0.54508494  0.08062477  0.26401015  1
  O2-  O199  1  0.55923903  0.07359318  0.60463621  1
  O2-  O200  1  0.55043502  0.08675502  0.94007667  1
  O2-  O201  1  0.55006118  0.58373796  0.27243971  1
  O2-  O202  1  0.54239666  0.58460556  0.59355657  1
  O2-  O203  1  0.54101155  0.57885605  0.93424153  1
  O2-  O204  1  0.16875314  0.20079466  0.26339457  1
  O2-  O205  1  0.16620819  0.20949642  0.60078468  1
  O2-  O206  1  0.17353444  0.20069099  0.93327955  1
  O2-  O207  1  0.16212809  0.70663175  0.27363769  1
  O2-  O208  1  0.16932220  0.69524218  0.60469140  1
  O2-  O209  1  0.16440073  0.71031298  0.93086192  1
  O2-  O210  1  0.67020708  0.20914599  0.26854660  1
  O2-  O211  1  0.66941117  0.21314756  0.59823223  1
  O2-  O212  1  0.66203053  0.21200078  0.94018631  1
  O2-  O213  1  0.66823904  0.70279096  0.27076777  1
  O2-  O214  1  0.66579037  0.71246198  0.59570172  1
  O2-  O215  1  0.66921784  0.70550701  0.93273013  1
  O2-  O216  1  0.07525380  0.45549910  0.06601114  1
  O2-  O217  1  0.09023415  0.46246313  0.39616470  1
  O2-  O218  1  0.08231204  0.45931365  0.73331438  1
  O2-  O219  1  0.08523749  0.96048823  0.07048381  1
  O2-  O220  1  0.08523589  0.94987611  0.39353327  1
  O2-  O221  1  0.07821075  0.95969381  0.73222532  1
  O2-  O222  1  0.58537892  0.46153490  0.07204979  1
  O2-  O223  1  0.58656212  0.45971185  0.40014423  1
  O2-  O224  1  0.58844422  0.46017281  0.72502857  1
  O2-  O225  1  0.58161135  0.95237703  0.06122565  1
  O2-  O226  1  0.58147831  0.94878064  0.39263915  1
  O2-  O227  1  0.58666992  0.94319555  0.72802405  1
  O2-  O228  1  0.20501051  0.32759540  0.06932400  1
  O2-  O229  1  0.20548804  0.33490623  0.39055545  1
  O2-  O230  1  0.21013368  0.33392472  0.73425374  1
  O2-  O231  1  0.21032349  0.83423975  0.06743670  1
  O2-  O232  1  0.20932306  0.83599874  0.39789649  1
  O2-  O233  1  0.19890243  0.82724384  0.73022249  1
  O2-  O234  1  0.71148171  0.33551970  0.07123268  1
  O2-  O235  1  0.70565952  0.33953852  0.40148836  1
  O2-  O236  1  0.70802763  0.33943019  0.72841927  1
  O2-  O237  1  0.69966091  0.83312969  0.06406060  1
  O2-  O238  1  0.70665271  0.83378055  0.39736037  1
  O2-  O239  1  0.71730902  0.83700486  0.72990969  1
  O2-  O240  1  0.45605483  0.42305543  0.26541425  1
  O2-  O241  1  0.46105966  0.41445766  0.59664629  1
  O2-  O242  1  0.46133960  0.41134577  0.94017452  1
  O2-  O243  1  0.45607922  0.91380818  0.26285149  1
  O2-  O244  1  0.45449781  0.91503992  0.60309377  1
  O2-  O245  1  0.45632289  0.92106450  0.92848315  1
  O2-  O246  1  0.95787259  0.42153866  0.26656089  1
  O2-  O247  1  0.94856231  0.42118456  0.60741146  1
  O2-  O248  1  0.94198048  0.42254961  0.93532372  1
  O2-  O249  1  0.95326364  0.91253885  0.27175915  1
  O2-  O250  1  0.95959512  0.91598918  0.59595209  1
  O2-  O251  1  0.95699555  0.91507976  0.94070214  1
  O2-  O252  1  0.33110055  0.29425971  0.26094512  1
  O2-  O253  1  0.33045894  0.29355008  0.59990446  1
  O2-  O254  1  0.33678478  0.29596263  0.93994622  1
  O2-  O255  1  0.33215511  0.78527350  0.26665763  1
  O2-  O256  1  0.33232476  0.79700333  0.60367136  1
  O2-  O257  1  0.32920193  0.79431378  0.92874408  1
  O2-  O258  1  0.82897967  0.30023027  0.27344708  1
  O2-  O259  1  0.83500021  0.29778443  0.60328336  1
  O2-  O260  1  0.82959307  0.28531164  0.93122922  1
  O2-  O261  1  0.83735892  0.78991411  0.27031478  1
  O2-  O262  1  0.83861925  0.78575560  0.59445804  1
  O2-  O263  1  0.83259204  0.80225023  0.94257419  1
  O2-  O264  1  0.42000734  0.04682980  0.06474522  1
  O2-  O265  1  0.41249394  0.03893982  0.39273776  1
  O2-  O266  1  0.42436338  0.04642533  0.73185645  1
  O2-  O267  1  0.41641448  0.54147078  0.07033669  1
  O2-  O268  1  0.41553616  0.55030860  0.39476525  1
  O2-  O269  1  0.41913666  0.54389855  0.72502308  1
  O2-  O270  1  0.91347158  0.03662838  0.07016956  1
  O2-  O271  1  0.91562566  0.03560493  0.40549332  1
  O2-  O272  1  0.90894088  0.03837269  0.72828673  1
  O2-  O273  1  0.91587627  0.55347536  0.06167850  1
  O2-  O274  1  0.91370335  0.54436110  0.39971886  1
  O2-  O275  1  0.91315611  0.55152820  0.72890051  1
  O2-  O276  1  0.30223949  0.16679099  0.06440869  1
  O2-  O277  1  0.29527374  0.16348262  0.39155749  1
  O2-  O278  1  0.29530187  0.16865629  0.73352563  1
  O2-  O279  1  0.28993580  0.66875934  0.06524931  1
  O2-  O280  1  0.28765726  0.66066649  0.40072615  1
  O2-  O281  1  0.30340398  0.66591027  0.72723539  1
  O2-  O282  1  0.78634918  0.16363702  0.06941218  1
  O2-  O283  1  0.79191345  0.16889126  0.40535627  1
  O2-  O284  1  0.79377188  0.16467673  0.72829356  1
  O2-  O285  1  0.79440029  0.66838201  0.06554719  1
  O2-  O286  1  0.79393236  0.66431509  0.39972812  1
  O2-  O287  1  0.78938842  0.66517066  0.72792099  1
