# generated using pymatgen
data_Ca2Al2SiO7
_symmetry_space_group_name_H-M   'P 1'
_cell_length_a   15.45788420
_cell_length_b   15.45725915
_cell_length_c   15.28372232
_cell_angle_alpha   90.01202545
_cell_angle_beta   90.01105095
_cell_angle_gamma   89.99344032
_symmetry_Int_Tables_number   1
_chemical_formula_structural   Ca2Al2SiO7
_chemical_formula_sum   'Ca48 Al48 Si24 O168'
_cell_volume   3651.83928329
_cell_formula_units_Z   24
loop_
 _symmetry_equiv_pos_site_id
 _symmetry_equiv_pos_as_xyz
  1  'x, y, z'
loop_
 _atom_type_symbol
 _atom_type_oxidation_number
  Ca2+  2.0
  Al0+  0.0
  Si0+  0.0
  O2-  -2.0
loop_
 _atom_site_type_symbol
 _atom_site_label
 _atom_site_symmetry_multiplicity
 _atom_site_fract_x
 _atom_site_fract_y
 _atom_site_fract_z
 _atom_site_occupancy
  Ca2+  Ca0  1  0.16575101  0.08487126  0.16548439  1
  Ca2+  Ca1  1  0.16694746  0.08610584  0.50094457  1
  Ca2+  Ca2  1  0.17419789  0.07639281  0.84700183  1
  Ca2+  Ca3  1  0.17083074  0.57647601  0.17542261  1
  Ca2+  Ca4  1  0.17044641  0.58030262  0.50754784  1
  Ca2+  Ca5  1  0.17355256  0.59562903  0.83225002  1
  Ca2+  Ca6  1  0.65578201  0.07019635  0.16661821  1
  Ca2+  Ca7  1  0.66358666  0.06967140  0.50450063  1
  Ca2+  Ca8  1  0.66390044  0.06939663  0.84197987  1
  Ca2+  Ca9  1  0.66730844  0.57969398  0.17441786  1
  Ca2+  Ca10  1  0.66319477  0.57811384  0.50031551  1
  Ca2+  Ca11  1  0.65359002  0.57596642  0.83652971  1
  Ca2+  Ca12  1  0.08080743  0.32745323  0.16631194  1
  Ca2+  Ca13  1  0.07818107  0.33066171  0.48489475  1
  Ca2+  Ca14  1  0.08529629  0.32554540  0.83286769  1
  Ca2+  Ca15  1  0.07468503  0.83676967  0.15671385  1
  Ca2+  Ca16  1  0.07831064  0.82568158  0.50137544  1
  Ca2+  Ca17  1  0.07321462  0.83724884  0.82803585  1
  Ca2+  Ca18  1  0.58248544  0.33510908  0.16058189  1
  Ca2+  Ca19  1  0.57995383  0.34097628  0.49268588  1
  Ca2+  Ca20  1  0.59335076  0.32835652  0.83233305  1
  Ca2+  Ca21  1  0.58739331  0.82373023  0.15753601  1
  Ca2+  Ca22  1  0.58842165  0.82440056  0.49664542  1
  Ca2+  Ca23  1  0.58080231  0.82616062  0.82633437  1
  Ca2+  Ca24  1  0.32970900  0.41316278  0.17436081  1
  Ca2+  Ca25  1  0.33083510  0.42058215  0.50227136  1
  Ca2+  Ca26  1  0.33527060  0.42799255  0.83450226  1
  Ca2+  Ca27  1  0.33590934  0.92063527  0.16279464  1
  Ca2+  Ca28  1  0.33429325  0.91559291  0.50673344  1
  Ca2+  Ca29  1  0.33100689  0.91436064  0.84551638  1
  Ca2+  Ca30  1  0.82376816  0.42206954  0.17674422  1
  Ca2+  Ca31  1  0.82659672  0.41935162  0.50150808  1
  Ca2+  Ca32  1  0.82250097  0.42163570  0.83902537  1
  Ca2+  Ca33  1  0.82237477  0.91133779  0.16848975  1
  Ca2+  Ca34  1  0.82328745  0.91322905  0.50340659  1
  Ca2+  Ca35  1  0.82594876  0.90660560  0.83716837  1
  Ca2+  Ca36  1  0.41978128  0.17252797  0.16101336  1
  Ca2+  Ca37  1  0.41983962  0.17572329  0.49260574  1
  Ca2+  Ca38  1  0.42188968  0.16146306  0.83743485  1
  Ca2+  Ca39  1  0.43156274  0.67017340  0.15995141  1
  Ca2+  Ca40  1  0.42639751  0.66575457  0.50114117  1
  Ca2+  Ca41  1  0.42262355  0.67729071  0.82732748  1
  Ca2+  Ca42  1  0.92431643  0.16976126  0.16387915  1
  Ca2+  Ca43  1  0.92268478  0.17524984  0.48959706  1
  Ca2+  Ca44  1  0.92228053  0.16293024  0.83309078  1
  Ca2+  Ca45  1  0.91409719  0.66883098  0.16346887  1
  Ca2+  Ca46  1  0.91114311  0.66824491  0.49870911  1
  Ca2+  Ca47  1  0.92170202  0.67914960  0.82827628  1
  Al0+  Al48  1  -0.00009260  0.00092503  -0.00515452  1
  Al0+  Al49  1  0.00062793  -0.00104060  0.33175905  1
  Al0+  Al50  1  0.00068640  0.00094136  0.66039137  1
  Al0+  Al51  1  -0.00024189  0.49982754  -0.00156641  1
  Al0+  Al52  1  -0.00008234  0.50018357  0.33680021  1
  Al0+  Al53  1  -0.00082892  0.49696512  0.66681810  1
  Al0+  Al54  1  0.49881065  0.00242920  0.00275645  1
  Al0+  Al55  1  0.49715975  0.00017285  0.33973347  1
  Al0+  Al56  1  0.50030056  0.00149530  0.66716717  1
  Al0+  Al57  1  0.49815165  0.49975256  0.00162761  1
  Al0+  Al58  1  0.49925526  0.50204373  0.32720369  1
  Al0+  Al59  1  0.49713449  0.49972751  0.67225183  1
  Al0+  Al60  1  0.24965771  0.25053027  -0.00246065  1
  Al0+  Al61  1  0.25178599  0.24940206  0.33072775  1
  Al0+  Al62  1  0.25109494  0.25003316  0.66782707  1
  Al0+  Al63  1  0.25070729  0.74960705  0.00601267  1
  Al0+  Al64  1  0.24966803  0.75215067  0.33347062  1
  Al0+  Al65  1  0.24927179  0.75066100  0.66317019  1
  Al0+  Al66  1  0.74942852  0.25099761  -0.00007436  1
  Al0+  Al67  1  0.75023953  0.24774779  0.33201422  1
  Al0+  Al68  1  0.75172428  0.24844580  0.66976505  1
  Al0+  Al69  1  0.75206414  0.74730561  -0.00550150  1
  Al0+  Al70  1  0.74963245  0.74930092  0.33696902  1
  Al0+  Al71  1  0.75048309  0.74831016  0.66330759  1
  Al0+  Al72  1  0.43197511  0.32139915  0.32084568  1
  Al0+  Al73  1  0.92664812  0.32359588  0.31749372  1
  Al0+  Al74  1  0.67904807  0.42932448  0.68121842  1
  Al0+  Al75  1  0.68042814  0.92779827  0.01217843  1
  Al0+  Al76  1  0.07102490  0.67764043  0.65169868  1
  Al0+  Al77  1  0.07166077  0.17819714  0.31709856  1
  Al0+  Al78  1  0.67850762  0.93014384  0.34691330  1
  Al0+  Al79  1  0.82113496  0.57112019  0.34918793  1
  Al0+  Al80  1  0.07055050  0.18060037  0.98447781  1
  Al0+  Al81  1  0.17728594  0.92818583  0.01528056  1
  Al0+  Al82  1  0.92814778  0.82198135  0.64807606  1
  Al0+  Al83  1  0.56992894  0.67643714  0.65024547  1
  Al0+  Al84  1  0.67862655  0.42934149  0.01497724  1
  Al0+  Al85  1  0.32138605  0.07256173  0.01685611  1
  Al0+  Al86  1  0.92983137  0.82055686  0.98771299  1
  Al0+  Al87  1  0.67993757  0.92824294  0.68156464  1
  Al0+  Al88  1  0.18126490  0.42862415  0.34575346  1
  Al0+  Al89  1  0.57204027  0.67785534  0.98388720  1
  Al0+  Al90  1  0.31829900  0.57149920  0.68022581  1
  Al0+  Al91  1  0.42926579  0.82150693  0.98764537  1
  Al0+  Al92  1  0.57134697  0.18051655  0.98708182  1
  Al0+  Al93  1  0.57065688  0.68192520  0.31880364  1
  Al0+  Al94  1  0.42909711  0.82379453  0.65140081  1
  Al0+  Al95  1  0.67685603  0.42716802  0.34699192  1
  Si0+  Si96  1  0.82400595  0.57067112  0.01551878  1
  Si0+  Si97  1  0.17655401  0.42592834  0.68441568  1
  Si0+  Si98  1  0.42591076  0.82471978  0.31588751  1
  Si0+  Si99  1  0.32085284  0.07357178  0.68183193  1
  Si0+  Si100  1  0.82426443  0.57109365  0.68565336  1
  Si0+  Si101  1  0.42911204  0.31993055  0.65293566  1
  Si0+  Si102  1  0.57191560  0.17492229  0.31886295  1
  Si0+  Si103  1  0.57262902  0.17957600  0.65199845  1
  Si0+  Si104  1  0.31907618  0.07028576  0.35058038  1
  Si0+  Si105  1  0.92998373  0.81927683  0.31810430  1
  Si0+  Si106  1  0.92775570  0.32337388  0.98143675  1
  Si0+  Si107  1  0.82499685  0.07062422  0.34899622  1
  Si0+  Si108  1  0.07276733  0.18087468  0.65105080  1
  Si0+  Si109  1  0.17640225  0.92815029  0.35064840  1
  Si0+  Si110  1  0.42661692  0.32257519  0.98096165  1
  Si0+  Si111  1  0.32149960  0.57441669  0.34971083  1
  Si0+  Si112  1  0.82352408  0.07142672  0.68325785  1
  Si0+  Si113  1  0.32039739  0.57136895  0.01745486  1
  Si0+  Si114  1  0.92789036  0.31920782  0.65211347  1
  Si0+  Si115  1  0.82270030  0.07304347  0.01618771  1
  Si0+  Si116  1  0.07321957  0.67887754  0.31844259  1
  Si0+  Si117  1  0.17838854  0.42916153  0.01414614  1
  Si0+  Si118  1  0.17946312  0.93107214  0.67961764  1
  Si0+  Si119  1  0.07329863  0.67564814  0.98631421  1
  O2-  O120  1  0.24936900  -0.00014285  0.06633491  1
  O2-  O121  1  0.24828562  -0.00129686  0.39274625  1
  O2-  O122  1  0.25313025  -0.00104838  0.72211036  1
  O2-  O123  1  0.24773853  0.50073829  0.05743697  1
  O2-  O124  1  0.25301122  0.50520853  0.39385397  1
  O2-  O125  1  0.24000201  0.49946231  0.72832355  1
  O2-  O126  1  0.75421499  0.00390941  0.06010862  1
  O2-  O127  1  0.75189110  0.00689322  0.39341683  1
  O2-  O128  1  0.75753569  0.00083688  0.72770462  1
  O2-  O129  1  0.75325245  0.50440156  0.05947883  1
  O2-  O130  1  0.75072186  0.49649272  0.39808430  1
  O2-  O131  1  0.75092966  0.50665071  0.72907895  1
  O2-  O132  1  -0.00131074  0.25027126  0.26883351  1
  O2-  O133  1  0.00266716  0.25217009  0.60940968  1
  O2-  O134  1  -0.00463290  0.25392584  0.93589946  1
  O2-  O135  1  0.00157238  0.74870865  0.27578861  1
  O2-  O136  1  -0.00311332  0.74580429  0.59892912  1
  O2-  O137  1  0.00854639  0.74833084  0.94349206  1
  O2-  O138  1  0.51149322  0.25123089  0.27553463  1
  O2-  O139  1  0.50319743  0.25235548  0.61000108  1
  O2-  O140  1  0.49805206  0.25607793  0.93779190  1
  O2-  O141  1  0.49618995  0.75773148  0.27323210  1
  O2-  O142  1  0.50247893  0.75371166  0.60073358  1
  O2-  O143  1  0.50305182  0.75348704  0.93535858  1
  O2-  O144  1  0.06996626  0.18348508  0.09696724  1
  O2-  O145  1  0.07087239  0.17910107  0.43162941  1
  O2-  O146  1  0.07349263  0.18081483  0.75597936  1
  O2-  O147  1  0.07060524  0.67143244  0.09211702  1
  O2-  O148  1  0.07646325  0.68167038  0.42308022  1
  O2-  O149  1  0.07104998  0.68254435  0.76559692  1
  O2-  O150  1  0.56940305  0.18148949  0.10019950  1
  O2-  O151  1  0.56637133  0.17142094  0.42487941  1
  O2-  O152  1  0.57126193  0.17916040  0.75696251  1
  O2-  O153  1  0.57169183  0.67789186  0.09770636  1
  O2-  O154  1  0.56897188  0.68079186  0.43167405  1
  O2-  O155  1  0.56555889  0.67559296  0.76349557  1
  O2-  O156  1  0.18333163  0.43033363  0.23218458  1
  O2-  O157  1  0.18003598  0.42093843  0.57912352  1
  O2-  O158  1  0.17900278  0.42919238  0.90885855  1
  O2-  O159  1  0.17440029  0.92664449  0.24619870  1
  O2-  O160  1  0.17897802  0.93481721  0.57407489  1
  O2-  O161  1  0.17708477  0.92973384  0.90107227  1
  O2-  O162  1  0.67688403  0.43066605  0.23362091  1
  O2-  O163  1  0.68031303  0.42622284  0.56853265  1
  O2-  O164  1  0.68129401  0.42910840  0.90148015  1
  O2-  O165  1  0.67953630  0.92987064  0.23369155  1
  O2-  O166  1  0.67951394  0.93285301  0.56817567  1
  O2-  O167  1  0.68181735  0.92853316  0.89920066  1
  O2-  O168  1  0.42491544  0.32203247  0.08661417  1
  O2-  O169  1  0.42955068  0.31855752  0.43461837  1
  O2-  O170  1  0.42508628  0.31716280  0.75766210  1
  O2-  O171  1  0.42967354  0.81721555  0.10141073  1
  O2-  O172  1  0.42405046  0.82463928  0.42139898  1
  O2-  O173  1  0.42757543  0.82447826  0.76459846  1
  O2-  O174  1  0.93027967  0.32504013  0.08647476  1
  O2-  O175  1  0.92951599  0.32077486  0.43194651  1
  O2-  O176  1  0.92819798  0.31672891  0.75725762  1
  O2-  O177  1  0.92919483  0.81791862  0.10136684  1
  O2-  O178  1  0.93216874  0.82006522  0.42293765  1
  O2-  O179  1  0.93206903  0.82469750  0.76151843  1
  O2-  O180  1  0.32114510  0.06995222  0.24622062  1
  O2-  O181  1  0.31755267  0.07847110  0.57654048  1
  O2-  O182  1  0.31845226  0.07325083  0.90263106  1
  O2-  O183  1  0.31800115  0.57500792  0.24389267  1
  O2-  O184  1  0.31847741  0.56590516  0.56714404  1
  O2-  O185  1  0.31950759  0.57143261  0.91223156  1
  O2-  O186  1  0.82958238  0.06651101  0.24382307  1
  O2-  O187  1  0.82187757  0.07472495  0.57770298  1
  O2-  O188  1  0.82183109  0.07308349  0.91026211  1
  O2-  O189  1  0.81993470  0.57379045  0.23534595  1
  O2-  O190  1  0.82781396  0.56612106  0.58045056  1
  O2-  O191  1  0.82964181  0.56747489  0.91026098  1
  O2-  O192  1  0.04361129  0.07896146  0.26549236  1
  O2-  O193  1  0.04589128  0.08995843  0.60175484  1
  O2-  O194  1  0.04070041  0.08507077  0.92814703  1
  O2-  O195  1  0.04713433  0.58655863  0.27211533  1
  O2-  O196  1  0.04907938  0.57527100  0.60336581  1
  O2-  O197  1  0.04622900  0.58395355  0.93641940  1
  O2-  O198  1  0.53566185  0.08471894  0.27194432  1
  O2-  O199  1  0.54147386  0.08982969  0.60283286  1
  O2-  O200  1  0.53816034  0.08509079  0.93198518  1
  O2-  O201  1  0.53858892  0.58691409  0.26272764  1
  O2-  O202  1  0.53411484  0.57871985  0.59912919  1
  O2-  O203  1  0.53688902  0.58021783  0.93335347  1
  O2-  O204  1  0.16970629  0.20684433  0.26539670  1
  O2-  O205  1  0.16505965  0.20866129  0.60390284  1
  O2-  O206  1  0.16599523  0.21402589  0.92882619  1
  O2-  O207  1  0.16462169  0.70756389  0.26979872  1
  O2-  O208  1  0.16717294  0.70891303  0.59602166  1
  O2-  O209  1  0.16851477  0.69830323  0.94367511  1
  O2-  O210  1  0.66877831  0.18743499  0.27644648  1
  O2-  O211  1  0.66584469  0.20411477  0.60613667  1
  O2-  O212  1  0.66809111  0.20946417  0.93133485  1
  O2-  O213  1  0.66782966  0.71327201  0.26629453  1
  O2-  O214  1  0.67072685  0.69810029  0.60038933  1
  O2-  O215  1  0.67149576  0.69932251  0.93137799  1
  O2-  O216  1  0.08575171  0.45543183  0.06084498  1
  O2-  O217  1  0.08481626  0.45711741  0.40035078  1
  O2-  O218  1  0.08085191  0.44356995  0.72926278  1
  O2-  O219  1  0.07859398  0.95974964  0.06646040  1
  O2-  O220  1  0.08548174  0.95696122  0.39963668  1
  O2-  O221  1  0.08799764  0.96273843  0.72578374  1
  O2-  O222  1  0.58001374  0.45654159  0.06636200  1
  O2-  O223  1  0.57775010  0.45909496  0.39788471  1
  O2-  O224  1  0.58116296  0.45491206  0.73527665  1
  O2-  O225  1  0.58457970  0.95992077  0.06638166  1
  O2-  O226  1  0.58199439  0.96015984  0.40260851  1
  O2-  O227  1  0.58384184  0.96410521  0.73404359  1
  O2-  O228  1  0.20779873  0.33820763  0.06115508  1
  O2-  O229  1  0.21383379  0.33234993  0.40005431  1
  O2-  O230  1  0.20936206  0.33455952  0.73268529  1
  O2-  O231  1  0.20228550  0.82941998  0.07020418  1
  O2-  O232  1  0.20485764  0.83640031  0.39872219  1
  O2-  O233  1  0.20224616  0.83801632  0.72516792  1
  O2-  O234  1  0.70885591  0.33214810  0.06772893  1
  O2-  O235  1  0.69917249  0.32534206  0.39720095  1
  O2-  O236  1  0.71359651  0.33262848  0.73483025  1
  O2-  O237  1  0.71448626  0.83082124  0.06404884  1
  O2-  O238  1  0.71336264  0.83600989  0.40171551  1
  O2-  O239  1  0.70823864  0.82951964  0.73198826  1
  O2-  O240  1  0.45407205  0.41831376  0.26398450  1
  O2-  O241  1  0.45372918  0.41233371  0.60684344  1
  O2-  O242  1  0.45041474  0.41695141  0.93651572  1
  O2-  O243  1  0.44975540  0.92006805  0.27322364  1
  O2-  O244  1  0.45319984  0.92461615  0.59944264  1
  O2-  O245  1  0.44907917  0.92297300  0.93905548  1
  O2-  O246  1  0.95711421  0.42194265  0.26582575  1
  O2-  O247  1  0.95156701  0.41186125  0.60551071  1
  O2-  O248  1  0.95620752  0.41577907  0.93345154  1
  O2-  O249  1  0.95859655  0.91060460  0.27078084  1
  O2-  O250  1  0.96040333  0.91952825  0.59378417  1
  O2-  O251  1  0.95677892  0.91689553  0.93160039  1
  O2-  O252  1  0.33796829  0.28522360  0.26531777  1
  O2-  O253  1  0.33836386  0.28833532  0.60390323  1
  O2-  O254  1  0.33437767  0.29575669  0.93288803  1
  O2-  O255  1  0.33164862  0.79957356  0.27026159  1
  O2-  O256  1  0.33076557  0.79527796  0.59808800  1
  O2-  O257  1  0.32984579  0.79039326  0.93690506  1
  O2-  O258  1  0.82814443  0.29508434  0.26446188  1
  O2-  O259  1  0.83804719  0.28695995  0.60340722  1
  O2-  O260  1  0.83447070  0.29734821  0.93552500  1
  O2-  O261  1  0.83829133  0.79066375  0.27197704  1
  O2-  O262  1  0.82973912  0.79492992  0.59558594  1
  O2-  O263  1  0.83740041  0.78565738  0.92909615  1
  O2-  O264  1  0.41910908  0.04712669  0.07233247  1
  O2-  O265  1  0.40945950  0.04359108  0.40225200  1
  O2-  O266  1  0.41437559  0.05103434  0.72728957  1
  O2-  O267  1  0.41037161  0.54027988  0.06598780  1
  O2-  O268  1  0.41477362  0.54694667  0.39359826  1
  O2-  O269  1  0.41078177  0.53564884  0.73846966  1
  O2-  O270  1  0.91678713  0.04801496  0.06052792  1
  O2-  O271  1  0.91655590  0.04069624  0.39849969  1
  O2-  O272  1  0.91954840  0.04831187  0.72648920  1
  O2-  O273  1  0.91713607  0.54368331  0.06380878  1
  O2-  O274  1  0.92050732  0.54696284  0.40269960  1
  O2-  O275  1  0.91621903  0.54048732  0.73391256  1
  O2-  O276  1  0.29062010  0.17179538  0.06759798  1
  O2-  O277  1  0.28996630  0.16143776  0.39911944  1
  O2-  O278  1  0.28940439  0.16324590  0.73173259  1
  O2-  O279  1  0.29410098  0.66146182  0.06836369  1
  O2-  O280  1  0.29512794  0.66799068  0.39587203  1
  O2-  O281  1  0.28742643  0.66864656  0.73410574  1
  O2-  O282  1  0.79839823  0.16696318  0.06167935  1
  O2-  O283  1  0.80456427  0.16601281  0.39369843  1
  O2-  O284  1  0.79758346  0.16366030  0.73223856  1
  O2-  O285  1  0.80063201  0.66499143  0.06006084  1
  O2-  O286  1  0.79085122  0.66796478  0.40415777  1
  O2-  O287  1  0.80452006  0.66740997  0.72720364  1
