# generated using pymatgen
data_Ca2Al2SiO7
_symmetry_space_group_name_H-M   'P 1'
_cell_length_a   15.45745951
_cell_length_b   15.45729503
_cell_length_c   15.28305723
_cell_angle_alpha   89.99696959
_cell_angle_beta   89.99895226
_cell_angle_gamma   89.99472902
_symmetry_Int_Tables_number   1
_chemical_formula_structural   Ca2Al2SiO7
_chemical_formula_sum   'Ca48 Al48 Si24 O168'
_cell_volume   3651.58867101
_cell_formula_units_Z   24
loop_
 _symmetry_equiv_pos_site_id
 _symmetry_equiv_pos_as_xyz
  1  'x, y, z'
loop_
 _atom_type_symbol
 _atom_type_oxidation_number
  Ca2+  2.0
  Al0+  0.0
  Si0+  0.0
  O2-  -2.0
loop_
 _atom_site_type_symbol
 _atom_site_label
 _atom_site_symmetry_multiplicity
 _atom_site_fract_x
 _atom_site_fract_y
 _atom_site_fract_z
 _atom_site_occupancy
  Ca2+  Ca0  1  0.16537619  0.08537476  0.16280594  1
  Ca2+  Ca1  1  0.16511568  0.09020765  0.50418665  1
  Ca2+  Ca2  1  0.16760357  0.08211876  0.84304490  1
  Ca2+  Ca3  1  0.17751453  0.57918601  0.17513729  1
  Ca2+  Ca4  1  0.17344721  0.57690472  0.51038966  1
  Ca2+  Ca5  1  0.16143773  0.57670329  0.83272130  1
  Ca2+  Ca6  1  0.67843507  0.08054283  0.17463377  1
  Ca2+  Ca7  1  0.66479513  0.07488917  0.50790465  1
  Ca2+  Ca8  1  0.66689389  0.08059762  0.83761273  1
  Ca2+  Ca9  1  0.66967924  0.58418711  0.17160227  1
  Ca2+  Ca10  1  0.67465231  0.57999720  0.51091916  1
  Ca2+  Ca11  1  0.66377971  0.58365746  0.83033915  1
  Ca2+  Ca12  1  0.07448603  0.32095406  0.15895511  1
  Ca2+  Ca13  1  0.08741855  0.32547479  0.49879046  1
  Ca2+  Ca14  1  0.08080029  0.32382768  0.82811008  1
  Ca2+  Ca15  1  0.08467767  0.83310225  0.16059286  1
  Ca2+  Ca16  1  0.07459314  0.82809054  0.50207602  1
  Ca2+  Ca17  1  0.07860372  0.83121743  0.82454123  1
  Ca2+  Ca18  1  0.57205231  0.33647272  0.16107269  1
  Ca2+  Ca19  1  0.57711981  0.33976514  0.50078390  1
  Ca2+  Ca20  1  0.57355121  0.32824864  0.82353401  1
  Ca2+  Ca21  1  0.58160382  0.82827289  0.16038293  1
  Ca2+  Ca22  1  0.59475360  0.83035433  0.50035550  1
  Ca2+  Ca23  1  0.58615128  0.82631417  0.82716269  1
  Ca2+  Ca24  1  0.33799589  0.41825815  0.17227439  1
  Ca2+  Ca25  1  0.33306258  0.41446080  0.50498088  1
  Ca2+  Ca26  1  0.33010412  0.40780339  0.83410742  1
  Ca2+  Ca27  1  0.33181094  0.91969194  0.16387339  1
  Ca2+  Ca28  1  0.33061123  0.92096250  0.50581792  1
  Ca2+  Ca29  1  0.32720185  0.92357322  0.84617677  1
  Ca2+  Ca30  1  0.83438772  0.42084134  0.17090883  1
  Ca2+  Ca31  1  0.83095066  0.42819494  0.51061759  1
  Ca2+  Ca32  1  0.83064358  0.41736928  0.83515331  1
  Ca2+  Ca33  1  0.82894422  0.92828726  0.17206167  1
  Ca2+  Ca34  1  0.82545439  0.91971428  0.50394680  1
  Ca2+  Ca35  1  0.83149168  0.91966458  0.83405311  1
  Ca2+  Ca36  1  0.41368362  0.17705001  0.15988943  1
  Ca2+  Ca37  1  0.42347831  0.17850449  0.50050554  1
  Ca2+  Ca38  1  0.41554016  0.17276950  0.82691651  1
  Ca2+  Ca39  1  0.42214229  0.67149228  0.15649347  1
  Ca2+  Ca40  1  0.42393884  0.66107587  0.49769079  1
  Ca2+  Ca41  1  0.42694243  0.67382702  0.83141495  1
  Ca2+  Ca42  1  0.92076777  0.16201997  0.15914684  1
  Ca2+  Ca43  1  0.92778359  0.16079224  0.49436135  1
  Ca2+  Ca44  1  0.92526655  0.16254654  0.83146880  1
  Ca2+  Ca45  1  0.91543423  0.66695067  0.16407387  1
  Ca2+  Ca46  1  0.91020741  0.66689131  0.50138079  1
  Ca2+  Ca47  1  0.91990250  0.67428441  0.81923120  1
  Al0+  Al48  1  -0.00084710  -0.00197146  0.00455656  1
  Al0+  Al49  1  0.00031866  -0.00261184  0.33170726  1
  Al0+  Al50  1  0.00018037  -0.00126210  0.65774481  1
  Al0+  Al51  1  -0.00097428  0.49874985  -0.00021807  1
  Al0+  Al52  1  0.00204062  0.49919215  0.33656322  1
  Al0+  Al53  1  0.00341354  0.49972500  0.67195996  1
  Al0+  Al54  1  0.49808582  -0.00025783  0.00424556  1
  Al0+  Al55  1  0.49813662  -0.00072348  0.33641435  1
  Al0+  Al56  1  0.49974540  0.00160326  0.66883720  1
  Al0+  Al57  1  0.50045272  0.49942804  -0.00812839  1
  Al0+  Al58  1  0.50011931  0.50155005  0.33204602  1
  Al0+  Al59  1  0.49971371  0.50332621  0.66369920  1
  Al0+  Al60  1  0.24777392  0.24940197  -0.00118174  1
  Al0+  Al61  1  0.24942458  0.24876642  0.32368783  1
  Al0+  Al62  1  0.25005227  0.25149055  0.66289633  1
  Al0+  Al63  1  0.25099325  0.74864337  0.00018396  1
  Al0+  Al64  1  0.25094127  0.74955199  0.33844946  1
  Al0+  Al65  1  0.24898954  0.75046114  0.66386684  1
  Al0+  Al66  1  0.74876205  0.25269490  0.00325057  1
  Al0+  Al67  1  0.75087908  0.25011650  0.33806163  1
  Al0+  Al68  1  0.75110284  0.24990433  0.66683370  1
  Al0+  Al69  1  0.75171634  0.74808230  -0.00242344  1
  Al0+  Al70  1  0.75102288  0.75000707  0.33710343  1
  Al0+  Al71  1  0.74936080  0.75307622  0.66699244  1
  Al0+  Al72  1  0.81871330  0.07143134  0.01212513  1
  Al0+  Al73  1  0.67866280  0.93177364  0.68301157  1
  Al0+  Al74  1  0.57392364  0.17734602  0.65295680  1
  Al0+  Al75  1  0.82234849  0.56930723  0.34637272  1
  Al0+  Al76  1  0.92604658  0.32336422  0.98442754  1
  Al0+  Al77  1  0.92815393  0.82064716  0.64974321  1
  Al0+  Al78  1  0.42775650  0.82291484  0.98592446  1
  Al0+  Al79  1  0.42964068  0.32136122  0.65097198  1
  Al0+  Al80  1  0.18186807  0.42842906  0.68123969  1
  Al0+  Al81  1  0.82091807  0.57127843  0.68416754  1
  Al0+  Al82  1  0.67729219  0.42774943  0.68296532  1
  Al0+  Al83  1  0.56960312  0.68208082  0.65053594  1
  Al0+  Al84  1  0.42844071  0.31962349  0.98538291  1
  Al0+  Al85  1  0.06889711  0.17770438  0.31610446  1
  Al0+  Al86  1  0.06709669  0.17772120  0.98403776  1
  Al0+  Al87  1  0.57300043  0.68010788  0.98419861  1
  Al0+  Al88  1  0.43228765  0.32051597  0.31810715  1
  Al0+  Al89  1  0.67768057  0.93076608  0.34812050  1
  Al0+  Al90  1  0.17855592  0.92682071  0.01455840  1
  Al0+  Al91  1  0.07220918  0.67628059  0.65093873  1
  Al0+  Al92  1  0.32152026  0.07346899  0.01586056  1
  Al0+  Al93  1  0.32223155  0.57150376  0.34663097  1
  Al0+  Al94  1  0.82355691  0.07248932  0.35006474  1
  Al0+  Al95  1  0.06967679  0.18003104  0.65272413  1
  Si0+  Si96  1  0.17921560  0.92742708  0.35055045  1
  Si0+  Si97  1  0.92939151  0.81750473  0.31586598  1
  Si0+  Si98  1  0.42560492  0.82239339  0.31862228  1
  Si0+  Si99  1  0.17725088  0.42870813  0.01661638  1
  Si0+  Si100  1  0.82538816  0.07191755  0.68246740  1
  Si0+  Si101  1  0.82188918  0.57134991  0.01530362  1
  Si0+  Si102  1  0.07219127  0.67741796  0.98774399  1
  Si0+  Si103  1  0.32247363  0.57518233  0.68587035  1
  Si0+  Si104  1  0.42691764  0.82374179  0.64941605  1
  Si0+  Si105  1  0.32140903  0.56838922  0.01314857  1
  Si0+  Si106  1  0.57112099  0.68177742  0.31901812  1
  Si0+  Si107  1  0.92784335  0.32324246  0.65032637  1
  Si0+  Si108  1  0.07303467  0.67793841  0.31834190  1
  Si0+  Si109  1  0.17821686  0.92900943  0.67921728  1
  Si0+  Si110  1  0.57288812  0.17534765  0.31716595  1
  Si0+  Si111  1  0.31894961  0.07078131  0.67968773  1
  Si0+  Si112  1  0.92723421  0.32433670  0.31882272  1
  Si0+  Si113  1  0.67708206  0.43093756  0.01536819  1
  Si0+  Si114  1  0.93021968  0.81944512  0.98700125  1
  Si0+  Si115  1  0.18082134  0.42714474  0.34833778  1
  Si0+  Si116  1  0.31907734  0.07226644  0.34911972  1
  Si0+  Si117  1  0.57298915  0.17757493  0.98749648  1
  Si0+  Si118  1  0.67669102  0.42865339  0.34840732  1
  Si0+  Si119  1  0.67809578  0.92513419  0.01591938  1
  O2-  O120  1  0.25050343  -0.00097646  0.06523739  1
  O2-  O121  1  0.24800155  0.00109665  0.39210147  1
  O2-  O122  1  0.24961840  -0.00169719  0.72168328  1
  O2-  O123  1  0.25086126  0.49786746  0.05809516  1
  O2-  O124  1  0.24911596  0.49575137  0.39288212  1
  O2-  O125  1  0.25507225  0.50469740  0.72939859  1
  O2-  O126  1  0.74160732  -0.00127909  0.05951717  1
  O2-  O127  1  0.74563992  0.00637317  0.39857068  1
  O2-  O128  1  0.75177848  0.00900624  0.72781273  1
  O2-  O129  1  0.74996891  0.50106151  0.05725972  1
  O2-  O130  1  0.75133214  0.49120029  0.39126063  1
  O2-  O131  1  0.75033292  0.49819359  0.73500940  1
  O2-  O132  1  -0.01058183  0.25000407  0.27364344  1
  O2-  O133  1  -0.00659932  0.25221880  0.60473834  1
  O2-  O134  1  -0.00484424  0.24929617  0.93394270  1
  O2-  O135  1  0.00103432  0.74650084  0.27322702  1
  O2-  O136  1  -0.00341111  0.74397330  0.60026460  1
  O2-  O137  1  0.00265299  0.74953816  0.94612320  1
  O2-  O138  1  0.50814221  0.24692989  0.27105151  1
  O2-  O139  1  0.50738726  0.25446227  0.60224991  1
  O2-  O140  1  0.49917405  0.24003881  0.94243052  1
  O2-  O141  1  0.49898836  0.75245779  0.27800486  1
  O2-  O142  1  0.49454779  0.75590044  0.60219233  1
  O2-  O143  1  0.50461677  0.75666933  0.93599618  1
  O2-  O144  1  0.06516490  0.17932496  0.09778323  1
  O2-  O145  1  0.07183004  0.18074743  0.42930686  1
  O2-  O146  1  0.07016771  0.17749758  0.76522900  1
  O2-  O147  1  0.07069147  0.67646540  0.09355867  1
  O2-  O148  1  0.07375212  0.67978223  0.42259789  1
  O2-  O149  1  0.07346233  0.68170402  0.76523471  1
  O2-  O150  1  0.57482192  0.18269782  0.09337813  1
  O2-  O151  1  0.56859427  0.17414253  0.42225956  1
  O2-  O152  1  0.56793258  0.17425813  0.76678089  1
  O2-  O153  1  0.57274811  0.67943707  0.09896361  1
  O2-  O154  1  0.57105799  0.68154083  0.42367763  1
  O2-  O155  1  0.56840881  0.68372684  0.76332377  1
  O2-  O156  1  0.18036887  0.43079317  0.24233606  1
  O2-  O157  1  0.18530883  0.42675928  0.56771245  1
  O2-  O158  1  0.17614507  0.43051445  0.91181829  1
  O2-  O159  1  0.18090957  0.92330349  0.24579297  1
  O2-  O160  1  0.18008463  0.92961263  0.57366668  1
  O2-  O161  1  0.17789119  0.92618766  0.90082122  1
  O2-  O162  1  0.67404069  0.43256826  0.24230050  1
  O2-  O163  1  0.67883393  0.43157363  0.56874422  1
  O2-  O164  1  0.67573694  0.43098879  0.91108014  1
  O2-  O165  1  0.67989586  0.92866125  0.23394776  1
  O2-  O166  1  0.67924955  0.93212369  0.57006893  1
  O2-  O167  1  0.68160423  0.92342973  0.91064417  1
  O2-  O168  1  0.43177488  0.32380251  0.09890819  1
  O2-  O169  1  0.43162537  0.32037594  0.43055851  1
  O2-  O170  1  0.42662555  0.31567856  0.76434370  1
  O2-  O171  1  0.42720383  0.81747329  0.10029932  1
  O2-  O172  1  0.42194968  0.82224838  0.42340683  1
  O2-  O173  1  0.42610126  0.82233378  0.75467598  1
  O2-  O174  1  0.92966874  0.32766877  0.09843264  1
  O2-  O175  1  0.93190419  0.32865758  0.42389223  1
  O2-  O176  1  0.92997535  0.32205544  0.75578833  1
  O2-  O177  1  0.92821963  0.81625083  0.09255645  1
  O2-  O178  1  0.93006533  0.81680784  0.42033741  1
  O2-  O179  1  0.93300141  0.82372110  0.76401937  1
  O2-  O180  1  0.31969706  0.07094839  0.24442921  1
  O2-  O181  1  0.31752078  0.06955391  0.57392447  1
  O2-  O182  1  0.31876420  0.07382594  0.90197825  1
  O2-  O183  1  0.32104162  0.57240013  0.23284354  1
  O2-  O184  1  0.32053356  0.57595494  0.57987626  1
  O2-  O185  1  0.31926880  0.56901167  0.90857554  1
  O2-  O186  1  0.82317173  0.06851662  0.23594608  1
  O2-  O187  1  0.82784792  0.06759333  0.57713002  1
  O2-  O188  1  0.81944058  0.06790969  0.89918492  1
  O2-  O189  1  0.82015727  0.57042041  0.23239564  1
  O2-  O190  1  0.81899607  0.56922467  0.57007781  1
  O2-  O191  1  0.82433259  0.57342004  0.91124981  1
  O2-  O192  1  0.04225284  0.07857673  0.26458987  1
  O2-  O193  1  0.04211246  0.08400235  0.59574376  1
  O2-  O194  1  0.03973913  0.07750815  0.93425433  1
  O2-  O195  1  0.04785133  0.58483491  0.27131397  1
  O2-  O196  1  0.05100979  0.57537298  0.60102242  1
  O2-  O197  1  0.04293431  0.58660169  0.94037296  1
  O2-  O198  1  0.54419136  0.08233917  0.27089145  1
  O2-  O199  1  0.53761407  0.08168342  0.59817979  1
  O2-  O200  1  0.55494694  0.08070363  0.94612768  1
  O2-  O201  1  0.54356977  0.59037522  0.27048195  1
  O2-  O202  1  0.53955598  0.58615184  0.59494011  1
  O2-  O203  1  0.53995443  0.58452979  0.92991225  1
  O2-  O204  1  0.16370562  0.21071589  0.25997801  1
  O2-  O205  1  0.16464261  0.21363487  0.59710335  1
  O2-  O206  1  0.16570082  0.20694862  0.93347501  1
  O2-  O207  1  0.16478495  0.70866830  0.27121678  1
  O2-  O208  1  0.16904530  0.70892333  0.59612551  1
  O2-  O209  1  0.16413693  0.70167859  0.94041303  1
  O2-  O210  1  0.66949116  0.19706529  0.27498357  1
  O2-  O211  1  0.67510909  0.19671796  0.60187679  1
  O2-  O212  1  0.66389096  0.20782641  0.93971592  1
  O2-  O213  1  0.66287975  0.71045455  0.27110901  1
  O2-  O214  1  0.66587766  0.71407209  0.59759366  1
  O2-  O215  1  0.67249801  0.70452380  0.93178048  1
  O2-  O216  1  0.08676739  0.45994318  0.06561141  1
  O2-  O217  1  0.08796478  0.45218796  0.39549869  1
  O2-  O218  1  0.08639234  0.45712901  0.73841173  1
  O2-  O219  1  0.08086673  0.95366482  0.07052383  1
  O2-  O220  1  0.08641520  0.95294291  0.39598014  1
  O2-  O221  1  0.08612074  0.95760687  0.72470030  1
  O2-  O222  1  0.58602054  0.46281926  0.06333725  1
  O2-  O223  1  0.58635077  0.46164983  0.39594753  1
  O2-  O224  1  0.57822185  0.45907040  0.73331788  1
  O2-  O225  1  0.58221684  0.94297083  0.06002220  1
  O2-  O226  1  0.57702488  0.95181312  0.40082563  1
  O2-  O227  1  0.58083880  0.95982309  0.73703952  1
  O2-  O228  1  0.20314049  0.33667054  0.06356405  1
  O2-  O229  1  0.20809527  0.33286257  0.39131181  1
  O2-  O230  1  0.21505454  0.33242087  0.73583005  1
  O2-  O231  1  0.20742061  0.82781432  0.06909124  1
  O2-  O232  1  0.20942682  0.83757851  0.40052678  1
  O2-  O233  1  0.20359482  0.83645014  0.72623728  1
  O2-  O234  1  0.70219223  0.34009312  0.06631069  1
  O2-  O235  1  0.69289360  0.33267545  0.39238371  1
  O2-  O236  1  0.70219171  0.32735635  0.73441620  1
  O2-  O237  1  0.71013765  0.83317155  0.06304820  1
  O2-  O238  1  0.71201419  0.83398098  0.40071180  1
  O2-  O239  1  0.71188351  0.83643605  0.73694901  1
  O2-  O240  1  0.46266299  0.41827309  0.26398354  1
  O2-  O241  1  0.45149230  0.42212780  0.60039168  1
  O2-  O242  1  0.46119588  0.41388942  0.92961419  1
  O2-  O243  1  0.45150943  0.91497213  0.27155861  1
  O2-  O244  1  0.45132402  0.91798332  0.60460897  1
  O2-  O245  1  0.44701522  0.92469295  0.93687170  1
  O2-  O246  1  0.95851271  0.41605451  0.26977979  1
  O2-  O247  1  0.95796472  0.41594354  0.60560008  1
  O2-  O248  1  0.95714835  0.42098488  0.93119713  1
  O2-  O249  1  0.95902800  0.90847098  0.26800586  1
  O2-  O250  1  0.96299977  0.91458051  0.59186314  1
  O2-  O251  1  0.95688391  0.91081517  0.93991674  1
  O2-  O252  1  0.33634239  0.28933639  0.26282208  1
  O2-  O253  1  0.33465371  0.28613351  0.59529861  1
  O2-  O254  1  0.33012442  0.29324781  0.93413077  1
  O2-  O255  1  0.33473873  0.79153963  0.27070615  1
  O2-  O256  1  0.33299342  0.79945077  0.60271692  1
  O2-  O257  1  0.33116761  0.78924150  0.93194918  1
  O2-  O258  1  0.83005459  0.30711097  0.27591273  1
  O2-  O259  1  0.83293650  0.30357935  0.60500977  1
  O2-  O260  1  0.82520719  0.30049094  0.93547955  1
  O2-  O261  1  0.83807445  0.78764951  0.26807260  1
  O2-  O262  1  0.82959188  0.79535512  0.59723596  1
  O2-  O263  1  0.84002965  0.79041626  0.93781006  1
  O2-  O264  1  0.42042161  0.04840156  0.07165536  1
  O2-  O265  1  0.41018614  0.04409076  0.39757038  1
  O2-  O266  1  0.41016422  0.04494495  0.72824829  1
  O2-  O267  1  0.41393707  0.54008908  0.05951417  1
  O2-  O268  1  0.41900534  0.54191015  0.40005361  1
  O2-  O269  1  0.41697825  0.55247071  0.72956993  1
  O2-  O270  1  0.91266015  0.03578920  0.06846717  1
  O2-  O271  1  0.92042861  0.03619235  0.40123307  1
  O2-  O272  1  0.91729230  0.03798758  0.72823002  1
  O2-  O273  1  0.91336697  0.54323403  0.06490076  1
  O2-  O274  1  0.92043346  0.54375163  0.40009930  1
  O2-  O275  1  0.92121585  0.54679147  0.73483760  1
  O2-  O276  1  0.28943286  0.17092347  0.07032941  1
  O2-  O277  1  0.28871766  0.16420938  0.39444280  1
  O2-  O278  1  0.28860979  0.16164887  0.72582264  1
  O2-  O279  1  0.29348916  0.65959684  0.06237442  1
  O2-  O280  1  0.29134558  0.66665471  0.40300935  1
  O2-  O281  1  0.29400854  0.66869390  0.73123555  1
  O2-  O282  1  0.79146587  0.16888700  0.06770623  1
  O2-  O283  1  0.80602600  0.17428923  0.40022833  1
  O2-  O284  1  0.80856321  0.16809751  0.72558971  1
  O2-  O285  1  0.79425581  0.66308849  0.06454980  1
  O2-  O286  1  0.78927715  0.66446182  0.40010433  1
  O2-  O287  1  0.79202655  0.67066401  0.73398725  1
