# generated using pymatgen
data_Ca2Al2SiO7
_symmetry_space_group_name_H-M   'P 1'
_cell_length_a   15.45146726
_cell_length_b   15.45204552
_cell_length_c   15.27935482
_cell_angle_alpha   90.00324900
_cell_angle_beta   89.99674189
_cell_angle_gamma   89.98883665
_symmetry_Int_Tables_number   1
_chemical_formula_structural   Ca2Al2SiO7
_chemical_formula_sum   'Ca48 Al48 Si24 O168'
_cell_volume   3648.04940694
_cell_formula_units_Z   24
loop_
 _symmetry_equiv_pos_site_id
 _symmetry_equiv_pos_as_xyz
  1  'x, y, z'
loop_
 _atom_type_symbol
 _atom_type_oxidation_number
  Ca2+  2.0
  Al0+  0.0
  Si0+  0.0
  O2-  -2.0
loop_
 _atom_site_type_symbol
 _atom_site_label
 _atom_site_symmetry_multiplicity
 _atom_site_fract_x
 _atom_site_fract_y
 _atom_site_fract_z
 _atom_site_occupancy
  Ca2+  Ca0  1  0.17438238  0.08276523  0.17609005  1
  Ca2+  Ca1  1  0.16800360  0.08385009  0.49395838  1
  Ca2+  Ca2  1  0.17485417  0.08832125  0.84244437  1
  Ca2+  Ca3  1  0.16929850  0.57937621  0.17392451  1
  Ca2+  Ca4  1  0.17216323  0.58180596  0.50182742  1
  Ca2+  Ca5  1  0.16345988  0.56848833  0.83740713  1
  Ca2+  Ca6  1  0.67254791  0.09112839  0.17431673  1
  Ca2+  Ca7  1  0.66750225  0.08131145  0.49888965  1
  Ca2+  Ca8  1  0.66520072  0.08047177  0.83813739  1
  Ca2+  Ca9  1  0.66299796  0.57808733  0.16993117  1
  Ca2+  Ca10  1  0.67109997  0.58615783  0.50581779  1
  Ca2+  Ca11  1  0.67447487  0.57500352  0.83830073  1
  Ca2+  Ca12  1  0.08301375  0.32143020  0.15893730  1
  Ca2+  Ca13  1  0.07987884  0.33223638  0.49747158  1
  Ca2+  Ca14  1  0.08251075  0.33452597  0.83089420  1
  Ca2+  Ca15  1  0.08645608  0.83036163  0.16503871  1
  Ca2+  Ca16  1  0.08070559  0.83023799  0.49118961  1
  Ca2+  Ca17  1  0.06792591  0.83466985  0.82907033  1
  Ca2+  Ca18  1  0.57796311  0.32449252  0.16323784  1
  Ca2+  Ca19  1  0.57019694  0.33138490  0.49003092  1
  Ca2+  Ca20  1  0.58231999  0.32905647  0.83158756  1
  Ca2+  Ca21  1  0.57001441  0.83261666  0.16582340  1
  Ca2+  Ca22  1  0.58073717  0.82870017  0.49243341  1
  Ca2+  Ca23  1  0.57835561  0.83754433  0.83042144  1
  Ca2+  Ca24  1  0.32784104  0.41776423  0.17444951  1
  Ca2+  Ca25  1  0.33219103  0.41531455  0.50339370  1
  Ca2+  Ca26  1  0.32222066  0.40878464  0.83655572  1
  Ca2+  Ca27  1  0.33383253  0.92419094  0.17539409  1
  Ca2+  Ca28  1  0.33181938  0.91816238  0.49638544  1
  Ca2+  Ca29  1  0.33243941  0.92354375  0.84402190  1
  Ca2+  Ca30  1  0.82562412  0.40385664  0.16553969  1
  Ca2+  Ca31  1  0.83465750  0.42364833  0.50844714  1
  Ca2+  Ca32  1  0.83790358  0.41841350  0.84054509  1
  Ca2+  Ca33  1  0.83526449  0.92325170  0.17354918  1
  Ca2+  Ca34  1  0.82936552  0.92229295  0.50635678  1
  Ca2+  Ca35  1  0.82807560  0.90978142  0.83619761  1
  Ca2+  Ca36  1  0.42287493  0.15965288  0.16346934  1
  Ca2+  Ca37  1  0.41819485  0.17644162  0.49029211  1
  Ca2+  Ca38  1  0.42024131  0.16865997  0.83238709  1
  Ca2+  Ca39  1  0.41051223  0.67643688  0.16945116  1
  Ca2+  Ca40  1  0.42242805  0.66999346  0.48394622  1
  Ca2+  Ca41  1  0.41607271  0.67223390  0.83326115  1
  Ca2+  Ca42  1  0.92994409  0.16325246  0.16134787  1
  Ca2+  Ca43  1  0.91918881  0.17022950  0.49324404  1
  Ca2+  Ca44  1  0.92293168  0.18030047  0.83219429  1
  Ca2+  Ca45  1  0.92405785  0.67393513  0.16347168  1
  Ca2+  Ca46  1  0.91987774  0.66972976  0.49736554  1
  Ca2+  Ca47  1  0.91044341  0.67403865  0.82804397  1
  Al0+  Al48  1  0.00032495  -0.00096306  -0.01070644  1
  Al0+  Al49  1  -0.00160451  0.00217180  0.33988111  1
  Al0+  Al50  1  -0.00036070  0.00005825  0.66345618  1
  Al0+  Al51  1  0.00053189  0.50128697  0.00487056  1
  Al0+  Al52  1  -0.00240676  0.50166812  0.32870327  1
  Al0+  Al53  1  0.00118440  0.50039590  0.67122633  1
  Al0+  Al54  1  0.50043776  -0.00084131  -0.00486916  1
  Al0+  Al55  1  0.50080780  0.00042301  0.33241134  1
  Al0+  Al56  1  0.50055181  -0.00042877  0.66978841  1
  Al0+  Al57  1  0.50150178  0.50089421  0.00334016  1
  Al0+  Al58  1  0.49922621  0.49950240  0.32967616  1
  Al0+  Al59  1  0.50021433  0.50081669  0.66499201  1
  Al0+  Al60  1  0.25210324  0.24968620  0.00692700  1
  Al0+  Al61  1  0.24695306  0.24982524  0.33141654  1
  Al0+  Al62  1  0.25167599  0.24957196  0.66635147  1
  Al0+  Al63  1  0.24977946  0.74956835  -0.00754359  1
  Al0+  Al64  1  0.24817467  0.74826532  0.33438150  1
  Al0+  Al65  1  0.24992910  0.75152037  0.66958029  1
  Al0+  Al66  1  0.75016571  0.24929681  -0.00477118  1
  Al0+  Al67  1  0.74773092  0.25126491  0.33939122  1
  Al0+  Al68  1  0.75160655  0.24863749  0.66210963  1
  Al0+  Al69  1  0.74893634  0.74881372  -0.00043934  1
  Al0+  Al70  1  0.74975635  0.74893436  0.32895602  1
  Al0+  Al71  1  0.74933352  0.75103490  0.67156529  1
  Al0+  Al72  1  0.82033194  0.56964095  0.68011883  1
  Al0+  Al73  1  0.92710715  0.82017373  0.65086060  1
  Al0+  Al74  1  0.17855393  0.92822710  0.34790572  1
  Al0+  Al75  1  0.32027976  0.56918284  0.34619025  1
  Al0+  Al76  1  0.06802075  0.17894012  0.32093964  1
  Al0+  Al77  1  0.18183420  0.42959181  0.67898234  1
  Al0+  Al78  1  0.68034192  0.42750266  0.01384734  1
  Al0+  Al79  1  0.32323043  0.07228821  0.34983579  1
  Al0+  Al80  1  0.57121496  0.17941924  0.98525481  1
  Al0+  Al81  1  0.82045135  0.07231651  0.34671557  1
  Al0+  Al82  1  0.07515616  0.17900155  0.98455965  1
  Al0+  Al83  1  0.42808355  0.82098751  0.32041253  1
  Al0+  Al84  1  0.42966627  0.32015574  0.65419628  1
  Al0+  Al85  1  0.92994066  0.32067827  0.98671592  1
  Al0+  Al86  1  0.42628721  0.32103814  0.31647867  1
  Al0+  Al87  1  0.42949960  0.82008311  0.98484560  1
  Al0+  Al88  1  0.92872655  0.82020329  0.98689629  1
  Al0+  Al89  1  0.17879011  0.42932649  0.01648112  1
  Al0+  Al90  1  0.57122650  0.17949285  0.31940468  1
  Al0+  Al91  1  0.57400827  0.67746768  0.31775485  1
  Al0+  Al92  1  0.07057851  0.67857879  0.32069526  1
  Al0+  Al93  1  0.92993665  0.32271659  0.65247611  1
  Al0+  Al94  1  0.68027666  0.93129606  0.68082968  1
  Al0+  Al95  1  0.32174764  0.06888759  0.01380873  1
  Si0+  Si96  1  0.82443607  0.07394122  0.68624683  1
  Si0+  Si97  1  0.32483298  0.57433580  0.68407766  1
  Si0+  Si98  1  0.67893459  0.92762388  0.01602434  1
  Si0+  Si99  1  0.82127400  0.57222218  0.34772826  1
  Si0+  Si100  1  0.07243789  0.67904698  0.65085345  1
  Si0+  Si101  1  0.67885089  0.92614218  0.34789523  1
  Si0+  Si102  1  0.67891983  0.43007124  0.34981307  1
  Si0+  Si103  1  0.07268288  0.67734651  0.98132810  1
  Si0+  Si104  1  0.32193179  0.57418158  0.01638242  1
  Si0+  Si105  1  0.42778004  0.82228247  0.65170290  1
  Si0+  Si106  1  0.17596141  0.92737599  0.01334034  1
  Si0+  Si107  1  0.42917066  0.32446440  0.98433034  1
  Si0+  Si108  1  0.92666197  0.32380071  0.31793884  1
  Si0+  Si109  1  0.67668029  0.42672031  0.68168376  1
  Si0+  Si110  1  0.31954947  0.06918887  0.68199174  1
  Si0+  Si111  1  0.57207743  0.67665144  0.98089281  1
  Si0+  Si112  1  0.17527024  0.42811522  0.34995259  1
  Si0+  Si113  1  0.92819598  0.82282802  0.31870381  1
  Si0+  Si114  1  0.82142505  0.57383960  0.02008762  1
  Si0+  Si115  1  0.17735430  0.92726784  0.68352934  1
  Si0+  Si116  1  0.07333620  0.17823487  0.64876416  1
  Si0+  Si117  1  0.56925068  0.68049751  0.65408432  1
  Si0+  Si118  1  0.57206559  0.17577774  0.64932527  1
  Si0+  Si119  1  0.82090467  0.06910547  0.01177148  1
  O2-  O120  1  0.24409045  -0.00410538  0.05778772  1
  O2-  O121  1  0.25176183  -0.00108473  0.39963632  1
  O2-  O122  1  0.24787950  -0.00105047  0.72524507  1
  O2-  O123  1  0.25480450  0.50408212  0.06035984  1
  O2-  O124  1  0.24693755  0.49371093  0.39445047  1
  O2-  O125  1  0.25713152  0.50409344  0.72709722  1
  O2-  O126  1  0.75149527  -0.00260945  0.05665398  1
  O2-  O127  1  0.74591137  -0.00359471  0.39217192  1
  O2-  O128  1  0.75459639  0.00578341  0.72989014  1
  O2-  O129  1  0.75610877  0.50106367  0.06279031  1
  O2-  O130  1  0.74939970  0.50252586  0.39085392  1
  O2-  O131  1  0.74975862  0.49044457  0.72645071  1
  O2-  O132  1  -0.00514652  0.25483924  0.27455245  1
  O2-  O133  1  0.00229146  0.24578761  0.60616949  1
  O2-  O134  1  0.00629777  0.25433708  0.93494372  1
  O2-  O135  1  -0.00131928  0.75631485  0.27441888  1
  O2-  O136  1  0.00475069  0.74822143  0.60547210  1
  O2-  O137  1  0.00235070  0.74514070  0.93829823  1
  O2-  O138  1  0.49502747  0.24540833  0.26732008  1
  O2-  O139  1  0.50792156  0.24947195  0.60723824  1
  O2-  O140  1  0.49731622  0.25541696  0.93923840  1
  O2-  O141  1  0.50070810  0.74923681  0.27013683  1
  O2-  O142  1  0.49487694  0.74735998  0.61086323  1
  O2-  O143  1  0.50325239  0.74499113  0.93628733  1
  O2-  O144  1  0.07161980  0.17561964  0.09792979  1
  O2-  O145  1  0.06614642  0.18136978  0.43440707  1
  O2-  O146  1  0.07502084  0.17893238  0.75435951  1
  O2-  O147  1  0.07357505  0.67948890  0.08698820  1
  O2-  O148  1  0.06666784  0.67624391  0.43395897  1
  O2-  O149  1  0.07245720  0.68130559  0.75651689  1
  O2-  O150  1  0.57278457  0.17888157  0.09771076  1
  O2-  O151  1  0.57308389  0.18416038  0.43330323  1
  O2-  O152  1  0.56974013  0.17428301  0.75522964  1
  O2-  O153  1  0.57346833  0.67778036  0.08597158  1
  O2-  O154  1  0.57626508  0.68013486  0.43228678  1
  O2-  O155  1  0.56777051  0.68057194  0.75918485  1
  O2-  O156  1  0.17420332  0.43089049  0.24450063  1
  O2-  O157  1  0.18229690  0.43082103  0.56604958  1
  O2-  O158  1  0.18022586  0.43037987  0.90265900  1
  O2-  O159  1  0.17700325  0.92946296  0.23412106  1
  O2-  O160  1  0.17873594  0.92395217  0.57898589  1
  O2-  O161  1  0.17784677  0.92820667  0.90712681  1
  O2-  O162  1  0.68168155  0.42756224  0.24474833  1
  O2-  O163  1  0.67484491  0.43190158  0.57612566  1
  O2-  O164  1  0.68057786  0.43043672  0.90034399  1
  O2-  O165  1  0.68171818  0.92422147  0.24221508  1
  O2-  O166  1  0.67957472  0.93113786  0.56779470  1
  O2-  O167  1  0.67949835  0.92801410  0.91052770  1
  O2-  O168  1  0.43110697  0.32531601  0.08934632  1
  O2-  O169  1  0.43013843  0.32220090  0.43074944  1
  O2-  O170  1  0.42855343  0.31674461  0.76749353  1
  O2-  O171  1  0.42946598  0.81975799  0.09723738  1
  O2-  O172  1  0.43104646  0.81874650  0.43484662  1
  O2-  O173  1  0.42893191  0.82246883  0.75695844  1
  O2-  O174  1  0.92760996  0.31416630  0.10016103  1
  O2-  O175  1  0.92868345  0.32621066  0.42397356  1
  O2-  O176  1  0.93128300  0.32275368  0.76524197  1
  O2-  O177  1  0.92931531  0.82055113  0.10002790  1
  O2-  O178  1  0.92604224  0.81929282  0.42434447  1
  O2-  O179  1  0.92735241  0.81740010  0.76412358  1
  O2-  O180  1  0.32251580  0.06943896  0.23639435  1
  O2-  O181  1  0.32043957  0.06811552  0.57736319  1
  O2-  O182  1  0.32188228  0.06727090  0.89957925  1
  O2-  O183  1  0.31680860  0.56981205  0.23308145  1
  O2-  O184  1  0.32497441  0.57679276  0.57882615  1
  O2-  O185  1  0.32087120  0.57456892  0.91020176  1
  O2-  O186  1  0.82183270  0.07002038  0.23297257  1
  O2-  O187  1  0.82382875  0.07312444  0.58056489  1
  O2-  O188  1  0.81855140  0.06786368  0.90666454  1
  O2-  O189  1  0.82236493  0.57270462  0.24298612  1
  O2-  O190  1  0.81794845  0.57067653  0.56654181  1
  O2-  O191  1  0.81858564  0.57605943  0.91413154  1
  O2-  O192  1  0.03509377  0.08267276  0.26794822  1
  O2-  O193  1  0.04913585  0.08404602  0.60341449  1
  O2-  O194  1  0.04559066  0.08251167  0.92799297  1
  O2-  O195  1  0.03594042  0.58505494  0.26259274  1
  O2-  O196  1  0.04641815  0.58556130  0.60613913  1
  O2-  O197  1  0.04621023  0.58332551  0.93714668  1
  O2-  O198  1  0.55244773  0.07857273  0.26849132  1
  O2-  O199  1  0.54081619  0.08375164  0.60335297  1
  O2-  O200  1  0.53942863  0.08393403  0.92916463  1
  O2-  O201  1  0.54631221  0.57976570  0.26512739  1
  O2-  O202  1  0.54716757  0.58776229  0.60550313  1
  O2-  O203  1  0.54654946  0.58295856  0.93434107  1
  O2-  O204  1  0.16417995  0.20695321  0.26622971  1
  O2-  O205  1  0.16606792  0.20607798  0.60272295  1
  O2-  O206  1  0.17489704  0.20745903  0.93405467  1
  O2-  O207  1  0.16615205  0.70692415  0.26510974  1
  O2-  O208  1  0.16713771  0.70503629  0.60616493  1
  O2-  O209  1  0.16497443  0.70114518  0.93195537  1
  O2-  O210  1  0.66906998  0.21348512  0.26760716  1
  O2-  O211  1  0.66801654  0.19399600  0.60587274  1
  O2-  O212  1  0.66613844  0.21004674  0.92796296  1
  O2-  O213  1  0.67140896  0.70482873  0.26176535  1
  O2-  O214  1  0.65985046  0.71240689  0.60742422  1
  O2-  O215  1  0.66527615  0.70374334  0.93450445  1
  O2-  O216  1  0.08249657  0.45984726  0.07140749  1
  O2-  O217  1  0.08156370  0.45796213  0.39457416  1
  O2-  O218  1  0.08683215  0.46131010  0.73584362  1
  O2-  O219  1  0.08079390  0.95038099  0.05676898  1
  O2-  O220  1  0.08154750  0.95862067  0.40395188  1
  O2-  O221  1  0.08414461  0.95450317  0.72876397  1
  O2-  O222  1  0.58422172  0.45905459  0.06871594  1
  O2-  O223  1  0.58690684  0.45805610  0.39623108  1
  O2-  O224  1  0.58485380  0.45680217  0.72988633  1
  O2-  O225  1  0.58720156  0.95689410  0.06108011  1
  O2-  O226  1  0.58532889  0.94965665  0.39466039  1
  O2-  O227  1  0.58349153  0.96159330  0.73722031  1
  O2-  O228  1  0.20926609  0.33348293  0.07116936  1
  O2-  O229  1  0.19718317  0.33376509  0.39547288  1
  O2-  O230  1  0.21366481  0.33300002  0.73382013  1
  O2-  O231  1  0.20153626  0.83216207  0.05585410  1
  O2-  O232  1  0.20477320  0.82964515  0.40236780  1
  O2-  O233  1  0.20528916  0.83633163  0.73353076  1
  O2-  O234  1  0.71236789  0.33060465  0.06727093  1
  O2-  O235  1  0.70695093  0.34058767  0.40165860  1
  O2-  O236  1  0.69721003  0.32990675  0.72299758  1
  O2-  O237  1  0.70498240  0.83513353  0.06240100  1
  O2-  O238  1  0.70669835  0.83290635  0.39491692  1
  O2-  O239  1  0.71044446  0.83575471  0.73785520  1
  O2-  O240  1  0.45801708  0.41767810  0.26333122  1
  O2-  O241  1  0.45626364  0.41886355  0.60117883  1
  O2-  O242  1  0.45420759  0.41829272  0.93784285  1
  O2-  O243  1  0.45691996  0.91858602  0.26704991  1
  O2-  O244  1  0.45959309  0.91304533  0.60535802  1
  O2-  O245  1  0.46384233  0.91405703  0.92761267  1
  O2-  O246  1  0.94891580  0.41671139  0.26966739  1
  O2-  O247  1  0.96194092  0.41976667  0.59959292  1
  O2-  O248  1  0.95285891  0.42298063  0.93914442  1
  O2-  O249  1  0.95174106  0.91747099  0.27550792  1
  O2-  O250  1  0.95536904  0.91833061  0.59886932  1
  O2-  O251  1  0.95758202  0.91420671  0.92651302  1
  O2-  O252  1  0.32565057  0.29941961  0.26732054  1
  O2-  O253  1  0.33495402  0.28637212  0.59869636  1
  O2-  O254  1  0.33546057  0.29647089  0.94037504  1
  O2-  O255  1  0.33061049  0.79084829  0.26797531  1
  O2-  O256  1  0.33370611  0.79902411  0.60705373  1
  O2-  O257  1  0.33336898  0.79071449  0.92742930  1
  O2-  O258  1  0.83211108  0.29696842  0.27630544  1
  O2-  O259  1  0.83216587  0.29537130  0.59756910  1
  O2-  O260  1  0.83434378  0.28891106  0.92998418  1
  O2-  O261  1  0.83642174  0.79540974  0.27011272  1
  O2-  O262  1  0.83043215  0.78708557  0.59903582  1
  O2-  O263  1  0.83152206  0.78835526  0.93321286  1
  O2-  O264  1  0.41827760  0.03409350  0.06517430  1
  O2-  O265  1  0.42266924  0.04555557  0.40271935  1
  O2-  O266  1  0.41102405  0.04039361  0.73010044  1
  O2-  O267  1  0.41695910  0.55312503  0.06050998  1
  O2-  O268  1  0.41861867  0.54133325  0.39955202  1
  O2-  O269  1  0.41900602  0.55036332  0.73020785  1
  O2-  O270  1  0.91409384  0.04040547  0.05630186  1
  O2-  O271  1  0.91398679  0.04183618  0.40603610  1
  O2-  O272  1  0.91883415  0.04804382  0.73029248  1
  O2-  O273  1  0.91687204  0.55454524  0.06405184  1
  O2-  O274  1  0.91234833  0.54294027  0.39649850  1
  O2-  O275  1  0.91732743  0.54409111  0.73559579  1
  O2-  O276  1  0.29717967  0.16587147  0.06843202  1
  O2-  O277  1  0.29011106  0.17051411  0.40190977  1
  O2-  O278  1  0.29173557  0.16067259  0.73005691  1
  O2-  O279  1  0.29283587  0.66781113  0.06082055  1
  O2-  O280  1  0.28845121  0.66430353  0.40252049  1
  O2-  O281  1  0.29791937  0.66782814  0.73143791  1
  O2-  O282  1  0.79163195  0.16013283  0.05875226  1
  O2-  O283  1  0.78861214  0.16746855  0.40446145  1
  O2-  O284  1  0.79890039  0.16857837  0.73085414  1
  O2-  O285  1  0.79081424  0.66577861  0.06736100  1
  O2-  O286  1  0.79437482  0.66467726  0.39520394  1
  O2-  O287  1  0.78434868  0.66351550  0.73637595  1
